data_functionalizedCrystal
_audit_creation_method	'MofGen! by Chris Wilmer'
_symmetry_space_group_name_H-M	'P1'
_symmetry_Int_Tables_number	1
_symmetry_cell_setting	triclinic
loop_
_symmetry_equiv_pos_as_xyz
  x,y,z
_cell_length_a	16.120484
_cell_length_b	16.120542
_cell_length_c	13.897441
_cell_angle_alpha	92.918134
_cell_angle_beta	92.866498
_cell_angle_gamma	89.836765
loop_
_atom_site_label
_atom_site_type_symbol
_atom_site_fract_x
_atom_site_fract_y
_atom_site_fract_z
Zn1	Zn	-0.395673	-1.254475	-0.642134
Zn2	Zn	-0.145673	-1.004475	-0.392134
Zn3	Zn	0.104327	-0.754475	-0.142134
Zn4	Zn	0.354327	-0.504475	0.107866
Zn5	Zn	-0.534738	-1.247318	-0.488563
Zn6	Zn	-0.284738	-0.997318	-0.238563
Zn7	Zn	-0.034738	-0.747318	0.011437
Zn8	Zn	0.215262	-0.497318	0.261437
Zn9	Zn	-0.388637	-1.115414	-0.472284
Zn10	Zn	-0.138637	-0.865414	-0.222284
Zn11	Zn	0.111363	-0.615414	0.027716
Zn12	Zn	0.361363	-0.365414	0.277716
Zn13	Zn	-0.527616	-1.108327	-0.641247
Zn14	Zn	-0.277616	-0.858327	-0.391247
Zn15	Zn	-0.027616	-0.608327	-0.141247
Zn16	Zn	0.222384	-0.358327	0.108753
O17	O	-0.461666	-1.181384	-0.561057
O18	O	-0.211666	-0.931384	-0.311057
O19	O	0.038334	-0.681384	-0.061057
O20	O	0.288334	-0.431384	0.188943
O21	O	-0.420046	-1.369891	-0.628946
O22	O	-0.170046	-1.119891	-0.378946
O23	O	0.079954	-0.869891	-0.128946
O24	O	0.329954	-0.619891	0.121054
O25	O	-0.515394	-1.229791	-0.351422
O26	O	-0.265394	-0.979791	-0.101422
O27	O	-0.015394	-0.729791	0.148578
O28	O	0.234606	-0.479791	0.398578
O29	O	-0.273208	-1.139822	-0.488374
O30	O	-0.023208	-0.889822	-0.238374
O31	O	0.226792	-0.639822	0.011626
O32	O	0.476792	-0.389822	0.261626
O33	O	-0.522217	-1.364633	-0.516118
O34	O	-0.272217	-1.114633	-0.266118
O35	O	-0.022217	-0.864633	-0.016118
O36	O	0.227783	-0.614633	0.233882
O37	O	-0.278377	-1.241989	-0.613161
O38	O	-0.028377	-0.991989	-0.363161
O39	O	0.221623	-0.741989	-0.113161
O40	O	0.471623	-0.491989	0.136839
O41	O	-0.408053	-1.132882	-0.339462
O42	O	-0.158053	-0.882882	-0.089462
O43	O	0.091947	-0.632882	0.160538
O44	O	0.341947	-0.382882	0.410538
O45	O	-0.401147	-0.998109	-0.487514
O46	O	-0.151147	-0.748109	-0.237514
O47	O	0.098853	-0.498109	0.012486
O48	O	0.348853	-0.248109	0.262486
O49	O	-0.510077	-1.127743	-0.776346
O50	O	-0.260077	-0.877743	-0.526346
O51	O	-0.010077	-0.627743	-0.276346
O52	O	0.239923	-0.377743	-0.026346
O53	O	-0.503254	-0.992902	-0.611650
O54	O	-0.253254	-0.742902	-0.361650
O55	O	-0.003254	-0.492902	-0.111650
O56	O	0.246746	-0.242902	0.138350
O57	O	-0.413140	-1.235117	-0.776997
O58	O	-0.163140	-0.985117	-0.526997
O59	O	0.086860	-0.735117	-0.276997
O60	O	0.336860	-0.485117	-0.026997
O61	O	-0.650156	-1.222919	-0.515258
O62	O	-0.400156	-0.972919	-0.265258
O63	O	-0.150156	-0.722919	-0.015258
O64	O	0.099844	-0.472919	0.234742
O65	O	-0.644923	-1.120803	-0.627434
O66	O	-0.394923	-0.870803	-0.377434
O67	O	-0.144923	-0.620803	-0.127434
O68	O	0.105077	-0.370803	0.122566
C69	C	-0.450665	-0.965333	-0.547720
C70	C	-0.200665	-0.715333	-0.297720
C71	C	0.049335	-0.465333	-0.047720
C72	C	0.299335	-0.215333	0.202280
C73	C	-0.445978	-0.872904	-0.542038
C74	C	-0.195978	-0.622904	-0.292038
C75	C	0.054022	-0.372904	-0.042038
C76	C	0.304022	-0.122904	0.207962
C77	C	-0.485951	-0.659935	-0.590475
C78	C	-0.235951	-0.409935	-0.340475
C79	C	0.014049	-0.159935	-0.090475
C80	C	0.264049	0.090065	0.159525
C81	C	-0.437430	-0.703681	-0.531664
C82	C	-0.187430	-0.453681	-0.281664
C83	C	0.062570	-0.203681	-0.031664
C84	C	0.312570	0.046319	0.218336
C85	C	-0.442188	-0.797846	-0.537438
C86	C	-0.192188	-0.547846	-0.287438
C87	C	0.057812	-0.297846	-0.037438
C88	C	0.307812	-0.047846	0.212562
C89	C	-0.481194	-0.565762	-0.584703
C90	C	-0.231194	-0.315762	-0.334703
C91	C	0.018806	-0.065762	-0.084703
C92	C	0.268806	0.184238	0.165297
C93	C	-0.677712	-1.170338	-0.573039
C94	C	-0.427712	-0.920338	-0.323039
C95	C	-0.177712	-0.670338	-0.073039
C96	C	0.072288	-0.420338	0.176961
C97	C	-0.770141	-1.165689	-0.578202
C98	C	-0.520141	-0.915689	-0.328202
C99	C	-0.270141	-0.665689	-0.078202
C100	C	-0.020141	-0.415689	0.171798
C101	C	-0.939371	-1.157206	-0.587648
C102	C	-0.689371	-0.907206	-0.337648
C103	C	-0.439371	-0.657206	-0.087648
C104	C	-0.189371	-0.407206	0.162352
C105	C	-0.983128	-1.205710	-0.534491
C106	C	-0.733128	-0.955710	-0.284491
C107	C	-0.483128	-0.705710	-0.034491
C108	C	-0.233128	-0.455710	0.215509
C109	C	-1.077293	-1.200990	-0.539747
C110	C	-0.827293	-0.950990	-0.289747
C111	C	-0.577293	-0.700990	-0.039747
C112	C	-0.327293	-0.450990	0.210253
C113	C	-0.845197	-1.161925	-0.582393
C114	C	-0.595197	-0.911925	-0.332393
C115	C	-0.345197	-0.661925	-0.082393
C116	C	-0.095197	-0.411925	0.167607
C117	C	-0.244777	-1.192495	-0.549051
C118	C	0.005223	-0.942495	-0.299051
C119	C	0.255223	-0.692495	-0.049051
C120	C	0.505223	-0.442495	0.200949
C121	C	-0.152352	-1.197230	-0.543934
C122	C	0.097648	-0.947230	-0.293934
C123	C	0.347648	-0.697230	-0.043934
C124	C	0.597648	-0.447230	0.206066
C125	C	-0.461599	-1.181438	-0.812649
C126	C	-0.211599	-0.931438	-0.562649
C127	C	0.038401	-0.681438	-0.312649
C128	C	0.288401	-0.431438	-0.062649
C129	C	-0.461570	-1.181461	-0.919863
C130	C	-0.211570	-0.931461	-0.669863
C131	C	0.038430	-0.681461	-0.419863
C132	C	0.288430	-0.431461	-0.169863
C133	C	-0.472706	-0.398278	-0.574433
C134	C	-0.222706	-0.148278	-0.324433
C135	C	0.027294	0.101722	-0.074433
C136	C	0.277294	0.351722	0.175567
C137	C	-0.477400	-0.490706	-0.580098
C138	C	-0.227400	-0.240706	-0.330098
C139	C	0.022600	0.009294	-0.080098
C140	C	0.272600	0.259294	0.169902
C141	C	-0.461547	-1.181479	-1.006932
C142	C	-0.211547	-0.931479	-0.756932
C143	C	0.038453	-0.681479	-0.506932
C144	C	0.288453	-0.431479	-0.256932
C145	C	-0.461511	-1.181505	-1.116164
C146	C	-0.211511	-0.931505	-0.866164
C147	C	0.038489	-0.681505	-0.616164
C148	C	0.288489	-0.431505	-0.366164
C149	C	-0.461675	-1.181380	-0.310443
C150	C	-0.211675	-0.931380	-0.060443
C151	C	0.038325	-0.681380	0.189557
C152	C	0.288325	-0.431380	0.439557
C153	C	-0.461478	-1.181530	-0.203227
C154	C	-0.211478	-0.931530	0.046773
C155	C	0.038522	-0.681530	0.296773
C156	C	0.288522	-0.431530	0.546773
H157	H	-0.531061	-0.693200	-0.645157
H158	H	-0.281061	-0.443200	-0.395157
H159	H	-0.031061	-0.193200	-0.145157
H160	H	0.218939	0.056800	0.104843
C161	C	-0.938203	-1.266591	-0.467665
C162	C	-0.688203	-1.016591	-0.217665
C163	C	-0.438203	-0.766591	0.032335
C164	C	-0.188203	-0.516591	0.282335
C165	C	-0.842670	-1.271280	-0.462425
C166	C	-0.592670	-1.021280	-0.212425
C167	C	-0.342670	-0.771280	0.037575
C168	C	-0.092670	-0.521280	0.287575
C169	C	-0.797741	-1.332154	-0.395596
C170	C	-0.547741	-1.082154	-0.145596
C171	C	-0.297741	-0.832154	0.104404
C172	C	-0.047741	-0.582154	0.354404
C173	C	-0.848344	-1.388338	-0.334007
C174	C	-0.598344	-1.138338	-0.084007
C175	C	-0.348344	-0.888338	0.165993
C176	C	-0.098344	-0.638338	0.415993
C177	C	-0.943882	-1.383651	-0.339244
C178	C	-0.693882	-1.133651	-0.089244
C179	C	-0.443882	-0.883651	0.160756
C180	C	-0.193882	-0.633651	0.410756
C181	C	-0.988811	-1.322778	-0.406073
C182	C	-0.738811	-1.072778	-0.156073
C183	C	-0.488811	-0.822778	0.093927
C184	C	-0.238811	-0.572778	0.343927
H185	H	-0.805206	-1.229687	-0.508019
H186	H	-0.555206	-0.979687	-0.258019
H187	H	-0.305206	-0.729687	-0.008019
H188	H	-0.055206	-0.479687	0.241981
H189	H	-0.727017	-1.335623	-0.391720
H190	H	-0.477017	-1.085623	-0.141720
H191	H	-0.227017	-0.835623	0.108280
H192	H	0.022983	-0.585623	0.358280
H193	H	-0.815085	-1.433400	-0.284536
H194	H	-0.565085	-1.183400	-0.034536
H195	H	-0.315085	-0.933400	0.215464
H196	H	-0.065085	-0.683400	0.465464
H197	H	-0.981347	-1.425244	-0.293650
H198	H	-0.731347	-1.175244	-0.043650
H199	H	-0.481347	-0.925244	0.206350
H200	H	-0.231347	-0.675244	0.456350
H201	H	-1.059535	-1.319308	-0.409950
H202	H	-0.809535	-1.069308	-0.159950
H203	H	-0.559535	-0.819308	0.090050
H204	H	-0.309535	-0.569308	0.340050
H205	H	-0.972629	-1.112137	-0.637099
H206	H	-0.722629	-0.862137	-0.387099
H207	H	-0.472629	-0.612137	-0.137099
H208	H	-0.222629	-0.362137	0.112901
H209	H	-0.392316	-0.670413	-0.476977
H210	H	-0.142316	-0.420413	-0.226977
H211	H	0.107684	-0.170413	0.023023
H212	H	0.357684	0.079587	0.273023
