data_functionalizedCrystal
_audit_creation_method	'MofGen! by Chris Wilmer'
_symmetry_space_group_name_H-M	'P1'
_symmetry_Int_Tables_number	1
_symmetry_cell_setting	triclinic
loop_
_symmetry_equiv_pos_as_xyz
  x,y,z
_cell_length_a	15.021413
_cell_length_b	11.792241
_cell_length_c	11.792253
_cell_angle_alpha	84.196007
_cell_angle_beta	90.014625
_cell_angle_gamma	89.990439
loop_
_atom_site_label
_atom_site_type_symbol
_atom_site_fract_x
_atom_site_fract_y
_atom_site_fract_z
O1	O	-0.073958	-1.506899	-0.155576
O2	O	0.259376	-1.173565	0.177758
O3	O	0.592709	-0.840232	0.511091
O4	O	-0.073979	-1.176558	-0.171609
O5	O	0.259354	-0.843225	0.161725
O6	O	0.592687	-0.509892	0.495058
O7	O	-0.073949	-1.349738	0.001577
O8	O	0.259384	-1.016404	0.334911
O9	O	0.592717	-0.683071	0.668244
O10	O	-0.073987	-1.333720	-0.328762
O11	O	0.259346	-1.000386	0.004572
O12	O	0.592679	-0.667053	0.337905
O13	O	0.074115	-1.349757	0.001601
O14	O	0.407448	-1.016423	0.334934
O15	O	0.740781	-0.683090	0.668267
O16	O	0.074085	-1.176578	-0.171585
O17	O	0.407418	-0.843244	0.161748
O18	O	0.740751	-0.509911	0.495081
O19	O	0.074107	-1.506918	-0.155553
O20	O	0.407440	-1.173585	0.177781
O21	O	0.740773	-0.840251	0.511114
Zn22	Zn	0.097604	-1.341751	-0.163565
Zn23	Zn	0.430937	-1.008417	0.169768
Zn24	Zn	0.764271	-0.675084	0.503101
Zn25	Zn	-0.097477	-1.341726	-0.163596
Zn26	Zn	0.235856	-1.008392	0.169737
Zn27	Zn	0.569190	-0.675059	0.503071
O28	O	0.074077	-1.333739	-0.328739
O29	O	0.407410	-1.000405	0.004595
O30	O	0.740743	-0.667072	0.337928
C31	C	0.000050	-1.134277	-0.170590
C32	C	0.333383	-0.800944	0.162743
C33	C	0.666717	-0.467610	0.496077
C34	C	0.000043	-1.008263	-0.167576
C35	C	0.333376	-0.674930	0.165758
C36	C	0.666709	-0.341596	0.499091
N37	N	-0.230614	-1.341709	-0.163608
N38	N	0.102719	-1.008376	0.169725
N39	N	0.436052	-0.675042	0.503058
C40	C	0.000085	-1.348738	0.043880
C41	C	0.333419	-1.015405	0.377213
C42	C	0.666752	-0.682071	0.710546
C43	C	0.000094	-1.345718	0.169893
C44	C	0.333427	-1.012385	0.503226
C45	C	0.666760	-0.679051	0.836559
C46	C	-0.470306	-1.261479	-0.243526
C47	C	-0.136973	-0.928145	0.089808
C48	C	0.196361	-0.594812	0.423141
C49	C	-0.529633	-1.239078	-0.140748
C50	C	-0.196299	-0.905745	0.192585
C51	C	0.137034	-0.572411	0.525918
C52	C	-0.412221	-1.341731	-0.163584
C53	C	-0.078888	-1.008398	0.169749
C54	C	0.254445	-0.675065	0.503083
C55	C	-0.529637	-1.364101	-0.266338
C56	C	-0.196303	-1.030768	0.066996
C57	C	0.137030	-0.697434	0.400329
C58	C	-0.587645	-1.341750	-0.163570
C59	C	-0.254312	-1.008417	0.169763
C60	C	0.079021	-0.675084	0.503097
C61	C	-0.470241	-1.319279	-0.060755
C62	C	-0.136908	-0.985946	0.272579
C63	C	0.196425	-0.652613	0.605912
C64	C	-0.470240	-1.444347	-0.186412
C65	C	-0.136907	-1.111014	0.146921
C66	C	0.196426	-0.777680	0.480255
C67	C	-0.529540	-1.421990	-0.083561
C68	C	-0.196207	-1.088656	0.249772
C69	C	0.137127	-0.755323	0.583106
C70	C	-0.311164	-1.341717	-0.163594
C71	C	0.022169	-1.008384	0.169739
C72	C	0.355503	-0.675051	0.503073
C73	C	-0.688701	-1.341765	-0.163548
C74	C	-0.355367	-1.008432	0.169785
C75	C	-0.022034	-0.675098	0.503118
N76	N	0.230742	-1.341776	-0.163544
N77	N	0.564075	-1.008443	0.169789
N78	N	0.897408	-0.675110	0.503123
C79	C	0.000075	-1.549199	-0.156571
C80	C	0.333409	-1.215866	0.176762
C81	C	0.666742	-0.882533	0.510095
C82	C	0.000077	-1.675213	-0.159586
C83	C	0.333410	-1.341880	0.173748
C84	C	0.666744	-1.008546	0.507081
C85	C	0.000069	-0.777551	-0.162033
C86	C	0.333402	-0.444217	0.171301
C87	C	0.666735	-0.110884	0.504634
C88	C	0.000054	-0.905936	-0.165112
C89	C	0.333388	-0.572603	0.168221
C90	C	0.666721	-0.239269	0.501554
C91	C	0.000098	-1.343264	0.272229
C92	C	0.333431	-1.009931	0.605563
C93	C	0.666765	-0.676597	0.938896
C94	C	0.000099	-1.340196	0.400616
C95	C	0.333432	-1.006862	0.733949
C96	C	0.666766	-0.673529	1.067283
C97	C	0.000058	-1.334738	0.628959
C98	C	0.333392	-1.001405	0.962292
C99	C	0.666725	-0.668072	1.295626
C100	C	0.000100	-1.337758	0.502946
C101	C	0.333433	-1.004425	0.836279
C102	C	0.666766	-0.671092	1.169613
H103	H	-0.555726	-1.152308	-0.121431
H104	H	-0.222393	-0.818975	0.211902
H105	H	0.110940	-0.485641	0.545236
H106	H	-0.444262	-1.300265	0.026168
H107	H	-0.110928	-0.966932	0.359502
H108	H	0.222405	-0.633598	0.692835
N109	N	-0.561957	-1.507140	0.001353
N110	N	-0.228624	-1.173806	0.334687
N111	N	0.104709	-0.840473	0.668020
N112	N	-0.542726	-1.502137	0.103863
N113	N	-0.209392	-1.168803	0.437197
N114	N	0.123941	-0.835470	0.770530
H115	H	-0.565621	-1.562270	0.163838
H116	H	-0.232288	-1.228937	0.497171
H117	H	0.101046	-0.895603	0.830505
H118	H	-0.444131	-1.531090	-0.205768
H119	H	-0.110798	-1.197757	0.127566
H120	H	0.222536	-0.864423	0.460899
H121	H	-0.555710	-1.383028	-0.353244
H122	H	-0.222377	-1.049695	-0.019911
H123	H	0.110957	-0.716361	0.313422
H124	H	-0.444296	-1.193559	-0.311057
H125	H	-0.110962	-0.860225	0.022277
H126	H	0.222371	-0.526892	0.355610
