data_functionalizedCrystal
_audit_creation_method	'MofGen! by Chris Wilmer'
_symmetry_space_group_name_H-M	'P1'
_symmetry_Int_Tables_number	1
_symmetry_cell_setting	triclinic
loop_
_symmetry_equiv_pos_as_xyz
  x,y,z
_cell_length_a	16.625547
_cell_length_b	16.625545
_cell_length_c	18.215399
_cell_angle_alpha	89.973113
_cell_angle_beta	89.976077
_cell_angle_gamma	90.025495
loop_
_atom_site_label
_atom_site_type_symbol
_atom_site_fract_x
_atom_site_fract_y
_atom_site_fract_z
Zn1	Zn	1.232656	-0.321011	-0.416202
Zn2	Zn	1.232554	-0.455851	-0.293138
Zn3	Zn	1.097820	-0.321036	-0.293140
Zn4	Zn	1.097781	-0.455805	-0.416154
O5	O	1.165203	-0.388426	-0.354658
O6	O	1.345475	-0.338907	-0.399896
O7	O	1.214655	-0.437998	-0.190154
O8	O	1.115765	-0.208201	-0.309486
O9	O	1.345400	-0.437973	-0.309481
O10	O	1.214829	-0.208182	-0.399898
O11	O	1.115666	-0.338950	-0.190156
O12	O	0.984982	-0.338905	-0.309439
O13	O	1.115699	-0.437895	-0.519144
O14	O	0.984954	-0.437919	-0.399817
O15	O	1.214791	-0.338862	-0.519180
O16	O	1.214617	-0.568678	-0.309435
O17	O	1.115600	-0.568644	-0.399814
C18	C	0.955712	-0.388410	-0.354624
C19	C	0.866091	-0.388423	-0.354626
C20	C	0.793308	-0.388425	-0.354635
C21	C	0.702000	-0.388429	-0.354654
C22	C	0.629223	-0.388436	-0.354672
C23	C	0.537909	-0.388442	-0.354690
C24	C	1.165115	-0.597917	-0.354635
C25	C	1.165151	-0.687538	-0.354650
C26	C	1.165183	-0.760321	-0.354664
C27	C	1.165230	-0.851629	-0.354681
C28	C	1.165272	-0.924405	-0.354690
C29	C	1.165318	-1.015720	-0.354705
C30	C	1.375512	-0.388442	-0.354694
C31	C	1.465133	-0.388449	-0.354709
C32	C	1.165252	-0.388371	-0.546611
C33	C	1.165273	-0.388347	-0.628410
C34	C	1.165313	-0.178117	-0.354698
C35	C	1.165360	-0.088496	-0.354714
C36	C	1.216889	-0.336732	-0.816624
C37	C	1.216898	-0.336709	-0.893483
C38	C	1.113714	-0.439837	-0.893435
C39	C	1.113701	-0.439856	-0.816577
C40	C	1.165293	-0.388305	-0.778174
C41	C	1.165316	-0.388262	-0.931890
C42	C	1.165326	-0.388237	-1.015224
C43	C	1.165282	-0.388328	-0.694835
C44	C	1.165200	-0.388423	-0.163452
C45	C	1.165336	-0.388220	-0.081654
H46	H	1.258896	-0.294754	-0.785358
C47	C	1.273660	-0.279977	-0.935774
N48	N	1.316415	-0.237244	-0.967627
C49	C	1.056936	-0.496589	-0.774280
N50	N	1.014180	-0.539318	-0.742421
H51	H	1.071712	-0.481809	-0.924712
