data_functionalizedCrystal
_audit_creation_method	'MofGen! by Chris Wilmer'
_symmetry_space_group_name_H-M	'P1'
_symmetry_Int_Tables_number	1
_symmetry_cell_setting	triclinic
loop_
_symmetry_equiv_pos_as_xyz
  x,y,z
_cell_length_a	27.732064
_cell_length_b	27.731996
_cell_length_c	14.048226
_cell_angle_alpha	89.987595
_cell_angle_beta	90.001165
_cell_angle_gamma	82.635407
loop_
_atom_site_label
_atom_site_type_symbol
_atom_site_fract_x
_atom_site_fract_y
_atom_site_fract_z
O1	O	0.640912	0.057558	-0.079003
O2	O	1.140912	0.557558	0.420997
O3	O	0.500118	0.066295	-0.079044
O4	O	1.000118	0.566295	0.420956
O5	O	0.574901	-0.008472	-0.079002
O6	O	1.074901	0.491528	0.420998
O7	O	0.566129	0.132325	-0.079045
O8	O	1.066129	0.632325	0.420955
O9	O	0.574892	-0.008476	0.079320
O10	O	1.074892	0.491524	0.579320
O11	O	0.500110	0.066291	0.079277
O12	O	1.000110	0.566291	0.579277
O13	O	0.640903	0.057553	0.079318
O14	O	1.140903	0.557553	0.579318
Zn15	Zn	0.570505	0.061921	0.104435
Zn16	Zn	1.070505	0.561921	0.604435
Zn17	Zn	0.570517	0.061927	-0.104160
Zn18	Zn	1.070517	0.561927	0.395840
O19	O	0.566121	0.132320	0.079276
O20	O	1.066121	0.632320	0.579276
C21	C	0.482107	0.066108	0.000112
C22	C	0.982107	0.566108	0.500112
C23	C	0.428453	0.065552	0.000097
C24	C	0.928453	0.565552	0.500097
C25	C	0.051389	0.017584	0.000166
C26	C	0.551389	0.517584	0.500166
C27	C	0.253049	0.019630	0.000141
C28	C	0.753049	0.519630	0.500141
O29	O	0.284309	-0.017592	0.000188
O30	O	0.784309	0.482408	0.500188
N31	N	0.272168	0.063966	0.000123
N32	N	0.772168	0.563966	0.500123
C33	C	0.240869	0.107792	0.000118
C34	C	0.740869	0.607792	0.500118
O35	O	0.261758	0.145549	0.000111
O36	O	0.761758	0.645549	0.500111
C37	C	0.039210	0.105746	0.000150
C38	C	0.539210	0.605746	0.500150
C39	C	0.020094	0.061407	0.000158
C40	C	0.520094	0.561407	0.500158
C41	C	0.032272	-0.026751	0.000176
C42	C	0.532272	0.473249	0.500176
C43	C	-0.018140	-0.027262	0.000177
C44	C	0.481860	0.472738	0.500177
C45	C	-0.049435	0.016562	0.000169
C46	C	0.450565	0.516562	0.500169
C47	C	-0.030318	0.060896	0.000159
C48	C	0.469682	0.560896	0.500159
C49	C	0.007912	0.149572	0.000151
C50	C	0.507912	0.649572	0.500151
C51	C	-0.042506	0.149057	0.000162
C52	C	0.457494	0.649057	0.500162
C53	C	-0.061622	0.104718	0.000170
C54	C	0.438378	0.604718	0.500170
C55	C	-0.112026	0.104209	0.000152
C56	C	0.387974	0.604209	0.500152
N57	N	-0.131145	0.059873	0.000170
N58	N	0.368855	0.559873	0.500170
C59	C	-0.099849	0.016050	0.000178
C60	C	0.400151	0.516050	0.500178
C61	C	0.346743	0.108864	0.000099
C62	C	0.846743	0.608864	0.500099
C63	C	0.397158	0.109376	0.000089
C64	C	0.897158	0.609376	0.500089
C65	C	0.409334	0.021213	0.000114
C66	C	0.909334	0.521213	0.500114
C67	C	0.358919	0.020702	0.000117
C68	C	0.858919	0.520702	0.500117
C69	C	0.327624	0.064529	0.000117
C70	C	0.827624	0.564529	0.500117
C71	C	-0.205719	0.014980	0.000180
C72	C	0.294281	0.514980	0.500180
C73	C	-0.256136	0.014473	0.000177
C74	C	0.243864	0.514473	0.500177
C75	C	-0.268308	0.102635	0.000157
C76	C	0.231692	0.602635	0.500157
C77	C	-0.217895	0.103142	0.000155
C78	C	0.282105	0.603142	0.500155
C79	C	-0.186601	0.059311	0.000170
C80	C	0.313399	0.559311	0.500170
O81	O	-0.143313	0.141411	0.000116
O82	O	0.356687	0.641411	0.500116
O83	O	-0.120748	-0.021702	0.000206
O84	O	0.379252	0.478298	0.500206
C85	C	0.101801	0.018095	0.000165
C86	C	0.601801	0.518095	0.500165
C87	C	0.120918	0.062430	0.000156
C88	C	0.620918	0.562430	0.500156
C89	C	0.089623	0.106253	0.000147
C90	C	0.589623	0.606253	0.500147
C91	C	0.171332	0.062941	0.000146
C92	C	0.671332	0.562941	0.500146
C93	C	0.202628	0.019118	0.000154
C94	C	0.702628	0.519118	0.500154
C95	C	0.183508	-0.025218	0.000172
C96	C	0.683508	0.474782	0.500172
C97	C	0.133096	-0.025729	0.000173
C98	C	0.633096	0.474271	0.500173
C99	C	0.108742	0.150589	0.000129
C100	C	0.608742	0.650589	0.500129
C101	C	0.159154	0.151096	0.000127
C102	C	0.659154	0.651096	0.500127
C103	C	0.190450	0.107273	0.000136
C104	C	0.690450	0.607273	0.500136
C105	C	0.574717	-0.026482	0.000162
C106	C	1.074717	0.473518	0.500162
C107	C	0.574174	-0.080138	0.000172
C108	C	1.074174	0.419862	0.500172
C109	C	0.570764	-0.412852	-0.086177
C110	C	1.070764	0.087148	0.413823
C111	C	0.568703	-0.614510	-0.086194
C112	C	1.068703	-0.114510	0.413806
O113	O	0.568420	-0.640579	-0.159590
O114	O	1.068420	-0.140579	0.340410
N115	N	0.568442	-0.639730	0.000106
N116	N	1.068442	-0.139730	0.500106
C117	C	0.568693	-0.614531	0.086417
C118	C	1.068693	-0.114531	0.586417
O119	O	0.568419	-0.640608	0.159820
O120	O	1.068419	-0.140608	0.659820
C121	C	0.570751	-0.412873	0.086433
C122	C	1.070751	0.087127	0.586433
C123	C	0.571017	-0.387657	0.000127
C124	C	1.071017	0.112343	0.500127
C125	C	0.571029	-0.387636	-0.172475
C126	C	1.071029	0.112364	0.327525
C127	C	0.571547	-0.337224	-0.172470
C128	C	1.071547	0.162776	0.327530
C129	C	0.571800	-0.312030	-0.086166
C130	C	1.071800	0.187970	0.413834
C131	C	0.571535	-0.337246	0.000133
C132	C	1.071535	0.162754	0.500133
C133	C	0.570999	-0.387675	0.172743
C134	C	1.070999	0.112325	0.672743
C135	C	0.571512	-0.337257	0.172739
C136	C	1.071512	0.162743	0.672739
C137	C	0.571778	-0.312041	0.086433
C138	C	1.071778	0.187959	0.586433
C139	C	0.572305	-0.261640	0.086442
C140	C	1.072305	0.238360	0.586442
N141	N	0.572566	-0.236420	0.000142
N142	N	1.072566	0.263580	0.500142
C143	C	0.572313	-0.261615	-0.086162
C144	C	1.072313	0.238385	0.413838
C145	C	0.567614	-0.720405	0.086402
C146	C	1.067614	-0.220405	0.586402
C147	C	0.567101	-0.770819	0.086398
C148	C	1.067101	-0.270819	0.586398
C149	C	0.567109	-0.770794	-0.086213
C150	C	1.067109	-0.270794	0.413787
C151	C	0.567626	-0.720380	-0.086208
C152	C	1.067626	-0.220380	0.413792
C153	C	0.567875	-0.695185	0.000102
C154	C	1.067875	-0.195185	0.500102
C155	C	0.573401	-0.155748	-0.086145
C156	C	1.073401	0.344252	0.413855
C157	C	0.573921	-0.105333	-0.086132
C158	C	1.073921	0.394667	0.413868
C159	C	0.573910	-0.105361	0.086478
C160	C	1.073910	0.394639	0.586478
C161	C	0.573393	-0.155773	0.086466
C162	C	1.073393	0.344227	0.586466
C163	C	0.573137	-0.180965	0.000147
C164	C	1.073137	0.319035	0.500147
O165	O	0.572583	-0.235539	0.159799
O166	O	1.072583	0.264461	0.659799
O167	O	0.572577	-0.235528	-0.159554
O168	O	1.072577	0.264472	0.340446
C169	C	0.570246	-0.463263	-0.086182
C170	C	1.070246	0.036737	0.413818
C171	C	0.569981	-0.488479	0.000117
C172	C	1.069981	0.011521	0.500117
C173	C	0.570234	-0.463285	0.086421
C174	C	1.070234	0.036715	0.586421
C175	C	0.569467	-0.538894	0.000113
C176	C	1.069467	-0.038894	0.500113
C177	C	0.569215	-0.564089	-0.086191
C178	C	1.069215	-0.064089	0.413809
C179	C	0.569476	-0.538869	-0.172491
C180	C	1.069476	-0.038869	0.327509
C181	C	0.569993	-0.488458	-0.172486
C182	C	1.069993	0.011542	0.327514
C183	C	0.569973	-0.488504	0.172721
C184	C	1.069973	0.011496	0.672721
C185	C	0.569455	-0.538915	0.172709
C186	C	1.069455	-0.038915	0.672709
C187	C	0.569203	-0.564110	0.086405
C188	C	1.069203	-0.064110	0.586405
C189	C	0.658915	0.057740	0.000161
C190	C	1.158915	0.557740	0.500161
C191	C	0.712569	0.058296	0.000169
C192	C	1.212569	0.558296	0.500169
C193	C	0.566305	0.150330	0.000110
C194	C	1.066305	0.650330	0.500110
C195	C	0.566848	0.203986	0.000094
C196	C	1.066848	0.703986	0.500094
N197	N	0.570501	0.061917	0.246796
N198	N	1.070501	0.561917	0.746796
N199	N	0.570525	0.061927	-0.246521
N200	N	1.070525	0.561927	0.253479
C201	C	0.603625	0.028824	0.296632
C202	C	1.103625	0.528824	0.796632
C203	C	0.603628	0.028824	0.396290
C204	C	1.103628	0.528824	0.896290
C205	C	0.570509	0.061919	0.446109
C206	C	1.070509	0.561919	0.946109
C207	C	0.537381	0.095014	0.396265
C208	C	1.037381	0.595014	0.896265
C209	C	0.537376	0.095012	0.296609
C210	C	1.037376	0.595012	0.796609
C211	C	0.537395	0.095018	0.603980
C212	C	1.037395	0.595018	1.103980
C213	C	0.537401	0.095021	0.703642
C214	C	1.037401	0.595021	1.203642
C215	C	0.603647	0.028829	0.703660
C216	C	1.103647	0.528829	1.203660
C217	C	0.603642	0.028827	0.604004
C218	C	1.103642	0.528827	1.104004
C219	C	0.570515	0.061923	0.554167
C220	C	1.070515	0.561923	1.054167
H221	H	0.083265	0.186276	0.000124
H222	H	0.583265	0.686276	0.500124
H223	H	0.321266	0.144555	0.000097
H224	H	0.821266	0.644555	0.500097
H225	H	-0.293798	0.138315	0.000146
H226	H	0.206202	0.638315	0.500146
N227	N	0.113582	-0.071024	0.000178
N228	N	0.613582	0.428976	0.500178
N229	N	0.141537	-0.110145	0.000185
N230	N	0.641537	0.389855	0.500185
H231	H	0.127759	-0.142138	0.000189
H232	H	0.627759	0.357862	0.500189
H233	H	0.208998	-0.060900	0.000173
H234	H	0.708998	0.439100	0.500173
H235	H	0.571707	-0.316745	0.243025
H236	H	1.071707	0.183255	0.743025
N237	N	0.503558	0.128818	0.553057
N238	N	1.003558	0.628818	1.053057
N239	N	0.473670	0.113685	0.497459
N240	N	0.973670	0.613685	0.997459
H241	H	0.449775	0.137557	0.461493
H242	H	0.949775	0.637557	0.961493
N243	N	0.573114	-0.181534	0.174621
N244	N	1.073114	0.318466	0.674621
N245	N	0.538733	-0.204949	0.193858
N246	N	1.038733	0.295051	0.693858
H247	H	0.538531	-0.223141	0.256118
H248	H	1.038531	0.276859	0.756118
N249	N	0.573139	-0.181484	-0.174307
N250	N	1.073139	0.318516	0.325693
N251	N	0.538768	-0.204901	-0.193590
N252	N	1.038768	0.295099	0.306410
H253	H	0.538585	-0.223079	-0.255854
H254	H	1.038585	0.276921	0.244146
N255	N	0.637427	-0.005005	0.245731
N256	N	1.137427	0.494995	0.745731
N257	N	0.637074	-0.049677	0.256891
N258	N	1.137074	0.450323	0.756891
H259	H	0.660936	-0.073576	0.220933
H260	H	1.160936	0.426424	0.720933
N261	N	0.567882	-0.694674	0.174571
N262	N	1.067882	-0.194674	0.674571
N263	N	0.602256	-0.671259	0.193845
N264	N	1.102256	-0.171259	0.693845
H265	H	0.602447	-0.653088	0.256116
H266	H	1.102447	-0.153088	0.756116
N267	N	0.064235	-0.071520	0.000200
N268	N	0.564235	0.428480	0.500200
N269	N	0.062682	-0.101095	0.066944
N270	N	0.562682	0.398905	0.566944
H271	H	0.085253	-0.132717	0.066957
H272	H	0.585253	0.367283	0.566957
N273	N	0.178669	0.196395	0.000107
N274	N	0.678669	0.696395	0.500107
N275	N	0.150716	0.235517	0.000101
N276	N	0.650716	0.735517	0.500101
H277	H	0.164496	0.267509	0.000093
H278	H	0.664496	0.767509	0.500093
H279	H	0.510432	0.121970	0.744200
H280	H	1.010432	0.621970	1.244200
N281	N	0.569190	-0.564663	0.260883
N282	N	1.069190	-0.064663	0.760883
N283	N	0.569415	-0.542156	0.337930
N284	N	1.069415	-0.042156	0.837930
H285	H	0.569225	-0.560338	0.400202
H286	H	1.069225	-0.060338	0.900202
N287	N	0.569228	-0.564611	-0.260651
N288	N	1.069228	-0.064611	0.239349
N289	N	0.603029	-0.597452	-0.279892
N290	N	1.103029	-0.097452	0.220108
H291	H	0.602853	-0.615634	-0.342151
H292	H	1.102853	-0.115634	0.157849
H293	H	0.510413	0.121960	0.436834
H294	H	1.010413	0.621960	0.936834
N295	N	0.503536	0.128817	0.245714
N296	N	1.003536	0.628817	0.745714
N297	N	0.473967	0.158365	0.290203
N298	N	0.973967	0.658365	0.790203
H299	H	0.450064	0.182240	0.254260
H300	H	0.950064	0.682240	0.754260
H301	H	0.574118	-0.084839	0.156745
H302	H	1.074118	0.415161	0.656745
H303	H	0.574139	-0.084804	-0.156416
H304	H	1.074139	0.415196	0.343584
N305	N	0.637465	-0.004986	0.447182
N306	N	1.137465	0.495014	0.947182
N307	N	0.667034	-0.034532	0.402690
N308	N	1.167034	0.465468	0.902690
H309	H	0.690933	-0.058412	0.438631
H310	H	1.190933	0.441588	0.938631
H311	H	0.630612	0.001880	0.563442
H312	H	1.130612	0.501880	1.063442
N313	N	-0.275653	-0.030824	0.000179
N314	N	0.224347	0.469176	0.500179
N315	N	-0.247702	-0.069948	0.000187
N316	N	0.252298	0.430052	0.500187
H317	H	-0.261484	-0.101939	0.000189
H318	H	0.238516	0.398061	0.500189
N319	N	0.571817	-0.311478	-0.260639
N320	N	1.071817	0.188522	0.239361
N321	N	0.571589	-0.333987	-0.337682
N322	N	1.071589	0.166013	0.162318
H323	H	0.571778	-0.315807	-0.399957
H324	H	1.071778	0.184193	0.100043
H325	H	0.570179	-0.467996	0.243001
H326	H	1.070179	0.032004	0.743001
N327	N	0.566854	-0.796526	-0.174383
N328	N	1.066854	-0.296526	0.325617
N329	N	0.600998	-0.795600	-0.232167
N330	N	1.100998	-0.295600	0.267833
H331	H	0.600815	-0.813773	-0.294436
H332	H	1.100815	-0.313773	0.205564
N333	N	0.570732	-0.413417	0.260912
N334	N	1.070732	0.086583	0.760912
N335	N	0.570956	-0.390906	0.337954
N336	N	1.070956	0.109094	0.837954
H337	H	0.570767	-0.409086	0.400230
H338	H	1.070767	0.090914	0.900230
N339	N	-0.198359	0.148428	0.000129
N340	N	0.301641	0.648428	0.500129
N341	N	-0.171585	0.158553	-0.066606
N342	N	0.328415	0.658553	0.433394
H343	H	-0.157790	0.190537	-0.066617
H344	H	0.342210	0.690537	0.433383
H345	H	-0.180245	-0.020712	0.000192
H346	H	0.319755	0.479288	0.500192
N347	N	0.637468	-0.004989	0.754576
N348	N	1.137468	0.495011	1.254576
N349	N	0.637458	-0.004996	0.843554
N350	N	1.137458	0.495004	1.343554
H351	H	0.661338	-0.028884	0.879519
H352	H	1.161338	0.471116	1.379519
H353	H	-0.033699	-0.063367	0.000188
H354	H	0.466301	0.436633	0.500188
N355	N	0.570267	-0.462712	-0.260654
N356	N	1.070267	0.037288	0.239346
N357	N	0.570041	-0.485222	-0.337698
N358	N	1.070041	0.014778	0.162302
H359	H	0.570234	-0.467042	-0.399973
H360	H	1.070234	0.032958	0.100027
N361	N	0.570768	-0.413359	-0.260649
N362	N	1.070768	0.086641	0.239351
N363	N	0.571003	-0.390828	-0.337687
N364	N	1.071003	0.109172	0.162313
H365	H	0.570821	-0.408992	-0.399966
H366	H	1.070821	0.091008	0.100034
H367	H	0.566892	-0.791347	0.156677
H368	H	1.066892	-0.291347	0.656677
N369	N	0.339402	-0.024592	0.000124
N370	N	0.839402	0.475408	0.500124
N371	N	0.367356	-0.063715	0.000126
N372	N	0.867356	0.436285	0.500126
H373	H	0.353576	-0.095707	0.000131
H374	H	0.853576	0.404293	0.500131
H375	H	0.567842	-0.699852	-0.156486
H376	H	1.067842	-0.199852	0.343514
H377	H	0.412717	0.145480	0.000069
H378	H	0.912717	0.645480	0.500069
N379	N	0.441314	-0.023548	0.000120
N380	N	0.941314	0.476452	0.500120
N381	N	0.486324	-0.023079	0.000114
N382	N	0.986324	0.476921	0.500114
H383	H	0.508912	-0.054689	0.000124
H384	H	1.008912	0.445311	0.500124
H385	H	-0.067984	0.184746	0.000166
H386	H	0.432016	0.684746	0.500166
N387	N	0.027422	0.194868	0.000137
N388	N	0.527422	0.694868	0.500137
N389	N	-0.000535	0.233988	0.000134
N390	N	0.499465	0.733988	0.500134
H391	H	0.013242	0.265981	0.000124
H392	H	0.513242	0.765981	0.500124
