data_functionalizedCrystal
_audit_creation_method	'MofGen! by Chris Wilmer'
_symmetry_space_group_name_H-M	'P1'
_symmetry_Int_Tables_number	1
_symmetry_cell_setting	triclinic
loop_
_symmetry_equiv_pos_as_xyz
  x,y,z
_cell_length_a	19.077105
_cell_length_b	16.625546
_cell_length_c	19.076919
_cell_angle_alpha	87.730083
_cell_angle_beta	89.923776
_cell_angle_gamma	87.718759
loop_
_atom_site_label
_atom_site_type_symbol
_atom_site_fract_x
_atom_site_fract_y
_atom_site_fract_z
Zn1	Zn	1.058283	-0.390077	0.440407
Zn2	Zn	1.558283	0.109923	0.940407
Zn3	Zn	1.062927	-0.519720	0.322896
Zn4	Zn	1.562927	-0.019720	0.822896
Zn5	Zn	0.945500	-0.379275	0.318200
Zn6	Zn	1.445500	0.120725	0.818200
Zn7	Zn	0.940748	-0.519234	0.435649
Zn8	Zn	1.440748	-0.019234	0.935649
O9	O	1.001864	-0.452076	0.379288
O10	O	1.501864	0.047924	0.879288
O11	O	1.157231	-0.411998	0.428775
O12	O	1.657231	0.088002	0.928775
O13	O	1.051282	-0.496773	0.223942
O14	O	1.551282	0.003227	0.723942
O15	O	0.960506	-0.267879	0.334437
O16	O	1.460506	0.232121	0.834437
O17	O	1.160642	-0.507246	0.342441
O18	O	1.660642	-0.007246	0.842441
O19	O	1.043367	-0.275815	0.424222
O20	O	1.543367	0.224185	0.924222
O21	O	0.965009	-0.393589	0.220492
O22	O	1.465009	0.106411	0.720492
O23	O	0.846538	-0.393117	0.329824
O24	O	1.346538	0.106883	0.829824
O25	O	0.952407	-0.506418	0.534611
O26	O	1.452407	-0.006418	1.034611
O27	O	0.843047	-0.495944	0.416113
O28	O	1.343047	0.004056	0.916113
O29	O	1.038759	-0.411527	0.538107
O30	O	1.538759	0.088473	1.038107
O31	O	1.046674	-0.632485	0.337827
O32	O	1.546674	-0.132485	0.837827
O33	O	0.956910	-0.632127	0.420666
O34	O	1.456910	-0.132127	0.920666
C35	C	0.819296	-0.443306	0.371943
C36	C	1.319296	0.056694	0.871943
C37	C	0.741192	-0.439575	0.368817
C38	C	1.241192	0.060425	0.868817
C39	C	0.702702	-0.491432	0.412204
C40	C	1.202702	0.008568	0.912204
C41	C	0.629314	-0.487916	0.409270
C42	C	1.129314	0.012084	0.909270
C43	C	0.594418	-0.432544	0.362946
C44	C	1.094418	0.067456	0.862946
C45	C	0.632913	-0.380681	0.319557
C46	C	1.132913	0.119319	0.819557
C47	C	0.706299	-0.384194	0.322495
C48	C	1.206299	0.115806	0.822495
C49	C	0.375130	-0.416284	0.349354
C50	C	0.875130	0.083716	0.849354
C51	C	0.301739	-0.412776	0.346418
C52	C	0.801739	0.087224	0.846418
C53	C	0.298145	-0.520010	0.436133
C54	C	0.798145	-0.020010	0.936133
C55	C	0.371533	-0.523522	0.439063
C56	C	0.871533	-0.023522	0.939063
C57	C	0.410021	-0.471655	0.395677
C58	C	0.910021	0.028345	0.895677
N59	N	0.519405	-0.428950	0.359945
N60	N	1.019405	0.071050	0.859945
N61	N	0.485034	-0.475247	0.398682
N62	N	0.985034	0.024753	0.898682
C63	C	1.001799	-0.661563	0.379256
C64	C	1.501799	-0.161563	0.879256
C65	C	1.001834	-0.751186	0.379268
C66	C	1.501834	-0.251186	0.879268
C67	C	1.001954	-1.079371	0.379346
C68	C	1.501954	-0.579371	0.879346
C69	C	1.001918	-0.988060	0.379327
C70	C	1.501918	-0.488060	0.879327
C71	C	1.001894	-0.915281	0.379307
C72	C	1.501894	-0.415281	0.879307
C73	C	1.001859	-0.823965	0.379288
C74	C	1.501859	-0.323965	0.879288
C75	C	1.185146	-0.460881	0.386662
C76	C	1.685146	0.039119	0.886662
C77	C	1.263249	-0.464634	0.389805
C78	C	1.763249	0.035366	0.889805
C79	C	0.994535	-0.460123	0.562568
C80	C	1.494535	0.039877	1.062568
C81	C	0.991412	-0.463552	0.640671
C82	C	1.491412	0.036448	1.140671
C83	C	1.001948	-0.241774	0.379336
C84	C	1.501948	0.258226	0.879336
C85	C	1.001984	-0.152155	0.379357
C86	C	1.501984	0.347845	0.879357
C87	C	1.009205	-0.444005	0.196723
C88	C	1.509205	0.055995	0.696723
C89	C	1.012465	-0.440356	0.118626
C90	C	1.512465	0.059644	0.618626
C91	C	1.034901	-0.415760	0.679185
C92	C	1.534901	0.084240	1.179185
C93	C	1.031958	-0.418978	0.752571
C94	C	1.531958	0.081022	1.252571
C95	C	0.985529	-0.469993	0.787441
C96	C	1.485529	0.030007	1.287441
C97	C	0.942035	-0.517786	0.748922
C98	C	1.442035	-0.017786	1.248922
C99	C	0.944975	-0.514563	0.675537
C100	C	1.444975	-0.014563	1.175537
C101	C	0.971911	-0.484926	1.006722
C102	C	1.471911	0.015074	1.506722
C103	C	0.968976	-0.488147	1.080112
C104	C	1.468976	0.011853	1.580112
C105	C	1.058898	-0.389338	1.083755
C106	C	1.558898	0.110662	1.583755
C107	C	1.061837	-0.386123	1.010369
C108	C	1.561837	0.113877	1.510369
C109	C	1.018341	-0.433913	0.971856
C110	C	1.518341	0.066087	1.471856
N111	N	0.982521	-0.473286	0.862453
N112	N	1.482521	0.026714	1.362453
N113	N	1.021346	-0.430616	0.896846
N114	N	1.521346	0.069384	1.396846
H115	H	0.273329	-0.367677	0.308699
H116	H	0.773329	0.132323	0.808699
N117	N	0.898062	-0.566101	0.633993
N118	N	1.398062	-0.066101	1.133993
H119	H	0.868202	-0.598908	0.667218
H120	H	1.368202	-0.098908	1.167218
H121	H	0.927864	-0.603453	0.604685
H122	H	1.427864	-0.103453	1.104685
N123	N	1.084987	-0.360747	0.641577
N124	N	1.584987	0.139253	1.141577
H125	H	1.057673	-0.320673	0.609982
H126	H	1.557673	0.179327	1.109982
H127	H	1.118743	-0.393811	0.612480
H128	H	1.618743	0.106189	1.112480
H129	H	0.731109	-0.536524	0.449924
H130	H	1.231109	-0.036524	0.949924
H131	H	0.399940	-0.568613	0.476784
H132	H	0.899940	-0.068613	0.976784
N133	N	0.918870	-0.543143	1.117721
N134	N	1.418870	-0.043143	1.617721
H135	H	0.923605	-0.537926	1.170053
H136	H	1.423605	-0.037926	1.670053
H137	H	0.930271	-0.600698	1.105331
H138	H	1.430271	-0.100698	1.605331
H139	H	0.737637	-0.341962	0.287168
H140	H	1.237637	0.158038	0.787168
H141	H	0.597979	-0.530145	0.444600
H142	H	1.097979	-0.030145	0.944600
N143	N	0.416637	-0.360333	0.302572
N144	N	0.916637	0.139667	0.802572
H145	H	0.383393	-0.324722	0.272783
H146	H	0.883393	0.175278	0.772783
H147	H	0.448381	-0.393107	0.271216
H148	H	0.948381	0.106893	0.771216
N149	N	0.891949	-0.572792	0.786539
N150	N	1.391949	-0.072792	1.286539
H151	H	0.919265	-0.612867	0.818132
H152	H	1.419265	-0.112867	1.318132
H153	H	0.864847	-0.602523	0.750967
H154	H	1.364847	-0.102523	1.250967
N155	N	1.078863	-0.367441	0.794121
N156	N	1.578863	0.132559	1.294121
H157	H	1.049099	-0.330042	0.823424
H158	H	1.549099	0.169958	1.323424
H159	H	1.108721	-0.334685	0.760859
H160	H	1.608721	0.165315	1.260859
N161	N	0.256633	-0.575948	0.482925
N162	N	0.756633	-0.075948	0.982925
H163	H	0.204848	-0.565323	0.474037
H164	H	0.704848	-0.065323	0.974037
H165	H	0.267468	-0.566307	0.533643
H166	H	0.767468	-0.066307	1.033643
H167	H	0.604495	-0.335593	0.281842
H168	H	1.104495	0.164407	0.781842
N169	N	1.111917	-0.331103	0.972760
N170	N	1.611917	0.168897	1.472760
H171	H	1.139022	-0.301314	1.008295
H172	H	1.639022	0.198686	1.508295
H173	H	1.084550	-0.291078	0.941167
H174	H	1.584550	0.208922	1.441167
H175	H	1.094310	-0.350429	1.115120
H176	H	1.594310	0.149571	1.615120
N177	N	0.924976	-0.536441	0.965187
N178	N	1.424976	-0.036441	1.465187
H179	H	0.895113	-0.569239	0.998415
H180	H	1.395113	-0.069239	1.498415
H181	H	0.954758	-0.573800	0.935867
H182	H	1.454758	-0.073800	1.435867
