data_functionalizedCrystal
_audit_creation_method	'MofGen! by Chris Wilmer'
_symmetry_space_group_name_H-M	'P1'
_symmetry_Int_Tables_number	1
_symmetry_cell_setting	triclinic
loop_
_symmetry_equiv_pos_as_xyz
  x,y,z
_cell_length_a	16.109295
_cell_length_b	16.109304
_cell_length_c	14.586319
_cell_angle_alpha	89.999019
_cell_angle_beta	90.000576
_cell_angle_gamma	96.539088
loop_
_atom_site_label
_atom_site_type_symbol
_atom_site_fract_x
_atom_site_fract_y
_atom_site_fract_z
O1	O	-1.103135	0.106844	-0.076172
O2	O	-0.861072	0.120148	-0.076187
O3	O	-0.988752	-0.007535	-0.076180
O4	O	-0.975455	0.234527	-0.076179
O5	O	-0.988743	-0.007537	0.076301
O6	O	-0.861063	0.120146	0.076294
O7	O	-1.103126	0.106842	0.076309
Cu8	Cu	-0.982094	0.113494	0.090224
Cu9	Cu	-0.982104	0.113496	-0.090102
O10	O	-0.975446	0.234525	0.076301
C11	C	-0.830093	0.119609	0.000051
C12	C	-0.737797	0.117996	0.000046
C13	C	-0.515525	0.190008	0.000055
C14	C	-0.428804	0.188485	0.000061
C15	C	-0.448677	0.036996	0.000057
C16	C	-0.535396	0.038520	0.000058
C17	C	-0.568818	0.115028	0.000053
C18	C	-0.395378	0.111982	0.000057
C19	C	-0.301352	0.110331	0.000063
C20	C	-0.662850	0.116679	0.000048
C21	C	-0.988209	-0.038511	0.000059
C22	C	-0.986592	-0.130806	0.000052
C23	C	-0.134105	0.107386	0.000067
C24	C	-0.226398	0.109014	0.000064
C25	C	-0.982864	-0.343142	-0.083062
C26	C	-0.981338	-0.429862	-0.083061
C27	C	-0.981332	-0.429862	0.083182
C28	C	-0.982852	-0.343142	0.083180
C29	C	-0.983622	-0.299785	0.000056
C30	C	-0.980576	-0.473225	0.000058
C31	C	-0.978921	-0.567251	0.000060
C32	C	-0.985275	-0.205753	0.000054
C33	C	-0.975990	0.265501	0.000061
C34	C	-0.977606	0.357796	0.000061
N35	N	-0.982093	0.113492	0.217056
N36	N	-0.982112	0.113491	-0.216934
C37	C	-1.038648	0.056973	0.452065
C38	C	-1.038650	0.056971	0.548047
C39	C	-0.925551	0.170013	0.548050
C40	C	-0.925545	0.170011	0.452070
C41	C	-0.982098	0.113491	0.404080
C42	C	-0.982106	0.113492	0.596041
C43	C	-0.982109	0.113490	0.700108
C44	C	-0.982095	0.113492	0.300007
H45	H	-0.578790	-0.022542	0.000058
O46	O	-0.983565	-0.301147	-0.163887
C47	C	-0.983452	-0.310311	-0.328777
C48	C	-0.982641	-0.357968	-0.237306
H49	H	-0.982723	-0.356232	-0.388160
H50	H	-0.926001	-0.262106	-0.332997
H51	H	-1.042301	-0.277313	-0.332886
H52	H	-0.923831	-0.391015	-0.233136
H53	H	-1.040132	-0.406125	-0.233125
H54	H	-0.879508	0.216031	0.587132
O55	O	-0.980455	-0.471998	-0.163777
C56	C	-0.906781	-0.560502	-0.260238
C57	C	-0.907667	-0.512807	-0.168800
H58	H	-0.847946	-0.593523	-0.264320
H59	H	-0.907537	-0.514646	-0.319682
H60	H	-0.964244	-0.608697	-0.264377
H61	H	-0.850214	-0.464612	-0.164571
H62	H	-0.906953	-0.558714	-0.109399
O63	O	-0.980630	-0.472115	0.163843
C64	C	-0.978251	-0.605705	0.237524
C65	C	-0.979058	-0.557962	0.146108
H66	H	-0.976962	-0.675118	0.223217
H67	H	-1.036713	-0.596340	0.278521
H68	H	-0.920415	-0.580984	0.278516
H69	H	-1.036854	-0.582652	0.105042
H70	H	-0.920557	-0.567325	0.105180
O71	O	-0.377072	0.261344	-0.000103
C72	C	-0.333593	0.390378	-0.079072
C73	C	-0.392213	0.307885	-0.079013
H74	H	-0.345826	0.428038	-0.142854
H75	H	-0.265854	0.376202	-0.079128
H76	H	-0.345741	0.427993	-0.015231
H77	H	-0.380139	0.270229	-0.142843
H78	H	-0.459933	0.322120	-0.078910
O79	O	-0.983623	-0.301153	0.164008
C80	C	-0.983403	-0.310289	0.328899
C81	C	-0.982553	-0.357948	0.237435
H82	H	-0.982520	-0.356184	0.388288
H83	H	-1.042276	-0.277337	0.333118
H84	H	-0.925977	-0.262043	0.332997
H85	H	-1.039938	-0.406233	0.233275
H86	H	-0.923642	-0.390842	0.233254
H87	H	-1.084696	0.010950	0.412994
H88	H	-0.421455	-0.025294	0.000067
H89	H	-1.084697	0.010947	0.587113
H90	H	-0.879492	0.216035	0.412998
H91	H	-0.542734	0.252305	0.000058
