data_functionalizedCrystal
_audit_creation_method	'MofGen! by Chris Wilmer'
_symmetry_space_group_name_H-M	'P1'
_symmetry_Int_Tables_number	1
_symmetry_cell_setting	triclinic
loop_
_symmetry_equiv_pos_as_xyz
  x,y,z
_cell_length_a	12.645331
_cell_length_b	29.839131
_cell_length_c	12.645323
_cell_angle_alpha	90.032712
_cell_angle_beta	90.015738
_cell_angle_gamma	90.040656
loop_
_atom_site_label
_atom_site_type_symbol
_atom_site_fract_x
_atom_site_fract_y
_atom_site_fract_z
Zn1	Zn	1.620556	-0.178859	0.599192
Zn2	Zn	1.620365	-0.253991	0.421908
Zn3	Zn	1.443271	-0.178875	0.421958
Zn4	Zn	1.443179	-0.253962	0.599145
O5	O	1.531843	-0.216421	0.510551
O6	O	1.768878	-0.188831	0.575674
O7	O	1.596831	-0.244045	0.273567
O8	O	1.466907	-0.116005	0.445509
O9	O	1.768737	-0.244030	0.445424
O10	O	1.597158	-0.115994	0.575722
O11	O	1.466721	-0.188857	0.273604
O12	O	1.294912	-0.188829	0.445463
O13	O	1.466751	-0.243981	0.747499
O14	O	1.294844	-0.243996	0.575642
O15	O	1.597069	-0.188803	0.747533
O16	O	1.596742	-0.316854	0.445378
O17	O	1.466565	-0.316833	0.575593
C18	C	1.256413	-0.216411	0.510554
C19	C	1.138583	-0.216418	0.510580
C20	C	0.971012	-0.251313	0.592048
C21	C	1.093572	-0.251201	0.592389
C22	C	1.094151	-0.169100	0.541117
C23	C	0.971553	-0.169313	0.541690
C24	C	0.971326	-0.228459	0.398317
C25	C	1.093931	-0.229494	0.398922
C26	C	1.531651	-0.333144	0.510498
C27	C	1.531666	-0.383079	0.510511
C28	C	1.599749	-0.692720	0.442847
C29	C	1.599880	-0.880393	0.442888
O30	O	1.657615	-0.904657	0.385317
N31	N	1.532063	-0.903864	0.510631
C32	C	1.464212	-0.880413	0.578373
O33	O	1.406540	-0.904682	0.636001
C34	C	1.464088	-0.692740	0.578336
C35	C	1.531902	-0.669273	0.510582
C36	C	1.667559	-0.669253	0.375098
C37	C	1.667522	-0.622337	0.375085
C38	C	1.599674	-0.598889	0.442819
C39	C	1.531865	-0.622357	0.510568
C40	C	1.396244	-0.669290	0.646083
C41	C	1.396220	-0.622369	0.646070
C42	C	1.464035	-0.598902	0.578315
C43	C	1.463980	-0.551994	0.578289
N44	N	1.531798	-0.528524	0.510546
C45	C	1.599645	-0.551972	0.442811
C46	C	1.464281	-0.978943	0.578386
C47	C	1.464311	-1.025861	0.578394
C48	C	1.599980	-1.025839	0.442910
C49	C	1.599945	-0.978920	0.442897
C50	C	1.532099	-0.955473	0.510643
C51	C	1.599560	-0.453446	0.442787
C52	C	1.599514	-0.406526	0.442776
C53	C	1.463849	-0.406553	0.578264
C54	C	1.463891	-0.453468	0.578271
C55	C	1.531755	-0.476914	0.510529
O56	O	1.406284	-0.527702	0.635838
O57	O	1.657325	-0.527694	0.385209
C58	C	1.599787	-0.739636	0.442860
C59	C	1.531977	-0.763104	0.510609
C60	C	1.464130	-0.739656	0.578344
C61	C	1.532007	-0.810021	0.510617
C62	C	1.599854	-0.833469	0.442882
C63	C	1.667672	-0.809999	0.375139
C64	C	1.667634	-0.763083	0.375126
C65	C	1.396312	-0.763126	0.646086
C66	C	1.396354	-0.810042	0.646094
C67	C	1.464202	-0.833489	0.578359
C68	C	1.808348	-0.216432	0.510549
C69	C	1.926178	-0.216436	0.510548
C70	C	1.531921	-0.216387	0.787056
C71	C	1.531954	-0.216372	0.904886
C72	C	1.532064	-0.099243	0.510627
C73	C	1.532158	-0.049309	0.510659
C74	C	1.531826	-0.216424	0.235121
C75	C	1.531998	-0.216312	0.117292
C76	C	1.449718	-0.250921	1.072429
C77	C	1.449933	-0.251092	0.949869
C78	C	1.643641	-0.229221	0.949389
C79	C	1.643190	-0.229438	1.071987
C80	C	1.503559	-0.168781	1.072103
C81	C	1.501067	-0.169066	0.949497
H82	H	0.940228	-0.243460	0.674723
H83	H	1.341017	-0.688390	0.701251
N84	N	1.570762	-0.135011	0.911078
N85	N	1.644666	-0.145096	0.849925
H86	H	1.693897	-0.121046	0.822791
H87	H	1.706571	-0.205325	1.101665
N88	N	1.673415	-0.273025	1.107888
N89	N	1.678542	-0.281066	1.204752
H90	H	1.699886	-0.311851	1.230105
H91	H	0.942988	-0.159116	0.623737
N92	N	1.674424	-0.272349	0.910866
N93	N	1.683163	-0.278925	0.813629
H94	H	1.704901	-0.309385	0.786421
N95	N	1.736774	-0.598368	0.305857
N96	N	1.699486	-0.572230	0.238255
H97	H	1.748395	-0.555306	0.189352
N98	N	1.736961	-0.833956	0.305934
N99	N	1.699709	-0.860173	0.238364
H100	H	1.748643	-0.877094	0.189492
N101	N	1.668870	-0.477384	0.373570
N102	N	1.661871	-0.472168	0.275746
H103	H	1.710815	-0.489074	0.226854
H104	H	0.941898	-0.142396	0.485052
N105	N	1.130392	-0.241220	0.696714
N106	N	1.065545	-0.234312	0.769498
H107	H	1.091547	-0.227263	0.843183
H108	H	0.940371	-0.262374	0.370564
N109	N	1.132715	-0.156077	0.642926
N110	N	1.192909	-0.181562	0.693169
H111	H	1.220146	-0.172367	0.765074
N112	N	1.397984	-0.156889	0.912976
N113	N	1.358503	-0.120200	0.939707
H114	H	1.285706	-0.111597	0.913897
H115	H	1.409080	-1.044964	0.633557
N116	N	1.326915	-0.598427	0.715286
N117	N	1.266380	-0.619389	0.775772
H118	H	1.217432	-0.602481	0.824656
N119	N	1.668774	-0.382557	0.373545
N120	N	1.661790	-0.387834	0.275723
H121	H	1.710704	-0.370909	0.226827
N122	N	1.132361	-0.199930	0.318669
N123	N	1.113193	-0.158902	0.324036
H124	H	1.140336	-0.138019	0.267361
H125	H	1.123310	-0.142408	0.483611
N126	N	1.130354	-0.273178	0.370049
N127	N	1.188984	-0.294627	0.431420
H128	H	1.214714	-0.325480	0.411033
H129	H	1.655225	-1.044938	0.387758
N130	N	0.934965	-0.196584	0.322149
N131	N	0.876058	-0.165137	0.350255
H132	H	0.850377	-0.142622	0.296471
H133	H	1.722814	-0.688339	0.319940
N134	N	1.403174	-0.154091	1.110896
N135	N	1.351367	-0.178479	1.172329
H136	H	1.280466	-0.168109	1.199729
N137	N	1.669219	-0.954957	0.373679
N138	N	1.729783	-0.975904	0.313205
H139	H	1.778713	-0.958983	0.264316
H140	H	1.409030	-0.959856	0.633554
N141	N	1.327075	-0.834017	0.715293
N142	N	1.259558	-0.860239	0.677959
H143	H	1.210635	-0.877171	0.726834
H144	H	1.468704	-0.286328	0.920541
N145	N	1.394597	-0.477436	0.647468
N146	N	1.334017	-0.456492	0.707931
H147	H	1.285080	-0.473416	0.756808
N148	N	1.131281	-0.295216	0.568396
N149	N	1.228466	-0.302664	0.564549
H150	H	1.255096	-0.333752	0.547606
H151	H	1.367112	-0.243051	0.919779
H152	H	1.408605	-0.387454	0.633410
H153	H	1.563488	-0.142996	1.101118
N154	N	1.736910	-0.739122	0.305906
N155	N	1.797476	-0.760071	0.245438
H156	H	1.846407	-0.743152	0.196547
H157	H	1.341064	-0.744039	0.701246
N158	N	1.345505	-0.240926	1.109397
N159	N	1.304245	-0.203926	1.088444
H160	H	1.230642	-0.196867	1.114560
H161	H	1.706588	-0.204811	0.920254
N162	N	0.933950	-0.295475	0.568308
N163	N	0.874057	-0.301762	0.491049
H164	H	0.847869	-0.332951	0.474284
N165	N	1.473035	-0.294846	1.111087
N166	N	1.549988	-0.300773	1.171535
H167	H	1.566459	-0.331795	1.198840
