data_functionalizedCrystal
_audit_creation_method	'MofGen! by Chris Wilmer'
_symmetry_space_group_name_H-M	'P1'
_symmetry_Int_Tables_number	1
_symmetry_cell_setting	triclinic
loop_
_symmetry_equiv_pos_as_xyz
  x,y,z
_cell_length_a	19.805407
_cell_length_b	18.215405
_cell_length_c	18.215399
_cell_angle_alpha	90.030551
_cell_angle_beta	89.979366
_cell_angle_gamma	89.975115
loop_
_atom_site_label
_atom_site_type_symbol
_atom_site_fract_x
_atom_site_fract_y
_atom_site_fract_z
Zn1	Zn	1.034750	0.292992	-0.416118
Zn2	Zn	1.034666	0.416063	-0.293046
Zn3	Zn	0.921562	0.293015	-0.293064
Zn4	Zn	0.921531	0.416021	-0.416070
O5	O	0.978127	0.354523	-0.354575
O6	O	1.129455	0.309325	-0.399806
O7	O	1.019640	0.399768	-0.190064
O8	O	0.936625	0.190028	-0.309415
O9	O	1.129393	0.399745	-0.309385
O10	O	1.019784	0.190011	-0.399823
O11	O	0.936544	0.309365	-0.190077
O12	O	0.826842	0.309324	-0.309368
O13	O	0.936572	0.399674	-0.519060
O14	O	0.826819	0.399696	-0.399740
O15	O	1.019753	0.309285	-0.519096
O16	O	1.019610	0.519042	-0.309338
O17	O	0.936490	0.519011	-0.399723
C18	C	0.802271	0.354509	-0.354551
C19	C	0.727039	0.354520	-0.354558
C20	C	0.978056	0.545729	-0.354539
C21	C	0.978087	0.627528	-0.354549
C22	C	0.978169	0.354472	-0.546528
C23	C	0.978186	0.354450	-0.628327
C24	C	0.691701	0.401648	-0.401538
C25	C	0.621012	0.401649	-0.401549
C26	C	0.585664	0.354526	-0.354575
C27	C	0.621007	0.307393	-0.307592
C28	C	0.691694	0.307389	-0.307586
C29	C	0.335934	0.307410	-0.307616
C30	C	0.265242	0.307419	-0.307625
C31	C	0.265252	0.401670	-0.401579
C32	C	0.335939	0.401666	-0.401573
C33	C	0.371276	0.354530	-0.354594
C34	C	0.447925	0.354529	-0.354584
C35	C	0.509017	0.354531	-0.354580
C36	C	1.154670	0.354537	-0.354599
C37	C	1.229902	0.354544	-0.354609
C38	C	0.978217	0.162570	-0.354626
C39	C	0.978256	0.080771	-0.354648
C40	C	1.021469	0.815713	-0.307572
C41	C	1.021499	0.892572	-0.307590
C42	C	0.934872	0.892580	-0.401630
C43	C	0.934846	0.815723	-0.401615
C44	C	0.978143	0.777291	-0.354582
C45	C	0.978200	0.931007	-0.354615
C46	C	0.978232	1.014341	-0.354634
C47	C	0.978112	0.693952	-0.354563
C48	C	1.021514	0.307341	-0.816540
C49	C	1.021522	0.307319	-0.893399
C50	C	0.934906	0.401446	-0.893351
C51	C	0.934895	0.401463	-0.816493
C52	C	0.978203	0.354412	-0.778090
C53	C	0.978222	0.354373	-0.931806
C54	C	0.978230	0.354350	-1.015140
C55	C	0.978194	0.354433	-0.694751
C56	C	0.978125	0.354520	-0.163368
C57	C	0.978239	0.354334	-0.081570
H58	H	0.592243	0.440026	-0.439804
H59	H	1.056781	0.923852	-0.269310
C60	C	0.887242	0.934857	-0.453355
H61	H	0.893457	0.986133	-0.446626
H62	H	0.897112	0.922219	-0.502811
H63	H	0.841765	0.922306	-0.442526
H64	H	0.899564	0.784437	-0.439900
C65	C	1.069168	0.255545	-0.935691
H66	H	1.094961	0.227531	-0.901810
H67	H	1.043298	0.223469	-0.965677
H68	H	1.098652	0.283697	-0.965671
C69	C	0.374796	0.255576	-0.255929
H70	H	0.343618	0.227522	-0.227947
H71	H	0.402397	0.223540	-0.284126
H72	H	0.402344	0.283695	-0.223809
C73	C	1.069142	0.255577	-0.774299
H74	H	1.094932	0.227535	-0.808209
H75	H	1.098619	0.283731	-0.744312
H76	H	1.043252	0.223516	-0.744325
H77	H	0.899621	0.439794	-0.785186
C78	C	0.730578	0.453483	-0.453212
H79	H	0.699405	0.481545	-0.481198
H80	H	0.758132	0.485512	-0.425003
H81	H	0.758174	0.425365	-0.485329
C82	C	0.374819	0.453498	-0.453247
H83	H	0.343648	0.481562	-0.481234
H84	H	0.402374	0.485526	-0.425038
H85	H	0.402414	0.425378	-0.485362
H86	H	0.592221	0.269022	-0.269348
C87	C	0.887275	0.453206	-0.935593
H88	H	0.861475	0.481238	-0.901683
H89	H	0.913157	0.485265	-0.965570
H90	H	0.857798	0.425043	-0.965577
C91	C	0.226379	0.453511	-0.453264
H92	H	0.179218	0.446761	-0.446549
H93	H	0.237942	0.502943	-0.442402
H94	H	0.237991	0.442799	-0.502731
H95	H	0.236463	0.269041	-0.269372
H96	H	0.720466	0.269009	-0.269334
H97	H	1.056726	0.784424	-0.269276
