data_functionalizedCrystal
_audit_creation_method	'MofGen! by Chris Wilmer'
_symmetry_space_group_name_H-M	'P1'
_symmetry_Int_Tables_number	1
_symmetry_cell_setting	triclinic
loop_
_symmetry_equiv_pos_as_xyz
  x,y,z
_cell_length_a	25.639242
_cell_length_b	25.639239
_cell_length_c	12.759387
_cell_angle_alpha	89.963582
_cell_angle_beta	89.968918
_cell_angle_gamma	90.033587
loop_
_atom_site_label
_atom_site_type_symbol
_atom_site_fract_x
_atom_site_fract_y
_atom_site_fract_z
Zn1	Zn	0.799274	-0.208194	-0.594260
Zn2	Zn	1.132607	0.125139	-0.260927
Zn3	Zn	1.465941	0.458472	0.072406
Zn4	Zn	0.799183	-0.295640	-0.418563
Zn5	Zn	1.132516	0.037693	-0.085230
Zn6	Zn	1.465850	0.371027	0.248103
Zn7	Zn	0.711836	-0.208213	-0.418565
Zn8	Zn	1.045169	0.125121	-0.085231
Zn9	Zn	1.378503	0.458454	0.248102
Zn10	Zn	0.711796	-0.295593	-0.594170
Zn11	Zn	1.045129	0.037741	-0.260837
Zn12	Zn	1.378462	0.371074	0.072497
O13	O	0.755522	-0.251910	-0.506390
O14	O	1.088856	0.081423	-0.173056
O15	O	1.422189	0.414757	0.160277
O16	O	0.872427	-0.219806	-0.570991
O17	O	1.205761	0.113527	-0.237658
O18	O	1.539094	0.446860	0.095676
O19	O	0.787575	-0.284070	-0.271542
O20	O	1.120908	0.049263	0.061791
O21	O	1.454242	0.382597	0.395124
O22	O	0.723490	-0.135045	-0.441909
O23	O	1.056823	0.198288	-0.108576
O24	O	1.390156	0.531622	0.224757
O25	O	0.872360	-0.284052	-0.441907
O26	O	1.205694	0.049281	-0.108574
O27	O	1.539027	0.382614	0.224759
O28	O	0.787730	-0.135031	-0.570992
O29	O	1.121064	0.198302	-0.237659
O30	O	1.454397	0.531635	0.095675
O31	O	0.723402	-0.219838	-0.271543
O32	O	1.056735	0.113496	0.061790
O33	O	1.390068	0.446829	0.395123
O34	O	0.638665	-0.219792	-0.441822
O35	O	0.971999	0.113542	-0.108489
O36	O	1.305332	0.446875	0.224845
O37	O	0.723421	-0.283972	-0.741203
O38	O	1.056754	0.049362	-0.407870
O39	O	1.390088	0.382695	-0.074537
O40	O	0.638636	-0.283989	-0.570839
O41	O	0.971969	0.049344	-0.237505
O42	O	1.305302	0.382677	0.095828
O43	O	0.787691	-0.219760	-0.741270
O44	O	1.121024	0.113573	-0.407936
O45	O	1.454358	0.446906	-0.074603
O46	O	0.787536	-0.368799	-0.441820
O47	O	1.120869	-0.035466	-0.108486
O48	O	1.454203	0.297868	0.224847
O49	O	0.723333	-0.368764	-0.570837
O50	O	1.056666	-0.035431	-0.237504
O51	O	1.389999	0.297902	0.095829
C52	C	0.619680	-0.251888	-0.506321
C53	C	0.953013	0.081445	-0.172988
C54	C	1.286346	0.414779	0.160345
C55	C	0.561566	-0.251891	-0.506317
C56	C	0.894899	0.081442	-0.172984
C57	C	1.228232	0.414776	0.160350
C58	C	0.310379	-0.218426	-0.439327
C59	C	0.643712	0.114907	-0.105994
C60	C	0.977045	0.448240	0.227340
C61	C	0.364983	-0.218422	-0.439314
C62	C	0.698316	0.114912	-0.105980
C63	C	1.031650	0.448245	0.227353
O64	O	0.393225	-0.189938	-0.382297
O65	O	0.726559	0.143396	-0.048964
O66	O	1.059892	0.476729	0.284369
N67	N	0.392292	-0.251897	-0.506370
N68	N	0.725625	0.081436	-0.173036
N69	N	1.058958	0.414769	0.160297
C70	C	0.364993	-0.285377	-0.573451
C71	C	0.698326	0.047957	-0.240118
C72	C	1.031660	0.381290	0.093215
O73	O	0.393235	-0.313850	-0.630487
O74	O	0.726568	0.019484	-0.297154
O75	O	1.059902	0.352817	0.036179
C76	C	0.310390	-0.285379	-0.573469
C77	C	0.643723	0.047955	-0.240136
C78	C	0.977056	0.381288	0.093198
C79	C	0.283084	-0.251904	-0.506401
C80	C	0.616417	0.081429	-0.173068
C81	C	0.949751	0.414763	0.160266
C82	C	0.283073	-0.184954	-0.372265
C83	C	0.616406	0.148379	-0.038932
C84	C	0.949740	0.481712	0.294402
C85	C	0.228472	-0.184960	-0.372277
C86	C	0.561806	0.148373	-0.038944
C87	C	0.895139	0.481707	0.294389
C88	C	0.201178	-0.218438	-0.439351
C89	C	0.534511	0.114896	-0.106018
C90	C	0.867844	0.448229	0.227315
C91	C	0.228484	-0.251910	-0.506413
C92	C	0.561817	0.081424	-0.173080
C93	C	0.895150	0.414757	0.160253
C94	C	0.283092	-0.318855	-0.640555
C95	C	0.616426	0.014479	-0.307222
C96	C	0.949759	0.347812	0.026112
C97	C	0.228485	-0.318853	-0.640568
C98	C	0.561819	0.014480	-0.307234
C99	C	0.895152	0.347813	0.026099
C100	C	0.201179	-0.285379	-0.573500
C101	C	0.534513	0.047954	-0.240166
C102	C	0.867846	0.381288	0.093167
C103	C	0.146588	-0.285393	-0.573499
C104	C	0.479922	0.047940	-0.240166
C105	C	0.813255	0.381274	0.093167
N106	N	0.119280	-0.251917	-0.506443
N107	N	0.452613	0.081416	-0.173110
N108	N	0.785946	0.414749	0.160223
C109	C	0.146574	-0.218439	-0.439369
C110	C	0.479908	0.114894	-0.106036
C111	C	0.813241	0.448227	0.227297
C112	C	0.479664	-0.285370	-0.573410
C113	C	0.812997	0.047964	-0.240077
C114	C	1.146330	0.381297	0.093257
C115	C	0.534266	-0.285371	-0.573388
C116	C	0.867599	0.047962	-0.240054
C117	C	1.200933	0.381296	0.093279
C118	C	0.534252	-0.218415	-0.439251
C119	C	0.867586	0.114918	-0.105918
C120	C	1.200919	0.448252	0.227416
C121	C	0.479649	-0.218417	-0.439269
C122	C	0.812982	0.114917	-0.105935
C123	C	1.146316	0.448250	0.227398
C124	C	0.452355	-0.251894	-0.506354
C125	C	0.785689	0.081440	-0.173020
C126	C	1.119022	0.414773	0.160313
C127	C	0.031909	-0.218454	-0.439399
C128	C	0.365243	0.114879	-0.106066
C129	C	0.698576	0.448213	0.227267
C130	C	-0.022696	-0.218464	-0.439414
C131	C	0.310637	0.114869	-0.106081
C132	C	0.643971	0.448202	0.227252
C133	C	-0.022678	-0.285418	-0.573554
C134	C	0.310656	0.047915	-0.240221
C135	C	0.643989	0.381249	0.093112
C136	C	0.031923	-0.285410	-0.573536
C137	C	0.365256	0.047923	-0.240203
C138	C	0.698590	0.381256	0.093131
C139	C	0.059215	-0.251924	-0.506455
C140	C	0.392548	0.081409	-0.173122
C141	C	0.725882	0.414743	0.160212
O142	O	0.118311	-0.313861	-0.630490
O143	O	0.451645	0.019473	-0.297157
O144	O	0.784978	0.352806	0.036177
O145	O	0.118326	-0.189966	-0.382353
O146	O	0.451659	0.143367	-0.049019
O147	O	0.784992	0.476700	0.284314
C148	C	0.755434	-0.387753	-0.506342
C149	C	1.088768	-0.054419	-0.173008
C150	C	1.422101	0.278914	0.160325
C151	C	0.755444	-0.445867	-0.506356
C152	C	1.088778	-0.112533	-0.173023
C153	C	1.422111	0.220800	0.160311
C154	C	0.789040	-0.806235	-0.439325
C155	C	1.122373	-0.472902	-0.105991
C156	C	1.455707	-0.139568	0.227342
C157	C	0.789060	-0.860839	-0.439339
C158	C	1.122394	-0.527506	-0.106006
C159	C	1.455727	-0.194173	0.227328
O160	O	0.817533	-0.889081	-0.382294
O161	O	1.150867	-0.555747	-0.048960
O162	O	1.484200	-0.222414	0.284373
N163	N	0.755614	-0.888149	-0.506459
N164	N	1.088947	-0.554816	-0.173126
N165	N	1.422281	-0.221482	0.160207
C166	C	0.722149	-0.860851	-0.573578
C167	C	1.055482	-0.527518	-0.240244
C168	C	1.388816	-0.194185	0.093089
O169	O	0.693703	-0.889094	-0.630671
O170	O	1.027036	-0.555761	-0.297337
O171	O	1.360369	-0.222428	0.035996
C172	C	0.722132	-0.806248	-0.573568
C173	C	1.055465	-0.472915	-0.240235
C174	C	1.388799	-0.139581	0.093099
C175	C	0.755577	-0.778941	-0.506436
C176	C	1.088910	-0.445608	-0.173102
C177	C	1.422243	-0.112275	0.160231
C178	C	0.822482	-0.778928	-0.372199
C179	C	1.155816	-0.445595	-0.038865
C180	C	1.489149	-0.112262	0.294468
C181	C	0.822461	-0.724328	-0.372184
C182	C	1.155795	-0.390994	-0.038850
C183	C	1.489128	-0.057661	0.294483
C184	C	0.788998	-0.697034	-0.439294
C185	C	1.122331	-0.363701	-0.105961
C186	C	1.455665	-0.030367	0.227372
C187	C	0.755555	-0.724341	-0.506421
C188	C	1.088889	-0.391007	-0.173087
C189	C	1.422222	-0.057674	0.160246
C190	C	0.688670	-0.778952	-0.640691
C191	C	1.022003	-0.445618	-0.307358
C192	C	1.355337	-0.112285	0.025976
C193	C	0.688656	-0.724344	-0.640676
C194	C	1.021989	-0.391011	-0.307343
C195	C	1.355323	-0.057678	0.025990
C196	C	0.722101	-0.697038	-0.573544
C197	C	1.055434	-0.363704	-0.240210
C198	C	1.388767	-0.030371	0.093123
C199	C	0.722071	-0.642447	-0.573516
C200	C	1.055404	-0.309113	-0.240183
C201	C	1.388738	0.024220	0.093150
N202	N	0.755517	-0.615137	-0.506396
N203	N	1.088851	-0.281804	-0.173062
N204	N	1.422184	0.051530	0.160271
C205	C	0.788981	-0.642431	-0.439285
C206	C	1.122314	-0.309097	-0.105952
C207	C	1.455647	0.024236	0.227382
C208	C	0.722189	-0.975522	-0.573594
C209	C	1.055522	-0.642189	-0.240261
C210	C	1.388855	-0.308855	0.093073
C211	C	0.722203	-1.030124	-0.573599
C212	C	1.055536	-0.696791	-0.240266
C213	C	1.388869	-0.363458	0.093068
C214	C	0.789115	-1.030109	-0.439361
C215	C	1.122448	-0.696775	-0.106028
C216	C	1.455781	-0.363442	0.227305
C217	C	0.789098	-0.975505	-0.439352
C218	C	1.122431	-0.642172	-0.106018
C219	C	1.455764	-0.308839	0.227315
C220	C	0.755635	-0.948212	-0.506473
C221	C	1.088968	-0.614879	-0.173140
C222	C	1.422301	-0.281546	0.160193
C223	C	0.788934	-0.527766	-0.439257
C224	C	1.122267	-0.194432	-0.105924
C225	C	1.455600	0.138901	0.227409
C226	C	0.788908	-0.473160	-0.439245
C227	C	1.122241	-0.139827	-0.105912
C228	C	1.455575	0.193506	0.227421
C229	C	0.721998	-0.473181	-0.573486
C230	C	1.055331	-0.139848	-0.240153
C231	C	1.388665	0.193486	0.093180
C232	C	0.722021	-0.527781	-0.573495
C233	C	1.055355	-0.194448	-0.240162
C234	C	1.388688	0.138885	0.093172
C235	C	0.755493	-0.555072	-0.506377
C236	C	1.088827	-0.221739	-0.173044
C237	C	1.422160	0.111594	0.160289
O238	O	0.693614	-0.614170	-0.630535
O239	O	1.026947	-0.280837	-0.297202
O240	O	1.360281	0.052496	0.036131
O241	O	0.817427	-0.614181	-0.382211
O242	O	1.150760	-0.280848	-0.048878
O243	O	1.484094	0.052486	0.284456
C244	C	0.891895	-0.251932	-0.506459
C245	C	1.225228	0.081401	-0.173126
C246	C	1.558562	0.414734	0.160208
C247	C	0.950009	-0.251942	-0.506489
C248	C	1.283343	0.081391	-0.173155
C249	C	1.616676	0.414725	0.160178
C250	C	0.755562	-0.251859	-0.780423
C251	C	1.088895	0.081475	-0.447090
C252	C	1.422228	0.414808	-0.113757
C253	C	0.755579	-0.251837	-0.897200
C254	C	1.088912	0.081496	-0.563867
C255	C	1.422245	0.414830	-0.230533
C256	C	0.755625	-0.115537	-0.506461
C257	C	1.088958	0.217796	-0.173128
C258	C	1.422291	0.551130	0.160206
C259	C	0.755668	-0.057423	-0.506491
C260	C	1.089002	0.275911	-0.173158
C261	C	1.422335	0.609244	0.160175
C262	C	0.822508	-0.184978	-0.897289
C263	C	1.155841	0.148355	-0.563955
C264	C	1.489174	0.481689	-0.230622
C265	C	0.855979	-0.151541	-0.952194
C266	C	1.189313	0.181793	-0.618861
C267	C	1.522646	0.515126	-0.285527
C268	C	0.855992	-0.151522	-1.061916
C269	C	1.189325	0.181812	-0.728582
C270	C	1.522659	0.515145	-0.395249
C271	C	0.822528	-0.184942	-1.116735
C272	C	1.155862	0.148391	-0.783401
C273	C	1.489195	0.481724	-0.450068
C274	C	0.789056	-0.218380	-1.061830
C275	C	1.122390	0.114954	-0.728496
C276	C	1.455723	0.448287	-0.395163
C277	C	0.789048	-0.218396	-0.952105
C278	C	1.122382	0.114937	-0.618772
C279	C	1.455715	0.448270	-0.285439
C280	C	0.722126	-0.285235	-1.061741
C281	C	1.055459	0.048098	-0.728407
C282	C	1.388792	0.381432	-0.395074
C283	C	0.722115	-0.285258	-0.952019
C284	C	1.055448	0.048076	-0.618686
C285	C	1.388781	0.381409	-0.285352
C286	C	0.688662	-0.318656	-1.116560
C287	C	1.021995	0.014678	-0.783227
C288	C	1.355328	0.348011	-0.449893
C289	C	0.655192	-0.352096	-1.061655
C290	C	0.988525	-0.018763	-0.728321
C291	C	1.321859	0.314570	-0.394988
C292	C	0.655181	-0.352114	-0.951926
C293	C	0.988514	-0.018781	-0.618593
C294	C	1.321848	0.314552	-0.285260
C295	C	0.688643	-0.318695	-0.897114
C296	C	1.021976	0.014639	-0.563781
C297	C	1.355310	0.347972	-0.230447
C298	C	0.755513	-0.251923	-0.233422
C299	C	1.088846	0.081410	0.099911
C300	C	1.422180	0.414743	0.433245
C301	C	0.755597	-0.251798	-0.116646
C302	C	1.088931	0.081536	0.216687
C303	C	1.422264	0.414869	0.550021
H304	H	0.054124	-0.191184	-0.384781
H305	H	0.387457	0.142149	-0.051447
H306	H	0.720791	0.475483	0.281886
H307	H	0.556486	-0.191154	-0.384638
H308	H	0.889819	0.142179	-0.051304
H309	H	1.223152	0.475512	0.282029
Cl310	Cl	0.568587	-0.327462	-0.657690
Cl311	Cl	0.901920	0.005871	-0.324357
Cl312	Cl	1.235253	0.339204	0.008976
H313	H	0.883224	-0.124330	-0.907548
H314	H	1.216557	0.209004	-0.574215
H315	H	1.549891	0.542337	-0.240882
H316	H	0.816143	-0.450929	-0.384574
H317	H	1.149476	-0.117595	-0.051241
H318	H	1.482809	0.215738	0.282092
H319	H	0.849735	-0.801145	-0.317549
H320	H	1.183069	-0.467812	0.015785
H321	H	1.516402	-0.134478	0.349118
Cl322	Cl	0.688634	-0.318717	-0.759177
Cl323	Cl	1.021968	0.014616	-0.425844
Cl324	Cl	1.355301	0.347950	-0.092510
Cl325	Cl	0.831144	-0.941182	-0.354955
Cl326	Cl	1.164478	-0.607849	-0.021622
Cl327	Cl	1.497811	-0.274516	0.311711
Cl328	Cl	0.445357	-0.327464	-0.657745
Cl329	Cl	0.778690	0.005869	-0.324412
Cl330	Cl	1.112024	0.339203	0.008922
Cl331	Cl	0.317406	-0.360939	-0.724877
Cl332	Cl	0.650739	-0.027605	-0.391544
Cl333	Cl	0.984073	0.305728	-0.058210
Cl334	Cl	0.194176	-0.360941	-0.724911
Cl335	Cl	0.527510	-0.027607	-0.391577
Cl336	Cl	0.860843	0.305726	-0.058244
Cl337	Cl	0.445327	-0.176332	-0.354954
Cl338	Cl	0.778661	0.157001	-0.021620
Cl339	Cl	1.111994	0.490334	0.311713
H340	H	0.206245	-0.157701	-0.317664
H341	H	0.539578	0.175632	0.015670
H342	H	0.872912	0.508965	0.349003
Cl343	Cl	0.831012	-0.562066	-0.354878
Cl344	Cl	1.164345	-0.228733	-0.021544
Cl345	Cl	1.497679	0.104601	0.311789
H346	H	0.661433	-0.801175	-0.695352
H347	H	0.994766	-0.467842	-0.362019
H348	H	1.328100	-0.134509	-0.028686
H349	H	0.054157	-0.312672	-0.628140
H350	H	0.387490	0.020662	-0.294807
H351	H	0.720823	0.353995	0.038527
Cl352	Cl	-0.057001	-0.327509	-0.657858
Cl353	Cl	0.276332	0.005825	-0.324525
Cl354	Cl	0.609666	0.339158	0.008808
H355	H	0.849696	-0.702098	-0.317522
H356	H	1.183030	-0.368764	0.015812
H357	H	1.516363	-0.035431	0.349145
Cl358	Cl	0.831183	-1.064431	-0.354991
Cl359	Cl	1.164516	-0.731098	-0.021657
Cl360	Cl	1.497849	-0.397764	0.311676
Cl361	Cl	0.680150	-1.064446	-0.657985
Cl362	Cl	1.013483	-0.731113	-0.324652
Cl363	Cl	1.346817	-0.397779	0.008681
H364	H	0.694790	-0.550016	-0.628163
H365	H	1.028123	-0.216682	-0.294830
H366	H	1.361456	0.116651	0.038504
Cl367	Cl	0.317377	-0.142861	-0.287933
Cl368	Cl	0.650710	0.190472	0.045400
Cl369	Cl	0.984043	0.523805	0.378734
H370	H	0.694935	-0.953303	-0.628249
H371	H	1.028268	-0.619970	-0.294916
H372	H	1.361601	-0.286636	0.038417
Cl373	Cl	0.646586	-0.690037	-0.725065
Cl374	Cl	0.979920	-0.356704	-0.391732
Cl375	Cl	1.313253	-0.023370	-0.058398
Cl376	Cl	0.679935	-0.438859	-0.657855
Cl377	Cl	1.013268	-0.105525	-0.324522
Cl378	Cl	1.346601	0.227808	0.008811
H379	H	0.822505	-0.184995	-0.807948
H380	H	1.155839	0.148338	-0.474614
H381	H	1.489172	0.481672	-0.141281
Cl382	Cl	0.613096	-0.394150	-0.882912
Cl383	Cl	0.946430	-0.060816	-0.549579
Cl384	Cl	1.279763	0.272517	-0.216245
Cl385	Cl	0.898063	-0.109478	-1.130942
Cl386	Cl	1.231396	0.223855	-0.797609
Cl387	Cl	1.564730	0.557189	-0.464276
Cl388	Cl	0.822541	-0.184913	-1.254672
Cl389	Cl	1.155874	0.148421	-0.921338
Cl390	Cl	1.489207	0.481754	-0.588005
H391	H	-0.044926	-0.191205	-0.384797
H392	H	0.288407	0.142129	-0.051463
H393	H	0.621741	0.475462	0.281870
Cl394	Cl	0.688678	-0.318632	-1.254497
Cl395	Cl	1.022011	0.014701	-0.921163
Cl396	Cl	1.355344	0.348035	-0.587830
H397	H	0.627946	-0.379302	-1.106297
H398	H	0.961279	-0.045969	-0.772964
H399	H	1.294612	0.287365	-0.439630
