data_functionalizedCrystal
_audit_creation_method	'MofGen! by Chris Wilmer'
_symmetry_space_group_name_H-M	'P1'
_symmetry_Int_Tables_number	1
_symmetry_cell_setting	triclinic
loop_
_symmetry_equiv_pos_as_xyz
  x,y,z
_cell_length_a	12.827893
_cell_length_b	12.645330
_cell_length_c	12.827885
_cell_angle_alpha	90.029168
_cell_angle_beta	90.019462
_cell_angle_gamma	90.017662
loop_
_atom_site_label
_atom_site_type_symbol
_atom_site_fract_x
_atom_site_fract_y
_atom_site_fract_z
Zn1	Zn	1.597655	-0.421987	0.590855
Zn2	Zn	2.097655	0.078013	1.090855
Zn3	Zn	1.597541	-0.599288	0.416117
Zn4	Zn	2.097541	-0.099288	0.916117
Zn5	Zn	1.422896	-0.422039	0.416128
Zn6	Zn	1.922896	0.077961	0.916128
Zn7	Zn	1.422875	-0.599209	0.590817
Zn8	Zn	1.922875	-0.099209	1.090817
O9	O	1.510242	-0.510631	0.503479
O10	O	2.010242	-0.010631	1.003479
O11	O	1.743876	-0.445518	0.567686
O12	O	2.243876	0.054482	1.067686
O13	O	1.574336	-0.575831	0.269883
O14	O	2.074336	-0.075831	0.769883
O15	O	1.446134	-0.273685	0.439326
O16	O	1.946134	0.226315	0.939326
O17	O	1.743792	-0.575780	0.439308
O18	O	2.243792	-0.075780	0.939308
O19	O	1.574529	-0.273647	0.567697
O20	O	2.074529	0.226353	1.067697
O21	O	1.446024	-0.445607	0.269891
O22	O	1.946024	0.054393	0.769891
O23	O	1.276657	-0.445530	0.439290
O24	O	1.776657	0.054470	0.939290
O25	O	1.446098	-0.575645	0.737058
O26	O	1.946098	-0.075645	1.237058
O27	O	1.276641	-0.575695	0.567633
O28	O	1.776641	-0.075695	1.067633
O29	O	1.574509	-0.445441	0.737086
O30	O	2.074509	0.054559	1.237086
O31	O	1.574315	-0.747625	0.439271
O32	O	2.074315	-0.247625	0.939271
O33	O	1.445988	-0.747566	0.567623
O34	O	1.945988	-0.247566	1.067623
C35	C	1.238732	-0.510610	0.503459
C36	C	1.738732	-0.010610	1.003459
C37	C	1.122579	-0.510627	0.503476
C38	C	1.622579	-0.010627	1.003476
C39	C	1.070814	-0.575138	0.566886
C40	C	1.570814	-0.075138	1.066886
C41	C	0.950763	-0.575157	0.566904
C42	C	1.450763	-0.075157	1.066904
C43	C	1.510165	-0.786060	0.503465
C44	C	2.010165	-0.286060	1.003465
C45	C	1.510228	-0.903890	0.503493
C46	C	2.010228	-0.403890	1.003493
C47	C	1.429831	-1.071462	0.584488
C48	C	1.929831	-0.571462	1.084488
C49	C	1.429419	-0.948902	0.584228
C50	C	1.929419	-0.448902	1.084228
C51	C	1.480415	-0.948493	0.393362
C52	C	1.980415	-0.448493	0.893362
C53	C	1.479925	-1.071091	0.393854
C54	C	1.979925	-0.571091	0.893854
C55	C	1.620931	-1.070978	0.531736
C56	C	2.120931	-0.570978	1.031736
C57	C	1.620252	-0.948371	0.534144
C58	C	2.120252	-0.448371	1.034144
C59	C	1.782812	-0.510652	0.503500
C60	C	2.282812	-0.010652	1.003500
C61	C	1.898965	-0.510661	0.503509
C62	C	2.398965	-0.010661	1.003509
C63	C	1.510314	-0.510528	0.776050
C64	C	2.010314	-0.010528	1.276050
C65	C	1.510344	-0.510484	0.892203
C66	C	2.010344	-0.010484	1.392203
C67	C	1.510347	-0.234125	0.503517
C68	C	2.010347	0.265875	1.003517
C69	C	1.510391	-0.116295	0.503533
C70	C	2.010391	0.383705	1.003533
C71	C	1.510230	-0.510656	0.231969
C72	C	2.010230	-0.010656	0.731969
C73	C	1.510402	-0.510402	0.115817
C74	C	2.010402	-0.010402	0.615817
C75	C	1.573923	-0.445999	1.064046
C76	C	2.073923	0.054001	1.564046
C77	C	1.573893	-0.446042	0.943995
C78	C	2.073893	0.053958	1.443995
H79	H	1.078020	-0.455407	0.449206
H80	H	1.578020	0.044593	0.949206
H81	H	1.115373	-0.630350	0.621164
H82	H	1.615373	-0.130350	1.121164
H83	H	1.680950	-1.099970	0.472773
H84	H	2.180950	-0.599970	0.972773
H85	H	1.628271	-0.390900	0.899473
H86	H	2.128271	0.109100	1.399473
F87	F	1.649642	-0.910262	0.640084
F88	F	2.149642	-0.410262	1.140084
H89	H	1.448072	-0.918742	0.665889
H90	H	1.948072	-0.418742	1.165889
F91	F	1.453982	-1.109899	0.691578
F92	F	1.953982	-0.609899	1.191578
H93	H	1.455952	-0.565618	0.936718
H94	H	1.955952	-0.065618	1.436718
F95	F	1.439293	-0.582521	1.057588
F96	F	1.939293	-0.082521	1.557588
F97	F	1.554677	-0.910390	0.312365
F98	F	2.054677	-0.410390	0.812365
H99	H	0.906247	-0.630390	0.621189
H100	H	1.406247	-0.130390	1.121189
H101	H	1.348394	-1.102364	0.566042
H102	H	1.848394	-0.602364	1.066042
H103	H	1.400453	-0.917884	0.369038
H104	H	1.900453	-0.417884	0.869038
H105	H	1.628332	-0.390833	1.108599
H106	H	2.128332	0.109167	1.608599
F107	F	1.322305	-0.910687	0.559810
F108	F	1.822305	-0.410687	1.059810
H109	H	0.943475	-0.455432	0.449214
H110	H	1.443475	0.044568	0.949214
F111	F	1.374307	-1.108598	0.362625
F112	F	1.874307	-0.608598	0.862625
F113	F	1.553282	-1.109865	0.312320
F114	F	2.053282	-0.609865	0.812320
H115	H	1.683435	-0.917724	0.479474
H116	H	2.183435	-0.417724	0.979474
F117	F	1.656479	-1.111284	0.634920
F118	F	2.156479	-0.611284	1.134920
