data_functionalizedCrystal
_audit_creation_method	'MofGen! by Chris Wilmer'
_symmetry_space_group_name_H-M	'P1'
_symmetry_Int_Tables_number	1
_symmetry_cell_setting	triclinic
loop_
_symmetry_equiv_pos_as_xyz
  x,y,z
_cell_length_a	15.995350
_cell_length_b	12.503572
_cell_length_c	14.044220
_cell_angle_alpha	86.156832
_cell_angle_beta	91.659374
_cell_angle_gamma	86.485305
loop_
_atom_site_label
_atom_site_type_symbol
_atom_site_fract_x
_atom_site_fract_y
_atom_site_fract_z
O1	O	1.124525	-0.089231	-0.116702
O2	O	1.457859	0.244102	0.216632
O3	O	1.791192	0.577435	0.549965
O4	O	0.881878	-0.089254	-0.131788
O5	O	1.215211	0.244079	0.201545
O6	O	1.548545	0.577413	0.534879
O7	O	0.999559	-0.089232	0.013739
O8	O	1.332892	0.244101	0.347073
O9	O	1.666226	0.577434	0.680406
O10	O	1.006844	-0.089253	-0.262229
O11	O	1.340178	0.244080	0.071105
O12	O	1.673511	0.577414	0.404438
O13	O	0.990710	0.089408	0.002777
O14	O	1.324043	0.422741	0.336110
O15	O	1.657377	0.756075	0.669443
O16	O	0.873029	0.089386	-0.142751
O17	O	1.206362	0.422720	0.190583
O18	O	1.539696	0.756053	0.523916
O19	O	1.115676	0.089409	-0.127664
O20	O	1.449010	0.422742	0.205669
O21	O	1.782343	0.756076	0.539002
Cu22	Cu	0.993545	0.105709	-0.136208
Cu23	Cu	1.326878	0.439042	0.197125
Cu24	Cu	1.660211	0.772376	0.530458
Cu25	Cu	1.004010	-0.105554	-0.123244
Cu26	Cu	1.337343	0.227779	0.210090
Cu27	Cu	1.670676	0.561113	0.543423
O28	O	0.997995	0.089387	-0.273191
O29	O	1.331329	0.422721	0.060142
O30	O	1.664662	0.756054	0.393475
C31	C	0.846212	0.000064	-0.136645
C32	C	1.179546	0.333397	0.196688
C33	C	1.512879	0.666730	0.530021
C34	C	0.753123	0.000055	-0.134775
C35	C	1.086456	0.333389	0.198558
C36	C	1.419789	0.666722	0.531892
N37	N	0.986190	0.254300	-0.145326
N38	N	1.319524	0.587633	0.188007
N39	N	1.652857	0.920967	0.521340
N40	N	1.011370	-0.254145	-0.114118
N41	N	1.344704	0.079189	0.219215
N42	N	1.678037	0.412522	0.552548
C43	C	0.414873	0.000078	-0.128061
C44	C	0.748206	0.333412	0.205273
C45	C	1.081539	0.666745	0.538606
C46	C	0.454546	0.000484	-0.024443
C47	C	0.787879	0.333818	0.308890
C48	C	1.121212	0.667151	0.642224
C49	C	0.551396	0.000074	-0.026288
C50	C	0.884729	0.333408	0.307045
C51	C	1.218062	0.666741	0.640379
C52	C	0.582682	0.000067	-0.131391
C53	C	0.916016	0.333401	0.201942
C54	C	1.249349	0.666734	0.535276
C55	C	0.550467	-0.101944	-0.176251
C56	C	0.883800	0.231389	0.157082
C57	C	1.217133	0.564722	0.490416
C58	C	0.453640	-0.102022	-0.173643
C59	C	0.786974	0.231311	0.159691
C60	C	1.120307	0.564644	0.493024
C61	C	0.443398	0.101125	-0.188250
C62	C	0.776732	0.434458	0.145083
C63	C	1.110065	0.767792	0.478416
C64	C	0.540276	0.102466	-0.188308
C65	C	0.873609	0.435799	0.145025
C66	C	1.206942	0.769133	0.478358
C67	C	0.677521	0.000058	-0.133279
C68	C	1.010855	0.333391	0.200055
C69	C	1.344188	0.666724	0.533388
C70	C	0.320034	0.000081	-0.126176
C71	C	0.653367	0.333414	0.207158
C72	C	0.986700	0.666747	0.540491
C73	C	1.151342	0.000089	-0.122807
C74	C	1.484676	0.333422	0.210527
C75	C	1.818009	0.666756	0.543860
C76	C	1.244432	0.000090	-0.124677
C77	C	1.577766	0.333424	0.208657
C78	C	1.911099	0.666757	0.541990
C79	C	0.991946	0.000088	0.043572
C80	C	1.325279	0.333421	0.376906
C81	C	1.658613	0.666755	0.710239
C82	C	0.982435	0.000088	0.148798
C83	C	1.315768	0.333422	0.482131
C84	C	1.649102	0.666755	0.815465
C85	C	0.975372	0.473413	-0.158747
C86	C	1.308706	0.806746	0.174586
C87	C	1.642039	1.140080	0.507919
C88	C	1.022186	0.526749	-0.100701
C89	C	1.355519	0.860082	0.232633
C90	C	1.688852	1.193415	0.565966
C91	C	1.016166	0.648671	-0.108168
C92	C	1.349500	0.982004	0.225165
C93	C	1.682833	1.315338	0.558499
C94	C	0.981391	0.351480	-0.151281
C95	C	1.314724	0.684813	0.182052
C96	C	1.648057	1.018147	0.515386
C97	C	1.005609	0.000065	-0.303024
C98	C	1.338942	0.333398	0.030309
C99	C	1.672275	0.666731	0.363642
C100	C	1.015120	0.000057	-0.408250
C101	C	1.348453	0.333391	-0.074916
C102	C	1.681787	0.666724	0.258417
C103	C	0.965048	0.000071	0.341460
C104	C	1.298381	0.333405	0.674794
C105	C	1.631714	0.666738	1.008127
C106	C	1.032504	0.000074	0.399093
C107	C	1.365837	0.333408	0.732427
C108	C	1.699170	0.666741	1.065760
C109	C	1.022829	0.000065	0.506297
C110	C	1.356162	0.333398	0.839631
C111	C	1.689496	0.666731	1.172964
C112	C	0.974721	0.000081	0.234246
C113	C	1.308054	0.333414	0.567580
C114	C	1.641388	0.666748	0.900913
H115	H	0.573201	0.073201	0.009407
H116	H	0.906534	0.406534	0.342741
H117	H	1.239868	0.739868	0.676074
H118	H	0.930777	0.519312	-0.214048
H119	H	1.264110	0.852646	0.119285
H120	H	1.597444	1.185979	0.452619
H121	H	1.097524	0.000008	0.367926
H122	H	1.430857	0.333342	0.701260
H123	H	1.764191	0.666675	1.034593
H124	H	0.429305	0.073642	0.012496
H125	H	0.762639	0.406975	0.345830
H126	H	1.095972	0.740308	0.679163
H127	H	0.435475	-0.072263	0.021259
H128	H	0.768809	0.261070	0.354593
H129	H	1.102142	0.594404	0.687926
H130	H	1.066785	0.480844	-0.045397
H131	H	1.400118	0.814177	0.287936
H132	H	1.733452	1.147511	0.621269
H133	H	0.436325	-0.178274	-0.131684
H134	H	0.769658	0.155060	0.201649
H135	H	1.102991	0.488393	0.534982
H136	H	0.579860	-0.073174	0.018662
H137	H	0.913194	0.260160	0.351995
H138	H	1.246527	0.593493	0.685328
H139	H	0.427305	-0.106656	-0.249451
H140	H	0.760638	0.226677	0.083883
H141	H	1.093971	0.560010	0.417216
H142	H	0.900036	0.000063	0.372630
H143	H	1.233370	0.333396	0.705964
H144	H	1.566703	0.666729	1.039297
H145	H	0.570547	-0.105743	-0.253235
H146	H	0.903880	0.227591	0.080099
H147	H	1.237214	0.560924	0.413432
H148	H	0.416502	0.178448	-0.159112
H149	H	0.749835	0.511781	0.174221
H150	H	1.083169	0.845114	0.507554
H151	H	0.579949	-0.177859	-0.136087
H152	H	0.913283	0.155474	0.197247
H153	H	1.246616	0.488808	0.530580
H154	H	0.561067	0.177934	-0.155622
H155	H	0.894400	0.511267	0.177711
H156	H	1.227733	0.844601	0.511045
H157	H	0.561060	0.108623	-0.265331
H158	H	0.894394	0.441956	0.068003
H159	H	1.227727	0.775289	0.401336
H160	H	0.417310	0.101810	-0.264707
H161	H	0.750644	0.435143	0.068626
H162	H	1.083977	0.768477	0.401959
