data_functionalizedCrystal
_audit_creation_method	'MofGen! by Chris Wilmer'
_symmetry_space_group_name_H-M	'P1'
_symmetry_Int_Tables_number	1
_symmetry_cell_setting	triclinic
loop_
_symmetry_equiv_pos_as_xyz
  x,y,z
_cell_length_a	11.792254
_cell_length_b	10.540539
_cell_length_c	10.268362
_cell_angle_alpha	89.996859
_cell_angle_beta	89.995475
_cell_angle_gamma	84.362045
loop_
_atom_site_label
_atom_site_type_symbol
_atom_site_fract_x
_atom_site_fract_y
_atom_site_fract_z
O1	O	1.507353	0.174069	-0.108293
O2	O	2.007353	0.674069	0.391707
O3	O	1.177061	0.191984	-0.108295
O4	O	1.677061	0.691984	0.391705
O5	O	1.349743	-0.001705	-0.108292
O6	O	1.849743	0.498295	0.391708
O7	O	1.334672	0.367757	-0.108295
O8	O	1.834672	0.867757	0.391705
O9	O	1.349727	-0.001713	0.108309
O10	O	1.849727	0.498287	0.608309
O11	O	1.177046	0.191976	0.108306
O12	O	1.677046	0.691976	0.608306
O13	O	1.507338	0.174061	0.108308
O14	O	2.007338	0.674061	0.608308
Cu15	Cu	1.342191	0.183017	0.128084
Cu16	Cu	1.842191	0.683017	0.628084
Cu17	Cu	1.342209	0.183027	-0.128071
Cu18	Cu	1.842209	0.683027	0.371929
O19	O	1.334657	0.367749	0.108305
O20	O	1.834657	0.867749	0.608305
C21	C	1.134760	0.190851	0.000005
C22	C	1.634760	0.690851	0.500005
C23	C	1.008738	0.187473	0.000004
C24	C	1.508738	0.687473	0.500004
C25	C	0.906394	0.184729	-0.000001
C26	C	1.406394	0.684729	0.499999
C27	C	0.777999	0.181297	-0.000002
C28	C	1.277999	0.681297	0.499998
C29	C	1.348605	-0.049008	0.000006
C30	C	1.848605	0.450992	0.500006
C31	C	1.345223	-0.189945	-0.000001
C32	C	1.845223	0.310055	0.499999
C33	C	1.215653	-0.372957	-0.000488
C34	C	1.715653	0.127043	0.499512
C35	C	1.219081	-0.226349	-0.000001
C36	C	1.719081	0.273651	0.499999
C37	C	1.405920	-0.251802	0.123689
C38	C	1.905920	0.248198	0.623689
C39	C	1.401615	-0.398333	0.123793
C40	C	1.901615	0.101667	0.623793
C41	C	1.404198	-0.398850	-0.122522
C42	C	1.904198	0.101150	0.377478
C43	C	1.405360	-0.251872	-0.124158
C44	C	1.905360	0.248128	0.375842
C45	C	1.549639	0.175193	0.000005
C46	C	2.049639	0.675193	0.500005
C47	C	1.675661	0.178571	-0.000002
C48	C	2.175661	0.678571	0.499998
C49	C	1.335794	0.415052	0.000004
C50	C	1.835794	0.915052	0.500004
C51	C	1.339176	0.555989	0.000003
C52	C	1.839176	1.055989	0.500003
N53	N	1.342186	0.183010	0.308250
N54	N	1.842186	0.683010	0.808250
N55	N	1.342222	0.183024	-0.308237
N56	N	1.842222	0.683024	0.191763
C57	C	1.342203	0.183024	0.573921
C58	C	1.842203	0.683024	1.073921
C59	C	1.342190	0.183020	0.426083
C60	C	1.842190	0.683020	0.926083
H61	H	1.171321	-0.183590	-0.088666
H62	H	1.671321	0.316410	0.411334
H63	H	1.497328	-0.227945	-0.131626
H64	H	1.997328	0.272055	0.368374
H65	H	1.498556	-0.229745	0.128288
H66	H	1.998556	0.270255	0.628288
H67	H	1.360949	-0.210868	-0.215660
H68	H	1.860949	0.289132	0.284340
H69	H	1.495310	-0.446368	-0.123354
H70	H	1.995310	0.053632	0.376646
H71	H	1.165830	-0.401394	-0.089188
H72	H	1.665830	0.098606	0.410812
H73	H	1.170973	-0.184442	0.088813
H74	H	1.670973	0.315558	0.588813
H75	H	1.166020	-0.403008	0.087715
H76	H	1.666020	0.096992	0.587715
H77	H	1.356745	-0.426392	0.216253
H78	H	1.856745	0.073608	0.716253
H79	H	1.492335	-0.446592	0.129405
H80	H	1.992335	0.053408	0.629405
H81	H	1.363744	-0.209071	0.215734
H82	H	1.863744	0.290929	0.715734
H83	H	1.363378	-0.430269	-0.216271
H84	H	1.863378	0.069731	0.283729
