data_functionalizedCrystal
_audit_creation_method	'MofGen! by Chris Wilmer'
_symmetry_space_group_name_H-M	'P1'
_symmetry_Int_Tables_number	1
_symmetry_cell_setting	triclinic
loop_
_symmetry_equiv_pos_as_xyz
  x,y,z
_cell_length_a	13.897448
_cell_length_b	12.759401
_cell_length_c	12.759393
_cell_angle_alpha	90.018496
_cell_angle_beta	89.966654
_cell_angle_gamma	89.982147
loop_
_atom_site_label
_atom_site_type_symbol
_atom_site_fract_x
_atom_site_fract_y
_atom_site_fract_z
Zn1	Zn	-0.383954	-1.606234	-0.593968
Zn2	Zn	-0.545283	-1.606119	-0.418283
Zn3	Zn	-0.384004	-1.430536	-0.418308
Zn4	Zn	-0.545209	-1.430515	-0.593924
O5	O	-0.464613	-1.518351	-0.506121
O6	O	-0.405365	-1.753239	-0.570671
O7	O	-0.523942	-1.582788	-0.271265
O8	O	-0.249016	-1.453899	-0.441638
O9	O	-0.523893	-1.753155	-0.441596
O10	O	-0.248979	-1.582983	-0.570695
O11	O	-0.405451	-1.453788	-0.271283
O12	O	-0.405379	-1.283512	-0.441596
O13	O	-0.523766	-1.453864	-0.740951
O14	O	-0.523815	-1.283497	-0.570621
O15	O	-0.405293	-1.582964	-0.740984
O16	O	-0.680255	-1.582768	-0.441554
O17	O	-0.680201	-1.453753	-0.570597
C18	C	-0.715227	-1.518274	-0.506090
C19	C	-0.822441	-1.518337	-0.506113
C20	C	-0.464595	-1.245383	-0.506107
C21	C	-0.464611	-1.128607	-0.506125
C22	C	-0.464515	-1.518424	-0.780154
C23	C	-0.464474	-1.518456	-0.896931
C24	C	-1.018736	-1.518448	-0.506178
C25	C	-0.909503	-1.518383	-0.506145
C26	C	-0.213020	-1.518456	-0.506174
C27	C	-0.105806	-1.518501	-0.506197
C28	C	-0.464631	-1.792384	-0.506136
C29	C	-0.464639	-1.909161	-0.506142
C30	C	-0.526379	-1.073764	-0.573198
C31	C	-0.526391	-0.964040	-0.573209
C32	C	-0.402864	-0.964011	-0.439067
C33	C	-0.402847	-1.073733	-0.439062
C34	C	-0.588142	-1.128638	-0.640261
C35	C	-0.649917	-1.073796	-0.707338
C36	C	-0.649929	-0.964072	-0.707349
C37	C	-0.588167	-0.909190	-0.640284
C38	C	-0.402779	-1.585687	-0.951812
C39	C	-0.402744	-1.585712	-1.061536
C40	C	-0.526107	-1.451271	-1.061489
C41	C	-0.526137	-1.451242	-0.951767
C42	C	-0.341116	-1.652901	-0.896976
C43	C	-0.279417	-1.720139	-0.951856
C44	C	-0.279382	-1.720164	-1.061580
C45	C	-0.341046	-1.652951	-1.116424
C46	C	-0.464640	-1.518338	-0.233154
C47	C	-0.464410	-1.518510	-0.116377
H48	H	-0.700195	-1.118488	-0.761947
O49	O	-0.219377	-1.785311	-0.898635
C50	C	-0.123232	-1.762414	-0.925493
H51	H	-0.118346	-1.678491	-0.955646
H52	H	-0.098005	-1.818766	-0.989196
C53	C	-0.064885	-1.877725	-0.791008
C54	C	-0.058884	-1.774646	-0.828036
H55	H	-0.025190	-1.885274	-0.730895
H56	H	-0.129660	-1.893155	-0.772916
H57	H	-0.043864	-1.924673	-0.844104
H58	H	-0.079916	-1.727701	-0.774946
H59	H	0.005890	-1.759209	-0.846117
O60	O	-0.588299	-0.802604	-0.640427
C61	C	-0.656025	-0.765962	-0.714049
H62	H	-0.712416	-0.829166	-0.728621
H63	H	-0.617854	-0.746586	-0.790740
C64	C	-0.636132	-0.589105	-0.653290
C65	C	-0.705398	-0.666730	-0.671180
H66	H	-0.666585	-0.527891	-0.626850
H67	H	-0.590501	-0.613789	-0.603692
H68	H	-0.604328	-0.572971	-0.717204
H69	H	-0.737192	-0.682872	-0.607265
H70	H	-0.751036	-0.642046	-0.720767
H71	H	-0.341002	-1.652964	-1.205769
O72	O	-0.342746	-1.127056	-0.374053
C73	C	-0.280516	-1.190577	-0.433982
H74	H	-0.274652	-1.157544	-0.516742
H75	H	-0.310332	-1.273729	-0.437539
C76	C	-0.187389	-1.232831	-0.281198
C77	C	-0.180180	-1.192254	-0.382843
H78	H	-0.125498	-1.233870	-0.249652
H79	H	-0.229317	-1.190039	-0.240821
H80	H	-0.212239	-1.302121	-0.284176
H81	H	-0.155342	-1.122960	-0.379862
H82	H	-0.138246	-1.235034	-0.423218
H83	H	-0.352581	-0.919317	-0.384465
H84	H	-0.341139	-1.652890	-0.807633
O85	O	-0.219341	-1.785318	-1.114937
C86	C	-0.157028	-1.725548	-1.178433
H87	H	-0.151075	-1.642795	-1.145364
H88	H	-0.186821	-1.721938	-1.261583
C89	C	-0.064067	-1.878558	-1.220758
C90	C	-0.056750	-1.776922	-1.180136
H91	H	-0.002212	-1.910249	-1.221813
H92	H	-0.106050	-1.918828	-1.177982
H93	H	-0.088898	-1.875536	-1.290046
H94	H	-0.031931	-1.779946	-1.110845
H95	H	-0.014760	-1.736653	-1.222900
H96	H	-0.576311	-1.396549	-1.106152
O97	O	-0.709882	-0.910912	-0.772653
C98	C	-0.688901	-0.937752	-0.877405
H99	H	-0.651812	-1.017424	-0.879649
H100	H	-0.639358	-0.876022	-0.912896
C101	C	-0.828561	-0.844976	-0.938103
C102	C	-0.783015	-0.942836	-0.940859
H103	H	-0.886614	-0.848108	-0.977246
H104	H	-0.842695	-0.826890	-0.867530
H105	H	-0.787266	-0.793545	-0.967677
H106	H	-0.824306	-0.994262	-0.911273
H107	H	-0.768891	-0.960931	-1.011428
O108	O	-0.586216	-1.386068	-0.898486
C109	C	-0.682344	-1.408995	-0.925286
H110	H	-0.687196	-1.492926	-0.955474
H111	H	-0.707553	-1.352663	-0.988947
C112	C	-0.740780	-1.293672	-0.790710
C113	C	-0.746742	-1.396761	-0.827779
H114	H	-0.780506	-1.286121	-0.730565
H115	H	-0.676018	-1.278222	-0.772656
H116	H	-0.761786	-1.246740	-0.843769
H117	H	-0.725725	-1.443689	-0.774724
H118	H	-0.811503	-1.412218	-0.845822
H119	H	-0.588141	-1.217981	-0.640258
