data_functionalizedCrystal
_audit_creation_method	'MofGen! by Chris Wilmer'
_symmetry_space_group_name_H-M	'P1'
_symmetry_Int_Tables_number	1
_symmetry_cell_setting	triclinic
loop_
_symmetry_equiv_pos_as_xyz
  x,y,z
_cell_length_a	18.101389
_cell_length_b	12.759401
_cell_length_c	12.759399
_cell_angle_alpha	90.016641
_cell_angle_beta	90.015375
_cell_angle_gamma	90.017197
loop_
_atom_site_label
_atom_site_type_symbol
_atom_site_fract_x
_atom_site_fract_y
_atom_site_fract_z
Zn1	Zn	-0.418714	-1.606224	0.418334
Zn2	Zn	-0.294879	-1.606126	0.594002
Zn3	Zn	-0.294890	-1.430535	0.418342
Zn4	Zn	-0.418683	-1.430514	0.593976
O5	O	-0.356791	-1.518350	0.506163
O6	O	-0.402295	-1.753232	0.441644
O7	O	-0.191247	-1.582801	0.570714
O8	O	-0.311333	-1.453890	0.271320
O9	O	-0.311314	-1.753160	0.570706
O10	O	-0.402306	-1.582969	0.271314
O11	O	-0.191256	-1.453795	0.441658
O12	O	-0.311303	-1.283511	0.441633
O13	O	-0.522320	-1.453855	0.570662
O14	O	-0.402253	-1.283496	0.570670
O15	O	-0.522342	-1.582949	0.441619
O16	O	-0.311284	-1.582780	0.741019
O17	O	-0.402242	-1.453759	0.741000
C18	C	-0.356777	-1.245382	0.506150
C19	C	-0.356788	-1.128606	0.506170
C20	C	-0.356774	-1.518285	0.779131
C21	C	-0.356792	-1.518354	0.895907
C22	C	-0.549953	-1.518410	0.506137
C23	C	-0.632267	-1.518436	0.506125
C24	C	-0.931358	-1.518497	0.505929
C25	C	-0.900019	-1.436995	0.586861
C26	C	-0.814401	-1.437216	0.587236
C27	C	-0.782976	-1.518466	0.506026
C28	C	-0.814073	-1.629167	0.536076
C29	C	-0.899718	-1.628713	0.536608
C30	C	-0.899781	-1.490261	0.394766
C31	C	-0.814130	-1.487798	0.395408
C32	C	-0.699116	-1.518455	0.506080
C33	C	-1.015218	-1.518516	0.505878
C34	C	-0.164381	-1.518350	0.506114
C35	C	-0.082067	-1.518527	0.505829
C36	C	-0.356806	-1.792383	0.506177
C37	C	-0.356813	-1.909160	0.506183
C38	C	-0.404071	-1.073763	0.573462
C39	C	-0.404086	-0.964039	0.573466
C40	C	-0.309528	-0.964010	0.438883
C41	C	-0.309517	-1.073732	0.438875
C42	C	-0.356824	-1.518443	0.232130
C43	C	-0.356838	-1.518483	0.115353
C44	C	-0.309484	-1.585612	0.950744
C45	C	-0.309509	-1.585679	1.060468
C46	C	-0.404152	-1.451222	1.060509
C47	C	-0.404130	-1.451160	0.950787
H48	H	-0.793375	-1.355128	0.568432
H49	H	-0.920049	-1.549623	0.334467
F50	F	-0.454488	-1.379576	0.892422
F51	F	-0.259193	-1.132103	0.367244
F52	F	-0.926927	-1.329372	0.562530
F53	F	-0.786179	-1.559732	0.312408
F54	F	-0.454528	-1.379712	1.118925
F55	F	-0.259159	-1.657267	1.118825
F56	F	-0.928199	-1.461073	0.693892
H57	H	-0.793920	-1.455860	0.669634
H58	H	-0.920451	-1.691498	0.480219
F59	F	-0.925841	-1.659994	0.642822
H60	H	-0.793719	-1.691524	0.478981
F61	F	-0.787572	-1.381311	0.365790
H62	H	-0.792632	-1.653514	0.616474
H63	H	-0.442589	-0.919391	0.628261
F64	F	-0.454382	-1.132161	0.645081
H65	H	-0.921373	-1.410940	0.367387
F66	F	-0.259221	-0.905600	0.367268
F67	F	-0.259103	-1.657127	0.892341
