data_functionalizedCrystal
_audit_creation_method	'MofGen! by Chris Wilmer'
_symmetry_space_group_name_H-M	'P1'
_symmetry_Int_Tables_number	1
_symmetry_cell_setting	triclinic
loop_
_symmetry_equiv_pos_as_xyz
  x,y,z
_cell_length_a	10.723024
_cell_length_b	19.188930
_cell_length_c	9.798715
_cell_angle_alpha	89.991738
_cell_angle_beta	89.996609
_cell_angle_gamma	83.806325
loop_
_atom_site_label
_atom_site_type_symbol
_atom_site_fract_x
_atom_site_fract_y
_atom_site_fract_z
O1	O	1.655155	0.097922	-0.113499
O2	O	1.291808	0.107295	-0.113506
O3	O	1.483967	0.001021	-0.113476
O4	O	1.462996	0.204196	-0.113529
O5	O	1.483952	0.001021	0.113507
O6	O	1.291793	0.107295	0.113477
O7	O	1.655140	0.097922	0.113483
Zn8	Zn	1.473465	0.102608	0.149518
Zn9	Zn	1.473483	0.102609	-0.149541
O10	O	1.462982	0.204196	0.113453
C11	C	1.245315	0.106613	-0.000015
C12	C	1.106803	0.104572	-0.000016
C13	C	1.030586	0.164037	-0.000033
C14	C	0.887427	0.161930	-0.000034
C15	C	1.483280	-0.024995	0.000019
C16	C	1.481242	-0.102512	0.000031
C17	C	1.593994	-0.146704	0.000040
C18	C	1.592079	-0.219540	0.000018
C19	C	1.477405	-0.248182	0.000015
C20	C	1.364638	-0.203981	-0.000001
C21	C	1.366556	-0.131146	0.000007
N22	N	1.389745	-0.356756	0.077260
N23	N	1.387931	-0.425947	0.077255
C24	C	1.471618	-0.467628	-0.000013
N25	N	1.557208	-0.437506	-0.077259
N26	N	1.559026	-0.368310	-0.077248
C27	C	1.475312	-0.327158	0.000005
C28	C	1.582302	-0.590797	-0.000030
C29	C	1.580382	-0.663634	-0.000061
C30	C	1.352937	-0.648073	-0.000066
C31	C	1.354860	-0.575238	-0.000049
C32	C	1.469546	-0.546604	-0.000025
C33	C	1.701633	0.098604	-0.000011
C34	C	1.840145	0.100645	-0.000019
C35	C	1.463668	0.230211	-0.000045
C36	C	1.465706	0.307729	-0.000066
N37	N	1.473461	0.102608	0.353618
N38	N	1.473497	0.102604	-0.353640
C39	C	1.554147	0.057789	0.421407
C40	C	1.554167	0.057787	0.578570
H41	H	0.821937	0.212836	-0.000054
H42	H	1.675686	-0.567482	-0.000017
H43	H	1.259567	-0.671393	-0.000075
H44	H	0.905627	0.049735	-0.000013
H45	H	1.066070	0.052101	-0.000037
O46	O	1.636422	0.011930	0.351883
C47	C	1.709665	-0.109140	0.307880
C48	C	1.616398	-0.057289	0.386691
H49	H	1.693526	-0.165114	0.336014
H50	H	1.694944	-0.101023	0.193513
H51	H	1.809645	-0.099660	0.335839
H52	H	1.516381	-0.066737	0.358846
H53	H	1.631228	-0.065418	0.501038
H54	H	1.263044	-0.539256	-0.000049
O55	O	1.636752	0.012076	0.648043
C56	C	1.853763	-0.028070	0.691925
C57	C	1.760373	0.023752	0.613186
H58	H	1.953730	-0.018658	0.663751
H59	H	1.839207	-0.019918	0.806303
H60	H	1.837478	-0.084038	0.663942
H61	H	1.776602	0.079740	0.641054
H62	H	1.774952	0.015539	0.498827
O63	O	1.705506	-0.119005	-0.000006
C64	C	1.930892	-0.142129	0.000097
C65	C	1.804696	-0.173592	0.000117
H66	H	2.011120	-0.186247	0.000226
H67	H	1.937576	-0.108436	-0.094913
H68	H	1.937398	-0.108404	0.095070
H69	H	1.798105	-0.207349	-0.094792
H70	H	1.798066	-0.207245	0.095190
O71	O	1.391031	0.148452	0.577043
C72	C	1.222553	0.241986	0.591822
C73	C	1.315895	0.190112	0.670505
H74	H	1.161763	0.275672	0.667351
H75	H	1.276406	0.277063	0.524943
H76	H	1.160325	0.211585	0.524906
H77	H	1.378145	0.220456	0.737496
H78	H	1.261964	0.155035	0.737298
H79	H	1.404392	0.140974	0.411931
H80	H	1.683899	-0.255527	0.000019
H81	H	1.271269	-0.227305	-0.000007
O82	O	1.079022	0.226680	-0.000230
C83	C	1.093160	0.335826	-0.117892
C84	C	1.038204	0.264913	-0.117823
H85	H	1.060202	0.366751	-0.212971
H86	H	1.060091	0.366848	-0.022974
H87	H	1.199960	0.326354	-0.117820
H88	H	0.931403	0.274322	-0.117944
H89	H	1.071371	0.233914	-0.212733
H90	H	1.274736	-0.095165	0.000000
H91	H	1.672202	-0.699615	-0.000061
