data_functionalizedCrystal
_audit_creation_method	'MofGen! by Chris Wilmer'
_symmetry_space_group_name_H-M	'P1'
_symmetry_Int_Tables_number	1
_symmetry_cell_setting	triclinic
loop_
_symmetry_equiv_pos_as_xyz
  x,y,z
_cell_length_a	10.489741
_cell_length_b	19.288864
_cell_length_c	17.766277
_cell_angle_alpha	89.976755
_cell_angle_beta	90.004879
_cell_angle_gamma	96.162290
loop_
_atom_site_label
_atom_site_type_symbol
_atom_site_fract_x
_atom_site_fract_y
_atom_site_fract_z
O1	O	0.159108	-0.922420	0.062835
O2	O	0.659108	-0.422420	0.562835
O3	O	0.180571	-0.720303	0.062784
O4	O	0.680571	-0.220303	0.562784
O5	O	-0.015862	-0.825961	0.062806
O6	O	0.484138	-0.325961	0.562806
O7	O	0.355541	-0.816763	0.062813
O8	O	0.855541	-0.316763	0.562813
O9	O	-0.015868	-0.825942	-0.062382
O10	O	0.484132	-0.325942	0.437618
O11	O	0.180566	-0.720284	-0.062405
O12	O	0.680566	-0.220284	0.437595
O13	O	0.159102	-0.922401	-0.062353
O14	O	0.659102	-0.422401	0.437647
Cu15	Cu	0.169833	-0.821341	-0.073810
Cu16	Cu	0.669833	-0.321341	0.426190
Cu17	Cu	0.169840	-0.821364	0.074240
Cu18	Cu	0.669840	-0.321364	0.574240
O19	O	0.355536	-0.816744	-0.062375
O20	O	0.855536	-0.316744	0.437625
C21	C	-0.063381	-0.825257	0.000212
C22	C	0.436619	-0.325257	0.500212
C23	C	-0.204964	-0.823178	0.000213
C24	C	0.295036	-0.323178	0.500213
C25	C	0.179878	-0.694413	0.000183
C26	C	0.679878	-0.194413	0.500183
C27	C	0.177805	-0.617295	0.000163
C28	C	0.677805	-0.117295	0.500163
C29	C	0.159796	-0.948292	0.000249
C30	C	0.659796	-0.448292	0.500249
C31	C	0.161869	-1.025409	0.000274
C32	C	0.661869	-0.525409	0.500274
C33	C	-0.271583	-0.755951	0.000202
C34	C	0.228417	-0.255951	0.500202
C35	C	-0.364427	-0.787699	-0.061515
C36	C	0.135573	-0.287699	0.438485
C37	C	-0.364396	-0.787734	0.061911
C38	C	0.135604	-0.287734	0.561911
C39	C	-0.295942	-0.854954	-0.061554
C40	C	0.204058	-0.354954	0.438446
C41	C	-0.295902	-0.854979	0.061927
C42	C	0.204098	-0.354979	0.561927
C43	C	-0.388719	-0.886776	0.000196
C44	C	0.111281	-0.386776	0.500196
C45	C	0.403055	-0.817448	0.000220
C46	C	0.903055	-0.317448	0.500220
C47	C	0.544637	-0.819526	0.000224
C48	C	1.044637	-0.319526	0.500224
N49	N	0.169828	-0.821330	-0.177940
N50	N	0.669828	-0.321330	0.322060
C51	C	0.293063	-0.573372	0.000177
C52	C	0.793063	-0.073372	0.500177
C53	C	0.291115	-0.500912	0.000186
C54	C	0.791115	-0.000912	0.500186
C55	C	0.173903	-0.472378	0.000195
C56	C	0.673903	0.027622	0.500195
C57	C	0.058629	-0.516311	0.000177
C58	C	0.558629	-0.016311	0.500177
C59	C	0.060580	-0.588770	0.000161
C60	C	0.560580	-0.088770	0.500161
C61	C	0.081763	-0.363505	0.044078
C62	C	0.581763	0.136495	0.544078
C63	C	0.079816	-0.291048	0.044098
C64	C	0.579816	0.208952	0.544098
C65	C	0.167880	-0.248892	0.000240
C66	C	0.667880	0.251108	0.500240
C67	C	0.257912	-0.279202	-0.043628
C68	C	0.757912	0.220798	0.456372
C69	C	0.259863	-0.351661	-0.043644
C70	C	0.759863	0.148339	0.456356
C71	C	0.171774	-0.393810	0.000212
C72	C	0.671774	0.106190	0.500212
C73	C	0.281035	-0.126399	0.000262
C74	C	0.781035	0.373601	0.500262
C75	C	0.279082	-0.053938	0.000266
C76	C	0.779082	0.446062	0.500266
C77	C	0.046593	-0.069339	0.000265
C78	C	0.546593	0.430661	0.500265
C79	C	0.048549	-0.141798	0.000254
C80	C	0.548549	0.358202	0.500254
C81	C	0.165773	-0.170324	0.000256
C82	C	0.665773	0.329676	0.500256
C83	C	0.246995	-0.863835	-0.217308
C84	C	0.746995	-0.363835	0.282692
C85	C	0.246991	-0.863846	-0.296109
C86	C	0.746991	-0.363846	0.203891
C87	C	0.169835	-0.821339	-0.335540
C88	C	0.669835	-0.321339	0.164460
C89	C	0.092653	-0.778832	-0.296163
C90	C	0.592653	-0.278832	0.203837
C91	C	0.092649	-0.778827	-0.217363
C92	C	0.592649	-0.278827	0.282637
C93	C	0.166609	-0.758705	-0.460416
C94	C	0.666609	-0.258705	0.039584
C95	C	0.166622	-0.758708	-0.539215
C96	C	0.666622	-0.258708	-0.039215
C97	C	0.169839	-0.821354	-0.578587
C98	C	0.669839	-0.321354	-0.078587
C99	C	0.173070	-0.883997	-0.539150
C100	C	0.673070	-0.383997	-0.039150
C101	C	0.173067	-0.883993	-0.460350
C102	C	0.673067	-0.383993	0.039650
C103	C	0.169830	-0.821340	-0.420986
C104	C	0.669830	-0.321340	0.079014
C105	C	0.247006	-0.863874	-0.703400
C106	C	0.747006	-0.363874	-0.203400
C107	C	0.246993	-0.863886	-0.782204
C108	C	0.746993	-0.363886	-0.282204
C109	C	0.092663	-0.778865	-0.782256
C110	C	0.592663	-0.278865	-0.282256
C111	C	0.092668	-0.778860	-0.703454
C112	C	0.592668	-0.278860	-0.203454
C113	C	0.169847	-0.821363	-0.664031
C114	C	0.669847	-0.321363	-0.164031
N115	N	0.169835	-0.821380	0.178371
N116	N	0.669835	-0.321380	0.678371
H117	H	-0.220682	-0.700678	0.000125
H118	H	0.279318	-0.200678	0.500125
Cl119	Cl	-0.466964	-0.972189	0.000168
Cl120	Cl	0.033036	-0.472189	0.500168
Cl121	Cl	0.177126	-0.962740	-0.410775
Cl122	Cl	0.677126	-0.462740	0.089225
H123	H	-0.394797	-0.759246	-0.113706
H124	H	0.105203	-0.259246	0.386294
H125	H	0.163998	-0.707687	-0.428366
H126	H	0.663998	-0.207687	0.071634
H127	H	0.175697	-0.935009	-0.571205
H128	H	0.675697	-0.435009	-0.071205
Cl129	Cl	-0.004361	-0.725383	-0.167869
Cl130	Cl	0.495639	-0.225383	0.332131
Cl131	Cl	0.440431	-0.609229	0.000177
Cl132	Cl	0.940431	-0.109229	0.500177
H133	H	-0.045307	-0.177562	0.000246
H134	H	0.454693	0.322438	0.500246
H135	H	0.006512	-0.266375	0.079822
H136	H	0.506512	0.233625	0.579822
H137	H	0.029840	-0.744256	-0.814360
H138	H	0.529840	-0.244256	-0.314360
H139	H	0.029831	-0.744223	-0.328273
H140	H	0.529831	-0.244223	0.171727
Cl141	Cl	0.423993	0.001282	0.000280
Cl142	Cl	0.923993	0.501282	0.500280
H143	H	0.384976	-0.465143	0.000195
H144	H	0.884976	0.034857	0.500195
H145	H	0.163998	-0.707700	-0.571318
H146	H	0.663998	-0.207700	-0.071318
H147	H	0.333166	-0.376336	-0.079366
H148	H	0.833166	0.123664	0.420634
H149	H	0.309849	-0.898483	-0.671301
H150	H	0.809849	-0.398483	-0.171301
H151	H	-0.394714	-0.759288	0.114092
H152	H	0.105286	-0.259288	0.614092
H153	H	-0.265755	-0.883366	-0.113789
H154	H	0.234245	-0.383366	0.386211
Cl155	Cl	0.344044	-0.917254	-0.167751
Cl156	Cl	0.844044	-0.417254	0.332249
Cl157	Cl	-0.028958	-0.416493	0.099219
Cl158	Cl	0.471042	0.083507	0.599219
H159	H	0.309828	-0.898504	-0.814256
H160	H	0.809828	-0.398504	-0.314256
H161	H	-0.265498	-0.883408	0.114121
H162	H	0.234502	-0.383408	0.614121
Cl163	Cl	0.368630	-0.226215	-0.098767
Cl164	Cl	0.868630	0.273785	0.401233
Cl165	Cl	0.344007	-0.917285	-0.345611
Cl166	Cl	0.844007	-0.417285	0.154389
Cl167	Cl	0.428399	-0.162263	0.000258
Cl168	Cl	0.928399	0.337737	0.500258
H169	H	-0.048844	-0.046108	0.000319
H170	H	0.451156	0.453892	0.500319
H171	H	-0.036806	-0.493075	0.000195
H172	H	0.463194	0.006925	0.500195
Cl173	Cl	-0.084328	-0.643991	0.000144
Cl174	Cl	0.415672	-0.143991	0.500144
Cl175	Cl	-0.004322	-0.725408	-0.653960
Cl176	Cl	0.495678	-0.225408	-0.153960
