data_functionalizedCrystal
_audit_creation_method	'MofGen! by Chris Wilmer'
_symmetry_space_group_name_H-M	'P1'
_symmetry_Int_Tables_number	1
_symmetry_cell_setting	triclinic
loop_
_symmetry_equiv_pos_as_xyz
  x,y,z
_cell_length_a	16.992694
_cell_length_b	15.995350
_cell_length_c	15.455313
_cell_angle_alpha	92.667328
_cell_angle_beta	87.142206
_cell_angle_gamma	87.080299
loop_
_atom_site_label
_atom_site_type_symbol
_atom_site_fract_x
_atom_site_fract_y
_atom_site_fract_z
O1	O	1.043823	0.174116	-0.072015
O2	O	0.815539	0.172167	-0.072041
O3	O	0.935921	0.051671	-0.072026
O4	O	0.923440	0.294611	-0.072029
O5	O	0.929037	0.058531	0.072235
O6	O	0.808655	0.179027	0.072221
O7	O	1.036939	0.180976	0.072246
Cu8	Cu	0.922168	0.180628	0.085406
Cu9	Cu	0.930309	0.172515	-0.085200
O10	O	0.916556	0.301471	0.072232
C11	C	0.782884	0.173091	0.000087
C12	C	0.695840	0.165614	0.000077
C13	C	0.645600	0.237750	0.000077
C14	C	0.563813	0.230720	0.000089
C15	C	0.532268	0.151555	0.000095
C16	C	0.582515	0.079414	0.000098
C17	C	0.664300	0.086445	0.000092
C18	C	0.288669	0.122418	0.000118
C19	C	0.206878	0.115393	0.000122
C20	C	0.188181	0.266700	0.000114
C21	C	0.269969	0.273723	0.000103
C22	C	0.320208	0.201582	0.000111
N23	N	0.448669	0.144368	0.000104
N24	N	0.403806	0.208770	0.000107
C25	C	0.931963	0.023872	0.000103
C26	C	0.930416	-0.069182	0.000098
C27	C	0.924861	-0.407301	0.000100
C28	C	0.839142	-0.365620	-0.000233
C29	C	0.840674	-0.268811	0.000092
C30	C	0.927617	-0.239556	0.000098
C31	C	0.965973	-0.273887	0.082482
C32	C	0.963816	-0.370663	0.082550
C33	C	0.973415	-0.378704	-0.081501
C34	C	0.973447	-0.281812	-0.082590
C35	C	0.929178	-0.144754	0.000100
C36	C	0.923301	-0.502103	0.000104
C37	C	1.069593	0.180052	0.000117
C38	C	1.156637	0.187528	0.000121
C39	C	0.920514	0.329271	0.000101
C40	C	0.922061	0.422324	0.000101
N41	N	0.916448	0.186334	0.205401
N42	N	0.936036	0.166802	-0.205195
C43	C	0.967608	0.135164	0.250801
C44	C	0.963289	0.139488	0.341608
C45	C	0.907813	0.194986	0.387014
C46	C	0.856647	0.246157	0.341607
C47	C	0.860963	0.241829	0.250801
C48	C	0.889185	0.213646	0.658593
C49	C	0.884875	0.217972	0.749405
C50	C	0.991517	0.111301	0.749400
C51	C	0.995831	0.106981	0.658592
C52	C	0.944662	0.158150	0.613194
N53	N	0.903399	0.199408	0.479833
N54	N	0.949073	0.153722	0.520376
H55	H	0.522910	0.289461	0.000087
H56	H	0.147268	0.325432	0.000110
H57	H	0.181198	0.050923	0.000126
N58	N	0.796817	0.306021	0.390578
H59	H	0.765062	0.337779	0.348036
H60	H	0.760366	0.273423	0.428266
N61	N	0.792621	-0.231130	0.078447
H62	H	0.747921	-0.193671	0.058945
H63	H	0.770416	-0.277465	0.112878
H64	H	0.847523	0.255311	0.621636
N65	N	1.027439	0.075308	0.201820
H66	H	1.082337	0.089457	0.217610
H67	H	1.017589	0.016048	0.217648
H68	H	0.671277	0.302214	0.000071
N69	N	1.057747	-0.256164	-0.089173
H70	H	1.094753	-0.307551	-0.088437
H71	H	1.067431	-0.227127	-0.145068
H72	H	1.004948	0.097821	0.378573
N73	N	0.303979	0.359114	0.000087
H74	H	0.283115	0.393513	0.053562
H75	H	0.363410	0.352558	0.000045
H76	H	0.556824	0.014957	0.000115
H77	H	0.329565	0.063675	0.000125
N78	N	0.718492	0.008643	0.000098
H79	H	0.686100	-0.042576	0.000103
H80	H	0.755379	0.005717	-0.053381
N81	N	0.800376	-0.237820	-0.078130
H82	H	0.781454	-0.287069	-0.113134
H83	H	0.753839	-0.198575	-0.058390
H84	H	1.036653	-0.406261	-0.082051
H85	H	0.807694	-0.389254	-0.059312
H86	H	1.026582	-0.398522	0.086293
N87	N	0.825030	0.277833	0.798369
H88	H	0.788530	0.245287	0.836057
H89	H	0.853256	0.318718	0.835981
H90	H	0.802224	-0.384703	0.058509
N91	N	1.055672	0.047126	0.609627
H92	H	1.092175	0.079681	0.571950
H93	H	1.087370	0.015385	0.652228
H94	H	1.033175	0.069641	0.786372
N95	N	0.805780	0.297013	0.201829
H96	H	0.769981	0.332829	0.244371
H97	H	0.837581	0.334262	0.164141
H98	H	1.029701	-0.255341	0.085550
N99	N	0.919079	-0.393769	0.164115
H100	H	0.900942	-0.341117	0.199686
H101	H	0.871719	-0.425705	0.148078
H102	H	0.933677	-0.244555	0.143784
N103	N	0.940240	-0.412328	-0.164216
H104	H	0.893395	-0.446445	-0.149626
H105	H	0.923058	-0.364036	-0.199965
H106	H	0.945437	-0.259530	-0.143535
