data_functionalizedCrystal
_audit_creation_method	'MofGen! by Chris Wilmer'
_symmetry_space_group_name_H-M	'P1'
_symmetry_Int_Tables_number	1
_symmetry_cell_setting	triclinic
loop_
_symmetry_equiv_pos_as_xyz
  x,y,z
_cell_length_a	15.944499
_cell_length_b	27.731993
_cell_length_c	14.421503
_cell_angle_alpha	90.003189
_cell_angle_beta	90.008445
_cell_angle_gamma	83.049000
loop_
_atom_site_label
_atom_site_type_symbol
_atom_site_fract_x
_atom_site_fract_y
_atom_site_fract_z
O1	O	0.099716	0.641369	-0.076856
O2	O	0.114961	0.500636	-0.076912
O3	O	-0.014991	0.574859	-0.076884
O4	O	0.229668	0.567147	-0.076884
O5	O	-0.014969	0.574845	0.077339
O6	O	0.114983	0.500623	0.077312
O7	O	0.099738	0.641356	0.077367
Cu8	Cu	0.107362	0.570988	0.091421
Cu9	Cu	0.107336	0.571004	-0.090966
O10	O	0.229690	0.567133	0.077339
C11	C	0.114659	0.482621	0.000193
C12	C	0.113717	0.428961	0.000171
C13	C	0.106874	0.045779	-0.083851
C14	C	0.110466	0.247452	-0.083876
O15	O	0.110887	0.273533	-0.155374
N16	N	0.110928	0.272666	0.000189
C17	C	0.110485	0.247460	0.084267
O18	O	0.110951	0.273535	0.155769
C19	C	0.106887	0.045789	0.084291
C20	C	0.106435	0.020576	0.000220
C21	C	0.106421	0.020566	-0.167915
C22	C	0.105527	-0.029849	-0.167908
C23	C	0.105088	-0.055052	-0.083837
C24	C	0.105541	-0.029839	0.000227
C25	C	0.106439	0.020584	0.168367
C26	C	0.105538	-0.029836	0.168366
C27	C	0.105085	-0.055049	0.084295
C28	C	0.104209	-0.105457	0.084305
N29	N	0.103747	-0.130672	0.000240
C30	C	0.104187	-0.105469	-0.083831
C31	C	0.112376	0.353340	0.084248
C32	C	0.113277	0.403758	0.084242
C33	C	0.113256	0.403746	-0.083901
C34	C	0.112361	0.353327	-0.083894
C35	C	0.111915	0.328126	0.000183
C36	C	0.102312	-0.211346	-0.083810
C37	C	0.101422	-0.261766	-0.083795
C38	C	0.101438	-0.261749	0.084348
C39	C	0.102332	-0.211333	0.084334
C40	C	0.102766	-0.186133	0.000247
O41	O	0.103778	-0.131569	0.155766
O42	O	0.103702	-0.131551	-0.155322
C43	C	0.107768	0.096195	-0.083858
C44	C	0.108221	0.121407	0.000206
C45	C	0.107782	0.096205	0.084277
C46	C	0.109122	0.171825	0.000200
C47	C	0.109562	0.197027	-0.083871
C48	C	0.109101	0.171813	-0.167936
C49	C	0.108207	0.121397	-0.167929
C50	C	0.108243	0.121419	0.168342
C51	C	0.109137	0.171835	0.168328
C52	C	0.109577	0.197037	0.084257
C53	C	-0.046271	0.574536	0.000225
C54	C	-0.139506	0.573590	0.000218
C55	C	-0.431621	0.616711	0.000240
C56	C	-0.370284	0.594289	0.076275
C57	C	-0.475097	0.570151	0.000227
C58	C	-0.370312	0.594290	-0.075778
C59	C	-0.310211	0.571843	0.000221
C60	C	-0.414988	0.547715	0.076325
C61	C	-0.415022	0.547723	-0.075796
C62	C	-0.353702	0.525267	0.000257
C63	C	-0.570084	0.569177	0.000232
C64	C	-0.215225	0.572813	0.000223
C65	C	0.260969	0.567456	0.000228
C66	C	0.354205	0.568402	0.000230
C67	C	0.100040	0.659371	0.000261
C68	C	0.100982	0.713032	0.000276
N69	N	0.107380	0.570980	0.219703
C70	C	0.167447	0.536652	0.469343
C71	C	0.183170	0.580328	0.531164
C72	C	0.107363	0.570991	0.408864
C73	C	0.091662	0.527324	0.531138
C74	C	0.107348	0.570996	0.591585
C75	C	0.123123	0.614689	0.469323
C76	C	0.031583	0.561656	0.469292
C77	C	0.047273	0.605364	0.531084
C78	C	0.107373	0.570986	0.303603
C79	C	0.107337	0.571006	0.696844
N80	N	0.107328	0.571007	0.780753
H81	H	0.111993	0.332802	-0.152352
H82	H	-0.465469	0.655352	0.000328
H83	H	-0.434879	0.528051	-0.140094
C84	C	0.113778	0.431486	0.176724
C85	C	0.186621	0.419053	0.246092
C86	C	0.187112	0.446780	0.338578
C87	C	0.114761	0.486939	0.361696
C88	C	0.041912	0.499374	0.292326
C89	C	0.041421	0.471648	0.199840
H90	H	0.240184	0.389323	0.228980
H91	H	0.241040	0.437574	0.389930
H92	H	0.115124	0.507463	0.430160
H93	H	-0.011652	0.529104	0.309438
H94	H	-0.012507	0.480853	0.148488
H95	H	0.112010	0.332826	0.152718
H96	H	-0.350449	0.613977	0.140570
C97	C	0.106907	0.048283	-0.260404
C98	C	0.034559	0.088441	-0.283556
C99	C	0.035052	0.116152	-0.376053
C100	C	0.107892	0.103705	-0.445397
C101	C	0.180245	0.063544	-0.422247
C102	C	0.179753	0.035833	-0.329750
H103	H	-0.019367	0.097657	-0.232221
H104	H	-0.018509	0.145881	-0.393189
H105	H	0.108257	0.124218	-0.513869
H106	H	0.234171	0.054329	-0.473582
H107	H	0.233313	0.006104	-0.312614
C108	C	0.109583	0.199542	-0.260416
C109	C	0.037225	0.239701	-0.283529
C110	C	0.037702	0.267434	-0.376003
C111	C	0.110536	0.255008	-0.445364
C112	C	0.182899	0.214847	-0.422252
C113	C	0.182422	0.187114	-0.329778
H114	H	-0.016696	0.248902	-0.232183
H115	H	-0.015866	0.297164	-0.393111
H116	H	0.110889	0.275537	-0.513818
H117	H	0.236820	0.205646	-0.473598
H118	H	0.235990	0.157384	-0.312670
H119	H	0.247248	0.588229	0.558340
C120	C	0.105051	-0.057558	0.260854
C121	C	0.178148	-0.056118	0.330213
C122	C	0.177665	-0.083839	0.422699
C123	C	0.104085	-0.112999	0.445827
C124	C	0.030982	-0.114440	0.376467
C125	C	0.031466	-0.086720	0.283981
H126	H	0.232621	-0.034531	0.313093
H127	H	0.231780	-0.082772	0.474044
H128	H	0.103727	-0.133520	0.514291
H129	H	-0.023491	-0.136028	0.393587
H130	H	-0.022650	-0.087786	0.232636
C131	C	-0.308166	0.473023	0.000292
C132	C	-0.248704	0.455422	-0.080157
C133	C	-0.203167	0.403179	-0.080118
C134	C	-0.217090	0.368537	0.000369
C135	C	-0.276555	0.386137	0.080823
C136	C	-0.322092	0.438380	0.080785
H137	H	-0.238395	0.481067	-0.139743
H138	H	-0.159147	0.390151	-0.139676
H139	H	-0.183381	0.329863	0.000398
H140	H	-0.286864	0.360492	0.140410
H141	H	-0.366112	0.451408	0.140343
H142	H	0.113617	0.424274	-0.152355
C143	C	-0.054953	0.550965	0.432538
C144	C	-0.088209	0.502653	0.456874
C145	C	-0.174744	0.491955	0.420117
C146	C	-0.228025	0.529569	0.359026
C147	C	-0.194770	0.577884	0.334687
C148	C	-0.108234	0.588582	0.371444
H149	H	-0.048767	0.474806	0.502100
H150	H	-0.199361	0.456189	0.438135
H151	H	-0.292083	0.521650	0.331817
H152	H	-0.234212	0.605731	0.289461
H153	H	-0.083618	0.624348	0.353426
H154	H	0.218297	0.507643	0.442235
C155	C	0.107765	0.093702	0.260829
C156	C	0.180124	0.053547	0.283963
C157	C	0.179652	0.025832	0.376457
C158	C	0.106822	0.038272	0.445817
C159	C	0.034458	0.078429	0.422685
C160	C	0.034930	0.106144	0.330190
H161	H	0.234042	0.044337	0.232617
H162	H	0.233222	-0.003894	0.393581
H163	H	0.106473	0.017756	0.514287
H164	H	-0.019460	0.087639	0.474031
H165	H	-0.018639	0.135870	0.313067
C166	C	-0.441605	0.521128	0.163262
C167	C	-0.535331	0.515322	0.179350
C168	C	-0.561951	0.488738	0.266287
C169	C	-0.494844	0.467958	0.337135
C170	C	-0.401112	0.473763	0.321049
C171	C	-0.374492	0.500348	0.234112
H172	H	-0.585013	0.530705	0.126903
H173	H	-0.631338	0.484440	0.278195
H174	H	-0.514549	0.448278	0.401491
H175	H	-0.351430	0.458381	0.373497
H176	H	-0.305105	0.504645	0.222204
C177	C	0.073722	0.477435	0.567818
C178	C	0.133895	0.431494	0.543445
C179	C	0.115963	0.381605	0.580122
C180	C	0.037859	0.377655	0.641173
C181	C	-0.022319	0.423598	0.665550
C182	C	-0.004387	0.473488	0.628872
H183	H	0.191717	0.434417	0.498249
H184	H	0.160511	0.347595	0.562077
H185	H	0.024585	0.340724	0.668324
H186	H	-0.080142	0.420676	0.710746
H187	H	-0.048936	0.507497	0.646918
H188	H	0.101056	-0.282292	-0.152259
H189	H	0.106805	0.041104	0.236827
C190	C	0.141164	0.664590	0.432803
C191	C	0.224547	0.684219	0.458042
C192	C	0.242593	0.734118	0.421519
C193	C	0.177257	0.764387	0.359757
C194	C	0.093868	0.744758	0.334515
C195	C	0.075822	0.694859	0.371038
H196	H	0.272918	0.661812	0.503765
H197	H	0.304323	0.748649	0.440205
H198	H	0.190615	0.801325	0.332721
H199	H	0.045497	0.767165	0.288793
H200	H	0.014092	0.680329	0.352352
C201	C	-0.343592	0.620900	-0.162641
C202	C	-0.378584	0.674417	-0.179324
C203	C	-0.351886	0.701028	-0.266194
C204	C	-0.290196	0.674121	-0.336381
C205	C	-0.255200	0.620601	-0.319700
C206	C	-0.281898	0.593991	-0.232830
H207	H	-0.424254	0.694338	-0.127365
H208	H	-0.377793	0.740647	-0.278542
H209	H	-0.270433	0.693820	-0.400688
H210	H	-0.209530	0.600681	-0.371659
H211	H	-0.255992	0.554372	-0.220482
C212	C	-0.021383	0.644637	0.567487
C213	C	-0.017890	0.698387	0.542853
C214	C	-0.086542	0.737661	0.579257
C215	C	-0.158687	0.723185	0.640296
C216	C	-0.162183	0.669432	0.664933
C217	C	-0.093531	0.630158	0.628529
H218	H	0.035519	0.709106	0.497665
H219	H	-0.083953	0.777453	0.561019
H220	H	-0.209507	0.752258	0.667245
H221	H	-0.215591	0.658713	0.710120
H222	H	-0.096119	0.590366	0.646767
H223	H	0.105155	-0.050373	-0.236367
C224	C	0.102796	-0.183630	-0.176303
C225	C	0.029704	-0.185074	-0.245667
C226	C	0.030195	-0.157358	-0.338159
C227	C	0.103778	-0.128200	-0.361287
C228	C	0.176875	-0.126755	-0.291922
C229	C	0.176384	-0.154470	-0.199429
H230	H	-0.024771	-0.206660	-0.228548
H231	H	-0.023916	-0.158428	-0.389508
H232	H	0.104141	-0.107683	-0.429756
H233	H	0.231350	-0.105169	-0.309041
H234	H	0.230495	-0.153400	-0.148080
H235	H	0.102718	-0.190805	0.152791
H236	H	0.107839	0.100873	-0.236388
H237	H	0.109513	0.192358	0.236794
H238	H	0.101083	-0.282278	0.152796
