data_functionalizedCrystal
_audit_creation_method	'MofGen! by Chris Wilmer'
_symmetry_space_group_name_H-M	'P1'
_symmetry_Int_Tables_number	1
_symmetry_cell_setting	triclinic
loop_
_symmetry_equiv_pos_as_xyz
  x,y,z
_cell_length_a	23.532407
_cell_length_b	15.186229
_cell_length_c	16.109301
_cell_angle_alpha	89.994833
_cell_angle_beta	83.155079
_cell_angle_gamma	90.001988
loop_
_atom_site_label
_atom_site_type_symbol
_atom_site_fract_x
_atom_site_fract_y
_atom_site_fract_z
O1	O	0.755631	-0.073122	0.100924
O2	O	0.589822	-0.073148	0.115528
O3	O	0.677281	-0.073125	-0.012841
O4	O	0.668171	-0.073144	0.229293
O5	O	0.677275	0.073332	-0.012843
O6	O	0.589816	0.073310	0.115526
O7	O	0.755625	0.073336	0.100923
Zn8	Zn	0.672720	0.096576	0.108224
Zn9	Zn	0.672727	-0.096388	0.108226
O10	O	0.668165	0.073313	0.229291
C11	C	0.568601	0.000078	0.115155
C12	C	0.505380	0.000068	0.114037
N13	N	0.672718	0.228269	0.108222
N14	N	0.672733	-0.228081	0.108222
C15	C	0.106531	0.000102	0.182990
C16	C	0.047127	0.000108	0.181951
O17	O	0.010619	0.000135	0.245872
N18	N	0.024220	0.000112	0.105636
C19	C	0.060719	0.000121	0.030355
O20	O	0.035780	0.000126	-0.034652
C21	C	0.120122	0.000121	0.031395
C22	C	0.143027	0.000108	0.107715
C23	C	0.129436	0.000090	0.259304
C24	C	0.188836	0.000083	0.260342
C25	C	0.225331	0.000088	0.185066
C26	C	0.202427	0.000101	0.108753
C27	C	0.156621	0.000136	-0.043886
C28	C	0.216027	0.000137	-0.042840
C29	C	0.238932	0.000124	0.033480
C30	C	0.298322	0.000099	0.034516
N31	N	0.321229	0.000094	0.110831
C32	C	0.284734	0.000089	0.186106
C33	C	-0.064031	0.000120	0.028178
C34	C	-0.123433	0.000113	0.027138
C35	C	-0.137021	0.000102	0.178734
C36	C	-0.077618	0.000103	0.179774
C37	C	-0.041123	0.000116	0.104493
C38	C	0.409479	0.000073	0.188281
C39	C	0.468885	0.000062	0.189312
C40	C	0.482468	0.000078	0.037716
C41	C	0.423067	0.000084	0.036684
C42	C	0.386574	0.000085	0.111973
O43	O	0.334865	0.000076	-0.029371
O44	O	0.309682	0.000095	0.251102
C45	C	0.776846	0.000108	0.101295
C46	C	0.840067	0.000112	0.102414
C47	C	0.676909	0.000104	-0.043814
C48	C	0.675803	0.000105	-0.136100
C49	C	0.711459	0.454002	0.051399
C50	C	0.711461	0.546191	0.051397
C51	C	0.633988	0.546180	0.165047
C52	C	0.633984	0.453992	0.165044
C53	C	0.672723	0.407905	0.108222
C54	C	0.672729	0.592283	0.108222
C55	C	0.672730	0.692239	0.108220
C56	C	0.672720	0.307943	0.108222
C57	C	0.725127	0.000099	-0.358760
C58	C	0.724083	0.000092	-0.445473
C59	C	0.620315	0.000079	-0.424782
C60	C	0.621360	0.000080	-0.338072
C61	C	0.673768	0.000094	-0.305063
C62	C	0.671679	0.000086	-0.478486
C63	C	0.670547	0.000078	-0.572503
C64	C	0.674900	0.000101	-0.211040
C65	C	0.668537	0.000082	0.260264
C66	C	0.669644	0.000075	0.352551
H67	H	0.379772	0.000076	0.249588
O68	O	0.753240	0.595913	-0.009888
H69	H	0.780906	0.637916	0.024909
H70	H	0.602438	0.416458	0.211316
O71	O	0.753230	0.404303	-0.009908
H72	H	0.729255	0.362313	-0.050131
O73	O	0.779478	0.000108	-0.503392
H74	H	0.816093	0.000127	-0.465868
O75	O	-0.024673	0.000121	-0.053026
H76	H	0.002714	0.059819	-0.056191
H77	H	0.579534	0.000073	-0.294349
O78	O	-0.176389	0.000111	0.259929
H79	H	-0.221542	0.000125	0.246378
O80	O	0.493590	0.000062	0.271631
H81	H	0.458229	0.000073	0.323798
H82	H	0.602449	0.583713	0.211312
H83	H	0.577647	0.000068	-0.451669
O84	O	0.781649	0.000097	-0.323154
H85	H	0.817187	0.000087	-0.375064
H86	H	0.099727	0.000088	0.320606
H87	H	-0.058974	0.000097	0.241920
O88	O	0.213537	0.000094	0.342658
H89	H	0.178173	0.000106	0.394820
H90	H	0.137983	0.000148	-0.106033
O91	O	-0.148135	0.000126	-0.055178
H92	H	-0.112772	0.000137	-0.107342
H93	H	0.404418	0.000083	-0.025462
O94	O	0.255391	0.000147	-0.124037
H95	H	0.229480	0.000151	-0.177275
O96	O	0.521835	0.000097	-0.043473
H97	H	0.566988	0.000104	-0.029921
