data_functionalizedCrystal
_audit_creation_method	'MofGen! by Chris Wilmer'
_symmetry_space_group_name_H-M	'P1'
_symmetry_Int_Tables_number	1
_symmetry_cell_setting	triclinic
loop_
_symmetry_equiv_pos_as_xyz
  x,y,z
_cell_length_a	15.944556
_cell_length_b	15.944480
_cell_length_c	18.266242
_cell_angle_alpha	89.991883
_cell_angle_beta	89.982030
_cell_angle_gamma	83.485608
loop_
_atom_site_label
_atom_site_type_symbol
_atom_site_fract_x
_atom_site_fract_y
_atom_site_fract_z
O1	O	-0.108050	-1.114569	0.060884
O2	O	0.391950	-0.614569	0.560884
O3	O	-0.121468	-0.870012	0.060892
O4	O	0.378532	-0.370012	0.560892
O5	O	0.007517	-0.998966	0.060861
O6	O	0.507517	-0.498966	0.560861
O7	O	-0.237036	-0.985615	0.060915
O8	O	0.262964	-0.485615	0.560915
O9	O	0.007523	-0.998944	-0.060901
O10	O	0.507523	-0.498944	0.439099
O11	O	-0.121462	-0.869990	-0.060870
O12	O	0.378538	-0.369990	0.439130
O13	O	-0.108044	-1.114547	-0.060878
O14	O	0.391956	-0.614547	0.439122
Zn15	Zn	-0.114752	-0.992265	-0.080206
Zn16	Zn	0.385248	-0.492265	0.419794
Zn17	Zn	-0.114760	-0.992294	0.080220
Zn18	Zn	0.385240	-0.492294	0.580220
O19	O	-0.237029	-0.985593	-0.060847
O20	O	0.262971	-0.485593	0.439153
C21	C	-0.120919	-0.838706	0.000011
C22	C	0.379081	-0.338706	0.500011
C23	C	-0.119280	-0.745456	0.000013
C24	C	0.380720	-0.245456	0.500013
C25	C	-0.195211	-0.509697	0.000031
C26	C	0.304789	-0.009697	0.500031
C27	C	-0.154269	-0.459127	-0.060016
C28	C	0.345731	0.040873	0.439984
C29	C	-0.116244	-0.574734	0.000011
C30	C	0.383756	-0.074734	0.500011
C31	C	-0.154257	-0.459153	0.060032
C32	C	0.345743	0.040847	0.560032
C33	C	-0.113317	-0.409824	0.000014
C34	C	0.386683	0.090176	0.500014
C35	C	-0.075323	-0.525392	-0.060085
C36	C	0.424677	-0.025392	0.439915
C37	C	-0.075323	-0.525422	0.060017
C38	C	0.424677	-0.025422	0.560017
C39	C	-0.034323	-0.474884	-0.000045
C40	C	0.465677	0.025116	0.499955
C41	C	-0.117932	-0.669735	0.000010
C42	C	0.382068	-0.169735	0.500010
C43	C	-0.111622	-0.314826	0.000010
C44	C	0.388378	0.185174	0.500010
C45	C	0.038814	-0.998400	-0.000025
C46	C	0.538814	-0.498400	0.499975
C47	C	0.132059	-0.996735	-0.000040
C48	C	0.632059	-0.496735	0.499960
C49	C	0.402669	-0.911826	-0.000063
C50	C	0.902669	-0.411826	0.499937
C51	C	0.352091	-0.952770	0.059979
C52	C	0.852091	-0.452770	0.559979
C53	C	0.467700	-0.990799	-0.000068
C54	C	0.967700	-0.490799	0.499932
C55	C	0.352124	-0.952769	-0.060069
C56	C	0.852124	-0.452769	0.439931
C57	C	0.302788	-0.993711	-0.000056
C58	C	0.802788	-0.493711	0.499944
C59	C	0.418350	-1.031721	0.060023
C60	C	0.918350	-0.531721	0.560023
C61	C	0.418387	-1.031709	-0.060079
C62	C	0.918387	-0.531709	0.439921
C63	C	0.367842	-1.072710	-0.000022
C64	C	0.867842	-0.572710	0.499978
C65	C	0.562701	-0.989119	-0.000075
C66	C	1.062701	-0.489119	0.499925
C67	C	0.207789	-0.995397	-0.000044
C68	C	0.707789	-0.495397	0.499956
C69	C	0.731673	-0.986148	0.000004
C70	C	1.231673	-0.486148	0.500004
C71	C	0.638423	-0.987778	-0.000084
C72	C	1.138423	-0.487778	0.499916
N73	N	-0.114745	-0.992251	-0.189693
N74	N	0.385255	-0.492251	0.310307
C75	C	-0.108605	-0.145852	0.000006
C76	C	0.391395	0.354148	0.500006
C77	C	-0.110278	-0.239096	0.000013
C78	C	0.389722	0.260904	0.500013
C79	C	-0.057659	-1.049371	-0.228015
C80	C	0.442341	-0.549371	0.271985
C81	C	-0.057655	-1.049376	-0.304660
C82	C	0.442345	-0.549376	0.195340
C83	C	-0.114752	-0.992270	-0.342980
C84	C	0.385248	-0.492270	0.157020
C85	C	-0.171843	-0.935140	-0.304649
C86	C	0.328157	-0.435140	0.195351
C87	C	-0.171839	-0.935130	-0.228005
C88	C	0.328161	-0.435130	0.271995
N89	N	-0.189078	-0.981584	-0.463296
N90	N	0.310922	-0.481584	0.036704
N91	N	-0.189078	-0.981598	-0.536104
N92	N	0.310922	-0.481598	-0.036104
C93	C	-0.114764	-0.992294	-0.573903
C94	C	0.385236	-0.492294	-0.073903
N95	N	-0.040447	-1.002991	-0.536142
N96	N	0.459553	-0.502991	-0.036142
N97	N	-0.040447	-1.002982	-0.463327
N98	N	0.459553	-0.502982	0.036673
C99	C	-0.114761	-0.992274	-0.426087
C100	C	0.385239	-0.492274	0.073913
C101	C	-0.057668	-1.049422	-0.695332
C102	C	0.442332	-0.549422	-0.195332
C103	C	-0.057663	-1.049422	-0.771978
C104	C	0.442337	-0.549422	-0.271978
C105	C	-0.171859	-0.935189	-0.771965
C106	C	0.328141	-0.435189	-0.271965
C107	C	-0.171857	-0.935186	-0.695320
C108	C	0.328143	-0.435186	-0.195320
C109	C	-0.114762	-0.992307	-0.657008
C110	C	0.385238	-0.492307	-0.157008
N111	N	-0.114760	-0.992314	0.189707
N112	N	0.385240	-0.492314	0.689707
H113	H	-0.187616	-0.430180	-0.110765
H114	H	0.312384	0.069820	0.389235
N115	N	-0.230156	-0.876807	-0.343799
N116	N	0.269844	-0.376807	0.156201
N117	N	-0.230152	-0.876823	-0.412230
N118	N	0.269848	-0.376823	0.087770
H119	H	-0.271334	-0.835621	-0.439880
H120	H	0.228666	-0.335621	0.060120
N121	N	0.315789	-0.910948	0.123664
N122	N	0.815789	-0.410948	0.623664
N123	N	0.361936	-0.879265	0.168842
N124	N	0.861936	-0.379265	0.668842
H125	H	0.336302	-0.849724	0.213818
H126	H	0.836302	-0.349724	0.713818
H127	H	-0.011176	-1.095931	-0.664137
H128	H	0.488824	-0.595931	-0.164137
H129	H	0.033747	-0.459417	-0.000094
H130	H	0.533747	0.040583	0.499906
N131	N	-0.033522	-0.561520	-0.123846
N132	N	0.466478	-0.061520	0.376154
N133	N	-0.002435	-0.515176	-0.169257
N134	N	0.497565	-0.015176	0.330743
H135	H	0.027084	-0.540691	-0.214290
H136	H	0.527084	-0.040691	0.285710
N137	N	0.315832	-0.910921	-0.123736
N138	N	0.815832	-0.410921	0.376264
N139	N	0.237959	-0.906045	-0.134192
N140	N	0.737959	-0.406045	0.365808
H141	H	0.212327	-0.876486	-0.179154
H142	H	0.712327	-0.376486	0.320846
H143	H	0.447161	-1.065058	0.110829
H144	H	0.947161	-0.565058	0.610829
H145	H	-0.042001	-0.554376	0.110769
H146	H	0.457999	-0.054376	0.610769
N147	N	-0.230176	-0.876833	-0.656182
N148	N	0.269824	-0.376833	-0.156182
N149	N	-0.281150	-0.825845	-0.690401
N150	N	0.218850	-0.325845	-0.190401
H151	H	-0.322339	-0.784628	-0.662761
H152	H	0.177661	-0.284628	-0.162761
H153	H	-0.218327	-0.888616	-0.196803
H154	H	0.281673	-0.388616	0.303197
H155	H	0.352368	-1.140779	0.000013
H156	H	0.852368	-0.640779	0.500013
H157	H	-0.011172	-1.095933	-0.803181
H158	H	0.488828	-0.595933	-0.303181
N159	N	0.422277	-0.826501	-0.000002
N160	N	0.922277	-0.326501	0.499998
N161	N	0.364150	-0.766896	0.000583
N162	N	0.864150	-0.266896	0.500583
H163	H	0.377999	-0.706635	0.000629
H164	H	0.877999	-0.206635	0.500629
H165	H	-0.263230	-0.525322	-0.000011
H166	H	0.236770	-0.025322	0.499989
N167	N	0.000649	-1.107721	-0.343832
N168	N	0.500649	-0.607721	0.156168
N169	N	0.052794	-1.081086	-0.386632
N170	N	0.552794	-0.581086	0.113368
H171	H	0.093968	-1.122294	-0.414298
H172	H	0.593968	-0.622294	0.085702
H173	H	0.447347	-1.065023	-0.110841
H174	H	0.947347	-0.565023	0.389159
H175	H	-0.218345	-0.888689	-0.803164
H176	H	0.281655	-0.388689	-0.303164
N177	N	-0.196123	-0.422866	0.123705
N178	N	0.303877	0.077134	0.623705
N179	N	-0.272253	-0.430812	0.134402
N180	N	0.227747	0.069188	0.634402
H181	H	-0.301827	-0.405187	0.179369
H182	H	0.198173	0.094813	0.679369
H183	H	-0.011167	-1.095880	-0.196824
H184	H	0.488833	-0.595880	0.303176
