data_functionalizedCrystal
_audit_creation_method	'MofGen! by Chris Wilmer'
_symmetry_space_group_name_H-M	'P1'
_symmetry_Int_Tables_number	1
_symmetry_cell_setting	triclinic
loop_
_symmetry_equiv_pos_as_xyz
  x,y,z
_cell_length_a	19.188900
_cell_length_b	17.038272
_cell_length_c	18.266242
_cell_angle_alpha	89.995358
_cell_angle_beta	90.014008
_cell_angle_gamma	92.877977
loop_
_atom_site_label
_atom_site_type_symbol
_atom_site_fract_x
_atom_site_fract_y
_atom_site_fract_z
O1	O	-0.932215	0.097478	-0.061025
O2	O	-0.598882	0.430811	0.272309
O3	O	-0.265549	0.764145	0.605642
O4	O	-0.729719	0.110640	-0.060995
O5	O	-0.396385	0.443973	0.272338
O6	O	-0.063052	0.777306	0.605671
O7	O	-0.829764	-0.009753	-0.061004
O8	O	-0.496430	0.323581	0.272329
O9	O	-0.163097	0.656914	0.605663
O10	O	-0.832171	0.217870	-0.061016
O11	O	-0.498837	0.551204	0.272317
O12	O	-0.165504	0.884537	0.605651
O13	O	-0.829752	-0.009755	0.060758
O14	O	-0.496418	0.323578	0.394091
O15	O	-0.163085	0.656911	0.727425
O16	O	-0.729707	0.110637	0.060767
O17	O	-0.396374	0.443970	0.394100
O18	O	-0.063040	0.777304	0.727433
O19	O	-0.932204	0.097475	0.060737
O20	O	-0.598870	0.430808	0.394071
O21	O	-0.265537	0.764142	0.727404
Zn22	Zn	-0.830953	0.104056	0.080084
Zn23	Zn	-0.497620	0.437389	0.413418
Zn24	Zn	-0.164287	0.770722	0.746751
Zn25	Zn	-0.830969	0.104059	-0.080342
Zn26	Zn	-0.497636	0.437393	0.252991
Zn27	Zn	-0.164302	0.770726	0.586324
O28	O	-0.832159	0.217868	0.060746
O29	O	-0.498825	0.551201	0.394079
O30	O	-0.165492	0.884534	0.727413
C31	C	-0.703675	0.110216	-0.000110
C32	C	-0.370342	0.443549	0.333223
C33	C	-0.037009	0.776883	0.666556
C34	C	-0.626091	0.108948	-0.000099
C35	C	-0.292758	0.442282	0.333234
C36	C	0.040576	0.775615	0.666568
C37	C	-0.589668	0.108341	-0.066472
C38	C	-0.256334	0.441674	0.266861
C39	C	0.076999	0.775008	0.600194
C40	C	-0.516769	0.107141	-0.066480
C41	C	-0.183436	0.440475	0.266854
C42	C	0.149897	0.773808	0.600187
C43	C	-0.480298	0.106533	-0.000110
C44	C	-0.146965	0.439866	0.333223
C45	C	0.186369	0.773200	0.666557
C46	C	-0.516730	0.107145	0.066272
C47	C	-0.183396	0.440478	0.399606
C48	C	0.149937	0.773812	0.732939
C49	C	-0.589626	0.108353	0.066278
C50	C	-0.256293	0.441686	0.399611
C51	C	0.077040	0.775019	0.732945
N52	N	-0.368391	0.060152	0.049287
N53	N	-0.035058	0.393485	0.382621
N54	N	0.298276	0.726818	0.715954
N55	N	-0.299143	0.059003	0.049278
N56	N	0.034191	0.392336	0.382611
N57	N	0.367524	0.725670	0.715944
C58	C	-0.260665	0.102896	-0.000122
C59	C	0.072669	0.436229	0.333211
C60	C	0.406002	0.769563	0.666544
N61	N	-0.294052	0.147972	-0.049523
N62	N	0.039281	0.481305	0.283810
N63	N	0.372615	0.814638	0.617143
N64	N	-0.363307	0.149117	-0.049516
N65	N	-0.029974	0.482450	0.283818
N66	N	0.303360	0.815784	0.617151
C67	C	-0.401254	0.105224	-0.000108
C68	C	-0.067921	0.438557	0.333225
C69	C	0.265413	0.771891	0.666558
C70	C	-0.145197	0.100989	-0.066508
C71	C	0.188137	0.434322	0.266825
C72	C	0.521470	0.767655	0.600158
C73	C	-0.072297	0.099794	-0.066513
C74	C	0.261037	0.433127	0.266820
C75	C	0.594370	0.766460	0.600154
C76	C	-0.072259	0.099790	0.066241
C77	C	0.261074	0.433123	0.399575
C78	C	0.594408	0.766456	0.732908
C79	C	-0.145157	0.100992	0.066244
C80	C	0.188176	0.434326	0.399577
C81	C	0.521510	0.767659	0.732911
C82	C	-0.181622	0.101588	-0.000133
C83	C	0.151712	0.434922	0.333200
C84	C	0.485045	0.768255	0.666534
C85	C	-0.827568	-0.038875	-0.000123
C86	C	-0.494235	0.294458	0.333211
C87	C	-0.160902	0.627792	0.666544
C88	C	-0.821037	-0.125647	-0.000122
C89	C	-0.487704	0.207687	0.333211
C90	C	-0.154370	0.541020	0.666545
C91	C	-0.881004	-0.175956	-0.000130
C92	C	-0.547671	0.157378	0.333203
C93	C	-0.214337	0.490711	0.666537
C94	C	-0.874863	-0.257486	-0.000136
C95	C	-0.541529	0.075847	0.333197
C96	C	-0.208196	0.409180	0.666531
C97	C	-0.808754	-0.288706	-0.000129
C98	C	-0.475421	0.044627	0.333204
C99	C	-0.142087	0.377960	0.666538
C100	C	-0.748783	-0.238391	-0.000123
C101	C	-0.415449	0.094942	0.333210
C102	C	-0.082116	0.428276	0.666544
C103	C	-0.754924	-0.156862	-0.000122
C104	C	-0.421591	0.176471	0.333211
C105	C	-0.088258	0.509805	0.666544
C106	C	-0.787056	-0.534394	-0.000136
C107	C	-0.453723	-0.201061	0.333198
C108	C	-0.120389	0.132273	0.666531
C109	C	-0.780918	-0.615929	-0.000134
C110	C	-0.447585	-0.282596	0.333199
C111	C	-0.114252	0.050737	0.666532
C112	C	-0.906999	-0.635019	-0.000149
C113	C	-0.573666	-0.301686	0.333185
C114	C	-0.240333	0.031648	0.666518
C115	C	-0.913135	-0.553488	-0.000143
C116	C	-0.579802	-0.220154	0.333190
C117	C	-0.246469	0.113179	0.666523
C118	C	-0.853164	-0.503179	-0.000142
C119	C	-0.519831	-0.169846	0.333192
C120	C	-0.186497	0.163487	0.666525
C121	C	-0.802475	-0.372044	-0.000133
C122	C	-0.469142	-0.038710	0.333201
C123	C	-0.135808	0.294623	0.666534
C124	C	-0.859443	-0.419844	-0.000143
C125	C	-0.526110	-0.086510	0.333190
C126	C	-0.192777	0.246823	0.666524
C127	C	0.041753	0.097904	-0.000143
C128	C	0.375087	0.431237	0.333190
C129	C	0.708420	0.764571	0.666523
C130	C	-0.035830	0.099187	-0.000142
C131	C	0.297503	0.432520	0.333191
C132	C	0.630836	0.765854	0.666524
C133	C	-0.834354	0.246990	-0.000137
C134	C	-0.501021	0.580323	0.333197
C135	C	-0.167687	0.913657	0.666530
C136	C	-0.840885	0.333762	-0.000142
C137	C	-0.507552	0.667095	0.333191
C138	C	-0.174219	1.000428	0.666524
N139	N	-0.830980	0.104056	-0.189829
N140	N	-0.497646	0.437389	0.143504
N141	N	-0.164313	0.770723	0.476837
N142	N	-0.830948	0.104053	0.189571
N143	N	-0.497615	0.437386	0.522905
N144	N	-0.164281	0.770719	0.856238
C145	C	-0.875281	0.050761	0.771845
C146	C	-0.541948	0.384094	1.105178
C147	C	-0.208615	0.717428	1.438511
C148	C	-0.875282	0.050763	0.695200
C149	C	-0.541949	0.384096	1.028533
C150	C	-0.208616	0.717429	1.361866
C151	C	-0.830969	0.104052	0.656884
C152	C	-0.497636	0.437386	0.990217
C153	C	-0.164303	0.770719	1.323551
C154	C	-0.786664	0.157357	0.695219
C155	C	-0.453331	0.490691	1.028553
C156	C	-0.119998	0.824024	1.361886
C157	C	-0.786670	0.157359	0.771863
C158	C	-0.453336	0.490693	1.105196
C159	C	-0.120003	0.824026	1.438529
N160	N	-0.769786	0.114190	0.536566
N161	N	-0.436452	0.447523	0.869899
N162	N	-0.103119	0.780856	1.203233
N163	N	-0.769783	0.114183	0.463758
N164	N	-0.436449	0.447517	0.797091
N165	N	-0.103116	0.780850	1.130425
C166	C	-0.830952	0.104051	0.425961
C167	C	-0.497619	0.437384	0.759295
C168	C	-0.164285	0.770717	1.092628
N169	N	-0.892125	0.093910	0.463724
N170	N	-0.558792	0.427243	0.797057
N171	N	-0.225459	0.760576	1.130390
N172	N	-0.892127	0.093912	0.536538
N173	N	-0.558794	0.427245	0.869872
N174	N	-0.225461	0.760579	1.203205
C175	C	-0.830959	0.104056	0.573777
C176	C	-0.497626	0.437390	0.907110
C177	C	-0.164292	0.770723	1.240444
C178	C	-0.875258	0.050754	0.304528
C179	C	-0.541925	0.384088	0.637862
C180	C	-0.208592	0.717421	0.971195
C181	C	-0.875261	0.050762	0.227882
C182	C	-0.541927	0.384095	0.561215
C183	C	-0.208594	0.717428	0.894549
C184	C	-0.786636	0.157353	0.227903
C185	C	-0.453303	0.490686	0.561236
C186	C	-0.119970	0.824019	0.894570
C187	C	-0.786640	0.157349	0.304548
C188	C	-0.453307	0.490683	0.637881
C189	C	-0.119974	0.824016	0.971214
C190	C	-0.830950	0.104046	0.342856
C191	C	-0.497617	0.437379	0.676189
C192	C	-0.164284	0.770713	1.009522
H193	H	-0.487108	0.106648	-0.120531
H194	H	-0.153774	0.439981	0.212803
H195	H	0.179559	0.773314	0.546136
H196	H	-0.727082	-0.641345	-0.000117
H197	H	-0.393749	-0.308012	0.333217
H198	H	-0.060416	0.025322	0.666550
H199	H	-0.911341	0.007354	0.335720
H200	H	-0.578007	0.340687	0.669053
H201	H	-0.244674	0.674021	1.002387
N202	N	-0.971678	-0.689281	-0.000164
N203	N	-0.638344	-0.355948	0.333169
N204	N	-0.305011	-0.022614	0.666502
H205	H	-1.014489	-0.657131	-0.000170
H206	H	-0.681155	-0.323798	0.333163
H207	H	-0.347822	0.009535	0.666496
H208	H	-0.971874	-0.723530	0.044973
H209	H	-0.638541	-0.390197	0.378306
H210	H	-0.305208	-0.056864	0.711639
H211	H	-0.487030	0.106652	0.120311
H212	H	-0.153697	0.439985	0.453645
H213	H	0.179637	0.773318	0.786978
H214	H	-0.619282	0.108848	0.120329
H215	H	-0.285948	0.442181	0.453662
H216	H	0.047385	0.775515	0.786996
N217	N	-0.677481	-0.272067	-0.000113
N218	N	-0.344148	0.061266	0.333221
N219	N	-0.010815	0.394600	0.666554
H220	H	-0.650986	-0.253707	0.045028
H221	H	-0.317653	0.079627	0.378361
H222	H	0.015680	0.412960	0.711695
H223	H	-0.651050	-0.253694	-0.045276
H224	H	-0.317717	0.079639	0.288057
H225	H	0.015616	0.412972	0.621390
N226	N	-0.628994	0.109002	-0.138063
N227	N	-0.295660	0.442335	0.195271
N228	N	0.037673	0.775669	0.528604
H229	H	-0.680701	0.109861	-0.127990
H230	H	-0.347368	0.443195	0.205343
H231	H	-0.014034	0.776528	0.538676
H232	H	-0.619053	0.060345	-0.167048
H233	H	-0.285720	0.393678	0.166285
H234	H	0.047614	0.727011	0.499618
H235	H	-0.911363	0.007360	0.803033
H236	H	-0.578030	0.340693	1.136366
H237	H	-0.244696	0.674027	1.469700
H238	H	-0.911340	0.007365	0.196676
H239	H	-0.578007	0.340698	0.530010
H240	H	-0.244674	0.674031	0.863343
H241	H	-0.750585	0.200748	0.664019
H242	H	-0.417252	0.534081	0.997352
H243	H	-0.083918	0.867415	1.330685
H244	H	-0.738223	-0.493442	-0.000134
H245	H	-0.404889	-0.160109	0.333199
H246	H	-0.071556	0.173224	0.666533
N247	N	-0.923068	-0.006721	0.653850
N248	N	-0.589734	0.326612	0.987183
N249	N	-0.256401	0.659946	1.320516
H250	H	-0.951139	-0.040486	0.689748
H251	H	-0.617805	0.292847	1.023081
H252	H	-0.284472	0.626180	1.356414
H253	H	-0.894283	-0.041197	0.622064
H254	H	-0.560950	0.292137	0.955397
H255	H	-0.227616	0.625470	1.288731
H256	H	-0.750563	0.200744	0.335755
H257	H	-0.417229	0.534077	0.669088
H258	H	-0.083896	0.867411	1.002422
H259	H	-0.750559	0.200745	0.196707
H260	H	-0.417225	0.534078	0.530040
H261	H	-0.083892	0.867412	0.863373
H262	H	-0.174887	0.101482	-0.120556
H263	H	0.158446	0.434815	0.212777
H264	H	0.491779	0.768149	0.546110
H265	H	-0.706093	-0.115901	-0.000116
H266	H	-0.372759	0.217433	0.333217
H267	H	-0.039426	0.550766	0.666551
H268	H	-0.042642	0.099304	-0.120564
H269	H	0.290692	0.432637	0.212769
H270	H	0.624025	0.765970	0.546102
H271	H	-0.042564	0.099299	0.120281
H272	H	0.290769	0.432633	0.453614
H273	H	0.624102	0.765966	0.786948
N274	N	-0.184448	0.101647	0.137833
N275	N	0.148885	0.434980	0.471166
N276	N	0.482219	0.768314	0.804500
H277	H	-0.150284	0.101081	0.179878
H278	H	0.183049	0.434414	0.513212
H279	H	0.516383	0.767747	0.846545
H280	H	-0.217484	0.053701	0.140731
H281	H	0.115849	0.387035	0.474064
H282	H	0.449183	0.720368	0.807397
N283	N	-0.738880	0.214839	0.813206
N284	N	-0.405547	0.548172	1.146539
N285	N	-0.072213	0.881506	1.479872
H286	H	-0.710806	0.248600	0.777306
H287	H	-0.377473	0.581933	1.110639
H288	H	-0.044140	0.915266	1.443972
H289	H	-0.706246	0.184996	0.845014
H290	H	-0.372913	0.518329	1.178347
H291	H	-0.039579	0.851663	1.511681
N292	N	-0.952307	-0.142285	-0.000131
N293	N	-0.618974	0.191048	0.333203
N294	N	-0.285641	0.524381	0.666536
H295	H	-0.989364	-0.186531	-0.000138
H296	H	-0.656030	0.146803	0.333195
H297	H	-0.322697	0.480136	0.666529
H298	H	-0.957608	-0.108869	-0.045269
H299	H	-0.624275	0.224465	0.288065
H300	H	-0.290941	0.557798	0.621398
H301	H	-0.923694	-0.298445	-0.000141
H302	H	-0.590361	0.034888	0.333192
H303	H	-0.257028	0.368221	0.666526
N304	N	-0.930745	-0.386177	-0.000144
N305	N	-0.597412	-0.052843	0.333189
N306	N	-0.264079	0.280490	0.666522
H307	H	-0.936112	-0.352768	-0.045279
H308	H	-0.602778	-0.019435	0.288054
H309	H	-0.269445	0.313898	0.621388
H310	H	-0.936042	-0.352820	0.045025
H311	H	-0.602709	-0.019487	0.378359
H312	H	-0.269376	0.313847	0.711692
H313	H	-0.966968	-0.528075	-0.000149
H314	H	-0.633635	-0.194741	0.333184
H315	H	-0.300301	0.138592	0.666518
H316	H	-0.748649	-0.397472	-0.000125
H317	H	-0.415316	-0.064139	0.333208
H318	H	-0.081982	0.269195	0.666541
