data_functionalizedCrystal
_audit_creation_method	'MofGen! by Chris Wilmer'
_symmetry_space_group_name_H-M	'P1'
_symmetry_Int_Tables_number	1
_symmetry_cell_setting	triclinic
loop_
_symmetry_equiv_pos_as_xyz
  x,y,z
_cell_length_a	16.109302
_cell_length_b	16.109304
_cell_length_c	15.186229
_cell_angle_alpha	90.000934
_cell_angle_beta	90.005299
_cell_angle_gamma	83.462209
loop_
_atom_site_label
_atom_site_type_symbol
_atom_site_fract_x
_atom_site_fract_y
_atom_site_fract_z
O1	O	1.103131	0.106869	0.073263
O2	O	1.436465	0.440202	0.406596
O3	O	1.769798	0.773535	0.739929
O4	O	0.861070	0.120167	0.073255
O5	O	1.194403	0.453501	0.406588
O6	O	1.527736	0.786834	0.739922
O7	O	0.988749	-0.007513	0.073259
O8	O	1.322082	0.325821	0.406593
O9	O	1.655416	0.659154	0.739926
O10	O	0.975452	0.234549	0.073258
O11	O	1.308785	0.567882	0.406591
O12	O	1.642119	0.901216	0.739925
O13	O	0.988740	-0.007514	-0.073198
O14	O	1.322074	0.325819	0.260136
O15	O	1.655407	0.659152	0.593469
O16	O	0.861061	0.120166	-0.073202
O17	O	1.194394	0.453499	0.260131
O18	O	1.527728	0.786832	0.593464
O19	O	1.103123	0.106867	-0.073195
O20	O	1.436456	0.440200	0.260139
O21	O	1.769789	0.773534	0.593472
Zn22	Zn	0.982091	0.113516	-0.096452
Zn23	Zn	1.315424	0.446849	0.236882
Zn24	Zn	1.648757	0.780183	0.570215
Zn25	Zn	0.982102	0.113518	0.096512
Zn26	Zn	1.315435	0.446852	0.429845
Zn27	Zn	1.648768	0.780185	0.763179
O28	O	0.975444	0.234547	-0.073199
O29	O	1.308777	0.567880	0.260134
O30	O	1.642110	0.901214	0.593467
C31	C	0.830090	0.119628	0.000025
C32	C	1.163424	0.452961	0.333359
C33	C	1.496757	0.786294	0.666692
C34	C	0.737795	0.118012	0.000023
C35	C	1.071128	0.451346	0.333356
C36	C	1.404462	0.784679	0.666689
C37	C	0.525450	0.114276	-0.079802
C38	C	0.858783	0.447610	0.253531
C39	C	1.192116	0.780943	0.586864
C40	C	0.438729	0.112750	-0.079799
C41	C	0.772063	0.446083	0.253534
C42	C	1.105396	0.779416	0.586867
C43	C	0.438749	0.112756	0.079876
C44	C	0.772083	0.446089	0.413210
C45	C	1.105416	0.779422	0.746543
C46	C	0.525468	0.114277	0.079872
C47	C	0.858802	0.447610	0.413206
C48	C	1.192135	0.780943	0.746539
C49	C	0.568816	0.115041	0.000030
C50	C	0.902149	0.448374	0.333364
C51	C	1.235483	0.781708	0.666697
C52	C	0.395377	0.111994	0.000038
C53	C	0.728710	0.445327	0.333371
C54	C	1.062043	0.778660	0.666704
C55	C	0.301351	0.110338	0.000041
C56	C	0.634684	0.443672	0.333375
C57	C	0.968017	0.777005	0.666708
C58	C	0.662848	0.116695	0.000026
C59	C	0.996181	0.450028	0.333360
C60	C	1.329514	0.783362	0.666693
C61	C	0.988206	-0.038488	0.000033
C62	C	1.321539	0.294845	0.333366
C63	C	1.654872	0.628178	0.666699
C64	C	0.986590	-0.130784	0.000039
C65	C	1.319923	0.202550	0.333372
C66	C	1.653256	0.535883	0.666705
C67	C	0.982861	-0.343120	0.079869
C68	C	1.316194	-0.009787	0.413203
C69	C	1.649527	0.323547	0.746536
C70	C	0.981334	-0.429840	0.079868
C71	C	1.314668	-0.096507	0.413202
C72	C	1.648001	0.236827	0.746535
C73	C	0.981329	-0.429839	-0.079807
C74	C	1.314663	-0.096506	0.253526
C75	C	1.647996	0.236828	0.586859
C76	C	0.982849	-0.343120	-0.079806
C77	C	1.316183	-0.009786	0.253528
C78	C	1.649516	0.323547	0.586861
C79	C	0.983619	-0.299763	0.000035
C80	C	1.316953	0.033570	0.333369
C81	C	1.650286	0.366904	0.666702
C82	C	0.980573	-0.473202	0.000033
C83	C	1.313906	-0.139869	0.333366
C84	C	1.647240	0.193464	0.666699
C85	C	0.978918	-0.567228	0.000031
C86	C	1.312252	-0.233895	0.333364
C87	C	1.645585	0.099438	0.666698
C88	C	0.985272	-0.205731	0.000037
C89	C	1.318606	0.127602	0.333371
C90	C	1.651939	0.460936	0.666704
C91	C	1.134102	0.107407	0.000037
C92	C	1.467435	0.440740	0.333370
C93	C	1.800769	0.774073	0.666703
C94	C	1.226397	0.109022	0.000045
C95	C	1.559731	0.442355	0.333379
C96	C	1.893064	0.775689	0.666712
C97	C	0.975987	0.265523	0.000029
C98	C	1.309320	0.598856	0.333363
C99	C	1.642653	0.932190	0.666696
C100	C	0.977603	0.357818	0.000029
C101	C	1.310936	0.691151	0.333363
C102	C	1.644270	1.024485	0.666696
N103	N	0.982089	0.113514	-0.228144
N104	N	1.315422	0.446847	0.105189
N105	N	1.648756	0.780181	0.438522
C106	C	1.038645	0.056996	-0.453865
C107	C	1.371978	0.390330	-0.120532
C108	C	1.705311	0.723663	0.212801
C109	C	1.038647	0.056994	-0.546055
C110	C	1.371981	0.390328	-0.212722
C111	C	1.705314	0.723661	0.120612
C112	C	0.925548	0.170034	-0.546068
C113	C	1.258882	0.503368	-0.212735
C114	C	1.592215	0.836701	0.120599
C115	C	0.925542	0.170032	-0.453880
C116	C	1.258876	0.503365	-0.120547
C117	C	1.592209	0.836698	0.212787
C118	C	0.982095	0.113514	-0.407781
C119	C	1.315429	0.446847	-0.074448
C120	C	1.648762	0.780180	0.258886
C121	C	0.982104	0.113514	-0.592159
C122	C	1.315437	0.446848	-0.258825
C123	C	1.648770	0.780181	0.074508
C124	C	0.982106	0.113513	-0.692115
C125	C	1.315440	0.446846	-0.358781
C126	C	1.648773	0.780179	-0.025448
C127	C	0.982092	0.113514	-0.307819
C128	C	1.315425	0.446847	0.025515
C129	C	1.648759	0.780181	0.358848
N130	N	0.982110	0.113514	0.228205
N131	N	1.315443	0.446847	0.561538
N132	N	1.648777	0.780181	0.894871
H133	H	0.403424	0.112127	-0.144807
H134	H	0.736758	0.445460	0.188526
H135	H	1.070091	0.778794	0.521859
Cl136	Cl	0.983794	-0.288608	-0.180177
Cl137	Cl	1.317127	0.044725	0.153157
Cl138	Cl	1.650460	0.378058	0.486490
Cl139	Cl	0.579941	0.115232	-0.180175
Cl140	Cl	0.913274	0.448565	0.153159
Cl141	Cl	1.246608	0.781899	0.486492
Cl142	Cl	0.579991	0.115231	0.180242
Cl143	Cl	0.913325	0.448565	0.513576
Cl144	Cl	1.246658	0.781898	0.846909
Cl145	Cl	1.109739	-0.014061	-0.603987
Cl146	Cl	1.443072	0.319272	-0.270654
Cl147	Cl	1.776406	0.652606	0.062680
Cl148	Cl	1.109736	-0.014058	-0.395916
Cl149	Cl	1.443070	0.319275	-0.062583
Cl150	Cl	1.776403	0.652608	0.270751
H151	H	0.403445	0.112134	0.144881
H152	H	0.736778	0.445468	0.478214
H153	H	1.070112	0.778801	0.811548
H154	H	0.983485	-0.307821	0.144881
H155	H	1.316818	0.025512	0.478214
H156	H	1.650152	0.358846	0.811548
Cl157	Cl	0.854442	0.241084	-0.395940
Cl158	Cl	1.187776	0.574417	-0.062606
Cl159	Cl	1.521109	0.907750	0.270727
H160	H	0.879505	0.216051	-0.583611
H161	H	1.212839	0.549385	-0.250278
H162	H	1.546172	0.882718	0.083056
H163	H	0.980715	-0.465137	0.144877
H164	H	1.314048	-0.131804	0.478210
H165	H	1.647382	0.201529	0.811544
H166	H	0.980704	-0.465151	-0.144811
H167	H	1.314038	-0.131818	0.188522
H168	H	1.647371	0.201516	0.521856
