data_functionalizedCrystal
_audit_creation_method	'MofGen! by Chris Wilmer'
_symmetry_space_group_name_H-M	'P1'
_symmetry_Int_Tables_number	1
_symmetry_cell_setting	triclinic
loop_
_symmetry_equiv_pos_as_xyz
  x,y,z
_cell_length_a	16.625548
_cell_length_b	14.908178
_cell_length_c	14.908694
_cell_angle_alpha	90.159098
_cell_angle_beta	86.683146
_cell_angle_gamma	93.314952
loop_
_atom_site_label
_atom_site_type_symbol
_atom_site_fract_x
_atom_site_fract_y
_atom_site_fract_z
Zn1	Zn	1.237872	-0.387291	-0.487731
Zn2	Zn	1.571205	-0.053958	-0.154398
Zn3	Zn	1.904539	0.279376	0.178936
Zn4	Zn	1.222280	-0.529002	-0.328690
Zn5	Zn	1.555613	-0.195668	0.004644
Zn6	Zn	1.888946	0.137665	0.337977
Zn7	Zn	1.095730	-0.378654	-0.337387
Zn8	Zn	1.429063	-0.045321	-0.004053
Zn9	Zn	1.762396	0.288013	0.329280
Zn10	Zn	1.094812	-0.537620	-0.479002
Zn11	Zn	1.428145	-0.204286	-0.145669
Zn12	Zn	1.761479	0.129047	0.187665
O13	O	1.162673	-0.458142	-0.408202
O14	O	1.496007	-0.124808	-0.074869
O15	O	1.829340	0.208525	0.258464
O16	O	1.348636	-0.406097	-0.466647
O17	O	1.681970	-0.072764	-0.133314
O18	O	2.015303	0.260569	0.200020
O19	O	1.199351	-0.501837	-0.204017
O20	O	1.532684	-0.168503	0.129316
O21	O	1.866018	0.164830	0.462649
O22	O	1.121495	-0.253965	-0.364623
O23	O	1.454828	0.079368	-0.031289
O24	O	1.788161	0.412701	0.302044
O25	O	1.337181	-0.510212	-0.349800
O26	O	1.670514	-0.176878	-0.016467
O27	O	2.003847	0.156455	0.316866
O28	O	1.225926	-0.260311	-0.475080
O29	O	1.559259	0.073022	-0.141747
O30	O	1.892593	0.406356	0.191587
O31	O	1.106375	-0.391377	-0.210407
O32	O	1.439709	-0.058043	0.122926
O33	O	1.773042	0.275290	0.456260
O34	O	0.982775	-0.399733	-0.356159
O35	O	1.316109	-0.066400	-0.022825
O36	O	1.649442	0.266934	0.310508
O37	O	1.119931	-0.524899	-0.605986
O38	O	1.453264	-0.191566	-0.272652
O39	O	1.786597	0.141767	0.060681
O40	O	0.982101	-0.516524	-0.460203
O41	O	1.315434	-0.183191	-0.126870
O42	O	1.648768	0.150142	0.206464
O43	O	1.225036	-0.414454	-0.612399
O44	O	1.558369	-0.081120	-0.279066
O45	O	1.891703	0.252213	0.054268
O46	O	1.198461	-0.655979	-0.341336
O47	O	1.531794	-0.322646	-0.008003
O48	O	1.865128	0.010688	0.325331
O49	O	1.104811	-0.662311	-0.451770
O50	O	1.438145	-0.328977	-0.118437
O51	O	1.771478	0.004356	0.214897
C52	C	1.149867	-0.691773	-0.394682
C53	C	1.483201	-0.358440	-0.061348
C54	C	1.816534	-0.025107	0.271985
C55	C	1.144464	-0.791724	-0.388928
C56	C	1.477798	-0.458390	-0.055594
C57	C	1.811131	-0.125057	0.277739
C58	C	0.953182	-0.458127	-0.408178
C59	C	1.286515	-0.124794	-0.074845
C60	C	1.619849	0.208539	0.258489
C61	C	0.863560	-0.458144	-0.408188
C62	C	1.196894	-0.124811	-0.074854
C63	C	1.530227	0.208523	0.258479
C64	C	1.242983	-0.986006	-0.493258
C65	C	1.576317	-0.652673	-0.159924
C66	C	1.909650	-0.319339	0.173409
C67	C	1.237909	-1.079918	-0.487854
C68	C	1.571243	-0.746585	-0.154521
C69	C	1.904576	-0.413252	0.178812
C70	C	1.129240	-1.073463	-0.372723
C71	C	1.462573	-0.740130	-0.039389
C72	C	1.795906	-0.406796	0.293944
C73	C	1.134313	-0.979551	-0.378126
C74	C	1.467647	-0.646217	-0.044793
C75	C	1.800980	-0.312884	0.288541
C76	C	1.191188	-0.935825	-0.438395
C77	C	1.524521	-0.602492	-0.105061
C78	C	1.857855	-0.269159	0.228272
C79	C	1.196265	-0.841911	-0.443793
C80	C	1.529598	-0.508578	-0.110460
C81	C	1.862932	-0.175244	0.222874
C82	C	1.087592	-0.835458	-0.328666
C83	C	1.420925	-0.502124	0.004667
C84	C	1.754258	-0.168791	0.338000
C85	C	1.082518	-0.929370	-0.323263
C86	C	1.415851	-0.596037	0.010071
C87	C	1.749185	-0.262703	0.343404
C88	C	0.535386	-0.458152	-0.408226
C89	C	0.868720	-0.124819	-0.074892
C90	C	1.202053	0.208515	0.258441
C91	C	0.626694	-0.458147	-0.408212
C92	C	0.960028	-0.124814	-0.074879
C93	C	1.293361	0.208519	0.258454
C94	C	0.699470	-0.458148	-0.408206
C95	C	1.032804	-0.124815	-0.074872
C96	C	1.366137	0.208518	0.258461
C97	C	0.790784	-0.458143	-0.408194
C98	C	1.124118	-0.124809	-0.074861
C99	C	1.457451	0.208524	0.258473
C100	C	1.372983	-0.458157	-0.408227
C101	C	1.706316	-0.124823	-0.074894
C102	C	2.039649	0.208510	0.258439
C103	C	1.462604	-0.458163	-0.408238
C104	C	1.795937	-0.124830	-0.074905
C105	C	2.129271	0.208504	0.258429
C106	C	1.174120	-0.471601	-0.642730
C107	C	1.507454	-0.138268	-0.309396
C108	C	1.840787	0.195066	0.023937
C109	C	1.178998	-0.477337	-0.742671
C110	C	1.512332	-0.144003	-0.409338
C111	C	1.845665	0.189330	-0.076005
C112	C	1.175552	-0.223599	-0.421795
C113	C	1.508885	0.109735	-0.088462
C114	C	1.842219	0.443068	0.244871
C115	C	1.181040	-0.123650	-0.427588
C116	C	1.514374	0.209683	-0.094254
C117	C	1.847707	0.543016	0.239079
C118	C	1.091330	-0.373095	-0.937127
C119	C	1.424664	-0.039762	-0.603794
C120	C	1.757997	0.293572	-0.270461
C121	C	1.095911	-0.378481	-1.031032
C122	C	1.429244	-0.045148	-0.697698
C123	C	1.762578	0.288185	-0.364365
C124	C	1.192736	-0.493499	-1.024386
C125	C	1.526069	-0.160166	-0.691052
C126	C	1.859402	0.173167	-0.357719
C127	C	1.188155	-0.488113	-0.930482
C128	C	1.521488	-0.154780	-0.597148
C129	C	1.854822	0.178554	-0.263815
C130	C	1.137451	-0.427908	-0.886856
C131	C	1.470785	-0.094575	-0.553522
C132	C	1.804118	0.238759	-0.220189
C133	C	1.132876	-0.422518	-0.792950
C134	C	1.466209	-0.089185	-0.459617
C135	C	1.799542	0.244149	-0.126283
C136	C	1.229695	-0.537540	-0.786306
C137	C	1.563029	-0.204207	-0.452972
C138	C	1.896362	0.129127	-0.119639
C139	C	1.234276	-0.542926	-0.880210
C140	C	1.567609	-0.209593	-0.546877
C141	C	1.900943	0.123741	-0.213543
C142	C	1.151321	-0.444669	-0.174591
C143	C	1.484654	-0.111336	0.158742
C144	C	1.817987	0.221997	0.492076
C145	C	1.146613	-0.438680	-0.074664
C146	C	1.479946	-0.105347	0.258669
C147	C	1.813279	0.227986	0.592002
H148	H	1.289298	-0.950404	-0.542325
H149	H	1.622631	-0.617071	-0.208991
H150	H	1.955965	-0.283737	0.124342
H151	H	1.280083	-1.120772	-0.532534
H152	H	1.613416	-0.787439	-0.199201
H153	H	1.946749	-0.454106	0.134133
H154	H	1.234004	-0.542527	-1.059922
H155	H	1.567338	-0.209194	-0.726588
H156	H	1.900671	0.124139	-0.393255
O157	O	1.279458	-0.596656	-0.732089
O158	O	1.612791	-0.263323	-0.398756
O159	O	1.946124	0.070010	-0.065423
H160	H	1.262649	-0.668267	-0.746024
H161	H	1.595983	-0.334934	-0.412690
H162	H	1.929316	-0.001601	-0.079357
H163	H	1.082932	-1.109081	-0.323659
H164	H	1.416265	-0.775748	0.009674
H165	H	1.749598	-0.442414	0.343008
H166	H	1.036211	-0.964984	-0.274196
H167	H	1.369544	-0.631651	0.059137
H168	H	1.702877	-0.298318	0.392471
H169	H	1.275554	-0.591946	-0.915743
H170	H	1.608888	-0.258613	-0.582410
H171	H	1.942221	0.074720	-0.249076
H172	H	1.058354	-0.333847	-1.071960
H173	H	1.391688	-0.000513	-0.738626
H174	H	1.725021	0.332820	-0.405293
O175	O	1.031721	-0.781341	-0.269481
O176	O	1.365054	-0.448007	0.063853
O177	O	1.698388	-0.114674	0.397186
H178	H	0.994931	-0.740887	-0.312132
H179	H	1.328264	-0.407554	0.021201
H180	H	1.661598	-0.074221	0.354534
O181	O	1.257610	-0.794743	-0.508787
O182	O	1.590943	-0.461410	-0.175454
O183	O	1.924276	-0.128076	0.157880
H184	H	1.292770	-0.845419	-0.546032
H185	H	1.626103	-0.512085	-0.212699
H186	H	1.959436	-0.178752	0.120634
H187	H	1.091593	-0.373492	-0.757432
H188	H	1.424927	-0.040159	-0.424098
H189	H	1.758260	0.293174	-0.090765
O190	O	1.036650	-0.308157	-0.890071
O191	O	1.369983	0.025176	-0.556738
O192	O	1.703317	0.358509	-0.223405
H193	H	1.073169	-0.259954	-0.849952
H194	H	1.406502	0.073379	-0.516619
H195	H	1.739836	0.406713	-0.183286
