data_functionalizedCrystal
_audit_creation_method	'MofGen! by Chris Wilmer'
_symmetry_space_group_name_H-M	'P1'
_symmetry_Int_Tables_number	1
_symmetry_cell_setting	triclinic
loop_
_symmetry_equiv_pos_as_xyz
  x,y,z
_cell_length_a	12.759401
_cell_length_b	17.637651
_cell_length_c	12.759393
_cell_angle_alpha	78.749835
_cell_angle_beta	89.981504
_cell_angle_gamma	101.219542
loop_
_atom_site_label
_atom_site_type_symbol
_atom_site_fract_x
_atom_site_fract_y
_atom_site_fract_z
Zn1	Zn	1.521690	-0.314720	-0.509310
Zn2	Zn	1.486052	-0.446958	-0.298053
Zn3	Zn	1.345981	-0.314761	-0.333638
Zn4	Zn	1.310465	-0.446897	-0.473711
O5	O	1.416047	-0.380834	-0.403678
O6	O	1.663982	-0.332270	-0.481292
O7	O	1.467420	-0.429465	-0.155741
O8	O	1.399068	-0.204114	-0.386732
O9	O	1.637798	-0.429425	-0.326083
O10	O	1.528160	-0.204083	-0.515798
O11	O	1.364511	-0.332340	-0.181885
O12	O	1.194251	-0.332281	-0.352213
O13	O	1.338535	-0.429321	-0.625466
O14	O	1.168157	-0.429361	-0.455124
O15	O	1.493722	-0.332211	-0.651620
O16	O	1.432982	-0.557592	-0.291564
O17	O	1.303978	-0.557547	-0.420619
C18	C	1.143084	-0.380820	-0.403668
C19	C	1.026304	-0.380832	-0.403683
C20	C	1.360787	-0.586258	-0.348390
C21	C	1.337243	-0.674139	-0.324772
C22	C	0.957860	-0.431463	-0.457136
C23	C	0.848133	-0.431473	-0.457145
C24	C	0.875304	-0.330220	-0.350239
C25	C	0.985029	-0.330206	-0.350238
C26	C	0.942172	-0.489923	-0.518853
C27	C	0.832445	-0.489933	-0.518862
C28	C	1.595593	-0.962796	-0.583429
C29	C	1.573436	-1.045373	-0.561218
C30	C	1.439101	-1.045512	-0.426693
C31	C	1.461250	-0.962933	-0.448889
C32	C	1.539496	-0.921581	-0.527259
C33	C	1.405154	-0.921718	-0.392718
C34	C	1.427298	-0.839146	-0.414916
C35	C	1.505538	-0.797788	-0.493285
C36	C	1.561640	-0.839009	-0.549457
C37	C	1.326903	-0.963072	-0.314354
C38	C	1.270807	-0.921857	-0.258183
C39	C	1.292955	-0.839283	-0.280376
C40	C	1.371196	-0.797926	-0.358744
C41	C	1.236853	-0.798063	-0.224204
C42	C	1.258997	-0.715491	-0.246402
C43	C	1.393339	-0.715354	-0.380942
C44	C	1.690076	-0.380849	-0.403689
C45	C	1.806851	-0.380856	-0.403694
C46	C	1.416142	-0.380754	-0.677733
C47	C	1.416183	-0.380720	-0.794519
C48	C	1.471551	-0.174608	-0.459206
C49	C	1.495204	-0.086727	-0.482868
C50	C	1.496999	-0.330150	-0.863003
C51	C	1.497031	-0.330122	-0.972734
C52	C	1.335427	-0.431240	-0.945487
C53	C	1.335391	-0.431264	-0.835759
C54	C	1.590302	-0.271772	-0.878734
C55	C	1.590335	-0.271744	-0.988466
C56	C	1.416028	-0.380857	-0.130705
C57	C	1.416251	-0.380668	-0.013979
H58	H	1.040754	-0.288973	-0.306720
C59	C	1.150786	-0.843556	-0.138006
H60	H	1.145635	-0.898636	-0.132829
H61	H	1.083810	-0.830048	-0.156947
H62	H	1.169830	-0.830058	-0.071053
C63	C	1.583105	-0.189062	-0.860780
H64	H	1.580159	-0.155031	-0.927858
H65	H	1.644252	-0.168727	-0.824899
H66	H	1.520442	-0.192404	-0.818518
H67	H	1.375391	-1.079192	-0.362887
C68	C	0.794436	-0.460411	-0.631293
H69	H	0.719803	-0.461420	-0.627462
H70	H	0.808517	-0.493621	-0.677710
H71	H	0.831529	-0.407968	-0.658061
H72	H	1.269580	-0.472441	-0.780003
H73	H	0.786200	-0.551153	-0.480459
C74	C	1.197294	-0.670152	-0.184617
H75	H	1.147529	-0.706605	-0.134757
H76	H	1.160134	-0.637942	-0.233427
H77	H	1.246153	-0.637945	-0.147532
C78	C	1.246570	-0.486840	-0.990854
H79	H	1.258168	-0.479587	-1.066012
H80	H	1.179089	-0.475271	-0.975983
H81	H	1.247651	-0.539971	-0.958561
H82	H	1.661676	-0.293723	-0.838792
C83	C	1.572144	-0.193148	-1.055615
H84	H	1.564026	-0.158165	-1.009588
H85	H	1.509373	-0.202524	-1.094991
H86	H	1.631825	-0.170261	-1.103686
C87	C	1.694288	-0.293917	-1.022736
H88	H	1.737014	-0.303062	-0.962366
H89	H	1.732628	-0.252006	-1.075390
H90	H	1.677346	-0.340378	-1.051580
H91	H	0.976368	-0.473593	-0.604653
C92	C	0.829897	-0.274538	-0.291451
H93	H	0.754745	-0.281799	-0.299103
H94	H	0.862166	-0.221427	-0.321237
H95	H	0.844754	-0.286049	-0.217731
H96	H	1.619107	-1.078927	-0.606980
H97	H	1.457063	-0.681683	-0.444752
C98	C	0.967034	-0.568458	-0.458177
H99	H	1.042117	-0.565770	-0.460239
H100	H	0.932834	-0.610216	-0.490910
H101	H	0.941502	-0.577832	-0.385934
C102	C	1.529902	-0.706961	-0.517710
H103	H	1.584529	-0.688238	-0.572434
H104	H	1.553110	-0.688304	-0.454945
H105	H	1.467092	-0.688306	-0.540842
C106	C	1.647689	-0.793517	-0.635683
H107	H	1.677921	-0.829887	-0.665970
H108	H	1.702133	-0.761292	-0.604218
H109	H	1.616079	-0.761313	-0.690078
H110	H	1.659317	-0.929125	-0.647238
H111	H	1.308866	-1.030307	-0.296293
H112	H	1.207096	-0.955537	-0.194377
