data_functionalizedCrystal
_audit_creation_method	'MofGen! by Chris Wilmer'
_symmetry_space_group_name_H-M	'P1'
_symmetry_Int_Tables_number	1
_symmetry_cell_setting	triclinic
loop_
_symmetry_equiv_pos_as_xyz
  x,y,z
_cell_length_a	14.519709
_cell_length_b	15.944551
_cell_length_c	13.596369
_cell_angle_alpha	89.993059
_cell_angle_beta	90.000291
_cell_angle_gamma	83.589442
loop_
_atom_site_label
_atom_site_type_symbol
_atom_site_fract_x
_atom_site_fract_y
_atom_site_fract_z
O1	O	1.223676	0.110109	-0.081665
O2	O	1.557009	0.443442	0.251668
O3	O	1.890343	0.776776	0.585001
O4	O	0.955176	0.123076	-0.081696
O5	O	1.288510	0.456409	0.251638
O6	O	1.621843	0.789742	0.584971
O7	O	1.096758	-0.005672	-0.081671
O8	O	1.430092	0.327661	0.251662
O9	O	1.763425	0.660995	0.584996
O10	O	1.082094	0.238856	-0.081690
O11	O	1.415427	0.572190	0.251643
O12	O	1.748761	0.905523	0.584976
O13	O	1.096744	-0.005679	0.081912
O14	O	1.430077	0.327655	0.415245
O15	O	1.763411	0.660988	0.748579
O16	O	0.955162	0.123069	0.081887
O17	O	1.288496	0.456402	0.415220
O18	O	1.621829	0.789735	0.748554
O19	O	1.223662	0.110102	0.081917
O20	O	1.556995	0.443435	0.415251
O21	O	1.890328	0.776769	0.748584
Zn22	Zn	1.089410	0.116584	0.107875
Zn23	Zn	1.422743	0.449918	0.441208
Zn24	Zn	1.756076	0.783251	0.774541
Zn25	Zn	1.089428	0.116593	-0.107653
Zn26	Zn	1.422762	0.449927	0.225680
Zn27	Zn	1.756095	0.783260	0.559014
O28	O	1.082080	0.238850	0.081893
O29	O	1.415413	0.572183	0.415226
O30	O	1.748746	0.905516	0.748559
C31	C	0.920810	0.122468	0.000092
C32	C	1.254144	0.455801	0.333425
C33	C	1.587477	0.789134	0.666759
C34	C	0.818432	0.120657	0.000081
C35	C	1.151766	0.453990	0.333414
C36	C	1.485099	0.787324	0.666747
C37	C	1.096142	-0.036970	0.000121
C38	C	1.429476	0.296363	0.333454
C39	C	1.762809	0.629696	0.666787
C40	C	1.094317	-0.130219	0.000121
C41	C	1.427651	0.203114	0.333454
C42	C	1.760984	0.536448	0.666788
C43	C	0.443548	0.113990	0.000126
C44	C	0.776882	0.447324	0.333459
C45	C	1.110215	0.780657	0.666792
C46	C	0.547853	0.115842	0.000113
C47	C	0.881186	0.449175	0.333446
C48	C	1.214520	0.782508	0.666780
C49	C	0.630987	0.117323	0.000102
C50	C	0.964320	0.450657	0.333436
C51	C	1.297654	0.783990	0.666769
C52	C	0.735298	0.119175	0.000091
C53	C	1.068632	0.452509	0.333425
C54	C	1.401965	0.785842	0.666758
C55	C	1.002196	-0.345209	0.000097
C56	C	1.335529	-0.011876	0.333430
C57	C	1.668862	0.321457	0.666764
C58	C	1.044967	-0.406168	0.080758
C59	C	1.378300	-0.072834	0.414091
C60	C	1.711634	0.260499	0.747425
C61	C	1.091015	-0.300950	0.000113
C62	C	1.424349	0.032384	0.333446
C63	C	1.757682	0.365717	0.666780
C64	C	1.045002	-0.406144	-0.080522
C65	C	1.378335	-0.072811	0.252812
C66	C	1.711668	0.260522	0.586145
C67	C	1.087820	-0.465867	0.000101
C68	C	1.421153	-0.132534	0.333434
C69	C	1.754486	0.200800	0.666768
C70	C	1.133811	-0.360680	0.080841
C71	C	1.467144	-0.027347	0.414174
C72	C	1.800478	0.305987	0.747507
C73	C	1.133833	-0.360650	-0.080512
C74	C	1.467167	-0.027317	0.252822
C75	C	1.800500	0.306016	0.586155
C76	C	1.176669	-0.421591	0.000169
C77	C	1.510003	-0.088258	0.333502
C78	C	1.843336	0.245076	0.666836
C79	C	1.092854	-0.205945	0.000121
C80	C	1.426187	0.127389	0.333454
C81	C	1.759521	0.460722	0.666787
C82	C	1.085988	-0.560871	0.000100
C83	C	1.419321	-0.227537	0.333434
C84	C	1.752655	0.105796	0.666767
C85	C	1.258028	0.110710	0.000128
C86	C	1.591361	0.444043	0.333461
C87	C	1.924694	0.777377	0.666794
C88	C	1.360406	0.112521	0.000132
C89	C	1.693739	0.445854	0.333466
C90	C	2.027072	0.779187	0.666799
C91	C	1.082696	0.270148	0.000099
C92	C	1.416029	0.603481	0.333432
C93	C	1.749362	0.936815	0.666766
C94	C	1.084521	0.363397	0.000092
C95	C	1.417854	0.696730	0.333425
C96	C	1.751187	1.030063	0.666759
N97	N	1.089404	0.116578	0.254966
N98	N	1.422737	0.449911	0.588300
N99	N	1.756070	0.783244	0.921633
N100	N	1.089442	0.116593	-0.254745
N101	N	1.422775	0.449927	0.078589
N102	N	1.756108	0.783260	0.411922
C103	C	1.089427	0.116594	0.656257
C104	C	1.422760	0.449928	0.989591
C105	C	1.756094	0.783261	1.322924
C106	C	1.089418	0.116592	0.544606
C107	C	1.422751	0.449926	0.877939
C108	C	1.756085	0.783259	1.211273
C109	C	1.089416	0.116587	0.455615
C110	C	1.422749	0.449920	0.788949
C111	C	1.756083	0.783253	1.122282
C112	C	1.089406	0.116584	0.343957
C113	C	1.422739	0.449917	0.677290
C114	C	1.756072	0.783250	1.010624
H115	H	0.928471	-0.312009	0.000169
H116	H	1.261805	0.021325	0.333503
H117	H	1.595138	0.354658	0.666836
C118	C	1.184503	-0.333611	0.173069
C119	C	1.517836	-0.000278	0.506403
C120	C	1.851169	0.333056	0.839736
H121	H	1.185319	-0.274117	0.172529
H122	H	1.518653	0.059217	0.505862
H123	H	1.851986	0.392550	0.839196
H124	H	1.246294	-0.360450	0.173314
H125	H	1.579627	-0.027117	0.506647
H126	H	1.912961	0.306216	0.839981
H127	H	1.153148	-0.349553	0.230269
H128	H	1.486482	-0.016220	0.563602
H129	H	1.819815	0.317114	0.896936
H130	H	1.007394	-0.426333	0.148942
H131	H	1.340727	-0.093000	0.482276
H132	H	1.674060	0.240333	0.815609
C133	C	0.994248	-0.433353	-0.172642
C134	C	1.327582	-0.100020	0.160691
C135	C	1.660915	0.233313	0.494024
H136	H	1.035346	-0.470966	-0.210622
H137	H	1.368680	-0.137633	0.122711
H138	H	1.702013	0.195700	0.456045
H139	H	0.973671	-0.384999	-0.210874
H140	H	1.307004	-0.051665	0.122459
H141	H	1.640338	0.281668	0.455792
H142	H	0.942416	-0.460896	-0.153254
H143	H	1.275750	-0.127562	0.180079
H144	H	1.609083	0.205771	0.513413
C145	C	1.276345	-0.466250	0.000241
C146	C	1.609679	-0.132917	0.333574
C147	C	1.943012	0.200416	0.666907
H148	H	1.307738	-0.450695	0.057590
H149	H	1.641072	-0.117362	0.390923
H150	H	1.974405	0.215972	0.724256
H151	H	1.308135	-0.449978	-0.056507
H152	H	1.641468	-0.116645	0.276827
H153	H	1.974802	0.216689	0.610160
H154	H	1.274651	-0.525638	-0.000295
H155	H	1.607985	-0.192305	0.333039
H156	H	1.941318	0.141029	0.666372
C157	C	1.184545	-0.333368	-0.172624
C158	C	1.517878	-0.000035	0.160709
C159	C	1.851212	0.333298	0.494043
H160	H	1.152902	-0.348755	-0.229882
H161	H	1.486235	-0.015421	0.103451
H162	H	1.819569	0.317912	0.436784
H163	H	1.246178	-0.360574	-0.173198
H164	H	1.579511	-0.027241	0.160136
H165	H	1.912844	0.306093	0.493469
H166	H	1.185819	-0.273934	-0.171631
H167	H	1.519153	0.059400	0.161702
H168	H	1.852486	0.392733	0.495035
