data_functionalizedCrystal
_audit_creation_method	'MofGen! by Chris Wilmer'
_symmetry_space_group_name_H-M	'P1'
_symmetry_Int_Tables_number	1
_symmetry_cell_setting	triclinic
loop_
_symmetry_equiv_pos_as_xyz
  x,y,z
_cell_length_a	16.120490
_cell_length_b	16.120444
_cell_length_c	16.120256
_cell_angle_alpha	84.383140
_cell_angle_beta	89.870193
_cell_angle_gamma	90.165174
loop_
_atom_site_label
_atom_site_type_symbol
_atom_site_fract_x
_atom_site_fract_y
_atom_site_fract_z
Zn1	Zn	1.224981	-0.422349	0.554795
Zn2	Zn	1.724981	0.077651	1.054795
Zn3	Zn	1.224874	-0.555030	0.422101
Zn4	Zn	1.724874	-0.055030	0.922101
Zn5	Zn	1.093720	-0.408253	0.408039
Zn6	Zn	1.593720	0.091747	0.908039
Zn7	Zn	1.078871	-0.554258	0.554037
Zn8	Zn	1.578871	-0.054258	1.054037
O9	O	1.155612	-0.484973	0.484743
O10	O	1.655612	0.015027	0.984743
O11	O	1.341003	-0.446172	0.543395
O12	O	1.841003	0.053828	1.043395
O13	O	1.213646	-0.529983	0.303602
O14	O	1.713646	-0.029983	0.803602
O15	O	1.117392	-0.293492	0.421939
O16	O	1.617392	0.206508	0.921939
O17	O	1.340924	-0.543652	0.445905
O18	O	1.840924	-0.043652	0.945905
O19	O	1.213828	-0.303849	0.529760
O20	O	1.713828	0.196151	1.029760
O21	O	1.117288	-0.422147	0.293271
O22	O	1.617288	0.077853	0.793271
O23	O	0.975715	-0.421399	0.421205
O24	O	1.475715	0.078601	0.921205
O25	O	1.092083	-0.542337	0.670771
O26	O	1.592083	-0.042337	1.170771
O27	O	0.964805	-0.528668	0.528468
O28	O	1.464805	-0.028668	1.028468
O29	O	1.199429	-0.445424	0.671328
O30	O	1.699429	0.054576	1.171328
O31	O	1.199247	-0.671558	0.445170
O32	O	1.699247	-0.171558	0.945170
O33	O	1.091979	-0.670992	0.542103
O34	O	1.591979	-0.170992	1.042103
C35	C	1.144012	-0.701518	0.495099
C36	C	1.644012	-0.201518	0.995099
C37	C	1.139124	-0.794163	0.499562
C38	C	1.639124	-0.294163	0.999562
C39	C	0.940173	-0.473421	0.473229
C40	C	1.440173	0.026579	0.973229
C41	C	0.848005	-0.468500	0.468324
C42	C	1.348005	0.031500	0.968324
C43	C	1.181162	-1.005322	0.461784
C44	C	1.681162	-0.505322	0.961784
C45	C	1.130214	-0.963781	0.507719
C46	C	1.630214	-0.463781	1.007719
C47	C	1.135173	-0.869396	0.503179
C48	C	1.635173	-0.369396	1.003179
C49	C	1.176204	-1.099715	0.466323
C50	C	1.676204	-0.599715	0.966323
C51	C	0.632810	-0.510491	0.510188
C52	C	1.132810	-0.010491	1.010188
C53	C	0.679258	-0.459524	0.459368
C54	C	1.179258	0.040476	0.959368
C55	C	0.773157	-0.464520	0.464352
C56	C	1.273157	0.035480	0.964352
C57	C	0.538901	-0.505496	0.505204
C58	C	1.038901	-0.005496	1.005204
C59	C	1.371892	-0.496570	0.496303
C60	C	1.871892	0.003430	0.996303
C61	C	1.464057	-0.501512	0.501229
C62	C	1.964057	-0.001512	1.001229
C63	C	1.144111	-0.495366	0.702137
C64	C	1.644111	0.004634	1.202137
C65	C	1.139211	-0.499796	0.794777
C66	C	1.639211	0.000204	1.294777
C67	C	1.167278	-0.267584	0.474366
C68	C	1.667278	0.232416	0.974366
C69	C	1.172250	-0.174946	0.469944
C70	C	1.672250	0.325054	0.969944
C71	C	1.167118	-0.474562	0.268195
C72	C	1.667118	0.025438	0.768195
C73	C	1.172192	-0.469906	0.175552
C74	C	1.672192	0.030094	0.675552
C75	C	1.181168	-0.461853	1.005940
C76	C	1.681168	0.038147	1.505940
C77	C	1.130237	-0.507846	0.964384
C78	C	1.630237	-0.007846	1.464384
C79	C	1.135232	-0.503366	0.870006
C80	C	1.635232	-0.003366	1.370006
C81	C	1.176175	-0.466333	1.100327
C82	C	1.676175	0.033667	1.600327
H83	H	1.228500	-0.970005	0.419051
H84	H	1.728500	-0.470005	0.919051
H85	H	0.663563	-0.557875	0.557436
H86	H	1.163563	-0.057875	1.057436
N87	N	1.067502	-1.010558	0.564328
N88	N	1.567502	-0.510558	1.064328
H89	H	1.072802	-1.072330	0.559587
H90	H	1.572802	-0.572330	1.059587
H91	H	1.009760	-0.991662	0.547425
H92	H	1.509760	-0.491662	1.047425
N93	N	0.638528	-0.396753	0.396774
N94	N	1.138528	0.103247	0.896774
H95	H	0.576250	-0.402036	0.402039
H96	H	1.076250	0.097964	0.902039
H97	H	0.656066	-0.407577	0.338630
H98	H	1.156066	0.092423	0.838630
N99	N	1.067510	-0.564464	1.011137
N100	N	1.567510	-0.064464	1.511137
H101	H	1.072789	-0.559682	1.072907
H102	H	1.572789	-0.059682	1.572907
H103	H	1.078013	-0.623974	0.999519
H104	H	1.578013	-0.123974	1.499519
N105	N	1.243912	-0.405264	0.959190
N106	N	1.743912	0.094736	1.459190
H107	H	1.238638	-0.410060	0.897421
H108	H	1.738638	0.089940	1.397421
H109	H	1.301639	-0.422145	0.978161
H110	H	1.801639	0.077855	1.478161
