data_functionalizedCrystal
_audit_creation_method	'MofGen! by Chris Wilmer'
_symmetry_space_group_name_H-M	'P1'
_symmetry_Int_Tables_number	1
_symmetry_cell_setting	triclinic
loop_
_symmetry_equiv_pos_as_xyz
  x,y,z
_cell_length_a	10.723023
_cell_length_b	11.792254
_cell_length_c	9.198806
_cell_angle_alpha	89.996642
_cell_angle_beta	89.996513
_cell_angle_gamma	84.333073
loop_
_atom_site_label
_atom_site_type_symbol
_atom_site_fract_x
_atom_site_fract_y
_atom_site_fract_z
O1	O	1.656775	0.159187	-0.120878
O2	O	1.293583	0.174426	-0.120885
O3	O	1.483984	0.001656	-0.120871
O4	O	1.466374	0.331957	-0.120892
O5	O	1.483969	0.001656	0.120914
O6	O	1.293568	0.174425	0.120900
O7	O	1.656760	0.159187	0.120907
Cu8	Cu	1.475162	0.166806	0.142980
Cu9	Cu	1.475180	0.166806	-0.142958
O10	O	1.466358	0.331956	0.120893
C11	C	1.247079	0.173317	0.000007
C12	C	1.108533	0.169999	0.000005
C13	C	1.046757	0.168520	0.125256
C14	C	0.903563	0.165091	0.125257
C15	C	1.482868	-0.040637	0.000021
C16	C	1.479547	-0.166658	0.000020
C17	C	1.476849	-0.269000	0.000014
C18	C	1.473476	-0.397394	0.000001
C19	C	1.703264	0.160296	0.000012
C20	C	1.841810	0.163613	0.000004
C21	C	1.467475	0.374250	-0.000002
C22	C	1.470796	0.500270	-0.000010
N23	N	1.475159	0.166805	0.344094
N24	N	1.475194	0.166799	-0.344072
C25	C	1.555104	0.093944	0.416297
C26	C	1.555123	0.093940	0.583709
H27	H	0.894927	0.164892	-0.107233
N28	N	1.041927	0.168392	-0.134537
N29	N	1.067337	0.088870	-0.222803
H30	H	1.020300	0.087733	-0.317830
N31	N	0.836927	0.163523	0.259788
N32	N	0.753304	0.241657	0.289081
H33	H	0.706239	0.240553	0.384099
N34	N	1.389325	0.245074	0.422014
N35	N	1.392055	0.349978	0.405127
H36	H	1.331433	0.405260	0.460155
N37	N	1.389306	0.245060	0.578078
N38	N	1.314157	0.313555	0.645902
H39	H	1.253497	0.368828	0.590913
N40	N	1.640866	0.015671	0.338287
N41	N	1.600372	-0.054868	0.253344
H42	H	1.660917	-0.110153	0.198217
N43	N	1.113406	0.170103	0.259772
N44	N	1.229634	0.172880	0.259581
H45	H	1.276705	0.173996	0.354586
N46	N	1.640980	0.015687	0.661613
N47	N	1.640871	0.015791	0.797498
H48	H	1.701506	-0.039481	0.852523
