data_functionalizedCrystal
_audit_creation_method	'MofGen! by Chris Wilmer'
_symmetry_space_group_name_H-M	'P1'
_symmetry_Int_Tables_number	1
_symmetry_cell_setting	triclinic
loop_
_symmetry_equiv_pos_as_xyz
  x,y,z
_cell_length_a	26.210047
_cell_length_b	17.699083
_cell_length_c	17.699083
_cell_angle_alpha	83.283015
_cell_angle_beta	90.003602
_cell_angle_gamma	89.997010
loop_
_atom_site_label
_atom_site_type_symbol
_atom_site_fract_x
_atom_site_fract_y
_atom_site_fract_z
O1	O	0.042358	-1.004082	-0.095700
O2	O	0.375692	-0.670749	0.237633
O3	O	0.709025	-0.337415	0.570966
O4	O	0.042375	-0.783704	-0.108153
O5	O	0.375709	-0.450370	0.225181
O6	O	0.709042	-0.117037	0.558514
O7	O	0.042362	-0.900119	0.008263
O8	O	0.375695	-0.566786	0.341596
O9	O	0.709029	-0.233452	0.674929
O10	O	0.042372	-0.887667	-0.212116
O11	O	0.375705	-0.554333	0.121218
O12	O	0.709039	-0.221000	0.454551
O13	O	-0.042496	-0.900097	0.008244
O14	O	0.290837	-0.566763	0.341578
O15	O	0.624171	-0.233430	0.674911
O16	O	-0.042483	-0.783681	-0.108171
O17	O	0.290851	-0.450348	0.225162
O18	O	0.624184	-0.117014	0.558496
O19	O	-0.042500	-1.004060	-0.095719
O20	O	0.290834	-0.670726	0.237615
O21	O	0.624167	-0.337393	0.570948
Cu22	Cu	-0.050239	-0.893868	-0.101946
Cu23	Cu	0.283094	-0.560535	0.231387
Cu24	Cu	0.616427	-0.227202	0.564720
Cu25	Cu	0.050115	-0.893895	-0.101925
Cu26	Cu	0.383448	-0.560562	0.231408
Cu27	Cu	0.716782	-0.227228	0.564742
O28	O	-0.042486	-0.887644	-0.212134
O29	O	0.290847	-0.554311	0.121199
O30	O	0.624180	-0.220977	0.454533
C31	C	-0.000052	-0.755495	-0.107716
C32	C	0.333282	-0.422162	0.225618
C33	C	0.666615	-0.088829	0.558951
C34	C	-0.000045	-0.671477	-0.106377
C35	C	0.333288	-0.338144	0.226956
C36	C	0.666621	-0.004811	0.560290
C37	C	-0.000067	-0.899662	0.036451
C38	C	0.333266	-0.566328	0.369784
C39	C	0.666600	-0.232995	0.703117
C40	C	-0.000067	-0.898323	0.120469
C41	C	0.333266	-0.564990	0.453802
C42	C	0.666599	-0.231656	0.787135
N43	N	-0.120823	-0.893855	-0.101961
N44	N	0.212510	-0.560522	0.231372
N45	N	0.545843	-0.227188	0.564706
C46	C	-0.473343	-0.945438	-0.050388
C47	C	-0.140010	-0.612105	0.282946
C48	C	0.193323	-0.278772	0.616279
C49	C	-0.687002	-0.945455	-0.050377
C50	C	-0.353669	-0.612122	0.282956
C51	C	-0.020335	-0.278788	0.616289
O52	O	-0.714629	-0.989284	-0.006531
O53	O	-0.381295	-0.655950	0.326802
O54	O	-0.047962	-0.322617	0.660135
N55	N	-0.713717	-0.893899	-0.101908
N56	N	-0.380384	-0.560566	0.231425
N57	N	-0.047051	-0.227232	0.564758
C58	C	-0.687015	-0.842332	-0.153442
C59	C	-0.353681	-0.508998	0.179891
C60	C	-0.020348	-0.175665	0.513224
O61	O	-0.714640	-0.798475	-0.197267
O62	O	-0.381307	-0.465142	0.136066
O63	O	-0.047974	-0.131809	0.469400
C64	C	-0.473357	-0.842312	-0.153449
C65	C	-0.140024	-0.508979	0.179885
C66	C	0.193310	-0.175645	0.513218
C67	C	-0.446644	-0.893877	-0.101919
C68	C	-0.113311	-0.560543	0.231414
C69	C	0.220022	-0.227210	0.564747
C70	C	-0.446631	-0.996998	0.001138
C71	C	-0.113297	-0.663665	0.334471
C72	C	0.220036	-0.330332	0.667804
C73	C	-0.393219	-0.996996	0.001132
C74	C	-0.059886	-0.663663	0.334465
C75	C	0.273447	-0.330330	0.667799
C76	C	-0.366520	-0.945434	-0.050400
C77	C	-0.033187	-0.612101	0.282934
C78	C	0.300146	-0.278768	0.616267
C79	C	-0.393233	-0.893875	-0.101925
C80	C	-0.059900	-0.560541	0.231408
C81	C	0.273434	-0.227208	0.564741
C82	C	-0.446655	-0.790742	-0.204978
C83	C	-0.113322	-0.457408	0.128355
C84	C	0.220011	-0.124075	0.461688
C85	C	-0.393238	-0.790740	-0.204974
C86	C	-0.059904	-0.457407	0.128359
C87	C	0.273429	-0.124073	0.461693
C88	C	-0.366525	-0.842305	-0.153445
C89	C	-0.033192	-0.508971	0.179888
C90	C	0.300142	-0.175638	0.513222
C91	C	-0.313123	-0.842311	-0.153463
C92	C	0.020211	-0.508978	0.179871
C93	C	0.353544	-0.175644	0.513204
N94	N	-0.286407	-0.893867	-0.101932
N95	N	0.046926	-0.560534	0.231402
N96	N	0.380259	-0.227200	0.564735
C97	C	-0.313106	-0.945429	-0.050400
C98	C	0.020227	-0.612095	0.282933
C99	C	0.353560	-0.278762	0.616267
C100	C	-0.799188	-0.842347	-0.153436
C101	C	-0.465855	-0.509013	0.179897
C102	C	-0.132521	-0.175680	0.513230
C103	C	-0.852602	-0.842352	-0.153436
C104	C	-0.519269	-0.509019	0.179897
C105	C	-0.185935	-0.175686	0.513231
C106	C	-0.852586	-0.945475	-0.050370
C107	C	-0.519252	-0.612142	0.282964
C108	C	-0.185919	-0.278808	0.616297
C109	C	-0.799171	-0.945472	-0.050374
C110	C	-0.465837	-0.612139	0.282959
C111	C	-0.132504	-0.278806	0.616292
C112	C	-0.772473	-0.893903	-0.101905
C113	C	-0.439139	-0.560569	0.231428
C114	C	-0.105806	-0.227236	0.564761
C115	C	-0.200938	-0.945421	-0.050417
C116	C	0.132395	-0.612088	0.282916
C117	C	0.465728	-0.278755	0.616250
C118	C	-0.147522	-0.945417	-0.050429
C119	C	0.185811	-0.612084	0.282904
C120	C	0.519145	-0.278750	0.616237
C121	C	-0.147543	-0.842292	-0.153493
C122	C	0.185790	-0.508959	0.179841
C123	C	0.519123	-0.175625	0.513174
C124	C	-0.200955	-0.842299	-0.153483
C125	C	0.132379	-0.508965	0.179850
C126	C	0.465712	-0.175632	0.513184
C127	C	-0.227651	-0.893866	-0.101939
C128	C	0.105682	-0.560533	0.231394
C129	C	0.439016	-0.227200	0.564728
O130	O	-0.285463	-0.798499	-0.197280
O131	O	0.047871	-0.465166	0.136053
O132	O	0.381204	-0.131833	0.469387
O133	O	-0.285471	-0.989268	-0.006571
O134	O	0.047862	-0.655934	0.326763
O135	O	0.381195	-0.322601	0.660096
C136	C	-0.526755	-0.945440	-0.050382
C137	C	-0.193421	-0.612107	0.282951
C138	C	0.139912	-0.278774	0.616285
C139	C	-0.553467	-0.893880	-0.101908
C140	C	-0.220134	-0.560547	0.231426
C141	C	0.113199	-0.227214	0.564759
C142	C	-0.526769	-0.842319	-0.153439
C143	C	-0.193435	-0.508985	0.179894
C144	C	0.139898	-0.175652	0.513228
C145	C	-0.606881	-0.893886	-0.101907
C146	C	-0.273548	-0.560553	0.231426
C147	C	0.059785	-0.227219	0.564760
C148	C	-0.633580	-0.945448	-0.050375
C149	C	-0.300247	-0.612115	0.282958
C150	C	0.033086	-0.278781	0.616291
C151	C	-0.606865	-0.997004	0.001156
C152	C	-0.273532	-0.663671	0.334489
C153	C	0.059802	-0.330337	0.667822
C154	C	-0.553454	-0.997002	0.001150
C155	C	-0.220120	-0.663669	0.334483
C156	C	0.113213	-0.330335	0.667816
C157	C	-0.553484	-0.790763	-0.204970
C158	C	-0.220151	-0.457429	0.128363
C159	C	0.113183	-0.124096	0.461697
C160	C	-0.606895	-0.790769	-0.204961
C161	C	-0.273562	-0.457436	0.128373
C162	C	0.059771	-0.124103	0.461706
C163	C	-0.633594	-0.842331	-0.153429
C164	C	-0.300261	-0.508998	0.179904
C165	C	0.033072	-0.175664	0.513238
N166	N	0.120699	-0.893914	-0.101904
N167	N	0.454032	-0.560581	0.231429
N168	N	0.787366	-0.227247	0.564762
C169	C	-0.000072	-1.032268	-0.096156
C170	C	0.333262	-0.698934	0.237178
C171	C	0.666595	-0.365601	0.570511
C172	C	-0.000074	-1.116286	-0.097494
C173	C	0.333259	-0.782953	0.235839
C174	C	0.666592	-0.449619	0.569172
C175	C	-0.000042	-0.622856	-0.174711
C176	C	0.333291	-0.289523	0.158623
C177	C	0.666624	0.043810	0.491956
C178	C	-0.000049	-0.543913	-0.173448
C179	C	0.333284	-0.210580	0.159885
C180	C	0.666618	0.122754	0.493218
C181	C	-0.000055	-0.513592	-0.103852
C182	C	0.333278	-0.180259	0.229482
C183	C	0.666612	0.153074	0.562815
C184	C	-0.000059	-0.562219	-0.035513
C185	C	0.333274	-0.228886	0.297820
C186	C	0.666607	0.104447	0.631154
C187	C	-0.000056	-0.641161	-0.036776
C188	C	0.333277	-0.307828	0.296557
C189	C	0.666610	0.025505	0.629890
C190	C	-0.000072	-0.243856	-0.030418
C191	C	0.333261	0.089477	0.302915
C192	C	0.666594	0.422810	0.636249
C193	C	-0.000074	-0.164908	-0.029160
C194	C	0.333260	0.168425	0.304173
C195	C	0.666593	0.501758	0.637507
C196	C	-0.000065	-0.146608	-0.167090
C197	C	0.333268	0.186725	0.166243
C198	C	0.666602	0.520058	0.499577
C199	C	-0.000062	-0.225550	-0.168353
C200	C	0.333271	0.107783	0.164980
C201	C	0.666605	0.441117	0.498314
C202	C	-0.000069	-0.274170	-0.100015
C203	C	0.333264	0.059163	0.233319
C204	C	0.666598	0.392496	0.566652
C205	C	-0.000063	-0.359769	-0.101384
C206	C	0.333271	-0.026436	0.231949
C207	C	0.666604	0.306897	0.565282
C208	C	-0.000058	-0.427995	-0.102481
C209	C	0.333276	-0.094661	0.230852
C210	C	0.666609	0.238672	0.564185
C211	C	-0.000056	-0.888102	-0.240322
C212	C	0.333277	-0.554768	0.093011
C213	C	0.666611	-0.221435	0.426345
C214	C	-0.000053	-0.889440	-0.324340
C215	C	0.333281	-0.556107	0.008993
C216	C	0.666614	-0.222773	0.342327
C217	C	-0.000073	-0.966656	0.169090
C218	C	0.333260	-0.633323	0.502423
C219	C	0.666593	-0.299990	0.835756
C220	C	-0.000069	-0.965394	0.248033
C221	C	0.333265	-0.632061	0.581366
C222	C	0.666598	-0.298727	0.914700
C223	C	-0.000062	-0.895798	0.278354
C224	C	0.333272	-0.562464	0.611687
C225	C	0.666605	-0.229131	0.945020
C226	C	-0.000054	-0.827459	0.229727
C227	C	0.333279	-0.494126	0.563060
C228	C	0.666612	-0.160792	0.896393
C229	C	-0.000055	-0.828722	0.150785
C230	C	0.333278	-0.495389	0.484118
C231	C	0.666612	-0.162055	0.817451
C232	C	-0.000050	-0.822364	0.548090
C233	C	0.333284	-0.489030	0.881423
C234	C	0.666617	-0.155697	1.214756
C235	C	-0.000050	-0.821106	0.627038
C236	C	0.333283	-0.487773	0.960371
C237	C	0.666616	-0.154439	1.293704
C238	C	-0.000063	-0.959036	0.645338
C239	C	0.333270	-0.625702	0.978671
C240	C	0.666604	-0.292369	1.312004
C241	C	-0.000064	-0.960299	0.566396
C242	C	0.333269	-0.626966	0.899729
C243	C	0.666603	-0.293632	1.233063
C244	C	-0.000054	-0.891961	0.517776
C245	C	0.333279	-0.558627	0.851109
C246	C	0.666613	-0.225294	1.184442
C247	C	-0.000058	-0.893330	0.432177
C248	C	0.333275	-0.559997	0.765510
C249	C	0.666609	-0.226664	1.098843
C250	C	-0.000061	-0.894427	0.363951
C251	C	0.333272	-0.561094	0.697285
C252	C	0.666605	-0.227761	1.030618
H253	H	-0.125774	-0.987410	-0.008468
H254	H	0.207559	-0.654076	0.324865
H255	H	0.540892	-0.320743	0.658199
H256	H	-0.222705	-0.800317	-0.195450
H257	H	0.110629	-0.466984	0.137883
H258	H	0.443962	-0.133651	0.471217
H259	H	-0.000075	-1.021038	0.287617
H260	H	0.333259	-0.687705	0.620951
H261	H	0.666592	-0.354372	0.954284
H262	H	-0.777424	-0.987460	-0.008415
H263	H	-0.444091	-0.654127	0.324919
H264	H	-0.110758	-0.320793	0.658252
H265	H	-0.874333	-0.987460	-0.008412
H266	H	-0.540999	-0.654126	0.324922
H267	H	-0.207666	-0.320793	0.658255
H268	H	-0.000042	-0.766718	0.508512
H269	H	0.333292	-0.433385	0.841845
H270	H	0.666625	-0.100052	1.175179
Br271	Br	-0.643142	-0.720787	-0.274904
Br272	Br	-0.309809	-0.387454	0.058429
Br273	Br	0.023524	-0.054120	0.391763
H274	H	-0.000079	-0.283434	0.025228
H275	H	0.333255	0.049899	0.358561
H276	H	0.666588	0.383233	0.691894
H277	H	-0.628612	-1.038990	0.043112
H278	H	-0.295279	-0.705657	0.376446
H279	H	0.038055	-0.372324	0.709779
H280	H	-0.000037	-0.647537	-0.231384
H281	H	0.333296	-0.314204	0.101949
H282	H	0.666630	0.019130	0.435283
H283	H	-0.000046	-0.504328	-0.229092
H284	H	0.333287	-0.170995	0.104241
H285	H	0.666621	0.162338	0.437574
Br286	Br	-0.000056	-0.080619	-0.259837
Br287	Br	0.333278	0.252714	0.073496
Br288	Br	0.666611	0.586047	0.406830
Br289	Br	-0.000041	-0.726647	0.668186
Br290	Br	0.333292	-0.393314	1.001520
Br291	Br	0.666625	-0.059980	1.334853
H292	H	-0.000045	-0.770792	0.254420
H293	H	0.333288	-0.437459	0.587753
H294	H	0.666621	-0.104126	0.921087
Br295	Br	-0.000043	-0.735980	0.084797
Br296	Br	0.333290	-0.402647	0.418131
Br297	Br	0.666624	-0.069314	0.751464
Br298	Br	-0.237160	-1.015406	0.019537
Br299	Br	0.096173	-0.682073	0.352870
Br300	Br	0.429507	-0.348740	0.686204
Br301	Br	-0.000073	-1.054754	0.525250
Br302	Br	0.333260	-0.721421	0.858584
Br303	Br	0.666594	-0.388088	1.191917
H304	H	-0.000082	-1.023330	0.144409
H305	H	0.333251	-0.689997	0.477742
H306	H	0.666585	-0.356663	0.811076
H307	H	-0.371473	-1.038982	0.043093
H308	H	-0.038140	-0.705649	0.376427
H309	H	0.295194	-0.372316	0.709760
H310	H	-0.000072	-0.537526	0.021154
H311	H	0.333262	-0.204193	0.354487
H312	H	0.666595	0.129141	0.687820
H313	H	-0.000055	-0.250232	-0.225025
H314	H	0.333279	0.083101	0.108308
H315	H	0.666612	0.416434	0.441641
H316	H	-0.000059	-0.680748	0.018868
H317	H	0.333275	-0.347415	0.352201
H318	H	0.666608	-0.014082	0.685535
Br319	Br	-0.482856	-1.066983	0.071084
Br320	Br	-0.149522	-0.733650	0.404417
Br321	Br	0.183811	-0.400316	0.737750
Br322	Br	-0.888849	-0.772382	-0.223383
Br323	Br	-0.555516	-0.439048	0.109950
Br324	Br	-0.222182	-0.105715	0.443283
H325	H	-0.000079	-0.140225	0.027517
H326	H	0.333254	0.193108	0.360850
H327	H	0.666587	0.526442	0.694184
H328	H	-0.777454	-0.800351	-0.195401
H329	H	-0.444121	-0.467018	0.137932
H330	H	-0.110787	-0.133685	0.471266
Br331	Br	-0.482897	-0.720758	-0.274914
Br332	Br	-0.149564	-0.387424	0.058420
Br333	Br	0.183769	-0.054091	0.391753
H334	H	-0.371503	-0.748743	-0.246936
H335	H	-0.038169	-0.415410	0.086397
H336	H	0.295164	-0.082077	0.419731
H337	H	-0.125797	-0.800313	-0.195451
H338	H	0.207537	-0.466980	0.137882
H339	H	0.540870	-0.133646	0.471215
H340	H	-0.000069	-1.014680	0.684934
H341	H	0.333265	-0.681347	1.018268
H342	H	0.666598	-0.348013	1.351601
H343	H	-0.531708	-1.038991	0.043110
H344	H	-0.198375	-0.705657	0.376443
H345	H	0.134959	-0.372324	0.709776
H346	H	-0.531750	-0.748774	-0.246932
H347	H	-0.198416	-0.415440	0.086401
H348	H	0.134917	-0.082107	0.419734
