data_functionalizedCrystal
_audit_creation_method	'MofGen! by Chris Wilmer'
_symmetry_space_group_name_H-M	'P1'
_symmetry_Int_Tables_number	1
_symmetry_cell_setting	triclinic
loop_
_symmetry_equiv_pos_as_xyz
  x,y,z
_cell_length_a	35.277628
_cell_length_b	35.288095
_cell_length_c	35.277682
_cell_angle_alpha	59.997929
_cell_angle_beta	89.998958
_cell_angle_gamma	60.000166
loop_
_atom_site_label
_atom_site_type_symbol
_atom_site_fract_x
_atom_site_fract_y
_atom_site_fract_z
O1	O	-0.323087	-0.271234	0.011271
O2	O	-0.267964	-0.193634	-0.011228
O3	O	-0.267962	-0.271233	0.066395
O4	O	-0.323089	-0.193635	-0.066351
O5	O	-0.204915	-0.334261	0.066394
O6	O	-0.204918	-0.256661	-0.011228
O7	O	-0.260040	-0.334261	0.011271
Cu8	Cu	-0.226722	-0.301216	0.000022
Cu9	Cu	-0.301282	-0.226679	0.000022
O10	O	-0.260043	-0.256662	-0.066351
C11	C	-0.163481	-0.071298	-0.023519
C12	C	-0.186872	-0.024531	-0.020298
C13	C	-0.117860	-0.093995	-0.023838
C14	C	-0.163483	-0.139918	-0.023524
C15	C	-0.186875	-0.166518	-0.020308
C16	C	-0.117862	-0.162510	-0.023843
C17	C	-0.094838	-0.139921	-0.023519
C18	C	-0.044836	-0.166525	-0.020298
C19	C	-0.186401	-0.093991	-0.023843
C20	C	-0.004439	-0.188019	-0.017694
C21	C	-0.205769	0.013252	-0.017695
C22	C	-0.205774	-0.188010	-0.017709
C23	C	0.046241	-0.214983	-0.014429
C24	C	-0.229477	0.060653	-0.014430
C25	C	-0.229483	-0.214971	-0.014450
C26	C	-0.500364	-0.466062	0.034181
C27	C	-0.477341	-0.511990	0.034503
C28	C	-0.431722	-0.466060	0.034178
C29	C	-0.408804	-0.511988	0.034500
C30	C	-0.431721	-0.534685	0.034181
C31	C	-0.477342	-0.443470	0.034500
C32	C	-0.665895	-0.342485	0.021756
C33	C	-0.712772	-0.317221	0.018243
C34	C	-0.736287	-0.338907	0.016481
C35	C	-0.787116	-0.311512	0.012664
C36	C	-0.712921	-0.385861	0.018236
C37	C	-0.666047	-0.411125	0.021755
C38	C	-0.642533	-0.389434	0.023515
C39	C	-0.389805	-0.687746	0.021758
C40	C	-0.368199	-0.731097	0.018245
C41	C	-0.322995	-0.752841	0.016478
C42	C	-0.299567	-0.799839	0.012662
C43	C	-0.299393	-0.731235	0.018230
C44	C	-0.320995	-0.687892	0.021751
C45	C	-0.366205	-0.666148	0.023512
C46	C	-0.389808	-0.342477	0.021744
C47	C	-0.368205	-0.317208	0.018222
C48	C	-0.322998	-0.338892	0.016457
C49	C	-0.299573	-0.311495	0.012637
C50	C	-0.299398	-0.385842	0.018210
C51	C	-0.321003	-0.411107	0.021730
C52	C	-0.366208	-0.389423	0.023501
C53	C	-0.591706	-0.416830	0.027326
C54	C	-0.551191	-0.438667	0.030366
C55	C	-0.408299	-0.438663	0.030360
C56	C	-0.389629	-0.416824	0.027317
C57	C	-0.408298	-0.581682	0.030365
C58	C	-0.389627	-0.619146	0.027325
C59	C	-0.432024	-0.061845	-0.438511
C60	C	-0.477645	-0.015917	-0.461431
C61	C	-0.432025	-0.061844	-0.369869
C62	C	-0.477645	-0.015916	-0.392892
C63	C	-0.500668	0.006779	-0.438513
C64	C	-0.409106	-0.084435	-0.392891
C65	C	-0.320834	-0.185425	-0.480424
C66	C	-0.299076	-0.210690	-0.502029
C67	C	-0.322531	-0.189005	-0.547237
C68	C	-0.298945	-0.216401	-0.570661
C69	C	-0.367745	-0.142051	-0.570839
C70	C	-0.389497	-0.116787	-0.549237
C71	C	-0.366040	-0.138476	-0.504027
C72	C	-0.666200	0.159838	-0.549704
C73	C	-0.713077	0.203188	-0.571462
C74	C	-0.736595	0.224934	-0.548009
C75	C	-0.787423	0.271931	-0.571594
C76	C	-0.713230	0.203329	-0.502796
C77	C	-0.666353	0.159987	-0.481041
C78	C	-0.642841	0.138241	-0.504500
C79	C	-0.320836	-0.185423	-0.204335
C80	C	-0.299080	-0.210691	-0.157455
C81	C	-0.322536	-0.189006	-0.133940
C82	C	-0.298950	-0.216402	-0.083110
C83	C	-0.367748	-0.142056	-0.157305
C84	C	-0.389502	-0.116792	-0.204182
C85	C	-0.366040	-0.138478	-0.227695
C86	C	-0.389632	-0.111079	-0.480604
C87	C	-0.408436	-0.089241	-0.461934
C88	C	-0.408437	-0.089240	-0.319041
C89	C	-0.389634	-0.111078	-0.278525
C90	C	-0.551496	0.053776	-0.462102
C91	C	-0.592011	0.091239	-0.480906
O92	O	0.196122	-0.334274	0.011291
O93	O	0.063378	-0.256674	-0.011208
O94	O	0.140994	-0.334276	0.066414
O95	O	0.118506	-0.256671	-0.066331
O96	O	0.140996	-0.271251	0.066419
O97	O	0.063380	-0.193649	-0.011203
O98	O	0.196124	-0.271249	0.011296
Cu99	Cu	0.129752	-0.226694	0.000047
Cu100	Cu	0.129750	-0.301228	0.000041
O101	O	0.118508	-0.193647	-0.066327
O102	O	-0.260036	0.184774	0.011294
O103	O	-0.204910	0.074561	-0.011204
O104	O	-0.204913	0.074554	0.066418
O105	O	-0.260033	0.184781	-0.066328
O106	O	-0.267961	0.074557	0.066413
O107	O	-0.267958	0.074564	-0.011209
O108	O	-0.323083	0.184777	0.011289
Cu109	Cu	-0.301278	0.129670	0.000040
Cu110	Cu	-0.226716	0.129668	0.000045
O111	O	-0.323081	0.184784	-0.066333
O112	O	-0.936929	0.397535	-0.602582
O113	O	-0.804185	0.287317	-0.547454
O114	O	-0.881802	0.287315	-0.547452
O115	O	-0.859312	0.397537	-0.602584
O116	O	-0.881801	0.287314	-0.610498
O117	O	-0.804183	0.287316	-0.610500
O118	O	-0.936927	0.397533	-0.665628
Cu119	Cu	-0.870555	0.342425	-0.643820
Cu120	Cu	-0.870557	0.342426	-0.569261
O121	O	-0.859310	0.397536	-0.665629
O122	O	-0.267961	-0.271234	-0.665316
O123	O	-0.323086	-0.193638	-0.610192
O124	O	-0.323085	-0.271236	-0.610189
O125	O	-0.267962	-0.193636	-0.665319
O126	O	-0.260038	-0.334264	-0.547142
O127	O	-0.260039	-0.256666	-0.547145
O128	O	-0.204914	-0.334262	-0.602269
Cu129	Cu	-0.226720	-0.301219	-0.568950
Cu130	Cu	-0.301280	-0.226681	-0.643511
O131	O	-0.204915	-0.256664	-0.602272
C132	C	-0.094840	-0.456607	0.293255
C133	C	-0.044837	-0.503376	0.316647
C134	C	-0.117862	-0.433912	0.316174
C135	C	-0.163483	-0.387984	0.224612
C136	C	-0.186875	-0.361381	0.174609
C137	C	-0.186401	-0.365393	0.247634
C138	C	-0.163483	-0.387984	0.293255
C139	C	-0.186874	-0.361382	0.316646
C140	C	-0.117862	-0.433912	0.247635
C141	C	-0.205772	-0.339889	0.335543
C142	C	-0.004440	-0.541160	0.335545
C143	C	-0.205773	-0.339888	0.134212
C144	C	-0.229480	-0.312925	0.359250
C145	C	0.046239	-0.588562	0.359254
C146	C	-0.229481	-0.312924	0.083532
C147	C	0.153295	-0.388013	0.293279
C148	C	0.150076	-0.361413	0.316673
C149	C	0.153614	-0.433940	0.316196
C150	C	0.153297	-0.388008	0.224634
C151	C	0.150079	-0.361403	0.174632
C152	C	0.153616	-0.433935	0.247655
C153	C	0.153293	-0.456633	0.293275
C154	C	0.150072	-0.503401	0.316665
C155	C	0.153617	-0.365420	0.247659
C156	C	0.147469	-0.541185	0.335561
C157	C	0.147474	-0.339922	0.335572
C158	C	0.147479	-0.339908	0.134234
C159	C	0.144204	-0.588587	0.359267
C160	C	0.144211	-0.312962	0.359282
C161	C	0.144218	-0.312942	0.083555
C162	C	-0.163482	-0.139963	0.293267
C163	C	-0.186875	-0.166567	0.316654
C164	C	-0.117861	-0.162559	0.316187
C165	C	-0.163482	-0.071333	0.224628
C166	C	-0.186873	-0.024557	0.174627
C167	C	-0.117860	-0.094033	0.247653
C168	C	-0.094838	-0.139967	0.293272
C169	C	-0.044835	-0.166574	0.316665
C170	C	-0.186401	-0.094030	0.247648
C171	C	-0.004438	-0.188070	0.335563
C172	C	-0.205773	-0.188061	0.335549
C173	C	-0.205771	0.013233	0.134231
C174	C	0.046242	-0.215038	0.359273
C175	C	-0.229482	-0.215026	0.359253
C176	C	-0.229479	0.060643	0.083553
C177	C	0.095627	0.006487	-0.438489
C178	C	0.095306	-0.016206	-0.461409
C179	C	0.095623	-0.062137	-0.369847
C180	C	0.095303	-0.084726	-0.392871
C181	C	0.095625	-0.062133	-0.438492
C182	C	0.095305	-0.016210	-0.392868
C183	C	0.108059	0.159543	-0.480399
C184	C	0.111575	0.202893	-0.502003
C185	C	0.113340	0.224640	-0.547210
C186	C	0.117161	0.271637	-0.570634
C187	C	0.111587	0.203038	-0.570814
C188	C	0.108065	0.159695	-0.549212
C189	C	0.106302	0.137948	-0.504002
C190	C	0.108054	-0.116452	-0.549685
C191	C	0.111568	-0.141562	-0.571444
C192	C	0.113332	-0.188519	-0.547992
C193	C	0.117148	-0.215753	-0.571578
C194	C	0.111577	-0.210363	-0.502779
C195	C	0.108055	-0.185249	-0.481023
C196	C	0.106297	-0.138292	-0.504481
C197	C	0.108046	-0.116473	-0.204312
C198	C	0.111564	-0.141591	-0.157432
C199	C	0.113326	-0.188548	-0.133918
C200	C	0.117142	-0.215786	-0.083088
C201	C	0.111574	-0.210388	-0.157283
C202	C	0.108058	-0.185270	-0.204161
C203	C	0.106290	-0.138308	-0.227673
C204	C	0.102487	0.090947	-0.480580
C205	C	0.099445	0.053484	-0.461911
C206	C	0.099438	-0.089371	-0.319019
C207	C	0.102477	-0.111078	-0.278503
C208	C	0.099442	-0.089362	-0.462081
C209	C	0.102482	-0.111066	-0.480886
O210	O	0.118477	-0.256700	0.452885
O211	O	0.140984	-0.334299	0.397762
O212	O	0.063360	-0.256699	0.397752
O213	O	0.196101	-0.334300	0.452895
O214	O	0.063367	-0.193672	0.334708
O215	O	0.140992	-0.271271	0.334718
O216	O	0.118484	-0.193673	0.389842
Cu217	Cu	0.129739	-0.226717	0.356523
Cu218	Cu	0.129730	-0.301254	0.431080
O219	O	0.196108	-0.271272	0.389852
C220	C	-0.500364	0.533998	-0.438484
C221	C	-0.477341	0.556591	-0.461399
C222	C	-0.431721	0.465364	-0.369840
C223	C	-0.408802	0.488061	-0.392859
C224	C	-0.431720	0.533995	-0.438478
C225	C	-0.477342	0.488064	-0.392865
C226	C	-0.665898	0.588334	-0.480407
C227	C	-0.712776	0.613450	-0.502014
C228	C	-0.736291	0.660414	-0.547220
C229	C	-0.787122	0.687654	-0.570647
C230	C	-0.712926	0.682257	-0.570819
C231	C	-0.666050	0.657138	-0.549214
C232	C	-0.642536	0.610174	-0.504006
C233	C	-0.389802	0.657585	-0.549654
C234	C	-0.368196	0.682850	-0.571408
C235	C	-0.322990	0.661164	-0.547952
C236	C	-0.299561	0.688558	-0.571532
C237	C	-0.299388	0.614205	-0.502740
C238	C	-0.320990	0.588935	-0.480990
C239	C	-0.366202	0.610633	-0.504452
C240	C	-0.389804	0.312282	-0.204314
C241	C	-0.368201	0.268929	-0.157436
C242	C	-0.322993	0.247179	-0.133918
C243	C	-0.299567	0.200174	-0.083089
C244	C	-0.299392	0.268786	-0.157278
C245	C	-0.320998	0.312139	-0.204154
C246	C	-0.366204	0.333881	-0.227670
C247	C	-0.591708	0.582942	-0.480581
C248	C	-0.551193	0.561234	-0.461909
C249	C	-0.408297	0.418359	-0.319013
C250	C	-0.389626	0.380890	-0.278499
C251	C	-0.408296	0.561393	-0.462062
C252	C	-0.389624	0.583232	-0.480862
H253	H	-0.371321	-0.530978	0.035012
C254	C	-0.092888	-0.068373	0.222689
C255	C	-0.118201	-0.017748	0.172402
C256	C	-0.093229	0.007911	0.147441
C257	C	-0.042943	-0.017056	0.172767
C258	C	-0.017626	-0.067684	0.223057
C259	C	-0.042599	-0.093343	0.248018
H260	H	-0.155429	0.000737	0.153651
H261	H	-0.111970	0.045389	0.110212
H262	H	-0.024457	0.001937	0.154289
H263	H	0.019601	-0.086169	0.241808
H264	H	-0.023858	-0.130821	0.285247
H265	H	-0.426617	-0.324814	0.023182
H266	H	-0.223885	-0.074993	-0.024363
H267	H	-0.099381	-0.199518	0.353671
C268	C	-0.092888	-0.068337	-0.024536
C269	C	-0.042603	-0.093299	-0.024890
C270	C	-0.017631	-0.067642	-0.025590
C271	C	-0.042945	-0.017024	-0.025934
C272	C	-0.093233	0.007941	-0.025579
C273	C	-0.118205	-0.017716	-0.024880
H274	H	-0.023862	-0.130772	-0.024635
H275	H	0.019595	-0.086123	-0.025852
H276	H	-0.024459	0.001969	-0.026452
H277	H	-0.111974	0.045414	-0.025834
H278	H	-0.155431	0.000765	-0.024617
C279	C	0.094593	0.009454	-0.367899
C280	C	0.094227	-0.015504	-0.317616
C281	C	0.093509	0.010163	-0.292649
C282	C	0.093157	0.060787	-0.317964
C283	C	0.093524	0.085748	-0.368250
C284	C	0.094241	0.060081	-0.393217
H285	H	0.094487	-0.052981	-0.298874
H286	H	0.093238	-0.008315	-0.255424
H287	H	0.092626	0.079787	-0.299482
H288	H	0.093263	0.123225	-0.386992
H289	H	0.094513	0.078559	-0.430441
C290	C	-0.295044	-0.462752	0.023660
C291	C	-0.278389	-0.462305	-0.016819
C292	C	-0.252430	-0.513950	-0.014890
C293	C	-0.243126	-0.566042	0.027519
C294	C	-0.259780	-0.566491	0.068002
C295	C	-0.285739	-0.514846	0.066072
H296	H	-0.285277	-0.423742	-0.048215
H297	H	-0.240102	-0.513617	-0.044858
H298	H	-0.223909	-0.604272	0.028947
H299	H	-0.252893	-0.605054	0.099398
H300	H	-0.298068	-0.515179	0.096040
C301	C	-0.738793	0.733913	-0.620543
C302	C	-0.743003	0.784122	-0.631252
C303	C	-0.768870	0.835780	-0.680977
C304	C	-0.790527	0.837229	-0.719994
C305	C	-0.786317	0.787019	-0.709286
C306	C	-0.760450	0.735361	-0.659560
H307	H	-0.726971	0.783051	-0.602368
H308	H	-0.771986	0.872949	-0.688904
H309	H	-0.809675	0.875470	-0.756804
H310	H	-0.802349	0.788090	-0.738169
H311	H	-0.757334	0.698192	-0.651634
C312	C	-0.249348	-0.262333	-0.131758
C313	C	-0.239642	-0.314431	-0.088957
C314	C	-0.189908	-0.366072	-0.063262
C315	C	-0.149880	-0.365614	-0.080368
C316	C	-0.159586	-0.313514	-0.123172
C317	C	-0.209320	-0.261874	-0.148867
H318	H	-0.269273	-0.314772	-0.076292
H319	H	-0.182723	-0.404639	-0.031576
H320	H	-0.113064	-0.403841	-0.061347
H321	H	-0.129954	-0.313174	-0.135837
H322	H	-0.216504	-0.223306	-0.180553
H323	H	-0.262584	-0.748943	0.016794
C324	C	-0.502619	0.009748	-0.512069
C325	C	-0.547620	0.015006	-0.524513
C326	C	-0.572594	0.040672	-0.575149
C327	C	-0.552568	0.061080	-0.613341
C328	C	-0.507565	0.055823	-0.600897
C329	C	-0.482590	0.030156	-0.550262
H330	H	-0.562446	-0.000102	-0.496240
H331	H	-0.605909	0.044564	-0.584360
H332	H	-0.571056	0.080080	-0.650825
H333	H	-0.492738	0.070930	-0.629170
H334	H	-0.449276	0.026264	-0.541050
H335	H	-0.223884	-0.075035	0.229163
C336	C	-0.502307	-0.393544	0.035196
C337	C	-0.482277	-0.395802	0.075640
C338	C	-0.507239	-0.345878	0.076336
C339	C	-0.552232	-0.293697	0.036589
C340	C	-0.572265	-0.291438	-0.003857
C341	C	-0.547302	-0.341362	-0.004554
H342	H	-0.448968	-0.434431	0.105066
H343	H	-0.492409	-0.347551	0.106278
H344	H	-0.570710	-0.256741	0.037105
H345	H	-0.605573	-0.252809	-0.033283
H346	H	-0.562132	-0.339689	-0.034495
C347	C	0.154311	-0.459596	0.222687
C348	C	0.194753	-0.517796	0.242715
C349	C	0.195447	-0.543456	0.217750
C350	C	0.155700	-0.510917	0.172756
C351	C	0.115255	-0.452713	0.152725
C352	C	0.114561	-0.427053	0.177690
H353	H	0.224179	-0.541886	0.276025
H354	H	0.225387	-0.586542	0.232578
H355	H	0.156214	-0.529912	0.154275
H356	H	0.085830	-0.428623	0.119415
H357	H	0.084621	-0.383967	0.162862
H358	H	-0.495827	-0.530983	0.035020
H359	H	-0.426614	0.329984	-0.223458
C360	C	-0.092903	-0.459571	0.366815
C361	C	-0.075133	-0.517771	0.405002
C362	C	-0.050180	-0.543429	0.455642
C363	C	-0.042997	-0.510887	0.468095
C364	C	-0.060768	-0.452684	0.429907
C365	C	-0.085721	-0.427026	0.379267
H366	H	-0.080450	-0.541863	0.395784
H367	H	-0.037025	-0.586515	0.483911
H368	H	-0.024525	-0.529881	0.505582
H369	H	-0.055451	-0.428592	0.439125
H370	H	-0.098875	-0.383940	0.350998
H371	H	-0.387425	-0.278978	0.016792
C372	C	0.113511	0.226649	-0.476038
C373	C	0.153018	0.191235	-0.429988
C374	C	0.154955	0.214990	-0.404022
C375	C	0.117385	0.274158	-0.424107
C376	C	0.077876	0.309575	-0.470160
C377	C	0.075938	0.285821	-0.496125
H378	H	0.180831	0.147432	-0.415118
H379	H	0.184203	0.188772	-0.369931
H380	H	0.118819	0.291743	-0.404886
H381	H	0.050062	0.353379	-0.485030
H382	H	0.046690	0.312039	-0.530217
H383	H	0.094785	-0.121682	-0.374387
C384	C	-0.640350	0.681164	-0.575170
C385	C	-0.666212	0.732821	-0.624892
C386	C	-0.640512	0.756849	-0.650848
C387	C	-0.588950	0.729220	-0.627081
C388	C	-0.563085	0.677560	-0.577355
C389	C	-0.588784	0.653532	-0.551400
H390	H	-0.704384	0.753277	-0.642488
H391	H	-0.659660	0.795092	-0.687658
H392	H	-0.569925	0.747007	-0.646295
H393	H	-0.524912	0.657104	-0.559759
H394	H	-0.569637	0.615289	-0.514590
C395	C	-0.393551	-0.118199	-0.131440
C396	C	-0.410170	-0.061127	-0.148420
C397	C	-0.435972	-0.037271	-0.122556
C398	C	-0.445156	-0.070487	-0.079711
C399	C	-0.428538	-0.127562	-0.062729
C400	C	-0.402735	-0.151418	-0.088593
H401	H	-0.403371	-0.036535	-0.180138
H402	H	-0.448274	0.004980	-0.135128
H403	H	-0.464257	-0.052828	-0.060565
H404	H	-0.435336	-0.152154	-0.031010
H405	H	-0.390433	-0.193669	-0.076021
H406	H	-0.099372	-0.452898	0.229148
H407	H	0.154122	-0.452930	0.353678
C408	C	-0.295026	-0.209276	-0.430700
C409	C	-0.245294	-0.260913	-0.404741
C410	C	-0.219488	-0.284761	-0.355018
C411	C	-0.243414	-0.256971	-0.331254
C412	C	-0.293149	-0.205331	-0.357212
C413	C	-0.318955	-0.181484	-0.406935
H414	H	-0.227580	-0.281488	-0.422333
H415	H	-0.182670	-0.322988	-0.335802
H416	H	-0.224311	-0.274624	-0.294446
H417	H	-0.310863	-0.184757	-0.339620
H418	H	-0.355773	-0.143256	-0.426151
H419	H	-0.223883	-0.328432	0.229146
H420	H	-0.099380	-0.199466	-0.024359
H421	H	0.154133	-0.328462	0.229178
H422	H	0.094791	0.002793	-0.498893
C423	C	0.113509	-0.262040	-0.131420
C424	C	0.073037	-0.261673	-0.148403
C425	C	0.074972	-0.313322	-0.122541
C426	C	0.117379	-0.365339	-0.079696
C427	C	0.157854	-0.365708	-0.062711
C428	C	0.155919	-0.314058	-0.088573
H429	H	0.041642	-0.223165	-0.180121
H430	H	0.045009	-0.313049	-0.135115
H431	H	0.118811	-0.403573	-0.060552
H432	H	0.189249	-0.404215	-0.030993
H433	H	0.185882	-0.314332	-0.075999
C434	C	0.113490	-0.117569	-0.131731
C435	C	0.152989	-0.111018	-0.127641
C436	C	0.154913	-0.086994	-0.101941
C437	C	0.117336	-0.069520	-0.080330
C438	C	0.077834	-0.076070	-0.084419
C439	C	0.075911	-0.100094	-0.110119
H440	H	0.180808	-0.123954	-0.143640
H441	H	0.184155	-0.082145	-0.098914
H442	H	0.118760	-0.051735	-0.061304
H443	H	0.050015	-0.063134	-0.068420
H444	H	0.046668	-0.104943	-0.113146
H445	H	-0.426614	0.675254	-0.568760
H446	H	0.106608	-0.078237	-0.223453
C447	C	-0.738473	-0.265573	0.016307
C448	C	-0.721373	-0.266011	0.056781
C449	C	-0.747075	-0.214361	0.054844
C450	C	-0.789875	-0.162273	0.012432
C451	C	-0.806976	-0.161832	-0.028044
C452	C	-0.781275	-0.213482	-0.026107
H453	H	-0.689688	-0.304572	0.088179
H454	H	-0.734415	-0.214687	0.084808
H455	H	-0.808901	-0.124038	0.010998
H456	H	-0.838662	-0.123272	-0.059442
H457	H	-0.793935	-0.213156	-0.056071
C458	C	0.113528	0.226959	-0.620539
C459	C	0.075960	0.286169	-0.659552
C460	C	0.077902	0.310089	-0.709279
C461	C	0.117413	0.274800	-0.719994
C462	C	0.154984	0.215587	-0.680980
C463	C	0.153042	0.191666	-0.631253
H464	H	0.046709	0.312295	-0.651622
H465	H	0.050089	0.353923	-0.738160
H466	H	0.118851	0.292507	-0.756805
H467	H	0.184235	0.189460	-0.688910
H468	H	0.180855	0.147833	-0.602372
C469	C	-0.738787	-0.409714	0.016299
C470	C	-0.760441	-0.427068	0.053871
C471	C	-0.786306	-0.450923	0.051933
C472	C	-0.790519	-0.457425	0.012423
C473	C	-0.768864	-0.440071	-0.025152
C474	C	-0.742999	-0.416216	-0.023215
H475	H	-0.757323	-0.422255	0.083121
H476	H	-0.802336	-0.463769	0.079749
H477	H	-0.809666	-0.475084	0.010988
H478	H	-0.771982	-0.444883	-0.054403
H479	H	-0.726969	-0.403369	-0.051030
H480	H	-0.647026	-0.449354	0.023185
C481	C	-0.439532	-0.663831	0.023699
C482	C	-0.465491	-0.687595	0.021775
C483	C	-0.515219	-0.663677	0.023715
C484	C	-0.538986	-0.615994	0.027579
C485	C	-0.513027	-0.592227	0.029504
C486	C	-0.463300	-0.616146	0.027564
H487	H	-0.447897	-0.722895	0.018914
H488	H	-0.534435	-0.681270	0.022290
H489	H	-0.575797	-0.598288	0.029015
H490	H	-0.530621	-0.556928	0.032364
H491	H	-0.444083	-0.598552	0.028989
H492	H	0.106623	0.141841	-0.443588
C493	C	0.106137	0.135934	-0.575173
C494	C	0.108080	0.159850	-0.624898
C495	C	0.106154	0.136086	-0.650858
C496	C	0.102284	0.088407	-0.627095
C497	C	0.100341	0.064488	-0.577367
C498	C	0.102267	0.088251	-0.551406
H499	H	0.110945	0.195147	-0.642491
H500	H	0.107593	0.153793	-0.687670
H501	H	0.100858	0.070816	-0.646312
H502	H	0.097476	0.029190	-0.559774
H503	H	0.100828	0.070545	-0.514595
C504	C	0.113505	-0.117540	-0.621173
C505	C	0.073032	-0.060420	-0.661210
C506	C	0.074971	-0.036398	-0.710938
C507	C	0.117382	-0.069496	-0.720630
C508	C	0.157858	-0.126619	-0.680591
C509	C	0.155919	-0.150641	-0.630863
H510	H	0.041634	-0.035916	-0.654037
H511	H	0.045008	0.005889	-0.740577
H512	H	0.118817	-0.051713	-0.757442
H513	H	0.189256	-0.151123	-0.687764
H514	H	0.185882	-0.192928	-0.601224
H515	H	0.106619	-0.078217	-0.568789
H516	H	-0.646754	-0.324820	0.023190
H517	H	-0.495832	0.469078	-0.374381
H518	H	0.113006	-0.248593	-0.483685
C519	C	0.106124	-0.209275	-0.431292
C520	C	0.108064	-0.260925	-0.405491
C521	C	0.106135	-0.284952	-0.355759
C522	C	0.102267	-0.257329	-0.331828
C523	C	0.100328	-0.205676	-0.357630
C524	C	0.102256	-0.181649	-0.407362
H525	H	0.110927	-0.281376	-0.423205
H526	H	0.107571	-0.323189	-0.336658
H527	H	0.100840	-0.275116	-0.295014
H528	H	0.097464	-0.185225	-0.339916
H529	H	0.100820	-0.143411	-0.426462
H530	H	0.106630	-0.203055	-0.223182
H531	H	-0.387419	-0.748683	0.016816
H532	H	-0.262264	-0.248919	-0.482808
C533	C	-0.394160	0.245161	-0.131740
C534	C	-0.410811	0.221794	-0.148849
C535	C	-0.436771	0.198025	-0.123154
C536	C	-0.446079	0.197623	-0.080350
C537	C	-0.429427	0.220991	-0.063239
C538	C	-0.403468	0.244761	-0.088934
H539	H	-0.403921	0.222091	-0.180536
H540	H	-0.449097	0.180726	-0.135820
H541	H	-0.465295	0.180028	-0.061329
H542	H	-0.436318	0.220695	-0.031551
H543	H	-0.391142	0.262059	-0.076267
H544	H	-0.301775	-0.670305	0.023178
C545	C	-0.394158	0.734505	-0.621134
C546	C	-0.440205	0.784624	-0.631756
C547	C	-0.466168	0.836281	-0.681482
C548	C	-0.446085	0.837819	-0.720586
C549	C	-0.400036	0.787699	-0.709964
C550	C	-0.374073	0.736042	-0.660238
H551	H	-0.455074	0.783487	-0.602809
H552	H	-0.500257	0.873384	-0.689345
H553	H	-0.465305	0.876059	-0.757396
H554	H	-0.385167	0.788836	-0.738912
H555	H	-0.339984	0.698939	-0.652376
C556	C	-0.358163	0.462397	-0.367891
C557	C	-0.332842	0.411770	-0.317604
C558	C	-0.282205	0.386107	-0.292639
C559	C	-0.256887	0.411070	-0.317960
C560	C	-0.282208	0.461699	-0.368250
C561	C	-0.332845	0.487362	-0.393215
H562	H	-0.351584	0.393289	-0.298857
H563	H	-0.263461	0.348628	-0.255411
H564	H	-0.219402	0.392072	-0.299479
H565	H	-0.263466	0.480180	-0.386996
H566	H	-0.351589	0.524842	-0.430443
H567	H	-0.262587	-0.403497	0.016771
C568	C	-0.738778	0.226947	-0.621191
C569	C	-0.742864	0.191535	-0.631817
C570	C	-0.768565	0.215292	-0.681545
C571	C	-0.790180	0.274461	-0.720647
C572	C	-0.786094	0.309876	-0.710023
C573	C	-0.760393	0.286119	-0.660294
H574	H	-0.726863	0.147732	-0.602870
H575	H	-0.771590	0.189076	-0.689410
H576	H	-0.809205	0.292048	-0.757459
H577	H	-0.802095	0.353679	-0.738970
H578	H	-0.757369	0.312336	-0.652429
C579	C	-0.640034	0.536673	-0.430682
C580	C	-0.665731	0.512644	-0.404726
C581	C	-0.639865	0.460985	-0.355001
C582	C	-0.588303	0.433355	-0.331232
C583	C	-0.562604	0.457384	-0.357188
C584	C	-0.588469	0.509043	-0.406913
H585	H	-0.703902	0.533097	-0.422321
H586	H	-0.658890	0.443197	-0.335787
H587	H	-0.569156	0.395113	-0.294423
H588	H	-0.524432	0.436931	-0.339593
H589	H	-0.569444	0.526831	-0.426127
C590	C	-0.640653	0.136222	-0.431310
C591	C	-0.589091	0.088542	-0.407381
C592	C	-0.563392	0.064775	-0.357648
C593	C	-0.589255	0.088689	-0.331845
C594	C	-0.640820	0.136372	-0.355775
C595	C	-0.666519	0.160139	-0.405507
H596	H	-0.569943	0.070837	-0.426481
H597	H	-0.525221	0.029477	-0.339934
H598	H	-0.570232	0.071096	-0.295030
H599	H	-0.659968	0.154077	-0.336674
H600	H	-0.704691	0.195437	-0.423221
C601	C	-0.738477	0.589427	-0.476055
C602	C	-0.721380	0.532312	-0.459403
C603	C	-0.747082	0.508289	-0.433443
C604	C	-0.789880	0.541382	-0.424135
C605	C	-0.806979	0.598501	-0.440788
C606	C	-0.781278	0.622523	-0.466748
H607	H	-0.689696	0.507812	-0.466292
H608	H	-0.734424	0.466006	-0.421115
H609	H	-0.808906	0.523599	-0.404918
H610	H	-0.838663	0.623001	-0.433899
H611	H	-0.793936	0.664807	-0.479076
H612	H	-0.495826	0.593550	-0.498882
H613	H	-0.496128	0.003076	-0.374407
H614	H	-0.262576	0.596543	-0.483644
H615	H	-0.301770	0.550701	-0.444180
H616	H	-0.386837	-0.124397	-0.607648
H617	H	-0.371622	-0.121391	-0.374409
C618	C	-0.249661	0.244863	-0.131413
C619	C	-0.210649	0.185658	-0.109769
C620	C	-0.160920	0.161736	-0.083907
C621	C	-0.150203	0.197020	-0.079687
C622	C	-0.189216	0.256228	-0.101332
C623	C	-0.238945	0.280150	-0.127195
H624	H	-0.218581	0.159536	-0.112892
H625	H	-0.132040	0.117906	-0.067884
H626	H	-0.113391	0.179311	-0.060542
H627	H	-0.181284	0.282350	-0.098209
H628	H	-0.267825	0.323980	-0.143217
H629	H	-0.301778	0.329728	-0.223172
H630	H	-0.426308	-0.078556	-0.568458
C631	C	-0.739095	0.227248	-0.476995
C632	C	-0.743305	0.191957	-0.430979
C633	C	-0.769171	0.215874	-0.405178
C634	C	-0.790828	0.275083	-0.425392
C635	C	-0.786618	0.310378	-0.471411
C636	C	-0.760752	0.286460	-0.497212
H637	H	-0.727273	0.148124	-0.416013
H638	H	-0.772287	0.189747	-0.371112
H639	H	-0.809975	0.292789	-0.406292
H640	H	-0.802650	0.354211	-0.486377
H641	H	-0.757636	0.312588	-0.531278
H642	H	-0.301727	-0.203079	-0.223479
H643	H	-0.426314	-0.078564	-0.223203
H644	H	-0.647059	0.142138	-0.568809
