data_functionalizedCrystal
_audit_creation_method	'MofGen! by Chris Wilmer'
_symmetry_space_group_name_H-M	'P1'
_symmetry_Int_Tables_number	1
_symmetry_cell_setting	triclinic
loop_
_symmetry_equiv_pos_as_xyz
  x,y,z
_cell_length_a	10.654558
_cell_length_b	11.792254
_cell_length_c	9.130313
_cell_angle_alpha	89.998555
_cell_angle_beta	90.000369
_cell_angle_gamma	84.343457
loop_
_atom_site_label
_atom_site_type_symbol
_atom_site_fract_x
_atom_site_fract_y
_atom_site_fract_z
O1	O	1.667385	0.159459	-0.121780
O2	O	1.301866	0.174637	-0.121787
O3	O	1.493487	0.001899	-0.121773
O4	O	1.475763	0.332197	-0.121794
O5	O	1.493485	0.001904	0.121826
O6	O	1.301863	0.174642	0.121812
O7	O	1.667383	0.159464	0.121819
Cu8	Cu	1.484623	0.167053	0.144058
Cu9	Cu	1.484625	0.167048	-0.144026
O10	O	1.475761	0.332202	0.121805
C11	C	1.255070	0.173523	0.000011
C12	C	1.115636	0.170183	0.000009
C13	C	1.492369	-0.040392	0.000026
C14	C	1.489028	-0.166413	0.000025
C15	C	0.919112	0.165485	-0.132777
C16	C	1.050126	0.168613	-0.132779
C17	C	1.050127	0.168612	0.132806
C18	C	0.919117	0.165476	0.132806
C19	C	0.853607	0.163927	-0.265573
C20	C	0.919107	0.165495	-0.398371
C21	C	1.050121	0.168624	-0.398373
C22	C	1.115635	0.170184	-0.265576
C23	C	1.486313	-0.268755	0.000019
C24	C	1.482917	-0.397150	0.000006
C25	C	1.714178	0.160578	0.000017
C26	C	1.853612	0.163918	0.000010
C27	C	1.476879	0.374493	0.000003
C28	C	1.480220	0.500513	-0.000006
N29	N	1.484630	0.167056	0.346681
N30	N	1.484628	0.167036	-0.346649
C31	C	1.569502	0.090594	0.423339
C32	C	1.569498	0.090581	0.576676
C33	C	1.399747	0.243501	0.576682
C34	C	1.399746	0.243509	0.423348
C35	C	1.654386	0.014142	0.346671
C36	C	1.739266	-0.062326	0.423329
C37	C	1.739262	-0.062339	0.576666
C38	C	1.654379	0.014115	0.653345
H39	H	0.746929	0.161383	-0.265587
O40	O	1.830790	-0.144793	0.340617
H41	H	1.928793	-0.129525	0.370045
O42	O	0.848468	0.163801	-0.541604
H43	H	0.778130	0.239603	-0.547981
H44	H	1.330634	0.305770	0.360933
H45	H	1.330640	0.305748	0.639124
O46	O	1.256945	0.173549	-0.265573
H47	H	1.280832	0.251596	-0.208244
H48	H	1.808366	-0.124609	0.639080
H49	H	1.103449	0.169890	-0.506503
H50	H	1.103479	0.169885	0.240923
O51	O	0.848454	0.163795	0.276022
H52	H	0.916008	0.165425	0.368363
O53	O	1.654375	0.014149	0.181287
H54	H	1.727647	-0.051864	0.140851
O55	O	1.654371	0.014107	0.818731
H56	H	1.727653	-0.051904	0.859159
