data_functionalizedCrystal
_audit_creation_method	'MofGen! by Chris Wilmer'
_symmetry_space_group_name_H-M	'P1'
_symmetry_Int_Tables_number	1
_symmetry_cell_setting	triclinic
loop_
_symmetry_equiv_pos_as_xyz
  x,y,z
_cell_length_a	12.811438
_cell_length_b	14.519709
_cell_length_c	11.295483
_cell_angle_alpha	85.898287
_cell_angle_beta	99.539201
_cell_angle_gamma	83.862399
loop_
_atom_site_label
_atom_site_type_symbol
_atom_site_fract_x
_atom_site_fract_y
_atom_site_fract_z
O1	O	1.410829	0.108524	0.251373
O2	O	1.102899	0.124106	0.218124
O3	O	1.265028	-0.017959	0.235619
O4	O	1.248700	0.250588	0.233878
O5	O	1.250787	-0.005500	0.036032
O6	O	1.088659	0.136565	0.018537
O7	O	1.396589	0.120982	0.051785
Cu8	Cu	1.241324	0.129911	0.016937
Cu9	Cu	1.258164	0.115177	0.252973
O10	O	1.234460	0.263047	0.034291
C11	C	1.056370	0.129844	0.114075
C12	C	0.938944	0.128369	0.101396
C13	C	0.765676	0.133081	-0.025263
C14	C	0.876007	0.134468	-0.013355
C15	C	0.891541	0.120886	0.204247
C16	C	0.781209	0.119499	0.192339
C17	C	0.718280	0.125596	0.077580
C18	C	0.607947	0.124202	0.065673
C19	C	0.623482	0.110626	0.283274
C20	C	0.733814	0.112013	0.295182
C21	C	1.257146	-0.046086	0.135743
C22	C	1.254866	-0.148457	0.135496
C23	C	1.246473	-0.523318	0.134621
C24	C	1.248804	-0.419020	0.134864
C25	C	1.250669	-0.335891	0.135058
C26	C	1.253001	-0.231586	0.135303
C27	C	1.443118	0.115244	0.155837
C28	C	1.560545	0.116719	0.168524
C29	C	1.242342	0.291174	0.134169
C30	C	1.244623	0.393545	0.134424
N31	N	1.229487	0.140274	-0.149076
C32	C	1.355219	0.030162	-0.384798
C33	C	1.346281	0.037999	-0.510426
C34	C	1.202669	0.163781	-0.525963
C35	C	1.211607	0.155944	-0.400335
C36	C	1.287885	0.089133	-0.329757
C37	C	1.296828	0.081300	-0.204126
C38	C	1.153210	0.207077	-0.219666
C39	C	1.144273	0.214914	-0.345294
N40	N	1.270010	0.104808	0.418987
H41	H	0.785065	0.107053	0.388616
C42	C	0.571352	0.102384	0.396411
H43	H	0.624637	0.098942	0.466458
H44	H	0.520664	0.155322	0.395443
H45	H	0.536609	0.047780	0.397135
H46	H	1.082165	0.269309	-0.402773
H47	H	1.140557	0.218171	-0.583445
H48	H	1.098386	0.255098	-0.174837
H49	H	1.358940	0.026902	-0.146661
H50	H	1.417335	-0.024232	-0.327331
C51	C	0.538709	0.130995	-0.060552
H52	H	0.466208	0.129115	-0.052919
H53	H	0.545673	0.187804	-0.104084
H54	H	0.561522	0.080268	-0.102523
C55	C	1.420351	-0.026866	-0.570968
H56	H	1.467062	-0.067772	-0.510937
H57	H	1.378744	-0.062103	-0.624106
H58	H	1.460963	0.009262	-0.615198
C59	C	0.928145	0.142700	-0.126478
H60	H	1.002866	0.142660	-0.102954
H61	H	0.914835	0.091496	-0.172281
H62	H	0.898906	0.199040	-0.173985
C63	C	0.696452	0.139783	-0.151488
H64	H	0.740481	0.144443	-0.211034
H65	H	0.661050	0.085757	-0.159796
H66	H	0.645126	0.193301	-0.161513
C67	C	0.960767	0.114192	0.330470
H68	H	0.916740	0.109544	0.390019
H69	H	1.012104	0.060689	0.340500
H70	H	0.996154	0.168233	0.338767
