data_functionalizedCrystal
_audit_creation_method	'MofGen! by Chris Wilmer'
_symmetry_space_group_name_H-M	'P1'
_symmetry_Int_Tables_number	1
_symmetry_cell_setting	triclinic
loop_
_symmetry_equiv_pos_as_xyz
  x,y,z
_cell_length_a	17.038272
_cell_length_b	22.610064
_cell_length_c	17.038272
_cell_angle_alpha	89.995855
_cell_angle_beta	91.111556
_cell_angle_gamma	90.003146
loop_
_atom_site_label
_atom_site_type_symbol
_atom_site_fract_x
_atom_site_fract_y
_atom_site_fract_z
O1	O	1.048759	0.049111	0.170526
O2	O	1.548759	0.549111	0.670526
O3	O	0.820948	0.049128	0.167819
O4	O	1.320948	0.549128	0.667819
O5	O	0.933500	0.049115	0.055267
O6	O	1.433500	0.549115	0.555267
O7	O	0.936207	0.049124	0.283078
O8	O	1.436207	0.549124	0.783078
O9	O	0.933479	-0.049254	0.055283
O10	O	1.433479	0.450746	0.555283
O11	O	0.820928	-0.049241	0.167835
O12	O	1.320928	0.450759	0.667835
O13	O	1.048739	-0.049258	0.170543
O14	O	1.548739	0.450742	0.670543
Zn15	Zn	0.934830	-0.064868	0.169191
Zn16	Zn	1.434830	0.435132	0.669191
Zn17	Zn	0.934857	0.064738	0.169170
Zn18	Zn	1.434857	0.564738	0.669170
O19	O	0.936187	-0.049245	0.283094
O20	O	1.436187	0.450755	0.783094
C21	C	0.791645	-0.000054	0.165364
C22	C	1.291645	0.499946	0.665364
C23	C	0.704361	-0.000047	0.158016
C24	C	1.204361	0.499953	0.658016
C25	C	0.658752	-0.000045	0.225479
C26	C	1.158752	0.499955	0.725479
C27	C	0.576740	-0.000054	0.218570
C28	C	1.076740	0.499946	0.718570
C29	C	0.540339	-0.000060	0.144197
C30	C	1.040339	0.499940	0.644197
C31	C	0.585954	-0.000064	0.076728
C32	C	1.085954	0.499936	0.576728
C33	C	0.667965	-0.000060	0.083638
C34	C	1.167965	0.499940	0.583638
C35	C	0.292951	-0.000077	0.119787
C36	C	0.792951	0.499923	0.619787
C37	C	0.210935	-0.000079	0.112882
C38	C	0.710935	0.499921	0.612882
C39	C	0.201726	-0.000070	0.254725
C40	C	0.701726	0.499930	0.754725
C41	C	0.283739	-0.000062	0.261628
C42	C	0.783739	0.499938	0.761628
C43	C	0.329347	-0.000069	0.194159
C44	C	0.829347	0.499931	0.694159
C45	C	0.456510	-0.000067	0.137133
C46	C	0.956510	0.499933	0.637133
C47	C	0.413174	-0.000067	0.201224
C48	C	0.913174	0.499933	0.701224
N49	N	0.934818	-0.153320	0.169206
N50	N	1.434818	0.346680	0.669206
C51	C	0.984698	-0.561967	0.119340
C52	C	1.484698	-0.061967	0.619340
C53	C	0.984701	-0.623887	0.119335
C54	C	1.484701	-0.123887	0.619335
O55	O	1.027078	-0.655911	0.076947
O56	O	1.527078	-0.155911	0.576947
N57	N	0.934855	-0.654857	0.169154
N58	N	1.434855	-0.154857	0.669154
C59	C	0.884996	-0.623904	0.218975
C60	C	1.384996	-0.123904	0.718975
O61	O	0.842598	-0.655932	0.261349
O62	O	1.342598	-0.155932	0.761349
C63	C	0.884989	-0.561985	0.218976
C64	C	1.384989	-0.061985	0.718976
C65	C	0.934844	-0.531019	0.169160
C66	C	1.434844	-0.031019	0.669160
C67	C	1.034548	-0.531001	0.069528
C68	C	1.534548	-0.031001	0.569528
C69	C	1.034545	-0.469085	0.069534
C70	C	1.534545	0.030915	0.569534
C71	C	0.984692	-0.438136	0.119354
C72	C	1.484692	0.061864	0.619354
C73	C	0.934842	-0.469103	0.169167
C74	C	1.434842	0.030897	0.669167
C75	C	0.835127	-0.531033	0.268793
C76	C	1.335127	-0.031033	0.768793
C77	C	0.835124	-0.469110	0.268789
C78	C	1.335124	0.030890	0.768789
C79	C	0.884979	-0.438144	0.218973
C80	C	1.384979	0.061856	0.718973
C81	C	0.884986	-0.376238	0.218993
C82	C	1.384986	0.123762	0.718993
N83	N	0.934832	-0.345268	0.169174
N84	N	1.434832	0.154732	0.669174
C85	C	0.984685	-0.376217	0.119355
C86	C	1.484685	0.123783	0.619355
C87	C	0.885014	-0.753938	0.218969
C88	C	1.385014	-0.253938	0.718969
C89	C	0.885024	-0.815855	0.218973
C90	C	1.385024	-0.315855	0.718973
C91	C	0.984728	-0.815834	0.119331
C92	C	1.484728	-0.315834	0.619331
C93	C	0.984721	-0.753915	0.119332
C94	C	1.484721	-0.253915	0.619332
C95	C	0.934860	-0.722968	0.169150
C96	C	1.434860	-0.222968	0.669150
C97	C	0.984676	-0.246190	0.119373
C98	C	1.484676	0.253810	0.619373
C99	C	0.984671	-0.184269	0.119386
C100	C	1.484671	0.315731	0.619386
C101	C	0.884964	-0.184295	0.219025
C102	C	1.384964	0.315705	0.719025
C103	C	0.884972	-0.246211	0.219014
C104	C	1.384972	0.253789	0.719014
C105	C	0.934830	-0.277157	0.169182
C106	C	1.434830	0.222843	0.669182
O107	O	0.842628	-0.344175	0.261357
O108	O	1.342628	0.155825	0.761357
O109	O	1.027069	-0.344182	0.076981
O110	O	1.527069	0.155818	0.576981
C111	C	1.078042	-0.000074	0.172997
C112	C	1.578042	0.499926	0.672997
C113	C	1.165326	-0.000077	0.180346
C114	C	1.665326	0.499923	0.680346
C115	C	0.931027	-0.000069	0.025982
C116	C	1.431027	0.499931	0.525982
C117	C	0.923679	-0.000068	-0.061301
C118	C	1.423679	0.499932	0.438699
N119	N	0.934875	0.153190	0.169150
N120	N	1.434875	0.653190	0.669150
C121	C	0.991142	-0.000074	-0.106911
C122	C	1.491142	0.499926	0.393089
C123	C	0.984233	-0.000068	-0.188923
C124	C	1.484233	0.499932	0.311077
C125	C	0.909860	-0.000060	-0.225324
C126	C	1.409860	0.499940	0.274676
C127	C	0.842391	-0.000053	-0.179708
C128	C	1.342391	0.499947	0.320292
C129	C	0.849301	-0.000055	-0.097698
C130	C	1.349301	0.499945	0.402302
C131	C	0.885449	-0.000050	-0.472712
C132	C	1.385449	0.499950	0.027288
C133	C	0.878545	-0.000050	-0.554728
C134	C	1.378545	0.499950	-0.054728
C135	C	1.020387	-0.000064	-0.563937
C136	C	1.520387	0.499936	-0.063937
C137	C	1.027291	-0.000070	-0.481924
C138	C	1.527291	0.499930	0.018076
C139	C	0.959822	-0.000059	-0.436316
C140	C	1.459822	0.499941	0.063684
C141	C	0.902796	-0.000056	-0.309153
C142	C	1.402796	0.499944	0.190847
C143	C	0.966886	-0.000059	-0.352488
C144	C	1.466886	0.499941	0.147512
C145	C	0.938660	-0.000059	0.312379
C146	C	1.438660	0.499941	0.812379
C147	C	0.946008	-0.000056	0.399663
C148	C	1.446008	0.499944	0.899663
H149	H	0.330076	-0.000083	0.064848
H150	H	0.830076	0.499917	0.564848
H151	H	0.705099	-0.000061	0.028702
H152	H	1.205099	0.499939	0.528702
H153	H	0.844377	-0.159087	0.259589
H154	H	1.344377	0.340913	0.759589
Br155	Br	1.111947	-0.000079	-0.625837
Br156	Br	1.611947	0.499921	-0.125837
Br157	Br	0.161534	-0.000101	0.011940
Br158	Br	0.661534	0.499899	0.511940
H159	H	0.844413	-0.728743	0.259543
H160	H	1.344413	-0.228743	0.759543
H161	H	0.844436	-0.841064	0.259546
H162	H	1.344436	-0.341064	0.759546
Br163	Br	1.052387	-0.857849	0.051719
Br164	Br	1.552387	-0.357849	0.551719
Br165	Br	0.801863	-0.000040	-0.358561
Br166	Br	1.301863	0.499960	0.141439
H167	H	1.087853	-0.000076	-0.452293
H168	H	1.587853	0.499924	0.047707
H169	H	1.051705	-0.000084	-0.077279
H170	H	1.551705	0.499916	0.422721
Br171	Br	1.067819	-0.000065	-0.303086
Br172	Br	1.567819	0.499935	0.196914
H173	H	0.442816	-0.000065	0.261778
H174	H	0.942816	0.499935	0.761778
H175	H	0.426863	-0.000089	0.076578
H176	H	0.926863	0.499911	0.576578
Br177	Br	0.767463	-0.573047	0.336404
Br178	Br	1.267463	-0.073047	0.836404
Br179	Br	0.777603	-0.000046	-0.604129
Br180	Br	1.277603	0.499954	-0.104129
H181	H	0.688384	-0.000039	0.286042
H182	H	1.188384	0.499961	0.786042
Br183	Br	0.767447	-0.427114	0.336401
Br184	Br	1.267447	0.072886	0.836401
Br185	Br	0.536554	-0.000079	-0.024208
Br186	Br	1.036554	0.499921	0.475792
Br187	Br	1.052339	-0.142246	0.051778
Br188	Br	1.552339	0.357754	0.551778
H189	H	1.025274	-0.271379	0.078794
H190	H	1.525274	0.228621	0.578794
Br191	Br	0.817320	-0.288236	0.286635
Br192	Br	1.317320	0.211764	0.786635
H193	H	0.830511	-0.000042	-0.435587
H194	H	1.330511	0.499958	0.064413
H195	H	0.781835	-0.000043	-0.209353
H196	H	1.281835	0.499957	0.290647
Br197	Br	0.333134	-0.000047	0.362567
Br198	Br	0.833134	0.499953	0.862567
Br199	Br	0.514844	-0.000049	0.310133
Br200	Br	1.014844	0.499951	0.810133
H201	H	0.164583	-0.000065	0.309653
H202	H	0.664583	0.499935	0.809653
Br203	Br	1.102204	-0.427065	0.001920
Br204	Br	1.602204	0.072935	0.501920
H205	H	1.075144	-0.556194	0.028955
H206	H	1.575144	-0.056194	0.528955
Br207	Br	1.052384	-0.711896	0.051722
Br208	Br	1.552384	-0.211896	0.551722
H209	H	1.039170	-0.000074	-0.226054
H210	H	1.539170	0.499926	0.273946
Br211	Br	0.757739	-0.000042	-0.035798
Br212	Br	1.257739	0.499958	0.464202
