data_functionalizedCrystal
_audit_creation_method	'MofGen! by Chris Wilmer'
_symmetry_space_group_name_H-M	'P1'
_symmetry_Int_Tables_number	1
_symmetry_cell_setting	triclinic
loop_
_symmetry_equiv_pos_as_xyz
  x,y,z
_cell_length_a	19.805407
_cell_length_b	16.120484
_cell_length_c	19.805399
_cell_angle_alpha	92.871043
_cell_angle_beta	89.980427
_cell_angle_gamma	92.925608
loop_
_atom_site_label
_atom_site_type_symbol
_atom_site_fract_x
_atom_site_fract_y
_atom_site_fract_z
Zn1	Zn	1.021075	-0.331927	-0.396377
Zn2	Zn	1.271075	-0.081927	-0.146377
Zn3	Zn	1.521075	0.168073	0.103623
Zn4	Zn	1.771075	0.418073	0.353623
Zn5	Zn	1.015252	-0.471346	-0.288925
Zn6	Zn	1.265252	-0.221346	-0.038925
Zn7	Zn	1.515252	0.028654	0.211075
Zn8	Zn	1.765252	0.278654	0.461075
Zn9	Zn	0.907889	-0.331950	-0.283203
Zn10	Zn	1.157889	-0.081950	-0.033203
Zn11	Zn	1.407889	0.168050	0.216797
Zn12	Zn	1.657889	0.418050	0.466797
Zn13	Zn	0.902117	-0.471302	-0.402070
Zn14	Zn	1.152117	-0.221302	-0.152070
Zn15	Zn	1.402117	0.028698	0.097930
Zn16	Zn	1.652117	0.278698	0.347930
O17	O	0.961584	-0.401631	-0.342644
O18	O	1.211584	-0.151631	-0.092644
O19	O	1.461584	0.098369	0.157356
O20	O	1.711584	0.348369	0.407356
O21	O	1.115019	-0.350431	-0.382136
O22	O	1.365019	-0.100431	-0.132136
O23	O	1.615019	0.149569	0.117864
O24	O	1.865019	0.399569	0.367864
O25	O	1.000989	-0.452883	-0.193451
O26	O	1.250989	-0.202883	0.056549
O27	O	1.500989	0.047117	0.306549
O28	O	1.750989	0.297117	0.556549
O29	O	0.927756	-0.215281	-0.293438
O30	O	1.177756	0.034719	-0.043438
O31	O	1.427756	0.284719	0.206562
O32	O	1.677756	0.534719	0.456562
O33	O	1.110741	-0.452861	-0.303191
O34	O	1.360741	-0.202861	-0.053191
O35	O	1.610741	0.047139	0.196809
O36	O	1.860741	0.297139	0.446809
O37	O	1.010913	-0.215264	-0.376587
O38	O	1.260913	0.034736	-0.126587
O39	O	1.510913	0.284736	0.123413
O40	O	1.760913	0.534736	0.373413
O41	O	0.922109	-0.350470	-0.189246
O42	O	1.172109	-0.100470	0.060754
O43	O	1.422109	0.149530	0.310754
O44	O	1.672109	0.399530	0.560754
O45	O	0.812407	-0.350427	-0.298958
O46	O	1.062407	-0.100427	-0.048958
O47	O	1.312407	0.149573	0.201042
O48	O	1.562407	0.399573	0.451042
O49	O	0.917919	-0.452785	-0.496030
O50	O	1.167919	-0.202785	-0.246030
O51	O	1.417919	0.047215	0.003970
O52	O	1.667919	0.297215	0.253970
O53	O	0.808167	-0.452807	-0.386290
O54	O	1.058167	-0.202807	-0.136290
O55	O	1.308167	0.047193	0.113710
O56	O	1.558167	0.297193	0.363710
O57	O	1.005317	-0.350388	-0.491848
O58	O	1.255317	-0.100388	-0.241848
O59	O	1.505317	0.149612	0.008152
O60	O	1.755317	0.399612	0.258152
O61	O	0.995392	-0.588006	-0.308712
O62	O	1.245392	-0.338006	-0.058712
O63	O	1.495392	-0.088006	0.191288
O64	O	1.745392	0.161994	0.441288
O65	O	0.912273	-0.587974	-0.391839
O66	O	1.162273	-0.337974	-0.141839
O67	O	1.412273	-0.087974	0.108161
O68	O	1.662273	0.162026	0.358161
C69	C	0.785728	-0.401615	-0.342621
C70	C	1.035728	-0.151615	-0.092621
C71	C	1.285728	0.098385	0.157379
C72	C	1.535728	0.348385	0.407379
C73	C	0.710496	-0.401629	-0.342628
C74	C	0.960496	-0.151629	-0.092628
C75	C	1.210496	0.098371	0.157372
C76	C	1.460496	0.348371	0.407372
C77	C	0.952593	-0.618240	-0.351529
C78	C	1.202593	-0.368240	-0.101529
C79	C	1.452593	-0.118240	0.148471
C80	C	1.702593	0.131760	0.398471
C81	C	0.948809	-0.710906	-0.355353
C82	C	1.198809	-0.460906	-0.105353
C83	C	1.448809	-0.210906	0.144647
C84	C	1.698809	0.039094	0.394647
C85	C	0.672958	-0.455019	-0.388035
C86	C	0.922958	-0.205019	-0.138035
C87	C	1.172958	0.044981	0.111965
C88	C	1.422958	0.294981	0.361965
C89	C	0.602269	-0.455020	-0.388045
C90	C	0.852269	-0.205020	-0.138045
C91	C	1.102269	0.044980	0.111955
C92	C	1.352269	0.294980	0.361955
C93	C	0.569120	-0.401635	-0.342644
C94	C	0.819120	-0.151635	-0.092644
C95	C	1.069120	0.098365	0.157356
C96	C	1.319120	0.348365	0.407356
C97	C	0.606663	-0.348239	-0.297235
C98	C	0.856663	-0.098239	-0.047235
C99	C	1.106663	0.151761	0.202765
C100	C	1.356663	0.401761	0.452765
C101	C	0.677350	-0.348234	-0.297229
C102	C	0.927350	-0.098234	-0.047229
C103	C	1.177350	0.151766	0.202771
C104	C	1.427350	0.401766	0.452771
C105	C	0.321589	-0.348258	-0.297258
C106	C	0.571589	-0.098258	-0.047258
C107	C	0.821589	0.151742	0.202742
C108	C	1.071589	0.401742	0.452742
C109	C	0.250896	-0.348269	-0.297266
C110	C	0.500896	-0.098269	-0.047266
C111	C	0.750896	0.151731	0.202734
C112	C	1.000896	0.401731	0.452734
C113	C	0.246508	-0.455043	-0.388074
C114	C	0.496508	-0.205043	-0.138074
C115	C	0.746508	0.044957	0.111926
C116	C	0.996508	0.294957	0.361926
C117	C	0.317195	-0.455038	-0.388068
C118	C	0.567195	-0.205038	-0.138068
C119	C	0.817195	0.044962	0.111932
C120	C	1.067195	0.294962	0.361932
C121	C	0.354732	-0.401640	-0.342662
C122	C	0.604732	-0.151640	-0.092662
C123	C	0.854732	0.098360	0.157338
C124	C	1.104732	0.348360	0.407338
C125	C	0.431381	-0.401638	-0.342653
C126	C	0.681381	-0.151638	-0.092653
C127	C	0.931381	0.098362	0.157347
C128	C	1.181381	0.348362	0.407347
C129	C	0.492472	-0.401641	-0.342649
C130	C	0.742472	-0.151641	-0.092649
C131	C	0.992472	0.098359	0.157351
C132	C	1.242472	0.348359	0.407351
C133	C	0.941903	-0.880568	-0.362347
C134	C	1.191903	-0.630568	-0.112347
C135	C	1.441903	-0.380568	0.137653
C136	C	1.691903	-0.130568	0.387653
C137	C	0.981385	-0.921854	-0.322951
C138	C	1.231385	-0.671854	-0.072951
C139	C	1.481385	-0.421854	0.177049
C140	C	1.731385	-0.171854	0.427049
C141	C	0.977543	-1.016260	-0.326843
C142	C	1.227543	-0.766260	-0.076843
C143	C	1.477543	-0.516260	0.173157
C144	C	1.727543	-0.266260	0.423157
C145	C	0.945745	-0.786154	-0.358456
C146	C	1.195745	-0.536154	-0.108456
C147	C	1.445745	-0.286154	0.141544
C148	C	1.695745	-0.036154	0.391544
C149	C	1.138126	-0.401648	-0.342667
C150	C	1.388126	-0.151648	-0.092667
C151	C	1.638126	0.098352	0.157333
C152	C	1.888126	0.348352	0.407333
C153	C	1.213357	-0.401655	-0.342677
C154	C	1.463357	-0.151655	-0.092677
C155	C	1.713357	0.098345	0.157323
C156	C	1.963357	0.348345	0.407323
C157	C	0.961624	-0.401579	-0.519184
C158	C	1.211624	-0.151579	-0.269184
C159	C	1.461624	0.098421	-0.019184
C160	C	1.711624	0.348421	0.230816
C161	C	0.961641	-0.401556	-0.594416
C162	C	1.211641	-0.151556	-0.344416
C163	C	1.461641	0.098444	-0.094416
C164	C	1.711641	0.348444	0.155584
C165	C	0.970628	-0.184177	-0.333739
C166	C	1.220628	0.065823	-0.083739
C167	C	1.470628	0.315823	0.166261
C168	C	1.720628	0.565823	0.416261
C169	C	0.974482	-0.091511	-0.329944
C170	C	1.224482	0.158489	-0.079944
C171	C	1.474482	0.408489	0.170056
C172	C	1.724482	0.658489	0.420056
C173	C	1.007150	-0.348235	-0.627583
C174	C	1.257150	-0.098235	-0.377583
C175	C	1.507150	0.151765	-0.127583
C176	C	1.757150	0.401765	0.122417
C177	C	1.007158	-0.348211	-0.698270
C178	C	1.257158	-0.098211	-0.448270
C179	C	1.507158	0.151789	-0.198270
C180	C	1.757158	0.401789	0.051730
C181	C	0.961659	-0.401513	-0.735789
C182	C	1.211659	-0.151513	-0.485789
C183	C	1.461659	0.098487	-0.235789
C184	C	1.711659	0.348487	0.014211
C185	C	0.916145	-0.454836	-0.702617
C186	C	1.166145	-0.204836	-0.452617
C187	C	1.416145	0.045164	-0.202617
C188	C	1.666145	0.295164	0.047383
C189	C	0.916135	-0.454856	-0.631931
C190	C	1.166135	-0.204856	-0.381931
C191	C	1.416135	0.045144	-0.131931
C192	C	1.666135	0.295144	0.118069
C193	C	0.916187	-0.454759	-0.987688
C194	C	1.166187	-0.204759	-0.737688
C195	C	1.416187	0.045241	-0.487688
C196	C	1.666187	0.295241	-0.237688
C197	C	0.916202	-0.454737	-1.058379
C198	C	1.166202	-0.204737	-0.808379
C199	C	1.416202	0.045263	-0.558379
C200	C	1.666202	0.295263	-0.308379
C201	C	1.007210	-0.348114	-1.054027
C202	C	1.257210	-0.098114	-0.804027
C203	C	1.507210	0.151886	-0.554027
C204	C	1.757210	0.401886	-0.304027
C205	C	1.007199	-0.348133	-0.983340
C206	C	1.257199	-0.098133	-0.733340
C207	C	1.507199	0.151867	-0.483340
C208	C	1.757199	0.401867	-0.233340
C209	C	0.961683	-0.401453	-0.950174
C210	C	1.211683	-0.151453	-0.700174
C211	C	1.461683	0.098547	-0.450174
C212	C	1.711683	0.348547	-0.200174
C213	C	0.961674	-0.401478	-0.873527
C214	C	1.211674	-0.151478	-0.623527
C215	C	1.461674	0.098522	-0.373527
C216	C	1.711674	0.348522	-0.123527
C217	C	0.961671	-0.401493	-0.812436
C218	C	1.211671	-0.151493	-0.562436
C219	C	1.461671	0.098507	-0.312436
C220	C	1.711671	0.348507	-0.062436
C221	C	0.961585	-0.401623	-0.166787
C222	C	1.211585	-0.151623	0.083213
C223	C	1.461585	0.098377	0.333213
C224	C	1.711585	0.348377	0.583213
C225	C	0.961709	-0.401411	-0.091547
C226	C	1.211709	-0.151411	0.158453
C227	C	1.461709	0.098589	0.408453
C228	C	1.711709	0.348589	0.658453
H229	H	0.699943	-0.498494	-0.425004
H230	H	0.949943	-0.248494	-0.175004
H231	H	1.199943	0.001506	0.074996
H232	H	1.449943	0.251506	0.324996
F233	F	0.717300	-0.291408	-0.248902
F234	F	0.967300	-0.041408	0.001098
F235	F	1.217300	0.208592	0.251098
F236	F	1.467300	0.458592	0.501098
F237	F	0.562322	-0.511845	-0.436373
F238	F	0.812322	-0.261845	-0.186373
F239	F	1.062322	-0.011845	0.063627
F240	F	1.312322	0.238155	0.313627
F241	F	0.867696	-0.511605	-0.596632
F242	F	1.117696	-0.261605	-0.346632
F243	F	1.367696	-0.011605	-0.096632
F244	F	1.617696	0.238395	0.153368
F245	F	1.029336	-0.875384	-0.275043
F246	F	1.279336	-0.625384	-0.025043
F247	F	1.529336	-0.375384	0.224957
F248	F	1.779336	-0.125384	0.474957
H249	H	1.044269	-0.304695	-1.081039
H250	H	1.294269	-0.054695	-0.831039
H251	H	1.544269	0.195305	-0.581039
H252	H	1.794269	0.445305	-0.331039
H253	H	0.905219	-0.916121	-0.398995
H254	H	1.155219	-0.666121	-0.148995
H255	H	1.405219	-0.416121	0.101005
H256	H	1.655219	-0.166121	0.351005
F257	F	0.867720	-0.511561	-0.742550
F258	F	1.117720	-0.261561	-0.492550
F259	F	1.367720	-0.011561	-0.242550
F260	F	1.617720	0.238439	0.007450
F261	F	0.867774	-0.511470	-1.098308
F262	F	1.117774	-0.261470	-0.848308
F263	F	1.367774	-0.011470	-0.598308
F264	F	1.617774	0.238530	-0.348308
F265	F	1.055580	-0.291508	-0.587658
F266	F	1.305580	-0.041508	-0.337658
F267	F	1.555580	0.208492	-0.087658
F268	F	1.805580	0.458492	0.162342
H269	H	0.223908	-0.304791	-0.260295
H270	H	0.473908	-0.054791	-0.010295
H271	H	0.723908	0.195209	0.239705
H272	H	0.973908	0.445209	0.489705
H273	H	1.044217	-0.304794	-0.725272
H274	H	1.294217	-0.054794	-0.475272
H275	H	1.544217	0.195206	-0.225272
H276	H	1.794217	0.445206	0.024728
F277	F	1.055627	-0.291406	-0.943413
F278	F	1.305627	-0.041406	-0.693413
F279	F	1.555627	0.208594	-0.443413
F280	F	1.805627	0.458594	-0.193413
H281	H	0.344182	-0.498513	-0.425036
H282	H	0.594182	-0.248513	-0.175036
H283	H	0.844182	0.001487	0.074964
H284	H	1.094182	0.251487	0.324964
F285	F	0.206553	-0.511875	-0.436400
F286	F	0.456553	-0.261875	-0.186400
F287	F	0.706553	-0.011875	0.063600
F288	F	0.956553	0.238125	0.313600
H289	H	0.579667	-0.304769	-0.260272
H290	H	0.829667	-0.054769	-0.010272
H291	H	1.079667	0.195231	0.239728
H292	H	1.329667	0.445231	0.489728
F293	F	0.361529	-0.291424	-0.248934
F294	F	0.611529	-0.041424	0.001066
F295	F	0.861529	0.208576	0.251066
F296	F	1.111529	0.458576	0.501066
F297	F	0.867745	-0.511507	-0.952399
F298	F	1.117745	-0.261507	-0.702399
F299	F	1.367745	-0.011507	-0.452399
F300	F	1.617745	0.238493	-0.202399
