data_functionalizedCrystal
_audit_creation_method	'MofGen! by Chris Wilmer'
_symmetry_space_group_name_H-M	'P1'
_symmetry_Int_Tables_number	1
_symmetry_cell_setting	triclinic
loop_
_symmetry_equiv_pos_as_xyz
  x,y,z
_cell_length_a	10.654554
_cell_length_b	10.540539
_cell_length_c	9.130313
_cell_angle_alpha	90.001657
_cell_angle_beta	90.000385
_cell_angle_gamma	95.493882
loop_
_atom_site_label
_atom_site_type_symbol
_atom_site_fract_x
_atom_site_fract_y
_atom_site_fract_z
O1	O	1.667894	-0.178322	0.121794
O2	O	1.302422	-0.195303	0.121795
O3	O	1.493496	-0.002103	0.121796
O4	O	1.476820	-0.371522	0.121793
O5	O	1.493493	-0.002109	-0.121803
O6	O	1.302419	-0.195309	-0.121804
O7	O	1.667891	-0.178327	-0.121805
Cu8	Cu	1.485155	-0.186818	-0.144047
Cu9	Cu	1.485158	-0.186812	0.144037
O10	O	1.476817	-0.371527	-0.121805
C11	C	1.255622	-0.194058	-0.000004
C12	C	1.116178	-0.190324	-0.000004
C13	C	0.905708	-0.300573	-0.000001
C14	C	1.036731	-0.304082	-0.000001
C15	C	1.064597	-0.073049	0.000009
C16	C	0.933576	-0.069541	0.000019
C17	C	0.889621	-0.433959	-0.000013
C18	C	1.020644	-0.437468	-0.000013
C19	C	1.478069	-0.418827	-0.000006
C20	C	1.481811	-0.559774	-0.000007
C21	C	1.625182	-0.743152	0.000556
C22	C	1.621389	-0.596535	-0.000004
C23	C	1.414638	-0.621466	-0.139109
C24	C	1.419402	-0.768009	-0.139214
C25	C	1.416565	-0.768506	0.137803
C26	C	1.415280	-0.621524	0.139630
C27	C	1.714691	-0.179573	-0.000002
C28	C	1.854135	-0.183307	0.000007
C29	C	1.492244	0.045197	-0.000000
C30	C	1.488502	0.186143	0.000010
N31	N	1.485162	-0.186822	-0.346669
C32	C	1.569792	-0.101302	-0.423321
C33	C	1.569788	-0.101287	-0.576658
C34	C	1.400522	-0.272322	-0.576678
C35	C	1.400520	-0.272331	-0.423344
C36	C	1.667520	-0.002560	-0.423311
C37	C	1.667517	-0.002545	-0.576648
N38	N	1.485160	-0.186799	0.346660
H39	H	1.050023	-0.489617	-0.101971
C40	C	1.151993	0.052087	0.000007
N41	N	1.217819	0.146342	-0.000001
C42	C	1.693273	-0.540107	-0.134961
N43	N	1.747413	-0.497608	-0.236622
C44	C	0.833246	-0.501850	0.137710
N45	N	0.790785	-0.552980	0.241443
C46	C	1.699721	-0.781856	0.135243
N47	N	1.755880	-0.811054	0.236664
H48	H	1.331598	-0.341956	-0.360935
C49	C	1.486476	-0.806095	-0.279683
N50	N	1.537002	-0.834775	-0.385486
H51	H	0.843984	-0.474260	-0.105189
C52	C	0.876851	0.059461	0.000029
N53	N	0.834127	0.156630	0.000031
H54	H	1.056293	-0.479945	0.105169
C55	C	1.307419	-0.366375	-0.661034
N56	N	1.237292	-0.437217	-0.724570
H57	H	1.646043	0.095014	-0.381690
H58	H	1.674251	-0.553905	0.099705
H59	H	1.680144	-0.773466	-0.098541
H60	H	1.315741	-0.815747	0.138726
C61	C	1.283799	-0.832862	-0.147886
N62	N	1.181666	-0.881703	-0.154473
H63	H	1.312136	-0.599148	-0.144283
C64	C	1.477671	-0.563907	-0.278966
N65	N	1.525152	-0.520552	-0.384303
H66	H	1.764036	-0.024297	-0.618265
H67	H	1.464365	-0.580564	0.242537
H68	H	1.461737	-0.800041	0.243240
H69	H	1.313519	-0.597330	0.148033
H70	H	1.758715	-0.033480	-0.375753
C71	C	1.626236	0.122013	-0.640888
N72	N	1.595136	0.215824	-0.689276
