data_functionalizedCrystal
_audit_creation_method	'MofGen! by Chris Wilmer'
_symmetry_space_group_name_H-M	'P1'
_symmetry_Int_Tables_number	1
_symmetry_cell_setting	triclinic
loop_
_symmetry_equiv_pos_as_xyz
  x,y,z
_cell_length_a	27.731994
_cell_length_b	27.732025
_cell_length_c	26.809956
_cell_angle_alpha	90.018843
_cell_angle_beta	89.997334
_cell_angle_gamma	82.627001
loop_
_atom_site_label
_atom_site_type_symbol
_atom_site_fract_x
_atom_site_fract_y
_atom_site_fract_z
O1	O	0.640944	0.057386	-0.041394
O2	O	1.140944	0.557386	0.458606
O3	O	0.500146	0.066159	-0.041408
O4	O	1.000146	0.566159	0.458592
O5	O	0.574923	-0.008626	-0.041415
O6	O	1.074923	0.491374	0.458585
O7	O	0.566166	0.132171	-0.041386
O8	O	1.066166	0.632171	0.458614
O9	O	0.574909	-0.008614	0.041544
O10	O	1.074909	0.491386	0.541544
O11	O	0.500132	0.066170	0.041551
O12	O	1.000132	0.566170	0.541551
O13	O	0.640929	0.057397	0.041566
O14	O	1.140929	0.557397	0.541566
Zn15	Zn	0.570528	0.061786	0.054730
Zn16	Zn	1.070528	0.561786	0.554730
Zn17	Zn	0.570547	0.061771	-0.054572
Zn18	Zn	1.070547	0.561771	0.445428
O19	O	0.566152	0.132182	0.041573
O20	O	1.066152	0.632182	0.541573
C21	C	0.482131	0.065985	0.000070
C22	C	0.982131	0.565985	0.500070
C23	C	0.428475	0.065442	0.000063
C24	C	0.928475	0.565442	0.500063
C25	C	0.095749	0.062033	0.045303
C26	C	0.595749	0.562033	0.545303
C27	C	-0.105909	0.059971	0.045308
C28	C	0.394091	0.559971	0.545308
O29	O	-0.131988	0.059689	0.083767
O30	O	0.368012	0.559689	0.583767
N31	N	-0.131116	0.059709	0.000087
N32	N	0.368884	0.559709	0.500087
C33	C	-0.105905	0.059959	-0.045139
C34	C	0.394095	0.559959	0.454861
O35	O	-0.131972	0.059683	-0.083602
O36	O	0.368028	0.559683	0.416398
C37	C	0.095752	0.062017	-0.045143
C38	C	0.595752	0.562017	0.454857
C39	C	0.120956	0.062284	0.000081
C40	C	0.620956	0.562284	0.500081
C41	C	0.120953	0.062299	0.090523
C42	C	0.620953	0.562299	0.590523
C43	C	0.171364	0.062817	0.090521
C44	C	0.671364	0.562817	0.590521
C45	C	0.196571	0.063069	0.045299
C46	C	0.696571	0.563069	0.545299
C47	C	0.171367	0.062802	0.000079
C48	C	0.671367	0.562802	0.500079
C49	C	0.120963	0.062264	-0.090368
C50	C	0.620963	0.562264	0.409632
C51	C	0.171381	0.062777	-0.090366
C52	C	0.671381	0.562777	0.409634
C53	C	0.196584	0.063044	-0.045142
C54	C	0.696584	0.563044	0.454858
C55	C	0.246986	0.063572	-0.045145
C56	C	0.746986	0.563572	0.454855
N57	N	0.272193	0.063834	0.000076
N58	N	0.772193	0.563834	0.500076
C59	C	0.246986	0.063582	0.045298
C60	C	0.746986	0.563582	0.545298
C61	C	-0.211778	0.058879	-0.045133
C62	C	0.288222	0.558879	0.454867
C63	C	-0.262193	0.058366	-0.045132
C64	C	0.237807	0.558366	0.454868
C65	C	-0.262193	0.058377	0.045315
C66	C	0.237807	0.558377	0.545315
C67	C	-0.211778	0.058894	0.045313
C68	C	0.288222	0.558894	0.545313
C69	C	-0.186571	0.059142	0.000088
C70	C	0.313429	0.559142	0.500088
C71	C	0.352852	0.064671	0.045291
C72	C	0.852852	0.564671	0.545291
C73	C	0.403268	0.065191	0.045285
C74	C	0.903268	0.565191	0.545285
C75	C	0.403264	0.065177	-0.045161
C76	C	0.903264	0.565177	0.454839
C77	C	0.352853	0.064659	-0.045156
C78	C	0.852853	0.564659	0.454844
C79	C	0.327648	0.064405	0.000074
C80	C	0.827648	0.564405	0.500074
O81	O	0.273097	0.063849	-0.083583
O82	O	0.773097	0.563849	0.416417
O83	O	0.273062	0.063847	0.083756
O84	O	0.773062	0.563847	0.583756
C85	C	0.045338	0.061515	0.045305
C86	C	0.545338	0.561515	0.545305
C87	C	0.020134	0.061248	0.000084
C88	C	0.520134	0.561248	0.500084
C89	C	0.045341	0.061500	-0.045138
C90	C	0.545341	0.561500	0.454862
C91	C	-0.030280	0.060734	0.000085
C92	C	0.469720	0.560734	0.500085
C93	C	-0.055487	0.060483	0.045307
C94	C	0.444513	0.560483	0.545307
C95	C	-0.030280	0.060745	0.090529
C96	C	0.469720	0.560745	0.590529
C97	C	0.020131	0.061263	0.090527
C98	C	0.520131	0.561263	0.590527
C99	C	0.020134	0.061237	-0.090359
C100	C	0.520134	0.561237	0.409641
C101	C	-0.030277	0.060720	-0.090354
C102	C	0.469723	0.560720	0.409646
C103	C	-0.055484	0.060468	-0.045131
C104	C	0.444516	0.560468	0.454869
C105	C	0.574734	-0.026627	0.000059
C106	C	1.074734	0.473373	0.500059
C107	C	0.574186	-0.080283	0.000044
C108	C	1.074186	0.419717	0.500044
C109	C	0.570296	-0.463454	-0.045148
C110	C	1.070296	0.036546	0.454852
C111	C	0.572349	-0.261795	-0.045164
C112	C	1.072349	0.238205	0.454836
O113	O	0.572640	-0.235732	-0.083624
O114	O	1.072640	0.264268	0.416376
N115	N	0.572598	-0.236567	0.000056
N116	N	1.072598	0.263433	0.500056
C117	C	0.572337	-0.261758	0.045283
C118	C	1.072337	0.238242	0.545283
O119	O	0.572601	-0.235674	0.083745
O120	O	1.072601	0.264326	0.583745
C121	C	0.570288	-0.463417	0.045298
C122	C	1.070288	0.036583	0.545298
C123	C	0.570034	-0.488641	0.000075
C124	C	1.070034	0.011359	0.500075
C125	C	0.570043	-0.488678	-0.090367
C126	C	1.070043	0.011322	0.409633
C127	C	0.569527	-0.539089	-0.090363
C128	C	1.069527	-0.039089	0.409637
C129	C	0.569265	-0.564276	-0.045139
C130	C	1.069265	-0.064276	0.454861
C131	C	0.569518	-0.539052	0.000080
C132	C	1.069518	-0.039052	0.500080
C133	C	0.570030	-0.488607	0.090525
C134	C	1.070030	0.011393	0.590525
C135	C	0.569519	-0.539025	0.090524
C136	C	1.069519	-0.039025	0.590524
C137	C	0.569265	-0.564249	0.045302
C138	C	1.069265	-0.064249	0.545302
C139	C	0.568740	-0.614651	0.045308
C140	C	1.068740	-0.114651	0.545308
N141	N	0.568491	-0.639878	0.000088
N142	N	1.068491	-0.139878	0.500088
C143	C	0.568753	-0.614691	-0.045136
C144	C	1.068753	-0.114691	0.454864
C145	C	0.573412	-0.155884	0.045272
C146	C	1.073412	0.344116	0.545272
C147	C	0.573923	-0.105470	0.045268
C148	C	1.073923	0.394530	0.545268
C149	C	0.573936	-0.105510	-0.045179
C150	C	1.073936	0.394490	0.454821
C151	C	0.573421	-0.155925	-0.045175
C152	C	1.073421	0.344075	0.454825
C153	C	0.573163	-0.181112	0.000052
C154	C	1.073163	0.318888	0.500052
C155	C	0.567670	-0.720558	-0.045123
C156	C	1.067670	-0.220558	0.454877
C157	C	0.567152	-0.770974	-0.045114
C158	C	1.067152	-0.270974	0.454886
C159	C	0.567142	-0.770930	0.045332
C160	C	1.067142	-0.270930	0.545332
C161	C	0.567657	-0.720518	0.045324
C162	C	1.067657	-0.220518	0.545324
C163	C	0.567923	-0.695334	0.000093
C164	C	1.067923	-0.195334	0.500093
O165	O	0.568454	-0.640745	0.083748
O166	O	1.068454	-0.140745	0.583748
O167	O	0.568500	-0.640785	-0.083592
O168	O	1.068500	-0.140785	0.416408
C169	C	0.570812	-0.413042	-0.045153
C170	C	1.070812	0.086958	0.454847
C171	C	0.571065	-0.387818	0.000067
C172	C	1.071065	0.112182	0.500067
C173	C	0.570803	-0.413005	0.045290
C174	C	1.070803	0.086995	0.545290
C175	C	0.571577	-0.337403	0.000063
C176	C	1.071577	0.162597	0.500063
C177	C	0.571839	-0.312216	-0.045161
C178	C	1.071839	0.187784	0.454839
C179	C	0.571590	-0.337444	-0.090380
C180	C	1.071590	0.162556	0.409620
C181	C	0.571075	-0.387855	-0.090376
C182	C	1.071075	0.112145	0.409624
C183	C	0.571052	-0.387778	0.090510
C184	C	1.071052	0.112222	0.590510
C185	C	0.571567	-0.337366	0.090502
C186	C	1.071567	0.162634	0.590502
C187	C	0.571830	-0.312179	0.045278
C188	C	1.071830	0.187821	0.545278
C189	C	0.658944	0.057572	0.000087
C190	C	1.158944	0.557572	0.500087
C191	C	0.712600	0.058114	0.000090
C192	C	1.212600	0.558114	0.500090
C193	C	0.566341	0.150184	0.000097
C194	C	1.066341	0.650184	0.500097
C195	C	0.566890	0.203839	0.000109
C196	C	1.066890	0.703839	0.500109
N197	N	0.570519	0.061796	0.129326
N198	N	1.070519	0.561796	0.629326
N199	N	0.570560	0.061757	-0.129168
N200	N	1.070560	0.561757	0.370832
C201	C	0.603654	0.028664	0.473949
C202	C	1.103654	0.528664	0.973949
C203	C	0.603666	0.028657	0.682826
C204	C	1.103666	0.528657	1.182826
O205	O	0.631818	0.000490	0.709827
O206	O	1.131818	0.500490	1.209827
N207	N	0.570550	0.061760	0.708953
N208	N	1.070550	0.561760	1.208953
C209	C	0.537426	0.094866	0.682857
C210	C	1.037426	0.594866	1.182857
O211	O	0.509256	0.123018	0.709872
O212	O	1.009256	0.623018	1.209872
C213	C	0.537413	0.094870	0.473980
C214	C	1.037413	0.594870	0.973980
C215	C	0.570534	0.061768	0.447857
C216	C	1.070534	0.561768	0.947857
C217	C	0.636772	-0.004436	0.447825
C218	C	1.136772	0.495564	0.947825
C219	C	0.636771	-0.004432	0.395608
C220	C	1.136771	0.495568	0.895608
C221	C	0.603651	0.028672	0.369516
C222	C	1.103651	0.528672	0.869516
C223	C	0.570533	0.061772	0.395640
C224	C	1.070533	0.561772	0.895640
C225	C	0.504287	0.127973	0.447886
C226	C	1.004287	0.627973	0.947886
C227	C	0.504286	0.127971	0.395663
C228	C	1.004286	0.627971	0.895663
C229	C	0.537408	0.094868	0.369539
C230	C	1.037408	0.594868	0.869539
C231	C	0.537411	0.094880	0.317332
C232	C	1.037411	0.594880	0.817332
N233	N	0.570527	0.061776	0.291205
N234	N	1.070527	0.561776	0.791205
C235	C	0.603647	0.028673	0.317297
C236	C	1.103647	0.528673	0.817297
C237	C	0.537436	0.094861	0.792521
C238	C	1.037436	0.594861	1.292521
C239	C	0.537440	0.094861	0.844739
C240	C	1.037440	0.594861	1.344739
C241	C	0.603679	0.028651	0.844705
C242	C	1.103679	0.528651	1.344705
C243	C	0.603677	0.028654	0.792485
C244	C	1.103677	0.528654	1.292485
C245	C	0.570552	0.061758	0.766394
C246	C	1.070552	0.561758	1.266394
C247	C	0.603642	0.028684	0.207639
C248	C	1.103642	0.528684	0.707639
C249	C	0.603639	0.028692	0.155418
C250	C	1.103639	0.528692	0.655418
C251	C	0.537399	0.094899	0.155457
C252	C	1.037399	0.594899	0.655457
C253	C	0.537403	0.094893	0.207674
C254	C	1.037403	0.594893	0.707674
C255	C	0.570527	0.061781	0.233763
C256	C	1.070527	0.561781	0.733763
O257	O	0.509270	0.123028	0.290298
O258	O	1.009270	0.623028	0.790298
O259	O	0.631806	0.000517	0.290273
O260	O	1.131806	0.500517	0.790273
C261	C	0.603656	0.028660	0.526165
C262	C	1.103656	0.528660	1.026165
C263	C	0.570537	0.061760	0.552289
C264	C	1.070537	0.561760	1.052289
C265	C	0.537417	0.094864	0.526197
C266	C	1.037417	0.594864	1.026197
C267	C	0.570541	0.061760	0.604508
C268	C	1.070541	0.561760	1.104508
C269	C	0.603661	0.028656	0.630600
C270	C	1.103661	0.528656	1.130600
C271	C	0.636777	-0.004448	0.604474
C272	C	1.136777	0.495552	1.104474
C273	C	0.636775	-0.004444	0.552257
C274	C	1.136775	0.495556	1.052257
C275	C	0.504301	0.127967	0.552324
C276	C	1.004301	0.627967	1.052324
C277	C	0.504306	0.127961	0.604540
C278	C	1.004306	0.627961	1.104540
C279	C	0.537426	0.094857	0.630632
C280	C	1.037426	0.594857	1.130632
H281	H	0.100435	0.062094	0.127351
H282	H	0.600435	0.562094	0.627351
H283	H	0.569309	-0.559530	0.127354
H284	H	1.069309	-0.059530	0.627354
C285	C	0.047849	0.061553	0.140277
C286	C	0.547849	0.561553	0.640277
N287	N	0.068723	0.061769	0.177752
N288	N	0.568723	0.561769	0.677752
C289	C	0.640081	-0.007740	0.236330
C290	C	1.140081	0.492260	0.736330
N291	N	0.667529	-0.035172	0.257940
N292	N	1.167529	0.464828	0.757940
C293	C	-0.184058	0.059183	0.095063
C294	C	0.315942	0.559183	0.595063
N295	N	-0.163181	0.059399	0.132536
N296	N	0.336819	0.559399	0.632536
H297	H	0.630647	0.001700	0.771218
H298	H	1.130647	0.501700	1.271218
H299	H	0.570839	-0.408280	0.127337
H300	H	1.070839	0.091720	0.627337
C301	C	0.640075	-0.007726	0.126685
C302	C	1.140075	0.492274	0.626685
N303	N	0.667517	-0.035157	0.105045
N304	N	1.167517	0.464843	0.605045
H305	H	0.573201	-0.176387	0.082103
H306	H	1.073201	0.323613	0.582103
C307	C	0.571845	-0.309625	0.140254
C308	C	1.071845	0.190375	0.640254
N309	N	0.572059	-0.288733	0.177726
N310	N	1.072059	0.211267	0.677726
H311	H	0.569324	-0.559623	-0.127188
H312	H	1.069324	-0.059623	0.372812
C313	C	0.673202	-0.040852	0.366879
C314	C	1.173202	0.459148	0.866879
N315	N	0.700643	-0.068288	0.345243
N316	N	1.200643	0.431712	0.845243
H317	H	-0.191260	0.059080	-0.081963
H318	H	0.308740	0.559080	0.418037
C319	C	0.673209	-0.040862	0.523528
C320	C	1.173209	0.459138	1.023528
N321	N	0.700651	-0.068296	0.501892
N322	N	1.200651	0.431704	1.001892
H323	H	0.663743	-0.031395	0.469064
H324	H	1.163743	0.468605	0.969064
C325	C	0.467866	0.164378	0.633270
C326	C	0.967866	0.664378	1.133270
N327	N	0.440418	0.191804	0.654908
N328	N	0.940418	0.691804	1.154908
H329	H	0.510461	0.121819	0.771280
H330	H	1.010461	0.621819	1.271280
H331	H	0.630647	0.001697	0.865958
H332	H	1.130647	0.501697	1.365958
C333	C	0.673208	-0.040863	0.633185
C334	C	1.173208	0.459137	1.133185
N335	N	0.700644	-0.068292	0.654813
N336	N	1.200644	0.431708	1.154813
C337	C	0.500967	0.131310	0.126746
C338	C	1.000967	0.631310	0.626746
N339	N	0.473524	0.158733	0.105119
N340	N	0.973524	0.658733	0.605119
H341	H	0.332330	0.064450	-0.081981
H342	H	0.832330	0.564450	0.418019
H343	H	0.567844	-0.699977	0.082148
H344	H	1.067844	-0.199977	0.582148
H345	H	0.574120	-0.084935	0.082093
H346	H	1.074120	0.415065	0.582093
C347	C	0.570311	-0.460872	0.140274
C348	C	1.070311	0.039128	0.640274
N349	N	0.570524	-0.439983	0.177749
N350	N	1.070524	0.060017	0.677749
C351	C	0.570330	-0.460980	-0.140121
C352	C	1.070330	0.039020	0.359879
N353	N	0.570542	-0.440120	-0.177599
N354	N	1.070542	0.059880	0.322401
C355	C	0.501007	0.131279	0.873470
C356	C	1.001007	0.631279	1.373470
N357	N	0.473562	0.158709	0.895108
N358	N	0.973562	0.658709	1.395108
C359	C	0.467899	0.164420	0.523629
C360	C	0.967899	0.664420	1.023629
N361	N	0.440491	0.191893	0.502019
N362	N	0.940491	0.691893	1.002019
H363	H	0.040653	0.061441	-0.127185
H364	H	0.540653	0.561441	0.372815
C365	C	-0.057995	0.060424	-0.140107
C366	C	0.442005	0.560424	0.359893
N367	N	-0.078870	0.060196	-0.177581
N368	N	0.421130	0.560196	0.322419
H369	H	0.477317	0.154928	0.469148
H370	H	0.977317	0.654928	0.969148
C371	C	0.467850	0.164393	0.366966
C372	C	0.967850	0.664393	0.866966
N373	N	0.440409	0.191829	0.345352
N374	N	0.940409	0.691829	0.845352
H375	H	0.510437	0.121853	0.228944
H376	H	1.010437	0.621853	0.728944
C377	C	-0.289929	0.058096	0.095060
C378	C	0.210071	0.558096	0.595060
N379	N	-0.310823	0.057881	0.132525
N380	N	0.189177	0.557881	0.632525
H381	H	-0.282710	0.058156	-0.081958
H382	H	0.217290	0.558156	0.418042
H383	H	-0.050813	0.060543	0.127350
H384	H	0.449187	0.560543	0.627350
H385	H	0.423786	0.065410	0.082114
H386	H	0.923786	0.565410	0.582114
H387	H	0.332337	0.064468	0.082122
H388	H	0.832337	0.564468	0.582122
H389	H	0.191881	0.063032	0.127348
H390	H	0.691881	0.563032	0.627348
H391	H	0.100451	0.062045	-0.127195
H392	H	0.600451	0.562045	0.372805
H393	H	0.423796	0.065384	-0.081980
H394	H	0.923796	0.565384	0.418020
C395	C	0.199105	0.063051	-0.140118
C396	C	0.699105	0.563051	0.359882
N397	N	0.219985	0.063259	-0.177592
N398	N	0.719985	0.563259	0.322408
C399	C	0.573153	-0.183668	-0.094923
C400	C	1.073153	0.316332	0.405077
N401	N	0.572955	-0.204562	-0.132395
N402	N	1.072955	0.295438	0.367605
H403	H	0.566944	-0.791509	-0.081942
H404	H	1.066944	-0.291509	0.418058
H405	H	0.567887	-0.700059	-0.081955
H406	H	1.067887	-0.200059	0.418045
H407	H	0.574147	-0.084993	-0.082002
H408	H	1.074147	0.415007	0.417998
C409	C	0.566851	-0.798645	0.095076
C410	C	1.066851	-0.298645	0.595076
N411	N	0.566635	-0.819522	0.132543
N412	N	1.066635	-0.319522	0.632543
C413	C	0.571882	-0.309728	-0.140126
C414	C	1.071882	0.190272	0.359874
N415	N	0.572106	-0.288851	-0.177593
N416	N	1.072106	0.211149	0.322407
H417	H	0.570868	-0.408388	-0.127201
H418	H	1.070868	0.091612	0.372799
