data_functionalizedCrystal
_audit_creation_method	'MofGen! by Chris Wilmer'
_symmetry_space_group_name_H-M	'P1'
_symmetry_Int_Tables_number	1
_symmetry_cell_setting	triclinic
loop_
_symmetry_equiv_pos_as_xyz
  x,y,z
_cell_length_a	23.096457
_cell_length_b	19.379189
_cell_length_c	23.096457
_cell_angle_alpha	52.484278
_cell_angle_beta	90.003973
_cell_angle_gamma	52.462468
loop_
_atom_site_label
_atom_site_type_symbol
_atom_site_fract_x
_atom_site_fract_y
_atom_site_fract_z
Zr1	Zr	0.336971	1.051708	-0.296502
O2	O	0.202423	1.252175	-0.430984
O3	O	0.407396	0.851257	-0.226135
O4	O	0.365289	1.051735	-0.388966
O5	O	0.244553	1.051671	-0.172858
O6	O	0.460569	1.051737	-0.388970
O7	O	0.244530	1.051697	-0.268153
O8	O	0.535891	0.693120	-0.097695
O9	O	0.169231	1.410288	-0.464133
O10	O	0.473285	0.933701	-0.231335
O11	O	0.402196	0.933679	-0.160214
O12	O	0.352620	1.169716	-0.351926
O13	O	0.281531	1.169694	-0.280806
Zr14	Zr	0.488968	1.051669	-0.144524
Zr15	Zr	0.488932	1.051712	-0.296508
Zr16	Zr	0.337008	1.051665	-0.144518
Zr17	Zr	0.284034	1.303881	-0.349371
Zr18	Zr	0.541906	0.799497	-0.091655
O19	O	0.418543	1.252120	-0.214891
O20	O	0.418491	1.252181	-0.430993
O21	O	0.202475	1.252114	-0.214882
O22	O	0.623517	0.851202	-0.010042
O23	O	0.623465	0.851263	-0.226144
O24	O	0.407449	0.851196	-0.010033
O25	O	0.581386	1.051707	-0.268168
O26	O	0.460650	1.051643	-0.052060
O27	O	0.365371	1.051640	-0.052056
O28	O	0.581409	1.051680	-0.172873
O29	O	0.290019	1.410292	-0.464138
O30	O	0.535920	0.693086	0.023112
O31	O	0.656709	0.693089	0.023107
O32	O	0.656679	0.693123	-0.097700
O33	O	0.169260	1.410254	-0.343326
O34	O	0.290048	1.410258	-0.343331
O35	O	0.473319	0.933661	-0.089100
O36	O	0.544409	0.933683	-0.160220
O37	O	0.423744	1.169698	-0.280812
O38	O	0.352655	1.169676	-0.209692
C39	C	0.479186	0.736259	-0.154382
C40	C	0.501660	0.629205	-0.131938
C41	C	0.222891	1.051683	-0.220505
C42	C	0.158380	1.051682	-0.220502
C43	C	0.221780	0.712222	-0.411592
C44	C	0.242941	0.611544	-0.390407
C45	C	0.384490	0.437430	-0.248919
C46	C	0.363339	0.538095	-0.270090
C47	C	0.281983	0.675487	-0.351428
C48	C	0.423542	0.501360	-0.209926
C49	C	0.402395	0.602018	-0.231097
C50	C	0.321045	0.739410	-0.312433
C51	C	0.260836	0.776145	-0.372599
C52	C	0.504900	0.363968	-0.128591
C53	C	0.565103	0.327233	-0.068427
C54	C	0.543954	0.427891	-0.089595
C55	C	0.462603	0.565283	-0.170930
C56	C	0.604162	0.391156	-0.029428
C57	C	0.583015	0.491813	-0.050600
C58	C	0.441456	0.665940	-0.192102
C59	C	0.191059	0.928488	-0.157562
C60	C	0.130444	0.928486	-0.157559
C61	C	0.037148	1.051685	-0.220511
C62	C	0.004468	1.174894	-0.283456
C63	C	0.065084	1.174893	-0.283452
N64	N	-0.104911	1.143397	-0.300154
N65	N	-0.162489	1.143390	-0.300155
C66	C	-0.145487	1.051697	-0.220526
N67	N	-0.068721	0.959990	-0.140892
N68	N	-0.011136	0.959993	-0.140892
C69	C	-0.028586	1.051700	-0.220522
C70	C	-0.178529	0.928493	-0.157577
C71	C	-0.239148	0.928496	-0.157572
C72	C	-0.365124	1.174908	-0.283477
C73	C	-0.304505	1.174901	-0.283474
C74	C	-0.211209	1.051690	-0.220524
C75	C	0.603049	1.051694	-0.220521
C76	C	0.667560	1.051696	-0.220524
C77	C	0.412924	1.051742	-0.410622
C78	C	0.412908	1.051760	-0.475144
C79	C	0.346753	1.367118	-0.286644
C80	C	0.324280	1.474172	-0.309088
C81	C	0.465400	1.051764	-0.505440
C82	C	0.465422	1.051736	-0.566042
C83	C	0.412935	1.051732	-0.596359
C84	C	0.360440	1.051721	-0.566051
C85	C	0.360427	1.051735	-0.505444
N86	N	0.334554	1.128638	-0.730839
N87	N	0.334569	1.128628	-0.788415
C88	C	0.412974	1.051687	-0.778965
N89	N	0.491363	0.974775	-0.709772
N90	N	0.491347	0.974791	-0.652194
C91	C	0.412944	1.051716	-0.662077
C92	C	0.465494	1.051659	-0.874972
C93	C	0.465517	1.051623	-0.935571
C94	C	0.360527	1.051622	-0.935586
C95	C	0.360512	1.051644	-0.874982
C96	C	0.412993	1.051669	-0.844681
C97	C	0.413016	1.051635	-0.030404
C98	C	0.413031	1.051617	0.034117
C99	C	0.669265	0.736265	-0.154390
C100	C	0.756250	0.629212	-0.131949
C101	C	0.479232	0.736206	0.035727
C102	C	0.501721	0.629134	0.122692
C103	C	0.669311	0.736211	0.035719
C104	C	0.756311	0.629141	0.122682
C105	C	0.156628	1.367166	-0.476745
C106	C	0.069628	1.474237	-0.563708
C107	C	0.156674	1.367113	-0.286636
C108	C	0.069690	1.474165	-0.309077
C109	C	0.346708	1.367172	-0.476753
C110	C	0.324219	1.474244	-0.563719
C111	C	0.759973	0.578949	-0.158538
C112	C	0.841695	0.478376	-0.137469
C113	C	0.919695	0.428062	-0.089805
C114	C	0.915968	0.478335	-0.063218
C115	C	0.834246	0.578913	-0.084292
C116	C	0.549408	0.578842	0.200660
C117	C	0.570533	0.478251	0.282376
C118	C	0.543976	0.427946	0.286124
C119	C	0.496282	0.478247	0.208148
C120	C	0.475153	0.578844	0.126432
C121	C	0.834282	0.578871	0.126396
C122	C	0.916030	0.478281	0.208098
C123	C	0.919808	0.427956	0.286086
C124	C	0.841828	0.478236	0.282368
C125	C	0.760080	0.578831	0.200666
C126	C	-0.008344	1.524519	-0.567425
C127	C	-0.090100	1.625140	-0.649133
C128	C	-0.093878	1.675470	-0.727122
C129	C	-0.015898	1.625184	-0.723403
C130	C	0.065854	1.524571	-0.641697
C131	C	0.065965	1.524439	-0.282497
C132	C	-0.015764	1.625040	-0.303589
C133	C	-0.093764	1.675358	-0.351255
C134	C	-0.090036	1.625079	-0.377839
C135	C	-0.008311	1.524488	-0.356753
C136	C	0.350790	1.524517	-0.567438
C137	C	0.329676	1.625109	-0.649142
C138	C	0.281985	1.675433	-0.727128
C139	C	0.255415	1.625150	-0.723406
C140	C	0.276535	1.524553	-0.641701
H141	H	0.303830	0.821368	-0.329670
N142	N	0.173078	0.924340	-0.460318
H143	H	0.138141	0.932344	-0.495219
H144	H	0.186455	0.969881	-0.497430
N145	N	-0.174198	1.679361	-0.653133
H146	H	-0.159389	1.632194	-0.591324
H147	H	-0.197302	1.661873	-0.673003
N148	N	0.029842	1.307768	-0.351345
H149	H	-0.008238	1.361626	-0.343167
H150	H	-0.008208	1.361528	-0.414536
H151	H	0.844713	0.437456	-0.159123
H152	H	0.561187	0.346034	0.352668
H153	H	-0.018985	1.666176	-0.786912
N154	N	0.303807	1.051728	-0.472766
H155	H	0.238026	1.135503	-0.526133
H156	H	0.311834	1.051689	-0.429757
N157	N	0.423736	0.633056	0.042347
H158	H	0.414377	0.704415	-0.009994
H159	H	0.363084	0.674709	0.028001
H160	H	0.979487	0.437354	-0.024409
H161	H	0.155518	0.824099	-0.477811
N162	N	0.149953	1.470338	-0.637693
H163	H	0.135146	1.517493	-0.699499
H164	H	0.197917	1.369362	-0.592998
N165	N	0.178004	0.651169	-0.455304
H166	H	0.123260	0.753479	-0.510041
H167	H	0.158449	0.613229	-0.424364
H168	H	0.831227	0.619824	-0.062632
H169	H	-0.102562	0.828167	-0.106305
N170	N	-0.174167	1.679343	-0.429235
H171	H	-0.159415	1.632235	-0.442876
H172	H	-0.222140	1.780328	-0.487722
N173	N	0.830222	0.633126	0.042290
H174	H	0.892027	0.586006	0.057054
H175	H	0.785483	0.734109	-0.005654
H176	H	0.844918	0.437246	0.345877
N177	N	0.358333	1.679330	-0.653136
H178	H	0.303092	1.780309	-0.697803
H179	H	0.399387	1.661728	-0.672921
H180	H	0.632038	0.461897	-0.001607
H181	H	0.317796	1.051611	-0.960266
H182	H	0.609369	0.437307	0.345859
N183	N	0.691904	0.242970	0.058297
H184	H	0.726834	0.234971	0.093200
H185	H	0.729005	0.197390	0.044921
H186	H	0.986233	0.346164	-0.072650
N187	N	0.150086	1.470181	-0.231086
H188	H	0.135310	1.517311	-0.217458
H189	H	0.173168	1.487694	-0.268846
H190	H	0.508268	1.051618	-0.960234
H191	H	0.450731	0.325556	-0.182695
H192	H	-0.160305	1.757266	-0.368419
N193	N	-0.019772	1.679253	-0.274911
H194	H	0.042046	1.632097	-0.241507
H195	H	-0.039624	1.661746	-0.233921
H196	H	0.979516	0.437354	0.211110
H197	H	0.571037	0.619789	0.197624
H198	H	0.267022	0.828160	-0.106308
N199	N	-0.004299	1.470268	-0.385424
H200	H	-0.066115	1.517414	-0.418817
H201	H	0.040430	1.369287	-0.330171
H202	H	0.508169	1.051739	-0.590713
H203	H	0.389620	1.483558	-0.503947
N204	N	0.259220	1.783922	-0.815248
H205	H	0.283294	1.808124	-0.805761
H206	H	0.191418	1.867337	-0.861892
H207	H	0.474664	0.437274	0.211213
N208	N	0.522097	1.051681	-0.842283
H209	H	0.555361	1.051668	-0.870668
H210	H	0.567211	0.967907	-0.774318
H211	H	0.157056	0.828164	-0.106304
N212	N	1.007982	0.319457	0.374205
H213	H	1.056800	0.295252	0.364717
H214	H	1.025468	0.236047	0.420844
N215	N	-0.096155	1.307775	-0.351349
H216	H	-0.129597	1.289084	-0.341803
H217	H	-0.113074	1.361592	-0.414543
N218	N	-0.203901	0.795617	-0.089679
H219	H	-0.135601	0.717569	-0.049805
H220	H	-0.226319	0.790269	-0.122645
H221	H	0.254891	1.483632	-0.638685
N222	N	-0.182057	1.783986	-0.815245
H223	H	-0.230874	1.808192	-0.805757
H224	H	-0.174671	1.748916	-0.837044
N225	N	0.675987	0.633040	0.196667
H226	H	0.690794	0.585884	0.258473
H227	H	0.652896	0.615525	0.176813
H228	H	0.696468	0.619914	-0.197358
N229	N	0.203978	1.679435	-0.807523
H230	H	0.194632	1.750794	-0.859842
H231	H	0.143319	1.721108	-0.821878
N232	N	-0.004280	1.470241	-0.483314
H233	H	-0.066089	1.517378	-0.498082
H234	H	0.015590	1.487730	-0.460210
H235	H	0.522126	0.282012	-0.111367
N236	N	0.353705	0.814139	-0.279822
H237	H	0.301200	0.834710	-0.281823
H238	H	0.351753	0.834582	-0.332267
H239	H	0.631345	0.215358	-0.002203
H240	H	-0.441086	1.275219	-0.334734
H241	H	0.317764	1.051649	-0.850317
H242	H	-0.331119	1.275219	-0.334732
H243	H	0.317706	1.051714	-0.590737
N244	N	0.522006	1.051785	-0.472756
H245	H	0.555264	1.051781	-0.501147
H246	H	0.567125	0.968005	-0.404792
