data_functionalizedCrystal
_audit_creation_method	'MofGen! by Chris Wilmer'
_symmetry_space_group_name_H-M	'P1'
_symmetry_Int_Tables_number	1
_symmetry_cell_setting	triclinic
loop_
_symmetry_equiv_pos_as_xyz
  x,y,z
_cell_length_a	19.188930
_cell_length_b	11.792241
_cell_length_c	10.268362
_cell_angle_alpha	89.996518
_cell_angle_beta	90.010846
_cell_angle_gamma	83.669099
loop_
_atom_site_label
_atom_site_type_symbol
_atom_site_fract_x
_atom_site_fract_y
_atom_site_fract_z
O1	O	0.095696	1.505470	0.108190
O2	O	0.429029	1.838803	0.441523
O3	O	0.762363	2.172137	0.774856
O4	O	0.105558	1.174981	0.108222
O5	O	0.438892	1.508315	0.441555
O6	O	0.772225	1.841648	0.774888
O7	O	-0.000974	1.349763	0.108179
O8	O	0.332359	1.683096	0.441513
O9	O	0.665692	2.016429	0.774846
O10	O	0.202229	1.330688	0.108232
O11	O	0.535562	1.664022	0.441566
O12	O	0.868896	1.997355	0.774899
O13	O	-0.000981	1.349761	-0.108421
O14	O	0.332353	1.683094	0.224912
O15	O	0.665686	2.016427	0.558246
O16	O	0.105552	1.174979	-0.108379
O17	O	0.438886	1.508313	0.224955
O18	O	0.772219	1.841646	0.558288
O19	O	0.095690	1.505468	-0.108411
O20	O	0.429023	1.838801	0.224923
O21	O	0.762357	2.172135	0.558256
Cu22	Cu	0.100621	1.340223	-0.128172
Cu23	Cu	0.433954	1.673557	0.205161
Cu24	Cu	0.767287	2.006890	0.538495
Cu25	Cu	0.100628	1.340226	0.127983
Cu26	Cu	0.433961	1.673559	0.461317
Cu27	Cu	0.767295	2.006892	0.794650
O28	O	0.202223	1.330686	-0.108368
O29	O	0.535556	1.664020	0.224965
O30	O	0.868889	1.997353	0.558298
C31	C	0.104936	1.132699	-0.000075
C32	C	0.438269	1.466032	0.333259
C33	C	0.771603	1.799365	0.666592
C34	C	0.103082	1.006713	-0.000064
C35	C	0.436415	1.340046	0.333270
C36	C	0.769748	1.673379	0.666603
C37	C	0.099672	0.776051	-0.000102
C38	C	0.433005	1.109385	0.333231
C39	C	0.766339	1.442718	0.666565
C40	C	0.101566	0.904408	-0.000081
C41	C	0.434900	1.237742	0.333252
C42	C	0.768233	1.571075	0.666586
C43	C	-0.026992	1.349144	-0.000125
C44	C	0.306341	1.682477	0.333209
C45	C	0.639675	2.015811	0.666542
C46	C	-0.104507	1.347290	-0.000136
C47	C	0.228826	1.680623	0.333198
C48	C	0.562160	2.013956	0.666531
C49	C	-0.148850	1.449846	-0.000152
C50	C	0.184483	1.783179	0.333182
C51	C	0.517817	2.116513	0.666515
C52	C	-0.221684	1.448104	-0.000131
C53	C	0.111650	1.781437	0.333203
C54	C	0.444983	2.114771	0.666536
C55	C	-0.250171	1.343800	-0.000120
C56	C	0.083162	1.677133	0.333214
C57	C	0.416496	2.010467	0.666547
C58	C	-0.205818	1.241230	-0.000096
C59	C	0.127515	1.574564	0.333237
C60	C	0.460848	1.907897	0.666571
C61	C	-0.132986	1.242975	-0.000104
C62	C	0.200347	1.576309	0.333229
C63	C	0.533681	1.909642	0.666563
N64	N	-0.358630	1.264071	-0.073825
N65	N	-0.025296	1.597405	0.259508
N66	N	0.308037	1.930738	0.592841
N67	N	-0.427818	1.262421	-0.073820
N68	N	-0.094484	1.595754	0.259513
N69	N	0.238849	1.929087	0.592846
C70	C	-0.469609	1.338536	-0.000093
C71	C	-0.136276	1.671870	0.333241
C72	C	0.197057	2.005203	0.666574
N73	N	-0.439601	1.416382	0.073614
N74	N	-0.106268	1.749715	0.406947
N75	N	0.227066	2.083049	0.740280
N76	N	-0.370407	1.418036	0.073603
N77	N	-0.037074	1.751369	0.406936
N78	N	0.296260	2.084703	0.740270
C79	C	-0.329144	1.341896	-0.000110
C80	C	0.004189	1.675230	0.333223
C81	C	0.337522	2.008563	0.666557
C82	C	-0.592928	1.439211	-0.000084
C83	C	-0.259594	1.772544	0.333249
C84	C	0.073739	2.105877	0.666582
C85	C	-0.665762	1.437464	-0.000055
C86	C	-0.332429	1.770798	0.333278
C87	C	0.000904	2.104131	0.666611
C88	C	-0.649895	1.230588	-0.000034
C89	C	-0.316562	1.563921	0.333300
C90	C	0.016771	1.897254	0.666633
C91	C	-0.577062	1.232337	-0.000050
C92	C	-0.243729	1.565670	0.333284
C93	C	0.089604	1.899004	0.666617
C94	C	-0.548583	1.336652	-0.000081
C95	C	-0.215250	1.669985	0.333252
C96	C	0.118084	2.003318	0.666585
C97	C	0.228240	1.331305	-0.000062
C98	C	0.561574	1.664638	0.333272
C99	C	0.894907	1.997972	0.666605
C100	C	0.305755	1.333159	-0.000042
C101	C	0.639089	1.666493	0.333291
C102	C	0.972422	1.999826	0.666625
C103	C	0.096313	1.547751	-0.000111
C104	C	0.429646	1.881084	0.333222
C105	C	0.762979	2.214417	0.666555
C106	C	0.098167	1.673737	-0.000114
C107	C	0.431500	2.007070	0.333219
C108	C	0.764833	2.340403	0.666553
N109	N	0.100628	1.340228	0.308149
N110	N	0.433961	1.673562	0.641482
N111	N	0.767295	2.006895	0.974816
N112	N	0.100615	1.340230	-0.308338
N113	N	0.433948	1.673563	0.024995
N114	N	0.767282	2.006897	0.358329
C115	C	0.100624	1.340225	0.573820
C116	C	0.433957	1.673559	0.907153
C117	C	0.767291	2.006892	1.240486
C118	C	0.100628	1.340224	0.425982
C119	C	0.433962	1.673557	0.759315
C120	C	0.767295	2.006890	1.092648
H121	H	-0.125667	1.534787	-0.000173
H122	H	0.207666	1.868120	0.333160
H123	H	0.540999	2.201454	0.666494
Cl124	Cl	-0.277440	1.577041	-0.000150
Cl125	Cl	0.055894	1.910375	0.333183
Cl126	Cl	0.389227	2.243708	0.666517
H127	H	-0.569739	1.524150	-0.000104
H128	H	-0.236405	1.857483	0.333229
H129	H	0.096928	2.190816	0.666563
H130	H	-0.229017	1.156305	-0.000084
H131	H	0.104316	1.489639	0.333249
H132	H	0.437649	1.822972	0.666582
Cl133	Cl	-0.685701	1.099461	-0.000012
Cl134	Cl	-0.352368	1.432794	0.333321
Cl135	Cl	-0.019034	1.766128	0.666654
H136	H	-0.096881	1.159459	-0.000091
H137	H	0.236452	1.492792	0.333242
H138	H	0.569785	1.826126	0.666575
Cl139	Cl	-0.721510	1.566405	-0.000067
Cl140	Cl	-0.388176	1.899738	0.333267
Cl141	Cl	-0.054843	2.233071	0.666600
H142	H	-0.540957	1.148825	-0.000044
H143	H	-0.207624	1.482158	0.333289
H144	H	0.125710	1.815491	0.666623
