data_functionalizedCrystal
_audit_creation_method	'MofGen! by Chris Wilmer'
_symmetry_space_group_name_H-M	'P1'
_symmetry_Int_Tables_number	1
_symmetry_cell_setting	triclinic
loop_
_symmetry_equiv_pos_as_xyz
  x,y,z
_cell_length_a	29.839125
_cell_length_b	16.959455
_cell_length_c	16.959454
_cell_angle_alpha	89.982978
_cell_angle_beta	89.989471
_cell_angle_gamma	90.011127
loop_
_atom_site_label
_atom_site_type_symbol
_atom_site_fract_x
_atom_site_fract_y
_atom_site_fract_z
Zn1	Zn	-0.254017	-1.208359	-0.314857
Zn2	Zn	-0.178897	-1.208289	-0.447012
Zn3	Zn	-0.178901	-1.076195	-0.314844
Zn4	Zn	-0.253999	-1.076152	-0.446990
O5	O	-0.216454	-1.142249	-0.380926
O6	O	-0.244058	-1.318960	-0.332402
O7	O	-0.116030	-1.190755	-0.429483
O8	O	-0.188875	-1.093774	-0.204235
O9	O	-0.188867	-1.318909	-0.429496
O10	O	-0.244062	-1.190874	-0.204244
O11	O	-0.116033	-1.093706	-0.332380
O12	O	-0.188857	-0.965578	-0.332359
O13	O	-0.316869	-1.093701	-0.429459
O14	O	-0.244032	-0.965547	-0.429446
O15	O	-0.316882	-1.190833	-0.332381
O16	O	-0.188850	-1.190713	-0.557620
O17	O	-0.244027	-1.093633	-0.557604
C18	C	-0.216443	-0.936882	-0.380900
C19	C	-0.216450	-0.849026	-0.380908
C20	C	-0.333632	-1.142270	-0.380919
C21	C	-0.383566	-1.142279	-0.380916
C22	C	-0.216446	-1.142182	-0.586292
C23	C	-0.216458	-1.142226	-0.674149
C24	C	-0.693220	-1.192909	-0.330235
C25	C	-0.880893	-1.192948	-0.330167
O26	O	-0.905166	-1.235936	-0.287152
N27	N	-0.904352	-1.142384	-0.380704
C28	C	-0.880889	-1.091803	-0.431257
O29	O	-0.905149	-1.048790	-0.474234
C30	C	-0.693217	-1.091760	-0.431320
C31	C	-0.669761	-1.142333	-0.380786
C32	C	-0.669764	-1.243477	-0.279704
C33	C	-0.622848	-1.243470	-0.279725
C34	C	-0.599389	-1.192894	-0.330276
C35	C	-0.622845	-1.142326	-0.380806
C36	C	-0.669756	-1.041175	-0.481869
C37	C	-0.622835	-1.041168	-0.481879
C38	C	-0.599378	-1.091741	-0.431344
C39	C	-0.552471	-1.091743	-0.431378
N40	N	-0.529012	-1.142307	-0.380841
C41	C	-0.552471	-1.192883	-0.330290
C42	C	-0.979420	-1.091830	-0.431222
C43	C	-1.026338	-1.091841	-0.431207
C44	C	-1.026338	-1.192986	-0.330116
C45	C	-0.979420	-1.192978	-0.330135
C46	C	-0.955961	-1.142394	-0.380685
C47	C	-0.453945	-1.192864	-0.330337
C48	C	-0.407026	-1.192855	-0.330365
C49	C	-0.407029	-1.091708	-0.431452
C50	C	-0.453945	-1.091720	-0.431428
C51	C	-0.477402	-1.142300	-0.380864
O52	O	-0.528169	-1.048771	-0.474365
O53	O	-0.528204	-1.235877	-0.287307
C54	C	-0.740135	-1.192916	-0.330214
C55	C	-0.763592	-1.142348	-0.380745
C56	C	-0.740133	-1.091772	-0.431296
C57	C	-0.810510	-1.142359	-0.380731
C58	C	-0.833969	-1.192935	-0.330179
C59	C	-0.810510	-1.243499	-0.279643
C60	C	-0.763594	-1.243492	-0.279663
C61	C	-0.763591	-1.041208	-0.481833
C62	C	-0.810507	-1.041220	-0.481809
C63	C	-0.833966	-1.091796	-0.431258
C64	C	-0.099731	-1.142273	-0.380876
C65	C	-0.049797	-1.142417	-0.380656
C66	C	-0.216464	-1.348417	-0.380952
C67	C	-0.216469	-1.436273	-0.380964
C68	C	-0.187784	-0.477542	-0.330331
C69	C	-0.245149	-0.477558	-0.431585
C70	C	-0.245146	-0.560104	-0.431574
C71	C	-0.216462	-0.601373	-0.380941
C72	C	-0.187780	-0.560096	-0.330320
C73	C	-0.273824	-0.601387	-0.482200
C74	C	-0.273822	-0.683938	-0.482191
C75	C	-0.245139	-0.725209	-0.431554
C76	C	-0.216457	-0.683926	-0.380930
C77	C	-0.187773	-0.725195	-0.330297
C78	C	-0.159092	-0.683914	-0.279669
C79	C	-0.159097	-0.601366	-0.279683
C80	C	-0.245134	-0.807757	-0.431540
C81	C	-0.187768	-0.807748	-0.330286
C82	C	-0.245182	-1.091772	-1.045646
C83	C	-0.187772	-1.192945	-1.045602
C84	C	-0.187767	-1.192917	-0.963057
C85	C	-0.216470	-1.142316	-0.921801
C86	C	-0.245177	-1.091741	-0.963092
C87	C	-0.159058	-1.243485	-0.921760
C88	C	-0.159052	-1.243459	-0.839209
C89	C	-0.187758	-1.192860	-0.797952
C90	C	-0.216466	-1.142285	-0.839248
C91	C	-0.245169	-1.091683	-0.797993
C92	C	-0.273880	-1.041111	-0.839287
C93	C	-0.273883	-1.041143	-0.921836
C94	C	-0.187755	-1.192828	-0.715404
C95	C	-0.245165	-1.091652	-0.715439
C96	C	-0.216471	-1.142337	-0.174757
C97	C	-0.216479	-1.142374	-0.086901
H98	H	-0.387930	-1.234040	-0.289213
H99	H	-0.297248	-0.999906	-0.805688
C100	C	-0.127466	-1.299072	-0.793788
H101	H	-0.131570	-1.291801	-0.738717
H102	H	-0.134060	-1.352182	-0.807273
H103	H	-0.097277	-1.287526	-0.807345
C104	C	-0.953622	-1.036185	-0.486832
H105	H	-0.974316	-1.006082	-0.516927
H106	H	-0.935318	-1.001750	-0.456601
H107	H	-0.935320	-1.066403	-0.521289
C108	C	-1.052147	-1.248616	-0.274507
H109	H	-1.031460	-1.278735	-0.244409
H110	H	-1.070449	-1.218391	-0.240064
H111	H	-1.070451	-1.283051	-0.304746
H112	H	-0.297174	-0.567780	-0.523428
H113	H	-0.164377	-1.234000	-0.681786
C114	C	-0.479741	-1.248508	-0.274725
H115	H	-0.459046	-1.278625	-0.244643
H116	H	-0.498043	-1.218299	-0.240267
H117	H	-0.498044	-1.282943	-0.304965
H118	H	-0.297176	-0.717542	-0.523416
H119	H	-0.135747	-0.567748	-0.238464
C120	C	-0.597052	-1.299093	-0.224129
H121	H	-0.617748	-1.329205	-0.194018
H122	H	-0.578750	-1.333522	-0.254367
H123	H	-0.578750	-1.268862	-0.189686
C124	C	-0.156237	-0.432138	-0.274646
H125	H	-0.160345	-0.377064	-0.281904
H126	H	-0.162861	-0.445682	-0.221554
H127	H	-0.126039	-0.445650	-0.286140
C128	C	-0.276699	-0.432165	-0.487276
H129	H	-0.272595	-0.377090	-0.480030
H130	H	-0.270075	-0.445682	-0.540366
H131	H	-0.306896	-0.445708	-0.475778
H132	H	-0.164412	-0.841344	-0.289049
H133	H	-0.268540	-1.050449	-0.681854
H134	H	-0.688846	-0.999993	-0.523019
C135	C	-0.156204	-1.248606	-1.090981
H136	H	-0.160320	-1.241385	-1.146058
H137	H	-0.126011	-1.237080	-1.077476
H138	H	-0.162812	-1.301703	-1.077414
H139	H	-0.688859	-1.284662	-0.238535
H140	H	-0.960325	-1.234157	-0.288985
H141	H	-0.297257	-0.999969	-0.955465
C142	C	-1.052135	-1.036216	-0.486800
H143	H	-1.031440	-1.006091	-0.516900
H144	H	-1.070440	-1.066436	-0.521241
H145	H	-1.070434	-1.001788	-0.456548
H146	H	-0.387920	-1.050533	-0.472612
C147	C	-0.597033	-0.985544	-0.537505
H148	H	-0.617725	-0.955439	-0.567604
H149	H	-0.578722	-0.951108	-0.507289
H150	H	-0.578740	-1.015781	-0.571957
C151	C	-0.276760	-1.036145	-1.091064
H152	H	-0.272652	-1.043404	-1.146136
H153	H	-0.306950	-1.047667	-1.077510
H154	H	-0.270153	-0.983037	-1.077575
H155	H	-0.135686	-1.284677	-0.955356
C156	C	-0.276678	-0.853162	-0.487224
H157	H	-0.293763	-0.816761	-0.517379
H158	H	-0.259458	-0.885354	-0.521610
H159	H	-0.296284	-0.885376	-0.457031
H160	H	-0.473044	-1.050546	-0.472585
C161	C	-0.737798	-1.299116	-0.224069
H162	H	-0.758495	-1.329228	-0.193959
H163	H	-0.719496	-1.333544	-0.254308
H164	H	-0.719496	-1.268886	-0.189625
C165	C	-0.836321	-1.299131	-0.224039
H166	H	-0.867622	-1.291884	-0.231267
H167	H	-0.828638	-1.352236	-0.235613
H168	H	-0.828633	-1.287580	-0.170928
H169	H	-0.744496	-1.000023	-0.522999
C170	C	-0.836304	-0.985584	-0.537399
H171	H	-0.815609	-0.955459	-0.567499
H172	H	-0.854612	-1.015798	-0.571840
H173	H	-0.854600	-0.951156	-0.507141
H174	H	-0.135735	-0.717526	-0.238447
