data_functionalizedCrystal
_audit_creation_method	'MofGen! by Chris Wilmer'
_symmetry_space_group_name_H-M	'P1'
_symmetry_Int_Tables_number	1
_symmetry_cell_setting	triclinic
loop_
_symmetry_equiv_pos_as_xyz
  x,y,z
_cell_length_a	19.288856
_cell_length_b	18.366186
_cell_length_c	19.288865
_cell_angle_alpha	89.988521
_cell_angle_beta	96.865496
_cell_angle_gamma	90.011039
loop_
_atom_site_label
_atom_site_type_symbol
_atom_site_fract_x
_atom_site_fract_y
_atom_site_fract_z
O1	O	-0.921356	-0.060591	0.086620
O2	O	-0.421356	0.439409	0.586620
O3	O	-0.719095	-0.060586	0.098315
O4	O	-0.219095	0.439414	0.598315
O5	O	-0.826070	-0.060575	-0.008663
O6	O	-0.326070	0.439425	0.491337
O7	O	-0.814381	-0.060603	0.193598
O8	O	-0.314381	0.439397	0.693598
O9	O	-0.826052	0.060525	-0.008668
O10	O	-0.326052	0.560525	0.491332
O11	O	-0.719077	0.060513	0.098310
O12	O	-0.219077	0.560513	0.598310
O13	O	-0.921338	0.060508	0.086615
O14	O	-0.421338	0.560508	0.586615
Zn15	Zn	-0.820205	0.079738	0.092462
Zn16	Zn	-0.320205	0.579738	0.592462
Zn17	Zn	-0.820229	-0.079816	0.092469
Zn18	Zn	-0.320229	0.420184	0.592469
O19	O	-0.814363	0.060496	0.193593
O20	O	-0.314363	0.560496	0.693593
C21	C	-0.693209	-0.000036	0.097937
C22	C	-0.193209	0.499964	0.597937
C23	C	-0.616106	-0.000034	0.096811
C24	C	-0.116106	0.499966	0.596811
C25	C	-0.052064	-0.000031	0.151959
C26	C	0.447936	0.499969	0.651959
C27	C	-0.124511	-0.000036	0.153024
C28	C	0.375489	0.499964	0.653024
C29	C	-0.169218	-0.000027	0.090254
C30	C	0.330782	0.499973	0.590254
C31	C	-0.141472	-0.000031	0.026415
C32	C	0.358528	0.499969	0.526415
C33	C	-0.069027	-0.000033	0.025352
C34	C	0.430973	0.499967	0.525352
C35	C	-0.290482	0.042406	0.043438
C36	C	0.209518	0.542406	0.543438
C37	C	-0.362925	0.042413	0.044504
C38	C	0.137075	0.542413	0.544504
C39	C	-0.392664	-0.000025	0.093530
C40	C	0.107336	0.499975	0.593530
C41	C	-0.349948	-0.042459	0.141502
C42	C	0.150052	0.457541	0.641502
C43	C	-0.277502	-0.042461	0.140439
C44	C	0.222498	0.457539	0.640439
C45	C	-0.247773	-0.000025	0.091399
C46	C	0.252227	0.499975	0.591399
C47	C	-0.498955	-0.000032	0.158519
C48	C	0.001045	0.499968	0.658519
C49	C	-0.571404	-0.000042	0.159581
C50	C	-0.071404	0.499958	0.659581
C51	C	-0.588364	-0.000029	0.032971
C52	C	-0.088364	0.499971	0.532971
C53	C	-0.515917	-0.000026	0.031910
C54	C	-0.015917	0.499974	0.531910
C55	C	-0.471217	-0.000024	0.094687
C56	C	0.028783	0.499976	0.594687
C57	C	-0.825685	-0.000023	-0.034542
C58	C	-0.325685	0.499977	0.465458
C59	C	-0.824556	-0.000016	-0.111645
C60	C	-0.324556	0.499984	0.388355
C61	C	0.052776	-0.000039	0.086995
C62	C	0.552776	0.499961	0.586995
C63	C	-0.024327	-0.000031	0.088128
C64	C	0.475673	0.499969	0.588128
N65	N	-0.820194	0.188629	0.092457
N66	N	-0.320194	0.688629	0.592457
N67	N	-0.820245	-0.188707	0.092468
N68	N	-0.320245	0.311293	0.592468
C69	C	-0.867578	0.226734	0.045110
C70	C	-0.367578	0.726734	0.545110
C71	C	-0.867582	0.302962	0.045107
C72	C	-0.367582	0.802962	0.545107
C73	C	-0.820209	0.341082	0.092462
C74	C	-0.320209	0.841082	0.592462
C75	C	-0.772816	0.302967	0.139813
C76	C	-0.272816	0.802967	0.639813
C77	C	-0.772808	0.226740	0.139810
C78	C	-0.272808	0.726740	0.639810
C79	C	-0.810911	0.461833	0.155751
C80	C	-0.310911	0.961833	0.655751
C81	C	-0.810923	0.538058	0.155754
C82	C	-0.310923	1.038058	0.655754
C83	C	-0.820229	0.576189	0.092471
C84	C	-0.320229	1.076189	0.592471
C85	C	-0.829536	0.538086	0.029181
C86	C	-0.329536	1.038086	0.529181
C87	C	-0.829529	0.461859	0.029178
C88	C	-0.329529	0.961859	0.529178
C89	C	-0.820212	0.423736	0.092471
C90	C	-0.320212	0.923736	0.592471
C91	C	-0.867620	0.696950	0.045117
C92	C	-0.367620	1.196950	0.545117
C93	C	-0.867620	0.773179	0.045113
C94	C	-0.367620	1.273179	0.545113
C95	C	-0.772857	0.773182	0.139825
C96	C	-0.272857	1.273182	0.639825
C97	C	-0.772854	0.696954	0.139823
C98	C	-0.272854	1.196954	0.639823
C99	C	-0.820239	0.658843	0.092470
C100	C	-0.320239	1.158843	0.592470
C101	C	-0.887324	-0.000014	-0.156343
C102	C	-0.387324	0.499986	0.343657
C103	C	-0.886263	-0.000026	-0.228790
C104	C	-0.386263	0.499974	0.271210
C105	C	-0.822431	-0.000025	-0.256536
C106	C	-0.322431	0.499975	0.243464
C107	C	-0.759655	-0.000031	-0.211828
C108	C	-0.259655	0.499969	0.288172
C109	C	-0.760717	-0.000027	-0.139383
C110	C	-0.260717	0.499973	0.360617
C111	C	-0.772245	0.042395	-0.364824
C112	C	-0.272245	0.542395	0.135176
C113	C	-0.771185	0.042395	-0.437268
C114	C	-0.271185	0.542395	0.062732
C115	C	-0.819151	-0.000041	-0.479982
C116	C	-0.319151	0.499959	0.020018
C117	C	-0.868189	-0.042468	-0.450243
C118	C	-0.368189	0.457532	0.049757
C119	C	-0.869252	-0.042464	-0.377798
C120	C	-0.369252	0.457536	0.122202
C121	C	-0.821272	-0.000030	-0.335090
C122	C	-0.321272	0.499970	0.164910
C123	C	-0.880774	-0.000052	-0.603236
C124	C	-0.380774	0.499948	-0.103236
C125	C	-0.879710	-0.000068	-0.675684
C126	C	-0.379710	0.499932	-0.175684
C127	C	-0.753100	-0.000066	-0.658720
C128	C	-0.253100	0.499934	-0.158720
C129	C	-0.754165	-0.000057	-0.586273
C130	C	-0.254165	0.499943	-0.086273
C131	C	-0.818004	-0.000047	-0.558536
C132	C	-0.318004	0.499953	-0.058536
C133	C	-0.814748	-0.000057	0.219472
C134	C	-0.314748	0.499943	0.719472
C135	C	-0.815877	-0.000068	0.296576
C136	C	-0.315877	0.499932	0.796576
H137	H	-0.242726	-0.077013	0.179498
H138	H	0.257274	0.422987	0.679498
H139	H	-0.837113	0.569130	-0.022350
H140	H	-0.337113	1.069130	0.477650
N141	N	-0.154441	-0.000028	0.221871
N142	N	0.345559	0.499972	0.721871
H143	H	-0.184131	-0.044918	0.225141
H144	H	0.315869	0.455082	0.725141
H145	H	-0.115094	-0.000000	0.261437
H146	H	0.384906	0.500000	0.761437
H147	H	-0.374158	-0.077013	0.181425
H148	H	0.125842	0.422987	0.681425
H149	H	-0.906202	0.665918	0.006557
H150	H	-0.406202	1.165918	0.506557
H151	H	-0.906203	0.804205	0.006554
H152	H	-0.406203	1.304205	0.506554
N153	N	-0.953965	-0.000025	-0.277013
N154	N	-0.453965	0.499975	0.222987
H155	H	-0.994567	-0.000019	-0.248448
H156	H	-0.494567	0.499981	0.251552
H157	H	-0.956268	0.044868	-0.307449
H158	H	-0.456268	0.544868	0.192551
H159	H	-0.593985	-0.000048	0.211562
H160	H	-0.093985	0.499952	0.711562
N161	N	-0.450737	-0.000038	0.226223
N162	N	0.049263	0.499962	0.726223
H163	H	-0.479305	-0.000046	0.266823
H164	H	0.020695	0.499954	0.766823
H165	H	-0.420318	-0.044931	0.228539
H166	H	0.079682	0.455069	0.728539
N167	N	-0.721745	0.655856	0.190895
N168	N	-0.221745	1.155856	0.690895
H169	H	-0.729588	0.669106	0.240173
H170	H	-0.229588	1.169106	0.740173
H171	H	-0.728950	0.601795	0.183649
H172	H	-0.228950	1.101795	0.683649
H173	H	-0.624764	-0.000027	-0.018138
H174	H	-0.124764	0.499973	0.481862
H175	H	-0.909179	-0.077011	-0.353588
H176	H	-0.409179	0.422989	0.146412
N177	N	-0.485995	-0.000020	-0.036936
N178	N	0.014005	0.499980	0.463064
H179	H	-0.525307	-0.000014	-0.076540
H180	H	-0.025307	0.499986	0.423460
H181	H	-0.456298	0.044873	-0.040137
H182	H	0.043702	0.544873	0.459863
N183	N	-0.686461	-0.000047	-0.538063
N184	N	-0.186461	0.499953	-0.038063
H185	H	-0.684074	0.044846	-0.507638
H186	H	-0.184074	0.544846	-0.007638
H187	H	-0.684124	-0.044967	-0.507662
H188	H	-0.184124	0.455033	-0.007662
N189	N	-0.947413	-0.000061	-0.723899
N190	N	-0.447413	0.499939	-0.223899
H191	H	-0.949807	-0.044956	-0.754323
H192	H	-0.449807	0.455044	-0.254323
H193	H	-0.987974	-0.000024	-0.695283
H194	H	-0.487974	0.499976	-0.195283
H195	H	-0.906160	0.195706	0.006551
H196	H	-0.406160	0.695706	0.506551
H197	H	-0.731253	0.076938	-0.461475
H198	H	-0.231253	0.576938	0.038525
N199	N	-0.956176	-0.000004	-0.126426
N200	N	-0.456176	0.499996	0.373574
H201	H	-0.995778	-0.000005	-0.165740
H202	H	-0.495778	0.499995	0.334260
H203	H	-0.959384	-0.044896	-0.096729
H204	H	-0.459384	0.455104	0.403271
N205	N	-0.258401	0.088190	-0.009430
N206	N	0.241599	0.588190	0.490570
H207	H	-0.232343	0.055700	-0.039703
H208	H	0.267657	0.555700	0.460297
H209	H	-0.296483	0.115076	-0.039607
H210	H	0.203517	0.615076	0.460393
H211	H	-0.907248	-0.077024	-0.485019
H212	H	-0.407248	0.422976	0.014981
H213	H	-0.733183	0.076956	-0.330052
H214	H	-0.233183	0.576956	0.169948
H215	H	-0.707682	-0.000032	-0.234423
H216	H	-0.207682	0.499968	0.265577
H217	H	-0.177877	-0.000025	-0.024693
H218	H	0.322123	0.499975	0.475307
H219	H	-0.397699	0.076969	0.005445
H220	H	0.102301	0.576969	0.505445
N221	N	-0.949624	-0.000044	-0.573312
N222	N	-0.449624	0.499956	-0.073312
H223	H	-0.989228	-0.000051	-0.612624
H224	H	-0.489228	0.499949	-0.112624
H225	H	-0.952829	-0.044933	-0.543610
H226	H	-0.452829	0.455067	-0.043610
N227	N	-0.693015	-0.000029	-0.091167
N228	N	-0.193015	0.499971	0.408833
H229	H	-0.652414	-0.000033	-0.119733
H230	H	-0.152414	0.499967	0.380267
H231	H	-0.690691	0.044867	-0.060751
H232	H	-0.190691	0.544867	0.439249
H233	H	-0.046445	-0.000033	-0.026628
H234	H	0.453555	0.499967	0.473372
H235	H	-0.837105	0.430839	-0.022354
H236	H	-0.337105	0.930839	0.477646
H237	H	-0.015673	-0.000033	0.203076
H238	H	0.484327	0.499967	0.703076
N239	N	-0.721755	0.814285	0.190897
N240	N	-0.221755	1.314285	0.690897
H241	H	-0.728948	0.868357	0.183714
H242	H	-0.228948	1.368357	0.683714
H243	H	-0.729619	0.800947	0.240153
H244	H	-0.229619	1.300947	0.740153
H245	H	-0.906169	0.333994	0.006550
H246	H	-0.406169	0.833994	0.506550
H247	H	-0.803349	0.569076	0.207288
H248	H	-0.303349	1.069076	0.707288
N249	N	-0.800875	0.420709	0.224010
N250	N	-0.300875	0.920709	0.724010
H251	H	-0.794988	0.456412	0.264102
H252	H	-0.294988	0.956412	0.764102
H253	H	-0.843056	0.389070	0.227952
H254	H	-0.343056	0.889070	0.727952
H255	H	-0.734243	0.334007	0.178369
H256	H	-0.234243	0.834007	0.678369
H257	H	-0.734222	0.195714	0.178366
H258	H	-0.234222	0.695714	0.678366
N259	N	-0.684250	-0.000073	-0.688634
N260	N	-0.184250	0.499927	-0.188634
H261	H	-0.693100	-0.000078	-0.741311
H262	H	-0.193100	0.499922	-0.241311
H263	H	-0.656784	0.044820	-0.672279
H264	H	-0.156784	0.544820	-0.172279
