data_functionalizedCrystal
_audit_creation_method	'MofGen! by Chris Wilmer'
_symmetry_space_group_name_H-M	'P1'
_symmetry_Int_Tables_number	1
_symmetry_cell_setting	triclinic
loop_
_symmetry_equiv_pos_as_xyz
  x,y,z
_cell_length_a	10.489741
_cell_length_b	27.732048
_cell_length_c	9.565339
_cell_angle_alpha	89.995294
_cell_angle_beta	89.999100
_cell_angle_gamma	83.590915
loop_
_atom_site_label
_atom_site_type_symbol
_atom_site_fract_x
_atom_site_fract_y
_atom_site_fract_z
O1	O	1.691056	0.068187	-0.116191
O2	O	1.319579	0.074588	-0.116214
O3	O	1.516855	0.001064	-0.116175
O4	O	1.493780	0.141712	-0.116230
O5	O	1.516839	0.001068	0.116345
O6	O	1.319563	0.074593	0.116306
O7	O	1.691040	0.068192	0.116329
Zn8	Zn	1.505299	0.071393	0.153235
Zn9	Zn	1.505320	0.071387	-0.153120
O10	O	1.493765	0.141716	0.116290
C11	C	1.272061	0.074107	0.000043
C12	C	1.130495	0.072661	0.000036
C13	C	1.064411	0.025879	0.000067
C14	C	0.971320	0.047976	-0.114583
C15	C	0.971339	0.047992	0.114663
C16	C	1.039269	0.094777	-0.114709
C17	C	1.039297	0.094786	0.114640
C18	C	0.946232	0.116916	-0.000038
C19	C	1.516363	-0.016944	0.000089
C20	C	1.514904	-0.070608	0.000100
C21	C	1.622299	-0.408745	0.000035
C22	C	1.616888	-0.610439	0.000015
O23	O	1.715093	-0.641075	-0.000040
N24	N	1.499911	-0.630301	0.000009
C25	C	1.384279	-0.599736	-0.000001
O26	O	1.284660	-0.621258	-0.000021
C27	C	1.389692	-0.398044	0.000009
C28	C	1.506676	-0.378184	0.000029
C29	C	1.739274	-0.388886	0.000054
C30	C	1.740625	-0.338465	0.000066
C31	C	1.625002	-0.307904	0.000060
C32	C	1.508028	-0.327764	0.000042
C33	C	1.274062	-0.367480	-0.000011
C34	C	1.275425	-0.317054	-0.000012
C35	C	1.392409	-0.297195	0.000008
C36	C	1.393757	-0.246783	0.000048
N37	N	1.510733	-0.226920	0.000054
C38	C	1.626356	-0.257481	0.000060
C39	C	1.381446	-0.705628	-0.000003
C40	C	1.380092	-0.756051	-0.000003
C41	C	1.612701	-0.766751	0.000010
C42	C	1.614053	-0.716327	0.000020
C43	C	1.498422	-0.685766	0.000003
C44	C	1.629186	-0.151594	0.000088
C45	C	1.630527	-0.101169	0.000106
C46	C	1.397919	-0.090474	0.000085
C47	C	1.396577	-0.140895	0.000074
C48	C	1.512221	-0.171454	0.000071
O49	O	1.295604	-0.216118	0.000088
O50	O	1.725961	-0.235950	0.000049
C51	C	1.620947	-0.459166	0.000023
C52	C	1.503973	-0.479025	0.000004
C53	C	1.388350	-0.448464	-0.000002
C54	C	1.502619	-0.529448	0.000004
C55	C	1.618242	-0.560009	0.000010
C56	C	1.735219	-0.540147	0.000016
C57	C	1.736570	-0.489727	0.000029
C58	C	1.271374	-0.468327	-0.000008
C59	C	1.270032	-0.518748	-0.000019
C60	C	1.385654	-0.549308	-0.000013
C61	C	1.738559	0.068673	0.000069
C62	C	1.880124	0.070119	0.000067
C63	C	1.494257	0.159724	0.000023
C64	C	1.495715	0.213388	0.000003
N65	N	1.505295	0.071397	0.362315
N66	N	1.505335	0.071379	-0.362199
C67	C	1.414034	0.105388	0.453500
C68	C	1.529101	0.115168	0.546682
C69	C	1.390277	0.061621	0.546688
C70	C	1.620419	0.081198	0.453445
C71	C	1.481520	0.027633	0.453443
C72	C	1.596671	0.037394	0.546583
H73	H	0.941183	0.028180	-0.211498
H74	H	1.174762	-0.534912	-0.000023
H75	H	1.673948	0.008640	0.587197
C76	C	1.759211	-0.079324	0.000130
H77	H	1.743464	-0.044917	0.000150
H78	H	1.806785	-0.089783	-0.080951
H79	H	1.806762	-0.089793	0.081229
C80	C	1.309872	0.144251	0.398267
H81	H	1.249918	0.129163	0.343627
H82	H	1.348591	0.166871	0.342252
H83	H	1.266833	0.160691	0.474859
C84	C	0.877166	0.168920	-0.000132
H85	H	0.825532	0.173770	0.081345
H86	H	0.824451	0.173568	-0.080834
H87	H	0.938913	0.191507	-0.000942
C88	C	1.079735	0.121503	-0.245783
H89	H	1.170059	0.122249	-0.245012
H90	H	1.038191	0.153744	-0.246090
H91	H	1.055938	0.105000	-0.327109
C92	C	1.080071	0.121505	0.245566
H93	H	1.057101	0.104840	0.326957
H94	H	1.037984	0.153662	0.246379
H95	H	1.170301	0.122485	0.244150
H96	H	1.549238	0.152170	0.587636
C97	C	1.251411	-0.777891	-0.000014
H98	H	1.182750	-0.752464	-0.000032
H99	H	1.246030	-0.797342	0.081066
H100	H	1.246054	-0.797334	-0.081114
C101	C	1.254243	-0.672018	-0.000004
H102	H	1.184393	-0.691073	0.000008
H103	H	1.249922	-0.652121	-0.081084
H104	H	1.249931	-0.652130	0.081096
C105	C	1.454269	-0.022337	0.398057
H106	H	1.372454	-0.029228	0.429925
H107	H	1.518273	-0.046556	0.431312
H108	H	1.455232	-0.022050	0.298750
H109	H	0.941224	0.028191	0.211592
C110	C	1.145378	-0.389314	-0.000045
H111	H	1.076723	-0.363885	-0.000068
H112	H	1.139985	-0.408765	0.081032
H113	H	1.140022	-0.408755	-0.081148
C114	C	1.148231	-0.283438	-0.000031
H115	H	1.165782	-0.250563	-0.000034
H116	H	1.100211	-0.289508	0.081044
H117	H	1.100240	-0.289501	-0.081136
C118	C	1.133811	-0.026073	-0.000088
H119	H	1.110733	-0.042616	-0.081649
H120	H	1.109609	-0.042869	0.080529
H121	H	1.223928	-0.024782	0.000721
C122	C	1.756390	-0.185202	0.000096
H123	H	1.826241	-0.166147	0.000122
H124	H	1.760721	-0.205093	-0.080989
H125	H	1.760693	-0.205097	0.081191
C126	C	1.869308	-0.316626	0.000062
H127	H	1.937965	-0.342055	0.000048
H128	H	1.874687	-0.297180	0.081143
H129	H	1.874673	-0.297179	-0.081037
C130	C	1.258857	0.050455	0.602004
H131	H	1.194106	0.074641	0.570112
H132	H	1.260041	0.050233	0.701304
H133	H	1.241335	0.019603	0.568689
H134	H	1.829363	-0.565039	0.000027
C135	C	1.866470	-0.422496	0.000072
H136	H	1.936318	-0.403439	0.000094
H137	H	1.870806	-0.442389	-0.081007
H138	H	1.870773	-0.442387	0.081173
C139	C	1.751866	0.092423	0.398359
H140	H	1.751034	0.092379	0.299042
H141	H	1.816734	0.068417	0.430971
H142	H	1.768908	0.123408	0.431060
C143	C	1.742734	-0.694486	0.000029
H144	H	1.811394	-0.719913	0.000026
H145	H	1.748099	-0.675039	0.081111
H146	H	1.748106	-0.675039	-0.081069
C147	C	1.267899	-0.162741	0.000049
H148	H	1.199233	-0.137317	0.000038
H149	H	1.262517	-0.182198	0.081118
H150	H	1.262552	-0.182179	-0.081062
H151	H	1.706846	-0.791642	0.000016
H152	H	1.303782	-0.065582	0.000085
H153	H	1.831831	-0.473562	0.000045
H154	H	1.177217	-0.443448	-0.000016
