data_functionalizedCrystal
_audit_creation_method	'MofGen! by Chris Wilmer'
_symmetry_space_group_name_H-M	'P1'
_symmetry_Int_Tables_number	1
_symmetry_cell_setting	triclinic
loop_
_symmetry_equiv_pos_as_xyz
  x,y,z
_cell_length_a	14.044220
_cell_length_b	15.072220
_cell_length_c	15.995350
_cell_angle_alpha	89.998899
_cell_angle_beta	88.340626
_cell_angle_gamma	90.007881
loop_
_atom_site_label
_atom_site_type_symbol
_atom_site_fract_x
_atom_site_fract_y
_atom_site_fract_z
O1	O	1.257718	0.073680	0.201858
O2	O	0.981749	0.073703	0.194574
O3	O	1.127278	0.073690	0.076892
O4	O	1.112190	0.073693	0.319541
O5	O	1.127242	-0.073875	0.076897
O6	O	0.981713	-0.073862	0.194579
O7	O	1.257682	-0.073885	0.201863
Zn8	Zn	1.119692	-0.097303	0.198222
Zn9	Zn	1.119740	0.097121	0.198216
O10	O	1.112154	-0.073872	0.319545
C11	C	0.946417	-0.000077	0.191388
C12	C	0.841191	-0.000068	0.181877
N13	N	1.119667	-0.229992	0.198226
C14	C	0.648530	-0.000086	0.164489
C15	C	0.590896	-0.000089	0.231945
C16	C	0.483693	-0.000099	0.222270
C17	C	0.755743	-0.000076	0.174162
C18	C	1.119738	-0.589193	0.198212
C19	C	1.041607	-0.551579	0.260931
C20	C	1.041786	-0.448754	0.261195
C21	C	1.119702	-0.410989	0.198219
C22	C	1.218604	-0.448288	0.224687
C23	C	1.218166	-0.551146	0.225142
C24	C	1.099848	-0.551292	0.108887
C25	C	1.097578	-0.448429	0.109304
C26	C	1.119688	-0.310276	0.198221
C27	C	1.119758	-0.689907	0.198212
C28	C	1.293015	-0.000104	0.205049
C29	C	1.398241	-0.000107	0.214560
C30	C	1.126636	-0.000091	0.045653
C31	C	1.124766	-0.000086	-0.047437
N32	N	1.119772	0.229809	0.198206
C33	C	1.118050	-0.000088	-0.385686
C34	C	1.014408	0.000251	-0.345993
C35	C	1.016278	-0.000081	-0.249163
C36	C	1.121381	-0.000086	-0.217877
C37	C	1.172481	-0.084356	-0.255134
C38	C	1.169877	-0.084426	-0.351964
C39	C	1.172059	0.083383	-0.352167
C40	C	1.172035	0.084496	-0.255224
C41	C	1.123269	-0.000088	-0.123038
C42	C	1.116165	-0.000092	-0.480525
C43	C	1.112796	-0.000089	0.350784
C44	C	1.114666	-0.000089	0.443874
H45	H	0.622068	-0.000084	0.296962
C46	C	0.606426	-0.000081	0.076662
H47	H	0.538852	-0.000078	0.081601
H48	H	0.627213	-0.051535	0.047097
H49	H	0.627221	0.051390	0.047111
C50	C	0.942470	-0.414683	0.238435
H51	H	0.901649	-0.463705	0.228948
H52	H	0.947670	-0.379546	0.189211
H53	H	0.916807	-0.379791	0.283121
H54	H	1.235693	-0.575129	0.290512
H55	H	1.278122	-0.576026	0.181657
C56	C	0.941971	-0.585030	0.238397
H57	H	0.947124	-0.622240	0.190540
H58	H	0.902250	-0.535831	0.226679
H59	H	0.915074	-0.617679	0.284070
H60	H	1.054133	-0.577418	0.326684
H61	H	1.054487	-0.424140	0.327328
C62	C	1.121651	0.168720	-0.222104
H63	H	1.152622	0.219661	-0.244920
H64	H	1.124203	0.170267	-0.162842
H65	H	1.057045	0.168198	-0.238129
H66	H	1.278133	-0.423825	0.180530
H67	H	1.248682	0.089581	-0.234137
H68	H	1.248475	0.083945	-0.378221
C69	C	1.242849	-0.413488	0.312053
H70	H	1.192833	-0.376238	0.332518
H71	H	1.300538	-0.380617	0.308471
H72	H	1.250112	-0.462147	0.349078
H73	H	1.156825	-0.575616	0.062127
H74	H	0.976109	0.060327	-0.223744
C75	C	1.004515	-0.586357	0.076996
H76	H	0.975949	-0.624442	0.117866
H77	H	1.015588	-0.618392	0.026504
H78	H	0.963182	-0.537860	0.066966
C79	C	0.999295	-0.415503	0.082397
H80	H	0.971853	-0.379085	0.125164
H81	H	0.958975	-0.464950	0.073217
H82	H	1.006426	-0.382139	0.032215
C83	C	1.169465	-0.413719	0.042525
H84	H	1.214115	-0.375774	0.068112
H85	H	1.136575	-0.381605	0.001197
H86	H	1.202078	-0.462372	0.017079
H87	H	1.245969	-0.088253	-0.378528
C88	C	0.958455	0.081879	-0.375218
H89	H	0.997796	0.116484	-0.411893
H90	H	0.939401	0.116583	-0.328067
H91	H	0.903652	0.062927	-0.403745
C92	C	0.958674	-0.080926	-0.376609
H93	H	0.998294	-0.115025	-0.413474
H94	H	0.904115	-0.061549	-0.405230
H95	H	0.939246	-0.116296	-0.330005
C96	C	0.961623	-0.081823	-0.215594
H97	H	0.938197	-0.114961	-0.261151
H98	H	0.909755	-0.063035	-0.180497
H99	H	1.003213	-0.117919	-0.184433
C100	C	1.119488	-0.169510	-0.380450
H101	H	1.100794	-0.203704	-0.332852
H102	H	1.161826	-0.203205	-0.415257
H103	H	1.064738	-0.154107	-0.410803
C104	C	1.276790	-0.088605	-0.228258
H105	H	1.290132	-0.038906	-0.193991
H106	H	1.317890	-0.087827	-0.276475
H107	H	1.286692	-0.141701	-0.197708
H108	H	1.136960	-0.147063	-0.229402
H109	H	1.138189	0.147254	-0.375240
