data_functionalizedCrystal
_audit_creation_method	'MofGen! by Chris Wilmer'
_symmetry_space_group_name_H-M	'P1'
_symmetry_Int_Tables_number	1
_symmetry_cell_setting	triclinic
loop_
_symmetry_equiv_pos_as_xyz
  x,y,z
_cell_length_a	12.811438
_cell_length_b	12.837943
_cell_length_c	13.330367
_cell_angle_alpha	90.001313
_cell_angle_beta	95.424977
_cell_angle_gamma	89.412890
loop_
_atom_site_label
_atom_site_type_symbol
_atom_site_fract_x
_atom_site_fract_y
_atom_site_fract_z
O1	O	1.406629	0.139705	0.044573
O2	O	1.102568	0.154889	0.016905
O3	O	1.247856	-0.003635	0.030125
O4	O	1.261341	0.298229	0.031353
O5	O	1.247832	-0.003632	0.196970
O6	O	1.102544	0.154892	0.183750
O7	O	1.406604	0.139709	0.211418
Cu8	Cu	1.254572	0.147301	0.212818
Cu9	Cu	1.254601	0.147297	0.015505
O10	O	1.261316	0.298232	0.198198
C11	C	1.063367	0.154039	0.096762
C12	C	0.946596	0.151488	0.086136
C13	C	0.782023	0.147891	-0.019777
C14	C	0.891740	0.150287	-0.009801
C15	C	0.891728	0.150290	0.172104
C16	C	0.782012	0.147894	0.162128
C17	C	0.727163	0.146696	0.066185
C18	C	0.617444	0.144308	0.056211
C19	C	0.617435	0.144303	0.238115
C20	C	0.727151	0.146699	0.248090
C21	C	1.243289	-0.042274	0.113130
C22	C	1.229703	-0.157410	0.111887
N23	N	1.254559	0.147303	0.351599
C24	C	1.445805	0.140559	0.131559
C25	C	1.562576	0.143110	0.142178
C26	C	1.265884	0.336871	0.115191
C27	C	1.279470	0.452007	0.116427
C28	C	1.116142	0.692258	0.101547
C29	C	1.128903	0.800439	0.102708
C30	C	1.317749	0.776552	0.119903
C31	C	1.304989	0.668371	0.118742
C32	C	1.204182	0.626228	0.109565
C33	C	1.191423	0.518045	0.108411
C34	C	1.380269	0.494160	0.125599
C35	C	1.393029	0.602342	0.126760
N36	N	1.254621	0.147287	-0.123275
C37	C	1.184588	0.084091	0.397756
C38	C	1.324543	0.210509	0.410470
C39	C	1.324556	0.210509	0.515490
C40	C	1.254584	0.147297	0.561647
C41	C	1.184600	0.084086	0.502786
C42	C	1.394545	0.273711	0.574360
C43	C	1.394561	0.273712	0.679386
C44	C	1.324584	0.210505	0.725545
C45	C	1.254596	0.147292	0.666676
C46	C	1.184624	0.084080	0.712834
C47	C	1.114631	0.020873	0.653967
C48	C	1.114622	0.020879	0.548945
C49	C	1.324592	0.210498	0.830567
C50	C	1.184637	0.084076	0.817863
H51	H	0.572787	0.143337	-0.021911
C52	C	1.080535	0.471690	0.098313
N53	N	0.997010	0.436778	0.090703
H54	H	0.936406	0.151253	0.250216
H55	H	1.451958	0.440387	0.132130
C56	C	1.107659	0.014538	0.868628
N57	N	1.049679	-0.037839	0.906863
C58	C	1.107715	0.014438	0.333014
N59	N	1.049857	-0.038071	0.284252
C60	C	0.787496	0.148064	0.353622
N61	N	0.832946	0.149112	0.433111
C62	C	0.721687	0.146580	-0.125313
N63	N	0.676243	0.145592	-0.204806
H64	H	1.034062	0.657945	0.094093
H65	H	0.572756	0.143335	0.308111
H66	H	0.936403	0.151260	-0.079800
C67	C	1.032051	0.873069	0.093888
N68	N	0.959098	0.927774	0.087244
C69	C	1.471526	0.343220	0.523582
N70	N	1.529515	0.395572	0.485331
H71	H	1.057664	-0.030599	0.691563
C72	C	1.401583	0.280019	0.895316
N73	N	1.459576	0.332387	0.944084
C74	C	1.428628	0.822929	0.130000
N75	N	1.512144	0.857862	0.137611
H76	H	1.475103	0.636670	0.134236
C77	C	1.037812	-0.048834	0.484200
N78	N	0.980023	-0.101411	0.435436
C79	C	1.401520	0.280025	0.359694
N80	N	1.459503	0.332386	0.321445
H81	H	1.451554	0.325180	0.727307
