data_functionalizedCrystal
_audit_creation_method	'MofGen! by Chris Wilmer'
_symmetry_space_group_name_H-M	'P1'
_symmetry_Int_Tables_number	1
_symmetry_cell_setting	triclinic
loop_
_symmetry_equiv_pos_as_xyz
  x,y,z
_cell_length_a	17.019282
_cell_length_b	17.038272
_cell_length_c	10.268362
_cell_angle_alpha	89.994496
_cell_angle_beta	93.876638
_cell_angle_gamma	87.241387
loop_
_atom_site_label
_atom_site_type_symbol
_atom_site_fract_x
_atom_site_fract_y
_atom_site_fract_z
O1	O	1.053361	0.099546	0.009875
O2	O	1.553361	0.599546	0.509875
O3	O	0.824549	0.112259	-0.015798
O4	O	1.324549	0.612259	0.484202
O5	O	0.937595	-0.007912	-0.003104
O6	O	1.437595	0.492088	0.496896
O7	O	0.940315	0.219716	-0.002819
O8	O	1.440315	0.719716	0.497181
O9	O	0.937584	-0.007917	0.213496
O10	O	1.437584	0.492083	0.713496
O11	O	0.824538	0.112254	0.200801
O12	O	1.324538	0.612254	0.700801
O13	O	1.053350	0.099541	0.226475
O14	O	1.553350	0.599541	0.726475
Cu15	Cu	0.938943	0.105897	0.233415
Cu16	Cu	1.438943	0.605897	0.733415
Cu17	Cu	0.938956	0.105903	-0.022739
Cu18	Cu	1.438956	0.605903	0.477261
O19	O	0.940304	0.219711	0.213780
O20	O	1.440304	0.719711	0.713780
C21	C	0.795122	0.111776	0.089201
C22	C	1.295122	0.611776	0.589201
C23	C	0.707455	0.110336	0.079364
C24	C	1.207455	0.610336	0.579364
C25	C	0.666268	0.109656	0.192815
C26	C	1.166268	0.609656	0.692815
C27	C	0.583896	0.108290	0.183576
C28	C	1.083896	0.608290	0.683576
C29	C	0.542713	0.107612	0.060886
C30	C	1.042713	0.607612	0.560886
C31	C	0.583906	0.108290	-0.052573
C32	C	1.083906	0.608290	0.447427
C33	C	0.666277	0.109650	-0.043333
C34	C	1.166277	0.609650	0.456667
C35	C	0.294008	0.103501	0.027082
C36	C	0.794008	0.603501	0.527082
C37	C	0.211632	0.102144	0.017850
C38	C	0.711632	0.602144	0.517850
C39	C	0.211627	0.102143	0.254000
C40	C	0.711627	0.602143	0.754000
C41	C	0.293999	0.103507	0.263229
C42	C	0.793999	0.603507	0.763229
C43	C	0.335185	0.104181	0.149770
C44	C	0.835185	0.604181	0.649770
C45	C	0.458516	0.106219	0.051440
C46	C	0.958516	0.606219	0.551440
C47	C	0.419381	0.105569	0.159218
C48	C	0.919381	0.605569	0.659218
C49	C	0.935116	-0.037040	0.104918
C50	C	1.435116	0.462960	0.604918
C51	C	0.927736	-0.123827	0.104090
C52	C	1.427736	0.376173	0.604090
C53	C	0.995496	-0.174002	0.111694
C54	C	1.495496	0.325998	0.611694
C55	C	0.988556	-0.255547	0.110903
C56	C	1.488556	0.244453	0.610903
C57	C	0.913856	-0.286913	0.102517
C58	C	1.413856	0.213087	0.602517
C59	C	0.846091	-0.236731	0.094908
C60	C	1.346091	0.263269	0.594908
C61	C	0.853031	-0.155188	0.095690
C62	C	1.353031	0.344812	0.595690
C63	C	0.889339	-0.532649	0.099748
C64	C	1.389339	-0.032649	0.599748
C65	C	0.882404	-0.614198	0.098971
C66	C	1.382404	-0.114198	0.598971
C67	C	1.024869	-0.633008	0.114963
C68	C	1.524869	-0.133008	0.614963
C69	C	1.031803	-0.551463	0.115752
C70	C	1.531803	-0.051463	0.615752
C71	C	0.964038	-0.501288	0.108137
C72	C	1.464038	-0.001288	0.608137
C73	C	0.906762	-0.370264	0.101713
C74	C	1.406762	0.129736	0.601713
C75	C	0.971133	-0.417938	0.108932
C76	C	1.471133	0.082062	0.608932
C77	C	1.082777	0.100023	0.121473
C78	C	1.582777	0.600023	0.621473
C79	C	1.170444	0.101463	0.131301
C80	C	1.670444	0.601463	0.631301
C81	C	0.942783	0.248840	0.105755
C82	C	1.442783	0.748840	0.605755
C83	C	0.950164	0.335626	0.106575
C84	C	1.450164	0.835626	0.606575
N85	N	0.938940	0.105892	0.413581
N86	N	1.438940	0.605892	0.913581
N87	N	0.938965	0.105901	-0.202904
N88	N	1.438965	0.605901	0.297096
C89	C	0.938952	0.105901	0.679253
C90	C	1.438952	0.605901	1.179253
C91	C	0.938943	0.105898	0.531414
C92	C	1.438943	0.605898	1.031414
H93	H	0.178084	0.101592	0.346372
H94	H	0.678084	0.601592	0.846372
F95	F	1.060677	-0.308945	0.118999
F96	F	1.560677	0.191055	0.618999
H97	H	0.550369	0.107732	-0.152469
H98	H	1.050369	0.607732	0.347531
F99	F	0.710111	0.110372	-0.164083
F100	F	1.210111	0.610372	0.335917
F101	F	0.827262	-0.403655	0.092782
F102	F	1.327262	0.096345	0.592782
H103	H	0.785269	-0.262276	0.088072
H104	H	1.285269	0.237724	0.588072
F105	F	0.463213	0.106288	0.289789
F106	F	0.963213	0.606288	0.789789
F107	F	0.337831	0.104220	-0.093673
F108	F	0.837831	0.604220	0.406327
H109	H	0.834159	-0.491806	0.093548
H110	H	1.334159	0.008194	0.593548
H111	H	0.424976	0.105666	-0.048455
H112	H	0.924976	0.605666	0.451545
F113	F	0.710090	0.110383	0.323399
F114	F	1.210090	0.610383	0.823399
F115	F	0.540064	0.107576	0.304326
F116	F	1.040064	0.607576	0.804326
F117	F	1.096984	-0.686413	0.123066
F118	F	1.596984	-0.186413	0.623066
F119	F	1.075002	-0.140628	0.120632
F120	F	1.575002	0.359372	0.620632
H121	H	0.178102	0.101594	-0.082064
H122	H	0.678102	0.601594	0.417936
H123	H	1.031954	-0.392396	0.115731
H124	H	1.531954	0.107604	0.615731
H125	H	1.092631	-0.525931	0.122581
H126	H	1.592631	-0.025931	0.622581
F127	F	0.780912	-0.101787	0.087593
F128	F	1.280912	0.398213	0.587593
F129	F	0.337823	0.104233	0.393813
F130	F	0.837823	0.604233	0.893813
F131	F	0.802894	-0.647578	0.090052
F132	F	1.302894	-0.147578	0.590052
