data_functionalizedCrystal
_audit_creation_method	'MofGen! by Chris Wilmer'
_symmetry_space_group_name_H-M	'P1'
_symmetry_Int_Tables_number	1
_symmetry_cell_setting	triclinic
loop_
_symmetry_equiv_pos_as_xyz
  x,y,z
_cell_length_a	15.995292
_cell_length_b	19.188930
_cell_length_c	14.472311
_cell_angle_alpha	90.014772
_cell_angle_beta	90.005304
_cell_angle_gamma	83.306699
loop_
_atom_site_label
_atom_site_type_symbol
_atom_site_fract_x
_atom_site_fract_y
_atom_site_fract_z
O1	O	1.110686	0.089808	0.076877
O2	O	1.444019	0.423141	0.410210
O3	O	1.777352	0.756475	0.743543
O4	O	0.866863	0.100964	0.076874
O5	O	1.200196	0.434297	0.410208
O6	O	1.533530	0.767630	0.743541
O7	O	0.995811	-0.006253	0.076857
O8	O	1.329144	0.327080	0.410191
O9	O	1.662477	0.660414	0.743524
O10	O	0.981738	0.197025	0.076893
O11	O	1.315072	0.530358	0.410227
O12	O	1.648405	0.863691	0.743560
O13	O	0.995802	-0.006267	-0.076825
O14	O	1.329135	0.327067	0.256509
O15	O	1.662469	0.660400	0.589842
O16	O	0.866854	0.100950	-0.076808
O17	O	1.200188	0.434284	0.256526
O18	O	1.533521	0.767617	0.589859
O19	O	1.110677	0.089794	-0.076805
O20	O	1.444010	0.423128	0.256528
O21	O	1.777344	0.756461	0.589861
Cu22	Cu	0.988765	0.095371	-0.090839
Cu23	Cu	1.322098	0.428704	0.242494
Cu24	Cu	1.655432	0.762038	0.575828
Cu25	Cu	0.988775	0.095387	0.090908
Cu26	Cu	1.322109	0.428720	0.424241
Cu27	Cu	1.655442	0.762054	0.757574
O28	O	0.981729	0.197011	-0.076789
O29	O	1.315063	0.530345	0.256545
O30	O	1.648396	0.863678	0.589878
C31	C	0.835665	0.100503	0.000033
C32	C	1.168998	0.433836	0.333366
C33	C	1.502331	0.767170	0.666699
C34	C	0.742717	0.099142	0.000031
C35	C	1.076050	0.432475	0.333364
C36	C	1.409383	0.765808	0.666698
C37	C	0.404997	0.094138	0.000041
C38	C	0.738330	0.427471	0.333374
C39	C	1.071663	0.760804	0.666707
C40	C	0.428026	0.171524	0.000397
C41	C	0.761359	0.504857	0.333731
C42	C	1.094692	0.838190	0.667064
C43	C	0.524696	0.172995	0.000047
C44	C	0.858029	0.506328	0.333381
C45	C	1.191362	0.839661	0.666714
C46	C	0.572543	0.096621	0.000036
C47	C	0.905877	0.429954	0.333370
C48	C	1.239210	0.763287	0.666703
C49	C	0.543578	0.057923	-0.087727
C50	C	0.876912	0.391257	0.245606
C51	C	1.210245	0.724590	0.578939
C52	C	0.446791	0.056992	-0.087797
C53	C	0.780125	0.390325	0.245536
C54	C	1.113458	0.723659	0.578870
C55	C	0.446952	0.055427	0.086968
C56	C	0.780285	0.388760	0.420301
C57	C	1.113618	0.722094	0.753635
C58	C	0.543434	0.058295	0.088124
C59	C	0.876767	0.391628	0.421458
C60	C	1.210100	0.724961	0.754791
C61	C	0.667234	0.098020	0.000031
C62	C	1.000568	0.431353	0.333364
C63	C	1.333901	0.764687	0.666698
C64	C	0.310306	0.092736	0.000040
C65	C	0.643639	0.426069	0.333373
C66	C	0.976973	0.759403	0.666706
C67	C	0.995351	-0.032272	0.000014
C68	C	1.328684	0.301061	0.333347
C69	C	1.662017	0.634395	0.666680
C70	C	0.993983	-0.109780	0.000006
C71	C	1.327316	0.223554	0.333339
C72	C	1.660649	0.556887	0.666672
C73	C	1.069645	-0.154524	0.000002
C74	C	1.402978	0.178809	0.333335
C75	C	1.736311	0.512143	0.666669
C76	C	1.068360	-0.227351	0.000017
C77	C	1.401693	0.105982	0.333350
C78	C	1.735026	0.439316	0.666684
C79	C	0.991408	-0.255430	0.000017
C80	C	1.324741	0.077903	0.333350
C81	C	1.658074	0.411236	0.666683
C82	C	0.915736	-0.210676	0.000026
C83	C	1.249069	0.122657	0.333359
C84	C	1.582402	0.455991	0.666692
C85	C	0.917023	-0.137851	0.000020
C86	C	1.250356	0.195483	0.333354
C87	C	1.583690	0.528816	0.666687
N88	N	0.932584	-0.363579	-0.052285
N89	N	1.265918	-0.030246	0.281049
N90	N	1.599251	0.303087	0.614382
N91	N	0.931367	-0.432761	-0.052281
N92	N	1.264700	-0.099427	0.281052
N93	N	1.598033	0.233906	0.614385
C94	C	0.987524	-0.474848	0.000035
C95	C	1.320858	-0.141515	0.333369
C96	C	1.654191	0.191819	0.666702
N97	N	1.044959	-0.445142	0.052337
N98	N	1.378292	-0.111808	0.385671
N99	N	1.711626	0.221525	0.719004
N100	N	1.046179	-0.375954	0.052330
N101	N	1.379512	-0.042621	0.385663
N102	N	1.712846	0.290713	0.718997
C103	C	0.990003	-0.334396	0.000023
C104	C	1.323337	-0.001063	0.333357
C105	C	1.656670	0.332271	0.666690
C106	C	1.061798	-0.598560	0.000049
C107	C	1.395132	-0.265227	0.333382
C108	C	1.728465	0.068106	0.666716
C109	C	1.060510	-0.671388	0.000070
C110	C	1.393843	-0.338055	0.333403
C111	C	1.727177	-0.004721	0.666736
C112	C	0.907884	-0.654711	0.000069
C113	C	1.241217	-0.321378	0.333403
C114	C	1.574551	0.011955	0.666736
C115	C	0.909174	-0.581885	0.000058
C116	C	1.242508	-0.248552	0.333391
C117	C	1.575841	0.084782	0.666725
C118	C	0.986134	-0.553814	0.000044
C119	C	1.319467	-0.220481	0.333377
C120	C	1.652801	0.112853	0.666710
C121	C	1.141875	0.090255	0.000038
C122	C	1.475209	0.423589	0.333371
C123	C	1.808542	0.756922	0.666705
C124	C	1.234823	0.091616	0.000046
C125	C	1.568157	0.424950	0.333379
C126	C	1.901490	0.758283	0.666713
C127	C	0.982190	0.223030	0.000057
C128	C	1.315523	0.556363	0.333390
C129	C	1.648856	0.889697	0.666724
C130	C	0.983558	0.300538	0.000071
C131	C	1.316891	0.633871	0.333404
C132	C	1.650224	0.967205	0.666738
N133	N	0.988764	0.095359	-0.218670
N134	N	1.322097	0.428693	0.114663
N135	N	1.655430	0.762026	0.447997
C136	C	0.988776	0.095382	-0.592761
C137	C	1.322109	0.428715	-0.259428
C138	C	1.655443	0.762049	0.073906
C139	C	1.057996	0.038204	-0.553575
C140	C	1.391329	0.371537	-0.220242
C141	C	1.724662	0.704871	0.113091
C142	C	1.057817	0.037993	-0.446488
C143	C	1.391150	0.371327	-0.113154
C144	C	1.724483	0.704660	0.220179
C145	C	0.988771	0.095371	-0.407170
C146	C	1.322104	0.428704	-0.073837
C147	C	1.655437	0.762037	0.259497
C148	C	0.901469	0.079475	-0.446065
C149	C	1.234803	0.412808	-0.112732
C150	C	1.568136	0.746142	0.220601
C151	C	0.901879	0.079071	-0.553187
C152	C	1.235213	0.412404	-0.219853
C153	C	1.568546	0.745737	0.113480
C154	C	1.006070	0.168624	-0.553253
C155	C	1.339403	0.501958	-0.219919
C156	C	1.672737	0.835291	0.113414
C157	C	1.008055	0.168133	-0.446124
C158	C	1.341388	0.501467	-0.112791
C159	C	1.674721	0.834800	0.220542
C160	C	0.988762	0.095366	-0.302282
C161	C	1.322095	0.428699	0.031051
C162	C	1.655429	0.762033	0.364385
C163	C	0.988779	0.095385	-0.697649
C164	C	1.322112	0.428719	-0.364316
C165	C	1.655446	0.762052	-0.030983
N166	N	0.988783	0.095393	0.218739
N167	N	1.322116	0.428726	0.552072
N168	N	1.655450	0.762060	0.885405
H169	H	0.543615	0.203296	0.062962
H170	H	0.876948	0.536629	0.396296
H171	H	1.210281	0.869963	0.729629
Br172	Br	0.811300	-0.248781	0.000037
Br173	Br	1.144633	0.084552	0.333371
Br174	Br	1.477967	0.417886	0.666704
Br175	Br	0.806484	-0.521156	0.000062
Br176	Br	1.139817	-0.187823	0.333395
Br177	Br	1.473151	0.145510	0.666729
Br178	Br	0.803447	-0.692811	0.000078
Br179	Br	1.136781	-0.359477	0.333412
Br180	Br	1.470114	-0.026144	0.666745
H181	H	1.122720	0.047456	-0.420189
H182	H	1.456054	0.380790	-0.086856
H183	H	1.789387	0.714123	0.246477
H184	H	0.433167	-0.001534	0.087553
H185	H	0.766500	0.331799	0.420886
H186	H	1.099834	0.665132	0.754220
Br187	Br	0.576838	0.102692	-0.196578
Br188	Br	0.910171	0.436025	0.136755
Br189	Br	1.243505	0.769358	0.470089
Br190	Br	0.814330	-0.077122	0.000028
Br191	Br	1.147664	0.256212	0.333361
Br192	Br	1.480997	0.589545	0.666694
H193	H	1.047137	-0.015842	-0.580516
H194	H	1.380470	0.317491	-0.247182
H195	H	1.713804	0.650825	0.086151
H196	H	0.419872	0.083781	-0.153394
H197	H	0.753206	0.417114	0.179939
H198	H	1.086539	0.750448	0.513273
H199	H	1.129975	-0.263789	0.000018
H200	H	1.463308	0.069544	0.333351
H201	H	1.796641	0.402878	0.666684
H202	H	0.561904	0.086470	0.153051
H203	H	0.895237	0.419804	0.486385
H204	H	1.228570	0.753137	0.819718
H205	H	1.124463	-0.575704	0.000042
H206	H	1.457797	-0.242370	0.333375
H207	H	1.791130	0.090963	0.666708
H208	H	0.418540	0.079621	0.153487
H209	H	0.751873	0.412954	0.486820
H210	H	1.085206	0.746288	0.820154
H211	H	1.132311	-0.131674	-0.000006
H212	H	1.465644	0.201659	0.333327
H213	H	1.798978	0.534993	0.666660
H214	H	0.398895	0.201181	-0.062178
H215	H	0.732228	0.534514	0.271155
H216	H	1.065561	0.867848	0.604488
Br217	Br	0.381189	0.221254	0.105303
Br218	Br	0.714523	0.554587	0.438637
Br219	Br	1.047856	0.887921	0.771970
H220	H	1.123118	0.047514	-0.579327
H221	H	1.456451	0.380847	-0.245994
H222	H	1.789784	0.714180	0.087339
Br223	Br	1.039435	-0.052598	-0.403798
Br224	Br	1.372768	0.280735	-0.070465
Br225	Br	1.706101	0.614068	0.262868
H226	H	0.886596	0.025656	-0.578192
H227	H	1.219930	0.358990	-0.244858
H228	H	1.553263	0.692323	0.088475
Br229	Br	0.598719	-0.034622	0.096946
Br230	Br	0.932053	0.298712	0.430279
Br231	Br	1.265386	0.632045	0.763612
Br232	Br	0.813474	0.145841	-0.596399
Br233	Br	1.146807	0.479174	-0.263066
Br234	Br	1.480140	0.812508	0.070268
H235	H	1.122126	-0.707819	0.000072
H236	H	1.455459	-0.374486	0.333405
H237	H	1.788793	-0.041152	0.666738
Br238	Br	0.813563	0.147038	-0.403624
Br239	Br	1.146896	0.480372	-0.070290
Br240	Br	1.480229	0.813705	0.263043
Br241	Br	0.875355	-0.008539	-0.401385
Br242	Br	1.208688	0.324795	-0.068052
Br243	Br	1.542021	0.658128	0.265282
Br244	Br	0.555186	0.223788	-0.104977
Br245	Br	0.888519	0.557122	0.228357
Br246	Br	1.221852	0.890455	0.561690
H247	H	1.068354	0.183906	-0.580258
H248	H	1.401688	0.517239	-0.246925
H249	H	1.735021	0.850572	0.086409
H250	H	1.072276	0.180196	-0.420702
H251	H	1.405609	0.513529	-0.087369
H252	H	1.738942	0.846862	0.245964
Br253	Br	0.422879	-0.037573	-0.094513
Br254	Br	0.756213	0.295760	0.238820
Br255	Br	1.089546	0.629093	0.572154
H256	H	0.960885	0.212674	-0.419357
H257	H	1.294219	0.546008	-0.086024
H258	H	1.627552	0.879341	0.247309
Br259	Br	0.597023	-0.035754	-0.093178
Br260	Br	0.930356	0.297579	0.240155
Br261	Br	1.263690	0.630913	0.573488
H262	H	0.955590	0.211175	-0.578598
H263	H	1.288924	0.544508	-0.245264
H264	H	1.622257	0.877841	0.088069
