data_functionalizedCrystal
_audit_creation_method	'MofGen! by Chris Wilmer'
_symmetry_space_group_name_H-M	'P1'
_symmetry_Int_Tables_number	1
_symmetry_cell_setting	triclinic
loop_
_symmetry_equiv_pos_as_xyz
  x,y,z
_cell_length_a	15.995350
_cell_length_b	19.188930
_cell_length_c	15.072220
_cell_angle_alpha	89.993728
_cell_angle_beta	89.991149
_cell_angle_gamma	83.318578
loop_
_atom_site_label
_atom_site_type_symbol
_atom_site_fract_x
_atom_site_fract_y
_atom_site_fract_z
O1	O	1.110666	0.089991	-0.073718
O2	O	0.866850	0.101105	-0.073737
O3	O	0.995794	-0.006090	-0.073709
O4	O	0.981722	0.197186	-0.073745
O5	O	0.995763	-0.006084	0.073856
O6	O	0.866819	0.101111	0.073828
O7	O	1.110634	0.089997	0.073848
Zn8	Zn	0.988721	0.095555	0.097267
Zn9	Zn	0.988763	0.095547	-0.097156
O10	O	0.981690	0.197192	0.073820
C11	C	0.835641	0.100648	0.000043
C12	C	0.742696	0.099271	0.000037
C13	C	0.404967	0.094324	0.000056
C14	C	0.452680	0.017982	0.000398
C15	C	0.549365	0.019360	0.000059
C16	C	0.572518	0.096778	0.000047
C17	C	0.531311	0.134429	-0.084223
C18	C	0.434683	0.132511	-0.084287
C19	C	0.434302	0.134095	0.083522
C20	C	0.531247	0.134077	0.084629
C21	C	0.667211	0.098169	0.000039
C22	C	0.310274	0.092936	0.000058
C23	C	0.995323	-0.032099	0.000076
C24	C	0.993955	-0.109607	0.000083
C25	C	1.069615	-0.154338	0.000093
C26	C	1.068330	-0.227165	0.000079
C27	C	0.991380	-0.255258	0.000072
C28	C	0.915710	-0.210517	0.000057
C29	C	0.916997	-0.137691	0.000062
N30	N	0.932550	-0.363410	0.050287
N31	N	0.931333	-0.432592	0.050284
C32	C	0.987497	-0.474676	0.000054
N33	N	1.044937	-0.444966	-0.050161
N34	N	1.046158	-0.375779	-0.050154
C35	C	0.989976	-0.334224	0.000066
C36	C	1.061769	-0.598375	0.000048
C37	C	1.060480	-0.671204	0.000028
C38	C	0.907859	-0.654553	0.000015
C39	C	0.909149	-0.581727	0.000025
C40	C	0.986106	-0.553643	0.000046
C41	C	1.141843	0.090454	0.000065
C42	C	1.234789	0.091831	0.000066
C43	C	0.982162	0.223201	0.000033
C44	C	0.983530	0.300709	0.000019
N45	N	0.988699	0.095560	0.229956
N46	N	0.988792	0.095537	-0.229845
C47	C	0.988762	0.095544	0.589157
C48	C	0.919536	0.152710	0.551535
C49	C	0.919693	0.152918	0.448710
C50	C	0.988730	0.095552	0.410953
C51	C	1.076036	0.111464	0.448248
C52	C	1.075648	0.111870	0.551106
C53	C	0.971460	0.022298	0.551269
C54	C	0.969454	0.022787	0.448405
C55	C	0.988717	0.095555	0.310240
C56	C	0.988780	0.095543	0.689871
H57	H	0.433211	-0.012395	-0.059692
H58	H	0.402230	0.188560	-0.088121
H59	H	0.558651	0.106592	0.146972
C60	C	0.427786	-0.023245	0.082031
H61	H	0.457265	-0.069172	0.080997
H62	H	0.368917	-0.026165	0.080912
H63	H	0.441829	0.000164	0.134553
C64	C	1.147278	0.056721	0.415204
H65	H	1.124354	0.023598	0.378278
H66	H	1.174588	0.033215	0.464584
H67	H	1.186837	0.079580	0.382346
H68	H	1.132280	-0.131477	0.000107
H69	H	0.847538	-0.545305	0.000022
H70	H	0.854420	0.143386	0.576294
H71	H	0.546404	0.190533	0.089710
C72	C	1.151559	-0.276378	0.000097
H73	H	1.197575	-0.249222	0.000115
H74	H	1.154245	-0.305131	-0.051361
H75	H	1.154207	-0.305135	0.051564
C76	C	0.833770	-0.088482	0.000053
H77	H	0.845558	-0.041087	0.000053
H78	H	0.802189	-0.097002	0.051505
H79	H	0.802222	-0.096990	-0.051420
C80	C	0.823213	-0.685443	0.000004
H81	H	0.778335	-0.648369	-0.000005
H82	H	0.819524	-0.713514	0.051458
H83	H	0.819552	-0.713497	-0.051467
C84	C	1.143711	-0.720409	0.000041
H85	H	1.189725	-0.693249	0.000063
H86	H	1.146400	-0.749158	-0.051420
H87	H	1.146362	-0.749169	0.051504
C88	C	0.832010	0.140125	0.414643
H89	H	0.795971	0.134757	0.463667
H90	H	0.836755	0.098755	0.379513
H91	H	0.809199	0.178986	0.379745
C92	C	0.831068	-0.241415	0.000053
H93	H	0.841137	-0.291195	0.000060
H94	H	0.799935	-0.226057	-0.051408
H95	H	0.799916	-0.226064	0.051516
H96	H	1.124432	-0.575508	0.000060
C97	C	0.934585	0.226344	0.415440
H98	H	0.940570	0.256159	0.464788
H99	H	0.888017	0.245313	0.380455
H100	H	0.984372	0.222859	0.380563
C101	C	0.587909	-0.020627	0.081657
H102	H	0.647186	-0.019836	0.081559
H103	H	0.575588	-0.067846	0.079576
H104	H	0.564737	0.001139	0.134181
C105	C	0.887328	0.001637	0.586341
H106	H	0.878093	-0.042713	0.562682
H107	H	0.842776	0.035936	0.568727
H108	H	0.889218	-0.001064	0.649258
H109	H	0.577345	-0.010441	-0.060444
C110	C	1.039654	-0.035172	0.584141
H111	H	1.078485	-0.014667	0.620778
H112	H	1.068517	-0.057219	0.534681
H113	H	1.014027	-0.069078	0.617265
H114	H	0.930403	0.206759	0.577365
H115	H	1.090935	0.165288	0.575079
H116	H	1.128756	0.071875	0.575991
C117	C	0.410100	0.095408	-0.169367
H118	H	0.459146	0.081644	-0.203564
H119	H	0.372018	0.126599	-0.203062
H120	H	0.383983	0.055078	-0.153961
H121	H	0.413844	0.109140	0.147396
C122	C	1.097192	0.182805	0.413435
H123	H	1.052937	0.202985	0.376184
H124	H	1.148175	0.176225	0.380564
H125	H	1.103496	0.213226	0.462089
H126	H	0.545229	0.191306	-0.087366
C127	C	0.882695	0.006471	0.415483
H128	H	0.858318	0.043842	0.379060
H129	H	0.847098	0.001328	0.464933
H130	H	0.889150	-0.035817	0.382126
C131	C	1.033165	-0.037378	0.413695
H132	H	1.019998	-0.080674	0.437371
H133	H	1.088319	-0.029719	0.431523
H134	H	1.030474	-0.038866	0.350768
C135	C	0.569782	0.099100	-0.168939
H136	H	0.544440	0.122261	-0.219582
H137	H	0.559989	0.051218	-0.169691
H138	H	0.628656	0.102037	-0.169813
C139	C	0.391122	0.210133	0.084281
H140	H	0.355383	0.217633	0.034010
H141	H	0.432675	0.241669	0.082423
H142	H	0.358650	0.217999	0.136871
