data_functionalizedCrystal
_audit_creation_method	'MofGen! by Chris Wilmer'
_symmetry_space_group_name_H-M	'P1'
_symmetry_Int_Tables_number	1
_symmetry_cell_setting	triclinic
loop_
_symmetry_equiv_pos_as_xyz
  x,y,z
_cell_length_a	12.759401
_cell_length_b	12.759399
_cell_length_c	17.077396
_cell_angle_alpha	90.022458
_cell_angle_beta	89.980927
_cell_angle_gamma	89.982662
loop_
_atom_site_label
_atom_site_type_symbol
_atom_site_fract_x
_atom_site_fract_y
_atom_site_fract_z
Zn1	Zn	1.606227	0.418218	-0.443867
Zn2	Zn	1.606125	0.593918	-0.312614
Zn3	Zn	1.430536	0.418259	-0.312616
Zn4	Zn	1.430515	0.593861	-0.443839
O5	O	1.518351	0.506064	-0.378234
O6	O	1.753235	0.441532	-0.426467
O7	O	1.582799	0.570658	-0.202768
O8	O	1.453893	0.271233	-0.330038
O9	O	1.753160	0.570618	-0.330036
O10	O	1.582973	0.271202	-0.426468
O11	O	1.453794	0.441602	-0.202768
O12	O	1.283512	0.441546	-0.330012
O13	O	1.453858	0.570520	-0.553690
O14	O	1.283497	0.570560	-0.426421
O15	O	1.582953	0.441476	-0.553710
O16	O	1.582779	0.740932	-0.330010
O17	O	1.453759	0.740889	-0.426420
C18	C	1.245383	0.506052	-0.378214
C19	C	1.128607	0.506072	-0.378224
C20	C	0.964039	0.573351	-0.428372
C21	C	1.073764	0.573349	-0.428350
C22	C	1.073720	0.438800	-0.328110
C23	C	0.963998	0.438808	-0.328128
C24	C	0.964065	0.651029	-0.486247
C25	C	1.073789	0.651027	-0.486226
C26	C	1.518284	0.779031	-0.378229
C27	C	1.518352	0.895808	-0.378253
C28	C	1.585606	0.950657	-0.328110
C29	C	1.585669	1.060381	-0.328138
C30	C	1.451214	1.060397	-0.428455
C31	C	1.451157	0.950675	-0.428430
C32	C	1.663229	0.950649	-0.270190
C33	C	1.663292	1.060373	-0.270219
C34	C	1.792384	0.506077	-0.378255
C35	C	1.909161	0.506082	-0.378263
C36	C	1.518414	0.505987	-0.582978
C37	C	1.518441	0.505954	-0.670228
C38	C	1.518442	1.232031	-0.378267
C39	C	1.518471	1.115254	-0.378307
C40	C	1.585664	0.438755	-0.711230
C41	C	1.585676	0.438720	-0.793211
C42	C	1.518471	0.505890	-0.834188
C43	C	1.451242	0.573091	-0.793180
C44	C	1.451224	0.573120	-0.711201
C45	C	1.451284	0.573028	-0.964050
C46	C	1.451302	0.573001	-1.046035
C47	C	1.585736	0.438628	-1.046060
C48	C	1.585718	0.438657	-0.964081
C49	C	1.518490	0.505860	-0.923079
C50	C	1.518348	0.506065	-0.174286
C51	C	1.518524	0.505802	-0.087037
H52	H	0.930082	0.621982	-0.544038
H53	H	1.396475	0.627830	-0.677818
Cl54	Cl	1.366621	0.881725	-0.491482
Cl55	Cl	1.366751	0.657531	-0.844694
H56	H	1.107785	0.728286	-0.464349
Cl57	Cl	1.142666	0.354232	-0.265086
H58	H	0.919320	0.384043	-0.287316
H59	H	1.103619	0.629329	-0.547043
H60	H	0.934259	0.732374	-0.469872
Cl61	Cl	1.366746	1.129380	-0.491532
H62	H	1.396576	0.627694	-1.079396
H63	H	1.744572	0.920791	-0.286518
H64	H	1.634108	0.916694	-0.212413
Cl65	Cl	1.629737	1.106474	-0.176347
Cl66	Cl	1.670160	0.354313	-0.659724
Cl67	Cl	1.782629	1.112791	-0.303935
Cl68	Cl	1.670235	0.354284	-0.844753
Cl69	Cl	1.670212	0.354219	-0.912568
Cl70	Cl	1.670253	0.354145	-1.097605
H71	H	1.396523	0.627736	-0.930669
