data_functionalizedCrystal
_audit_creation_method	'MofGen! by Chris Wilmer'
_symmetry_space_group_name_H-M	'P1'
_symmetry_Int_Tables_number	1
_symmetry_cell_setting	triclinic
loop_
_symmetry_equiv_pos_as_xyz
  x,y,z
_cell_length_a	19.288840
_cell_length_b	14.853567
_cell_length_c	18.366186
_cell_angle_alpha	89.997562
_cell_angle_beta	89.983729
_cell_angle_gamma	83.380474
loop_
_atom_site_label
_atom_site_type_symbol
_atom_site_fract_x
_atom_site_fract_y
_atom_site_fract_z
O1	O	0.921743	0.112357	-0.060665
O2	O	1.421743	0.612357	0.439335
O3	O	0.719531	0.127551	-0.060639
O4	O	1.219531	0.627551	0.439361
O5	O	0.826039	-0.011307	-0.060655
O6	O	1.326039	0.488693	0.439345
O7	O	0.815236	0.251215	-0.060649
O8	O	1.315236	0.751215	0.439351
O9	O	0.826020	-0.011314	0.060444
O10	O	1.326020	0.488686	0.560444
O11	O	0.719513	0.127545	0.060460
O12	O	1.219513	0.627545	0.560460
O13	O	0.921725	0.112350	0.060434
O14	O	1.421725	0.612350	0.560434
Zn15	Zn	0.820616	0.119946	0.079674
Zn16	Zn	1.320616	0.619946	0.579674
Zn17	Zn	0.820640	0.119955	-0.079879
Zn18	Zn	1.320640	0.619955	0.420121
O19	O	0.815218	0.251208	0.060450
O20	O	1.315218	0.751208	0.560450
C21	C	0.693644	0.127063	-0.000086
C22	C	1.193644	0.627063	0.499914
C23	C	0.616534	0.125607	-0.000077
C24	C	1.116534	0.625607	0.499923
C25	C	0.580338	0.124911	-0.066090
C26	C	1.080338	0.624911	0.433910
C27	C	0.507887	0.123532	-0.066099
C28	C	1.007887	0.623532	0.433901
C29	C	0.471636	0.122831	-0.000091
C30	C	0.971636	0.622831	0.499909
C31	C	0.507840	0.123533	0.065931
C32	C	1.007840	0.623533	0.565931
C33	C	0.580289	0.124920	0.065938
C34	C	1.080289	0.624920	0.565938
C35	C	0.362115	0.067825	0.050469
C36	C	0.862115	0.567825	0.550469
C37	C	0.289668	0.066432	0.050459
C38	C	0.789668	0.566432	0.550459
C39	C	0.248178	0.118556	-0.000110
C40	C	0.748178	0.618556	0.499890
C41	C	0.279145	0.172062	-0.050682
C42	C	0.779145	0.672062	0.449318
C43	C	0.351595	0.173449	-0.050675
C44	C	0.851595	0.673449	0.449325
C45	C	0.393077	0.121328	-0.000091
C46	C	0.893077	0.621328	0.499909
C47	C	0.133421	0.116367	-0.066137
C48	C	0.633421	0.616367	0.433863
C49	C	0.060968	0.114994	-0.066144
C50	C	0.560968	0.614994	0.433856
C51	C	0.060924	0.114985	0.065888
C52	C	0.560924	0.614985	0.565888
C53	C	0.133375	0.116367	0.065893
C54	C	0.633375	0.616367	0.565893
C55	C	0.169620	0.117054	-0.000122
C56	C	0.669620	0.617054	0.499878
C57	C	0.825540	-0.044896	-0.000108
C58	C	1.325540	0.455104	0.499892
C59	C	0.824073	-0.144971	-0.000114
C60	C	1.324073	0.355029	0.499886
C61	C	0.754605	-0.557102	-0.000091
C62	C	1.254605	-0.057102	0.499909
C63	C	0.881138	-0.579117	-0.000107
C64	C	1.381138	-0.079117	0.499893
C65	C	0.882517	-0.485092	-0.000112
C66	C	1.382517	0.014908	0.499888
C67	C	0.819939	-0.427067	-0.000105
C68	C	1.319939	0.072933	0.499895
C69	C	0.755982	-0.463067	-0.000093
C70	C	1.255982	0.036933	0.499907
C71	C	0.946473	-0.449084	-0.000116
C72	C	1.446473	0.050916	0.499884
C73	C	0.947855	-0.355053	-0.000119
C74	C	1.447855	0.144947	0.499881
C75	C	0.885276	-0.297026	-0.000118
C76	C	1.385276	0.202974	0.499882
C77	C	0.821317	-0.333032	-0.000107
C78	C	1.321317	0.166968	0.499893
C79	C	0.758739	-0.275007	-0.000100
C80	C	1.258739	0.224993	0.499900
C81	C	0.694778	-0.311011	-0.000094
C82	C	1.194778	0.188989	0.499906
C83	C	0.693404	-0.405041	-0.000091
C84	C	1.193404	0.094959	0.499909
C85	C	0.886651	-0.202996	-0.000121
C86	C	1.386651	0.297004	0.499879
C87	C	0.760116	-0.180972	-0.000102
C88	C	1.260116	0.319028	0.499898
C89	C	0.947612	0.112838	-0.000120
C90	C	1.447612	0.612838	0.499880
C91	C	1.024722	0.114295	-0.000135
C92	C	1.524722	0.614295	0.499865
C93	C	0.815716	0.284798	-0.000099
C94	C	1.315716	0.784798	0.499901
C95	C	0.817183	0.384873	-0.000098
C96	C	1.317183	0.884873	0.499902
N97	N	0.820605	0.119940	0.188565
N98	N	1.320605	0.619940	0.688565
N99	N	0.820657	0.119955	-0.188771
N100	N	1.320657	0.619955	0.311229
C101	C	0.867782	0.058483	0.226659
C102	C	1.367782	0.558483	0.726659
C103	C	0.867786	0.058479	0.302887
C104	C	1.367786	0.558479	0.802887
C105	C	0.820620	0.119947	0.341018
C106	C	1.320620	0.619947	0.841018
C107	C	0.773435	0.181408	0.302916
C108	C	1.273435	0.681408	0.802916
C109	C	0.773427	0.181404	0.226689
C110	C	1.273427	0.681404	0.726689
C111	C	0.811599	0.202091	0.461781
C112	C	1.311599	0.702091	0.961781
C113	C	0.811612	0.202096	0.538006
C114	C	1.311612	0.702096	1.038006
C115	C	0.820640	0.119958	0.576126
C116	C	1.320640	0.619958	1.076126
C117	C	0.829671	0.037812	0.538011
C118	C	1.329671	0.537812	1.038011
C119	C	0.829663	0.037808	0.461785
C120	C	1.329663	0.537808	0.961785
C121	C	0.820623	0.119957	0.423673
C122	C	1.320623	0.619957	0.923673
C123	C	0.867824	0.058492	0.696874
C124	C	1.367824	0.558492	1.196874
C125	C	0.867824	0.058487	0.773103
C126	C	1.367824	0.558487	1.273103
C127	C	0.773476	0.181424	0.773131
C128	C	1.273476	0.681424	1.273131
C129	C	0.773473	0.181421	0.696903
C130	C	1.273473	0.681421	1.196903
C131	C	0.820651	0.119957	0.658779
C132	C	1.320651	0.619957	1.158779
H133	H	0.478410	0.122967	-0.119856
H134	H	0.978410	0.622967	0.380144
C135	C	0.691274	-0.117151	-0.000097
C136	C	1.191274	0.382849	0.499903
N137	N	0.639421	-0.069082	-0.000092
N138	N	1.139421	0.430918	0.499908
H139	H	0.609760	0.125488	0.119696
H140	H	1.109760	0.625488	0.619696
C141	C	0.623054	-0.444653	-0.000070
C142	C	1.123054	0.055347	0.499930
N143	N	0.570066	-0.474493	-0.000048
N144	N	1.070066	0.025507	0.499952
H145	H	0.702530	-0.586421	-0.000089
H146	H	1.202530	-0.086421	0.499911
C147	C	0.385652	0.232352	-0.106270
C148	C	0.885652	0.732352	0.393730
N149	N	0.411301	0.276737	-0.148133
N150	N	0.911301	0.776737	0.351867
C151	C	0.021153	0.114224	-0.138767
C152	C	0.521153	0.614224	0.361233
N153	N	-0.008836	0.113641	-0.193469
N154	N	0.491164	0.613641	0.306531
C155	C	0.949970	-0.642947	-0.000111
C156	C	1.449970	-0.142947	0.499889
N157	N	1.001817	-0.691028	-0.000116
N158	N	1.501817	-0.191028	0.499884
C159	C	0.957003	-0.163396	-0.000127
C160	C	1.457003	0.336604	0.499873
N161	N	1.009996	-0.133570	-0.000133
N162	N	1.509996	0.366430	0.499867
C163	C	0.919694	-0.009122	0.344798
C164	C	1.419694	0.490878	0.844798
N165	N	0.958793	-0.060035	0.376363
N166	N	1.458793	0.439965	0.876363
H167	H	0.245365	0.214510	-0.091858
H168	H	0.745365	0.714510	0.408142
C169	C	0.625945	-0.247172	-0.000087
C170	C	1.125945	0.252828	0.499913
N171	N	0.574101	-0.199085	-0.000082
N172	N	1.074101	0.300915	0.499918
H173	H	0.162933	0.116935	-0.119890
H174	H	0.662933	0.616935	0.380110
C175	C	0.021051	0.114216	0.138498
C176	C	0.521051	0.614216	0.638498
N177	N	-0.008984	0.113638	0.193190
N178	N	0.491016	0.613638	0.693190
C179	C	0.919713	-0.009139	0.815006
C180	C	1.419713	0.490861	1.315006
N181	N	0.958795	-0.060080	0.846567
N182	N	1.458795	0.439920	1.346567
H183	H	0.162846	0.116928	0.119648
H184	H	0.662846	0.616928	0.619648
C185	C	1.015304	-0.512916	-0.000118
C186	C	1.515304	-0.012916	0.499882
N187	N	1.067150	-0.560999	-0.000121
N188	N	1.567150	-0.060999	0.499879
H189	H	0.264460	0.022860	0.091634
H190	H	0.764460	0.522860	0.591634
H191	H	0.999935	-0.325747	-0.000125
H192	H	1.499935	0.174253	0.499875
C193	C	0.407747	0.010478	0.106101
C194	C	0.907747	0.510478	0.606101
N195	N	0.442117	-0.032715	0.148002
N196	N	0.942117	0.467285	0.648002
C197	C	0.467963	0.122761	0.138540
C198	C	0.967963	0.622761	0.638540
N199	N	0.437927	0.122181	0.193231
N200	N	0.937927	0.622181	0.693231
H201	H	0.906195	0.008433	0.195620
H202	H	1.406195	0.508433	0.695620
H203	H	0.837014	-0.029079	0.430755
H204	H	1.337014	0.470921	0.930755
H205	H	0.837022	-0.029073	0.569046
H206	H	1.337022	0.470927	1.069046
C207	C	0.919714	-0.009128	0.654935
C208	C	1.419714	0.490872	1.154935
N209	N	0.958797	-0.060062	0.623349
N210	N	1.458797	0.439938	1.123349
C211	C	0.721593	0.249041	0.815071
C212	C	1.221593	0.749041	1.315071
N213	N	0.682513	0.299971	0.846664
N214	N	1.182513	0.799971	1.346664
C215	C	0.721624	0.249094	0.654999
C216	C	1.221624	0.749094	1.154999
N217	N	0.682584	0.300089	0.623437
N218	N	1.182584	0.800089	1.123437
C219	C	0.801671	0.292458	0.579925
C220	C	1.301671	0.792458	1.079925
N221	N	0.794180	0.360522	0.611496
N222	N	1.294180	0.860522	1.111496
H223	H	0.804235	0.268983	0.430750
H224	H	1.304235	0.768983	0.930750
C225	C	0.721556	0.249053	0.184785
C226	C	1.221556	0.749053	0.684785
N227	N	0.682498	0.300022	0.153222
N228	N	1.182498	0.800022	0.653222
C229	C	0.620204	0.125664	-0.138708
C230	C	1.120204	0.625664	0.361292
N231	N	0.650232	0.126230	-0.193405
N232	N	1.150232	0.626230	0.306595
C233	C	0.721549	0.249019	0.344862
C234	C	1.221549	0.749019	0.844862
N235	N	0.682464	0.299943	0.376456
N236	N	1.182464	0.799943	0.876456
