data_functionalizedCrystal
_audit_creation_method	'MofGen! by Chris Wilmer'
_symmetry_space_group_name_H-M	'P1'
_symmetry_Int_Tables_number	1
_symmetry_cell_setting	triclinic
loop_
_symmetry_equiv_pos_as_xyz
  x,y,z
_cell_length_a	18.215407
_cell_length_b	18.101395
_cell_length_c	18.215399
_cell_angle_alpha	89.973573
_cell_angle_beta	89.980167
_cell_angle_gamma	90.031552
loop_
_atom_site_label
_atom_site_type_symbol
_atom_site_fract_x
_atom_site_fract_y
_atom_site_fract_z
Zn1	Zn	1.125040	-0.294828	-0.416124
Zn2	Zn	1.458373	0.038505	-0.082790
Zn3	Zn	1.791707	0.371838	0.250543
Zn4	Zn	1.124935	-0.418675	-0.293061
Zn5	Zn	1.458269	-0.085341	0.040273
Zn6	Zn	1.791602	0.247992	0.373606
Zn7	Zn	1.001973	-0.294853	-0.293071
Zn8	Zn	1.335306	0.038481	0.040262
Zn9	Zn	1.668639	0.371814	0.373596
Zn10	Zn	1.001925	-0.418634	-0.416086
Zn11	Zn	1.335259	-0.085300	-0.082752
Zn12	Zn	1.668592	0.248033	0.250581
O13	O	1.063468	-0.356747	-0.354585
O14	O	1.396802	-0.023414	-0.021252
O15	O	1.730135	0.309919	0.312081
O16	O	1.228010	-0.311264	-0.399811
O17	O	1.561344	0.022069	-0.066477
O18	O	1.894677	0.355403	0.266856
O19	O	1.108600	-0.402277	-0.190078
O20	O	1.441933	-0.068944	0.143256
O21	O	1.775267	0.264390	0.476589
O22	O	1.018362	-0.191216	-0.309415
O23	O	1.351695	0.142117	0.023919
O24	O	1.685028	0.475450	0.357252
O25	O	1.227933	-0.402253	-0.309397
O26	O	1.561267	-0.068920	0.023937
O27	O	1.894600	0.264413	0.357270
O28	O	1.108779	-0.191199	-0.399821
O29	O	1.442112	0.142135	-0.066487
O30	O	1.775445	0.475468	0.266846
O31	O	1.018260	-0.311305	-0.190085
O32	O	1.351593	0.022028	0.143248
O33	O	1.684927	0.355361	0.476581
O34	O	0.898982	-0.311265	-0.309378
O35	O	1.232316	0.022068	0.023956
O36	O	1.565649	0.355401	0.357289
O37	O	1.018281	-0.402183	-0.519075
O38	O	1.351614	-0.068850	-0.185742
O39	O	1.684947	0.264484	0.147592
O40	O	0.898947	-0.402207	-0.399756
O41	O	1.232281	-0.068873	-0.066422
O42	O	1.565614	0.264460	0.266911
O43	O	1.108733	-0.311224	-0.519103
O44	O	1.442066	0.022109	-0.185770
O45	O	1.775399	0.355443	0.147564
O46	O	1.108554	-0.522302	-0.309360
O47	O	1.441887	-0.188969	0.023974
O48	O	1.775221	0.144364	0.357307
O49	O	1.018179	-0.522272	-0.399746
O50	O	1.351512	-0.188939	-0.066412
O51	O	1.684846	0.144395	0.266921
C52	C	0.872262	-0.356735	-0.354564
C53	C	1.205595	-0.023401	-0.021231
C54	C	1.538929	0.309932	0.312103
C55	C	0.790463	-0.356747	-0.354572
C56	C	1.123797	-0.023414	-0.021239
C57	C	1.457130	0.309920	0.312094
C58	C	0.602270	-0.404175	-0.401573
C59	C	0.935604	-0.070841	-0.068240
C60	C	1.268937	0.262492	0.265093
C61	C	0.525412	-0.404177	-0.401583
C62	C	0.858745	-0.070844	-0.068249
C63	C	1.192078	0.262490	0.265084
C64	C	0.525418	-0.309333	-0.307613
C65	C	0.858752	0.024000	0.025720
C66	C	1.192085	0.357333	0.359054
C67	C	0.602276	-0.309328	-0.307608
C68	C	0.935609	0.024005	0.025725
C69	C	1.268942	0.357339	0.359059
C70	C	0.640700	-0.356753	-0.354587
C71	C	0.974033	-0.023419	-0.021254
C72	C	1.307366	0.309914	0.312079
C73	C	0.486984	-0.356761	-0.354601
C74	C	0.820317	-0.023427	-0.021268
C75	C	1.153650	0.309906	0.312065
C76	C	0.403650	-0.356763	-0.354611
C77	C	0.736983	-0.023429	-0.021278
C78	C	1.070317	0.309904	0.312056
C79	C	0.724039	-0.356750	-0.354579
C80	C	1.057372	-0.023416	-0.021245
C81	C	1.390705	0.309917	0.312088
C82	C	1.063370	-0.549158	-0.354564
C83	C	1.396703	-0.215825	-0.021230
C84	C	1.730037	0.117509	0.312103
C85	C	1.063395	-0.631472	-0.354579
C86	C	1.396728	-0.298139	-0.021246
C87	C	1.730062	0.035195	0.312088
C88	C	1.063557	-0.930563	-0.354619
C89	C	1.396890	-0.597230	-0.021285
C90	C	1.730223	-0.263896	0.312048
C91	C	1.006827	-0.899249	-0.411628
C92	C	1.340160	-0.565916	-0.078295
C93	C	1.673494	-0.232583	0.255039
C94	C	1.006557	-0.813632	-0.411450
C95	C	1.339891	-0.480298	-0.078116
C96	C	1.673224	-0.146965	0.255217
C97	C	1.063476	-0.782180	-0.354600
C98	C	1.396810	-0.448847	-0.021266
C99	C	1.730143	-0.115514	0.312067
C100	C	1.042479	-0.813331	-0.277038
C101	C	1.375812	-0.479997	0.056295
C102	C	1.709145	-0.146664	0.389628
C103	C	1.042113	-0.898976	-0.277380
C104	C	1.375446	-0.565643	0.055954
C105	C	1.708780	-0.232309	0.389287
C106	C	1.141408	-0.898906	-0.374487
C107	C	1.474741	-0.565573	-0.041154
C108	C	1.808075	-0.232240	0.292179
C109	C	1.140950	-0.813255	-0.376188
C110	C	1.474284	-0.479922	-0.042855
C111	C	1.807617	-0.146589	0.290478
C112	C	1.063432	-0.698321	-0.354584
C113	C	1.396766	-0.364988	-0.021251
C114	C	1.730099	-0.031654	0.312083
C115	C	1.063599	-1.014422	-0.354629
C116	C	1.396932	-0.681089	-0.021296
C117	C	1.730265	-0.347756	0.312038
C118	C	1.255421	-0.356761	-0.354607
C119	C	1.588755	-0.023427	-0.021273
C120	C	1.922088	0.309906	0.312060
C121	C	1.337220	-0.356766	-0.354616
C122	C	1.670553	-0.023433	-0.021283
C123	C	2.003887	0.309900	0.312051
C124	C	1.063513	-0.356696	-0.546538
C125	C	1.396847	-0.023363	-0.213205
C126	C	1.730180	0.309970	0.120128
C127	C	1.063532	-0.356675	-0.628337
C128	C	1.396866	-0.023341	-0.295004
C129	C	1.730199	0.309992	0.038330
C130	C	1.063587	-0.163585	-0.354623
C131	C	1.396921	0.169748	-0.021290
C132	C	1.730254	0.503081	0.312044
C133	C	1.063638	-0.081271	-0.354639
C134	C	1.396971	0.252062	-0.021306
C135	C	1.730305	0.585395	0.312028
C136	C	1.110648	-0.309268	-0.816547
C137	C	1.443981	0.024066	-0.483214
C138	C	1.777314	0.357399	-0.149880
C139	C	1.110656	-0.309246	-0.893406
C140	C	1.443990	0.024087	-0.560072
C141	C	1.777323	0.357420	-0.226739
C142	C	1.016469	-0.403967	-0.893365
C143	C	1.349802	-0.070633	-0.560032
C144	C	1.683136	0.262700	-0.226699
C145	C	1.016457	-0.403984	-0.816508
C146	C	1.349790	-0.070651	-0.483175
C147	C	1.683124	0.262683	-0.149841
C148	C	1.063551	-0.356636	-0.778101
C149	C	1.396884	-0.023302	-0.444767
C150	C	1.730217	0.310031	-0.111434
C151	C	1.063571	-0.356597	-0.931817
C152	C	1.396905	-0.023263	-0.598484
C153	C	1.730238	0.310070	-0.265150
C154	C	1.063580	-0.356574	-1.015151
C155	C	1.396914	-0.023240	-0.681817
C156	C	1.730247	0.310093	-0.348484
C157	C	1.063541	-0.356657	-0.694762
C158	C	1.396874	-0.023324	-0.361428
C159	C	1.730207	0.310009	-0.028095
C160	C	1.063466	-0.356745	-0.163379
C161	C	1.396799	-0.023411	0.169954
C162	C	1.730133	0.309922	0.503288
C163	C	1.063590	-0.356558	-0.081580
C164	C	1.396923	-0.023225	0.251753
C165	C	1.730256	0.310109	0.585086
H166	H	0.494126	-0.442792	-0.439845
H167	H	0.827459	-0.109458	-0.106511
H168	H	1.160792	0.223875	0.226822
C169	C	0.720098	-0.267206	-0.265880
C170	C	1.053431	0.066128	0.067454
C171	C	1.386765	0.399461	0.400787
C172	C	0.644524	-0.257198	-0.255957
C173	C	0.977858	0.076136	0.077376
C174	C	1.311191	0.409469	0.410709
H175	H	0.746179	-0.235019	-0.233998
H176	H	1.079512	0.098314	0.099335
H177	H	1.412846	0.431648	0.432668
H178	H	0.732660	-0.316943	-0.255022
H179	H	1.065994	0.016390	0.078312
H180	H	1.399327	0.349723	0.411645
H181	H	0.732708	-0.256429	-0.315347
H182	H	1.066042	0.076905	0.017986
H183	H	1.399375	0.410238	0.351320
H184	H	0.631913	-0.267980	-0.206491
H185	H	0.965246	0.065353	0.126843
H186	H	1.298579	0.398687	0.460176
H187	H	0.631957	-0.207448	-0.266810
H188	H	0.965290	0.125885	0.066523
H189	H	1.298623	0.459218	0.399857
C190	C	0.974616	-0.446064	-0.698671
C191	C	1.307949	-0.112731	-0.365337
C192	C	1.641282	0.220602	-0.032004
C193	C	0.964684	-0.456054	-0.774241
C194	C	1.298017	-0.122721	-0.440908
C195	C	1.631350	0.210613	-0.107574
H196	H	0.942649	-0.478204	-0.672578
H197	H	1.275983	-0.144871	-0.339245
H198	H	1.609316	0.188462	-0.005912
H199	H	1.024048	-0.456910	-0.686087
H200	H	1.357382	-0.123576	-0.352753
H201	H	1.690715	0.209757	-0.019420
H202	H	0.963873	-0.396305	-0.686095
H203	H	1.297206	-0.062972	-0.352762
H204	H	1.630539	0.270361	-0.019429
H205	H	0.975432	-0.505812	-0.786817
H206	H	1.308766	-0.172479	-0.453484
H207	H	1.642099	0.160855	-0.120150
H208	H	0.915240	-0.445214	-0.786830
H209	H	1.248573	-0.111881	-0.453497
H210	H	1.581906	0.221453	-0.120163
H211	H	0.978129	-0.442518	-0.924646
H212	H	1.311462	-0.109184	-0.591312
H213	H	1.644796	0.224149	-0.257979
H214	H	1.149006	-0.270673	-0.924705
H215	H	1.482340	0.062660	-0.591372
H216	H	1.815673	0.395993	-0.258039
C217	C	1.035232	-0.845302	-0.536184
C218	C	1.368565	-0.511968	-0.202851
C219	C	1.701899	-0.178635	0.130482
C220	C	1.024275	-0.785191	-0.489090
C221	C	1.357608	-0.451858	-0.155756
C222	C	1.690942	-0.118524	0.177577
H223	H	1.046160	-0.827745	-0.584120
H224	H	1.379494	-0.494411	-0.250786
H225	H	1.712827	-0.161078	0.082547
H226	H	1.074985	-0.874322	-0.518698
H227	H	1.408318	-0.540988	-0.185365
H228	H	1.741651	-0.207655	0.147969
H229	H	0.991975	-0.874598	-0.537683
H230	H	1.325308	-0.541265	-0.204350
H231	H	1.658642	-0.207932	0.128984
H232	H	1.067534	-0.755897	-0.487587
H233	H	1.400867	-0.422564	-0.154254
H234	H	1.734201	-0.089230	0.179080
H235	H	0.984519	-0.756159	-0.506580
H236	H	1.317852	-0.422825	-0.173247
H237	H	1.651186	-0.089492	0.160086
H238	H	1.019834	-0.919798	-0.469325
H239	H	1.353167	-0.586465	-0.135992
H240	H	1.686501	-0.253131	0.197342
H241	H	0.633553	-0.442789	-0.439829
H242	H	0.966886	-0.109456	-0.106495
H243	H	1.300220	0.223877	0.226838
C244	C	0.902614	-0.743099	-0.452061
C245	C	1.235948	-0.409766	-0.118728
C246	C	1.569281	-0.076433	0.214605
C247	C	0.928658	-0.786057	-0.393679
C248	C	1.261991	-0.452724	-0.060345
C249	C	1.595325	-0.119391	0.272988
H250	H	0.854519	-0.726082	-0.441088
H251	H	1.187852	-0.392749	-0.107755
H252	H	1.521185	-0.059416	0.225578
H253	H	0.934236	-0.701977	-0.459200
H254	H	1.267569	-0.368644	-0.125867
H255	H	1.600902	-0.035310	0.207467
H256	H	0.901415	-0.772112	-0.495488
H257	H	1.234748	-0.438778	-0.162155
H258	H	1.568082	-0.105445	0.171178
H259	H	0.929862	-0.757044	-0.350253
H260	H	1.263196	-0.423710	-0.016919
H261	H	1.596529	-0.090377	0.316414
H262	H	0.897028	-0.827186	-0.386531
H263	H	1.230362	-0.493853	-0.053198
H264	H	1.563695	-0.160519	0.280135
C265	C	1.253331	-0.744853	-0.364696
C266	C	1.586665	-0.411520	-0.031363
C267	C	1.919998	-0.078186	0.301970
C268	C	1.201033	-0.784356	-0.324221
C269	C	1.534367	-0.451023	0.009112
C270	C	1.867700	-0.117690	0.342446
H271	H	1.290420	-0.727011	-0.332607
H272	H	1.623753	-0.393678	0.000726
H273	H	1.957087	-0.060344	0.334060
H274	H	1.274775	-0.776397	-0.400407
H275	H	1.608108	-0.443064	-0.067074
H276	H	1.941442	-0.109731	0.266259
H277	H	1.230266	-0.704352	-0.388515
H278	H	1.563600	-0.371019	-0.055181
H279	H	1.896933	-0.037685	0.278152
H280	H	1.224098	-0.824861	-0.300407
H281	H	1.557431	-0.491527	0.032927
H282	H	1.890764	-0.158194	0.366260
H283	H	1.179588	-0.752810	-0.288497
H284	H	1.512921	-0.419477	0.044837
H285	H	1.846255	-0.086143	0.378170
C286	C	0.407604	-0.267229	-0.265896
C287	C	0.740937	0.066105	0.067437
C288	C	1.074270	0.399438	0.400771
C289	C	0.483180	-0.257209	-0.255972
C290	C	0.816513	0.076125	0.077361
C291	C	1.149846	0.409458	0.410694
H292	H	0.381530	-0.235051	-0.234010
H293	H	0.714864	0.098283	0.099323
H294	H	1.048197	0.431616	0.432656
H295	H	0.395038	-0.256454	-0.315356
H296	H	0.728371	0.076879	0.017977
H297	H	1.061705	0.410213	0.351310
H298	H	0.394987	-0.316976	-0.255038
H299	H	0.728321	0.016358	0.078295
H300	H	1.061654	0.349691	0.411629
H301	H	0.495797	-0.207463	-0.266836
H302	H	0.829131	0.125871	0.066498
H303	H	1.162464	0.459204	0.399831
H304	H	0.495751	-0.267978	-0.206501
H305	H	0.829084	0.065355	0.126833
H306	H	1.162417	0.398688	0.460166
H307	H	0.949472	-0.920836	-0.398633
H308	H	1.282806	-0.587503	-0.065299
H309	H	1.616139	-0.254170	0.268034
H310	H	1.148992	-0.270712	-0.785278
H311	H	1.482325	0.062622	-0.451945
H312	H	1.815659	0.395955	-0.118611
H313	H	1.081640	-0.919692	-0.233455
H314	H	1.414973	-0.586359	0.099879
H315	H	1.748306	-0.253026	0.433212
C316	C	0.920023	-0.865104	-0.240879
C317	C	1.253356	-0.531770	0.092455
C318	C	1.586689	-0.198437	0.425788
C319	C	0.965287	-0.926039	-0.254666
C320	C	1.298620	-0.592706	0.078667
C321	C	1.631954	-0.259373	0.412000
H322	H	0.872591	-0.881811	-0.226862
H323	H	1.205925	-0.548477	0.106471
H324	H	1.539258	-0.215144	0.439805
H325	H	0.940510	-0.836324	-0.202403
H326	H	1.273843	-0.502991	0.130931
H327	H	1.607176	-0.169657	0.464264
H328	H	0.916260	-0.835857	-0.284027
H329	H	1.249593	-0.502524	0.049306
H330	H	1.582926	-0.169191	0.382639
H331	H	0.969054	-0.955283	-0.211516
H332	H	1.302388	-0.621950	0.121817
H333	H	1.635721	-0.288616	0.455151
H334	H	0.944795	-0.954831	-0.293145
H335	H	1.278128	-0.621498	0.040188
H336	H	1.611462	-0.288165	0.373521
H337	H	1.082498	-0.792959	-0.233404
H338	H	1.415831	-0.459626	0.099930
H339	H	1.749164	-0.126293	0.433263
H340	H	0.986172	-0.791946	-0.259906
H341	H	1.319505	-0.458613	0.073427
H342	H	1.652839	-0.125279	0.406761
H343	H	1.156785	-0.792893	-0.433269
H344	H	1.490118	-0.459560	-0.099936
H345	H	1.823452	-0.126226	0.233398
C346	C	1.113535	-0.974761	-0.478926
C347	C	1.446868	-0.641427	-0.145593
C348	C	1.780202	-0.308094	0.187740
C349	C	1.167252	-0.927987	-0.449540
C350	C	1.500586	-0.594654	-0.116207
C351	C	1.833919	-0.261321	0.217127
H352	H	1.129484	-0.992710	-0.525264
H353	H	1.462817	-0.659376	-0.191931
H354	H	1.796150	-0.326043	0.141402
H355	H	1.105678	-1.015169	-0.446576
H356	H	1.439011	-0.681835	-0.113243
H357	H	1.772345	-0.348502	0.220090
H358	H	1.069016	-0.948119	-0.484879
H359	H	1.402349	-0.614785	-0.151546
H360	H	1.735682	-0.281452	0.181787
H361	H	1.211771	-0.954631	-0.443582
H362	H	1.545104	-0.621298	-0.110248
H363	H	1.878437	-0.287964	0.223085
H364	H	1.175119	-0.887573	-0.481898
H365	H	1.508452	-0.554240	-0.148565
H366	H	1.841785	-0.220907	0.184769
C367	C	1.201028	-1.003546	-0.319686
C368	C	1.534361	-0.670212	0.013647
C369	C	1.867694	-0.336879	0.346980
C370	C	1.198474	-0.926245	-0.318446
C371	C	1.531807	-0.592912	0.014888
C372	C	1.865140	-0.259579	0.348221
H373	H	1.236257	-1.020425	-0.285091
H374	H	1.569591	-0.687092	0.048242
H375	H	1.902924	-0.353759	0.381576
H376	H	1.154106	-1.022845	-0.307393
H377	H	1.487439	-0.689511	0.025940
H378	H	1.820772	-0.356178	0.359273
H379	H	1.214464	-1.019790	-0.367415
H380	H	1.547798	-0.686457	-0.034082
H381	H	1.881131	-0.353124	0.299251
H382	H	1.185031	-0.910001	-0.270718
H383	H	1.518365	-0.576668	0.062616
H384	H	1.851698	-0.243334	0.395949
H385	H	1.245406	-0.906939	-0.330734
H386	H	1.578739	-0.573606	0.002599
H387	H	1.912072	-0.240272	0.335933
