data_functionalizedCrystal
_audit_creation_method	'MofGen! by Chris Wilmer'
_symmetry_space_group_name_H-M	'P1'
_symmetry_Int_Tables_number	1
_symmetry_cell_setting	triclinic
loop_
_symmetry_equiv_pos_as_xyz
  x,y,z
_cell_length_a	15.944551
_cell_length_b	13.339070
_cell_length_c	12.376457
_cell_angle_alpha	75.601917
_cell_angle_beta	101.289556
_cell_angle_gamma	99.564016
loop_
_atom_site_label
_atom_site_type_symbol
_atom_site_fract_x
_atom_site_fract_y
_atom_site_fract_z
O1	O	-1.156500	-0.111110	-0.093879
O2	O	-0.915702	-0.127190	-0.093907
O3	O	-1.008465	0.028116	-0.093893
O4	O	-1.063737	-0.266415	-0.093893
O5	O	-0.985273	-0.010658	0.094116
O6	O	-0.892510	-0.165963	0.094102
O7	O	-1.133308	-0.149883	0.094129
Zn8	Zn	-1.009227	-0.164079	0.123966
Zn9	Zn	-1.039783	-0.112994	-0.123743
O10	O	-1.040546	-0.305189	0.094115
C11	C	-0.872657	-0.145908	0.000094
C12	C	-0.778946	-0.143904	0.000083
C13	C	-0.987533	0.046419	0.000109
C14	C	-0.959703	0.158724	0.000101
C15	C	-1.176354	-0.131164	0.000126
C16	C	-1.270066	-0.133167	0.000129
C17	C	-0.540540	-0.042856	0.000106
C18	C	-0.501889	-0.070664	-0.092593
C19	C	-0.607374	-0.140285	0.000097
C20	C	-0.479051	-0.108915	0.092769
C21	C	-0.441643	-0.136783	0.000115
C22	C	-0.569967	-0.168104	-0.092678
C23	C	-0.547122	-0.206358	0.092767
C24	C	-0.508508	-0.234232	0.000046
C25	C	-0.702848	-0.142299	0.000086
C26	C	-0.346173	-0.134774	0.000118
C27	C	-1.061478	-0.323492	0.000111
C28	C	-1.089308	-0.435796	0.000112
N29	N	-0.988380	-0.198943	0.293021
C30	C	-1.176093	0.523498	0.000126
C31	C	-1.202242	0.417980	0.000140
C32	C	-1.141609	0.353161	0.000130
C33	C	-1.054824	0.393870	0.000107
C34	C	-1.028671	0.499395	0.000102
C35	C	-0.994188	0.329059	0.000106
C36	C	-0.907402	0.369768	0.000083
C37	C	-0.881254	0.475283	0.000077
C38	C	-0.941886	0.540102	0.000087
C39	C	-1.020340	0.223533	0.000111
C40	C	-0.872918	0.199431	0.000086
C41	C	-0.846770	0.304949	0.000073
N42	N	-1.060635	-0.078122	-0.292799
C43	C	-1.109025	0.002829	0.648024
C44	C	-1.123611	0.027230	0.529687
C45	C	-1.089804	-0.029311	0.470515
C46	C	-1.041409	-0.110258	0.529692
C47	C	-1.026827	-0.134667	0.648041
C48	C	-1.007606	-0.166807	0.470531
C49	C	-0.959211	-0.247754	0.529708
C50	C	-0.944630	-0.272159	0.648046
C51	C	-0.978437	-0.215618	0.707218
C52	C	-1.022188	-0.142398	0.352182
C53	C	-0.939990	-0.279894	0.352198
C54	C	-0.925404	-0.304296	0.470536
H55	H	-0.555046	0.038028	-0.000009
H56	H	-0.439692	-0.083849	0.171135
Br57	Br	-0.958632	-0.248730	0.867826
H58	H	-1.136551	0.048852	0.696210
Br59	Br	-0.580557	-0.301929	0.223396
H60	H	-1.272902	0.384843	0.000160
Br61	Br	-1.258366	0.611462	0.000167
H62	H	-1.091001	0.190399	0.000130
H63	H	-1.061592	-0.076490	0.304010
H64	H	-0.823546	0.146654	0.000084
Br65	Br	-0.906420	0.683343	-0.000084
H66	H	-1.163015	0.093136	0.481509
Br67	Br	-0.878967	-0.382030	0.728361
Br68	Br	-0.894114	-0.356640	0.271902
Br69	Br	-0.635397	-0.209772	-0.223442
Br70	Br	-0.468484	0.024954	-0.223219
Br71	Br	-1.177099	0.209958	0.000145
Br72	Br	-0.763471	0.530525	0.000068
Br73	Br	-0.484682	-0.369124	-0.000033
H74	H	-0.776107	0.338108	0.000055
H75	H	-1.101683	-0.009439	0.374159
Br76	Br	-0.859724	-0.414149	0.550859
