data_functionalizedCrystal
_audit_creation_method	'MofGen! by Chris Wilmer'
_symmetry_space_group_name_H-M	'P1'
_symmetry_Int_Tables_number	1
_symmetry_cell_setting	triclinic
loop_
_symmetry_equiv_pos_as_xyz
  x,y,z
_cell_length_a	27.731993
_cell_length_b	27.732048
_cell_length_c	22.610064
_cell_angle_alpha	89.999096
_cell_angle_beta	90.003380
_cell_angle_gamma	82.631525
loop_
_atom_site_label
_atom_site_type_symbol
_atom_site_fract_x
_atom_site_fract_y
_atom_site_fract_z
O1	O	0.640948	0.057385	-0.049032
O2	O	1.140948	0.557385	0.450968
O3	O	0.500151	0.066158	-0.049069
O4	O	1.000151	0.566158	0.450931
O5	O	0.574922	-0.008626	-0.049038
O6	O	1.074922	0.491374	0.450962
O7	O	0.566176	0.132169	-0.049063
O8	O	1.066176	0.632169	0.450937
O9	O	0.574909	-0.008615	0.049331
O10	O	1.074909	0.491385	0.549331
O11	O	0.500137	0.066169	0.049300
O12	O	1.000137	0.566169	0.549300
O13	O	0.640935	0.057396	0.049337
O14	O	1.140935	0.557396	0.549337
Zn15	Zn	0.570534	0.061784	0.064937
Zn16	Zn	1.070534	0.561784	0.564937
Zn17	Zn	0.570551	0.061770	-0.064668
Zn18	Zn	1.070551	0.561770	0.435332
O19	O	0.566163	0.132180	0.049307
O20	O	1.066163	0.632180	0.549307
C21	C	0.482137	0.065983	0.000111
C22	C	0.982137	0.565983	0.500111
C23	C	0.428480	0.065441	0.000098
C24	C	0.928480	0.565441	0.500098
C25	C	0.045327	0.061504	-0.053494
C26	C	0.545327	0.561504	0.446506
C27	C	0.246985	0.063571	-0.053510
C28	C	0.746985	0.563571	0.446490
O29	O	0.273064	0.063814	-0.099114
O30	O	0.773064	0.563814	0.400886
N31	N	0.272198	0.063836	0.000109
N32	N	0.772198	0.563836	0.500109
C33	C	0.246994	0.063581	0.053737
C34	C	0.746994	0.563581	0.553737
O35	O	0.273067	0.063848	0.099344
O36	O	0.773067	0.563848	0.599344
C37	C	0.045338	0.061510	0.053753
C38	C	0.545338	0.561510	0.553753
C39	C	0.020127	0.061251	0.000130
C40	C	0.520127	0.561251	0.500130
C41	C	0.020116	0.061244	-0.107113
C42	C	0.520116	0.561244	0.392887
C43	C	-0.030295	0.060730	-0.107108
C44	C	0.469705	0.560730	0.392892
C45	C	-0.055496	0.060476	-0.053485
C46	C	0.444504	0.560476	0.446515
C47	C	-0.030285	0.060736	0.000134
C48	C	0.469715	0.560736	0.500134
C49	C	0.020135	0.061251	0.107380
C50	C	0.520135	0.561251	0.607380
C51	C	-0.030282	0.060732	0.107379
C52	C	0.469718	0.560732	0.607379
C53	C	-0.055493	0.060473	0.053756
C54	C	0.444507	0.560473	0.553756
C55	C	-0.105897	0.059968	0.053762
C56	C	0.394103	0.559968	0.553762
N57	N	-0.131110	0.059704	0.000143
N58	N	0.368890	0.559704	0.500143
C59	C	-0.105910	0.059958	-0.053481
C60	C	0.394090	0.559958	0.446519
C61	C	0.352866	0.064669	0.053725
C62	C	0.852866	0.564669	0.553725
C63	C	0.403280	0.065187	0.053721
C64	C	0.903280	0.565187	0.553721
C65	C	0.403267	0.065177	-0.053526
C66	C	0.903267	0.565177	0.446474
C67	C	0.352852	0.064662	-0.053522
C68	C	0.852852	0.564662	0.446478
C69	C	0.327653	0.064404	0.000105
C70	C	0.827653	0.564404	0.500105
C71	C	-0.211778	0.058879	-0.053467
C72	C	0.288222	0.558879	0.446533
C73	C	-0.262194	0.058367	-0.053458
C74	C	0.237806	0.558367	0.446542
C75	C	-0.262177	0.058374	0.053790
C76	C	0.237823	0.558374	0.553790
C77	C	-0.211765	0.058889	0.053781
C78	C	0.288235	0.558889	0.553781
C79	C	-0.186567	0.059139	0.000147
C80	C	0.313433	0.559139	0.500147
O81	O	-0.132007	0.059720	0.099342
O82	O	0.367993	0.559720	0.599342
O83	O	-0.131990	0.059679	-0.099081
O84	O	0.368010	0.559679	0.400919
C85	C	0.095739	0.062019	-0.053499
C86	C	0.595739	0.562019	0.446501
C87	C	0.120950	0.062279	0.000120
C88	C	0.620950	0.562279	0.500120
C89	C	0.095750	0.062025	0.053744
C90	C	0.595750	0.562025	0.553744
C91	C	0.171364	0.062797	0.000117
C92	C	0.671364	0.562797	0.500117
C93	C	0.196564	0.063051	-0.053507
C94	C	0.696564	0.563051	0.446493
C95	C	0.171351	0.062786	-0.107127
C96	C	0.671351	0.562786	0.392873
C97	C	0.120940	0.062272	-0.107122
C98	C	0.620940	0.562272	0.392878
C99	C	0.120963	0.062289	0.107364
C100	C	0.620963	0.562289	0.607364
C101	C	0.171374	0.062804	0.107355
C102	C	0.671374	0.562804	0.607355
C103	C	0.196575	0.063058	0.053731
C104	C	0.696575	0.563058	0.553731
C105	C	0.574732	-0.026628	0.000148
C106	C	1.074732	0.473372	0.500148
C107	C	0.574179	-0.080282	0.000153
C108	C	1.074179	0.419718	0.500153
C109	C	0.614884	-0.419105	0.000133
C110	C	1.114884	0.080895	0.500133
C111	C	0.612833	-0.620765	0.000125
C112	C	1.112833	-0.120765	0.500125
O113	O	0.650055	-0.652028	0.000109
O114	O	1.150055	-0.152028	0.500109
N115	N	0.568497	-0.639880	0.000114
N116	N	1.068497	-0.139880	0.500114
C117	C	0.524670	-0.608576	0.000101
C118	C	1.024670	-0.108576	0.500101
O119	O	0.486912	-0.629462	0.000085
O120	O	0.986912	-0.129462	0.500085
C121	C	0.526721	-0.406918	0.000105
C122	C	1.026721	0.093082	0.500105
C123	C	0.571061	-0.387806	0.000122
C124	C	1.071061	0.112194	0.500122
C125	C	0.659220	-0.399993	0.000150
C126	C	1.159220	0.100007	0.500150
C127	C	0.659732	-0.349581	0.000155
C128	C	1.159732	0.150419	0.500155
C129	C	0.615909	-0.318282	0.000144
C130	C	1.115909	0.181718	0.500144
C131	C	0.571573	-0.337394	0.000128
C132	C	1.071573	0.162606	0.500128
C133	C	0.482895	-0.375616	0.000088
C134	C	0.982895	0.124384	0.500088
C135	C	0.483412	-0.325199	0.000088
C136	C	0.983412	0.174801	0.500088
C137	C	0.527751	-0.306087	0.000105
C138	C	1.027751	0.193913	0.500105
C139	C	0.528262	-0.255683	0.000122
C140	C	1.028262	0.244317	0.500122
N141	N	0.572598	-0.236568	0.000133
N142	N	1.072598	0.263432	0.500133
C143	C	0.616422	-0.267867	0.000144
C144	C	1.116422	0.232133	0.500144
C145	C	0.523596	-0.714450	0.000100
C146	C	1.023596	-0.214450	0.500100
C147	C	0.523083	-0.764865	0.000099
C148	C	1.023083	-0.264865	0.500099
C149	C	0.611246	-0.777049	0.000122
C150	C	1.111246	-0.277049	0.500122
C151	C	0.611759	-0.726634	0.000127
C152	C	1.111759	-0.226634	0.500127
C153	C	0.567932	-0.695335	0.000111
C154	C	1.067932	-0.195335	0.500111
C155	C	0.617494	-0.161998	0.000156
C156	C	1.117494	0.338002	0.500156
C157	C	0.618003	-0.111582	0.000164
C158	C	1.118003	0.388418	0.500164
C159	C	0.529839	-0.099401	0.000138
C160	C	1.029839	0.400599	0.500138
C161	C	0.529331	-0.149814	0.000133
C162	C	1.029331	0.350186	0.500133
C163	C	0.573162	-0.181112	0.000140
C164	C	1.073162	0.318888	0.500140
O165	O	0.491060	-0.224392	0.000132
O166	O	0.991060	0.275608	0.500132
O167	O	0.654174	-0.246972	0.000147
O168	O	1.154174	0.253028	0.500147
C169	C	0.614372	-0.469517	0.000128
C170	C	1.114372	0.030483	0.500128
C171	C	0.570036	-0.488630	0.000112
C172	C	1.070036	0.011370	0.500112
C173	C	0.526213	-0.457331	0.000101
C174	C	1.026213	0.042669	0.500101
C175	C	0.569523	-0.539044	0.000111
C176	C	1.069523	-0.039044	0.500111
C177	C	0.613346	-0.570343	0.000122
C178	C	1.113346	-0.070343	0.500122
C179	C	0.657683	-0.551228	0.000134
C180	C	1.157683	-0.051228	0.500134
C181	C	0.658195	-0.500817	0.000139
C182	C	1.158195	-0.000817	0.500139
C183	C	0.481876	-0.476446	0.000089
C184	C	0.981876	0.023554	0.500089
C185	C	0.481368	-0.526858	0.000085
C186	C	0.981368	-0.026858	0.500085
C187	C	0.525191	-0.558157	0.000096
C188	C	1.025191	-0.058157	0.500096
C189	C	0.658949	0.057570	0.000156
C190	C	1.158949	0.557570	0.500156
C191	C	0.712605	0.058113	0.000166
C192	C	1.212605	0.558113	0.500166
C193	C	0.566353	0.150181	0.000119
C194	C	1.066353	0.650181	0.500119
C195	C	0.566906	0.203836	0.000110
C196	C	1.066906	0.703836	0.500110
N197	N	0.570526	0.061794	0.153390
N198	N	1.070526	0.561794	0.653390
N199	N	0.570564	0.061756	-0.153121
N200	N	1.070564	0.561756	0.346879
C201	C	0.603662	0.028660	0.562045
C202	C	1.103662	0.528660	1.062045
C203	C	0.603664	0.028657	0.623965
C204	C	1.103664	0.528657	1.123965
O205	O	0.631817	0.000493	0.655995
O206	O	1.131817	0.500493	1.155995
N207	N	0.570551	0.061760	0.654927
N208	N	1.070551	0.561760	1.154927
C209	C	0.537430	0.094865	0.623966
C210	C	1.037430	0.594865	1.123966
O211	O	0.509265	0.123021	0.655987
O212	O	1.009265	0.623021	1.155987
C213	C	0.537426	0.094866	0.562047
C214	C	1.037426	0.594866	1.062047
C215	C	0.570544	0.061764	0.531088
C216	C	1.070544	0.561764	1.031088
C217	C	0.636777	-0.004439	0.531086
C218	C	1.136777	0.495561	1.031086
C219	C	0.636775	-0.004435	0.469170
C220	C	1.136775	0.495565	0.969170
C221	C	0.603658	0.028669	0.438213
C222	C	1.103658	0.528669	0.938213
C223	C	0.570542	0.061768	0.469172
C224	C	1.070542	0.561768	0.969172
C225	C	0.504303	0.127968	0.531087
C226	C	1.004303	0.627968	1.031087
C227	C	0.504301	0.127966	0.469164
C228	C	1.004301	0.627966	0.969164
C229	C	0.537419	0.094864	0.438205
C230	C	1.037419	0.594864	0.938205
C231	C	0.537423	0.094876	0.376300
C232	C	1.037423	0.594876	0.876300
N233	N	0.570536	0.061773	0.345338
N234	N	1.070536	0.561773	0.845338
C235	C	0.603653	0.028670	0.376295
C236	C	1.103653	0.528670	0.876295
C237	C	0.537441	0.094860	0.753999
C238	C	1.037441	0.594860	1.253999
C239	C	0.537448	0.094862	0.815917
C240	C	1.037448	0.594862	1.315917
C241	C	0.603681	0.028653	0.815912
C242	C	1.103681	0.528653	1.315912
C243	C	0.603677	0.028654	0.753993
C244	C	1.103677	0.528654	1.253993
C245	C	0.570554	0.061757	0.723037
C246	C	1.070554	0.561757	1.223037
C247	C	0.603647	0.028681	0.246267
C248	C	1.103647	0.528681	0.746267
C249	C	0.603643	0.028690	0.184346
C250	C	1.103643	0.528690	0.684346
C251	C	0.537408	0.094897	0.184357
C252	C	1.037408	0.594897	0.684357
C253	C	0.537413	0.094890	0.246273
C254	C	1.037413	0.594890	0.746273
C255	C	0.570534	0.061778	0.277226
C256	C	1.070534	0.561778	0.777226
O257	O	0.509283	0.123024	0.344230
O258	O	1.009283	0.623024	0.844230
O259	O	0.631810	0.000514	0.344266
O260	O	1.131810	0.500514	0.844266
H261	H	0.332329	0.064451	-0.097187
H262	H	0.832329	0.564451	0.402813
H263	H	0.630647	0.001697	0.841128
H264	H	1.130647	0.501697	1.341128
H265	H	0.510445	0.121851	0.159143
H266	H	1.010445	0.621851	0.659143
O267	O	0.701762	-0.430442	0.000240
O268	O	1.201762	0.069558	0.500240
C269	C	0.704105	-0.459959	0.051196
C270	C	1.204105	0.040041	0.551196
H271	H	0.665754	-0.462228	0.068168
H272	H	1.165754	0.037772	0.568168
H273	H	0.722410	-0.497987	0.039745
H274	H	1.222410	0.002013	0.539745
H275	H	0.726045	-0.443530	0.086877
H276	H	1.226045	0.056470	0.586877
H277	H	0.477327	0.154922	0.443963
H278	H	0.977327	0.654922	0.943963
H279	H	0.510450	0.121849	0.271480
H280	H	1.010450	0.621849	0.771480
O281	O	0.505233	0.127039	0.845895
O282	O	1.005233	0.627039	1.345895
C283	C	0.476013	0.156264	0.805287
C284	C	0.976013	0.656264	1.305287
H285	H	0.475619	0.136448	0.761149
H286	H	0.975619	0.636448	1.261149
H287	H	0.437354	0.163912	0.823171
H288	H	0.937354	0.663912	1.323171
H289	H	0.491439	0.192063	0.798703
H290	H	0.991439	0.692063	1.298703
H291	H	0.445259	-0.542414	0.000076
H292	H	0.945259	-0.042414	0.500076
O293	O	0.439260	-0.446114	0.000108
O294	O	0.939260	0.053886	0.500108
C295	C	0.400022	-0.473802	0.000082
C296	C	0.900022	0.026198	0.500082
H297	H	0.412585	-0.511527	0.018702
H298	H	0.912585	-0.011527	0.518702
H299	H	0.369337	-0.454982	0.028639
H300	H	0.869337	0.045018	0.528639
H301	H	0.386417	-0.477287	-0.047113
H302	H	0.886417	0.022713	0.452887
H303	H	0.694301	-0.485261	0.000153
H304	H	1.194301	0.014739	0.500153
O305	O	0.505335	0.127045	0.723867
O306	O	1.005335	0.627045	1.223867
C307	C	0.530996	0.156695	0.688064
C308	C	1.030996	0.656695	1.188064
H309	H	0.568962	0.137172	0.678780
H310	H	1.068962	0.637172	1.178780
H311	H	0.510757	0.164493	0.644527
H312	H	1.010757	0.664493	1.144527
H313	H	0.534018	0.192394	0.711934
H314	H	1.034018	0.692394	1.211934
H315	H	0.647864	-0.711077	0.000140
H316	H	1.147864	-0.211077	0.500140
H317	H	0.663742	-0.031391	0.443967
H318	H	1.163742	0.468609	0.943967
H319	H	0.332354	0.064457	0.097397
H320	H	0.832354	0.564457	0.597397
O321	O	-0.286606	0.058093	-0.105603
O322	O	0.213394	0.558093	0.394397
C323	C	-0.253550	0.058438	-0.152931
C324	C	0.246450	0.558438	0.347069
H325	H	-0.215496	0.043496	-0.137209
H326	H	0.284504	0.543496	0.362791
H327	H	-0.264872	0.034809	-0.190431
H328	H	0.235128	0.534809	0.309569
H329	H	-0.253553	0.097286	-0.169425
H330	H	0.246447	0.597286	0.330575
H331	H	0.040654	0.061461	0.151046
H332	H	0.540654	0.561461	0.651046
O333	O	0.427776	0.065530	0.105795
O334	O	0.927776	0.565530	0.605795
C335	C	0.451155	0.107703	0.108996
C336	C	0.951155	0.607703	0.608996
H337	H	0.431914	0.136819	0.078564
H338	H	0.931914	0.636819	0.578564
H339	H	0.449783	0.121768	0.156422
H340	H	0.949783	0.621768	0.656422
H341	H	0.490673	0.098625	0.094593
H342	H	0.990673	0.598625	0.594593
H343	H	0.100417	0.062061	-0.150788
H344	H	0.600417	0.562061	0.349212
H345	H	0.654110	-0.096024	0.000180
H346	H	1.154110	0.403976	0.500180
O347	O	-0.187260	0.059191	-0.105527
O348	O	0.312740	0.559191	0.394473
C349	C	-0.163903	0.101376	-0.108752
C350	C	0.336097	0.601376	0.391248
H351	H	-0.158271	0.115416	-0.062198
H352	H	0.341729	0.615416	0.437802
H353	H	-0.127154	0.092320	-0.131457
H354	H	0.372846	0.592320	0.368543
H355	H	-0.187394	0.130503	-0.135210
H356	H	0.312606	0.630503	0.364790
O357	O	0.635833	-0.003515	0.154365
O358	O	1.135833	0.496485	0.654365
C359	C	0.665070	-0.032726	0.194971
C360	C	1.165070	0.467274	0.694971
H361	H	0.645255	-0.033132	0.239107
H362	H	1.145255	0.466868	0.739107
H363	H	0.672734	-0.071382	0.177081
H364	H	1.172734	0.428618	0.677081
H365	H	0.700860	-0.017284	0.201560
H366	H	1.200860	0.482716	0.701560
H367	H	0.663745	-0.031398	0.556285
H368	H	1.163745	0.468602	1.056285
O369	O	0.195881	0.063098	-0.159180
O370	O	0.695881	0.563098	0.340820
C371	C	0.219242	0.105282	-0.162400
C372	C	0.719242	0.605282	0.337600
H373	H	0.224860	0.119327	-0.115845
H374	H	0.724860	0.619327	0.384155
H375	H	0.255997	0.096222	-0.185088
H376	H	0.755997	0.596222	0.314912
H377	H	0.195759	0.134407	-0.188871
H378	H	0.695759	0.634407	0.311129
H379	H	0.423794	0.065385	-0.097189
H380	H	0.923794	0.565385	0.402811
H381	H	0.477335	0.154922	0.556285
H382	H	0.977335	0.654922	1.056285
O383	O	0.635864	-0.003550	0.724013
O384	O	1.135864	0.496450	1.224013
C385	C	0.665102	-0.032756	0.764622
C386	C	1.165102	0.467244	1.264622
H387	H	0.645289	-0.033159	0.808760
H388	H	1.145289	0.466841	1.308760
H389	H	0.672767	-0.071415	0.746738
H390	H	1.172767	0.428585	1.246738
H391	H	0.700892	-0.017313	0.771206
H392	H	1.200892	0.482687	1.271206
H393	H	-0.050818	0.060517	-0.150774
H394	H	0.449182	0.560517	0.349226
H395	H	0.447722	-0.299717	0.000074
H396	H	0.947722	0.200283	0.500074
H397	H	0.487905	-0.688970	0.000087
H398	H	0.987905	-0.188970	0.500087
O399	O	0.479999	-0.783404	-0.000016
O400	O	0.979999	-0.283404	0.499984
C401	C	0.453313	-0.767363	-0.050963
C402	C	0.953313	-0.267363	0.449037
H403	H	0.479253	-0.757073	-0.086563
H404	H	0.979253	-0.257073	0.413437
H405	H	0.432979	-0.797750	-0.068071
H406	H	0.932979	-0.297750	0.431929
H407	H	0.426127	-0.734297	-0.039452
H408	H	0.926127	-0.234297	0.460548
H409	H	0.040629	0.061449	-0.150782
H410	H	0.540629	0.561449	0.349218
O411	O	0.635841	-0.003416	0.276394
O412	O	1.135841	0.496584	0.776394
C413	C	0.665480	0.022256	0.312200
C414	C	1.165480	0.522256	0.812200
H415	H	0.645943	0.060216	0.321488
H416	H	1.145943	0.560216	0.821488
H417	H	0.673288	0.002017	0.355735
H418	H	1.173288	0.502017	0.855735
H419	H	0.701176	0.025294	0.288331
H420	H	1.201176	0.525294	0.788331
H421	H	-0.191239	0.059110	0.097445
H422	H	0.308761	0.559110	0.597445
O423	O	-0.054697	0.060419	0.159512
O424	O	0.445303	0.560419	0.659512
C425	C	-0.036590	0.018659	0.192129
C426	C	0.463410	0.518659	0.692129
H427	H	0.001942	0.005070	0.176876
H428	H	0.501942	0.505070	0.676876
H429	H	-0.036160	0.028098	0.241183
H430	H	0.463840	0.528098	0.741183
H431	H	-0.060910	-0.010957	0.184703
H432	H	0.439090	0.489043	0.684703
O433	O	-0.286601	0.058062	0.105914
O434	O	0.213399	0.558062	0.605914
C435	C	-0.268497	0.016301	0.138531
C436	C	0.231503	0.516301	0.638531
H437	H	-0.229961	0.002715	0.123288
H438	H	0.270039	0.502715	0.623288
H439	H	-0.268077	0.025737	0.187587
H440	H	0.231923	0.525737	0.687587
H441	H	-0.292813	-0.013317	0.131094
H442	H	0.207187	0.486683	0.631094
O443	O	0.195790	0.063035	0.159502
O444	O	0.695790	0.563035	0.659502
C445	C	0.162728	0.062711	0.206828
C446	C	0.662728	0.562711	0.706828
H447	H	0.128907	0.047038	0.191105
H448	H	0.628907	0.547038	0.691105
H449	H	0.180540	0.039381	0.244333
H450	H	0.680540	0.539381	0.744333
H451	H	0.152005	0.101452	0.223314
H452	H	0.652005	0.601452	0.723314
H453	H	0.653186	-0.187476	0.000160
H454	H	1.153186	0.312524	0.500160
H455	H	0.695838	-0.334025	0.000167
H456	H	1.195838	0.165975	0.500167
O457	O	0.096423	0.062106	0.159417
O458	O	0.596423	0.562106	0.659417
C459	C	0.061479	0.103695	0.162633
C460	C	0.561479	0.603695	0.662633
H461	H	0.051987	0.117577	0.116075
H462	H	0.551987	0.617577	0.616075
H463	H	0.027334	0.093915	0.185336
H464	H	0.527334	0.593915	0.685336
H465	H	0.076857	0.133222	0.189087
H466	H	0.576857	0.633222	0.689087
H467	H	0.646929	-0.802542	0.000131
H468	H	1.146929	-0.302542	0.500131
H469	H	0.446789	-0.391168	0.000071
H470	H	0.946789	0.108832	0.500071
O471	O	0.486249	-0.168361	0.000015
O472	O	0.986249	0.331639	0.500015
C473	C	0.459562	-0.152317	-0.050930
C474	C	0.959562	0.347683	0.449070
H475	H	0.485501	-0.142018	-0.086526
H476	H	0.985501	0.357982	0.413474
H477	H	0.439233	-0.182705	-0.068046
H478	H	0.939233	0.317295	0.431954
H479	H	0.432371	-0.119256	-0.039414
H480	H	0.932371	0.380744	0.460586
O481	O	0.487285	-0.068972	0.000021
O482	O	0.987285	0.431028	0.500021
C483	C	0.484966	-0.039438	-0.050918
C484	C	0.984966	0.460562	0.449082
H485	H	0.509832	-0.058093	-0.086517
H486	H	1.009832	0.441907	0.413483
H487	H	0.445989	-0.033470	-0.068036
H488	H	0.945989	0.466530	0.431964
H489	H	0.497201	-0.002870	-0.039394
H490	H	0.997201	0.497130	0.460606
O491	O	0.700241	-0.581657	0.000038
O492	O	1.200241	-0.081657	0.500038
C493	C	0.702576	-0.611188	-0.050904
C494	C	1.202576	-0.111188	0.449096
H495	H	0.677721	-0.592530	-0.086515
H496	H	1.177721	-0.092530	0.413485
H497	H	0.741558	-0.617154	-0.067997
H498	H	1.241558	-0.117154	0.432003
H499	H	0.690337	-0.647757	-0.039392
H500	H	1.190337	-0.147757	0.460608
