data_functionalizedCrystal
_audit_creation_method	'MofGen! by Chris Wilmer'
_symmetry_space_group_name_H-M	'P1'
_symmetry_Int_Tables_number	1
_symmetry_cell_setting	triclinic
loop_
_symmetry_equiv_pos_as_xyz
  x,y,z
_cell_length_a	23.532407
_cell_length_b	22.610064
_cell_length_c	10.654551
_cell_angle_alpha	90.002575
_cell_angle_beta	83.667053
_cell_angle_gamma	90.009934
loop_
_atom_site_label
_atom_site_type_symbol
_atom_site_fract_x
_atom_site_fract_y
_atom_site_fract_z
O1	O	0.756262	0.049109	0.152435
O2	O	0.590542	0.049126	0.174492
O3	O	0.677212	0.049115	-0.019396
O4	O	0.669592	0.049119	0.346324
O5	O	0.677186	-0.049254	-0.019396
O6	O	0.590517	-0.049244	0.174492
O7	O	0.756236	-0.049261	0.152435
Zn8	Zn	0.673373	-0.064870	0.163464
Zn9	Zn	0.673406	0.064735	0.163464
O10	O	0.669567	-0.049250	0.346324
C11	C	0.569310	-0.000057	0.173930
C12	C	0.506082	-0.000050	0.172242
C13	C	0.107658	-0.000076	0.276389
C14	C	0.048247	-0.000080	0.274820
O15	O	0.012132	-0.000100	0.371366
N16	N	0.024870	-0.000080	0.159554
C17	C	0.060906	-0.000082	0.045849
O18	O	0.035567	-0.000083	-0.052339
C19	C	0.120316	-0.000083	0.047419
C20	C	0.143689	-0.000077	0.162693
C21	C	0.131032	-0.000071	0.391653
C22	C	0.190438	-0.000066	0.393222
C23	C	0.226470	-0.000067	0.279525
C24	C	0.203096	-0.000072	0.164261
C25	C	0.156351	-0.000089	-0.066285
C26	C	0.215764	-0.000091	-0.064705
C27	C	0.239138	-0.000084	0.050569
C28	C	0.298534	-0.000068	0.052133
N29	N	0.321911	-0.000068	0.167399
C30	C	0.285880	-0.000067	0.281095
C31	C	-0.063858	-0.000082	0.042560
C32	C	-0.123266	-0.000077	0.040989
C33	C	-0.135921	-0.000076	0.269961
C34	C	-0.076512	-0.000076	0.271531
C35	C	-0.040480	-0.000082	0.157827
C36	C	0.410638	-0.000057	0.284380
C37	C	0.470050	-0.000049	0.285938
C38	C	0.482700	-0.000054	0.056967
C39	C	0.423293	-0.000058	0.055408
C40	C	0.387263	-0.000061	0.169125
O41	O	0.334684	-0.000050	-0.044362
O42	O	0.311227	-0.000074	0.379266
N43	N	0.673354	-0.153323	0.163463
C44	C	0.708245	-0.561967	0.239227
C45	C	0.708252	-0.623887	0.239224
O46	O	0.737895	-0.655909	0.303632
N47	N	0.673417	-0.654860	0.163449
C48	C	0.638577	-0.623910	0.087664
O49	O	0.608949	-0.655940	0.023211
C50	C	0.638574	-0.561991	0.087661
C51	C	0.673406	-0.531021	0.163450
C52	C	0.743075	-0.530998	0.315008
C53	C	0.743067	-0.469082	0.315013
C54	C	0.708229	-0.438136	0.239236
C55	C	0.673398	-0.469106	0.163454
C56	C	0.603737	-0.531041	0.011869
C57	C	0.603737	-0.469118	0.011872
C58	C	0.638570	-0.438149	0.087661
C59	C	0.638552	-0.376244	0.087682
N60	N	0.673386	-0.345271	0.163456
C61	C	0.708225	-0.376217	0.239233
C62	C	0.638589	-0.753943	0.087673
C63	C	0.638589	-0.815861	0.087682
C64	C	0.708264	-0.815834	0.239241
C65	C	0.708261	-0.753915	0.239238
C66	C	0.673423	-0.722970	0.163448
C67	C	0.708205	-0.246190	0.239238
C68	C	0.708192	-0.184269	0.239240
C69	C	0.638519	-0.184301	0.087677
C70	C	0.638529	-0.246216	0.087680
C71	C	0.673377	-0.277160	0.163464
O72	O	0.608926	-0.344183	0.023302
O73	O	0.737854	-0.344179	0.303663
C74	C	0.777469	-0.000077	0.152997
C75	C	0.840697	-0.000080	0.154686
C76	C	0.676640	-0.000068	-0.066176
C77	C	0.674965	-0.000065	-0.205566
N78	N	0.673430	0.153188	0.163455
C79	C	0.674193	0.053556	-0.271045
C80	C	0.672616	0.053557	-0.402016
C81	C	0.672584	-0.053690	-0.402017
C82	C	0.674158	-0.053690	-0.271048
C83	C	0.637178	0.117983	-0.570965
C84	C	0.636416	0.171608	-0.636451
C85	C	0.670251	0.218947	-0.603982
C86	C	0.704862	0.212665	-0.506033
C87	C	0.705629	0.159039	-0.440555
C88	C	0.671781	0.111702	-0.473018
C89	C	0.709600	-0.118113	-0.102098
C90	C	0.710371	-0.171739	-0.036619
C91	C	0.676539	-0.219083	-0.069086
C92	C	0.641937	-0.212806	-0.167042
C93	C	0.641166	-0.159180	-0.232521
C94	C	0.674996	-0.111836	-0.200045
C95	C	0.670139	-0.000065	0.393104
C96	C	0.671813	-0.000065	0.532494
H97	H	0.736557	-0.159056	0.300962
H98	H	0.771448	-0.556187	0.376715
H99	H	0.677175	-0.262750	-0.015770
N100	N	0.743864	-0.847442	0.316635
N101	N	0.774969	-0.819789	0.384287
H102	H	0.800110	-0.842113	0.438944
H103	H	0.671927	-0.097350	-0.455349
H104	H	0.669630	0.262610	-0.657310
H105	H	0.736624	-0.728704	0.300953
N106	N	0.602936	-0.152701	0.010244
N107	N	0.549926	-0.159627	0.025824
H108	H	0.524800	-0.137311	-0.028881
H109	H	0.736581	-0.271376	0.300948
N110	N	0.132488	-0.000116	-0.184040
N111	N	0.100752	-0.041591	-0.210458
H112	H	0.083901	-0.041614	-0.293631
N113	N	0.602618	0.069624	-0.604137
N114	N	0.625511	0.021786	-0.640221
H115	H	0.601104	-0.012369	-0.663654
H116	H	-0.034524	-0.000081	-0.050038
H117	H	0.612987	-0.154072	-0.312280
H118	H	0.737145	-0.079560	-0.075643
H119	H	0.738551	-0.176848	0.043138
N120	N	0.602994	-0.847491	0.010297
N121	N	0.549984	-0.840587	0.025934
H122	H	0.524845	-0.862924	-0.028724
H123	H	0.610214	-0.728752	0.025961
N124	N	0.568152	-0.562657	-0.065555
N125	N	0.537056	-0.535007	-0.133207
H126	H	0.511922	-0.557334	-0.187896
H127	H	0.771434	-0.443872	0.376723
H128	H	0.610159	-0.271433	0.025982
H129	H	0.674850	0.097222	-0.217733
N130	N	0.607382	-0.261173	-0.200204
N131	N	0.608075	-0.309049	-0.141732
H132	H	0.583672	-0.343211	-0.165150
N133	N	0.740984	0.152625	-0.340519
N134	N	0.771198	0.194896	-0.311545
H135	H	0.796168	0.190369	-0.240888
N136	N	0.568158	-0.437519	-0.065581
N137	N	0.537070	-0.465183	-0.133252
H138	H	0.511945	-0.442868	-0.187960
N139	N	0.252569	-0.000108	-0.180854
N140	N	0.250164	-0.041579	-0.257673
H141	H	0.276158	-0.041592	-0.339703
N142	N	0.493915	-0.000039	0.403704
N143	N	0.461733	-0.000039	0.505207
H144	H	0.478585	-0.000032	0.588379
N145	N	0.739431	0.261025	-0.472903
N146	N	0.738742	0.308900	-0.531378
H147	H	0.763156	0.343056	-0.507978
H148	H	0.381308	-0.000061	0.376979
N149	N	0.601063	0.178015	-0.736502
N150	N	0.570849	0.135745	-0.765476
H151	H	0.545885	0.140270	-0.836143
H152	H	0.209464	-0.000061	0.487089
H153	H	0.101700	-0.000072	0.484244
H154	H	-0.165269	-0.000078	0.362539
N155	N	-0.052648	-0.000082	0.389290
N156	N	-0.063537	-0.041547	0.465765
H157	H	-0.046686	-0.041553	0.548939
N158	N	-0.147129	-0.000070	-0.076772
N159	N	-0.114944	-0.000067	-0.178272
H160	H	-0.131794	-0.000065	-0.261446
H161	H	0.512048	-0.000052	-0.035602
N162	N	0.399423	-0.000055	-0.062349
N163	N	0.431604	-0.000052	-0.163855
H164	H	0.414750	-0.000054	-0.247024
