data_functionalizedCrystal
_audit_creation_method	'MofGen! by Chris Wilmer'
_symmetry_space_group_name_H-M	'P1'
_symmetry_Int_Tables_number	1
_symmetry_cell_setting	triclinic
loop_
_symmetry_equiv_pos_as_xyz
  x,y,z
_cell_length_a	14.971475
_cell_length_b	17.000383
_cell_length_c	14.048226
_cell_angle_alpha	90.005781
_cell_angle_beta	89.994420
_cell_angle_gamma	100.395009
loop_
_atom_site_label
_atom_site_type_symbol
_atom_site_fract_x
_atom_site_fract_y
_atom_site_fract_z
O1	O	-1.178675	0.103677	0.079139
O2	O	-0.917281	0.116106	0.079145
O3	O	-1.064208	-0.005960	0.079138
O4	O	-1.031749	0.225743	0.079146
O5	O	-1.064192	-0.005967	-0.079183
O6	O	-0.917265	0.116099	-0.079176
O7	O	-1.178659	0.103670	-0.079182
Zn8	Zn	-1.047960	0.109883	-0.104316
Zn9	Zn	-1.047981	0.109893	0.104279
O10	O	-1.031733	0.225736	-0.079175
C11	C	-0.883993	0.115549	-0.000015
C12	C	-0.784828	0.113887	-0.000013
C13	C	-1.065943	-0.035615	-0.000022
C14	C	-1.071126	-0.123969	-0.000019
C15	C	-0.738237	0.113101	-0.086314
C16	C	-0.645064	0.111528	-0.086315
C17	C	-0.598482	0.110746	-0.000013
C18	C	-0.645080	0.111530	0.086296
C19	C	-0.738253	0.113098	0.086295
C20	C	-0.450878	0.108264	0.086291
C21	C	-0.357699	0.106698	0.086291
C22	C	-0.357689	0.106694	-0.086320
C23	C	-0.450862	0.108262	-0.086320
C24	C	-0.497453	0.109047	-0.000011
C25	C	-1.104598	-0.624155	-0.000016
C26	C	-1.099720	-0.541137	-0.000021
C27	C	-1.015058	-0.490219	-0.000015
C28	C	-0.935269	-0.522325	-0.000013
C29	C	-0.940147	-0.605342	-0.000014
C30	C	-0.996215	-0.239091	-0.000017
C31	C	-0.991343	-0.156069	-0.000013
C32	C	-1.155795	-0.174887	-0.000024
C33	C	-1.160666	-0.257904	-0.000019
C34	C	-1.080877	-0.290002	-0.000022
C35	C	-1.010071	-0.405361	-0.000018
C36	C	-1.085865	-0.374859	-0.000026
C37	C	-0.211947	0.104233	-0.000019
C38	C	-0.311108	0.105912	-0.000010
C39	C	-1.029998	0.255391	-0.000014
C40	C	-1.024814	0.343745	-0.000010
N41	N	-1.047952	0.109876	-0.246677
C42	C	-1.113028	0.055848	-0.296498
C43	C	-1.113034	0.055847	-0.396156
C44	C	-1.047967	0.109880	-0.445990
C45	C	-0.982885	0.163911	-0.396162
C46	C	-0.982875	0.163907	-0.296506
C47	C	-0.982910	0.163917	-0.603877
C48	C	-0.982920	0.163922	-0.703539
C49	C	-1.113069	0.055857	-0.703526
C50	C	-1.113060	0.055853	-0.603870
C51	C	-1.047978	0.109886	-0.554049
N52	N	-1.047996	0.109894	0.246640
H53	H	-0.776155	0.113744	-0.156592
H54	H	-1.166024	0.011853	-0.436720
O55	O	-0.910161	-0.273708	-0.000017
H56	H	-0.850474	-0.224352	-0.000003
H57	H	-1.220755	-0.148743	-0.000014
O58	O	-0.594806	0.110688	-0.179397
H59	H	-0.642848	0.111508	-0.239407
H60	H	-1.166046	0.011860	-0.563295
H61	H	-0.941138	-0.363895	-0.000009
O62	O	-1.195914	-0.679070	-0.000033
H63	H	-1.234425	-0.667640	0.064486
O64	O	-0.912708	0.222192	-0.449913
H65	H	-0.919220	0.284249	-0.430761
O66	O	-1.251980	-0.312823	-0.000043
H67	H	-1.306641	-0.276554	-0.000060
O68	O	-0.501092	0.109118	-0.179408
H69	H	-0.555789	0.055635	-0.183549
O70	O	-0.912706	0.222178	-0.550128
H71	H	-0.947297	0.260908	-0.504695
O72	O	-0.912691	0.222184	-0.242763
H73	H	-0.867452	0.259763	-0.294156
H74	H	-0.922397	-0.114613	-0.000011
H75	H	-0.866335	-0.480861	-0.000013
H76	H	-1.166061	0.011862	-0.744096
H77	H	-0.929935	0.207920	-0.744110
H78	H	-1.164689	-0.515005	-0.000027
O79	O	-0.854095	-0.639968	-0.000016
H80	H	-0.852393	-0.677346	0.064506
O81	O	-0.501142	0.109109	0.179375
H82	H	-0.471032	0.163018	0.220759
H83	H	-1.154797	-0.416319	-0.000036
H84	H	-1.166017	0.011852	-0.255929
H85	H	-0.319750	0.106055	-0.156595
H86	H	-0.319774	0.106062	0.156566
H87	H	-0.607147	0.110888	0.156564
H88	H	-0.776186	0.113740	0.156571
