data_functionalizedCrystal
_audit_creation_method	'MofGen! by Chris Wilmer'
_symmetry_space_group_name_H-M	'P1'
_symmetry_Int_Tables_number	1
_symmetry_cell_setting	triclinic
loop_
_symmetry_equiv_pos_as_xyz
  x,y,z
_cell_length_a	10.967819
_cell_length_b	11.792254
_cell_length_c	10.065875
_cell_angle_alpha	98.849918
_cell_angle_beta	69.228723
_cell_angle_gamma	84.460315
loop_
_atom_site_label
_atom_site_type_symbol
_atom_site_fract_x
_atom_site_fract_y
_atom_site_fract_z
O1	O	1.740395	0.083024	-0.522824
O2	O	2.240395	0.583024	-0.022824
O3	O	1.363006	0.111191	-0.434067
O4	O	1.863006	0.611191	0.065933
O5	O	1.560849	-0.068355	-0.480587
O6	O	2.060849	0.431645	0.019413
O7	O	1.542553	0.262570	-0.476303
O8	O	2.042553	0.762570	0.023697
O9	O	1.523124	-0.033984	-0.244728
O10	O	2.023124	0.466016	0.255272
O11	O	1.325281	0.145562	-0.198208
O12	O	1.825281	0.645562	0.301792
O13	O	1.702670	0.117394	-0.286964
O14	O	2.202670	0.617394	0.213036
Zn15	Zn	1.507986	0.136935	-0.205138
Zn16	Zn	2.007986	0.636935	0.294862
Zn17	Zn	1.557690	0.091651	-0.515893
Zn18	Zn	2.057690	0.591651	-0.015893
O19	O	1.504828	0.296940	-0.240444
O20	O	2.004828	0.796940	0.259556
C21	C	1.295829	0.128923	-0.304774
C22	C	1.795829	0.628923	0.195226
C23	C	1.151868	0.130537	-0.270916
C24	C	1.651868	0.630537	0.229084
C25	C	0.958446	0.115129	-0.343037
C26	C	1.458446	0.615129	0.156963
C27	C	1.107238	0.113453	-0.378022
C28	C	1.607238	0.613453	0.121978
C29	C	1.540833	-0.093423	-0.362387
C30	C	2.040833	0.406577	0.137613
C31	C	1.537383	-0.219325	-0.361577
C32	C	2.037383	0.280675	0.138423
C33	C	1.534581	-0.321573	-0.360922
C34	C	2.034581	0.178427	0.139078
C35	C	1.531077	-0.449848	-0.360111
C36	C	2.031077	0.050152	0.139889
C37	C	1.769848	0.099662	-0.416260
C38	C	2.269848	0.599662	0.083740
C39	C	1.913810	0.098047	-0.450127
C40	C	2.413810	0.598047	0.049873
C41	C	1.524843	0.322008	-0.358648
C42	C	2.024843	0.822008	0.141352
C43	C	1.528295	0.447909	-0.359467
C44	C	2.028295	0.947909	0.140533
N45	N	1.474074	0.167839	0.006941
N46	N	1.974074	0.667839	0.506941
N47	N	1.591613	0.060737	-0.727975
N48	N	2.091613	0.560737	-0.227975
C49	C	1.545883	0.102396	0.057835
C50	C	2.045883	0.602396	0.557835
C51	C	1.519793	0.126190	0.221137
C52	C	2.019793	0.626190	0.721137
H53	H	0.886505	0.131000	-0.225452
H54	H	1.386505	0.631000	0.274548
F55	F	1.368462	0.264093	0.108006
F56	F	1.868462	0.764093	0.608006
F57	F	1.651256	0.005943	-0.043173
F58	F	2.151256	0.505943	0.456827
F59	F	1.414176	0.222448	0.322198
F60	F	1.914176	0.722448	0.822198
F61	F	1.201258	0.092723	-0.531726
F62	F	1.701258	0.592723	-0.031726
H63	H	1.079932	0.146410	-0.153323
H64	H	1.579932	0.646410	0.346677
F65	F	1.007835	0.077318	-0.603823
F66	F	1.507835	0.577318	-0.103823
H67	H	1.672407	-0.012915	0.194706
H68	H	2.172407	0.487085	0.694706
