data_functionalizedCrystal
_audit_creation_method	'MofGen! by Chris Wilmer'
_symmetry_space_group_name_H-M	'P1'
_symmetry_Int_Tables_number	1
_symmetry_cell_setting	triclinic
loop_
_symmetry_equiv_pos_as_xyz
  x,y,z
_cell_length_a	19.288859
_cell_length_b	19.288865
_cell_length_c	17.766277
_cell_angle_alpha	89.988397
_cell_angle_beta	89.989768
_cell_angle_gamma	83.134986
loop_
_atom_site_label
_atom_site_type_symbol
_atom_site_fract_x
_atom_site_fract_y
_atom_site_fract_z
O1	O	0.921356	0.086628	-0.062618
O2	O	0.719095	0.098322	-0.062617
O3	O	0.826070	-0.008656	-0.062602
O4	O	0.814381	0.193605	-0.062632
O5	O	0.826051	-0.008661	0.062586
O6	O	0.719076	0.098316	0.062571
O7	O	0.921337	0.086623	0.062571
Cu8	Cu	0.820205	0.092469	0.074002
Cu9	Cu	0.820227	0.092475	-0.074048
O10	O	0.814362	0.193600	0.062556
C11	C	0.693209	0.097943	-0.000022
C12	C	0.616105	0.096816	-0.000022
C13	C	0.825684	-0.034535	-0.000006
C14	C	0.824555	-0.111638	0.000001
C15	C	0.052064	0.151959	-0.000031
C16	C	0.124511	0.153025	-0.000035
C17	C	0.169217	0.090255	-0.000024
C18	C	0.141472	0.026416	-0.000029
C19	C	0.069027	0.025353	-0.000032
C20	C	0.290481	0.043440	0.043845
C21	C	0.362925	0.044507	0.043853
C22	C	0.392663	0.093533	-0.000017
C23	C	0.349948	0.141505	-0.043885
C24	C	0.277502	0.140441	-0.043888
C25	C	0.247773	0.091401	-0.000021
C26	C	0.498955	0.158523	-0.000022
C27	C	0.571403	0.159586	-0.000031
C28	C	0.588364	0.032976	-0.000017
C29	C	0.515917	0.031915	-0.000016
C30	C	0.471216	0.094691	-0.000015
C31	C	0.887323	-0.156336	0.000004
C32	C	0.886262	-0.228783	-0.000008
C33	C	0.822430	-0.256529	-0.000008
C34	C	0.759654	-0.211822	-0.000016
C35	C	0.760716	-0.139376	-0.000011
C36	C	0.772244	-0.364817	0.043843
C37	C	0.771184	-0.437262	0.043843
C38	C	0.819150	-0.479975	-0.000025
C39	C	0.868189	-0.450236	-0.043883
C40	C	0.869251	-0.377790	-0.043879
C41	C	0.821271	-0.335083	-0.000013
C42	C	0.880773	-0.603228	-0.000035
C43	C	0.879709	-0.675676	-0.000052
C44	C	0.753099	-0.658713	-0.000052
C45	C	0.754164	-0.586267	-0.000043
C46	C	0.818003	-0.558529	-0.000031
C47	C	0.947223	0.087001	-0.000025
C48	C	1.024327	0.088128	-0.000031
C49	C	0.814747	0.219479	-0.000042
C50	C	0.815876	0.296583	-0.000053
N51	N	0.820194	0.092464	0.178132
N52	N	0.820243	0.092475	-0.178178
C53	C	0.867578	0.045118	0.217526
C54	C	0.867582	0.045115	0.296327
C55	C	0.820209	0.092470	0.335733
C56	C	0.772816	0.139820	0.296330
C57	C	0.772809	0.139817	0.217530
C58	C	0.810910	0.155757	0.460562
C59	C	0.810922	0.155761	0.539360
C60	C	0.820227	0.092478	0.578779
C61	C	0.829535	0.029188	0.539389
C62	C	0.829528	0.029186	0.460589
C63	C	0.820211	0.092478	0.421179
C64	C	0.867618	0.045124	0.703618
C65	C	0.867617	0.045120	0.782422
C66	C	0.772855	0.139831	0.782423
C67	C	0.772852	0.139829	0.703621
C68	C	0.820238	0.092477	0.664224
H69	H	0.015673	0.203077	-0.000034
N70	N	0.231434	0.192168	-0.091212
H71	H	0.181029	0.184052	-0.084556
H72	H	0.237544	0.241203	-0.074825
N73	N	0.800880	0.224017	0.418049
H74	H	0.757876	0.225650	0.385367
H75	H	0.795024	0.264070	0.455005
H76	H	0.937377	-0.265183	-0.000008
N77	N	0.382003	0.194390	-0.091210
H78	H	0.408060	0.224662	-0.057621
H79	H	0.415447	0.169277	-0.128713
N80	N	0.949623	-0.573305	-0.000023
H81	H	0.952896	-0.543608	-0.046422
H82	H	0.952830	-0.543676	0.046423
N83	N	0.918711	-0.005970	0.661134
H84	H	0.892257	-0.036654	0.628461
H85	H	0.949377	0.020526	0.628463
H86	H	0.906160	0.006559	0.185451
N87	N	0.919931	-0.496295	-0.091198
H88	H	0.913661	-0.482806	-0.145925
H89	H	0.968958	-0.490217	-0.074753
N90	N	0.918738	-0.005937	0.824915
H91	H	0.948759	-0.035927	0.787996
H92	H	0.949350	0.020597	0.857586
N93	N	0.947412	-0.723891	-0.000043
H94	H	0.949807	-0.754315	-0.046454
H95	H	0.987972	-0.695275	-0.000004
H96	H	0.493333	-0.020063	-0.000012
N97	N	0.839563	-0.039071	0.418105
H98	H	0.882562	-0.040698	0.385401
H99	H	0.845430	-0.079122	0.455078
N100	N	0.918689	-0.005955	0.338829
H101	H	0.948704	-0.035954	0.301914
H102	H	0.949308	0.020565	0.371507
H103	H	0.734243	0.178376	0.328418
N104	N	0.839576	-0.039074	0.581892
H105	H	0.838165	-0.029472	0.637789
H106	H	0.801053	-0.067903	0.568134
N107	N	0.956175	-0.126418	0.000016
H108	H	0.995777	-0.165732	0.000016
H109	H	0.959383	-0.096720	-0.046392
N110	N	0.721753	0.190903	0.824912
H111	H	0.728945	0.183720	0.880811
H112	H	0.729616	0.240159	0.811125
N113	N	0.684251	-0.688631	-0.000041
H114	H	0.644647	-0.649318	-0.000036
H115	H	0.681054	-0.718311	-0.046450
N116	N	0.922132	-0.345712	-0.091185
H117	H	0.952399	-0.319659	-0.057585
H118	H	0.952312	-0.383796	-0.118971
N119	N	0.721745	0.190896	0.661126
H120	H	0.691733	0.220895	0.698044
H121	H	0.748231	0.221535	0.628413
H122	H	0.703051	-0.549873	-0.000042
H123	H	0.803348	0.207295	0.571425
N124	N	0.258420	-0.009438	0.091179
H125	H	0.224941	0.015632	0.128680
H126	H	0.232402	-0.039703	0.057545
N127	N	0.721698	0.190883	0.175035
H128	H	0.691684	0.220881	0.211953
H129	H	0.748186	0.221523	0.142325
N130	N	0.636580	-0.034723	-0.000003
H131	H	0.627672	-0.062586	0.046408
H132	H	0.627668	-0.062526	-0.046438
H133	H	0.593984	0.211567	-0.000037
N134	N	0.154434	0.221876	-0.000034
H135	H	0.138111	0.249357	0.046373
H136	H	0.207106	0.212966	-0.000060
N137	N	0.450740	0.226229	-0.000030
H138	H	0.459647	0.254089	-0.046443
H139	H	0.400656	0.215813	0.000001
N140	N	0.408992	-0.007224	0.091174
H141	H	0.379163	-0.038447	0.118959
H142	H	0.443051	-0.036561	0.057539
N143	N	0.189687	-0.041286	-0.000020
H144	H	0.239790	-0.030927	-0.000015
H145	H	0.180716	-0.069120	0.046390
H146	H	0.733182	-0.330045	0.079570
H147	H	0.707681	-0.234417	-0.000018
H148	H	0.046445	-0.026628	-0.000033
H149	H	0.731251	-0.461469	0.079551
H150	H	0.709601	-0.102982	-0.000014
