data_functionalizedCrystal
_audit_creation_method	'MofGen! by Chris Wilmer'
_symmetry_space_group_name_H-M	'P1'
_symmetry_Int_Tables_number	1
_symmetry_cell_setting	triclinic
loop_
_symmetry_equiv_pos_as_xyz
  x,y,z
_cell_length_a	6.817900
_cell_length_b	11.102289
_cell_length_c	16.305550
_cell_angle_alpha	93.871858
_cell_angle_beta	103.455250
_cell_angle_gamma	108.605707
loop_
_atom_site_label
_atom_site_type_symbol
_atom_site_fract_x
_atom_site_fract_y
_atom_site_fract_z
V1	V	-4.052585	-0.176912	-0.263031
O2	O	-4.012740	0.007398	-0.258024
O3	O	-4.029765	-0.349724	-0.261232
O4	O	-4.003658	-0.174675	-0.377748
O5	O	-4.039028	-0.168864	-0.140702
V6	V	-4.532967	-0.154809	-0.248400
O7	O	-4.320734	-0.225396	-0.295127
O8	O	-4.715015	-0.106325	-0.216304
O9	O	-4.332580	0.018004	-0.250199
O10	O	-4.690209	-0.339118	-0.253407
O11	O	-4.663921	-0.162856	-0.370729
O12	O	-4.358687	-0.157046	-0.133683
C13	C	-3.881006	-0.391837	-0.257083
C14	C	-3.943631	-0.533117	-0.256376
C15	C	-4.156117	-0.605981	-0.260253
C16	C	-4.214952	-0.738730	-0.259597
C17	C	-3.848793	-0.725738	-0.251183
C18	C	-3.789964	-0.592993	-0.251846
C19	C	-4.367515	-0.613483	-0.265106
C20	C	-4.426350	-0.746231	-0.264450
C21	C	-3.847703	-0.168542	-0.405710
C22	C	-3.889152	-0.167857	-0.499491
C23	C	-4.039843	-0.165201	-0.840237
C24	C	-3.802622	-0.157314	-0.799308
C25	C	-3.759612	-0.158554	-0.701813
C26	C	-3.965082	-0.166518	-0.671189
C27	C	-4.150803	-0.292033	-0.721815
C28	C	-4.192560	-0.291323	-0.819365
C29	C	-4.077235	-0.048574	-0.794394
C30	C	-4.029158	-0.047581	-0.696551
C31	C	-3.922844	-0.167267	-0.575651
C32	C	-4.082092	-0.164460	-0.935776
C33	C	-4.144682	0.060110	-0.254346
C34	C	-4.061295	0.201389	-0.255058
C35	C	-4.177985	-0.163182	-0.105717
C36	C	-4.115773	-0.163861	-0.011934
H37	H	-3.619679	-0.068308	-0.666790
C38	C	-4.310604	-0.054859	-0.830621
H39	H	-4.384948	-0.128156	-0.873474
H40	H	-4.379985	-0.060987	-0.786062
H41	H	-4.310846	0.020680	-0.854697
H42	H	-3.616948	-0.533674	-0.248699
H43	H	-4.490572	-0.770966	-0.206823
H44	H	-3.723691	-0.774505	-0.247496
C45	C	-4.500027	-0.587845	-0.347991
H46	H	-4.594432	-0.667382	-0.381634
H47	H	-4.581413	-0.537868	-0.334359
H48	H	-4.405969	-0.542482	-0.379123
H49	H	-3.682983	-0.066643	-0.811672
C50	C	-4.385610	-0.541235	-0.184759
H51	H	-4.344268	-0.451837	-0.187954
H52	H	-4.529856	-0.572295	-0.181197
H53	H	-4.293820	-0.554984	-0.135553
H54	H	-3.770006	-0.241106	-0.830820
C55	C	-4.585439	-0.824759	-0.348885
H56	H	-4.615593	-0.767870	-0.386937
H57	H	-4.523996	-0.878485	-0.373807
H58	H	-4.714881	-0.876355	-0.338000
H59	H	-3.705805	-0.243312	-0.685520
C60	C	-4.161479	-0.410586	-0.860411
H61	H	-4.123490	-0.459009	-0.817428
H62	H	-4.291442	-0.462261	-0.900900
H63	H	-4.050282	-0.384059	-0.888214
C64	C	-4.429610	-0.306211	-0.857186
H65	H	-4.499991	-0.312674	-0.812920
H66	H	-4.437131	-0.233422	-0.883470
H67	H	-4.497966	-0.381757	-0.898492
C68	C	-4.093705	-0.411344	-0.699109
H69	H	-4.207094	-0.486825	-0.730066
H70	H	-3.964961	-0.407547	-0.713603
H71	H	-4.073867	-0.413276	-0.639645
H72	H	-4.305502	-0.302400	-0.702903
C73	C	-3.934623	0.079902	-0.812443
H74	H	-3.850934	0.063613	-0.848110
H75	H	-4.022762	0.124359	-0.840196
H76	H	-3.842141	0.130985	-0.760153
C77	C	-3.846966	0.077839	-0.650116
H78	H	-3.732326	0.057817	-0.615411
H79	H	-3.796668	0.127744	-0.690936
H80	H	-3.899503	0.125323	-0.615335
C81	C	-4.227791	-0.045450	-0.667701
H82	H	-4.274464	-0.117397	-0.639692
H83	H	-4.191607	0.031619	-0.629525
H84	H	-4.339876	-0.049289	-0.716094
