data_functionalizedCrystal
_audit_creation_method	'MofGen! by Chris Wilmer'
_symmetry_space_group_name_H-M	'P1'
_symmetry_Int_Tables_number	1
_symmetry_cell_setting	triclinic
loop_
_symmetry_equiv_pos_as_xyz
  x,y,z
_cell_length_a	18.101398
_cell_length_b	25.639234
_cell_length_c	18.101397
_cell_angle_alpha	89.977192
_cell_angle_beta	90.015323
_cell_angle_gamma	89.988672
loop_
_atom_site_label
_atom_site_type_symbol
_atom_site_fract_x
_atom_site_fract_y
_atom_site_fract_z
Zn1	Zn	1.132191	-0.295498	-0.294963
Zn2	Zn	1.632191	0.204502	0.205037
Zn3	Zn	1.132108	-0.208066	-0.418798
Zn4	Zn	1.632108	0.291934	0.081202
Zn5	Zn	1.008346	-0.208090	-0.294965
Zn6	Zn	1.508346	0.291910	0.205035
Zn7	Zn	1.008325	-0.295483	-0.418757
Zn8	Zn	1.508325	0.204517	0.081243
O9	O	1.070243	-0.251784	-0.356871
O10	O	1.570243	0.248216	0.143129
O11	O	1.235813	-0.283897	-0.311406
O12	O	1.735813	0.216103	0.188594
O13	O	1.115665	-0.134904	-0.402389
O14	O	1.615665	0.365096	0.097611
O15	O	1.024818	-0.219701	-0.191332
O16	O	1.524818	0.280299	0.308668
O17	O	1.235752	-0.219660	-0.402387
O18	O	1.735752	0.280340	0.097613
O19	O	1.115806	-0.283920	-0.191330
O20	O	1.615806	0.216080	0.308670
O21	O	1.024738	-0.134922	-0.311410
O22	O	1.524738	0.365078	0.188590
O23	O	0.904711	-0.219687	-0.311370
O24	O	1.404711	0.280313	0.188630
O25	O	1.024782	-0.368651	-0.402317
O26	O	1.524782	0.131349	0.097683
O27	O	0.904695	-0.283894	-0.402320
O28	O	1.404695	0.216106	0.097680
O29	O	1.115786	-0.368662	-0.311366
O30	O	1.615786	0.131338	0.188634
O31	O	1.115644	-0.219646	-0.522425
O32	O	1.615644	0.280354	-0.022425
O33	O	1.024701	-0.283871	-0.522395
O34	O	1.524701	0.216129	-0.022395
C35	C	0.877832	-0.251792	-0.356842
C36	C	1.377832	0.248208	0.143158
C37	C	0.795518	-0.251807	-0.356847
C38	C	1.295518	0.248193	0.143153
C39	C	0.496427	-0.251785	-0.356890
C40	C	0.996427	0.248215	0.143110
C41	C	0.527767	-0.291984	-0.414390
C42	C	1.027767	0.208016	0.085610
C43	C	0.613385	-0.292149	-0.414210
C44	C	1.113385	0.207851	0.085790
C45	C	0.644809	-0.251796	-0.356870
C46	C	1.144809	0.248204	0.143130
C47	C	0.613740	-0.266854	-0.278869
C48	C	1.113740	0.233146	0.221131
C49	C	0.528095	-0.267140	-0.279215
C50	C	1.028095	0.232860	0.220785
C51	C	0.527976	-0.196433	-0.376703
C52	C	1.027976	0.303567	0.123297
C53	C	0.613626	-0.196729	-0.378415
C54	C	1.113626	0.303271	0.121585
C55	C	0.728669	-0.251802	-0.356853
C56	C	1.228669	0.248198	0.143147
C57	C	0.412567	-0.251781	-0.356902
C58	C	0.912567	0.248219	0.143098
C59	C	1.070291	-0.388158	-0.356837
C60	C	1.570291	0.111842	0.143163
C61	C	1.070311	-0.446272	-0.356822
C62	C	1.570311	0.053728	0.143178
C63	C	1.022986	-0.806649	-0.309361
C64	C	1.522986	-0.306649	0.190639
C65	C	1.022990	-0.861254	-0.309348
C66	C	1.522990	-0.361254	0.190652
O67	O	0.982716	-0.889503	-0.269076
O68	O	1.482716	-0.389503	0.230924
N69	N	1.070336	-0.888554	-0.356706
N70	N	1.570336	-0.388554	0.143294
C71	C	1.117675	-0.861248	-0.404087
C72	C	1.617675	-0.361248	0.095913
O73	O	1.157946	-0.889483	-0.444368
O74	O	1.657946	-0.389483	0.055632
C75	C	1.117667	-0.806644	-0.404103
C76	C	1.617667	-0.306644	0.095897
C77	C	1.070323	-0.779347	-0.356736
C78	C	1.570323	-0.279347	0.143264
C79	C	0.975646	-0.779352	-0.261999
C80	C	1.475646	-0.279352	0.238001
C81	C	0.975643	-0.724751	-0.262012
C82	C	1.475643	-0.224751	0.237988
C83	C	1.022981	-0.697448	-0.309387
C84	C	1.522981	-0.197448	0.190613
C85	C	1.070321	-0.724746	-0.356749
C86	C	1.570321	-0.224746	0.143251
C87	C	1.165002	-0.779338	-0.451487
C88	C	1.665002	-0.279338	0.048513
C89	C	1.164989	-0.724731	-0.451499
C90	C	1.664989	-0.224731	0.048501
C91	C	1.117646	-0.697434	-0.404133
C92	C	1.617646	-0.197434	0.095867
C93	C	1.117655	-0.642843	-0.404137
C94	C	1.617655	-0.142843	0.095863
N95	N	1.070309	-0.615542	-0.356778
N96	N	1.570309	-0.115542	0.143222
C97	C	1.022972	-0.642845	-0.309403
C98	C	1.522972	-0.142845	0.190597
C99	C	1.117688	-0.975918	-0.404049
C100	C	1.617688	-0.475918	0.095951
C101	C	1.117700	-1.030521	-0.404029
C102	C	1.617700	-0.530521	0.095971
C103	C	1.023014	-1.030523	-0.309291
C104	C	1.523014	-0.530523	0.190709
C105	C	1.023006	-0.975920	-0.309308
C106	C	1.523006	-0.475920	0.190692
C107	C	1.070342	-0.948618	-0.356691
C108	C	1.570342	-0.448618	0.143309
C109	C	1.022970	-0.528180	-0.309433
C110	C	1.522970	-0.028180	0.190567
C111	C	1.022974	-0.473574	-0.309447
C112	C	1.522974	0.026426	0.190553
C113	C	1.117657	-0.473577	-0.404188
C114	C	1.617657	0.026423	0.095812
C115	C	1.117656	-0.528177	-0.404171
C116	C	1.617656	-0.028177	0.095829
C117	C	1.070307	-0.555478	-0.356791
C118	C	1.570307	-0.055478	0.143209
O119	O	1.157907	-0.614559	-0.444390
O120	O	1.657907	-0.114559	0.055610
O121	O	0.982701	-0.614603	-0.269135
O122	O	1.482701	-0.114603	0.230865
C123	C	1.263404	-0.251777	-0.356900
C124	C	1.763404	0.248223	0.143100
C125	C	1.345718	-0.251774	-0.356913
C126	C	1.845718	0.248226	0.143087
C127	C	1.070181	-0.251766	-0.549281
C128	C	1.570181	0.248234	-0.049281
C129	C	1.070223	-0.251775	-0.631595
C130	C	1.570223	0.248225	-0.131595
C131	C	1.070237	-0.115942	-0.356851
C132	C	1.570237	0.384058	0.143149
C133	C	1.070360	-0.057828	-0.356657
C134	C	1.570360	0.442172	0.143343
C135	C	1.070268	-0.251793	-0.782304
C136	C	1.570268	0.248207	-0.282304
C137	C	1.127543	-0.211423	-0.813645
C138	C	1.627543	0.288577	-0.313645
C139	C	1.127401	-0.211275	-0.899264
C140	C	1.627401	0.288725	-0.399264
C141	C	1.070314	-0.251810	-0.930686
C142	C	1.570314	0.248190	-0.430686
C143	C	0.992211	-0.236988	-0.899662
C144	C	1.492211	0.263012	-0.399662
C145	C	0.992516	-0.236685	-0.814017
C146	C	1.492516	0.263315	-0.314017
C147	C	1.090423	-0.307090	-0.813807
C148	C	1.590423	0.192910	-0.313807
C149	C	1.092171	-0.306805	-0.899457
C150	C	1.592171	0.193195	-0.399457
C151	C	1.070335	-0.251821	-1.014546
C152	C	1.570335	0.248179	-0.514546
C153	C	1.070242	-0.251781	-0.698444
C154	C	1.570242	0.248219	-0.198444
C155	C	1.070324	-0.251815	-0.163709
C156	C	1.570324	0.248185	0.336291
C157	C	1.070359	-0.251828	-0.081395
C158	C	1.570359	0.248172	0.418605
H159	H	0.506373	-0.182749	-0.432608
H160	H	1.006373	0.317251	0.067392
Cl161	Cl	0.645167	-0.223064	-0.210928
Cl162	Cl	1.145167	0.276936	0.289072
H163	H	0.507708	-0.166481	-0.334821
H164	H	1.007708	0.333519	0.165179
H165	H	0.937089	-0.702530	-0.223443
H166	H	1.437089	-0.202530	0.276557
H167	H	0.974875	-0.197020	-0.921160
H168	H	1.474875	0.302980	-0.421160
H169	H	1.156215	-0.550404	-0.442732
H170	H	1.656215	-0.050404	0.057268
Cl171	Cl	0.646873	-0.328650	-0.252451
Cl172	Cl	1.146873	0.171350	0.247549
H173	H	0.984415	-0.550401	-0.270851
H174	H	1.484415	-0.050401	0.229149
H175	H	1.156200	-0.451337	-0.442757
H176	H	1.656200	0.048663	0.057243
Cl177	Cl	1.177230	-1.064831	-0.463569
Cl178	Cl	1.677230	-0.564831	0.036431
Cl179	Cl	1.180906	-0.324071	-0.930765
Cl180	Cl	1.680906	0.175929	-0.430765
H181	H	1.185309	-0.220532	-0.920238
H182	H	1.685309	0.279468	-0.420238
Cl183	Cl	1.217212	-0.225545	-0.781784
Cl184	Cl	1.717212	0.274455	-0.281784
H185	H	1.146391	-0.320601	-0.792158
H186	H	1.646391	0.179399	-0.292158
H187	H	1.114058	-0.170307	-0.919798
H188	H	1.614058	0.329693	-0.419798
Cl189	Cl	1.032510	-0.355724	-0.932475
Cl190	Cl	1.532510	0.144276	-0.432475
H191	H	0.506256	-0.332759	-0.401448
H192	H	1.006256	0.167241	0.098552
Cl193	Cl	0.924545	-0.280995	-0.931087
Cl194	Cl	1.424545	0.219005	-0.431087
Cl195	Cl	1.026033	-0.353529	-0.782497
Cl196	Cl	1.526033	0.146471	-0.282497
H197	H	0.633941	-0.185372	-0.435812
H198	H	1.133941	0.314628	0.064188
H199	H	0.633887	-0.333162	-0.401101
H200	H	1.133887	0.166838	0.098899
Cl201	Cl	0.646645	-0.148002	-0.318446
Cl202	Cl	1.146645	0.351998	0.181554
Cl203	Cl	1.107176	-0.148523	-0.780490
Cl204	Cl	1.607176	0.351477	-0.280490
H205	H	0.984456	-0.953698	-0.270737
H206	H	1.484456	-0.453698	0.229263
Cl207	Cl	0.963453	-0.439261	-0.249895
Cl208	Cl	1.463453	0.060739	0.250105
H209	H	0.937095	-0.801576	-0.223420
H210	H	1.437095	-0.301576	0.276580
Cl211	Cl	0.963503	-1.064857	-0.249735
Cl212	Cl	1.463503	-0.564857	0.250265
H213	H	1.203541	-0.702505	-0.490080
H214	H	1.703541	-0.202505	0.009920
Cl215	Cl	1.177209	-0.941601	-0.463615
Cl216	Cl	1.677209	-0.441601	0.036385
Cl217	Cl	1.224517	-0.813642	-0.511044
Cl218	Cl	1.724517	-0.313642	-0.011044
H219	H	0.975463	-0.196268	-0.794089
H220	H	1.475463	0.303732	-0.294089
H221	H	0.634392	-0.282712	-0.472052
H222	H	1.134392	0.217288	0.027948
H223	H	0.507163	-0.282652	-0.472421
H224	H	1.007163	0.217348	0.027579
H225	H	0.508132	-0.307605	-0.262409
H226	H	1.008132	0.192395	0.237591
Cl227	Cl	0.496083	-0.223910	-0.210830
Cl228	Cl	0.996083	0.276090	0.289170
Cl229	Cl	0.924368	-0.280115	-0.782006
Cl230	Cl	1.424368	0.219885	-0.282006
