data_functionalizedCrystal
_audit_creation_method	'MofGen! by Chris Wilmer'
_symmetry_space_group_name_H-M	'P1'
_symmetry_Int_Tables_number	1
_symmetry_cell_setting	triclinic
loop_
_symmetry_equiv_pos_as_xyz
  x,y,z
_cell_length_a	8.634740
_cell_length_b	8.597304
_cell_length_c	9.130313
_cell_angle_alpha	97.702678
_cell_angle_beta	90.004321
_cell_angle_gamma	92.879790
loop_
_atom_site_label
_atom_site_type_symbol
_atom_site_fract_x
_atom_site_fract_y
_atom_site_fract_z
O1	O	2.053797	0.512861	0.186502
O2	O	1.604196	0.469855	0.181080
O3	O	1.837844	0.264230	0.155126
O4	O	1.820150	0.718487	0.212456
O5	O	1.837821	0.264228	-0.088473
O6	O	1.604174	0.469853	-0.062519
O7	O	2.053774	0.512859	-0.057097
Cu8	Cu	1.828972	0.491356	-0.082051
Cu9	Cu	1.828999	0.491358	0.206034
O10	O	1.820127	0.718485	-0.031143
C11	C	1.546588	0.460112	0.058051
C12	C	1.374967	0.431064	0.054388
C13	C	1.835931	0.205470	0.025914
C14	C	1.830249	0.030384	0.003827
C15	C	2.111383	0.522603	0.065935
C16	C	2.283004	0.551651	0.069608
C17	C	1.822039	0.777244	0.098072
C18	C	1.827722	0.952330	0.120169
N19	N	1.828965	0.491355	-0.284673
C20	C	1.725491	0.582357	-0.349877
C21	C	1.725521	0.582359	-0.503213
C22	C	1.932503	0.400343	-0.526131
C23	C	1.932479	0.400351	-0.372796
C24	C	1.605987	0.687437	-0.336647
C25	C	1.606017	0.687439	-0.489984
N26	N	1.829018	0.491348	0.408655
H27	H	1.335574	0.677122	0.085434
H28	H	1.829902	0.019450	0.236682
H29	H	1.828046	-0.036744	-0.112694
H30	H	1.493525	0.633199	-0.295954
F31	F	1.656082	0.843572	-0.532442
F32	F	2.042625	0.303518	-0.303400
F33	F	2.042665	0.303497	-0.619929
F34	F	1.641492	0.850191	-0.261711
H35	H	1.322404	0.305601	0.038592
H36	H	1.487084	0.643614	-0.537154
