data_functionalizedCrystal
_audit_creation_method	'MofGen! by Chris Wilmer'
_symmetry_space_group_name_H-M	'P1'
_symmetry_Int_Tables_number	1
_symmetry_cell_setting	triclinic
loop_
_symmetry_equiv_pos_as_xyz
  x,y,z
_cell_length_a	15.297327
_cell_length_b	12.759401
_cell_length_c	12.759393
_cell_angle_alpha	90.018496
_cell_angle_beta	99.641734
_cell_angle_gamma	80.293454
loop_
_atom_site_label
_atom_site_type_symbol
_atom_site_fract_x
_atom_site_fract_y
_atom_site_fract_z
Zn1	Zn	-0.359102	-1.533799	-0.666297
Zn2	Zn	-0.509990	-1.503249	-0.521002
Zn3	Zn	-0.359150	-1.358091	-0.490645
Zn4	Zn	-0.509920	-1.327659	-0.696630
O5	O	-0.434541	-1.430699	-0.593643
O6	O	-0.379127	-1.676766	-0.647033
O7	O	-0.490029	-1.483944	-0.369964
O8	O	-0.232898	-1.406921	-0.488547
O9	O	-0.489984	-1.654320	-0.540286
O10	O	-0.232864	-1.536012	-0.617597
O11	O	-0.379208	-1.377297	-0.347661
O12	O	-0.379140	-1.207035	-0.517960
O13	O	-0.489865	-1.355053	-0.839617
O14	O	-0.489911	-1.184677	-0.669295
O15	O	-0.379060	-1.506503	-0.817332
O16	O	-0.636226	-1.454435	-0.569698
O17	O	-0.636175	-1.325430	-0.698731
C18	C	-0.434524	-1.157735	-0.593626
C19	C	-0.434539	-1.040956	-0.593648
C20	C	-0.668934	-1.383343	-0.640823
C21	C	-0.769208	-1.363180	-0.661042
C22	C	-0.434450	-1.430791	-0.867659
C23	C	-0.434411	-1.430831	-0.984427
C24	C	-1.051846	-1.575241	-0.449495
C25	C	-0.957633	-1.594185	-0.430493
C26	C	-0.910523	-1.536436	-0.488129
C27	C	-0.957634	-1.459739	-0.564769
C28	C	-1.051856	-1.440787	-0.583767
C29	C	-0.910532	-1.401982	-0.622401
C30	C	-0.957643	-1.325285	-0.699042
C31	C	-1.051856	-1.306338	-0.718037
C32	C	-1.098967	-1.364087	-0.660401
C33	C	-0.816310	-1.420933	-0.603403
C34	C	-0.816320	-1.286480	-0.737676
C35	C	-0.910532	-1.267536	-0.756677
C36	C	-0.199232	-1.478269	-0.546302
C37	C	-0.098957	-1.498541	-0.526129
C38	C	-0.434558	-1.704729	-0.593662
C39	C	-0.434565	-1.821504	-0.593670
C40	C	-0.492309	-0.974461	-0.672355
C41	C	-0.492321	-0.864734	-0.672369
C42	C	-0.376788	-0.888009	-0.514958
C43	C	-0.376773	-0.997734	-0.514949
C44	C	-0.550075	-1.017683	-0.751054
C45	C	-0.607851	-0.951186	-0.829768
C46	C	-0.607862	-0.841460	-0.829781
C47	C	-0.550098	-0.798230	-0.751081
C48	C	-0.376709	-1.509701	-1.027686
C49	C	-0.376676	-1.509733	-1.137404
C50	C	-0.492055	-1.352019	-1.160596
C51	C	-0.492083	-1.351984	-1.050879
C52	C	-0.319037	-1.588548	-0.961234
C53	C	-0.261331	-1.667426	-1.004492
C54	C	-0.261299	-1.667457	-1.114210
C55	C	-0.318972	-1.588611	-1.180669
C56	C	-0.434566	-1.430681	-0.320681
C57	C	-0.434351	-1.430897	-0.203862
H58	H	-0.777960	-1.483380	-0.541002
C59	C	-0.764502	-1.222953	-0.801081
N60	N	-0.725466	-1.175109	-0.848834
C61	C	-0.313257	-0.840449	-0.428389
N62	N	-0.265407	-0.804628	-0.363181
C63	C	-0.905818	-1.678530	-0.346173
N64	N	-0.866790	-1.742058	-0.282653
H65	H	-0.654900	-0.787322	-0.893880
C66	C	-0.318928	-1.588646	-1.301361
N67	N	-0.318897	-1.588677	-1.392265
H68	H	-1.090213	-1.622246	-0.402570
C69	C	-0.555492	-1.265295	-1.233705
N70	N	-0.603275	-1.199975	-1.288772
C71	C	-0.550113	-0.677526	-0.751102
N72	N	-0.550129	-0.586613	-0.751114
H73	H	-1.175683	-1.348670	-0.675871
H74	H	-1.090211	-1.243874	-0.780430
C75	C	-0.806885	-1.557296	-0.467242
N76	N	-0.728822	-1.573020	-0.451516
H77	H	-0.550073	-1.107026	-0.751050
C78	C	-0.313225	-1.070882	-0.428363
N79	N	-0.265358	-1.125978	-0.363146
C80	C	-0.319065	-1.588518	-0.840541
N81	N	-0.319086	-1.588493	-0.749635
H82	H	-0.948904	-1.205089	-0.819079
C83	C	-0.197890	-1.754147	-0.931384
N84	N	-0.150105	-1.819468	-0.876320
H85	H	-0.654875	-0.986393	-0.893847
H86	H	-0.214306	-1.731677	-1.149425
H87	H	-0.539055	-1.287747	-1.015655
