data_functionalizedCrystal
_audit_creation_method	'MofGen! by Chris Wilmer'
_symmetry_space_group_name_H-M	'P1'
_symmetry_Int_Tables_number	1
_symmetry_cell_setting	triclinic
loop_
_symmetry_equiv_pos_as_xyz
  x,y,z
_cell_length_a	27.440280
_cell_length_b	27.440280
_cell_length_c	27.440280
_cell_angle_alpha	60.004742
_cell_angle_beta	90.008003
_cell_angle_gamma	60.004534
loop_
_atom_site_label
_atom_site_type_symbol
_atom_site_fract_x
_atom_site_fract_y
_atom_site_fract_z
Zr1	Zr	0.469569	0.533327	-0.063884
O2	O	0.391762	0.634989	-0.141703
O3	O	0.493412	0.431666	-0.040030
O4	O	0.493424	0.533315	-0.141691
O5	O	0.391752	0.533349	0.040152
O6	O	0.573627	0.533306	-0.141681
O7	O	0.391751	0.533339	-0.040041
O8	O	0.573606	0.351473	0.040173
O9	O	0.391773	0.715181	-0.141702
O10	O	0.563446	0.473473	-0.029848
O11	O	0.503593	0.473488	0.029992
O12	O	0.503607	0.593167	-0.089701
O13	O	0.443753	0.593181	-0.029861
Zr14	Zr	0.597485	0.533327	0.064031
Zr15	Zr	0.597483	0.533312	-0.063868
Zr16	Zr	0.469571	0.533342	0.064015
Zr17	Zr	0.469586	0.661225	-0.063883
Zr18	Zr	0.597469	0.405430	0.064029
O19	O	0.573642	0.634989	0.040176
O20	O	0.573640	0.634968	-0.141680
O21	O	0.391765	0.635010	0.040153
O22	O	0.675292	0.431666	0.141849
O23	O	0.675290	0.431644	-0.040007
O24	O	0.493415	0.431687	0.141826
O25	O	0.675303	0.533306	-0.040006
O26	O	0.573631	0.533339	0.141838
O27	O	0.493428	0.533349	0.141828
O28	O	0.675304	0.533315	0.040188
O29	O	0.493447	0.715169	-0.141689
O30	O	0.573607	0.351485	0.141835
O31	O	0.675282	0.351473	0.141848
O32	O	0.675281	0.351461	0.040185
O33	O	0.391774	0.715193	-0.040039
O34	O	0.493449	0.715181	-0.040026
O35	O	0.563448	0.473488	0.089847
O36	O	0.623302	0.473473	0.030007
O37	O	0.563462	0.593167	-0.029846
O38	O	0.503608	0.593181	0.029994
C39	C	0.533507	0.373347	0.000071
C40	C	0.533500	0.319051	0.000071
C41	C	0.564787	-0.017698	-0.031157
C42	C	0.564792	-0.068722	-0.031156
O43	O	0.591381	-0.095135	-0.057702
N44	N	0.533549	-0.094231	0.000079
C45	C	0.502303	-0.068718	0.031319
O46	O	0.475729	-0.095101	0.057887
C47	C	0.502301	-0.017699	0.031320
C48	C	0.533542	0.007812	0.000079
C49	C	0.596025	0.007812	-0.062396
C50	C	0.596019	0.058833	-0.062398
C51	C	0.564774	0.084344	-0.031162
C52	C	0.533535	0.058833	0.000076
C53	C	0.471059	0.007809	0.062563
C54	C	0.471061	0.058832	0.062563
C55	C	0.502301	0.084343	0.031321
C56	C	0.502284	0.135365	0.031310
N57	N	0.533527	0.160874	0.000075
C58	C	0.564772	0.135364	-0.031161
C59	C	0.502309	-0.175864	0.031314
C60	C	0.502307	-0.226879	0.031309
C61	C	0.564798	-0.226880	-0.031164
C62	C	0.564796	-0.175861	-0.031163
C63	C	0.533553	-0.150355	0.000079
C64	C	0.564756	0.242512	-0.031164
C65	C	0.564745	0.293540	-0.031166
C66	C	0.502257	0.293534	0.031311
C67	C	0.502265	0.242514	0.031310
C68	C	0.533519	0.217002	0.000072
O69	O	0.475710	0.161808	0.057845
O70	O	0.591348	0.161746	-0.057718
C71	C	0.373526	0.533346	0.000053
C72	C	0.319223	0.533352	0.000046
C73	C	0.013761	0.470837	0.031332
C74	C	-0.037257	0.470833	0.031338
O75	O	-0.037080	0.417698	0.057927
N76	N	-0.094010	0.533311	0.000094
C77	C	-0.099743	0.595797	-0.031152
O78	O	-0.152700	0.648939	-0.057726
C79	C	-0.048725	0.595800	-0.031153
C80	C	0.008027	0.533318	0.000088
C81	C	0.070511	0.408360	0.062571
C82	C	0.121525	0.408364	0.062565
C83	C	0.115791	0.470845	0.031320
C84	C	0.059042	0.533322	0.000081
C85	C	-0.054459	0.658286	-0.062395
C86	C	-0.003435	0.658283	-0.062393
C87	C	0.053317	0.595801	-0.031153
C88	C	0.104322	0.595807	-0.031170
N89	N	0.161074	0.533329	0.000073
C90	C	0.166809	0.470848	0.031318
C91	C	-0.206882	0.595786	-0.031145
C92	C	-0.257899	0.595784	-0.031148
C93	C	-0.195409	0.470819	0.031343
C94	C	-0.144392	0.470823	0.031341
C95	C	-0.150129	0.533308	0.000098
C96	C	0.273941	0.470862	0.031302
C97	C	0.324958	0.470871	0.031291
C98	C	0.262464	0.595835	-0.031196
C99	C	0.211452	0.595826	-0.031188
C100	C	0.217194	0.533334	0.000066
O101	O	0.104191	0.648916	-0.057744
O102	O	0.219768	0.417715	0.057894
C103	C	0.693528	0.533308	0.000093
C104	C	0.747831	0.533302	0.000100
C105	C	0.533525	0.533308	-0.159909
C106	C	0.533524	0.533302	-0.214206
C107	C	0.533548	0.693308	0.000075
C108	C	0.533555	0.747604	0.000076
C109	C	0.502297	0.595817	-0.582183
C110	C	0.502299	0.595821	-0.633205
O111	O	0.475752	0.648957	-0.686164
N112	N	0.533533	0.533343	-0.627480
C113	C	0.564773	0.470857	-0.570727
O114	O	0.591341	0.417715	-0.570542
C115	C	0.564774	0.470854	-0.519706
C116	C	0.533533	0.533336	-0.525436
C117	C	0.471058	0.658294	-0.587911
C118	C	0.471056	0.658290	-0.536892
C119	C	0.502292	0.595809	-0.480145
C120	C	0.533530	0.533332	-0.474418
C121	C	0.596018	0.408369	-0.462955
C122	C	0.596017	0.408371	-0.411933
C123	C	0.564775	0.470853	-0.417663
C124	C	0.564764	0.470847	-0.366652
N125	N	0.533529	0.533325	-0.372378
C126	C	0.502293	0.595806	-0.429124
C127	C	0.564769	0.470868	-0.677877
C128	C	0.564764	0.470871	-0.728897
C129	C	0.502290	0.595835	-0.791371
C130	C	0.502292	0.595832	-0.740350
C131	C	0.533534	0.533346	-0.683603
C132	C	0.502290	0.595793	-0.321979
C133	C	0.502288	0.595783	-0.270952
C134	C	0.564764	0.470819	-0.208482
C135	C	0.564764	0.470829	-0.259504
C136	C	0.533525	0.533321	-0.316253
O137	O	0.591299	0.417738	-0.313675
O138	O	0.475736	0.648939	-0.429298
C139	C	0.533530	0.533346	0.160056
C140	C	0.533530	0.533352	0.214352
C141	C	0.693508	0.373328	0.000091
C142	C	0.747804	0.319026	0.000097
C143	C	0.533509	0.373365	0.160054
C144	C	0.533503	0.319076	0.214350
C145	C	0.693510	0.373347	0.160074
C146	C	0.747807	0.319051	0.214376
C147	C	0.373544	0.693308	-0.159927
C148	C	0.319248	0.747604	-0.214230
C149	C	0.373547	0.693326	0.000055
C150	C	0.319251	0.747629	0.000049
C151	C	0.533546	0.693289	-0.159907
C152	C	0.533552	0.747579	-0.214203
C153	C	0.742058	0.293525	-0.031149
C154	C	0.793070	0.242509	-0.031155
C155	C	0.849827	0.216992	0.000089
C156	C	0.855572	0.242498	0.031336
C157	C	0.804560	0.293516	0.031338
C158	C	0.564744	0.293581	0.271096
C159	C	0.564736	0.242577	0.322118
C160	C	0.533490	0.217066	0.316392
C161	C	0.502245	0.242566	0.259639
C162	C	0.502250	0.293572	0.208618
C163	C	0.804553	0.293546	0.208642
C164	C	0.855576	0.242536	0.259660
C165	C	0.849850	0.217029	0.316412
C166	C	0.793098	0.242539	0.322146
C167	C	0.742077	0.293551	0.271128
C168	C	0.262501	0.773115	-0.208495
C169	C	0.211479	0.824141	-0.259514
C170	C	0.217204	0.849650	-0.316266
C171	C	0.273957	0.824137	-0.322000
C172	C	0.324978	0.773116	-0.270982
C173	C	0.324997	0.773135	0.031290
C174	C	0.273985	0.824165	0.031282
C175	C	0.217228	0.849684	0.000036
C176	C	0.211483	0.824176	-0.031209
C177	C	0.262494	0.773150	-0.031204
C178	C	0.564804	0.773074	-0.208458
C179	C	0.564821	0.824078	-0.259469
C180	C	0.533583	0.849589	-0.316227
C181	C	0.502330	0.824089	-0.321971
C182	C	0.502316	0.773082	-0.270960
H183	H	0.621460	0.079600	-0.087836
C184	C	0.810863	0.321596	0.146221
H185	H	0.851970	0.299100	0.150121
H186	H	0.792261	0.313233	0.125016
H187	H	0.792262	0.369764	0.125020
C188	C	-0.009747	0.727017	-0.096731
H189	H	0.028763	0.718076	-0.092249
H190	H	-0.030954	0.752716	-0.137836
H191	H	-0.030937	0.752659	-0.081273
C192	C	0.161078	0.905763	-0.372380
H193	H	0.126463	0.917293	-0.360831
H194	H	0.161068	0.945571	-0.395467
H195	H	0.161070	0.889031	-0.395455
H196	H	0.533599	0.891122	-0.357758
C197	C	0.599112	0.214531	0.384538
H198	H	0.617729	0.237023	0.380637
H199	H	0.572152	0.222901	0.405741
H200	H	0.628675	0.166362	0.405742
H201	H	0.901782	0.221771	0.254981
H202	H	0.695848	0.314300	-0.056598
C203	C	0.630394	-0.020238	-0.096763
H204	H	0.648991	0.002273	-0.115368
H205	H	0.659961	-0.068402	-0.069803
H206	H	0.603424	-0.011870	-0.126334
H207	H	0.165273	0.844905	-0.254834
H208	H	0.371182	0.752345	-0.275658
C209	C	0.149048	0.852246	-0.065571
H210	H	0.119496	0.886281	-0.061090
H211	H	0.144563	0.872148	-0.106673
H212	H	0.144565	0.815623	-0.050136
H213	H	0.257807	0.752384	-0.056642
C214	C	0.436692	0.727028	-0.650328
H215	H	0.441161	0.718093	-0.679902
H216	H	0.395593	0.752696	-0.654798
H217	H	0.452126	0.752698	-0.654795
C218	C	0.467965	0.852162	-0.384405
H219	H	0.472447	0.886197	-0.413958
H220	H	0.483380	0.815546	-0.388892
H221	H	0.426859	0.872080	-0.388888
C222	C	0.436696	0.727021	-0.543202
H223	H	0.418101	0.764228	-0.584308
H224	H	0.407128	0.729630	-0.524607
H225	H	0.463669	0.729615	-0.524593
C226	C	0.280247	0.852196	-0.384429
H227	H	0.241731	0.886229	-0.413987
H228	H	0.301450	0.872098	-0.388913
H229	H	0.301434	0.815568	-0.388905
C230	C	0.786743	0.214454	-0.065521
H231	H	0.825249	0.180419	-0.061057
H232	H	0.765543	0.194555	-0.050090
H233	H	0.765540	0.251083	-0.106624
C234	C	0.599167	-0.147810	-0.065521
H235	H	0.617778	-0.170318	-0.084119
H236	H	0.572207	-0.099646	-0.095087
H237	H	0.628735	-0.156178	-0.038546
C238	C	0.467885	0.214491	0.253347
H239	H	0.472367	0.180457	0.291863
H240	H	0.426782	0.251107	0.232146
H241	H	0.483322	0.194573	0.232159
H242	H	0.695873	0.314311	0.275806
H243	H	0.371207	0.752361	0.056737
C244	C	0.467887	0.321607	0.146200
H245	H	0.449284	0.299100	0.150102
H246	H	0.438325	0.369773	0.124987
H247	H	0.494858	0.313228	0.125005
H248	H	-0.098185	0.419944	0.056785
C249	C	0.533493	0.160956	0.372517
H250	H	0.556580	0.149425	0.407132
H251	H	0.493692	0.177675	0.372523
H252	H	0.550223	0.121143	0.372528
C253	C	0.599178	-0.254959	-0.065513
H254	H	0.594709	-0.289005	-0.061030
H255	H	0.583760	-0.218347	-0.106617
H256	H	0.640281	-0.274864	-0.050070
H257	H	0.891359	0.175449	0.000083
C258	C	0.905975	0.160918	0.372528
H259	H	0.894442	0.149380	0.407152
H260	H	0.929054	0.121114	0.372530
H261	H	0.929052	0.177652	0.372525
C262	C	0.786807	0.214471	0.384575
H263	H	0.825324	0.180431	0.414133
H264	H	0.765613	0.251087	0.389061
H265	H	0.765613	0.194560	0.389049
H266	H	0.476865	0.752330	-0.275646
C267	C	0.630396	0.339637	-0.456640
H268	H	0.649005	0.302432	-0.415533
H269	H	0.603442	0.337024	-0.475246
H270	H	0.659965	0.337046	-0.475236
C271	C	0.599171	0.745018	-0.146032
H272	H	0.617789	0.767507	-0.149924
H273	H	0.572208	0.753386	-0.124832
H274	H	0.628732	0.696849	-0.124830
C275	C	0.599193	0.852126	-0.253140
H276	H	0.617784	0.829634	-0.212031
H277	H	0.628766	0.843757	-0.271730
H278	H	0.572227	0.900295	-0.271746
H279	H	0.278674	0.844925	0.056727
H280	H	0.590184	0.314311	-0.056608
H281	H	0.590207	0.221746	-0.056600
H282	H	0.476860	-0.247638	0.056742
H283	H	0.590195	0.419951	-0.254837
C284	C	0.161121	0.905809	0.000037
H285	H	0.172677	0.917336	0.023124
H286	H	0.138040	0.945615	-0.039764
H287	H	0.138036	0.889090	0.016767
H288	H	0.590194	0.419949	-0.162271
C289	C	0.256191	0.745071	-0.146075
H290	H	0.215084	0.767585	-0.149975
H291	H	0.274785	0.696907	-0.124867
H292	H	0.274801	0.753438	-0.124877
H293	H	0.476855	0.646711	-0.837585
C294	C	0.918006	0.214418	0.065707
H295	H	0.947559	0.180376	0.061233
H296	H	0.922499	0.251030	0.050290
H297	H	0.922482	0.194509	0.106811
H298	H	0.476852	0.646710	-0.745022
C299	C	0.810885	0.321563	0.065711
H300	H	0.772379	0.355608	0.061237
H301	H	0.832086	0.284937	0.106811
H302	H	0.832088	0.341463	0.050278
C303	C	-0.116876	0.727017	-0.096756
H304	H	-0.112974	0.764223	-0.115355
H305	H	-0.138088	0.729623	-0.126322
H306	H	-0.138069	0.729615	-0.069784
H307	H	0.167732	0.357485	0.088002
H308	H	0.445620	-0.012954	0.088004
C309	C	0.436689	0.086889	0.096927
H310	H	0.418082	0.064389	0.115527
H311	H	0.463649	0.078536	0.126492
H312	H	0.407119	0.135055	0.069954
C313	C	0.467930	-0.147802	0.065673
H314	H	0.449320	-0.170300	0.084268
H315	H	0.494888	-0.156157	0.095242
H316	H	0.438362	-0.099635	0.038700
H317	H	0.476819	0.221749	0.056741
H318	H	0.165241	0.646704	-0.056635
H319	H	0.476816	0.314316	0.056740
H320	H	0.278626	0.419974	0.056753
C321	C	0.387385	0.402140	0.065658
H322	H	0.416950	0.411087	0.061178
H323	H	0.391864	0.376471	0.106760
H324	H	0.391854	0.376466	0.050229
H325	H	0.075190	0.357478	0.088018
H326	H	0.590196	0.419991	-0.724224
H327	H	-0.190748	0.419944	0.056782
C328	C	0.256165	0.664559	-0.065594
H329	H	0.294679	0.655607	-0.061124
H330	H	0.234966	0.690205	-0.106691
H331	H	0.234972	0.690259	-0.050184
C332	C	-0.213199	0.664524	-0.065525
H333	H	-0.254307	0.701729	-0.084134
H334	H	-0.194597	0.667135	-0.038567
H335	H	-0.194601	0.667120	-0.095093
H336	H	-0.304105	0.646663	-0.056595
H337	H	0.476845	0.646666	-0.275625
C338	C	0.599128	0.402130	-0.615456
H339	H	0.617722	0.364925	-0.619360
H340	H	0.628696	0.399519	-0.594242
H341	H	0.572154	0.399535	-0.594263
C342	C	0.599108	0.321643	0.277408
H343	H	0.617703	0.299156	0.318515
H344	H	0.628677	0.313279	0.258813
H345	H	0.572136	0.369811	0.258799
H346	H	0.476853	0.646680	-0.368181
H347	H	0.621459	0.357487	-0.365727
