data_functionalizedCrystal
_audit_creation_method	'MofGen! by Chris Wilmer'
_symmetry_space_group_name_H-M	'P1'
_symmetry_Int_Tables_number	1
_symmetry_cell_setting	triclinic
loop_
_symmetry_equiv_pos_as_xyz
  x,y,z
_cell_length_a	19.805407
_cell_length_b	19.076808
_cell_length_c	19.805398
_cell_angle_alpha	87.674457
_cell_angle_beta	89.985905
_cell_angle_gamma	92.320774
loop_
_atom_site_label
_atom_site_type_symbol
_atom_site_fract_x
_atom_site_fract_y
_atom_site_fract_z
Zn1	Zn	1.023887	-0.280294	-0.371852
Zn2	Zn	1.357220	0.053039	-0.038518
Zn3	Zn	1.690554	0.386373	0.294815
Zn4	Zn	1.019264	-0.397995	-0.254113
Zn5	Zn	1.352598	-0.064662	0.079220
Zn6	Zn	1.685931	0.268671	0.412553
Zn7	Zn	0.910709	-0.280304	-0.258679
Zn8	Zn	1.244042	0.053029	0.074654
Zn9	Zn	1.577375	0.386362	0.407987
Zn10	Zn	0.906122	-0.397956	-0.367265
Zn11	Zn	1.239455	-0.064623	-0.033932
Zn12	Zn	1.572788	0.268711	0.299402
O13	O	0.964995	-0.339137	-0.312977
O14	O	1.298329	-0.005804	0.020356
O15	O	1.631662	0.327529	0.353689
O16	O	1.117990	-0.295919	-0.356242
O17	O	1.451323	0.037414	-0.022909
O18	O	1.784657	0.370747	0.310425
O19	O	1.004849	-0.382404	-0.160002
O20	O	1.338182	-0.049071	0.173332
O21	O	1.671516	0.284262	0.506665
O22	O	0.929576	-0.181807	-0.277522
O23	O	1.262910	0.151526	0.055811
O24	O	1.596243	0.484860	0.389144
O25	O	1.114594	-0.382394	-0.269740
O26	O	1.447927	-0.049061	0.063593
O27	O	1.781260	0.284272	0.396927
O28	O	1.012728	-0.181799	-0.360670
O29	O	1.346062	0.151534	-0.027336
O30	O	1.679395	0.484867	0.305997
O31	O	0.925094	-0.295937	-0.163356
O32	O	1.258427	0.037396	0.169977
O33	O	1.591760	0.370729	0.503310
O34	O	0.815384	-0.295899	-0.273075
O35	O	1.148717	0.037434	0.060258
O36	O	1.482051	0.370768	0.393592
O37	O	0.921759	-0.382327	-0.462591
O38	O	1.255092	-0.048994	-0.129258
O39	O	1.588425	0.284340	0.204076
O40	O	0.812014	-0.382337	-0.352852
O41	O	1.145347	-0.049004	-0.019519
O42	O	1.478681	0.284330	0.313814
O43	O	1.008280	-0.295881	-0.465961
O44	O	1.341614	0.037452	-0.132627
O45	O	1.674947	0.370786	0.200706
O46	O	1.000401	-0.496486	-0.265293
O47	O	1.333735	-0.163153	0.068041
O48	O	1.667068	0.170180	0.401374
O49	O	0.917276	-0.496457	-0.348425
O50	O	1.250609	-0.163124	-0.015091
O51	O	1.583943	0.170209	0.318242
C52	C	0.789140	-0.339115	-0.312962
C53	C	1.122474	-0.005782	0.020372
C54	C	1.455807	0.327551	0.353705
C55	C	0.713908	-0.339123	-0.312971
C56	C	1.047241	-0.005790	0.020363
C57	C	1.380575	0.327544	0.353696
C58	C	0.680330	-0.294175	-0.358075
C59	C	1.013663	0.039158	-0.024742
C60	C	1.346997	0.372492	0.308592
C61	C	0.609641	-0.294179	-0.358077
C62	C	0.942975	0.039155	-0.024744
C63	C	1.276308	0.372488	0.308589
C64	C	0.572532	-0.339134	-0.312978
C65	C	0.905865	-0.005801	0.020355
C66	C	1.239199	0.327532	0.353688
C67	C	0.606115	-0.384084	-0.267869
C68	C	0.939448	-0.050751	0.065464
C69	C	1.272782	0.282583	0.398798
C70	C	0.676802	-0.384076	-0.267864
C71	C	1.010136	-0.050743	0.065470
C72	C	1.343469	0.282590	0.398803
C73	C	0.321040	-0.384116	-0.267889
C74	C	0.654374	-0.050782	0.065445
C75	C	0.987707	0.282551	0.398778
C76	C	0.250348	-0.384122	-0.267899
C77	C	0.583681	-0.050788	0.065435
C78	C	0.917015	0.282545	0.398768
C79	C	0.253879	-0.294218	-0.358102
C80	C	0.587213	0.039115	-0.024769
C81	C	0.920546	0.372448	0.308565
C82	C	0.324567	-0.294210	-0.358097
C83	C	0.657900	0.039123	-0.024764
C84	C	0.991233	0.372456	0.308570
C85	C	0.358144	-0.339157	-0.312986
C86	C	0.691477	-0.005824	0.020348
C87	C	1.024810	0.327509	0.353681
C88	C	0.434792	-0.339152	-0.312983
C89	C	0.768126	-0.005818	0.020351
C90	C	1.101459	0.327515	0.353684
C91	C	0.495884	-0.339144	-0.312984
C92	C	0.829218	-0.005811	0.020349
C93	C	1.162551	0.327523	0.353683
C94	C	0.957857	-0.522011	-0.305880
C95	C	1.291191	-0.188677	0.027453
C96	C	1.624524	0.144656	0.360786
C97	C	0.954866	-0.600245	-0.302867
C98	C	1.288199	-0.266911	0.030467
C99	C	1.621532	0.066422	0.363800
C100	C	0.996720	-0.636935	-0.344776
C101	C	1.330054	-0.303601	-0.011443
C102	C	1.663387	0.029732	0.321890
C103	C	0.993907	-0.710444	-0.341946
C104	C	1.327240	-0.377110	-0.008612
C105	C	1.660573	-0.043777	0.324721
C106	C	0.949241	-0.747262	-0.297202
C107	C	1.282575	-0.413928	0.036131
C108	C	1.615908	-0.080595	0.369465
C109	C	0.907382	-0.710566	-0.255291
C110	C	1.240715	-0.377233	0.078043
C111	C	1.574049	-0.043900	0.411376
C112	C	0.910193	-0.637059	-0.258125
C113	C	1.243526	-0.303725	0.075208
C114	C	1.576859	0.029608	0.408542
C115	C	0.936193	-0.967113	-0.284083
C116	C	1.269526	-0.633780	0.049251
C117	C	1.602859	-0.300447	0.382584
C118	C	0.933386	-1.040626	-0.281250
C119	C	1.266720	-0.707293	0.052083
C120	C	1.600053	-0.373959	0.385417
C121	C	1.019911	-1.040498	-0.367906
C122	C	1.353244	-0.707165	-0.034573
C123	C	1.686577	-0.373832	0.298760
C124	C	1.022720	-0.966989	-0.370734
C125	C	1.356054	-0.633656	-0.037400
C126	C	1.689387	-0.300322	0.295933
C127	C	0.980859	-0.930300	-0.328825
C128	C	1.314192	-0.596967	0.004508
C129	C	1.647525	-0.263634	0.337842
N130	N	0.946365	-0.822400	-0.294306
N131	N	1.279699	-0.489066	0.039027
N132	N	1.613032	-0.155733	0.372360
N133	N	0.983731	-0.855164	-0.331725
N134	N	1.317065	-0.521830	0.001609
N135	N	1.650398	-0.188497	0.334942
C136	C	1.141537	-0.339160	-0.312993
C137	C	1.474871	-0.005827	0.020340
C138	C	1.808204	0.327507	0.353673
C139	C	1.216769	-0.339170	-0.313000
C140	C	1.550102	-0.005836	0.020333
C141	C	1.883436	0.327497	0.353666
C142	C	0.965023	-0.339098	-0.489522
C143	C	1.298357	-0.005765	-0.156188
C144	C	1.631690	0.327568	0.177145
C145	C	0.965035	-0.339082	-0.564754
C146	C	1.298369	-0.005748	-0.231421
C147	C	1.631702	0.327585	0.101912
C148	C	0.972180	-0.155550	-0.320117
C149	C	1.305513	0.177783	0.013216
C150	C	1.638846	0.511117	0.346550
C151	C	0.975241	-0.077316	-0.323160
C152	C	1.308574	0.256017	0.010174
C153	C	1.641908	0.589351	0.343507
C154	C	1.010174	-0.293945	-1.028306
C155	C	1.343507	0.039388	-0.694973
C156	C	1.676840	0.372722	-0.361640
C157	C	1.010162	-0.293966	-0.957617
C158	C	1.343496	0.039367	-0.624284
C159	C	1.676829	0.372700	-0.290950
C160	C	0.965109	-0.338984	-0.920520
C161	C	1.298442	-0.005651	-0.587187
C162	C	1.631775	0.327683	-0.253853
C163	C	0.920068	-0.383988	-0.954116
C164	C	1.253401	-0.050654	-0.620783
C165	C	1.586735	0.282679	-0.287449
C166	C	0.920083	-0.383969	-1.024804
C167	C	1.253417	-0.050636	-0.691471
C168	C	1.586750	0.282697	-0.358137
C169	C	0.920006	-0.384064	-0.669040
C170	C	1.253340	-0.050731	-0.335706
C171	C	1.586673	0.282603	-0.002373
C172	C	0.919993	-0.384078	-0.598347
C173	C	1.253327	-0.050744	-0.265014
C174	C	1.586660	0.282589	0.068320
C175	C	1.010085	-0.294061	-0.601853
C176	C	1.343419	0.039272	-0.268519
C177	C	1.676752	0.372605	0.064814
C178	C	1.010100	-0.294043	-0.672540
C179	C	1.343434	0.039291	-0.339207
C180	C	1.676767	0.372624	-0.005874
C181	C	0.965063	-0.339049	-0.706130
C182	C	1.298396	-0.005716	-0.372797
C183	C	1.631729	0.327618	-0.039463
C184	C	0.965077	-0.339026	-0.782779
C185	C	1.298410	-0.005693	-0.449446
C186	C	1.631743	0.327641	-0.116113
C187	C	0.965091	-0.339004	-0.843872
C188	C	1.298424	-0.005670	-0.510539
C189	C	1.631758	0.327663	-0.177205
C190	C	0.965008	-0.339125	-0.137122
C191	C	1.298342	-0.005792	0.196211
C192	C	1.631675	0.327541	0.529545
C193	C	0.965135	-0.338944	-0.061897
C194	C	1.298469	-0.005610	0.271436
C195	C	1.631802	0.327723	0.604769
H196	H	0.704141	-0.420677	-0.231135
H197	H	1.037474	-0.087344	0.102199
H198	H	1.370807	0.245990	0.435532
H199	H	1.046785	-0.257382	-0.702741
H200	H	1.380119	0.075951	-0.369408
H201	H	1.713452	0.409284	-0.036075
H202	H	0.226533	-0.257618	-0.394832
H203	H	0.559866	0.075716	-0.061498
H204	H	0.893199	0.409049	0.271835
H205	H	0.582305	-0.257579	-0.394807
H206	H	0.915639	0.075754	-0.061474
H207	H	1.248972	0.409088	0.271860
Br208	Br	1.071206	-0.232976	-0.556263
Br209	Br	1.404539	0.100357	-0.222930
Br210	Br	1.737873	0.433690	0.110403
Br211	Br	0.879371	-0.917331	-0.227215
Br212	Br	1.212705	-0.583997	0.106119
Br213	Br	1.546038	-0.250664	0.439452
Br214	Br	0.846755	-0.760533	-0.194575
Br215	Br	1.180088	-0.427199	0.138758
Br216	Br	1.513421	-0.093866	0.472092
Br217	Br	1.071291	-0.232896	-0.912031
Br218	Br	1.404624	0.100437	-0.578698
Br219	Br	1.737957	0.433771	-0.245365
Br220	Br	0.858926	-0.445087	-0.903771
Br221	Br	1.192259	-0.111753	-0.570438
Br222	Br	1.525592	0.221580	-0.237104
H223	H	0.883409	-0.420613	-1.052153
H224	H	1.216742	-0.087279	-0.718819
H225	H	1.550076	0.246054	-0.385486
H226	H	0.710539	-0.257569	-0.394802
H227	H	1.043873	0.075764	-0.061468
H228	H	1.377206	0.409098	0.271865
H229	H	0.883301	-0.420736	-0.568144
H230	H	1.216634	-0.087403	-0.234811
H231	H	1.549967	0.245931	0.098522
H232	H	1.033095	-0.606962	-0.381208
H233	H	1.366428	-0.273629	-0.047875
H234	H	1.699762	0.059704	0.285458
H235	H	1.046858	-0.257282	-1.058506
H236	H	1.380191	0.076052	-0.725172
H237	H	1.713524	0.409385	-0.391839
Br238	Br	0.374926	-0.233202	-0.419309
Br239	Br	0.708259	0.100131	-0.085976
Br240	Br	1.041593	0.433464	0.247357
Br241	Br	0.199985	-0.445137	-0.206688
Br242	Br	0.533318	-0.111803	0.126645
Br243	Br	0.866652	0.221530	0.459978
Br244	Br	1.076718	-1.090293	-0.424781
Br245	Br	1.410052	-0.756960	-0.091448
Br246	Br	1.743385	-0.423627	0.241886
H247	H	0.348370	-0.420715	-0.231157
H248	H	0.681703	-0.087382	0.102177
H249	H	1.015037	0.245952	0.435510
H250	H	0.575895	-0.420684	-0.231145
H251	H	0.909228	-0.087351	0.102188
H252	H	1.242562	0.245982	0.435521
Br253	Br	1.050701	-0.760235	-0.398838
Br254	Br	1.384034	-0.426901	-0.065504
Br255	Br	1.717367	-0.093568	0.267829
Br256	Br	0.858888	-0.445149	-0.714616
Br257	Br	1.192222	-0.111816	-0.381283
Br258	Br	1.525555	0.221518	-0.047950
Br259	Br	1.083341	-0.917027	-0.431459
Br260	Br	1.416674	-0.583694	-0.098126
Br261	Br	1.750008	-0.250360	0.235208
Br262	Br	0.872769	-1.090593	-0.220518
Br263	Br	1.206103	-0.757260	0.112816
Br264	Br	1.539436	-0.423927	0.446149
Br265	Br	0.853385	-0.587264	-0.201248
Br266	Br	1.186718	-0.253931	0.132085
Br267	Br	1.520051	0.079403	0.465418
