data_functionalizedCrystal
_audit_creation_method	'MofGen! by Chris Wilmer'
_symmetry_space_group_name_H-M	'P1'
_symmetry_Int_Tables_number	1
_symmetry_cell_setting	triclinic
loop_
_symmetry_equiv_pos_as_xyz
  x,y,z
_cell_length_a	15.944551
_cell_length_b	10.654550
_cell_length_c	9.730223
_cell_angle_alpha	90.003749
_cell_angle_beta	89.997716
_cell_angle_gamma	96.008180
loop_
_atom_site_label
_atom_site_type_symbol
_atom_site_fract_x
_atom_site_fract_y
_atom_site_fract_z
O1	O	0.117973	-1.666308	-0.114406
O2	O	0.129213	-1.300684	-0.114384
O3	O	0.001376	-1.493480	-0.114384
O4	O	0.245810	-1.473511	-0.114407
O5	O	0.001379	-1.493478	0.114196
O6	O	0.129216	-1.300681	0.114196
O7	O	0.117976	-1.666305	0.114174
Zn8	Zn	0.123597	-1.483493	0.150477
Zn9	Zn	0.123592	-1.483496	-0.150687
O10	O	0.245813	-1.473509	0.114173
C11	C	0.128389	-1.253895	-0.000092
C12	C	0.125920	-1.114484	-0.000083
C13	C	-0.029921	-1.492650	-0.000093
C14	C	-0.123182	-1.490165	-0.000092
C15	C	0.118800	-1.713094	-0.000122
C16	C	0.121269	-1.852505	-0.000140
C17	C	-0.338765	-1.364720	-0.000104
C18	C	-0.399443	-1.422971	0.112596
C19	C	-0.293934	-1.485668	-0.000103
C20	C	-0.399430	-1.423002	-0.112765
C21	C	-0.458872	-1.481317	-0.000119
C22	C	-0.353384	-1.543953	0.112691
C23	C	-0.353364	-1.543967	-0.112772
C24	C	-0.414024	-1.602306	-0.000045
C25	C	-0.198917	-1.488172	-0.000092
C26	C	-0.553887	-1.478822	-0.000119
C27	C	0.277110	-1.474339	-0.000120
C28	C	0.370371	-1.476824	-0.000130
N29	N	0.123599	-1.483500	0.356013
C30	C	0.201188	-1.034024	-0.000110
C31	C	0.198863	-0.903034	-0.000134
C32	C	0.045995	-0.932975	-0.000108
C33	C	0.048321	-1.063963	-0.000075
C34	C	0.278788	-1.084545	-0.000118
C35	C	0.354062	-1.004084	-0.000147
C36	C	0.351737	-0.873094	-0.000170
C37	C	0.274137	-0.822564	-0.000165
N38	N	0.123583	-1.483499	-0.356224
C39	C	0.067012	-1.568892	0.427939
C40	C	0.067002	-1.568889	0.571822
C41	C	0.180173	-1.398098	0.571840
C42	C	0.180178	-1.398096	0.427959
C43	C	0.010433	-1.654296	0.355993
C44	C	-0.046158	-1.739696	0.427920
C45	C	-0.046168	-1.739693	0.571803
C46	C	0.010412	-1.654290	0.643759
H47	H	-0.306038	-1.264327	0.000015
C48	C	-0.238309	-1.614592	0.240334
C49	C	-0.326004	-1.612947	0.241463
H50	H	-0.221406	-1.657176	0.319838
H51	H	-0.222174	-1.657269	0.160409
H52	H	-0.211874	-1.530443	0.240013
H53	H	-0.352439	-1.697097	0.241774
H54	H	-0.342147	-1.570273	0.321409
C55	C	0.425506	-1.191586	-0.000139
C56	C	0.439357	-1.059622	-0.000156
H57	H	0.478165	-1.225868	-0.000154
H58	H	0.394493	-1.219181	0.079578
H59	H	0.394476	-1.219207	-0.079845
H60	H	0.470381	-1.032001	0.079556
H61	H	0.470382	-1.032017	-0.079881
H62	H	-0.017184	-0.891822	-0.000127
C63	C	0.416051	-0.659004	-0.000217
C64	C	0.434475	-0.784648	-0.000198
H65	H	0.467133	-0.604406	-0.000232
H66	H	0.384266	-0.643714	-0.079920
H67	H	0.384271	-0.643680	0.079502
H68	H	0.466250	-0.799975	-0.079923
H69	H	0.466274	-0.799944	0.079513
C70	C	-0.103017	-1.080412	-0.000085
C71	C	-0.034415	-1.152414	-0.000063
H72	H	-0.154094	-1.135021	-0.000084
H73	H	-0.100749	-1.028684	0.079610
H74	H	-0.100739	-1.028714	-0.079812
H75	H	-0.036689	-1.204106	0.079670
H76	H	-0.036684	-1.204164	-0.079766
H77	H	0.010437	-1.654309	0.238836
C78	C	-0.096442	-1.815468	0.207352
C79	C	-0.108385	-1.833514	0.348831
H80	H	-0.134868	-1.873379	0.158531
H81	H	-0.106053	-1.731649	0.183813
H82	H	-0.040307	-1.829159	0.183762
H83	H	-0.164519	-1.819814	0.372423
H84	H	-0.098781	-1.917352	0.372380
H85	H	0.272250	-0.715901	-0.000163
C86	C	0.292053	-1.229290	0.442418
C87	C	0.242384	-1.304240	0.348887
H88	H	0.330458	-1.171351	0.393598
H89	H	0.256807	-1.184119	0.498534
H90	H	0.322589	-1.281574	0.498537
H91	H	0.211843	-1.251957	0.292774
H92	H	0.277635	-1.349414	0.292747
C93	C	-0.158027	-1.908516	0.557326
C94	C	-0.108372	-1.833559	0.650867
H95	H	-0.196424	-1.966474	0.606138
H96	H	-0.188566	-1.856249	0.501212
H97	H	-0.122765	-1.953678	0.501205
H98	H	-0.143633	-1.788390	0.706981
H99	H	-0.077831	-1.885833	0.707005
H100	H	0.226239	-1.328567	0.630436
C101	C	-0.388648	-1.229527	0.241030
C102	C	-0.426995	-1.353916	0.241225
H103	H	-0.405660	-1.186891	0.320433
H104	H	-0.329108	-1.229940	0.241537
H105	H	-0.405182	-1.187386	0.160996
H106	H	-0.410455	-1.396060	0.321255
H107	H	-0.486548	-1.353510	0.240731
C108	C	-0.348771	-1.549448	-0.359313
C109	C	-0.325779	-1.612966	-0.241406
H110	H	-0.331733	-1.592036	-0.438732
H111	H	-0.408202	-1.547712	-0.360695
H112	H	-0.321956	-1.465523	-0.358484
H113	H	-0.352599	-1.696889	-0.242231
H114	H	-0.266336	-1.614716	-0.240025
C115	C	0.072011	-1.561292	0.849881
C116	C	0.010399	-1.654278	0.801919
H117	H	0.071999	-1.561285	0.947520
H118	H	0.125799	-1.578485	0.817344
H119	H	0.060011	-1.481038	0.817323
H120	H	0.022402	-1.734534	0.834469
H121	H	-0.043401	-1.637093	0.834470
C122	C	-0.514724	-1.353320	-0.240658
C123	C	-0.426949	-1.353921	-0.241386
H124	H	-0.531707	-1.310659	-0.320055
H125	H	-0.540733	-1.437698	-0.240816
H126	H	-0.531256	-1.311174	-0.160618
H127	H	-0.410417	-1.396076	-0.321422
H128	H	-0.400930	-1.269528	-0.241241
H129	H	0.280689	-1.191203	-0.000105
H130	H	-0.446602	-1.702787	0.000013
