data_functionalizedCrystal
_audit_creation_method	'MofGen! by Chris Wilmer'
_symmetry_space_group_name_H-M	'P1'
_symmetry_Int_Tables_number	1
_symmetry_cell_setting	triclinic
loop_
_symmetry_equiv_pos_as_xyz
  x,y,z
_cell_length_a	17.699097
_cell_length_b	10.723024
_cell_length_c	16.776229
_cell_angle_alpha	89.994545
_cell_angle_beta	89.989262
_cell_angle_gamma	83.878150
loop_
_atom_site_label
_atom_site_type_symbol
_atom_site_fract_x
_atom_site_fract_y
_atom_site_fract_z
O1	O	1.005068	0.157876	-0.066352
O2	O	1.505068	0.657876	0.433648
O3	O	0.784820	0.178388	-0.066339
O4	O	1.284820	0.678388	0.433661
O5	O	0.900025	-0.013531	-0.066343
O6	O	1.400025	0.486469	0.433657
O7	O	0.889864	0.349795	-0.066349
O8	O	1.389864	0.849795	0.433651
O9	O	0.900009	-0.013542	0.066233
O10	O	1.400009	0.486458	0.566233
O11	O	0.784805	0.178377	0.066237
O12	O	1.284805	0.678377	0.566237
O13	O	1.005052	0.157864	0.066224
O14	O	1.505052	0.657864	0.566224
Zn15	Zn	0.894926	0.168119	0.087280
Zn16	Zn	1.394926	0.668119	0.587280
Zn17	Zn	0.894947	0.168134	-0.087395
Zn18	Zn	1.394947	0.668134	0.412605
O19	O	0.889848	0.349783	0.066228
O20	O	1.389848	0.849783	0.566228
C21	C	0.756611	0.177645	-0.000049
C22	C	1.256611	0.677645	0.499951
C23	C	0.672580	0.175431	-0.000044
C24	C	1.172580	0.675431	0.499956
C25	C	0.899277	-0.060024	-0.000056
C26	C	1.399277	0.439976	0.499944
C27	C	0.897065	-0.198540	-0.000059
C28	C	1.397065	0.301460	0.499941
C29	C	0.156784	0.161870	-0.072344
C30	C	0.656784	0.661870	0.427656
C31	C	0.235741	0.163941	-0.072340
C32	C	0.735741	0.663941	0.427660
C33	C	0.275205	0.164973	-0.000069
C34	C	0.775205	0.664973	0.499931
C35	C	0.235709	0.163920	0.072202
C36	C	0.735709	0.663920	0.572202
C37	C	0.156754	0.161840	0.072198
C38	C	0.656754	0.661840	0.572198
C39	C	0.554126	0.172307	0.072223
C40	C	1.054126	0.672307	0.572223
C41	C	0.633087	0.174391	0.072222
C42	C	1.133087	0.674391	0.572222
C43	C	0.633113	0.174409	-0.072314
C44	C	1.133113	0.674409	0.427686
C45	C	0.554158	0.172329	-0.072319
C46	C	1.054158	0.672329	0.427681
C47	C	0.514670	0.171270	-0.000048
C48	C	1.014670	0.671270	0.499952
C49	C	0.429055	0.169021	-0.000053
C50	C	0.929055	0.669021	0.499947
C51	C	0.360817	0.167230	-0.000063
C52	C	0.860817	0.667230	0.499937
C53	C	0.828346	-0.389124	-0.000059
C54	C	1.328346	0.110876	0.499941
C55	C	0.830631	-0.245960	-0.000056
C56	C	1.330631	0.254040	0.499944
C57	C	1.033262	0.158608	-0.000068
C58	C	1.533262	0.658608	0.499932
C59	C	1.117293	0.160821	-0.000078
C60	C	1.617293	0.660821	0.499922
C61	C	0.890595	0.396276	-0.000061
C62	C	1.390595	0.896276	0.499939
C63	C	0.892808	0.534793	-0.000064
C64	C	1.392808	1.034793	0.499936
N65	N	0.894918	0.168107	0.206491
N66	N	1.394918	0.668107	0.706491
N67	N	0.894961	0.168136	-0.206606
N68	N	1.394961	0.668136	0.293394
C69	C	0.945946	0.083160	0.248207
C70	C	1.445946	0.583160	0.748207
C71	C	0.945950	0.083159	0.331659
C72	C	1.445950	0.583159	0.831659
C73	C	0.894929	0.168112	0.373394
C74	C	1.394929	0.668112	0.873394
C75	C	0.843896	0.253063	0.331673
C76	C	1.343896	0.753063	0.831673
C77	C	0.843888	0.253057	0.248222
C78	C	1.343888	0.753057	0.748222
C79	C	0.843923	0.253088	0.668220
C80	C	1.343923	0.753088	1.168220
C81	C	0.843936	0.253089	0.751677
C82	C	1.343936	0.753089	1.251677
C83	C	0.945985	0.083190	0.751657
C84	C	1.445985	0.583190	1.251657
C85	C	0.945978	0.083184	0.668206
C86	C	1.445978	0.583184	1.168206
C87	C	0.894942	0.168130	0.626492
C88	C	1.394942	0.668130	1.126492
C89	C	0.894937	0.168128	0.536004
C90	C	1.394937	0.668128	1.036004
C91	C	0.894937	0.168120	0.463881
C92	C	1.394937	0.668120	0.963881
H93	H	0.124658	0.161039	-0.131195
H94	H	0.624658	0.661039	0.368805
H95	H	0.771466	-0.429976	-0.000061
H96	H	1.271466	0.070024	0.499939
H97	H	0.267892	0.164788	-0.131186
H98	H	0.767892	0.664788	0.368814
H99	H	0.775446	-0.180586	-0.000046
H100	H	1.275446	0.319414	0.499954
C101	C	1.002119	-0.010265	0.797540
C102	C	1.502119	0.489735	1.297540
H103	H	1.032508	-0.060850	0.760731
H104	H	1.532508	0.439150	1.260731
H105	H	0.974632	-0.062157	0.830106
H106	H	1.474632	0.437843	1.330106
H107	H	1.033860	0.034568	0.830081
H108	H	1.533860	0.534568	1.330081
C109	C	0.969653	-0.410040	-0.000067
C110	C	1.469653	0.089960	0.499933
H111	H	1.009799	-0.476338	-0.000076
H112	H	1.509799	0.023662	0.499924
H113	H	0.973281	-0.359886	0.046165
H114	H	1.473281	0.140114	0.546165
H115	H	0.973291	-0.359877	-0.046306
H116	H	1.473291	0.140123	0.453694
C117	C	1.002069	-0.010291	0.202305
C118	C	1.502069	0.489709	0.702305
H119	H	1.032455	-0.060890	0.239104
H120	H	1.532455	0.439110	0.739104
H121	H	1.033803	0.034526	0.169736
H122	H	1.533803	0.534526	0.669736
H123	H	0.974568	-0.062187	0.169766
H124	H	1.474568	0.437813	0.669766
H125	H	0.665275	0.175266	-0.131161
H126	H	1.165275	0.675266	0.368839
H127	H	0.952253	-0.263907	-0.000059
H128	H	1.452253	0.236093	0.499941
C129	C	1.002089	-0.010271	0.377542
C130	C	1.502089	0.489729	0.877542
H131	H	1.032481	-0.060853	0.340734
H132	H	1.532481	0.439147	0.840734
H133	H	0.974607	-0.062167	0.410112
H134	H	1.474607	0.437833	0.910112
H135	H	1.033825	0.034575	0.410080
H136	H	1.533825	0.534575	0.910080
H137	H	0.987526	0.014011	0.634228
H138	H	1.487526	0.514011	1.134228
H139	H	0.665216	0.175231	0.131077
H140	H	1.165216	0.675231	0.631077
H141	H	0.802385	0.322271	0.785656
H142	H	1.302385	0.822271	1.285656
H143	H	0.522030	0.171496	-0.131169
H144	H	1.022030	0.671496	0.368831
H145	H	0.802349	0.322229	0.365659
H146	H	1.302349	0.822229	0.865659
H147	H	0.802369	0.322256	0.634263
H148	H	1.302369	0.822256	1.134263
H149	H	0.521985	0.171426	0.131071
H150	H	1.021985	0.671426	0.631071
C151	C	0.787760	0.346499	0.202332
C152	C	1.287760	0.846499	0.702332
H153	H	0.795058	0.334321	0.146655
H154	H	1.295058	0.834321	0.646655
H155	H	0.796408	0.429765	0.215996
H156	H	1.296408	0.929765	0.715996
H157	H	0.737181	0.333037	0.216025
H158	H	1.237181	0.833037	0.716025
C159	C	0.279117	0.165057	0.151699
C160	C	0.779117	0.665057	0.651699
H161	H	0.331795	0.166460	0.141353
H162	H	0.831795	0.666460	0.641353
H163	H	0.271567	0.091979	0.181395
H164	H	0.771567	0.591979	0.681395
H165	H	0.260774	0.237461	0.181388
H166	H	0.760774	0.737461	0.681388
C167	C	0.113314	0.160692	0.151690
C168	C	0.613314	0.660692	0.651690
H169	H	0.148123	0.161616	0.194733
H170	H	0.648123	0.661616	0.694733
H171	H	0.087906	0.087145	0.154694
H172	H	0.587906	0.587145	0.654694
H173	H	0.077119	0.232627	0.154691
H174	H	0.577119	0.732627	0.654691
