data_functionalizedCrystal
_audit_creation_method	'MofGen! by Chris Wilmer'
_symmetry_space_group_name_H-M	'P1'
_symmetry_Int_Tables_number	1
_symmetry_cell_setting	triclinic
loop_
_symmetry_equiv_pos_as_xyz
  x,y,z
_cell_length_a	16.992701
_cell_length_b	10.967829
_cell_length_c	16.053802
_cell_angle_alpha	80.477515
_cell_angle_beta	87.243340
_cell_angle_gamma	87.621741
loop_
_atom_site_label
_atom_site_type_symbol
_atom_site_fract_x
_atom_site_fract_y
_atom_site_fract_z
O1	O	1.046848	0.257169	-0.106432
O2	O	1.546848	0.757169	0.393568
O3	O	0.818527	0.254297	-0.106020
O4	O	1.318527	0.754297	0.393980
O5	O	0.936733	0.076438	-0.080427
O6	O	1.436733	0.576438	0.419573
O7	O	0.928643	0.435028	-0.132025
O8	O	1.428643	0.935028	0.367975
O9	O	0.930226	0.086185	0.057030
O10	O	1.430226	0.586185	0.557030
O11	O	0.812021	0.264044	0.031437
O12	O	1.312021	0.764044	0.531437
O13	O	1.040341	0.266915	0.031024
O14	O	1.540341	0.766915	0.531024
Zn15	Zn	0.925148	0.267027	0.053055
Zn16	Zn	1.425148	0.767027	0.553055
Zn17	Zn	0.933721	0.254185	-0.128050
Zn18	Zn	1.433721	0.754185	0.371950
O19	O	0.922136	0.444774	0.005431
O20	O	1.422136	0.944774	0.505431
C21	C	0.786016	0.255472	-0.036759
C22	C	1.286016	0.755472	0.463241
C23	C	0.698837	0.244438	-0.035172
C24	C	1.198837	0.744438	0.464828
C25	C	0.208970	0.170300	-0.024507
C26	C	0.708970	0.670300	0.475493
C27	C	0.290883	0.180677	-0.025995
C28	C	0.790883	0.680677	0.474005
C29	C	0.323857	0.297529	-0.042813
C30	C	0.823857	0.797529	0.457187
C31	C	0.274913	0.404011	-0.058136
C32	C	0.774913	0.904011	0.441864
C33	C	0.193001	0.393633	-0.056641
C34	C	0.693001	0.893633	0.443359
C35	C	0.567981	0.340542	-0.049000
C36	C	1.067981	0.840542	0.451000
C37	C	0.649899	0.350912	-0.050496
C38	C	1.149899	0.850912	0.449504
C39	C	0.665864	0.127577	-0.018354
C40	C	1.165864	0.627577	0.481646
C41	C	0.583950	0.117208	-0.016866
C42	C	1.083950	0.617208	0.483134
C43	C	0.535012	0.223691	-0.032184
C44	C	1.035012	0.723691	0.467816
N45	N	0.407586	0.308139	-0.044337
N46	N	0.907586	0.808139	0.455663
N47	N	0.451285	0.213080	-0.030654
N48	N	0.951285	0.713080	0.469346
C49	C	0.932399	0.035215	-0.005067
C50	C	1.432399	0.535215	0.494933
C51	C	0.929171	-0.102136	0.014691
C52	C	1.429171	0.397864	0.514691
C53	C	0.931102	-0.168415	-0.047707
C54	C	1.431102	0.331585	0.452293
C55	C	0.927766	-0.310376	-0.027287
C56	C	1.427766	0.189624	0.472713
C57	C	1.072852	0.265740	-0.038238
C58	C	1.572852	0.765740	0.461762
C59	C	1.160032	0.276774	-0.039831
C60	C	1.660032	0.776774	0.460169
C61	C	0.926470	0.485997	-0.069930
C62	C	1.426470	0.985997	0.430070
C63	C	0.929698	0.623348	-0.089694
C64	C	1.429698	1.123348	0.410306
N65	N	0.919303	0.275791	0.176654
N66	N	1.419303	0.775791	0.676654
N67	N	0.939572	0.245412	-0.251648
N68	N	1.439572	0.745412	0.248352
C69	C	0.969618	0.200142	0.231233
C70	C	1.469618	0.700142	0.731233
C71	C	0.965537	0.206285	0.317756
C72	C	1.465537	0.706285	0.817756
C73	C	0.911143	0.288084	0.349697
C74	C	1.411143	0.788084	0.849697
C75	C	0.860822	0.363736	0.295111
C76	C	1.360822	0.863736	0.795111
C77	C	0.864900	0.357586	0.208591
C78	C	1.364900	0.857586	0.708591
C79	C	0.893329	0.314914	0.607246
C80	C	1.393329	0.814914	1.107246
C81	C	0.889256	0.321061	0.693773
C82	C	1.389256	0.821061	1.193773
C83	C	0.993971	0.163608	0.716412
C84	C	1.493971	0.663608	1.216412
C85	C	0.998047	0.157470	0.629888
C86	C	1.498047	0.657470	1.129888
C87	C	0.947723	0.233117	0.575311
C88	C	1.447723	0.733117	1.075311
N89	N	0.906972	0.294368	0.438136
N90	N	1.406972	0.794368	0.938136
N91	N	0.951891	0.226826	0.486874
N92	N	1.451891	0.726826	0.986874
H93	H	0.676743	0.446073	-0.064180
H94	H	1.176743	0.946073	0.435820
F95	F	1.055939	0.070412	0.595896
F96	F	1.555939	0.570412	1.095896
F97	F	0.922370	-0.373565	0.062305
F98	F	1.422370	0.126435	0.562305
H99	H	1.013915	0.133539	0.205233
H100	H	1.513915	0.633539	0.705233
H101	H	0.852355	0.376511	0.562815
H102	H	1.352355	0.876511	1.062815
F103	F	0.802928	0.450788	0.329106
F104	F	1.302928	0.950788	0.829106
H105	H	0.933813	-0.328304	-0.158238
H106	H	1.433813	0.171696	0.341762
F107	F	0.310008	0.528375	-0.076032
F108	F	0.810008	1.028375	0.423968
H109	H	0.557108	0.022055	-0.003171
H110	H	1.057108	0.522055	0.496829
F111	F	0.831360	0.408130	0.727759
F112	F	1.331360	0.908130	1.227759
H113	H	1.006507	0.144685	0.362195
H114	H	1.506507	0.644685	0.862195
H115	H	1.034941	0.102018	0.760857
H116	H	1.534941	0.602018	1.260857
H117	H	0.182129	0.075146	-0.010817
H118	H	0.682129	0.575146	0.489183
H119	H	0.823927	0.419185	0.164152
H120	H	1.323927	0.919185	0.664152
H121	H	0.330725	0.093974	-0.013514
H122	H	0.830725	0.593974	0.486486
F123	F	0.515909	0.453871	-0.065312
F124	F	1.015909	0.953871	0.434688
F125	F	0.717951	0.014259	-0.002048
F126	F	1.217951	0.514259	0.497952
F127	F	0.140917	0.506958	-0.072947
F128	F	0.640917	1.006958	0.427053
F129	F	0.936506	-0.105222	-0.137294
F130	F	1.436506	0.394778	0.362706
F131	F	0.923775	-0.165331	0.104279
F132	F	1.423775	0.334669	0.604279
