data_functionalizedCrystal
_audit_creation_method	'MofGen! by Chris Wilmer'
_symmetry_space_group_name_H-M	'P1'
_symmetry_Int_Tables_number	1
_symmetry_cell_setting	triclinic
loop_
_symmetry_equiv_pos_as_xyz
  x,y,z
_cell_length_a	12.759400
_cell_length_b	14.908941
_cell_length_c	14.908858
_cell_angle_alpha	83.249251
_cell_angle_beta	86.673995
_cell_angle_gamma	86.685849
loop_
_atom_site_label
_atom_site_type_symbol
_atom_site_fract_x
_atom_site_fract_y
_atom_site_fract_z
Zn1	Zn	-0.298170	-1.354280	-0.432099
Zn2	Zn	0.201830	-0.854280	0.067901
Zn3	Zn	-0.483468	-1.362927	-0.280748
Zn4	Zn	0.016532	-0.862927	0.219252
Zn5	Zn	-0.317386	-1.211649	-0.289471
Zn6	Zn	0.182614	-0.711649	0.210529
Zn7	Zn	-0.483399	-1.202905	-0.440778
Zn8	Zn	0.016601	-0.702905	0.059222
O9	O	-0.395606	-1.282940	-0.360774
O10	O	0.104394	-0.782940	0.139226
O11	O	-0.314736	-1.482088	-0.404739
O12	O	0.185264	-0.982088	0.095261
O13	O	-0.469507	-1.350138	-0.155242
O14	O	0.030493	-0.850138	0.344758
O15	O	-0.167812	-1.230611	-0.308409
O16	O	0.332188	-0.730611	0.191591
O17	O	-0.450874	-1.488441	-0.293542
O18	O	0.049126	-0.988441	0.206458
O19	O	-0.153694	-1.335401	-0.413197
O20	O	0.346306	-0.835401	0.086803
O21	O	-0.347488	-1.238995	-0.161651
O22	O	0.152512	-0.738995	0.338349
O23	O	-0.347421	-1.083828	-0.316825
O24	O	0.152579	-0.583828	0.183175
O25	O	-0.450757	-1.215707	-0.566290
O26	O	0.049243	-0.715707	-0.066290
O27	O	-0.469390	-1.077404	-0.427989
O28	O	0.030610	-0.577404	0.072011
O29	O	-0.314670	-1.326922	-0.559913
O30	O	0.185330	-0.826922	-0.059913
O31	O	-0.630484	-1.341659	-0.301958
O32	O	-0.130484	-0.841659	0.198042
O33	O	-0.630433	-1.224091	-0.419531
O34	O	-0.130433	-0.724091	0.080469
C35	C	-0.410484	-1.047774	-0.374296
C36	C	0.089516	-0.547774	0.125704
C37	C	-0.416873	-0.947168	-0.380102
C38	C	0.083127	-0.447168	0.119898
C39	C	-0.301660	-0.764746	-0.275419
C40	C	0.198340	-0.264746	0.224581
C41	C	-0.307660	-0.670218	-0.280872
C42	C	0.192340	-0.170218	0.219128
C43	C	-0.434878	-0.663581	-0.396455
C44	C	0.065122	-0.163581	0.103545
C45	C	-0.428878	-0.758109	-0.391002
C46	C	0.071122	-0.258109	0.108998
C47	C	-0.362266	-0.808689	-0.330483
C48	C	0.137734	-0.308689	0.169517
C49	C	-0.356261	-0.903219	-0.325036
C50	C	0.143739	-0.403219	0.174964
C51	C	-0.483484	-0.896580	-0.440614
C52	C	0.016516	-0.396580	0.059386
C53	C	-0.489484	-0.802052	-0.446066
C54	C	0.010516	-0.302052	0.053934
C55	C	-0.668578	-1.282888	-0.360758
C56	C	-0.168578	-0.782888	0.139242
C57	C	-0.785349	-1.282946	-0.360777
C58	C	-0.285349	-0.782946	0.139223
C59	C	-0.840194	-1.344224	-0.299617
C60	C	-0.340194	-0.844224	0.200383
C61	C	-0.949913	-1.344278	-0.299642
C62	C	-0.449913	-0.844278	0.200358
C63	C	-0.949932	-1.221768	-0.421989
C64	C	-0.449932	-0.721768	0.078011
C65	C	-0.840214	-1.221719	-0.421968
C66	C	-0.340214	-0.721719	0.078032
C67	C	-0.785329	-1.405451	-0.238426
C68	C	-0.285329	-0.905451	0.261574
C69	C	-0.840174	-1.466733	-0.177260
C70	C	-0.340174	-0.966733	0.322740
C71	C	-0.949893	-1.466787	-0.177285
C72	C	-0.449893	-0.966787	0.322715
C73	C	-1.004766	-1.405559	-0.238475
C74	C	-0.504766	-0.905559	0.261525
C75	C	-0.121565	-1.283017	-0.360808
C76	C	0.378435	-0.783017	0.139192
C77	C	-0.004785	-1.283049	-0.360823
C78	C	0.495215	-0.783049	0.139177
C79	C	-0.380562	-1.269374	-0.596862
C80	C	0.119438	-0.769374	-0.096862
C81	C	-0.374152	-1.263593	-0.697469
C82	C	0.125848	-0.763593	-0.197469
C83	C	-0.380660	-0.519025	-0.347193
C84	C	0.119340	-0.019025	0.152807
C85	C	-0.374265	-0.619632	-0.341388
C86	C	0.125735	-0.119632	0.158612
C87	C	-0.301590	-1.197586	-0.842605
C88	C	0.198410	-0.697586	-0.342605
C89	C	-0.307611	-1.203014	-0.748076
C90	C	0.192389	-0.703014	-0.248076
C91	C	-0.434673	-1.318750	-0.741397
C92	C	0.065327	-0.818750	-0.241397
C93	C	-0.428651	-1.313322	-0.835925
C94	C	0.071349	-0.813322	-0.335925
C95	C	-0.362109	-1.252737	-0.886527
C96	C	0.137891	-0.752737	-0.386527
C97	C	-0.356093	-1.247305	-0.981057
C98	C	0.143907	-0.747305	-0.481057
C99	C	-0.483149	-1.363045	-0.974376
C100	C	0.016851	-0.863045	-0.474376
C101	C	-0.489171	-1.368473	-0.879847
C102	C	0.010829	-0.868473	-0.379847
C103	C	-0.410511	-1.296505	-0.125601
C104	C	0.089489	-0.796505	0.374399
C105	C	-0.416615	-1.302462	-0.024985
C106	C	0.083385	-0.802462	0.475015
H107	H	-0.302015	-0.944399	-0.275764
H108	H	0.197985	-0.444399	0.224236
Cl109	Cl	-0.217913	-0.828334	-0.199349
Cl110	Cl	0.282087	-0.328334	0.300651
H111	H	-0.695991	-1.405411	-0.238396
H112	H	-0.195991	-0.905411	0.261604
Cl113	Cl	-1.018917	-1.144799	-0.498906
Cl114	Cl	-0.518917	-0.644799	0.001094
H115	H	-0.489120	-0.622383	-0.445718
H116	H	0.010880	-0.122383	0.054282
H117	H	-0.301911	-1.197972	-1.022256
H118	H	0.198089	-0.697972	-0.522256
Cl119	Cl	-0.771192	-1.543709	-0.100348
Cl120	Cl	-0.271192	-1.043709	0.399652
Cl121	Cl	-0.217933	-1.121429	-0.906221
Cl122	Cl	0.282067	-0.621429	-0.406221
Cl123	Cl	-1.142746	-1.405277	-0.238151
Cl124	Cl	-0.642746	-0.905277	0.261849
Cl125	Cl	-0.231524	-1.133680	-0.692864
Cl126	Cl	0.268476	-0.633680	-0.192864
Cl127	Cl	-0.518298	-1.394926	-0.677768
Cl128	Cl	-0.018298	-0.894926	-0.177768
Cl129	Cl	-0.559656	-0.951826	-0.509860
Cl130	Cl	-0.059656	-0.451826	-0.009860
H131	H	-0.795559	-1.171822	-0.471771
H132	H	-0.295559	-0.671822	0.028229
H133	H	-0.543345	-1.417802	-0.838634
H134	H	-0.043345	-0.917802	-0.338634
H135	H	-0.532423	-1.407958	-1.010146
H136	H	-0.032423	-0.907958	-0.510146
H137	H	-0.258308	-0.634443	-0.236034
H138	H	0.241692	-0.134443	0.263966
H139	H	-0.543720	-0.760857	-0.495336
H140	H	-0.043720	-0.260857	0.004664
H141	H	-0.994544	-1.516692	-0.127487
H142	H	-0.494544	-1.016692	0.372513
