data_functionalizedCrystal
_audit_creation_method	'MofGen! by Chris Wilmer'
_symmetry_space_group_name_H-M	'P1'
_symmetry_Int_Tables_number	1
_symmetry_cell_setting	triclinic
loop_
_symmetry_equiv_pos_as_xyz
  x,y,z
_cell_length_a	18.050590
_cell_length_b	18.215405
_cell_length_c	18.215399
_cell_angle_alpha	89.969449
_cell_angle_beta	89.995989
_cell_angle_gamma	90.014052
loop_
_atom_site_label
_atom_site_type_symbol
_atom_site_fract_x
_atom_site_fract_y
_atom_site_fract_z
Zn1	Zn	1.135345	-0.293205	-0.415792
Zn2	Zn	1.135252	-0.416276	-0.292720
Zn3	Zn	1.011154	-0.293205	-0.292773
Zn4	Zn	1.011119	-0.416211	-0.415779
O5	O	1.073217	-0.354724	-0.354266
O6	O	1.239257	-0.309558	-0.399449
O7	O	1.118766	-0.399977	-0.189743
O8	O	1.027681	-0.190220	-0.309120
O9	O	1.239189	-0.399978	-0.309029
O10	O	1.118924	-0.190220	-0.399501
O11	O	1.027591	-0.309557	-0.189782
O12	O	0.907224	-0.309494	-0.309107
O13	O	1.027622	-0.399867	-0.518765
O14	O	0.907199	-0.399866	-0.399479
O15	O	1.118890	-0.309495	-0.518774
O16	O	1.118733	-0.519252	-0.309016
O17	O	1.027533	-0.519204	-0.399427
C18	C	1.073139	-0.545930	-0.354231
C19	C	1.073173	-0.627729	-0.354240
C20	C	0.880265	-0.354674	-0.354298
C21	C	0.797719	-0.354670	-0.354329
C22	C	1.120773	-0.815924	-0.307250
C23	C	1.120806	-0.892782	-0.307267
C24	C	1.025757	-0.892772	-0.401335
C25	C	1.025728	-0.815915	-0.401320
C26	C	1.073235	-0.777493	-0.354274
C27	C	1.073297	-0.931209	-0.354306
C28	C	1.073333	-1.014542	-0.354326
C29	C	1.073200	-0.694154	-0.354255
C30	C	0.598277	-0.403955	-0.403356
C31	C	0.548881	-0.336851	-0.421469
C32	C	0.646589	-0.354711	-0.354293
C33	C	0.548903	-0.421853	-0.336179
C34	C	0.500604	-0.354757	-0.354259
C35	C	0.598281	-0.287571	-0.372441
C36	C	0.598307	-0.372619	-0.287120
C37	C	0.548934	-0.305469	-0.305207
C38	C	0.730687	-0.354686	-0.354314
C39	C	0.416507	-0.354774	-0.354238
C40	C	1.266923	-0.354775	-0.354235
C41	C	1.349469	-0.354797	-0.354221
C42	C	1.073263	-0.354673	-0.546219
C43	C	1.073282	-0.354652	-0.628018
C44	C	1.073316	-0.162771	-0.354318
C45	C	1.073358	-0.080972	-0.354340
C46	C	1.120822	-0.307551	-0.816218
C47	C	1.120831	-0.307529	-0.893077
C48	C	1.025794	-0.401639	-0.893056
C49	C	1.025782	-0.401656	-0.816198
C50	C	1.073300	-0.354613	-0.777781
C51	C	1.073321	-0.354574	-0.931498
C52	C	1.073330	-0.354551	-1.014831
C53	C	1.073290	-0.354635	-0.694442
C54	C	1.073215	-0.354721	-0.163060
C55	C	1.073340	-0.354536	-0.081261
H56	H	1.159457	-0.784642	-0.268942
H57	H	1.159513	-0.269244	-0.784941
H58	H	0.987108	-0.439941	-0.924344
F59	F	0.975196	-0.451745	-0.775289
F60	F	1.171404	-0.933680	-0.257220
H61	H	0.987078	-0.924065	-0.439638
H62	H	0.987017	-0.784622	-0.439616
H63	H	0.619944	-0.445526	-0.444894
H64	H	0.620034	-0.387771	-0.230343
H65	H	1.159527	-0.269206	-0.924368
F66	F	0.520552	-0.496045	-0.316171
F67	F	0.626509	-0.213357	-0.392532
F68	F	0.520503	-0.317071	-0.495700
H69	H	0.527405	-0.263796	-0.263702
