data_functionalizedCrystal
_audit_creation_method	'MofGen! by Chris Wilmer'
_symmetry_space_group_name_H-M	'P1'
_symmetry_Int_Tables_number	1
_symmetry_cell_setting	triclinic
loop_
_symmetry_equiv_pos_as_xyz
  x,y,z
_cell_length_a	12.827893
_cell_length_b	16.625546
_cell_length_c	12.827885
_cell_angle_alpha	89.964876
_cell_angle_beta	89.980728
_cell_angle_gamma	90.022439
loop_
_atom_site_label
_atom_site_type_symbol
_atom_site_fract_x
_atom_site_fract_y
_atom_site_fract_z
Zn1	Zn	1.597618	-0.320963	-0.590810
Zn2	Zn	1.930952	0.012370	-0.257477
Zn3	Zn	2.264285	0.345703	0.075857
Zn4	Zn	1.597491	-0.455817	-0.416054
Zn5	Zn	1.930824	-0.122484	-0.082721
Zn6	Zn	2.264157	0.210849	0.250613
Zn7	Zn	1.422860	-0.321002	-0.416084
Zn8	Zn	1.756193	0.012331	-0.082750
Zn9	Zn	2.089526	0.345664	0.250583
Zn10	Zn	1.422823	-0.455757	-0.590754
Zn11	Zn	1.756157	-0.122424	-0.257421
Zn12	Zn	2.089490	0.210909	0.075913
O13	O	1.510198	-0.388385	-0.503425
O14	O	1.843531	-0.055052	-0.170092
O15	O	2.176865	0.278282	0.163241
O16	O	1.743837	-0.338861	-0.567639
O17	O	2.077171	-0.005527	-0.234306
O18	O	2.410504	0.327806	0.099027
O19	O	1.574287	-0.437976	-0.269822
O20	O	1.907621	-0.104642	0.063512
O21	O	2.240954	0.228691	0.396845
O22	O	1.446110	-0.208165	-0.439297
O23	O	1.779444	0.125168	-0.105964
O24	O	2.112777	0.458502	0.227369
O25	O	1.743744	-0.437937	-0.439247
O26	O	2.077077	-0.104604	-0.105913
O27	O	2.410410	0.228729	0.227420
O28	O	1.574505	-0.208136	-0.567668
O29	O	1.907838	0.125197	-0.234335
O30	O	2.241171	0.458531	0.098999
O31	O	1.445987	-0.338928	-0.269843
O32	O	1.779320	-0.005594	0.063490
O33	O	2.112653	0.327739	0.396823
O34	O	1.276619	-0.338869	-0.439243
O35	O	1.609952	-0.005536	-0.105910
O36	O	1.943285	0.327797	0.227424
O37	O	1.446048	-0.437835	-0.736997
O38	O	1.779382	-0.104502	-0.403664
O39	O	2.112715	0.228831	-0.070331
O40	O	1.276592	-0.437873	-0.567572
O41	O	1.609925	-0.104540	-0.234239
O42	O	1.943259	0.228793	0.099094
O43	O	1.574469	-0.338802	-0.737039
O44	O	1.907803	-0.005469	-0.403705
O45	O	2.241136	0.327864	-0.070372
O46	O	1.574252	-0.568642	-0.439192
O47	O	1.907586	-0.235309	-0.105859
O48	O	2.240919	0.098025	0.227474
O49	O	1.445925	-0.568598	-0.567544
O50	O	1.779258	-0.235265	-0.234210
O51	O	2.112591	0.098069	0.099123
C52	C	1.238688	-0.388370	-0.503405
C53	C	1.572021	-0.055036	-0.170072
C54	C	1.905355	0.278297	0.163261
C55	C	1.122535	-0.388382	-0.503422
C56	C	1.455868	-0.055049	-0.170088
C57	C	1.789202	0.278284	0.163245
C58	C	1.070765	-0.437449	-0.566825
C59	C	1.404098	-0.104116	-0.233492
C60	C	1.737431	0.229217	0.099841
C61	C	0.950714	-0.437464	-0.566844
C62	C	1.284048	-0.104130	-0.233510
C63	C	1.617381	0.229203	0.099823
C64	C	1.510099	-0.597876	-0.503382
C65	C	1.843432	-0.264543	-0.170048
C66	C	2.176766	0.068791	0.163285
C67	C	1.510152	-0.687497	-0.503398
C68	C	1.843486	-0.354164	-0.170064
C69	C	2.176819	-0.020830	0.163269
C70	C	1.510335	-1.015673	-0.503507
C71	C	1.843668	-0.682339	-0.170173
C72	C	2.177001	-0.349006	0.163160
C73	C	1.510281	-0.924364	-0.503479
C74	C	1.843614	-0.591031	-0.170146
C75	C	2.176947	-0.257698	0.163187
C76	C	1.510243	-0.851588	-0.503452
C77	C	1.843576	-0.518254	-0.170118
C78	C	2.176909	-0.184921	0.163215
C79	C	1.510190	-0.760274	-0.503425
C80	C	1.843524	-0.426940	-0.170092
C81	C	2.176857	-0.093607	0.163241
C82	C	1.782768	-0.388401	-0.503446
C83	C	2.116101	-0.055068	-0.170113
C84	C	2.449435	0.278265	0.163221
C85	C	1.898921	-0.388408	-0.503455
C86	C	2.232255	-0.055075	-0.170121
C87	C	2.565588	0.278258	0.163212
C88	C	1.510269	-0.388308	-0.775996
C89	C	1.843602	-0.054974	-0.442662
C90	C	2.176936	0.278359	-0.109329
C91	C	1.510299	-0.388275	-0.892149
C92	C	1.843633	-0.054941	-0.558816
C93	C	2.176966	0.278392	-0.225482
C94	C	1.510326	-0.178076	-0.503492
C95	C	1.843659	0.155257	-0.170159
C96	C	2.176992	0.488590	0.163175
C97	C	1.510380	-0.088455	-0.503521
C98	C	1.843713	0.244878	-0.170187
C99	C	2.177047	0.578212	0.163146
C100	C	1.573853	-0.339261	-0.943954
C101	C	1.907186	-0.005927	-0.610621
C102	C	2.240520	0.327406	-0.277287
C103	C	1.573886	-0.339225	-1.064004
C104	C	1.907219	-0.005892	-0.730671
C105	C	2.240553	0.327441	-0.397338
C106	C	1.510187	-0.388404	-0.231915
C107	C	1.843521	-0.055071	0.101418
C108	C	2.176854	0.278263	0.434751
C109	C	1.510359	-0.388210	-0.115763
C110	C	1.843693	-0.054877	0.217571
C111	C	2.177026	0.278457	0.550904
H112	H	0.906193	-0.479474	-0.621123
H113	H	1.239526	-0.146140	-0.287789
H114	H	1.572860	0.187193	0.045544
H115	H	1.455906	-0.430206	-0.936673
H116	H	1.789240	-0.096873	-0.603340
H117	H	2.122573	0.236461	-0.270007
H118	H	1.115319	-0.479444	-0.621098
H119	H	1.448652	-0.146110	-0.287764
H120	H	1.781986	0.187223	0.045569
O121	O	1.069554	-0.338201	-0.438642
O122	O	1.402887	-0.004868	-0.105309
O123	O	1.736220	0.328465	0.228025
C124	C	1.140998	-0.292592	-0.379665
C125	C	1.474332	0.040742	-0.046332
C126	C	1.807665	0.374075	0.287001
H127	H	1.218852	-0.289775	-0.422391
H128	H	1.552186	0.043558	-0.089058
H129	H	1.885519	0.376892	0.244275
H130	H	1.109395	-0.229079	-0.368698
H131	H	1.442729	0.104254	-0.035364
H132	H	1.776062	0.437588	0.297969
H133	H	1.152519	-0.322038	-0.300218
H134	H	1.485852	0.011295	0.033115
H135	H	1.819185	0.344628	0.366448
H136	H	1.628236	-0.297321	-0.899429
H137	H	1.961569	0.036012	-0.566096
H138	H	2.294902	0.369346	-0.232763
O139	O	1.445300	-0.438242	-1.062748
O140	O	1.778633	-0.104909	-0.729414
O141	O	2.111966	0.228425	-0.396081
C142	C	1.341137	-0.420616	-1.089318
C143	C	1.674470	-0.087283	-0.755985
C144	C	2.007804	0.246050	-0.422651
H145	H	1.338935	-0.389647	-1.168598
H146	H	1.672269	-0.056314	-0.835265
H147	H	2.005602	0.277020	-0.501931
H148	H	1.294247	-0.478810	-1.092927
H149	H	1.627581	-0.145476	-0.759594
H150	H	1.960914	0.187857	-0.426261
H151	H	1.306000	-0.379142	-1.027916
H152	H	1.639333	-0.045808	-0.694583
H153	H	1.972667	0.287525	-0.361250
O154	O	1.638899	-0.289135	-1.116983
O155	O	1.972233	0.044199	-0.783650
O156	O	2.305566	0.377532	-0.450316
C157	C	1.697938	-0.243581	-1.045541
C158	C	2.031272	0.089753	-0.712207
C159	C	2.364605	0.423086	-0.378874
H160	H	1.701586	-0.276575	-0.967699
H161	H	2.034919	0.056759	-0.634365
H162	H	2.368253	0.390092	-0.301032
H163	H	1.780259	-0.234996	-1.077165
H164	H	2.113592	0.098338	-0.743832
H165	H	2.446926	0.431671	-0.410499
H166	H	1.659712	-0.182337	-1.033988
H167	H	1.993046	0.150997	-0.700655
H168	H	2.326379	0.484330	-0.367322
O169	O	0.952135	-0.338401	-0.438638
O170	O	1.285468	-0.005068	-0.105304
O171	O	1.618801	0.328266	0.228029
C172	C	1.015202	-0.384284	-0.371066
C173	C	1.348535	-0.050951	-0.037732
C174	C	1.681868	0.282383	0.295601
H175	H	1.031443	-0.445432	-0.407792
H176	H	1.364776	-0.112099	-0.074459
H177	H	1.698110	0.221234	0.258875
H178	H	1.092002	-0.351475	-0.357195
H179	H	1.425335	-0.018142	-0.023861
H180	H	1.758669	0.315192	0.309472
H181	H	0.973159	-0.393047	-0.293571
H182	H	1.306493	-0.059714	0.039762
H183	H	1.639826	0.273620	0.373095
