data_functionalizedCrystal
_audit_creation_method	'MofGen! by Chris Wilmer'
_symmetry_space_group_name_H-M	'P1'
_symmetry_Int_Tables_number	1
_symmetry_cell_setting	triclinic
loop_
_symmetry_equiv_pos_as_xyz
  x,y,z
_cell_length_a	9.065218
_cell_length_b	7.088929
_cell_length_c	9.065218
_cell_angle_alpha	96.314275
_cell_angle_beta	85.015885
_cell_angle_gamma	83.703834
loop_
_atom_site_label
_atom_site_type_symbol
_atom_site_fract_x
_atom_site_fract_y
_atom_site_fract_z
O1	O	1.945457	0.158984	0.231322
O2	O	1.516172	0.158986	0.249069
O3	O	1.739688	0.158981	0.025553
O4	O	1.721941	0.158989	0.454839
O5	O	1.769558	-0.158995	-0.004386
O6	O	1.546042	-0.158990	0.219130
O7	O	1.975327	-0.158992	0.201383
Cu8	Cu	1.763412	-0.188024	0.207523
Cu9	Cu	1.728087	0.188019	0.242929
O10	O	1.751811	-0.158987	0.424899
C11	C	1.476120	-0.000001	0.232394
C12	C	1.312277	-0.000000	0.227294
N13	N	1.788268	-0.452513	0.182619
C14	C	2.015378	0.000000	0.218059
C15	C	2.179220	0.000012	0.223160
C16	C	1.752917	-0.000004	-0.044403
C17	C	1.747817	0.000006	-0.208245
N18	N	1.703243	0.452507	0.267822
C19	C	1.738581	0.000002	0.494856
C20	C	1.743681	0.000006	0.658699
H21	H	1.615124	-0.465844	0.356116
H22	H	1.876403	-0.534171	0.094330
