data_functionalizedCrystal
_audit_creation_method	'MofGen! by Chris Wilmer'
_symmetry_space_group_name_H-M	'P1'
_symmetry_Int_Tables_number	1
_symmetry_cell_setting	triclinic
loop_
_symmetry_equiv_pos_as_xyz
  x,y,z
_cell_length_a	14.519731
_cell_length_b	14.519731
_cell_length_c	10.065875
_cell_angle_alpha	98.805316
_cell_angle_beta	81.235695
_cell_angle_gamma	83.688853
loop_
_atom_site_label
_atom_site_type_symbol
_atom_site_fract_x
_atom_site_fract_y
_atom_site_fract_z
O1	O	1.237335	0.107450	-0.113499
O2	O	0.968862	0.121666	-0.113501
O3	O	1.110205	-0.019677	-0.113488
O4	O	1.095992	0.248793	-0.113513
O5	O	1.083253	0.007384	0.113498
O6	O	0.941910	0.148727	0.113485
O7	O	1.210383	0.134511	0.113487
Zn8	Zn	1.071868	0.145915	0.149525
Zn9	Zn	1.107378	0.110262	-0.149539
O10	O	1.069040	0.275854	0.113473
C11	C	0.921027	0.134530	-0.000009
C12	C	0.818647	0.132534	-0.000009
C13	C	0.735503	0.130912	-0.000015
C14	C	0.631194	0.128885	-0.000015
C15	C	0.548055	0.127277	-0.000015
C16	C	0.443740	0.125250	-0.000017
C17	C	1.096063	-0.040506	0.000006
C18	C	1.094067	-0.142886	0.000006
C19	C	1.092446	-0.226031	0.000003
C20	C	1.090420	-0.330341	-0.000007
C21	C	1.088813	-0.413481	-0.000016
C22	C	1.086787	-0.517798	-0.000024
C23	C	1.258219	0.121646	-0.000009
C24	C	1.360600	0.123641	-0.000017
C25	C	1.083183	0.296683	-0.000023
C26	C	1.085180	0.399062	-0.000033
N27	N	1.047639	0.170247	0.353628
N28	N	1.131613	0.085923	-0.353642
C29	C	1.098942	0.118722	0.421412
C30	C	1.080303	0.137455	0.578577
H31	H	1.022574	0.195438	0.636893
C32	C	1.175800	0.041284	0.343698
C33	C	1.156362	-0.045217	0.378302
C34	C	1.227139	-0.116569	0.306713
H35	H	1.234706	0.053906	0.366957
H36	H	1.178079	0.038927	0.248393
H37	H	1.154094	-0.042859	0.473586
H38	H	1.097469	-0.057869	0.355039
H39	H	1.229418	-0.118926	0.211408
H40	H	1.286041	-0.103938	0.329978
H41	H	1.213956	-0.175269	0.330172
C42	C	1.208449	0.008385	0.568853
C43	C	1.188850	-0.078008	0.603701
C44	C	1.259592	-0.149492	0.532392
H45	H	1.267347	0.020978	0.592176
H46	H	1.210822	0.005896	0.473507
H47	H	1.186487	-0.075518	0.699025
H48	H	1.129965	-0.090631	0.580374
H49	H	1.261964	-0.151981	0.437047
H50	H	1.318484	-0.136890	0.555721
H51	H	1.246299	-0.208119	0.556017
C52	C	0.970744	0.247550	0.431625
C53	C	0.967565	0.250783	0.572004
C54	C	0.896748	0.321991	0.643893
H55	H	0.911827	0.234883	0.408458
H56	H	0.983793	0.306336	0.408348
H57	H	0.954510	0.192010	0.595272
H58	H	1.026465	0.263462	0.595212
H59	H	0.909796	0.380777	0.620616
H60	H	0.837836	0.309318	0.620715
H61	H	0.894587	0.324200	0.739147
