data_functionalizedCrystal
_audit_creation_method	'MofGen! by Chris Wilmer'
_symmetry_space_group_name_H-M	'P1'
_symmetry_Int_Tables_number	1
_symmetry_cell_setting	triclinic
loop_
_symmetry_equiv_pos_as_xyz
  x,y,z
_cell_length_a	10.540539
_cell_length_b	15.995350
_cell_length_c	9.616153
_cell_angle_alpha	89.999971
_cell_angle_beta	89.995174
_cell_angle_gamma	84.008933
loop_
_atom_site_label
_atom_site_type_symbol
_atom_site_fract_x
_atom_site_fract_y
_atom_site_fract_z
O1	O	1.684270	0.117994	-0.115573
O2	O	1.314705	0.129112	-0.115589
O3	O	1.509590	0.001726	-0.115579
O4	O	1.489385	0.245380	-0.115583
O5	O	1.509563	0.001729	0.115712
O6	O	1.314678	0.129115	0.115702
O7	O	1.684244	0.117997	0.115719
Zn8	Zn	1.499457	0.123556	0.152433
Zn9	Zn	1.499492	0.123553	-0.152303
O10	O	1.489359	0.245383	0.115709
C11	C	1.267400	0.128280	0.000055
C12	C	1.126486	0.125785	0.000048
C13	C	0.944373	0.030202	0.000589
C14	C	1.090956	0.032730	0.000054
C15	C	1.064213	0.170565	-0.132026
C16	C	0.917712	0.167390	-0.132122
C17	C	0.917167	0.169286	0.130899
C18	C	1.064138	0.170143	0.132630
C19	C	1.508741	-0.029472	0.000064
C20	C	1.506237	-0.122438	0.000056
C21	C	1.497244	-0.460239	0.000060
C22	C	1.358450	-0.413635	-0.000465
C23	C	1.360955	-0.316930	0.000057
C24	C	1.501705	-0.292652	0.000057
C25	C	1.570147	-0.333318	0.132137
C26	C	1.566661	-0.429975	0.132247
C27	C	1.569558	-0.430319	-0.130774
C28	C	1.569525	-0.333374	-0.132520
C29	C	1.504233	-0.197939	0.000060
C30	C	1.494719	-0.554952	0.000067
C31	C	1.731549	0.118829	0.000072
C32	C	1.872462	0.121324	0.000070
C33	C	1.490207	0.276581	0.000063
C34	C	1.492711	0.369547	0.000062
N35	N	1.499442	0.123558	0.360408
N36	N	1.499517	0.123544	-0.360278
C37	C	1.394879	0.191473	0.580772
C38	C	1.395104	0.191727	0.419605
C39	C	1.631892	0.143433	0.418863
C40	C	1.631321	0.143914	0.580081
C41	C	1.472879	0.035546	0.580319
C42	C	1.469825	0.036116	0.419092
H43	H	0.914680	-0.006405	-0.093600
H44	H	1.087430	0.237986	0.140604
H45	H	1.654793	0.208115	0.617669
H46	H	0.886024	0.139172	0.231011
H47	H	1.673552	-0.318574	0.137049
H48	H	1.133200	-0.002755	-0.094786
H49	H	1.671890	-0.461468	-0.131661
H50	H	1.296651	0.179768	0.380086
H51	H	1.296116	0.179697	0.619579
H52	H	1.522589	-0.305220	0.230425
H53	H	1.672167	-0.317398	-0.140494
H54	H	1.524191	-0.451131	-0.230882
H55	H	1.412105	0.257014	0.381025
H56	H	1.519485	-0.306426	-0.230229
H57	H	0.889968	0.134291	-0.230848
H58	H	1.711608	0.095309	0.380514
H59	H	1.105538	0.137429	0.230339
H60	H	1.411654	0.256390	0.621271
H61	H	1.302987	-0.432500	-0.095181
H62	H	1.711616	0.096432	0.619073
H63	H	0.869017	0.236498	0.131791
H64	H	1.307153	-0.288831	-0.094623
H65	H	1.549186	-0.015013	0.618439
H66	H	1.655917	0.206909	0.378473
H67	H	1.541080	-0.016861	0.378801
H68	H	1.372394	0.021051	0.380888
H69	H	0.868824	0.234313	-0.138118
H70	H	0.916282	-0.006559	0.095307
H71	H	1.378403	0.016630	0.621052
H72	H	1.306770	-0.289388	0.094893
H73	H	1.134043	-0.002504	0.094731
H74	H	1.303211	-0.433558	0.093720
H75	H	1.085627	0.238902	-0.136941
H76	H	1.516730	-0.448574	0.230978
H77	H	1.107240	0.139456	-0.230318
H78	H	1.668560	-0.461614	0.138240
