data_functionalizedCrystal
_audit_creation_method	'MofGen! by Chris Wilmer'
_symmetry_space_group_name_H-M	'P1'
_symmetry_Int_Tables_number	1
_symmetry_cell_setting	triclinic
loop_
_symmetry_equiv_pos_as_xyz
  x,y,z
_cell_length_a	15.944499
_cell_length_b	23.532357
_cell_length_c	14.421503
_cell_angle_alpha	89.998741
_cell_angle_beta	89.989779
_cell_angle_gamma	83.152950
loop_
_atom_site_label
_atom_site_type_symbol
_atom_site_fract_x
_atom_site_fract_y
_atom_site_fract_z
O1	O	1.113919	0.073304	-0.077179
O2	O	0.869285	0.082390	-0.077170
O3	O	0.999001	-0.005059	-0.077155
O4	O	0.984203	0.160753	-0.077193
O5	O	0.998979	-0.005046	0.077068
O6	O	0.869263	0.082403	0.077054
O7	O	1.113898	0.073317	0.077045
Cu8	Cu	0.991579	0.077861	0.091131
Cu9	Cu	0.991604	0.077846	-0.091256
O10	O	0.984182	0.160766	0.077030
C11	C	0.837982	0.082025	-0.000057
C12	C	0.744744	0.080909	-0.000052
C13	C	0.998620	-0.026271	-0.000041
C14	C	0.997507	-0.089493	-0.000032
C15	C	0.452766	0.131715	-0.000078
C16	C	0.514036	0.105299	-0.076114
C17	C	0.409143	0.076857	-0.000073
C18	C	0.514000	0.105297	0.075939
C19	C	0.574034	0.078851	-0.000061
C20	C	0.469184	0.050426	-0.076172
C21	C	0.469142	0.050431	0.075949
C22	C	0.530394	0.023975	-0.000106
C23	C	0.314152	0.075710	-0.000080
C24	C	0.669023	0.079994	-0.000060
C25	C	0.990533	-0.481538	-0.084149
C26	C	0.989475	-0.540941	-0.084154
O27	O	0.988909	-0.571666	-0.155650
N28	N	0.988938	-0.570647	-0.000088
C29	C	0.989451	-0.540946	0.083989
O30	O	0.988897	-0.571668	0.155493
C31	C	0.990503	-0.481543	0.083993
C32	C	0.991048	-0.451841	-0.000079
C33	C	0.991076	-0.451836	-0.168214
C34	C	0.992136	-0.392436	-0.168208
C35	C	0.992651	-0.362740	-0.084138
C36	C	0.992107	-0.392442	-0.000073
C37	C	0.991010	-0.451843	0.168069
C38	C	0.992062	-0.392436	0.168066
C39	C	0.992606	-0.362734	0.083994
C40	C	0.993682	-0.303346	0.084003
N41	N	0.994219	-0.273640	-0.000063
C42	C	0.993703	-0.303337	-0.084134
C43	C	0.987241	-0.665696	0.083973
C44	C	0.986195	-0.725098	0.083970
C45	C	0.986217	-0.725089	-0.084173
C46	C	0.987269	-0.665686	-0.084169
C47	C	0.987777	-0.635990	-0.000093
C48	C	0.995929	-0.178594	-0.084115
C49	C	0.996992	-0.119190	-0.084102
C50	C	0.996965	-0.119204	0.084040
C51	C	0.995907	-0.178603	0.084028
C52	C	0.995386	-0.208297	-0.000058
O53	O	0.994245	-0.272583	0.155462
O54	O	0.994246	-0.272607	-0.155626
C55	C	1.145200	0.073682	-0.000070
C56	C	1.238439	0.074797	-0.000081
C57	C	0.984563	0.181977	-0.000086
C58	C	0.985675	0.245200	-0.000101
N59	N	0.991567	0.077871	0.219412
N60	N	0.991622	0.077831	-0.219537
C61	C	0.931576	0.118290	0.469059
C62	C	1.007382	0.129337	0.530856
C63	C	0.991587	0.077858	0.408574
C64	C	0.915801	0.066824	0.530871
C65	C	0.991600	0.077846	0.591295
C66	C	1.067431	0.088931	0.469010
C67	C	0.975801	0.026395	0.469019
C68	C	1.051662	0.037421	0.530788
C69	C	0.991579	0.077866	0.303313
C70	C	0.991618	0.077837	0.696554
H71	H	0.419041	0.177241	-0.000162
N72	N	0.997550	-0.087165	-0.174795
H73	H	0.945904	-0.057899	-0.178532
H74	H	1.050093	-0.067175	-0.178521
N75	N	0.540316	0.136044	0.161088
H76	H	0.603621	0.136262	0.160774
H77	H	0.511719	0.176718	0.160958
H78	H	0.533941	0.128498	-0.140402
H79	H	0.449415	0.027239	-0.140526
N80	N	0.830897	0.054467	0.566858
H81	H	0.818500	0.015899	0.543398
H82	H	0.831751	0.054217	0.636882
H83	H	0.563968	-0.021592	-0.000136
N84	N	1.025093	0.186975	0.566837
H85	H	0.979727	0.217497	0.544389
H86	H	1.025532	0.186376	0.636861
N87	N	0.995390	-0.210618	-0.174805
H88	H	0.995905	-0.182781	-0.228052
H89	H	1.047040	-0.239883	-0.178455
N90	N	0.442748	0.019725	0.161109
H91	H	0.458851	0.040488	0.218517
H92	H	0.379577	0.018867	0.160064
H93	H	0.880877	0.152509	0.441956
N94	N	0.992719	-0.360404	-0.258886
H95	H	0.992229	-0.388238	-0.312137
H96	H	0.941076	-0.331134	-0.262548
H97	H	0.990568	-0.476016	0.236529
N98	N	0.990578	-0.483865	-0.258897
H99	H	0.991102	-0.456028	-0.312142
H100	H	1.042243	-0.513119	-0.262521
N101	N	0.987857	-0.633652	-0.174845
H102	H	0.987373	-0.661485	-0.228099
H103	H	0.936213	-0.604383	-0.178510
H104	H	0.985795	-0.749279	-0.152628
N105	N	1.152356	0.101352	0.433179
H106	H	1.151820	0.101296	0.363148
H107	H	1.164376	0.140079	0.456286
N108	N	0.985626	-0.757133	0.174646
H109	H	0.986115	-0.729301	0.227900
H110	H	0.933108	-0.777154	0.178315
H111	H	0.962412	-0.017106	0.441836
N112	N	0.987799	-0.633669	0.174661
H113	H	0.987302	-0.661506	0.227909
H114	H	1.040316	-0.613648	0.178325
H115	H	0.992463	-0.368259	0.236532
N116	N	1.118962	-0.007876	0.566481
H117	H	1.091829	-0.036513	0.605049
H118	H	1.149689	-0.028086	0.512346
H119	H	0.995471	-0.202789	0.152486
H120	H	0.997389	-0.095015	0.152488
