data_functionalizedCrystal
_audit_creation_method	'MofGen! by Chris Wilmer'
_symmetry_space_group_name_H-M	'P1'
_symmetry_Int_Tables_number	1
_symmetry_cell_setting	triclinic
loop_
_symmetry_equiv_pos_as_xyz
  x,y,z
_cell_length_a	16.109302
_cell_length_b	17.019294
_cell_length_c	14.586319
_cell_angle_alpha	86.117240
_cell_angle_beta	89.994552
_cell_angle_gamma	83.427801
loop_
_atom_site_label
_atom_site_type_symbol
_atom_site_fract_x
_atom_site_fract_y
_atom_site_fract_z
O1	O	1.103039	0.101398	-0.084285
O2	O	1.603039	0.601398	0.415715
O3	O	0.860966	0.114015	-0.085274
O4	O	1.360966	0.614015	0.414726
O5	O	0.988756	-0.007128	-0.075709
O6	O	1.488756	0.492872	0.424291
O7	O	0.975249	0.222541	-0.093849
O8	O	1.475249	0.722541	0.406151
O9	O	0.988747	-0.007130	0.076772
O10	O	1.488747	0.492870	0.576772
O11	O	0.860957	0.114014	0.067207
O12	O	1.360957	0.614014	0.567207
O13	O	1.103030	0.101396	0.068196
O14	O	1.603030	0.601396	0.568196
Cu15	Cu	0.981993	0.107704	0.081624
Cu16	Cu	1.481993	0.607704	0.581624
Cu17	Cu	0.982003	0.107707	-0.098702
Cu18	Cu	1.482003	0.607707	0.401298
O19	O	0.975240	0.222539	0.058631
O20	O	1.475240	0.722539	0.558631
C21	C	0.829987	0.113503	-0.008992
C22	C	1.329987	0.613503	0.491008
C23	C	0.737693	0.111971	-0.008868
C24	C	1.237693	0.611971	0.491132
C25	C	0.525351	0.108426	0.074520
C26	C	1.025351	0.608426	0.574520
C27	C	0.438632	0.106977	0.074631
C28	C	0.938632	0.606977	0.574631
C29	C	0.438652	0.106983	-0.091612
C30	C	0.938652	0.606983	0.408388
C31	C	0.525370	0.108426	-0.091722
C32	C	1.025370	0.608426	0.408278
C33	C	0.568716	0.109151	-0.008654
C34	C	1.068716	0.609151	0.491346
C35	C	0.395280	0.106260	-0.008432
C36	C	0.895280	0.606260	0.491568
C37	C	0.301255	0.104689	-0.008313
C38	C	0.801255	0.604689	0.491687
C39	C	0.662747	0.110720	-0.008773
C40	C	1.162747	0.610720	0.491227
C41	C	0.988239	-0.036518	0.002850
C42	C	1.488239	0.463482	0.502850
C43	C	0.986703	-0.124088	0.009761
C44	C	1.486703	0.375912	0.509761
C45	C	0.985988	-0.165223	-0.070109
C46	C	1.485988	0.334777	0.429891
C47	C	0.984539	-0.247504	-0.063612
C48	C	1.484539	0.252496	0.436388
C49	C	0.983811	-0.288648	0.022755
C50	C	1.483811	0.211352	0.522755
C51	C	0.984524	-0.247507	0.102631
C52	C	1.484524	0.252493	0.602631
C53	C	0.985966	-0.165227	0.096134
C54	C	1.485966	0.334773	0.596134
C55	C	0.979449	-0.537080	0.046531
C56	C	1.479449	-0.037080	0.546531
C57	C	0.978008	-0.619366	0.053023
C58	C	1.478008	-0.119366	0.553023
C59	C	0.978022	-0.619357	-0.113221
C60	C	1.478022	-0.119357	0.386779
C61	C	0.979470	-0.537076	-0.119711
C62	C	1.479470	-0.037076	0.380289
C63	C	0.980178	-0.495941	-0.039835
C64	C	1.480178	0.004059	0.460165
C65	C	0.982333	-0.372753	0.029398
C66	C	1.482333	0.127247	0.529398
C67	C	0.981650	-0.411838	-0.046479
C68	C	1.481650	0.088162	0.453521
C69	C	1.134009	0.101908	-0.008088
C70	C	1.634009	0.601908	0.491912
C71	C	1.226303	0.103440	-0.008218
C72	C	1.726303	0.603440	0.491782
C73	C	0.975757	0.251929	-0.019930
C74	C	1.475757	0.751929	0.480070
C75	C	0.977293	0.339499	-0.026847
C76	C	1.477293	0.839499	0.473153
N77	N	0.981991	0.107702	0.208456
N78	N	1.481991	0.607702	0.708456
N79	N	0.982011	0.107702	-0.225534
N80	N	1.482011	0.607702	0.274466
C81	C	1.038595	0.054078	0.447696
C82	C	1.538595	0.554078	0.947696
C83	C	1.038598	0.054076	0.543678
C84	C	1.538598	0.554076	1.043678
C85	C	0.925401	0.161329	0.535219
C86	C	1.425401	0.661329	1.035219
C87	C	0.925395	0.161327	0.439240
C88	C	1.425395	0.661327	0.939240
C89	C	0.981997	0.107702	0.395481
C90	C	1.481997	0.607702	0.895481
C91	C	0.982005	0.107703	0.587442
C92	C	1.482005	0.607703	1.087442
C93	C	0.982008	0.107701	0.691509
C94	C	1.482008	0.607701	1.191509
C95	C	0.981994	0.107703	0.291407
C96	C	1.481994	0.607703	0.791407
H97	H	0.403348	0.106393	-0.159244
H98	H	0.903348	0.606393	0.340756
Cl99	Cl	1.109749	-0.013339	0.392689
Cl100	Cl	1.609749	0.486661	0.892689
Cl101	Cl	0.854234	0.228741	0.373592
Cl102	Cl	1.354234	0.728741	0.873592
H103	H	0.560680	0.109015	-0.159456
H104	H	1.060680	0.609015	0.340544
Cl105	Cl	0.986908	-0.113507	-0.178690
Cl106	Cl	1.486908	0.386493	0.321310
Cl107	Cl	1.109751	-0.013341	0.609318
Cl108	Cl	1.609751	0.486659	1.109318
H109	H	0.980042	-0.503600	0.111572
H110	H	1.480042	-0.003600	0.611572
Cl111	Cl	0.384118	0.106066	0.179197
Cl112	Cl	0.884118	0.606066	0.679197
H113	H	0.879318	0.204990	0.570858
H114	H	1.379318	0.704990	1.070858
H115	H	0.986537	-0.131735	0.161172
H116	H	1.486537	0.368265	0.661172
Cl117	Cl	0.981414	-0.424484	0.137971
Cl118	Cl	1.481414	0.075516	0.637971
Cl119	Cl	0.983642	-0.299213	-0.164025
Cl120	Cl	1.483642	0.200787	0.335975
Cl121	Cl	0.579841	0.109332	0.178949
Cl122	Cl	1.079841	0.609332	0.678949
H123	H	0.980064	-0.503581	-0.190041
H124	H	1.480064	-0.003581	0.309959
H125	H	0.977444	-0.652857	-0.178252
H126	H	1.477444	-0.152857	0.321748
Cl127	Cl	0.977099	-0.671091	0.161607
Cl128	Cl	1.477099	-0.171091	0.661607
H129	H	0.982237	-0.378333	-0.116799
H130	H	1.482237	0.121667	0.383201
H131	H	0.983926	-0.281013	0.172953
H132	H	1.483926	0.218987	0.672953
