data_functionalizedCrystal
_audit_creation_method	'MofGen! by Chris Wilmer'
_symmetry_space_group_name_H-M	'P1'
_symmetry_Int_Tables_number	1
_symmetry_cell_setting	triclinic
loop_
_symmetry_equiv_pos_as_xyz
  x,y,z
_cell_length_a	16.120484
_cell_length_b	14.908571
_cell_length_c	14.908308
_cell_angle_alpha	90.175053
_cell_angle_beta	84.013929
_cell_angle_gamma	90.212688
loop_
_atom_site_label
_atom_site_type_symbol
_atom_site_fract_x
_atom_site_fract_y
_atom_site_fract_z
Zn1	Zn	-0.434923	-1.320097	0.609960
Zn2	Zn	0.065077	-0.820097	1.109960
Zn3	Zn	-0.566744	-1.321040	0.466383
Zn4	Zn	-0.066744	-0.821040	0.966383
Zn5	Zn	-0.418915	-1.179340	0.450134
Zn6	Zn	0.081085	-0.679340	0.950134
Zn7	Zn	-0.565754	-1.162126	0.607984
Zn8	Zn	-0.065754	-0.662126	1.107984
O9	O	-0.496584	-1.245651	0.533615
O10	O	0.003416	-0.745651	1.033615
O11	O	-0.459523	-1.445636	0.598542
O12	O	0.040477	-0.945636	1.098542
O13	O	-0.540849	-1.309843	0.338080
O14	O	-0.040849	-0.809843	0.838080
O15	O	-0.304418	-1.204822	0.465363
O16	O	0.195582	-0.704822	0.965363
O17	O	-0.556371	-1.446329	0.493056
O18	O	-0.056371	-0.946329	0.993056
O19	O	-0.316179	-1.308235	0.582786
O20	O	0.183821	-0.808235	1.082786
O21	O	-0.432240	-1.205736	0.326142
O22	O	0.067760	-0.705736	0.826142
O23	O	-0.431280	-1.051643	0.463446
O24	O	0.068720	-0.551643	0.963446
O25	O	-0.554684	-1.175482	0.734394
O26	O	-0.054684	-0.675482	1.234394
O27	O	-0.539162	-1.038995	0.579418
O28	O	-0.039162	-0.538995	1.079418
O29	O	-0.458562	-1.291543	0.735846
O30	O	0.041438	-0.791543	1.235846
O31	O	-0.683233	-1.293150	0.491140
O32	O	-0.183233	-0.793150	0.991140
O33	O	-0.682506	-1.176396	0.595173
O34	O	-0.182506	-0.676396	1.095173
C35	C	-0.713110	-1.233031	0.544726
C36	C	-0.213110	-0.733031	1.044726
C37	C	-0.805747	-1.227712	0.549515
C38	C	-0.305747	-0.727712	1.049515
C39	C	-0.508298	-1.231487	0.768743
C40	C	-0.008298	-0.731487	1.268743
C41	C	-0.513290	-1.225451	0.868941
C42	C	-0.013290	-0.725451	1.368941
C43	C	-0.483377	-1.012801	0.519455
C44	C	0.016623	-0.512801	1.019455
C45	C	-0.477748	-0.913184	0.513419
C46	C	0.022252	-0.413184	1.013419
C47	C	-0.975358	-1.218005	0.558276
C48	C	-0.475358	-0.718005	1.058276
C49	C	-1.016980	-1.273456	0.508979
C50	C	-0.516980	-0.773456	1.008979
C51	C	-1.111356	-1.268055	0.513854
C52	C	-0.611356	-0.768055	1.013854
C53	C	-0.880972	-1.223405	0.553403
C54	C	-0.380972	-0.723405	1.053403
C55	C	-0.279214	-1.258344	0.522482
C56	C	0.220786	-0.758344	1.022482
C57	C	-0.186584	-1.263752	0.517738
C58	C	0.313416	-0.763752	1.017738
C59	C	-0.509843	-1.479410	0.547832
C60	C	-0.009843	-0.979410	1.047832
C61	C	-0.515493	-1.579025	0.553890
C62	C	-0.015493	-1.079025	1.053890
C63	C	-0.579666	-0.712871	0.622692
C64	C	-0.079666	-0.212871	1.122692
C65	C	-0.574380	-0.619272	0.617025
C66	C	-0.074380	-0.119272	1.117025
C67	C	-0.461887	-0.632384	0.496421
C68	C	0.038113	-0.132384	0.996421
C69	C	-0.467173	-0.725983	0.502089
C70	C	0.032827	-0.225983	1.002089
C71	C	-0.526065	-0.766223	0.565226
C72	C	-0.026065	-0.266223	1.065226
C73	C	-0.531355	-0.859824	0.570888
C74	C	-0.031355	-0.359824	1.070888
C75	C	-0.418858	-0.872935	0.450290
C76	C	0.081142	-0.372935	0.950290
C77	C	-0.413572	-0.779335	0.444622
C78	C	0.086428	-0.279335	0.944622
C79	C	-0.484858	-1.259815	0.299402
C80	C	0.015142	-0.759815	0.799402
C81	C	-0.479641	-1.266038	0.199204
C82	C	0.020359	-0.766038	0.699204
C83	C	-0.422560	-1.334963	1.058735
C84	C	0.077440	-0.834963	1.558735
C85	C	-0.427248	-1.329294	1.152880
C86	C	0.072752	-0.829294	1.652880
C87	C	-0.527348	-1.208443	1.151376
C88	C	-0.027348	-0.708443	1.651376
C89	C	-0.522661	-1.214111	1.057231
C90	C	-0.022661	-0.714111	1.557231
C91	C	-0.470266	-1.277374	1.010914
C92	C	0.029734	-0.777374	1.510914
C93	C	-0.465583	-1.283046	0.916769
C94	C	0.034417	-0.783046	1.416769
C95	C	-0.565679	-1.162191	0.915266
C96	C	-0.065679	-0.662191	1.415266
C97	C	-0.570366	-1.156523	1.009410
C98	C	-0.070366	-0.656523	1.509410
H99	H	-0.981734	-1.324985	0.463113
H100	H	-0.481734	-0.824985	0.963113
H101	H	-0.579309	-0.892586	0.622296
H102	H	-0.079309	-0.392586	1.122296
F103	F	-0.616462	-1.100904	0.864366
F104	F	-0.116462	-0.600904	1.364366
H105	H	-1.010601	-1.166480	0.604138
H106	H	-0.510601	-0.666480	1.104138
H107	H	-0.627623	-0.745635	0.674096
H108	H	-0.127623	-0.245635	1.174096
F109	F	-0.366807	-1.402298	1.009440
F110	F	0.133193	-0.902298	1.509440
H111	H	-0.375214	-0.916384	0.403494
H112	H	0.124786	-0.416384	0.903494
H113	H	-0.422921	-1.334559	0.879059
H114	H	0.077079	-0.834559	1.379059
F115	F	-0.376472	-1.390587	1.203771
F116	F	0.123528	-0.890587	1.703771
H117	H	-0.570005	-1.156937	1.189103
H118	H	-0.070005	-0.656937	1.689103
H119	H	-0.618026	-0.575836	0.663822
H120	H	-0.118026	-0.075836	1.163822
F121	F	-0.399204	-0.589542	0.429243
F122	F	0.100796	-0.089542	0.929243
F123	F	-0.350895	-0.736499	0.377435
F124	F	0.149105	-0.236499	0.877435
H125	H	-0.613023	-1.105015	1.047134
H126	H	-0.113023	-0.605015	1.547134
