data_functionalizedCrystal
_audit_creation_method	'MofGen! by Chris Wilmer'
_symmetry_space_group_name_H-M	'P1'
_symmetry_Int_Tables_number	1
_symmetry_cell_setting	triclinic
loop_
_symmetry_equiv_pos_as_xyz
  x,y,z
_cell_length_a	12.811438
_cell_length_b	12.837942
_cell_length_c	11.295663
_cell_angle_alpha	85.464944
_cell_angle_beta	80.468707
_cell_angle_gamma	90.586849
loop_
_atom_site_label
_atom_site_type_symbol
_atom_site_fract_x
_atom_site_fract_y
_atom_site_fract_z
O1	O	1.410060	-0.135965	-0.053271
O2	O	1.103869	-0.153471	-0.020198
O3	O	1.250176	0.006163	-0.036008
O4	O	1.263754	-0.295599	-0.037460
O5	O	1.262998	0.020161	-0.235439
O6	O	1.116692	-0.139473	-0.219629
O7	O	1.422883	-0.121967	-0.252701
Cu8	Cu	1.270958	-0.129442	-0.254375
Cu9	Cu	1.255794	-0.145996	-0.018525
O10	O	1.276576	-0.281601	-0.236891
C11	C	1.070817	-0.145919	-0.115651
C12	C	0.953228	-0.144260	-0.102950
C13	C	0.780500	-0.149551	0.023647
C14	C	0.890985	-0.151110	0.011724
C15	C	0.904980	-0.135848	-0.205708
C16	C	0.794495	-0.134289	-0.193785
C17	C	0.732259	-0.141142	-0.079103
C18	C	0.621772	-0.139591	-0.067181
C19	C	0.635769	-0.124322	-0.284612
C20	C	0.746253	-0.125881	-0.296535
C21	C	1.252000	0.051767	-0.135228
C22	C	1.238319	0.166800	-0.133748
C23	C	1.455934	-0.129519	-0.157246
C24	C	1.573523	-0.131179	-0.169939
C25	C	1.274752	-0.327206	-0.137669
C26	C	1.288433	-0.442238	-0.139141
N27	N	1.281631	-0.117798	-0.420260
C28	C	1.402788	0.408296	-0.151488
C29	C	1.389939	0.516380	-0.150098
C30	C	1.199770	0.491052	-0.129570
C31	C	1.212619	0.382968	-0.130960
C32	C	1.314132	0.341595	-0.141921
C33	C	1.326982	0.233510	-0.143319
C34	C	1.136813	0.208183	-0.122783
C35	C	1.123963	0.316267	-0.121393
C36	C	1.358567	-0.033926	-0.615559
C37	C	1.350479	-0.042734	-0.490025
C38	C	1.220870	-0.184060	-0.476037
C39	C	1.228958	-0.175252	-0.601571
C40	C	1.297807	-0.100182	-0.671328
C41	C	1.305889	-0.091370	-0.796864
C42	C	1.176287	-0.232700	-0.782874
C43	C	1.168199	-0.241508	-0.657339
N44	N	1.245128	-0.157632	0.147359
H45	H	0.796941	-0.120297	-0.389906
O46	O	1.476175	0.581030	-0.159460
C47	C	1.666149	0.594736	-0.179892
C48	C	1.568575	0.521403	-0.169330
H49	H	1.740876	0.546556	-0.187849
H50	H	1.670336	0.651817	-0.263244
H51	H	1.659456	0.640130	-0.096305
H52	H	1.575200	0.475940	-0.252853
H53	H	1.564420	0.464390	-0.085927
O54	O	1.425514	0.193147	-0.154007
C55	C	1.529591	0.037861	-0.165167
C56	C	1.417943	0.083430	-0.153090
H57	H	1.523505	-0.050852	-0.164404
H58	H	1.579352	0.071147	-0.253436
H59	H	1.568570	0.059558	-0.086507
H60	H	1.378872	0.061750	-0.231683
H61	H	1.368258	0.050146	-0.064774
H62	H	1.485445	0.374610	-0.160425
O63	O	1.425352	0.038969	-0.683503
C64	C	1.495293	0.115132	-0.883101
C65	C	1.419599	0.032547	-0.806301
H66	H	1.490683	0.109953	-0.982400
H67	H	1.471560	0.196394	-0.856129
H68	H	1.579739	0.100138	-0.867625
H69	H	1.335129	0.047443	-0.821737
H70	H	1.443422	-0.048687	-0.833288
O71	O	1.101337	-0.314337	-0.589390
C72	C	1.031479	-0.390581	-0.389804
C73	C	1.107228	-0.308042	-0.466606
H74	H	1.036232	-0.385533	-0.290520
H75	H	0.946989	-0.375573	-0.405115
H76	H	1.055194	-0.471800	-0.416938
H77	H	1.083609	-0.226790	-0.439520
H78	H	1.191698	-0.323141	-0.451288
O79	O	0.720196	-0.156184	0.135131
C80	C	0.717968	-0.171581	0.349536
C81	C	0.786386	-0.164047	0.223353
H82	H	0.771453	-0.177962	0.420898
H83	H	0.668282	-0.098718	0.360387
H84	H	0.663501	-0.243721	0.360734
H85	H	0.840914	-0.091951	0.212068
H86	H	0.836000	-0.236961	0.212559
H87	H	1.064623	0.153863	-0.115002
O88	O	1.101122	0.531135	-0.119064
C89	C	0.941314	0.549880	-0.204426
C90	C	1.053003	0.504410	-0.216460
H91	H	0.902385	0.528309	-0.283171
H92	H	0.891524	0.516488	-0.116223
H93	H	0.947380	0.638582	-0.205011
H94	H	1.047037	0.415711	-0.215928
H95	H	1.102751	0.537884	-0.304651
O96	O	1.409539	0.021742	-0.436040
C97	C	1.538994	0.162805	-0.463172
C98	C	1.472147	0.089868	-0.524462
H99	H	1.589646	0.217888	-0.534636
H100	H	1.484391	0.210404	-0.398959
H101	H	1.592489	0.114060	-0.410540
H102	H	1.418645	0.138532	-0.577158
H103	H	1.526811	0.042265	-0.588608
O104	O	1.025281	0.356285	-0.110684
C105	C	0.838021	0.319760	-0.090547
C106	C	0.949717	0.274302	-0.102638
H107	H	0.776899	0.253500	-0.084065
H108	H	0.821808	0.363822	-0.005892
H109	H	0.832675	0.375629	-0.172829
H110	H	0.955144	0.218390	-0.020421
H111	H	0.965881	0.230303	-0.187343
H112	H	1.361947	-0.030241	-0.853659
H113	H	1.164822	-0.245187	-0.419225
H114	H	1.126809	-0.286647	-0.828294
H115	H	0.571100	-0.145176	0.026199
H116	H	0.955671	-0.130256	-0.299076
H117	H	0.930258	-0.157957	0.095394
H118	H	0.596479	-0.117480	-0.368279
