data_functionalizedCrystal
_audit_creation_method	'MofGen! by Chris Wilmer'
_symmetry_space_group_name_H-M	'P1'
_symmetry_Int_Tables_number	1
_symmetry_cell_setting	triclinic
loop_
_symmetry_equiv_pos_as_xyz
  x,y,z
_cell_length_a	12.594516
_cell_length_b	12.594517
_cell_length_c	10.686551
_cell_angle_alpha	94.402254
_cell_angle_beta	85.596700
_cell_angle_gamma	89.989009
loop_
_atom_site_label
_atom_site_type_symbol
_atom_site_fract_x
_atom_site_fract_y
_atom_site_fract_z
Zn1	Zn	-0.377626	-1.673488	-0.713702
Zn2	Zn	-0.569302	-1.659714	-0.502708
Zn3	Zn	-0.391324	-1.481826	-0.502693
Zn4	Zn	-0.555551	-1.495470	-0.713636
O5	O	-0.473451	-1.577625	-0.608185
O6	O	-0.403074	-1.820609	-0.685748
O7	O	-0.557181	-1.624643	-0.326123
O8	O	-0.240559	-1.507305	-0.530705
O9	O	-0.543898	-1.810489	-0.530731
O10	O	-0.230496	-1.648118	-0.685733
O11	O	-0.426421	-1.493950	-0.326112
O12	O	-0.413086	-1.334688	-0.530640
O13	O	-0.520461	-1.530558	-0.890227
O14	O	-0.533744	-1.344712	-0.685619
O15	O	-0.389740	-1.661348	-0.890276
O16	O	-0.716425	-1.637872	-0.530666
O17	O	-0.706322	-1.517203	-0.685634
C18	C	-0.473410	-1.301080	-0.608122
C19	C	-0.473416	-1.182774	-0.608125
C20	C	-0.407678	-1.108048	-0.523986
C21	C	-0.506771	-1.035227	-0.492946
C22	C	-0.374353	-1.044797	-0.639167
C23	C	-0.572565	-1.111507	-0.577025
C24	C	-0.440077	-1.121087	-0.723299
C25	C	-0.539235	-1.048300	-0.692303
C26	C	-0.749993	-1.577554	-0.608172
C27	C	-0.868296	-1.577624	-0.608209
C28	C	-0.932096	-1.511981	-0.692437
C29	C	-1.010417	-1.478590	-0.577290
C30	C	-1.000772	-1.611113	-0.723375
C31	C	-0.945063	-1.544178	-0.493002
C32	C	-0.935406	-1.676751	-0.639164
C33	C	-1.013700	-1.643392	-0.523938
C34	C	-0.195827	-1.577726	-0.608225
C35	C	-0.077521	-1.577770	-0.608242
C36	C	-0.452039	-1.599011	-0.937317
C37	C	-0.442914	-1.608125	-1.077574
C38	C	-0.473473	-0.855248	-0.608225
C39	C	-0.473431	-0.973551	-0.608183
C40	C	-0.494702	-1.556382	-0.280332
C41	C	-0.503527	-1.547475	-0.140076
H42	H	-0.534983	-0.997762	-0.395570
H43	H	-1.049161	-1.698961	-0.452641
O44	O	-0.889502	-1.445782	-0.777433
C45	C	-0.821892	-1.504494	-0.868880
H46	H	-0.845672	-1.591948	-0.872879
H47	H	-0.735979	-1.496499	-0.842926
C48	C	-0.802763	-1.353879	-0.993516
C49	C	-0.831976	-1.461291	-0.998436
H50	H	-0.808979	-1.327228	-1.073432
H51	H	-0.848310	-1.314322	-0.931905
H52	H	-0.731171	-1.347231	-0.971883
H53	H	-0.903571	-1.467936	-1.020053
H54	H	-0.786442	-1.500848	-1.060054
H55	H	-0.562404	-1.488580	-1.086287
H56	H	-0.656379	-1.140743	-0.550685
O57	O	-0.896174	-1.776640	-0.670649
C58	C	-0.924246	-1.811584	-0.792168
H59	H	-0.940647	-1.739667	-0.846521
H60	H	-0.998757	-1.862765	-0.784277
C61	C	-0.811959	-1.966094	-0.795387
C62	C	-0.832094	-1.877765	-0.862149
H63	H	-0.755119	-2.006922	-0.838554
H64	H	-0.793049	-1.942554	-0.713515
H65	H	-0.874059	-2.008733	-0.788816
H66	H	-0.770000	-1.835121	-0.868705
H67	H	-0.850992	-1.901299	-0.944023
O68	O	-1.049589	-1.378608	-0.546267
C69	C	-1.007793	-1.309571	-0.635265
H70	H	-0.981893	-1.357796	-0.727196
H71	H	-0.936225	-1.265788	-0.597677
C72	C	-1.125614	-1.168931	-0.546165
C73	C	-1.093811	-1.228160	-0.659080
H74	H	-1.178670	-1.118709	-0.560852
H75	H	-1.153770	-1.215440	-0.486201
H76	H	-1.065965	-1.132454	-0.514853
H77	H	-1.153456	-1.264646	-0.690382
H78	H	-1.065666	-1.181655	-0.719050
O79	O	-0.372692	-1.678307	-1.141936
C80	C	-0.378916	-1.672105	-1.272345
H81	H	-0.412619	-1.591101	-1.290199
H82	H	-0.433198	-1.737626	-1.309755
C83	C	-0.225469	-1.785738	-1.318215
C84	C	-0.266854	-1.686243	-1.340145
H85	H	-0.156345	-1.794463	-1.360040
H86	H	-0.221277	-1.789920	-1.230356
H87	H	-0.270714	-1.840327	-1.349390
H88	H	-0.221617	-1.631656	-1.308956
H89	H	-0.271036	-1.682052	-1.428000
H90	H	-0.352157	-1.134456	-0.452753
H91	H	-0.411838	-1.158576	-0.820646
O92	O	-0.274387	-1.009688	-0.670250
C93	C	-0.241304	-0.940062	-0.571220
H94	H	-0.288357	-0.957117	-0.479582
H95	H	-0.256054	-0.854192	-0.592453
C96	C	-0.063890	-0.936018	-0.670702
C97	C	-0.121675	-0.956972	-0.558149
H98	H	0.009904	-0.946444	-0.662641
H99	H	-0.086178	-0.982923	-0.737423
H100	H	-0.076193	-0.864460	-0.688383
H101	H	-0.109382	-1.028532	-0.540477
H102	H	-0.099382	-0.910079	-0.491424
O103	O	-0.605484	-1.016976	-0.777363
C104	C	-0.546859	-0.961342	-0.868918
H105	H	-0.459370	-0.985543	-0.872874
H106	H	-0.554981	-0.872032	-0.843119
C107	C	-0.697486	-0.958797	-0.993575
C108	C	-0.590032	-0.988528	-0.998442
H109	H	-0.724120	-0.975562	-1.073471
H110	H	-0.736985	-0.996276	-0.931891
H111	H	-0.704241	-0.884374	-0.972071
H112	H	-0.583281	-1.062952	-1.019930
H113	H	-0.550533	-0.951063	-1.060133
H114	H	-0.920475	-1.515816	-0.395593
H115	H	-1.025490	-1.639378	-0.820757
