data_functionalizedCrystal
_audit_creation_method	'MofGen! by Chris Wilmer'
_symmetry_space_group_name_H-M	'P1'
_symmetry_Int_Tables_number	1
_symmetry_cell_setting	triclinic
loop_
_symmetry_equiv_pos_as_xyz
  x,y,z
_cell_length_a	23.532407
_cell_length_b	19.188900
_cell_length_c	18.266242
_cell_angle_alpha	90.017742
_cell_angle_beta	89.989064
_cell_angle_gamma	97.009417
loop_
_atom_site_label
_atom_site_type_symbol
_atom_site_fract_x
_atom_site_fract_y
_atom_site_fract_z
O1	O	0.071020	-0.925936	-0.061030
O2	O	0.571020	-0.425936	0.438970
O3	O	0.080610	-0.722591	-0.061002
O4	O	0.580610	-0.222591	0.438998
O5	O	-0.007104	-0.830396	-0.061003
O6	O	0.492896	-0.330396	0.438997
O7	O	0.158734	-0.818132	-0.061029
O8	O	0.658734	-0.318132	0.438971
O9	O	-0.007109	-0.830377	0.060759
O10	O	0.492891	-0.330377	0.560759
O11	O	0.080605	-0.722573	0.060760
O12	O	0.580605	-0.222573	0.560760
O13	O	0.071016	-0.925917	0.060732
O14	O	0.571016	-0.425917	0.560732
Zn15	Zn	0.075810	-0.824242	0.080078
Zn16	Zn	0.575810	-0.324242	0.580078
Zn17	Zn	0.075816	-0.824267	-0.080348
Zn18	Zn	0.575816	-0.324267	0.419652
O19	O	0.158730	-0.818113	0.060733
O20	O	0.658730	-0.318113	0.560733
C21	C	0.080300	-0.696572	-0.000117
C22	C	0.580300	-0.196572	0.499883
C23	C	0.079376	-0.619069	-0.000105
C24	C	0.579376	-0.119069	0.499895
C25	C	0.078935	-0.582689	-0.066479
C26	C	0.578935	-0.082689	0.433521
C27	C	0.078061	-0.509868	-0.066486
C28	C	0.578061	-0.009868	0.433514
C29	C	0.077616	-0.473432	-0.000116
C30	C	0.577616	0.026568	0.499884
C31	C	0.078061	-0.509820	0.066266
C32	C	0.578061	-0.009820	0.566266
C33	C	0.078941	-0.582639	0.066272
C34	C	0.578941	-0.082639	0.566272
N35	N	0.043824	-0.364511	0.049284
N36	N	0.543824	0.135489	0.549284
N37	N	0.042987	-0.295337	0.049274
N38	N	0.542987	0.204663	0.549274
C39	C	0.074967	-0.254033	-0.000128
C40	C	0.574967	0.245967	0.499872
N41	N	0.107808	-0.284518	-0.049532
N42	N	0.607808	0.215482	0.450468
N43	N	0.108643	-0.353699	-0.049524
N44	N	0.608643	0.146301	0.450476
C45	C	0.076663	-0.394472	-0.000114
C46	C	0.576663	0.105528	0.499886
C47	C	0.073578	-0.138692	-0.066514
C48	C	0.573578	0.361308	0.433486
C49	C	0.072707	-0.065869	-0.066519
C50	C	0.572707	0.434131	0.433481
C51	C	0.072702	-0.065823	0.066235
C52	C	0.572702	0.434177	0.566235
C53	C	0.073578	-0.138644	0.066238
C54	C	0.573578	0.361356	0.566238
C55	C	0.074014	-0.175074	-0.000139
C56	C	0.574014	0.324926	0.499861
C57	C	-0.028323	-0.830074	-0.000121
C58	C	0.471677	-0.330074	0.499879
C59	C	-0.091542	-0.829135	-0.000115
C60	C	0.408458	-0.329135	0.499885
C61	C	-0.490527	-0.887042	-0.000163
C62	C	0.009473	-0.387042	0.499837
C63	C	-0.549929	-0.886170	-0.000168
C64	C	-0.049929	-0.386170	0.499832
O65	O	-0.586565	-0.939851	-0.000203
O66	O	-0.086565	-0.439851	0.499797
N67	N	-0.572686	-0.822080	-0.000159
N68	N	-0.072686	-0.322080	0.499841
C69	C	-0.536037	-0.758859	-0.000151
C70	C	-0.036037	-0.258859	0.499849
O71	O	-0.560848	-0.704266	-0.000144
O72	O	-0.060848	-0.204266	0.499856
C73	C	-0.476636	-0.759732	-0.000151
C74	C	0.023364	-0.259732	0.499849
C75	C	-0.453883	-0.823826	-0.000153
C76	C	0.046117	-0.323826	0.499847
C77	C	-0.467774	-0.951131	-0.000166
C78	C	0.032226	-0.451131	0.499834
C79	C	-0.408376	-0.952003	-0.000159
C80	C	0.091624	-0.452003	0.499841
C81	C	-0.371731	-0.888786	-0.000149
C82	C	0.128269	-0.388786	0.499851
C83	C	-0.394485	-0.824698	-0.000146
C84	C	0.105515	-0.324698	0.499854
C85	C	-0.439988	-0.696511	-0.000149
C86	C	0.060012	-0.196511	0.499851
C87	C	-0.380584	-0.697390	-0.000149
C88	C	0.119416	-0.197390	0.499851
C89	C	-0.357831	-0.761483	-0.000151
C90	C	0.142169	-0.261483	0.499849
C91	C	-0.298443	-0.762353	-0.000130
C92	C	0.201557	-0.262353	0.499870
N93	N	-0.275686	-0.826443	-0.000140
N94	N	0.224314	-0.326443	0.499860
C95	C	-0.312331	-0.889659	-0.000149
C96	C	0.187669	-0.389659	0.499851
C97	C	-0.660783	-0.757031	-0.000153
C98	C	-0.160783	-0.257031	0.499847
C99	C	-0.720183	-0.756157	-0.000148
C100	C	-0.220183	-0.256157	0.499852
C101	C	-0.734071	-0.883468	-0.000167
C102	C	-0.234071	-0.383468	0.499833
C103	C	-0.674670	-0.884341	-0.000166
C104	C	-0.174670	-0.384341	0.499834
C105	C	-0.638027	-0.821120	-0.000163
C106	C	-0.138027	-0.321120	0.499837
C107	C	-0.187590	-0.891485	-0.000134
C108	C	0.312410	-0.391485	0.499866
C109	C	-0.128186	-0.892352	-0.000125
C110	C	0.371814	-0.392352	0.499875
C111	C	-0.114303	-0.765041	-0.000110
C112	C	0.385697	-0.265041	0.499890
C113	C	-0.173702	-0.764174	-0.000116
C114	C	0.326298	-0.264174	0.499884
C115	C	-0.210344	-0.827402	-0.000131
C116	C	0.289656	-0.327402	0.499869
O117	O	-0.261773	-0.708701	-0.000098
O118	O	0.238227	-0.208701	0.499902
O119	O	-0.287512	-0.944243	-0.000166
O120	O	0.212488	-0.444243	0.499834
C121	C	0.179949	-0.818435	-0.000151
C122	C	0.679949	-0.318435	0.499849
C123	C	0.243168	-0.819374	-0.000162
C124	C	0.743168	-0.319374	0.499838
N125	N	0.075806	-0.824230	0.189565
N126	N	0.575806	-0.324230	0.689565
C127	C	0.071330	0.048063	-0.000149
C128	C	0.571330	0.548063	0.499851
C129	C	0.072264	-0.029438	-0.000148
C130	C	0.572264	0.470562	0.499852
C131	C	0.036985	-0.871981	0.227873
C132	C	0.536985	-0.371981	0.727873
C133	C	0.036983	-0.871985	0.304518
C134	C	0.536983	-0.371985	0.804518
C135	C	0.075811	-0.824245	0.342852
C136	C	0.575811	-0.324245	0.842852
C137	C	0.114634	-0.776485	0.304535
C138	C	0.614634	-0.276485	0.804535
C139	C	0.114632	-0.776478	0.227891
C140	C	0.614632	-0.276478	0.727891
N141	N	0.126227	-0.815008	0.463178
N142	N	0.626227	-0.315008	0.963178
N143	N	0.126227	-0.815019	0.535986
N144	N	0.626227	-0.315019	1.035986
C145	C	0.075819	-0.824263	0.573775
C146	C	0.575819	-0.324263	1.073775
N147	N	0.025409	-0.833510	0.536005
N148	N	0.525409	-0.333510	1.036005
N149	N	0.025409	-0.833502	0.463190
N150	N	0.525409	-0.333502	0.963190
C151	C	0.075817	-0.824247	0.425959
C152	C	0.575817	-0.324247	0.925959
C153	C	0.036992	-0.872021	0.695190
C154	C	0.536992	-0.372021	1.195190
C155	C	0.036989	-0.872020	0.771836
C156	C	0.536989	-0.372020	1.271836
C157	C	0.114646	-0.776523	0.771851
C158	C	0.614646	-0.276523	1.271851
C159	C	0.114644	-0.776521	0.695206
C160	C	0.614644	-0.276521	1.195206
C161	C	0.075818	-0.824273	0.656880
C162	C	0.575818	-0.324273	1.156880
N163	N	0.075817	-0.824279	0.810165
N164	N	0.575817	-0.324279	1.310165
H165	H	0.072344	-0.036157	0.120275
H166	H	0.572344	0.463843	0.620275
F167	F	-0.464191	-0.628293	-0.000150
F168	F	0.035809	-0.128293	0.499850
F169	F	-0.004334	-0.922842	0.812608
F170	F	0.495666	-0.422842	1.312608
H171	H	0.146248	-0.737613	0.335750
H172	H	0.646248	-0.237613	0.835750
H173	H	0.079301	-0.612259	0.120323
H174	H	0.579301	-0.112259	0.620323
H175	H	0.073939	-0.168354	-0.120562
H176	H	0.573939	0.331646	0.379438
H177	H	0.146258	-0.737650	0.803062
H178	H	0.646258	-0.237650	1.303062
F179	F	-0.506765	-1.018421	-0.000177
F180	F	-0.006765	-0.518421	0.499823
F181	F	-0.384168	-1.020221	-0.000177
F182	F	0.115832	-0.520221	0.499823
H183	H	0.146258	-0.737640	0.664014
H184	H	0.646258	-0.237640	1.164014
H185	H	-0.630950	-0.705545	-0.000144
H186	H	-0.130950	-0.205545	0.499856
H187	H	-0.350751	-0.645906	-0.000147
H188	H	0.149249	-0.145906	0.499853
H189	H	-0.738703	-0.703965	-0.000134
H190	H	-0.238703	-0.203965	0.499866
H191	H	0.005369	-0.910871	0.335714
H192	H	0.505369	-0.410871	0.835714
F193	F	-0.004338	-0.922800	0.187085
F194	F	0.495662	-0.422800	0.687085
H195	H	-0.192228	-0.711984	-0.000094
H196	H	0.307772	-0.211984	0.499906
H197	H	0.146245	-0.737592	0.196700
H198	H	0.646245	-0.237592	0.696700
F199	F	0.079400	-0.621456	-0.137123
F200	F	0.579400	-0.121456	0.362877
F201	F	0.072242	-0.027150	-0.137166
F202	F	0.572242	0.472850	0.362834
H203	H	0.077702	-0.480241	-0.120537
H204	H	0.577702	0.019759	0.379463
F205	F	-0.075294	-0.697765	-0.000099
F206	F	0.424706	-0.197765	0.499901
F207	F	-0.773081	-0.950749	-0.000181
F208	F	-0.273081	-0.450749	0.499819
H209	H	0.077701	-0.480149	0.120305
H210	H	0.577701	0.019851	0.620305
F211	F	-0.004332	-0.922841	0.654399
F212	F	0.495668	-0.422841	1.154399
F213	F	-0.103975	-0.960572	-0.000127
F214	F	0.396025	-0.460572	0.499873
F215	F	-0.226580	-0.958780	-0.000150
F216	F	0.273420	-0.458780	0.499850
F217	F	0.074045	-0.177365	0.136883
F218	F	0.574045	0.322635	0.636883
H219	H	-0.656149	-0.936532	-0.000169
H220	H	-0.156149	-0.436532	0.499831
