data_functionalizedCrystal
_audit_creation_method	'MofGen! by Chris Wilmer'
_symmetry_space_group_name_H-M	'P1'
_symmetry_Int_Tables_number	1
_symmetry_cell_setting	triclinic
loop_
_symmetry_equiv_pos_as_xyz
  x,y,z
_cell_length_a	21.295418
_cell_length_b	29.839131
_cell_length_c	21.295411
_cell_angle_alpha	90.020364
_cell_angle_beta	90.043738
_cell_angle_gamma	90.057233
loop_
_atom_site_label
_atom_site_type_symbol
_atom_site_fract_x
_atom_site_fract_y
_atom_site_fract_z
Zn1	Zn	0.962308	-0.178715	0.356239
Zn2	Zn	1.295641	0.154618	0.689573
Zn3	Zn	1.628975	0.487952	1.022906
Zn4	Zn	0.962190	-0.253830	0.250967
Zn5	Zn	1.295524	0.079503	0.584300
Zn6	Zn	1.628857	0.412836	0.917634
Zn7	Zn	0.857031	-0.178736	0.250949
Zn8	Zn	1.190365	0.154597	0.584282
Zn9	Zn	1.523698	0.487931	0.917616
Zn10	Zn	0.856981	-0.253839	0.356163
Zn11	Zn	1.190314	0.079494	0.689497
Zn12	Zn	1.523647	0.412827	1.022830
O13	O	0.909628	-0.216280	0.303580
O14	O	1.242961	0.117053	0.636913
O15	O	1.576294	0.450386	0.970246
O16	O	1.050382	-0.188667	0.342314
O17	O	1.383715	0.144667	0.675647
O18	O	1.717049	0.478000	1.008980
O19	O	0.948213	-0.243874	0.162875
O20	O	1.281546	0.089459	0.496208
O21	O	1.614880	0.422793	0.829542
O22	O	0.871067	-0.115866	0.264940
O23	O	1.204400	0.217467	0.598273
O24	O	1.537734	0.550801	0.931607
O25	O	1.050295	-0.243854	0.264971
O26	O	1.383629	0.089480	0.598304
O27	O	1.716962	0.422813	0.931637
O28	O	0.948413	-0.115851	0.342296
O29	O	1.281747	0.217483	0.675630
O30	O	1.615080	0.550816	1.008963
O31	O	0.870953	-0.188703	0.162862
O32	O	1.204286	0.144631	0.496195
O33	O	1.537619	0.477964	0.829529
O34	O	0.768935	-0.188711	0.264867
O35	O	1.102268	0.144622	0.598200
O36	O	1.435602	0.477956	0.931533
O37	O	0.870981	-0.243869	0.444263
O38	O	1.204314	0.089464	0.777596
O39	O	1.537647	0.422798	1.110930
O40	O	0.768898	-0.243889	0.342167
O41	O	1.102231	0.089444	0.675501
O42	O	1.435565	0.422777	1.008834
O43	O	0.948364	-0.188675	0.444319
O44	O	1.281698	0.144658	0.777652
O45	O	1.615031	0.477991	1.110985
O46	O	0.948164	-0.316699	0.264897
O47	O	1.281497	0.016635	0.598231
O48	O	1.614830	0.349968	0.931564
O49	O	0.870866	-0.316705	0.342185
O50	O	1.204200	0.016628	0.675518
O51	O	1.537533	0.349961	1.008851
C52	C	0.746076	-0.216304	0.303507
C53	C	1.079409	0.117030	0.636840
C54	C	1.412743	0.450363	0.970174
C55	C	0.676108	-0.216325	0.303491
C56	C	1.009441	0.117009	0.636824
C57	C	1.342774	0.450342	0.970158
C58	C	0.643238	-0.245094	0.343681
C59	C	0.976572	0.088239	0.677015
C60	C	1.309905	0.421573	1.010348
C61	C	0.577496	-0.245083	0.343710
C62	C	0.910829	0.088250	0.677043
C63	C	1.244162	0.421584	1.010376
C64	C	0.544625	-0.216307	0.303536
C65	C	0.877959	0.117026	0.636870
C66	C	1.211292	0.450359	0.970203
C67	C	0.577503	-0.187532	0.263343
C68	C	0.910836	0.145801	0.596677
C69	C	1.244169	0.479134	0.930010
C70	C	0.643244	-0.187541	0.263321
C71	C	0.976577	0.145792	0.596654
C72	C	1.309911	0.479126	0.929987
N73	N	0.441350	-0.212791	0.248479
N74	N	0.774684	0.120542	0.581812
N75	N	1.108017	0.453876	0.915145
N76	N	0.378899	-0.212785	0.248502
N77	N	0.712232	0.120548	0.581835
N78	N	1.045566	0.453881	0.915169
C79	C	0.346551	-0.216279	0.303603
C80	C	0.679884	0.117055	0.636936
C81	C	1.013217	0.450388	0.970270
N82	N	0.379013	-0.219787	0.358681
N83	N	0.712347	0.113547	0.692015
N84	N	1.045680	0.446880	1.025348
N85	N	0.441470	-0.219795	0.358657
N86	N	0.774804	0.113539	0.691991
N87	N	1.108137	0.446872	1.025324
C88	C	0.473340	-0.216294	0.303557
C89	C	0.806673	0.117039	0.636890
C90	C	1.140007	0.450372	0.970223
C91	C	0.242396	-0.245037	0.343827
C92	C	0.575729	0.088296	0.677161
C93	C	0.909062	0.421629	1.010494
C94	C	0.176652	-0.245023	0.343857
C95	C	0.509985	0.088310	0.677190
C96	C	0.843319	0.421643	1.010523
C97	C	0.176660	-0.187475	0.263485
C98	C	0.509994	0.145858	0.596818
C99	C	0.843327	0.479192	0.930152
C100	C	0.242403	-0.187487	0.263461
C101	C	0.575736	0.145846	0.596794
C102	C	0.909069	0.479180	0.930128
C103	C	0.275266	-0.216271	0.303632
C104	C	0.608600	0.117063	0.636965
C105	C	0.941933	0.450396	0.970298
C106	C	0.909514	-0.333003	0.303548
C107	C	1.242847	0.000331	0.636882
C108	C	1.576181	0.333664	0.970215
C109	C	0.909523	-0.382937	0.303556
C110	C	1.242856	-0.049604	0.636889
C111	C	1.576190	0.283729	0.970223
C112	C	0.949949	-0.692564	0.263395
C113	C	1.283283	-0.359231	0.596728
C114	C	1.616616	-0.025898	0.930062
C115	C	0.950027	-0.880238	0.263419
C116	C	1.283361	-0.546904	0.596753
C117	C	1.616694	-0.213571	0.930086
O118	O	0.984309	-0.904489	0.229249
O119	O	1.317642	-0.571155	0.562582
O120	O	1.650976	-0.237822	0.895916
N121	N	0.909758	-0.903722	0.303627
N122	N	1.243091	-0.570389	0.636960
N123	N	1.576425	-0.237056	0.970294
C124	C	0.869470	-0.880286	0.343835
C125	C	1.202803	-0.546952	0.677168
C126	C	1.536136	-0.213619	1.010501
O127	O	0.835225	-0.904567	0.378039
O128	O	1.168558	-0.571234	0.711372
O129	O	1.501891	-0.237900	1.044706
C130	C	0.869396	-0.692614	0.343813
C131	C	1.202729	-0.359280	0.677146
C132	C	1.536062	-0.025947	1.010479
C133	C	0.909663	-0.669131	0.303598
C134	C	1.242996	-0.335798	0.636931
C135	C	1.576330	-0.002465	0.970265
C136	C	0.990214	-0.669082	0.223184
C137	C	1.323547	-0.335749	0.556517
C138	C	1.656881	-0.002416	0.889850
C139	C	0.990192	-0.622167	0.223176
C140	C	1.323525	-0.288833	0.556509
C141	C	1.656858	0.044500	0.889842
C142	C	0.949905	-0.598734	0.263379
C143	C	1.283238	-0.265400	0.596712
C144	C	1.616572	0.067933	0.930045
C145	C	0.909641	-0.622216	0.303590
C146	C	1.242974	-0.288883	0.636923
C147	C	1.576307	0.044451	0.970256
C148	C	0.829111	-0.669178	0.384023
C149	C	1.162444	-0.335845	0.717356
C150	C	1.495778	-0.002511	1.050690
C151	C	0.829097	-0.622257	0.384015
C152	C	1.162430	-0.288924	0.717348
C153	C	1.495764	0.044410	1.050682
C154	C	0.869364	-0.598775	0.343800
C155	C	1.202698	-0.265441	0.677133
C156	C	1.536031	0.067892	1.010467
C157	C	0.869332	-0.551867	0.343785
C158	C	1.202665	-0.218534	0.677118
C159	C	1.535998	0.114799	1.010451
N160	N	0.909601	-0.528383	0.303577
N161	N	1.242934	-0.195049	0.636910
N162	N	1.576267	0.138284	0.970244
C163	C	0.949887	-0.551816	0.263374
C164	C	1.283221	-0.218482	0.596707
C165	C	1.616554	0.114851	0.930041
C166	C	0.869511	-0.978816	0.343842
C167	C	1.202844	-0.645483	0.677176
C168	C	1.536177	-0.312150	1.010509
C169	C	0.869528	-1.025734	0.343847
C170	C	1.202862	-0.692401	0.677180
C171	C	1.536195	-0.359067	1.010514
C172	C	0.950087	-1.025683	0.263432
C173	C	1.283420	-0.692349	0.596766
C174	C	1.616753	-0.359016	0.930099
C175	C	0.950065	-0.978764	0.263425
C176	C	1.283399	-0.645431	0.596758
C177	C	1.616732	-0.312097	0.930092
C178	C	0.909780	-0.955332	0.303634
C179	C	1.243113	-0.621998	0.636968
C180	C	1.576446	-0.288665	0.970301
C181	C	0.949837	-0.453290	0.263359
C182	C	1.283171	-0.119957	0.596693
C183	C	1.616504	0.213377	0.930026
C184	C	0.949810	-0.406370	0.263353
C185	C	1.283143	-0.073037	0.596686
C186	C	1.616476	0.260296	0.930020
C187	C	0.869254	-0.406426	0.343770
C188	C	1.202587	-0.073093	0.677103
C189	C	1.535920	0.260241	1.010436
C190	C	0.869279	-0.453341	0.343774
C191	C	1.202612	-0.120008	0.677107
C192	C	1.535945	0.213325	1.010441
C193	C	0.909576	-0.476772	0.303567
C194	C	1.242909	-0.143439	0.636900
C195	C	1.576242	0.189894	0.970233
O196	O	0.835073	-0.527587	0.377942
O197	O	1.168406	-0.194254	0.711276
O198	O	1.501739	0.139079	1.044609
O199	O	0.984137	-0.527526	0.229185
O200	O	1.317470	-0.194193	0.562518
O201	O	1.650804	0.139140	0.895851
C202	C	0.949972	-0.739480	0.263403
C203	C	1.283305	-0.406147	0.596736
C204	C	1.616638	-0.072813	0.930070
C205	C	0.909707	-0.762962	0.303614
C206	C	1.243041	-0.429629	0.636947
C207	C	1.576374	-0.096296	0.970281
C208	C	0.869421	-0.739529	0.343817
C209	C	1.202754	-0.406196	0.677150
C210	C	1.536087	-0.072862	1.010484
C211	C	0.909725	-0.809880	0.303619
C212	C	1.243058	-0.476547	0.636952
C213	C	1.576392	-0.143213	0.970286
C214	C	0.950012	-0.833313	0.263416
C215	C	1.283345	-0.499980	0.596749
C216	C	1.616678	-0.166647	0.930083
C217	C	0.990281	-0.809829	0.223208
C218	C	1.323614	-0.476495	0.556542
C219	C	1.656947	-0.143162	0.889875
C220	C	0.990258	-0.762913	0.223200
C221	C	1.323592	-0.429580	0.556533
C222	C	1.656925	-0.096246	0.889867
C223	C	0.829152	-0.763014	0.384025
C224	C	1.162485	-0.429680	0.717358
C225	C	1.495818	-0.096347	1.050692
C226	C	0.829177	-0.809929	0.384029
C227	C	1.162510	-0.476596	0.717363
C228	C	1.495843	-0.143263	1.050696
C229	C	0.869463	-0.833362	0.343826
C230	C	1.202797	-0.500029	0.677160
C231	C	1.536130	-0.166696	1.010493
C232	C	1.073818	-0.216257	0.303653
C233	C	1.407151	0.117077	0.636986
C234	C	1.740485	0.450410	0.970319
C235	C	1.143786	-0.216247	0.303684
C236	C	1.477119	0.117087	0.637017
C237	C	1.810453	0.450420	0.970351
C238	C	0.909680	-0.216271	0.467770
C239	C	1.243013	0.117063	0.801103
C240	C	1.576347	0.450396	1.134437
C241	C	0.909702	-0.216267	0.537738
C242	C	1.243035	0.117067	0.871071
C243	C	1.576369	0.450400	1.204405
C244	C	0.909759	-0.099102	0.303625
C245	C	1.243092	0.234232	0.636958
C246	C	1.576426	0.567565	0.970291
C247	C	0.909815	-0.049167	0.303644
C248	C	1.243148	0.284166	0.636977
C249	C	1.576481	0.617499	0.970311
C250	C	0.909612	-0.216257	0.140028
C251	C	1.242945	0.117076	0.473361
C252	C	1.576278	0.450409	0.806695
C253	C	0.909712	-0.216135	0.070060
C254	C	1.243045	0.117199	0.403394
C255	C	1.576378	0.450532	0.736727
C256	C	0.949994	-0.187526	0.570635
C257	C	1.283327	0.145807	0.903968
C258	C	1.616661	0.479141	1.237301
C259	C	0.949993	-0.187507	0.636377
C260	C	1.283327	0.145827	0.969711
C261	C	1.616660	0.479160	1.303044
C262	C	0.909707	-0.216236	0.669221
C263	C	1.243040	0.117098	1.002554
C264	C	1.576374	0.450431	1.335887
C265	C	0.869407	-0.244978	0.636316
C266	C	1.202741	0.088355	0.969649
C267	C	1.536074	0.421688	1.302983
C268	C	0.869405	-0.244994	0.570575
C269	C	1.202738	0.088340	0.903908
C270	C	1.536071	0.421673	1.237241
N271	N	0.904840	-0.255537	0.772436
N272	N	1.238173	0.077796	1.105769
N273	N	1.571506	0.411130	1.439102
N274	N	0.904846	-0.255521	0.834887
N275	N	1.238179	0.077812	1.168220
N276	N	1.571513	0.411146	1.501554
C277	C	0.909711	-0.216190	0.867295
C278	C	1.243044	0.117143	1.200629
C279	C	1.576378	0.450477	1.533962
N280	N	0.914582	-0.176875	0.834893
N281	N	1.247916	0.156458	1.168226
N282	N	1.581249	0.489792	1.501560
N283	N	0.914580	-0.176891	0.772436
N284	N	1.247913	0.156442	1.105769
N285	N	1.581246	0.489775	1.439103
C286	C	0.909705	-0.216222	0.740506
C287	C	1.243038	0.117111	1.073839
C288	C	1.576372	0.450445	1.407173
C289	C	0.950004	-0.187426	0.971478
C290	C	1.283337	0.145907	1.304811
C291	C	1.616671	0.479241	1.638144
C292	C	0.949999	-0.187406	1.037221
C293	C	1.283332	0.145928	1.370555
C294	C	1.616666	0.479261	1.703888
C295	C	0.869416	-0.244882	1.037159
C296	C	1.202750	0.088452	1.370492
C297	C	1.536083	0.421785	1.703826
C298	C	0.869418	-0.244898	0.971417
C299	C	1.202752	0.088436	1.304750
C300	C	1.536085	0.421769	1.638083
C301	C	0.909716	-0.216171	0.938580
C302	C	1.243049	0.117163	1.271913
C303	C	1.576382	0.450496	1.605246
H304	H	0.269155	-0.268472	0.376540
H305	H	0.602488	0.064861	0.709873
H306	H	0.935821	0.398194	1.043206
H307	H	0.982807	-0.164134	0.543903
H308	H	1.316140	0.169200	0.877236
H309	H	1.649473	0.502533	1.210570
N310	N	1.031381	-0.738926	0.182116
N311	N	1.364714	-0.405593	0.515449
N312	N	1.698048	-0.072259	0.848783
N313	N	1.009240	-0.712784	0.141966
N314	N	1.342573	-0.379451	0.475300
N315	N	1.675907	-0.046117	0.808633
H316	H	1.038283	-0.695846	0.112946
H317	H	1.371617	-0.362513	0.446279
H318	H	1.704950	-0.029179	0.779613
N319	N	0.787934	-0.598323	0.425079
N320	N	1.121267	-0.264989	0.758412
N321	N	1.454601	0.068344	1.091746
N322	N	0.747816	-0.572190	0.402879
N323	N	1.081149	-0.238856	0.736212
N324	N	1.414482	0.094477	1.069545
H325	H	0.718743	-0.555286	0.431878
H326	H	1.052076	-0.221953	0.765212
H327	H	1.385409	0.111380	1.098545
N328	N	0.991157	-0.158073	0.937940
N329	N	1.324490	0.175260	1.271273
N330	N	1.657823	0.508594	1.604607
N331	N	0.987023	-0.116617	0.945280
N332	N	1.320356	0.216716	1.278614
N333	N	1.653690	0.550049	1.611947
H334	H	1.016086	-0.095885	0.921596
H335	H	1.349420	0.237448	1.254929
H336	H	1.682753	0.570781	1.588263
H337	H	0.836608	-0.268269	1.063899
H338	H	1.169941	0.065064	1.397233
H339	H	1.503275	0.398398	1.730566
H340	H	0.796381	-0.829044	0.416777
H341	H	1.129714	-0.495711	0.750110
H342	H	1.463047	-0.162378	1.083443
N343	N	0.676822	-0.158161	0.222253
N344	N	1.010156	0.175172	0.555586
N345	N	1.343489	0.508506	0.888920
N346	N	0.713431	-0.173933	0.182085
N347	N	1.046765	0.159401	0.515418
N348	N	1.380098	0.492734	0.848751
H349	H	0.737147	-0.153184	0.153078
H350	H	1.070481	0.180150	0.486411
H351	H	1.403814	0.513483	0.819745
H352	H	0.982802	-0.164100	0.663167
H353	H	1.316136	0.169233	0.996500
H354	H	1.649469	0.502567	1.329834
N355	N	0.543901	-0.274474	0.384754
N356	N	0.877235	0.058860	0.718087
N357	N	1.210568	0.392193	1.051420
N358	N	0.485204	-0.274462	0.384763
N359	N	0.818538	0.058871	0.718096
N360	N	1.151871	0.392204	1.051430
H361	H	0.461478	-0.295220	0.413749
H362	H	0.794812	0.038113	0.747083
H363	H	1.128145	0.371447	1.080416
N364	N	0.143062	-0.274407	0.384910
N365	N	0.476395	0.058926	0.718244
N366	N	0.809729	0.392260	1.051577
N367	N	0.106448	-0.258640	0.425078
N368	N	0.439781	0.074693	0.758411
N369	N	0.773115	0.408027	1.091744
H370	H	0.082723	-0.279393	0.454071
H371	H	0.416056	0.053941	0.787405
H372	H	0.749389	0.387274	1.120738
N373	N	0.990996	-0.477226	0.222294
N374	N	1.324329	-0.143892	0.555627
N375	N	1.657662	0.189441	0.888960
N376	N	1.031115	-0.503361	0.244486
N377	N	1.364449	-0.170027	0.577820
N378	N	1.697782	0.163306	0.911153
H379	H	1.060181	-0.520266	0.215481
H380	H	1.393514	-0.186932	0.548815
H381	H	1.726848	0.146401	0.882148
N382	N	0.828250	-0.274326	0.669852
N383	N	1.161583	0.059007	1.003185
N384	N	1.494917	0.392341	1.336518
N385	N	0.792274	-0.299985	0.640468
N386	N	1.125607	0.033349	0.973802
N387	N	1.458940	0.366682	1.307135
H388	H	0.763200	-0.320710	0.664152
H389	H	1.096534	0.012623	0.997485
H390	H	1.429867	0.345957	1.330818
N391	N	0.991158	-0.158040	1.070817
N392	N	1.324491	0.175293	1.404151
N393	N	1.657825	0.508627	1.737484
N394	N	1.027131	-0.132394	1.041488
N395	N	1.360464	0.200939	1.374821
N396	N	1.693797	0.534272	1.708154
H397	H	1.056200	-0.111654	1.065215
H398	H	1.389534	0.221679	1.398548
H399	H	1.722867	0.555013	1.731881
N400	N	0.828240	-0.274354	0.536978
N401	N	1.161573	0.058979	0.870311
N402	N	1.494906	0.392312	1.203645
N403	N	0.792267	-0.300001	0.566306
N404	N	1.125601	0.033332	0.899639
N405	N	1.458934	0.366665	1.232973
H406	H	0.763194	-0.320738	0.542578
H407	H	1.096527	0.012595	0.875911
H408	H	1.429860	0.345928	1.209244
H409	H	0.149898	-0.164043	0.230778
H410	H	0.483231	0.169290	0.564111
H411	H	0.816565	0.502623	0.897445
H412	H	1.023082	-0.828916	0.190472
H413	H	1.356415	-0.495583	0.523805
H414	H	1.689748	-0.162249	0.857138
H415	H	1.022982	-0.603050	0.190431
H416	H	1.356316	-0.269717	0.523764
H417	H	1.689649	0.063616	0.857098
N418	N	0.991207	-0.954779	0.222358
N419	N	1.324541	-0.621446	0.555691
N420	N	1.657874	-0.288112	0.889025
N421	N	1.031304	-0.928558	0.244551
N422	N	1.364638	-0.595224	0.577885
N423	N	1.697971	-0.261891	0.911218
H424	H	1.060363	-0.911620	0.215547
H425	H	1.393697	-0.578286	0.548881
H426	H	1.727030	-0.244953	0.882214
N427	N	0.543920	-0.158139	0.222315
N428	N	0.877253	0.175195	0.555649
N429	N	1.210587	0.508528	0.888982
N430	N	0.485223	-0.158134	0.222341
N431	N	0.818557	0.175199	0.555674
N432	N	1.151890	0.508532	0.889007
H433	H	0.461505	-0.137372	0.193366
H434	H	0.794838	0.195961	0.526699
H435	H	1.128171	0.529294	0.860032
N436	N	0.275972	-0.158098	0.222401
N437	N	0.609306	0.175236	0.555735
N438	N	0.942639	0.508569	0.889068
N439	N	0.246619	-0.132406	0.186536
N440	N	0.579952	0.200928	0.519870
N441	N	0.913286	0.534261	0.853203
H442	H	0.270327	-0.111647	0.157537
H443	H	0.603660	0.221687	0.490870
H444	H	0.936993	0.555020	0.824203
H445	H	0.669992	-0.268531	0.376392
H446	H	1.003325	0.064802	0.709725
H447	H	1.336658	0.398135	1.043059
N448	N	0.990944	-0.382391	0.222265
N449	N	1.324277	-0.049058	0.555599
N450	N	1.657611	0.284275	0.888932
N451	N	1.026911	-0.403323	0.186374
N452	N	1.360244	-0.069990	0.519707
N453	N	1.693577	0.263344	0.853041
H454	H	1.055962	-0.386390	0.157356
H455	H	1.389295	-0.053057	0.490689
H456	H	1.722628	0.280277	0.824023
H457	H	1.023023	-0.688157	0.190445
H458	H	1.356357	-0.354823	0.523779
H459	H	1.689690	-0.021490	0.857112
N460	N	0.991233	-1.049631	0.222367
N461	N	1.324566	-0.716297	0.555700
N462	N	1.657899	-0.382964	0.889033
N463	N	0.991238	-1.091521	0.222383
N464	N	1.324571	-0.758188	0.555716
N465	N	1.657904	-0.424854	0.889049
H466	H	1.020297	-1.108437	0.193384
H467	H	1.353631	-0.775104	0.526717
H468	H	1.686964	-0.441770	0.860051
N469	N	0.828382	-1.049711	0.384919
N470	N	1.161715	-0.716377	0.718253
N471	N	1.495049	-0.383044	1.051586
N472	N	0.792417	-1.028777	0.420810
N473	N	1.125750	-0.695444	0.754143
N474	N	1.459083	-0.362110	1.087476
H475	H	0.763357	-1.045709	0.449820
H476	H	1.096690	-0.712375	0.783154
H477	H	1.430023	-0.379042	1.116487
H478	H	0.836704	-0.959741	0.376586
H479	H	1.170037	-0.626407	0.709920
H480	H	1.503370	-0.293074	1.043253
H481	H	0.796318	-0.688289	0.416767
H482	H	1.129651	-0.354956	0.750101
H483	H	1.462985	-0.021623	1.083434
H484	H	0.836492	-0.472462	0.376522
H485	H	1.169825	-0.139128	0.709855
H486	H	1.503159	0.194205	1.043189
H487	H	0.836451	-0.387339	0.376501
H488	H	1.169784	-0.054006	0.709834
H489	H	1.503117	0.279327	1.043167
N490	N	0.828257	-0.274260	0.937819
N491	N	1.161591	0.059074	1.271153
N492	N	1.494924	0.392407	1.604486
N493	N	0.792288	-0.299908	0.967148
N494	N	1.125621	0.033426	1.300482
N495	N	1.458954	0.366759	1.633815
H496	H	0.763214	-0.320645	0.943421
H497	H	1.096547	0.012688	1.276754
H498	H	1.429880	0.346022	1.610088
H499	H	0.796346	-0.743938	0.416764
H500	H	1.129679	-0.410605	0.750097
H501	H	1.463013	-0.077271	1.083431
