data_functionalizedCrystal
_audit_creation_method	'MofGen! by Chris Wilmer'
_symmetry_space_group_name_H-M	'P1'
_symmetry_Int_Tables_number	1
_symmetry_cell_setting	triclinic
loop_
_symmetry_equiv_pos_as_xyz
  x,y,z
_cell_length_a	18.101398
_cell_length_b	18.101395
_cell_length_c	13.897441
_cell_angle_alpha	89.969302
_cell_angle_beta	89.972311
_cell_angle_gamma	90.028835
loop_
_atom_site_label
_atom_site_type_symbol
_atom_site_fract_x
_atom_site_fract_y
_atom_site_fract_z
Zn1	Zn	1.132142	-0.294851	-0.545559
Zn2	Zn	1.132032	-0.418706	-0.384261
Zn3	Zn	1.008295	-0.294878	-0.384258
Zn4	Zn	1.008252	-0.418650	-0.545494
O5	O	1.070180	-0.356771	-0.464893
O6	O	1.235760	-0.311293	-0.524191
O7	O	1.115590	-0.402315	-0.249279
O8	O	1.024788	-0.191242	-0.405682
O9	O	1.235679	-0.402289	-0.405686
O10	O	1.115778	-0.191222	-0.524189
O11	O	1.024681	-0.311340	-0.249277
O12	O	0.904656	-0.311285	-0.405618
O13	O	1.024714	-0.402193	-0.680484
O14	O	0.904625	-0.402219	-0.524077
O15	O	1.115736	-0.311238	-0.680532
O16	O	1.115548	-0.522332	-0.405622
O17	O	1.024607	-0.522290	-0.524079
C18	C	0.877770	-0.356750	-0.464841
C19	C	0.795456	-0.356758	-0.464841
C20	C	0.644747	-0.356773	-0.464884
C21	C	0.613388	-0.299478	-0.390477
C22	C	0.527770	-0.299262	-0.390722
C23	C	0.496365	-0.356788	-0.464925
C24	C	0.527508	-0.335950	-0.566696
C25	C	0.613153	-0.335526	-0.566242
C26	C	0.613142	-0.435055	-0.438419
C27	C	0.527491	-0.434643	-0.436201
C28	C	0.412505	-0.356798	-0.464955
C29	C	0.728607	-0.356762	-0.464862
C30	C	1.070081	-0.549182	-0.464865
C31	C	1.070106	-0.631496	-0.464885
C32	C	1.070269	-0.930587	-0.464937
C33	C	1.013184	-0.899267	-0.539652
C34	C	1.012913	-0.813649	-0.539418
C35	C	1.070188	-0.782204	-0.464912
C36	C	1.049055	-0.813360	-0.363250
C37	C	1.048687	-0.899005	-0.363697
C38	C	1.148612	-0.898933	-0.490989
C39	C	1.148151	-0.813281	-0.493218
C40	C	1.070144	-0.698345	-0.464891
C41	C	1.070311	-1.014446	-0.464950
C42	C	1.263342	-0.356794	-0.464946
C43	C	1.345656	-0.356803	-0.464969
C44	C	1.070233	-0.356706	-0.716486
C45	C	1.070255	-0.356678	-0.823700
C46	C	1.070300	-0.163609	-0.464943
C47	C	1.070351	-0.081295	-0.464964
C48	C	1.070275	-0.356628	-1.019995
C49	C	1.070262	-0.356658	-0.910763
C50	C	1.070170	-0.356783	-0.214279
C51	C	1.070292	-0.356602	-0.107065
H52	H	0.634700	-0.454083	-0.365447
N53	N	0.940782	-0.926340	-0.518256
N54	N	0.911752	-0.912489	-0.438662
H55	H	0.860618	-0.931611	-0.423545
N56	N	1.098558	-0.925002	-0.291452
N57	N	1.088420	-0.908132	-0.205247
H58	H	1.123632	-0.926492	-0.154215
N59	N	0.502006	-0.386708	-0.638174
N60	N	0.517034	-0.453881	-0.631067
H61	H	0.499022	-0.489731	-0.681548
H62	H	1.191142	-0.919187	-0.436571
H63	H	1.167878	-0.920478	-0.563858
N64	N	1.168158	-0.787710	-0.587060
N65	N	1.225228	-0.749756	-0.598271
H66	H	1.239357	-0.731689	-0.664546
H67	H	0.506089	-0.279371	-0.589461
H68	H	1.026275	-0.919811	-0.615277
N69	N	0.940063	-0.788031	-0.517771
N70	N	0.889263	-0.833406	-0.502782
H71	H	0.837808	-0.815315	-0.487491
H72	H	1.192932	-0.791873	-0.442767
H73	H	0.507132	-0.450361	-0.361302
H74	H	0.991419	-0.919046	-0.341629
N75	N	0.501332	-0.315551	-0.296075
N76	N	0.433424	-0.318169	-0.280060
H77	H	0.414753	-0.329667	-0.213210
N78	N	1.099562	-0.787823	-0.291490
N79	N	1.136567	-0.833199	-0.243829
H80	H	1.172238	-0.815164	-0.193147
N81	N	0.500666	-0.491030	-0.499196
N82	N	0.457984	-0.474680	-0.566593
H83	H	0.439038	-0.514501	-0.611092
H84	H	0.633927	-0.312331	-0.314778
H85	H	0.992393	-0.791974	-0.340787
N86	N	0.502110	-0.226498	-0.412778
N87	N	0.519275	-0.196895	-0.490938
H88	H	0.501154	-0.145502	-0.506519
N89	N	0.638588	-0.488597	-0.506403
N90	N	0.679819	-0.469288	-0.574078
H91	H	0.697794	-0.507097	-0.622096
H92	H	0.634937	-0.241801	-0.407823
H93	H	1.026135	-0.792582	-0.614799
H94	H	0.633902	-0.375460	-0.623600
N95	N	0.638244	-0.263754	-0.594314
N96	N	0.592502	-0.214325	-0.614102
H97	H	0.610218	-0.163633	-0.633929
