data_functionalizedCrystal
_audit_creation_method	'MofGen! by Chris Wilmer'
_symmetry_space_group_name_H-M	'P1'
_symmetry_Int_Tables_number	1
_symmetry_cell_setting	triclinic
loop_
_symmetry_equiv_pos_as_xyz
  x,y,z
_cell_length_a	17.699097
_cell_length_b	16.956984
_cell_length_c	16.176319
_cell_angle_alpha	89.992579
_cell_angle_beta	89.988988
_cell_angle_gamma	79.670925
loop_
_atom_site_label
_atom_site_type_symbol
_atom_site_fract_x
_atom_site_fract_y
_atom_site_fract_z
O1	O	0.997935	0.100901	-0.068815
O2	O	1.331269	0.434235	0.264518
O3	O	1.664602	0.767568	0.597852
O4	O	0.776761	0.114011	-0.068802
O5	O	1.110094	0.447345	0.264532
O6	O	1.443428	0.780678	0.597865
O7	O	0.900636	-0.008648	-0.068803
O8	O	1.233969	0.324686	0.264530
O9	O	1.567303	0.658019	0.597863
O10	O	0.874060	0.223560	-0.068813
O11	O	1.207394	0.556894	0.264520
O12	O	1.540727	0.890227	0.597853
O13	O	0.900621	-0.008655	0.068690
O14	O	1.233954	0.324678	0.402023
O15	O	1.567287	0.658011	0.735356
O16	O	0.776746	0.114004	0.068691
O17	O	1.110079	0.447337	0.402025
O18	O	1.443412	0.780670	0.735358
O19	O	0.997920	0.100894	0.068678
O20	O	1.331253	0.434227	0.402011
O21	O	1.664587	0.767560	0.735345
Cu22	Cu	0.887331	0.107448	0.081239
Cu23	Cu	1.220665	0.440781	0.414572
Cu24	Cu	1.553998	0.774115	0.747906
Cu25	Cu	0.887350	0.107457	-0.081363
Cu26	Cu	1.220683	0.440790	0.251971
Cu27	Cu	1.554016	0.774124	0.585304
O28	O	0.874045	0.223553	0.068680
O29	O	1.207378	0.556886	0.402013
O30	O	1.540712	0.890219	0.735346
C31	C	0.748585	0.113536	-0.000053
C32	C	1.081919	0.446869	0.333280
C33	C	1.415252	0.780203	0.666613
C34	C	0.664654	0.112121	-0.000048
C35	C	0.997987	0.445455	0.333285
C36	C	1.331320	0.778788	0.666619
C37	C	0.149471	0.103454	-0.075029
C38	C	0.482805	0.436788	0.258305
C39	C	0.816138	0.770121	0.591638
C40	C	0.228335	0.104778	-0.075025
C41	C	0.561668	0.438111	0.258309
C42	C	0.895002	0.771445	0.591642
C43	C	0.267752	0.105437	-0.000074
C44	C	0.601085	0.438770	0.333260
C45	C	0.934419	0.772104	0.666593
C46	C	0.228303	0.104764	0.074878
C47	C	0.561636	0.438097	0.408211
C48	C	0.894970	0.771431	0.741545
C49	C	0.149442	0.103434	0.074873
C50	C	0.482775	0.436768	0.408206
C51	C	0.816109	0.770101	0.741540
C52	C	0.546341	0.110124	0.074900
C53	C	0.879674	0.443458	0.408233
C54	C	1.213008	0.776791	0.741566
C55	C	0.625207	0.111456	0.074899
C56	C	0.958541	0.444790	0.408232
C57	C	1.291874	0.778123	0.741565
C58	C	0.625234	0.111468	-0.074998
C59	C	0.958567	0.444801	0.258335
C60	C	1.291901	0.778135	0.591668
C61	C	0.546373	0.110139	-0.075003
C62	C	0.879706	0.443472	0.258330
C63	C	1.213040	0.776805	0.591664
C64	C	0.506932	0.109461	-0.000052
C65	C	0.840265	0.442795	0.333281
C66	C	1.173598	0.776128	0.666615
C67	C	0.421419	0.108024	-0.000057
C68	C	0.754752	0.441358	0.333276
C69	C	1.088086	0.774691	0.666609
C70	C	0.353262	0.106880	-0.000068
C71	C	0.686595	0.440213	0.333266
C72	C	1.019929	0.773546	0.666599
C73	C	0.901989	-0.038362	-0.000057
C74	C	1.235323	0.294971	0.333276
C75	C	1.568656	0.628305	0.666609
C76	C	0.906035	-0.126890	-0.000058
C77	C	1.239368	0.206443	0.333275
C78	C	1.572702	0.539776	0.666608
C79	C	0.838388	-0.158847	-0.000058
C80	C	1.171721	0.174486	0.333276
C81	C	1.505055	0.507820	0.666609
C82	C	0.842194	-0.242029	-0.000056
C83	C	1.175527	0.091304	0.333278
C84	C	1.508861	0.424637	0.666611
C85	C	0.913648	-0.293254	-0.000060
C86	C	1.246981	0.040080	0.333273
C87	C	1.580315	0.373413	0.666606
C88	C	0.981300	-0.261292	-0.000058
C89	C	1.314634	0.072041	0.333275
C90	C	1.647967	0.405375	0.666608
C91	C	0.977493	-0.178111	-0.000054
C92	C	1.310827	0.155222	0.333279
C93	C	1.644160	0.488556	0.666612
C94	C	0.932491	-0.543062	-0.000067
C95	C	1.265825	-0.209729	0.333267
C96	C	1.599158	0.123605	0.666600
C97	C	0.936293	-0.626248	-0.000073
C98	C	1.269626	-0.292915	0.333260
C99	C	1.602960	0.040419	0.666593
C100	C	0.797186	-0.606980	-0.000069
C101	C	1.130520	-0.273646	0.333264
C102	C	1.463853	0.059687	0.666597
C103	C	0.793386	-0.523798	-0.000070
C104	C	1.126719	-0.190465	0.333263
C105	C	1.460053	0.142869	0.666596
C106	C	0.861038	-0.491843	-0.000064
C107	C	1.194371	-0.158510	0.333269
C108	C	1.527705	0.174823	0.666603
N109	N	0.917540	-0.378280	-0.000061
N110	N	1.250873	-0.044946	0.333273
N111	N	1.584207	0.288387	0.666606
N112	N	0.857145	-0.406819	-0.000057
N113	N	1.190478	-0.073485	0.333276
N114	N	1.523812	0.259848	0.666609
C115	C	1.026096	0.101369	-0.000072
C116	C	1.359429	0.434702	0.333261
C117	C	1.692762	0.768036	0.666595
C118	C	1.110027	0.102784	-0.000083
C119	C	1.443361	0.436117	0.333251
C120	C	1.776694	0.769450	0.666584
C121	C	0.872692	0.253267	-0.000068
C122	C	1.206025	0.586600	0.333265
C123	C	1.539358	0.919934	0.666598
C124	C	0.868646	0.341795	-0.000073
C125	C	1.201979	0.675129	0.333261
C126	C	1.535313	1.008462	0.666594
N127	N	0.887324	0.107441	0.195604
N128	N	1.220657	0.440774	0.528938
N129	N	1.553991	0.774108	0.862271
N130	N	0.887363	0.107458	-0.195728
N131	N	1.220697	0.440791	0.137605
N132	N	1.554030	0.774124	0.470939
C133	C	0.942190	0.053150	0.238868
C134	C	1.275523	0.386483	0.572201
C135	C	1.608857	0.719816	0.905534
C136	C	0.942194	0.053149	0.325415
C137	C	1.275527	0.386482	0.658748
C138	C	1.608861	0.719816	0.992081
C139	C	0.887335	0.107444	0.368697
C140	C	1.220668	0.440777	0.702030
C141	C	1.554001	0.774110	1.035363
C142	C	0.832463	0.161737	0.325427
C143	C	1.165796	0.495071	0.658761
C144	C	1.499130	0.828404	0.992094
C145	C	0.832456	0.161734	0.238882
C146	C	1.165790	0.495067	0.572215
C147	C	1.499123	0.828400	0.905548
C148	C	0.832488	0.161752	0.674456
C149	C	1.165821	0.495086	1.007789
C150	C	1.499155	0.828419	1.341122
C151	C	0.832500	0.161753	0.761007
C152	C	1.165834	0.495087	1.094340
C153	C	1.499167	0.828420	1.427674
C154	C	0.942225	0.053167	0.760988
C155	C	1.275559	0.386501	1.094322
C156	C	1.608892	0.719834	1.427655
C157	C	0.942219	0.053164	0.674443
C158	C	1.275552	0.386497	1.007776
C159	C	1.608886	0.719830	1.341110
C160	C	0.887345	0.107454	0.631181
C161	C	1.220678	0.440788	0.964514
C162	C	1.554012	0.774121	1.297848
C163	C	0.887341	0.107454	0.537337
C164	C	1.220674	0.440787	0.870670
C165	C	1.554007	0.774120	1.204004
C166	C	0.887342	0.107449	0.462539
C167	C	1.220675	0.440782	0.795873
C168	C	1.554008	0.774115	1.129206
H169	H	0.514240	0.109561	0.135929
H170	H	0.847573	0.442895	0.469263
H171	H	1.180906	0.776228	0.802596
H172	H	0.514283	0.109606	-0.136036
H173	H	0.847616	0.442939	0.197297
H174	H	1.180949	0.776273	0.530631
C175	C	1.002540	-0.006580	0.191265
C176	C	1.335874	0.326753	0.524599
C177	C	1.669207	0.660086	0.857932
N178	N	1.047996	-0.051573	0.155414
N179	N	1.381329	0.281760	0.488747
N180	N	1.714663	0.615093	0.822080
H181	H	0.260404	0.105295	0.135904
H182	H	0.593737	0.438629	0.469238
H183	H	0.927070	0.771962	0.802571
H184	H	0.987578	-0.517055	-0.000064
H185	H	1.320912	-0.183722	0.333270
H186	H	1.654245	0.149611	0.666603
C187	C	1.002534	-0.006595	0.373001
C188	C	1.335867	0.326738	0.706334
C189	C	1.669201	0.660072	1.039667
N190	N	1.047978	-0.051604	0.408842
N191	N	1.381312	0.281729	0.742175
N192	N	1.714645	0.615063	1.075508
C193	C	1.059901	-0.317642	-0.000061
C194	C	1.393234	0.015691	0.333272
C195	C	1.726567	0.349025	0.666606
N196	N	1.119104	-0.360084	-0.000066
N197	N	1.452437	-0.026751	0.333267
N198	N	1.785771	0.306582	0.666600
C199	C	1.051911	-0.142960	-0.000057
C200	C	1.385244	0.190373	0.333276
C201	C	1.718577	0.523707	0.666609
N202	N	1.107964	-0.116486	-0.000057
N203	N	1.441298	0.216848	0.333276
N204	N	1.774631	0.550181	0.666609
C205	C	1.002567	-0.006566	0.626837
C206	C	1.335900	0.326767	0.960171
C207	C	1.669233	0.660100	1.293504
N208	N	1.048020	-0.051559	0.590982
N209	N	1.381353	0.281774	0.924316
N210	N	1.714686	0.615107	1.257649
C211	C	0.714781	-0.467456	-0.000077
C212	C	1.048114	-0.134123	0.333257
C213	C	1.381448	0.199210	0.666590
N214	N	0.655574	-0.425020	-0.000089
N215	N	0.988908	-0.091686	0.333245
N216	N	1.322241	0.241647	0.666578
H217	H	0.117326	0.102897	0.135902
H218	H	0.450659	0.436230	0.469235
H219	H	0.783993	0.769563	0.802568
H220	H	0.986905	0.008958	0.796222
H221	H	1.320238	0.342292	1.129555
H222	H	1.653571	0.675625	1.462888
C223	C	0.772143	0.221480	0.808616
C224	C	1.105476	0.554813	1.141949
C225	C	1.438810	0.888146	1.475282
N226	N	0.726684	0.266462	0.844474
N227	N	1.060017	0.599796	1.177808
N228	N	1.393351	0.933129	1.511141
C229	C	0.759782	-0.102507	-0.000054
C230	C	1.093115	0.230826	0.333279
C231	C	1.426449	0.564160	0.666613
N232	N	0.700574	-0.060073	-0.000048
N233	N	1.033907	0.273260	0.333286
N234	N	1.367241	0.606593	0.666619
H235	H	0.787109	-0.268044	-0.000062
H236	H	1.120442	0.065289	0.333272
H237	H	1.453775	0.398623	0.666605
C238	C	0.772217	0.221577	0.626879
C239	C	1.105550	0.554910	0.960212
C240	C	1.438884	0.888244	1.293545
N241	N	0.726851	0.266677	0.591041
N242	N	1.060184	0.600010	0.924374
N243	N	1.393517	0.933343	1.257708
C244	C	0.722774	-0.642137	-0.000062
C245	C	1.056107	-0.308803	0.333271
C246	C	1.389441	0.024530	0.666604
N247	N	0.666724	-0.668617	-0.000051
N248	N	1.000057	-0.335284	0.333283
N249	N	1.333390	-0.001950	0.666616
H250	H	0.787792	0.205943	0.360673
H251	H	1.121125	0.539276	0.694006
H252	H	1.454458	0.872609	1.027339
C253	C	1.014901	-0.682594	-0.000078
C254	C	1.348235	-0.349261	0.333255
C255	C	1.681568	-0.015928	0.666589
N256	N	1.074106	-0.725034	-0.000083
N257	N	1.407440	-0.391701	0.333250
N258	N	1.740773	-0.058368	0.666583
H259	H	0.787778	0.205942	0.203657
H260	H	1.121111	0.539276	0.536991
H261	H	1.454445	0.872609	0.870324
H262	H	0.117382	0.102923	-0.136063
H263	H	0.450716	0.436257	0.197271
H264	H	0.784049	0.769590	0.530604
H265	H	0.657357	0.112016	-0.136027
H266	H	0.990691	0.445349	0.197306
H267	H	1.324024	0.778683	0.530640
H268	H	0.260447	0.105319	-0.136053
H269	H	0.593781	0.438652	0.197280
H270	H	0.927114	0.771986	0.530613
H271	H	0.657299	0.111993	0.135936
H272	H	0.990632	0.445326	0.469270
H273	H	1.323965	0.778659	0.802603
