data_functionalizedCrystal
_audit_creation_method	'MofGen! by Chris Wilmer'
_symmetry_space_group_name_H-M	'P1'
_symmetry_Int_Tables_number	1
_symmetry_cell_setting	triclinic
loop_
_symmetry_equiv_pos_as_xyz
  x,y,z
_cell_length_a	10.540539
_cell_length_b	10.654541
_cell_length_c	9.130307
_cell_angle_alpha	90.003083
_cell_angle_beta	90.000534
_cell_angle_gamma	95.495290
loop_
_atom_site_label
_atom_site_type_symbol
_atom_site_fract_x
_atom_site_fract_y
_atom_site_fract_z
O1	O	1.685817	-0.176990	-0.121730
O2	O	1.316398	-0.193666	-0.121748
O3	O	1.509602	-0.002592	-0.121729
O4	O	1.492612	-0.368065	-0.121748
O5	O	1.509596	-0.002590	0.121870
O6	O	1.316391	-0.193665	0.121851
O7	O	1.685810	-0.176988	0.121869
Cu8	Cu	1.501100	-0.185326	0.144103
Cu9	Cu	1.501108	-0.185329	-0.143981
O10	O	1.492606	-0.368063	0.121851
C11	C	1.269092	-0.192415	0.000050
C12	C	1.128145	-0.188673	0.000043
C13	C	1.508352	0.044208	0.000069
C14	C	1.504622	0.183652	0.000067
N15	N	1.501104	-0.185324	0.346726
C16	C	0.944771	-0.045302	0.000619
C17	C	1.091388	-0.049095	0.000055
C18	C	1.066452	-0.255845	-0.139062
C19	C	0.919909	-0.251082	-0.139163
C20	C	0.919412	-0.253919	0.137854
C21	C	1.066394	-0.255205	0.139678
C22	C	1.733116	-0.178240	0.000069
C23	C	1.874063	-0.181982	0.000066
C24	C	1.493856	-0.414862	0.000049
C25	C	1.497586	-0.554307	0.000042
C26	C	1.735651	0.211542	0.000096
C27	C	1.849407	0.290996	0.000114
C28	C	1.845894	0.422016	0.000109
C29	C	1.728612	0.473582	0.000082
C30	C	1.614856	0.394128	0.000065
C31	C	1.618381	0.263107	0.000074
C32	C	1.383830	0.366239	0.000024
C33	C	1.387340	0.235219	0.000040
C34	C	1.266548	0.417805	-0.000003
C35	C	1.152788	0.338350	-0.000010
C36	C	1.156306	0.207324	-0.000003
C37	C	1.273583	0.155765	0.000022
N38	N	1.501114	-0.185321	-0.346604
C39	C	1.672258	-0.016177	0.346732
C40	C	1.757843	0.068393	0.423402
C41	C	1.757855	0.068393	0.576735
C42	C	1.672271	-0.016182	0.653402
C43	C	1.586686	-0.100752	0.576732
C44	C	1.586685	-0.100746	0.423395
C45	C	1.415529	-0.269891	0.576726
C46	C	1.415520	-0.269900	0.423393
C47	C	1.329945	-0.354466	0.653393
C48	C	1.244364	-0.439044	0.576723
C49	C	1.244355	-0.439042	0.423381
C50	C	1.329935	-0.354469	0.346723
H51	H	1.134019	0.003759	0.099772
H52	H	1.276459	0.049084	0.000036
H53	H	1.738523	0.104861	0.000120
C54	C	1.851961	0.161441	0.339057
N55	N	1.922843	0.231533	0.275532
C56	C	0.906164	0.029195	0.135388
N57	N	0.877075	0.085309	0.236898
C58	C	0.881825	-0.184001	-0.279624
N59	N	0.853147	-0.133468	-0.385419
C60	C	0.903976	0.028888	-0.133377
N61	N	0.873243	0.084766	-0.234303
H62	H	1.672267	-0.016180	0.221880
C63	C	1.096604	-0.394321	-0.146072
N64	N	1.119319	-0.498621	-0.151349
C65	C	1.329945	-0.354447	0.822064
N66	N	1.329941	-0.354432	0.949109
C67	C	1.147819	0.022804	-0.134890
N68	N	1.190322	0.076960	-0.236537
H69	H	1.329940	-0.354465	0.221871
H70	H	1.827542	0.137262	0.639160
C71	C	0.855052	-0.386691	-0.147731
N72	N	0.806207	-0.488829	-0.154199
C73	C	1.150224	-0.532098	0.339056
N74	N	1.079330	-0.602199	0.275548
H75	H	1.944896	0.248996	0.000149
H76	H	1.938525	0.486708	0.000112
C77	C	1.124002	-0.192804	-0.278916
N78	N	1.167347	-0.145312	-0.384252
H79	H	0.887880	-0.208747	0.243295
H80	H	1.107371	-0.206133	0.242587
H81	H	1.057306	0.380347	-0.000041
H82	H	1.090582	-0.356967	0.148071
H83	H	0.872148	-0.354736	0.138789
H84	H	1.672276	-0.016166	0.778254
H85	H	1.725762	0.580266	0.000061
H86	H	1.263695	0.524489	-0.000015
H87	H	1.063671	0.142638	-0.000024
C88	C	1.150222	-0.532057	0.661066
N89	N	1.079312	-0.602115	0.724599
