data_functionalizedCrystal
_audit_creation_method	'MofGen! by Chris Wilmer'
_symmetry_space_group_name_H-M	'P1'
_symmetry_Int_Tables_number	1
_symmetry_cell_setting	triclinic
loop_
_symmetry_equiv_pos_as_xyz
  x,y,z
_cell_length_a	12.759401
_cell_length_b	12.645323
_cell_length_c	12.759400
_cell_angle_alpha	89.973613
_cell_angle_beta	90.014845
_cell_angle_gamma	89.980706
loop_
_atom_site_label
_atom_site_type_symbol
_atom_site_fract_x
_atom_site_fract_y
_atom_site_fract_z
Zn1	Zn	1.606264	-0.599339	-0.418254
Zn2	Zn	1.606156	-0.422075	-0.593956
Zn3	Zn	1.430563	-0.422094	-0.418293
Zn4	Zn	1.430554	-0.599301	-0.593891
O5	O	1.518384	-0.510702	-0.506099
O6	O	1.753270	-0.575833	-0.441572
O7	O	1.582821	-0.273730	-0.570698
O8	O	1.453919	-0.445631	-0.271266
O9	O	1.753191	-0.445597	-0.570660
O10	O	1.583006	-0.575852	-0.271238
O11	O	1.453814	-0.273744	-0.441638
O12	O	1.283541	-0.445593	-0.441575
O13	O	1.453904	-0.747653	-0.570549
O14	O	1.283535	-0.575786	-0.570587
O15	O	1.582997	-0.747682	-0.441509
O16	O	1.582813	-0.445560	-0.740969
O17	O	1.453799	-0.575767	-0.740921
C18	C	1.245417	-0.510688	-0.506079
C19	C	1.128640	-0.510707	-0.506096
C20	C	1.518462	-0.787208	-0.506017
C21	C	1.518495	-0.905038	-0.505983
C22	C	1.073802	-0.578386	-0.573380
C23	C	0.964078	-0.578398	-0.573393
C24	C	0.964040	-0.443042	-0.438836
C25	C	1.073762	-0.443036	-0.438818
C26	C	1.128681	-0.646057	-0.640658
C27	C	1.073843	-0.713741	-0.707948
C28	C	0.964119	-0.713752	-0.707962
C29	C	0.909233	-0.646080	-0.640685
C30	C	1.437032	-1.072584	-0.586779
C31	C	1.437245	-0.950024	-0.587180
C32	C	1.629197	-0.949550	-0.536030
C33	C	1.628750	-1.072149	-0.536537
C34	C	1.490302	-1.072240	-0.394687
C35	C	1.487832	-0.949634	-0.395354
C36	C	1.792418	-0.510717	-0.506119
C37	C	1.909194	-0.510724	-0.506127
C38	C	1.518322	-0.510680	-0.779066
C39	C	1.518391	-0.510706	-0.895843
C40	C	1.518368	-0.235273	-0.506104
C41	C	1.518538	-0.117443	-0.505842
C42	C	1.585643	-0.442982	-0.950695
C43	C	1.585708	-0.443015	-1.060419
C44	C	1.451260	-0.578498	-1.060429
C45	C	1.451201	-0.578470	-0.950707
C46	C	1.652834	-0.375218	-0.895830
C47	C	1.720090	-0.307488	-0.950682
C48	C	1.720155	-0.307521	-1.060406
C49	C	1.652963	-0.375284	-1.115278
C50	C	1.518475	-0.510748	-0.232065
C51	C	1.518514	-0.510767	-0.115289
H52	H	1.218024	-0.646053	-0.640657
H53	H	1.396554	-0.633667	-1.105114
H54	H	1.652684	-1.100756	-0.617793
H55	H	0.819888	-0.646104	-0.640692
H56	H	1.691538	-1.101825	-0.480145
H57	H	0.919343	-0.387945	-0.384063
F58	F	1.132257	-0.785764	-0.779539
H59	H	1.691554	-0.920413	-0.478943
F60	F	0.905759	-0.785794	-0.779568
F61	F	1.791742	-0.235447	-1.118781
H62	H	1.396439	-0.633618	-0.906046
H63	H	1.118412	-0.387934	-0.384022
F64	F	1.661019	-0.909436	-0.641125
H65	H	1.410983	-1.103150	-0.367298
F66	F	1.329949	-0.910683	-0.562598
H67	H	1.455491	-1.103400	-0.668669
F68	F	1.329412	-1.111105	-0.562436
F69	F	1.461659	-0.911699	-0.694877
F70	F	1.381343	-0.911618	-0.365738
F71	F	1.559765	-0.909620	-0.312365
F72	F	1.652695	-0.374972	-1.232057
H73	H	1.549667	-1.101252	-0.334386
F74	F	1.653001	-0.375411	-0.779053
H75	H	1.774802	-0.252324	-0.906000
