data_functionalizedCrystal
_audit_creation_method	'MofGen! by Chris Wilmer'
_symmetry_space_group_name_H-M	'P1'
_symmetry_Int_Tables_number	1
_symmetry_cell_setting	triclinic
loop_
_symmetry_equiv_pos_as_xyz
  x,y,z
_cell_length_a	17.077404
_cell_length_b	21.295417
_cell_length_c	17.077396
_cell_angle_alpha	90.033192
_cell_angle_beta	90.019501
_cell_angle_gamma	90.030732
loop_
_atom_site_label
_atom_site_type_symbol
_atom_site_fract_x
_atom_site_fract_y
_atom_site_fract_z
Zn1	Zn	1.200013	-0.250605	0.443817
Zn2	Zn	1.700013	0.249395	0.943817
Zn3	Zn	1.199903	-0.355878	0.312540
Zn4	Zn	1.699903	0.144122	0.812540
Zn5	Zn	1.068745	-0.250628	0.312565
Zn6	Zn	1.568745	0.249372	0.812565
Zn7	Zn	1.068695	-0.355841	0.443764
Zn8	Zn	1.568695	0.144159	0.943764
O9	O	1.134339	-0.303238	0.378171
O10	O	1.634339	0.196762	0.878171
O11	O	1.309845	-0.264577	0.426415
O12	O	1.809845	0.235423	0.926415
O13	O	1.182479	-0.341942	0.202697
O14	O	1.682479	0.158058	0.702697
O15	O	1.086225	-0.162535	0.330008
O16	O	1.586225	0.337465	0.830008
O17	O	1.309764	-0.341920	0.329966
O18	O	1.809764	0.158080	0.829966
O19	O	1.182667	-0.162519	0.426439
O20	O	1.682667	0.337481	0.926439
O21	O	1.086118	-0.264614	0.202715
O22	O	1.586118	0.235386	0.702715
O23	O	0.958891	-0.264578	0.329957
O24	O	1.458891	0.235422	0.829957
O25	O	1.086140	-0.341857	0.553618
O26	O	1.586140	0.158143	1.053618
O27	O	0.958855	-0.341878	0.426348
O28	O	1.458855	0.158122	0.926348
O29	O	1.182619	-0.264540	0.553657
O30	O	1.682619	0.235460	1.053657
O31	O	1.182431	-0.443963	0.329915
O32	O	1.682431	0.056037	0.829915
O33	O	1.086033	-0.443935	0.426324
O34	O	1.586033	0.056065	0.926324
C35	C	0.930391	-0.303227	0.378150
C36	C	1.430391	0.196773	0.878150
C37	C	0.843141	-0.303237	0.378159
C38	C	1.343141	0.196763	0.878159
C39	C	0.802153	-0.343548	0.428270
C40	C	1.302153	0.156452	0.928270
C41	C	0.720172	-0.343549	0.428282
C42	C	1.220172	0.156451	0.928282
C43	C	0.679182	-0.303242	0.378180
C44	C	1.179182	0.196758	0.878180
C45	C	0.720176	-0.262927	0.328067
C46	C	1.220176	0.237073	0.828067
C47	C	0.802155	-0.262923	0.328059
C48	C	1.302155	0.237077	0.828059
C49	C	0.549306	-0.262940	0.328086
C50	C	1.049306	0.237060	0.828086
C51	C	0.467322	-0.262944	0.328093
C52	C	0.967322	0.237056	0.828093
C53	C	0.467323	-0.343566	0.428309
C54	C	0.967323	0.156434	0.928309
C55	C	0.549302	-0.343562	0.428301
C56	C	1.049302	0.156438	0.928301
C57	C	0.590291	-0.303247	0.378187
C58	C	1.090291	0.196753	0.878187
C59	C	1.134236	-0.466790	0.378128
C60	C	1.634236	0.033210	0.878128
C61	C	1.134264	-0.536758	0.378136
C62	C	1.634264	-0.036758	0.878136
C63	C	1.184503	-0.569618	0.327987
C64	C	1.684503	-0.069618	0.827987
C65	C	1.184539	-0.635360	0.328004
C66	C	1.684539	-0.135360	0.828004
C67	C	1.134323	-0.668240	0.378163
C68	C	1.634323	-0.168240	0.878163
C69	C	1.084081	-0.635372	0.428321
C70	C	1.584081	-0.135372	0.928321
C71	C	1.084051	-0.569631	0.428308
C72	C	1.584051	-0.069631	0.928308
N73	N	1.065655	-0.771506	0.384140
N74	N	1.565655	-0.271506	0.884140
N75	N	1.065685	-0.833958	0.384148
N76	N	1.565685	-0.333958	0.884148
C77	C	1.134411	-0.866315	0.378208
C78	C	1.634411	-0.366315	0.878208
N79	N	1.203107	-0.833862	0.372244
N80	N	1.703107	-0.333862	0.872244
N81	N	1.203076	-0.771405	0.372231
N82	N	1.703076	-0.271405	0.872231
C83	C	1.134351	-0.739526	0.378183
C84	C	1.634351	-0.239526	0.878183
C85	C	1.184694	-0.970461	0.328075
C86	C	1.684694	-0.470461	0.828075
C87	C	1.184732	-1.036204	0.328098
C88	C	1.684732	-0.536204	0.828098
C89	C	1.084267	-1.036215	0.428411
C90	C	1.584267	-0.536215	0.928411
C91	C	1.084236	-0.970473	0.428392
C92	C	1.584236	-0.470473	0.928392
C93	C	1.134449	-0.937599	0.378220
C94	C	1.634449	-0.437599	0.878220
C95	C	1.339083	-0.303250	0.378194
C96	C	1.839083	0.196750	0.878194
C97	C	1.426333	-0.303255	0.378203
C98	C	1.926333	0.196745	0.878203
C99	C	1.134386	-0.303192	0.582916
C100	C	1.634386	0.196808	1.082916
C101	C	1.134407	-0.303172	0.670166
C102	C	1.634407	0.196828	1.170166
C103	C	1.134464	-0.139048	0.378232
C104	C	1.634464	0.360952	0.878232
C105	C	1.134517	-0.069080	0.378258
C106	C	1.634517	0.430920	0.878258
C107	C	1.134337	-0.303239	0.174224
C108	C	1.634337	0.196761	0.674224
C109	C	1.134469	-0.303081	0.086974
C110	C	1.634469	0.196919	0.586974
C111	C	1.184645	-0.262910	0.711177
C112	C	1.684645	0.237090	1.211177
C113	C	1.184654	-0.262889	0.793158
C114	C	1.684654	0.237111	1.293158
C115	C	1.134429	-0.303134	0.834125
C116	C	1.634429	0.196866	1.334125
C117	C	1.084185	-0.343397	0.793108
C118	C	1.584185	0.156603	1.293108
C119	C	1.084172	-0.343415	0.711129
C120	C	1.584172	0.156585	1.211129
C121	C	1.084217	-0.343360	0.963978
C122	C	1.584217	0.156640	1.463978
C123	C	1.084231	-0.343343	1.045963
C124	C	1.584231	0.156657	1.545963
C125	C	1.184699	-0.262834	1.046007
C126	C	1.684699	0.237166	1.546007
C127	C	1.184686	-0.262851	0.964028
C128	C	1.684686	0.237149	1.464028
C129	C	1.134443	-0.303116	0.923016
C130	C	1.634443	0.196884	1.423016
H131	H	0.686795	-0.230106	0.287276
H132	H	1.186795	0.269894	0.787276
C133	C	0.927825	-0.227117	0.283553
C134	C	1.427825	0.272883	0.783553
C135	C	0.847214	-0.218613	0.272976
C136	C	1.347214	0.281387	0.772976
H137	H	0.955640	-0.199756	0.249551
H138	H	1.455640	0.300244	0.749551
H139	H	0.941227	-0.269394	0.271962
H140	H	1.441227	0.230606	0.771962
H141	H	0.941279	-0.217958	0.336318
H142	H	1.441279	0.282042	0.836318
H143	H	0.833760	-0.227776	0.220213
H144	H	1.333760	0.272224	0.720213
H145	H	0.833807	-0.176326	0.284562
H146	H	1.333807	0.323674	0.784562
H147	H	1.225607	-0.230048	1.079403
H148	H	1.725607	0.269952	1.579403
C149	C	0.375054	-0.254060	0.222561
C150	C	0.875054	0.245940	0.722561
C151	C	0.422248	-0.218623	0.273052
C152	C	0.922248	0.281377	0.773052
H153	H	0.347227	-0.226693	0.188588
H154	H	0.847227	0.273307	0.688588
H155	H	0.338928	-0.278078	0.252406
H156	H	0.838928	0.221922	0.752406
H157	H	0.407005	-0.281436	0.192438
H158	H	0.907005	0.218564	0.692438
H159	H	0.390296	-0.191250	0.303180
H160	H	0.890296	0.308750	0.803180
H161	H	0.458378	-0.194594	0.243205
H162	H	0.958378	0.305406	0.743205
H163	H	1.225648	-1.062958	0.287263
H164	H	1.725648	-0.562958	0.787263
H165	H	0.582677	-0.230106	0.287285
H166	H	1.082677	0.269894	0.787285
H167	H	1.043196	-0.662147	0.469162
H168	H	1.543196	-0.162147	0.969162
C169	C	0.984751	-0.576247	0.527464
C170	C	1.484751	-0.076247	1.027464
C171	C	1.028820	-0.533507	0.483431
C172	C	1.528820	-0.033507	0.983431
H173	H	0.950650	-0.553943	0.561490
H174	H	1.450650	-0.053943	1.061490
H175	H	1.018947	-0.601842	0.557527
H176	H	1.518947	-0.101842	1.057527
H177	H	0.954758	-0.601934	0.493234
H178	H	1.454758	-0.101934	0.993234
H179	H	1.058817	-0.507823	0.517660
H180	H	1.558817	-0.007823	1.017660
H181	H	0.994620	-0.507902	0.453365
H182	H	1.494620	-0.007902	0.953365
C183	C	0.728408	-0.423256	0.527316
C184	C	1.228408	0.076744	1.027316
C185	C	0.675118	-0.387871	0.483352
C186	C	1.175118	0.112129	0.983352
H187	H	0.700592	-0.450623	0.561310
H188	H	1.200592	0.049377	1.061310
H189	H	0.760407	-0.395863	0.557411
H190	H	1.260407	0.104137	1.057411
H191	H	0.760359	-0.447288	0.493041
H192	H	1.260359	0.052712	0.993041
H193	H	0.643171	-0.363835	0.517627
H194	H	1.143171	0.136165	1.017627
H195	H	0.643106	-0.415267	0.453255
H196	H	1.143106	0.084733	0.953255
H197	H	1.225583	-0.943694	0.287224
H198	H	1.725583	-0.443694	0.787224
H199	H	1.043288	-0.376163	0.826470
H200	H	1.543288	0.123837	1.326470
C201	C	1.283815	-0.576216	0.228839
C202	C	1.783815	-0.076216	0.728839
C203	C	1.239707	-0.533485	0.272849
C204	C	1.739707	-0.033485	0.772849
H205	H	1.317900	-0.553906	0.194806
H206	H	1.817900	-0.053906	0.694806
H207	H	1.249643	-0.601895	0.198785
H208	H	1.749643	-0.101895	0.698785
H209	H	1.313826	-0.601820	0.263083
H210	H	1.813826	-0.101820	0.763083
H211	H	1.209691	-0.507884	0.238606
H212	H	1.709691	-0.007884	0.738606
H213	H	1.273883	-0.507794	0.302906
H214	H	1.773883	-0.007794	0.802906
C215	C	0.984907	-0.422915	1.037689
C216	C	1.484907	0.077085	1.537689
C217	C	1.029017	-0.387576	1.090996
C218	C	1.529017	0.112424	1.590996
H219	H	0.950817	-0.450219	1.065492
H220	H	1.450817	0.049781	1.565492
H221	H	1.019078	-0.447007	1.005711
H222	H	1.519078	0.052993	1.505711
H223	H	0.954900	-0.395485	1.005718
H224	H	1.454900	0.104515	1.505718
H225	H	1.059028	-0.415006	1.122962
H226	H	1.559028	0.084994	1.622962
H227	H	0.994842	-0.363483	1.122986
H228	H	1.494842	0.136517	1.622986
C229	C	0.442035	-0.450202	0.466292
C230	C	0.942035	0.049798	0.966292
C231	C	0.422268	-0.387881	0.483393
C232	C	0.922268	0.112119	0.983393
H233	H	0.414212	-0.477560	0.500292
H234	H	0.914212	0.022440	1.000292
H235	H	0.496717	-0.455965	0.473461
H236	H	0.996717	0.044035	0.973461
H237	H	0.428567	-0.459347	0.413527
H238	H	0.928567	0.040653	0.913527
H239	H	0.435741	-0.378734	0.536157
H240	H	0.935741	0.121266	1.036157
H241	H	0.367574	-0.382114	0.476231
H242	H	0.867574	0.117886	0.976231
H243	H	1.043255	-0.376194	0.677738
H244	H	1.543255	0.123806	1.177738
H245	H	1.225547	-0.230140	0.677828
H246	H	1.725547	0.269860	1.177828
C247	C	1.073249	-0.428046	0.871743
C248	C	1.573249	0.071954	1.371743
C249	C	1.028998	-0.387620	0.918886
C250	C	1.528998	0.112380	1.418886
H251	H	1.039163	-0.455368	0.843899
H252	H	1.539163	0.044632	1.343899
H253	H	1.107427	-0.452118	0.903724
H254	H	1.607427	0.047882	1.403724
H255	H	1.103158	-0.404068	0.835623
H256	H	1.603158	0.095932	1.335623
H257	H	0.999094	-0.411598	0.955009
H258	H	1.499094	0.088402	1.455009
H259	H	0.994807	-0.363546	0.886901
H260	H	1.494807	0.136454	1.386901
C261	C	1.039705	-1.136993	0.472974
C262	C	1.539705	-0.636993	0.972974
C263	C	1.029070	-1.072349	0.483550
C264	C	1.529070	-0.572349	0.983550
H265	H	1.005626	-1.159301	0.507015
H266	H	1.505626	-0.659301	1.007015
H267	H	1.092440	-1.147716	0.484513
H268	H	1.592440	-0.647716	0.984513
H269	H	1.028250	-1.147802	0.420222
H270	H	1.528250	-0.647802	0.920222
H271	H	1.040531	-1.061539	0.536300
H272	H	1.540531	-0.561539	1.036300
H273	H	0.976323	-1.061621	0.472016
H274	H	1.476323	-0.561621	0.972016
H275	H	1.225453	-0.662120	0.287167
H276	H	1.725453	-0.162120	0.787167
H277	H	1.043324	-0.943716	0.469225
H278	H	1.543324	-0.443716	0.969225
C279	C	1.195633	-0.178182	0.885362
C280	C	1.695633	0.321818	1.385362
C281	C	1.239874	-0.218624	0.838230
C282	C	1.739874	0.281376	1.338230
H283	H	1.229724	-0.150848	0.913181
H284	H	1.729724	0.349152	1.413181
H285	H	1.165735	-0.202145	0.921495
H286	H	1.665735	0.297855	1.421495
H287	H	1.161444	-0.154119	0.853370
H288	H	1.661444	0.345881	1.353370
H289	H	1.274059	-0.242691	0.870224
H290	H	1.774059	0.257309	1.370224
H291	H	1.269786	-0.194659	0.802093
H292	H	1.769786	0.305341	1.302093
C293	C	0.894389	-0.352396	0.533825
C294	C	1.394389	0.147604	1.033825
C295	C	0.847208	-0.387854	0.483344
C296	C	1.347208	0.112146	0.983344
H297	H	0.922206	-0.379750	0.567824
H298	H	1.422206	0.120250	1.067824
H299	H	0.862437	-0.325008	0.563915
H300	H	1.362437	0.174992	1.063915
H301	H	0.930532	-0.328392	0.503970
H302	H	1.430532	0.171608	1.003970
H303	H	0.811061	-0.411855	0.513199
H304	H	1.311061	0.088145	1.013199
H305	H	0.879163	-0.415254	0.453252
H306	H	1.379163	0.084746	0.953252
H307	H	0.582674	-0.376386	0.469094
H308	H	1.082674	0.123614	0.969094
H309	H	1.225588	-0.230084	0.930675
H310	H	1.725588	0.269916	1.430675
