data_functionalizedCrystal
_audit_creation_method	'MofGen! by Chris Wilmer'
_symmetry_space_group_name_H-M	'P1'
_symmetry_Int_Tables_number	1
_symmetry_cell_setting	triclinic
loop_
_symmetry_equiv_pos_as_xyz
  x,y,z
_cell_length_a	16.109301
_cell_length_b	19.288859
_cell_length_c	17.766277
_cell_angle_alpha	89.989768
_cell_angle_beta	89.992214
_cell_angle_gamma	83.297603
loop_
_atom_site_label
_atom_site_type_symbol
_atom_site_fract_x
_atom_site_fract_y
_atom_site_fract_z
O1	O	0.103692	0.921603	-0.062611
O2	O	0.117688	0.719375	-0.062610
O3	O	-0.010360	0.826045	-0.062603
O4	O	0.231740	0.814934	-0.062618
O5	O	-0.010367	0.826026	0.062585
O6	O	0.117681	0.719357	0.062579
O7	O	0.103685	0.921585	0.062577
Cu8	Cu	0.110683	0.820469	0.074009
Cu9	Cu	0.110690	0.820491	-0.074041
O10	O	0.231733	0.814915	0.062570
C11	C	0.117235	0.693489	-0.000015
C12	C	0.115886	0.616381	-0.000015
C13	C	0.181891	0.052498	-0.000020
C14	C	0.183166	0.124948	-0.000024
C15	C	0.108033	0.169475	-0.000018
C16	C	0.031619	0.141548	-0.000027
C17	C	0.030346	0.069099	-0.000030
C18	C	0.051997	0.290605	0.043848
C19	C	0.053273	0.363052	0.043856
C20	C	0.111956	0.392931	-0.000010
C21	C	0.169377	0.350352	-0.043875
C22	C	0.168104	0.277904	-0.043878
C23	C	0.109405	0.248034	-0.000014
C24	C	0.189748	0.499408	-0.000011
C25	C	0.191020	0.571859	-0.000020
C26	C	0.039471	0.588458	-0.000015
C27	C	0.038201	0.516008	-0.000014
C28	C	0.113342	0.471487	-0.000008
C29	C	-0.041337	0.825585	-0.000008
C30	C	-0.133628	0.824236	-0.000007
C31	C	-0.356107	0.884394	-0.000020
C32	C	-0.442823	0.883121	-0.000026
C33	C	-0.422513	0.756561	-0.000022
C34	C	-0.335798	0.757835	-0.000021
C35	C	-0.302598	0.821754	-0.000016
C36	C	-0.476029	0.819206	-0.000023
C37	C	-0.570050	0.817825	-0.000030
C38	C	-0.208571	0.823135	-0.000011
C39	C	0.262710	0.815375	-0.000026
C40	C	0.355001	0.816724	-0.000032
C41	C	0.104138	0.947472	-0.000019
C42	C	0.105487	1.024579	-0.000025
N43	N	0.110677	0.820458	0.178139
N44	N	0.110690	0.820507	-0.178172
C45	C	0.054005	0.867707	0.217529
C46	C	0.054001	0.867711	0.296331
C47	C	0.110683	0.820473	0.335739
C48	C	0.167360	0.773216	0.296340
C49	C	0.167357	0.773208	0.217540
C50	C	0.186437	0.811355	0.460573
C51	C	0.186441	0.811367	0.539372
C52	C	0.110693	0.820492	0.578786
C53	C	0.034938	0.829619	0.539392
C54	C	0.034934	0.829611	0.460591
C55	C	0.110693	0.820475	0.421185
C56	C	0.054012	0.867747	0.703622
C57	C	0.054007	0.867746	0.782425
C58	C	0.167374	0.773254	0.782433
C59	C	0.167371	0.773252	0.703631
C60	C	0.110692	0.820502	0.664230
H61	H	-0.021704	0.624711	-0.000016
F62	F	-0.006318	0.918033	0.824348
H63	H	0.213507	0.734732	0.185468
F64	F	0.272343	0.601572	-0.000022
H65	H	-0.292229	0.706823	-0.000021
F66	F	-0.457855	0.688538	-0.000028
F67	F	-0.006321	0.917991	0.175597
F68	F	-0.006321	0.918002	0.338259
F69	F	-0.010499	0.258818	0.090504
F70	F	-0.007833	0.408360	0.090546
H71	H	-0.024015	0.493276	-0.000013
F72	F	0.227683	0.722939	0.338282
H73	H	-0.026749	0.837041	0.428520
H74	H	-0.329079	0.936440	-0.000017
F75	F	-0.045686	0.839335	0.581332
F76	F	-0.048343	0.188938	-0.000023
H77	H	0.007858	0.906219	0.671540
H78	H	0.213522	0.734790	0.814519
H79	H	0.245385	0.147685	-0.000013
F80	F	0.231843	0.382144	-0.090557
F81	F	0.227693	0.722967	0.661706
F82	F	-0.499769	0.949791	-0.000031
H83	H	0.248126	0.803940	0.571440
F84	F	0.261863	0.005120	-0.000021
H85	H	0.214857	0.243239	-0.079596
F86	F	0.267066	0.801694	0.418633
H87	H	-0.031873	0.046369	-0.000035
F88	F	0.269718	0.452023	-0.000007
