data_functionalizedCrystal
_audit_creation_method	'MofGen! by Chris Wilmer'
_symmetry_space_group_name_H-M	'P1'
_symmetry_Int_Tables_number	1
_symmetry_cell_setting	triclinic
loop_
_symmetry_equiv_pos_as_xyz
  x,y,z
_cell_length_a	15.995292
_cell_length_b	15.072220
_cell_length_c	15.995350
_cell_angle_alpha	90.001101
_cell_angle_beta	96.519505
_cell_angle_gamma	90.013670
loop_
_atom_site_label
_atom_site_type_symbol
_atom_site_fract_x
_atom_site_fract_y
_atom_site_fract_z
O1	O	1.111026	0.073802	-0.107689
O2	O	1.611026	0.573802	0.392311
O3	O	0.867244	0.073798	-0.121068
O4	O	1.367244	0.573798	0.378932
O5	O	0.995799	0.073799	0.007511
O6	O	1.495799	0.573799	0.507511
O7	O	0.982471	0.073801	-0.236267
O8	O	1.482471	0.573801	0.263733
O9	O	0.995767	-0.073766	0.007503
O10	O	1.495767	0.426234	0.507503
O11	O	0.867213	-0.073767	-0.121075
O12	O	1.367213	0.426233	0.378925
O13	O	1.110994	-0.073763	-0.107696
O14	O	1.610994	0.426237	0.392304
Zn15	Zn	0.989098	-0.097194	-0.114387
Zn16	Zn	1.489098	0.402806	0.385613
Zn17	Zn	0.989140	0.097229	-0.114377
Zn18	Zn	1.489140	0.597229	0.385623
O19	O	0.982440	-0.073764	-0.236275
O20	O	1.482440	0.426236	0.263725
C21	C	0.836033	0.000015	-0.120527
C22	C	1.336033	0.500015	0.379473
C23	C	0.743080	0.000014	-0.118894
C24	C	1.243080	0.500014	0.381106
C25	C	0.405341	0.000024	-0.112893
C26	C	0.905341	0.500024	0.387107
C27	C	0.428654	0.000354	-0.205697
C28	C	0.928654	0.500354	0.294303
C29	C	0.525329	0.000017	-0.207461
C30	C	1.025329	0.500017	0.292539
C31	C	0.572897	0.000019	-0.115871
C32	C	1.072897	0.500019	0.384129
C33	C	0.543777	-0.084245	-0.069477
C34	C	1.043777	0.415755	0.430523
C35	C	0.446987	-0.084312	-0.068360
C36	C	0.946987	0.415688	0.431640
C37	C	0.447168	0.083497	-0.066457
C38	C	0.947168	0.583497	0.433543
C39	C	0.543660	0.084607	-0.069896
C40	C	1.043660	0.584607	0.430104
C41	C	0.667593	0.000014	-0.117549
C42	C	1.167593	0.500014	0.382451
C43	C	0.310646	0.000023	-0.111212
C44	C	0.810646	0.500023	0.388788
N45	N	0.989076	-0.229883	-0.114393
N46	N	1.489076	0.270117	0.385607
C47	C	0.989139	-0.589085	-0.114374
C48	C	1.489139	-0.089085	0.385626
C49	C	0.920120	-0.551478	-0.182943
C50	C	1.420120	-0.051478	0.317057
C51	C	0.920279	-0.448653	-0.183193
C52	C	1.420279	0.051347	0.316807
C53	C	0.989107	-0.410880	-0.114383
C54	C	1.489107	0.089120	0.385617
C55	C	1.076474	-0.448170	-0.133447
C56	C	1.576474	0.051830	0.366553
C57	C	1.076087	-0.551028	-0.133934
C58	C	1.576087	-0.051028	0.366066
C59	C	0.971569	-0.551186	-0.026538
C60	C	1.471569	-0.051186	0.473462
C61	C	0.969564	-0.448322	-0.027124
C62	C	1.469564	0.051678	0.472876
C63	C	0.989094	-0.310167	-0.114387
C64	C	1.489094	0.189833	0.385613
C65	C	0.989157	-0.689798	-0.114372
C66	C	1.489157	-0.189798	0.385628
C67	C	1.142206	0.000022	-0.108237
C68	C	1.642206	0.500022	0.391763
C69	C	1.235159	0.000029	-0.109870
C70	C	1.735159	0.500029	0.390130
C71	C	0.995232	0.000018	0.038702
C72	C	1.495232	0.500018	0.538702
C73	C	0.993580	0.000023	0.131652
C74	C	1.493580	0.500023	0.631652
N75	N	0.989169	0.229918	-0.114365
N76	N	1.489169	0.729918	0.385635
C77	C	0.983006	0.000018	-0.267466
C78	C	1.483006	0.500018	0.232534
C79	C	0.984658	0.000019	-0.360416
C80	C	1.484658	0.500019	0.139584
C81	C	0.987648	0.000020	0.469398
C82	C	1.487648	0.500020	0.969398
C83	C	0.896094	0.000350	0.421945
C84	C	1.396094	0.500350	0.921945
C85	C	0.897746	0.000017	0.325255
C86	C	1.397746	0.500017	0.825255
C87	C	0.990591	0.000022	0.301838
C88	C	1.490591	0.500022	0.801838
C89	C	1.035730	-0.084242	0.342921
C90	C	1.535730	0.415758	0.842921
C91	C	1.033430	-0.084313	0.439556
C92	C	1.533430	0.415687	0.939556
C93	C	1.035358	0.083496	0.439923
C94	C	1.535358	0.583496	0.939923
C95	C	1.035336	0.084610	0.342978
C96	C	1.535336	0.584610	0.842978
C97	C	0.992259	0.000021	0.207141
C98	C	1.492259	0.500021	0.707141
C99	C	0.985983	0.000016	0.564095
C100	C	1.485983	0.500016	1.064095
H101	H	0.563823	-0.146956	-0.101701
H102	H	1.063823	0.353044	0.398299
H103	H	1.129060	-0.423701	-0.084832
H104	H	1.629060	0.076299	0.415168
Br105	Br	0.380264	-0.099795	-0.264999
Br106	Br	0.880264	0.400205	0.235001
H107	H	1.103044	0.089702	0.327630
H108	H	1.603044	0.589702	0.827630
H109	H	0.859650	-0.059742	0.441528
H110	H	1.359650	0.440258	0.941528
Br111	Br	0.835118	0.101069	0.452819
Br112	Br	1.335118	0.601069	0.952819
H113	H	1.129050	-0.575902	-0.085960
H114	H	1.629050	-0.075902	0.414040
H115	H	0.433174	0.084068	0.001853
H116	H	0.933174	0.584068	0.501853
H117	H	0.905296	-0.423951	-0.012657
H118	H	1.405296	0.076049	0.487343
H119	H	1.092327	-0.422400	-0.196774
H120	H	1.592327	0.077600	0.303226
Br121	Br	0.838604	0.100695	0.277871
Br122	Br	1.338604	0.600695	0.777871
Br123	Br	0.399986	0.189949	-0.114806
Br124	Br	0.899986	0.689949	0.385194
H125	H	0.562243	0.146945	-0.103675
H126	H	1.062243	0.646945	0.396325
Br127	Br	0.838157	-0.100831	0.278786
Br128	Br	1.338157	0.399169	0.778786
H129	H	1.100648	-0.088132	0.471818
H130	H	1.600648	0.411868	0.971818
H131	H	0.909244	-0.577177	-0.008203
H132	H	1.409244	-0.077177	0.491797
Br133	Br	1.149420	-0.089464	0.319406
Br134	Br	1.649420	0.410536	0.819406
Br135	Br	0.983435	-0.188767	0.295605
Br136	Br	1.483435	0.311233	0.795605
Br137	Br	1.047915	-0.405487	0.061908
Br138	Br	1.547915	0.094513	0.561908
H139	H	0.854969	-0.576241	-0.171775
H140	H	1.354969	-0.076241	0.328225
Br141	Br	0.978521	-0.189302	0.470048
Br142	Br	1.478521	0.310698	0.970048
Br143	Br	1.147866	0.084449	0.492882
Br144	Br	1.647866	0.584449	0.992882
H145	H	1.091570	-0.575009	-0.197991
H146	H	1.591570	-0.075009	0.302009
Br147	Br	0.812022	-0.406629	-0.164325
Br148	Br	1.312022	0.093371	0.335675
H149	H	0.576631	0.089698	-0.003044
H150	H	1.076631	0.589698	0.496956
H151	H	1.005438	0.147364	0.460459
H152	H	1.505438	0.647364	0.960459
Br153	Br	1.055457	-0.591714	0.058510
Br154	Br	1.555457	-0.091714	0.558510
H155	H	0.544369	0.060423	-0.243790
H156	H	1.044369	0.560423	0.256210
Br157	Br	0.555990	-0.100835	-0.268391
Br158	Br	1.055990	0.399165	0.231609
Br159	Br	0.382016	0.101076	-0.265320
Br160	Br	0.882016	0.601076	0.234680
Br161	Br	0.402262	-0.189298	-0.121924
Br162	Br	0.902262	0.310702	0.378076
H163	H	0.931185	-0.577316	-0.247758
H164	H	1.431185	-0.077316	0.252242
Br165	Br	0.938939	-0.407618	-0.291846
Br166	Br	1.438939	0.092382	0.208154
Br167	Br	0.422728	-0.090745	0.045045
Br168	Br	0.922728	0.409255	0.545045
Br169	Br	0.980791	0.188527	0.297016
Br170	Br	1.480791	0.688527	0.797016
Br171	Br	0.596878	-0.089464	0.042863
Br172	Br	1.096878	0.410536	0.542863
