data_functionalizedCrystal
_audit_creation_method	'MofGen! by Chris Wilmer'
_symmetry_space_group_name_H-M	'P1'
_symmetry_Int_Tables_number	1
_symmetry_cell_setting	triclinic
loop_
_symmetry_equiv_pos_as_xyz
  x,y,z
_cell_length_a	10.654562
_cell_length_b	10.654550
_cell_length_c	9.798715
_cell_angle_alpha	89.998020
_cell_angle_beta	89.993493
_cell_angle_gamma	84.487503
loop_
_atom_site_label
_atom_site_type_symbol
_atom_site_fract_x
_atom_site_fract_y
_atom_site_fract_z
O1	O	1.667831	0.176472	-0.113577
O2	O	1.302354	0.193261	-0.113560
O3	O	1.493496	0.002128	-0.113564
O4	O	1.476689	0.367606	-0.113573
O5	O	1.493481	0.002127	0.113418
O6	O	1.302340	0.193261	0.113422
O7	O	1.667816	0.176471	0.113405
Zn8	Zn	1.485076	0.184866	0.149452
Zn9	Zn	1.485095	0.184867	-0.149607
O10	O	1.476675	0.367605	0.113409
C11	C	1.255549	0.192025	-0.000066
C12	C	1.116107	0.188327	-0.000060
C13	C	1.492254	-0.044671	-0.000074
C14	C	1.488563	-0.184114	-0.000079
C15	C	1.050568	0.186601	0.123657
C16	C	0.919546	0.183137	0.123635
C17	C	0.919612	0.183128	-0.123834
C18	C	1.050633	0.186584	-0.123810
C19	C	1.116043	0.188345	0.247407
C20	C	1.050504	0.186621	0.371135
C21	C	0.919481	0.183156	0.371112
C22	C	0.853998	0.181415	0.247362
C23	C	1.601103	-0.263595	-0.000080
C24	C	1.597627	-0.394615	-0.000089
C25	C	1.369059	-0.366662	-0.000091
C26	C	1.372537	-0.235644	-0.000091
C27	C	1.717129	-0.212064	-0.000068
C28	C	1.829680	-0.291546	-0.000068
C29	C	1.826203	-0.422567	-0.000077
C30	C	1.710176	-0.474106	-0.000087
C31	C	1.714621	0.177708	-0.000091
C32	C	1.854064	0.181406	-0.000107
C33	C	1.477916	0.414403	-0.000083
C34	C	1.481608	0.553847	-0.000088
N35	N	1.485072	0.184865	0.353552
N36	N	1.485108	0.184858	-0.353706
C37	C	1.565327	0.104259	0.421327
C38	C	1.565347	0.104255	0.578490
H39	H	1.222727	0.191170	0.247439
Br40	Br	0.830744	0.180751	-0.291769
H41	H	1.103995	0.187995	-0.224551
H42	H	1.103830	0.188029	0.471887
Br43	Br	1.978945	-0.530433	-0.000096
H44	H	0.866125	0.181742	0.471856
H45	H	0.747311	0.178590	0.247353
H46	H	1.719973	-0.105382	-0.000056
Br47	Br	1.987136	-0.221604	-0.000079
H48	H	1.707355	-0.580794	-0.000109
H49	H	1.274595	-0.408637	-0.000096
Br50	Br	1.219800	-0.127769	-0.000095
H51	H	1.634018	0.035248	0.363003
Br52	Br	1.370588	0.299899	0.549166
H53	H	1.634062	0.035250	0.636773
H54	H	1.416373	0.253867	0.411878
