data_functionalizedCrystal
_audit_creation_method	'MofGen! by Chris Wilmer'
_symmetry_space_group_name_H-M	'P1'
_symmetry_Int_Tables_number	1
_symmetry_cell_setting	triclinic
loop_
_symmetry_equiv_pos_as_xyz
  x,y,z
_cell_length_a	27.731994
_cell_length_b	11.792241
_cell_length_c	10.268362
_cell_angle_alpha	89.999703
_cell_angle_beta	90.001501
_cell_angle_gamma	83.406974
loop_
_atom_site_label
_atom_site_type_symbol
_atom_site_fract_x
_atom_site_fract_y
_atom_site_fract_z
O1	O	0.641726	0.134748	-0.108101
O2	O	1.141726	0.634748	0.391899
O3	O	0.501048	0.155345	-0.108143
O4	O	1.001048	0.655345	0.391857
O5	O	0.574801	-0.020235	-0.108129
O6	O	1.074801	0.479765	0.391871
O7	O	0.567973	0.310328	-0.108115
O8	O	1.067973	0.810328	0.391885
O9	O	0.574795	-0.020242	0.108472
O10	O	1.074795	0.479758	0.608472
O11	O	0.501042	0.155338	0.108458
O12	O	1.001042	0.655338	0.608458
O13	O	0.641720	0.134741	0.108499
O14	O	1.141720	0.634741	0.608499
Cu15	Cu	0.571380	0.145039	0.128256
Cu16	Cu	1.071380	0.645039	0.628256
Cu17	Cu	0.571388	0.145047	-0.127899
Cu18	Cu	1.071388	0.645047	0.372101
O19	O	0.567967	0.310321	0.108485
O20	O	1.067967	0.810321	0.608485
C21	C	0.483035	0.154919	0.000152
C22	C	0.983035	0.654919	0.500152
C23	C	0.429372	0.153645	0.000136
C24	C	0.929372	0.653645	0.500136
C25	C	0.096603	0.145622	0.118255
C26	C	0.596603	0.645622	0.618255
C27	C	-0.105083	0.140782	0.118269
C28	C	0.394917	0.640782	0.618269
O29	O	-0.131163	0.140104	0.218682
O30	O	0.368837	0.640104	0.718682
N31	N	-0.130298	0.140184	0.000200
N32	N	0.369702	0.640184	0.500200
C33	C	-0.105088	0.140790	-0.117881
C34	C	0.394912	0.640790	0.382119
O35	O	-0.131161	0.140159	-0.218305
O36	O	0.368839	0.640159	0.281695
C37	C	0.096598	0.145622	-0.117894
C38	C	0.596598	0.645622	0.382106
C39	C	0.121810	0.146231	0.000183
C40	C	0.621810	0.646231	0.500183
C41	C	0.121815	0.146230	0.236322
C42	C	0.621815	0.646230	0.736322
C43	C	0.172233	0.147446	0.236317
C44	C	0.672233	0.647446	0.736317
C45	C	0.197440	0.148055	0.118245
C46	C	0.697440	0.648055	0.618245
C47	C	0.172228	0.147447	0.000178
C48	C	0.672228	0.647447	0.500178
C49	C	0.121808	0.146219	-0.235974
C50	C	0.621808	0.646219	0.264026
C51	C	0.172233	0.147424	-0.235966
C52	C	0.672233	0.647424	0.264034
C53	C	0.197444	0.148033	-0.117890
C54	C	0.697444	0.648033	0.382110
C55	C	0.247853	0.149272	-0.117899
C56	C	0.747853	0.649272	0.382101
N57	N	0.273067	0.149869	0.000170
N58	N	0.773067	0.649869	0.500170
C59	C	0.247861	0.149261	0.118242
C60	C	0.747861	0.649261	0.618242
C61	C	-0.210976	0.138255	-0.117865
C62	C	0.289024	0.638255	0.382135
C63	C	-0.261397	0.137049	-0.117862
C64	C	0.238603	0.637049	0.382138
C65	C	-0.261389	0.137039	0.118288
C66	C	0.238611	0.637039	0.618288
C67	C	-0.210967	0.138253	0.118284
C68	C	0.289033	0.638253	0.618284
C69	C	-0.185761	0.138852	0.000203
C70	C	0.314239	0.638852	0.500203
C71	C	0.353743	0.151816	0.118223
C72	C	0.853743	0.651816	0.618223
C73	C	0.404165	0.153037	0.118208
C74	C	0.904165	0.653037	0.618208
C75	C	0.404153	0.153041	-0.117942
C76	C	0.904153	0.653041	0.382058
C77	C	0.353735	0.151826	-0.117928
C78	C	0.853735	0.651826	0.382072
C79	C	0.328531	0.151209	0.000165
C80	C	0.828531	0.651209	0.500165
O81	O	0.273964	0.149938	-0.218259
O82	O	0.773964	0.649938	0.281741
O83	O	0.273945	0.149866	0.218652
O84	O	0.773945	0.649866	0.718652
C85	C	0.046185	0.144406	0.118259
C86	C	0.546185	0.644406	0.618259
C87	C	0.020973	0.143798	0.000192
C88	C	0.520973	0.643798	0.500192
C89	C	0.046180	0.144407	-0.117879
C90	C	0.546180	0.644407	0.382121
C91	C	-0.029448	0.142592	0.000195
C92	C	0.470552	0.642592	0.500195
C93	C	-0.054655	0.141984	0.118267
C94	C	0.445345	0.641984	0.618267
C95	C	-0.029440	0.142581	0.236336
C96	C	0.470560	0.642581	0.736336
C97	C	0.020978	0.143797	0.236331
C98	C	0.520978	0.643797	0.736331
C99	C	0.020965	0.143810	-0.235948
C100	C	0.520965	0.643810	0.264052
C101	C	-0.029453	0.142595	-0.235934
C102	C	0.470547	0.642595	0.264066
C103	C	-0.054660	0.141986	-0.117862
C104	C	0.445340	0.641986	0.382138
C105	C	0.574369	-0.062515	0.000167
C106	C	1.074369	0.437485	0.500167
C107	C	0.573085	-0.188487	0.000152
C108	C	1.073085	0.311513	0.500152
C109	C	0.659733	0.135167	0.000201
C110	C	1.159733	0.635167	0.500201
C111	C	0.713397	0.136440	0.000209
C112	C	1.213397	0.636440	0.500209
N113	N	0.571378	0.145032	0.308422
N114	N	1.071378	0.645032	0.808422
C115	C	0.568399	0.352601	0.000187
C116	C	1.068399	0.852601	0.500187
C117	C	0.569683	0.478573	0.000193
C118	C	1.069683	0.978573	0.500193
C119	C	0.572043	0.709209	0.000161
C120	C	1.072043	1.209209	0.500161
C121	C	0.570732	0.580866	0.000179
C122	C	1.070732	1.080866	0.500179
N123	N	0.571394	0.145045	-0.308065
N124	N	1.071394	0.645045	0.191935
C125	C	0.571385	0.145045	0.574092
C126	C	1.071385	0.645045	1.074092
C127	C	0.571380	0.145041	0.426254
C128	C	1.071380	0.645041	0.926254
H129	H	0.192756	0.147935	0.332467
H130	H	0.692756	0.647935	0.832467
H131	H	-0.281921	0.136572	-0.214012
H132	H	0.218079	0.636572	0.285988
F133	F	-0.184156	0.138894	-0.243551
F134	F	0.315844	0.638894	0.256449
H135	H	0.192753	0.147913	-0.332124
H136	H	0.692753	0.647913	0.167876
F137	F	0.094996	0.145585	0.362001
F138	F	0.594996	0.645585	0.862001
F139	F	-0.056276	0.141938	0.361997
F140	F	0.443724	0.641938	0.861997
F141	F	0.094987	0.145569	-0.361649
F142	F	0.594987	0.645569	0.138351
F143	F	0.326901	0.151196	-0.243597
F144	F	0.826901	0.651196	0.256403
F145	F	-0.184139	0.138899	0.243955
F146	F	0.315861	0.638899	0.743955
H147	H	0.424685	0.153541	-0.214073
H148	H	0.924685	0.653541	0.285927
H149	H	0.041501	0.144293	0.332482
H150	H	0.541501	0.644293	0.832482
F151	F	-0.056280	0.141955	-0.361617
F152	F	0.443720	0.641955	0.138383
H153	H	0.424690	0.153536	0.214364
H154	H	0.924690	0.653536	0.714364
F155	F	0.326926	0.151158	0.243911
F156	F	0.826926	0.651158	0.743911
F157	F	0.047785	0.144456	-0.361624
F158	F	0.547785	0.644456	0.138376
H159	H	-0.281921	0.136546	0.214427
H160	H	0.218079	0.636546	0.714427
