data_functionalizedCrystal
_audit_creation_method	'MofGen! by Chris Wilmer'
_symmetry_space_group_name_H-M	'P1'
_symmetry_Int_Tables_number	1
_symmetry_cell_setting	triclinic
loop_
_symmetry_equiv_pos_as_xyz
  x,y,z
_cell_length_a	18.050591
_cell_length_b	19.805405
_cell_length_c	19.805399
_cell_angle_alpha	90.030709
_cell_angle_beta	89.978048
_cell_angle_gamma	89.977584
loop_
_atom_site_label
_atom_site_type_symbol
_atom_site_fract_x
_atom_site_fract_y
_atom_site_fract_z
Zn1	Zn	1.135309	0.269542	-0.382803
Zn2	Zn	1.468643	0.602875	-0.049470
Zn3	Zn	1.801976	0.936208	0.283864
Zn4	Zn	1.135222	0.382733	-0.269611
Zn5	Zn	1.468555	0.716066	0.063722
Zn6	Zn	1.801888	1.049399	0.397055
Zn7	Zn	1.011126	0.269555	-0.269618
Zn8	Zn	1.344460	0.602888	0.063716
Zn9	Zn	1.677793	0.936222	0.397049
Zn10	Zn	1.011081	0.382686	-0.382748
Zn11	Zn	1.344414	0.716019	-0.049415
Zn12	Zn	1.677747	1.049353	0.283919
O13	O	1.073185	0.326129	-0.326195
O14	O	1.406518	0.659462	0.007138
O15	O	1.739851	0.992796	0.340472
O16	O	1.239222	0.284570	-0.367808
O17	O	1.572556	0.617904	-0.034475
O18	O	1.905889	0.951237	0.298858
O19	O	1.118743	0.367745	-0.174896
O20	O	1.452076	0.701078	0.158438
O21	O	1.785409	1.034411	0.491771
O22	O	1.027655	0.174837	-0.284657
O23	O	1.360989	0.508170	0.048676
O24	O	1.694322	0.841503	0.382009
O25	O	1.239158	0.367731	-0.284647
O26	O	1.572491	0.701065	0.048687
O27	O	1.905825	1.034398	0.382020
O28	O	1.118892	0.174827	-0.367814
O29	O	1.452225	0.508160	-0.034481
O30	O	1.785559	0.841493	0.298852
O31	O	1.027570	0.284594	-0.174900
O32	O	1.360904	0.617927	0.158433
O33	O	1.694237	0.951260	0.491767
O34	O	0.907196	0.284548	-0.284604
O35	O	1.240529	0.617882	0.048729
O36	O	1.573862	0.951215	0.382062
O37	O	1.027577	0.367652	-0.477472
O38	O	1.360911	0.700985	-0.144139
O39	O	1.694244	1.034319	0.189195
O40	O	0.907162	0.367665	-0.367721
O41	O	1.240495	0.700999	-0.034387
O42	O	1.573829	1.034332	0.298946
O43	O	1.118848	0.284525	-0.477512
O44	O	1.452181	0.617859	-0.144179
O45	O	1.785514	0.951192	0.189154
O46	O	1.118698	0.477443	-0.284594
O47	O	1.452032	0.810776	0.048740
O48	O	1.785365	1.144110	0.382073
O49	O	1.027492	0.477409	-0.367715
O50	O	1.360826	0.810742	-0.034381
O51	O	1.694159	1.144076	0.298952
C52	C	1.073101	0.501985	-0.326162
C53	C	1.406434	0.835318	0.007171
C54	C	1.739768	1.168652	0.340504
C55	C	1.073133	0.577217	-0.326171
C56	C	1.406467	0.910550	0.007162
C57	C	1.739800	1.243884	0.340496
C58	C	0.880232	0.326104	-0.326158
C59	C	1.213566	0.659437	0.007176
C60	C	1.546899	0.992770	0.340509
C61	C	0.797687	0.326109	-0.326158
C62	C	1.131020	0.659443	0.007176
C63	C	1.464353	0.992776	0.340509
C64	C	1.073217	0.326082	-0.502738
C65	C	1.406550	0.659415	-0.169404
C66	C	1.739884	0.992749	0.163929
C67	C	1.073231	0.326062	-0.577970
C68	C	1.406564	0.659395	-0.244636
C69	C	1.739898	0.992729	0.088697
C70	C	0.598233	0.280858	-0.281063
C71	C	0.931566	0.614191	0.052270
C72	C	1.264899	0.947524	0.385604
C73	C	0.548815	0.342594	-0.264403
C74	C	0.882148	0.675927	0.068930
C75	C	1.215482	1.009260	0.402263
C76	C	0.646556	0.326130	-0.326188
C77	C	0.979890	0.659463	0.007145
C78	C	1.313223	0.992796	0.340478
C79	C	0.548892	0.264415	-0.342846
C80	C	0.882226	0.597749	-0.009513
C81	C	1.215559	0.931082	0.323821
C82	C	0.500571	0.326144	-0.326216
C83	C	0.833905	0.659477	0.007117
C84	C	1.167238	0.992811	0.340450
C85	C	0.598226	0.387898	-0.309496
C86	C	0.931559	0.721231	0.023837
C87	C	1.264892	1.054565	0.357170
C88	C	0.598308	0.309678	-0.387968
C89	C	0.931641	0.643011	-0.054634
C90	C	1.264974	0.976345	0.278699
C91	C	0.548912	0.371456	-0.371332
C92	C	0.882245	0.704790	-0.037998
C93	C	1.215579	1.038123	0.295335
C94	C	0.730655	0.326121	-0.326170
C95	C	1.063988	0.659454	0.007163
C96	C	1.397321	0.992787	0.340496
C97	C	0.416475	0.326160	-0.326235
C98	C	0.749808	0.659494	0.007099
C99	C	1.083141	0.992827	0.340432
C100	C	1.266890	0.326155	-0.326233
C101	C	1.600223	0.659488	0.007100
C102	C	1.933557	0.992821	0.340434
C103	C	1.349436	0.326166	-0.326249
C104	C	1.682769	0.659499	0.007084
C105	C	2.016103	0.992832	0.340418
C106	C	1.073289	0.149586	-0.326243
C107	C	1.406622	0.482919	0.007091
C108	C	1.739955	0.816253	0.340424
C109	C	1.073333	0.074354	-0.326263
C110	C	1.406666	0.407687	0.007070
C111	C	1.740000	0.741021	0.340404
C112	C	1.120670	0.612556	-0.282935
C113	C	1.454004	0.945890	0.050398
C114	C	1.787337	1.279223	0.383732
C115	C	1.120702	0.683245	-0.282950
C116	C	1.454035	1.016578	0.050383
C117	C	1.787368	1.349911	0.383717
C118	C	1.073192	0.718592	-0.326198
C119	C	1.406525	1.051926	0.007135
C120	C	1.739859	1.385259	0.340469
C121	C	1.025653	0.683248	-0.369438
C122	C	1.358986	1.016581	-0.036105
C123	C	1.692319	1.349915	0.297228
C124	C	1.025626	0.612561	-0.369426
C125	C	1.358959	0.945894	-0.036093
C126	C	1.692292	1.279228	0.297240
C127	C	1.025762	0.968321	-0.369489
C128	C	1.359096	1.301655	-0.036155
C129	C	1.692429	1.634988	0.297178
C130	C	1.025792	1.039013	-0.369496
C131	C	1.359125	1.372347	-0.036163
C132	C	1.692458	1.705680	0.297171
C133	C	1.120839	1.039005	-0.283012
C134	C	1.454172	1.372339	0.050321
C135	C	1.787505	1.705672	0.383654
C136	C	1.120811	0.968318	-0.283000
C137	C	1.454145	1.301651	0.050333
C138	C	1.787478	1.634985	0.383666
C139	C	1.073275	0.932980	-0.326243
C140	C	1.406609	1.266313	0.007090
C141	C	1.739942	1.599646	0.340424
C142	C	1.073243	0.856331	-0.326227
C143	C	1.406576	1.189665	0.007106
C144	C	1.739909	1.522998	0.340440
C145	C	1.073220	0.795240	-0.326211
C146	C	1.406554	1.128573	0.007123
C147	C	1.739887	1.461906	0.340456
C148	C	1.025771	0.282761	-0.613316
C149	C	1.359104	0.616094	-0.279983
C150	C	1.692438	0.949428	0.053351
C151	C	1.025781	0.282748	-0.684004
C152	C	1.359115	0.616081	-0.350671
C153	C	1.692448	0.949415	-0.017338
C154	C	1.073256	0.326033	-0.719345
C155	C	1.406589	0.659366	-0.386012
C156	C	1.739922	0.992699	-0.052679
C157	C	1.120718	0.369338	-0.683995
C158	C	1.454051	0.702672	-0.350661
C159	C	1.787384	1.036005	-0.017328
C160	C	1.120703	0.369354	-0.613307
C161	C	1.454037	0.702688	-0.279974
C162	C	1.787370	1.036021	0.053359
C163	C	1.120777	0.369275	-0.969068
C164	C	1.454110	0.702608	-0.635735
C165	C	1.787443	1.035942	-0.302401
C166	C	1.120789	0.369254	-1.039760
C167	C	1.454122	0.702587	-0.706427
C168	C	1.787456	1.035921	-0.373093
C169	C	1.025855	0.282668	-1.039765
C170	C	1.359188	0.616002	-0.706432
C171	C	1.692521	0.949335	-0.373098
C172	C	1.025840	0.282685	-0.969078
C173	C	1.359174	0.616018	-0.635744
C174	C	1.692507	0.949351	-0.302411
C175	C	1.073299	0.325992	-0.933733
C176	C	1.406632	0.659326	-0.600400
C177	C	1.739966	0.992659	-0.267066
C178	C	1.073286	0.326007	-0.857085
C179	C	1.406620	0.659340	-0.523751
C180	C	1.739953	0.992674	-0.190418
C181	C	1.073273	0.326015	-0.795993
C182	C	1.406606	0.659348	-0.462659
C183	C	1.739939	0.992682	-0.129326
C184	C	1.073195	0.326127	-0.150339
C185	C	1.406528	0.659460	0.182994
C186	C	1.739862	0.992793	0.516328
C187	C	1.073325	0.325956	-0.075107
C188	C	1.406658	0.659289	0.258226
C189	C	1.739992	0.992623	0.591559
H190	H	0.619888	0.242614	-0.242861
H191	H	0.953222	0.575947	0.090473
H192	H	1.286555	0.909281	0.423806
Cl193	Cl	0.965930	0.727685	-0.423812
Cl194	Cl	1.299263	1.061018	-0.090478
Cl195	Cl	1.632597	1.394352	0.242855
Cl196	Cl	0.515250	0.364095	-0.183760
Cl197	Cl	0.848583	0.697428	0.149573
Cl198	Cl	1.181916	1.030761	0.482906
Cl199	Cl	0.631539	0.468510	-0.287667
Cl200	Cl	0.964872	0.801843	0.045666
Cl201	Cl	1.298205	1.135177	0.378999
H202	H	1.159355	0.583781	-0.247715
H203	H	1.492688	0.917114	0.085619
H204	H	1.826022	1.250448	0.418952
Cl205	Cl	0.515429	0.183829	-0.364580
Cl206	Cl	0.848762	0.517162	-0.031246
Cl207	Cl	1.182096	0.850496	0.302087
H208	H	1.159356	0.404609	-0.584529
H209	H	1.492689	0.737943	-0.251196
H210	H	1.826022	1.071276	0.082137
H211	H	0.527393	0.409792	-0.409505
H212	H	0.860726	0.743125	-0.076171
H213	H	1.194059	1.076458	0.257162
H214	H	0.620064	0.295733	-0.440186
H215	H	0.953397	0.629067	-0.106852
H216	H	1.286730	0.962400	0.226481
H217	H	0.987104	1.067791	-0.404719
H218	H	1.320438	1.401125	-0.071385
H219	H	1.653771	1.734458	0.261948
Cl220	Cl	0.966188	0.228226	-1.084203
Cl221	Cl	1.299521	0.561559	-0.750869
Cl222	Cl	1.632855	0.894893	-0.417536
Cl223	Cl	1.180468	0.727669	-0.228596
Cl224	Cl	1.513801	1.061002	0.104737
Cl225	Cl	1.847135	1.394335	0.438071
Cl226	Cl	1.180475	0.423675	-1.084188
Cl227	Cl	1.513808	0.757008	-0.750855
Cl228	Cl	1.847141	1.090341	-0.417522
H229	H	1.159496	0.939540	-0.247781
H230	H	1.492829	1.272874	0.085552
H231	H	1.826162	1.606207	0.418885
H232	H	1.159548	1.067786	-0.247804
H233	H	1.492881	1.401119	0.085529
H234	H	1.826214	1.734453	0.418862
Cl235	Cl	0.966001	0.923905	-0.423850
Cl236	Cl	1.299334	1.257238	-0.090517
Cl237	Cl	1.632668	1.590572	0.242817
H238	H	0.987116	0.247510	-0.584546
H239	H	1.320449	0.580843	-0.251213
H240	H	1.653783	0.914176	0.082121
Cl241	Cl	0.965864	0.568134	-0.423785
Cl242	Cl	1.299198	0.901467	-0.090451
Cl243	Cl	1.632531	1.234800	0.242882
H244	H	1.159368	0.404585	-0.712775
H245	H	1.492702	0.737918	-0.379442
H246	H	1.826035	1.071252	-0.046108
H247	H	1.159413	0.404546	-0.940299
H248	H	1.492746	0.737880	-0.606965
H249	H	1.826079	1.071213	-0.273632
H250	H	0.987132	0.247491	-0.712780
H251	H	1.320465	0.580824	-0.379447
H252	H	1.653799	0.914157	-0.046113
H253	H	0.987184	0.247435	-0.940307
H254	H	1.320518	0.580769	-0.606973
H255	H	1.653851	0.914102	-0.273640
