data_functionalizedCrystal
_audit_creation_method	'MofGen! by Chris Wilmer'
_symmetry_space_group_name_H-M	'P1'
_symmetry_Int_Tables_number	1
_symmetry_cell_setting	triclinic
loop_
_symmetry_equiv_pos_as_xyz
  x,y,z
_cell_length_a	16.109301
_cell_length_b	10.908878
_cell_length_c	15.186229
_cell_angle_alpha	89.996729
_cell_angle_beta	89.999362
_cell_angle_gamma	71.773136
loop_
_atom_site_label
_atom_site_type_symbol
_atom_site_fract_x
_atom_site_fract_y
_atom_site_fract_z
O1	O	1.080337	0.165066	-0.073172
O2	O	0.835439	0.185609	-0.073186
O3	O	0.990352	-0.011608	-0.073174
O4	O	0.925424	0.362283	-0.073184
O5	O	0.990344	-0.011611	0.073283
O6	O	0.835430	0.185606	0.073271
O7	O	1.080329	0.165064	0.073285
Zn8	Zn	0.957878	0.175334	0.096532
Zn9	Zn	0.957889	0.175338	-0.096432
O10	O	0.925415	0.362280	0.073273
C11	C	0.804575	0.184775	0.000041
C12	C	0.712624	0.182280	0.000036
C13	C	0.996416	-0.059454	0.000054
C14	C	1.014487	-0.202014	0.000052
C15	C	0.474993	0.293504	0.000043
C16	C	0.388597	0.291150	0.000049
C17	C	0.440783	0.057159	0.000051
C18	C	0.527176	0.059515	0.000052
C19	C	0.544278	0.177691	0.000043
C20	C	0.371489	0.172981	0.000048
C21	C	0.277816	0.170428	0.000055
C22	C	0.637958	0.180245	0.000039
C23	C	0.948551	-0.250995	0.000047
C24	C	0.967226	-0.398338	0.000045
C25	C	1.111193	0.165897	0.000056
C26	C	1.203144	0.168392	0.000056
C27	C	0.919352	0.410126	0.000043
C28	C	0.901281	0.552686	0.000040
N29	N	0.957877	0.175331	0.228224
N30	N	0.957898	0.175331	-0.228125
C31	C	1.026488	0.088033	0.453952
C32	C	1.026491	0.088030	0.546142
C33	C	0.889281	0.262633	0.546140
C34	C	0.889275	0.262629	0.453953
C35	C	0.957884	0.175330	0.407861
C36	C	0.957892	0.175331	0.592239
C37	C	0.957895	0.175329	0.692195
C38	C	0.957880	0.175331	0.307898
H39	H	0.488913	0.389731	0.000042
O40	O	0.321396	0.403770	0.000006
C41	C	0.355022	0.508573	0.000022
H42	H	0.424255	0.475952	-0.027706
H43	H	0.356190	0.544795	0.070284
C44	C	0.211620	0.658255	-0.023358
C45	C	0.296651	0.618192	-0.057422
H46	H	0.175613	0.725876	-0.058788
H47	H	0.188965	0.587649	-0.023365
H48	H	0.212606	0.688431	0.035193
H49	H	0.295665	0.588001	-0.115967
H50	H	0.319305	0.688796	-0.057425
H51	H	0.583594	-0.034801	0.000055
H52	H	1.037506	-0.465482	0.000052
H53	H	0.426847	-0.039056	0.000064
H54	H	0.878275	-0.183847	0.000048
H55	H	0.831000	-0.380172	0.000044
H56	H	1.084762	-0.269162	0.000059
H57	H	1.082352	0.016947	0.416427
O58	O	1.093222	0.003183	0.590779
C59	C	1.153760	-0.073888	0.530325
H60	H	1.147414	-0.021233	0.464608
H61	H	1.139960	-0.169301	0.520525
C62	C	1.254896	-0.164987	0.647012
C63	C	1.247107	-0.100310	0.566300
H64	H	1.312477	-0.181291	0.669204
H65	H	1.214110	-0.113067	0.687742
H66	H	1.243391	-0.244490	0.638835
H67	H	1.258600	-0.020802	0.574481
H68	H	1.287897	-0.152218	0.525572
H69	H	0.833422	0.333712	0.583677
O70	O	0.822581	0.347561	0.409310
C71	C	0.762019	0.424600	0.469757
H72	H	0.795903	0.426075	0.535470
H73	H	0.706031	0.382873	0.479570
C74	C	0.684110	0.561313	0.353055
C75	C	0.725728	0.563134	0.433763
H76	H	0.661720	0.646766	0.330851
H77	H	0.724909	0.509408	0.312330
H78	H	0.637459	0.526535	0.361243
H79	H	0.772385	0.597896	0.425571
H80	H	0.684936	0.615048	0.474486
