data_functionalizedCrystal
_audit_creation_method	'MofGen! by Chris Wilmer'
_symmetry_space_group_name_H-M	'P1'
_symmetry_Int_Tables_number	1
_symmetry_cell_setting	triclinic
loop_
_symmetry_equiv_pos_as_xyz
  x,y,z
_cell_length_a	14.971486
_cell_length_b	14.971494
_cell_length_c	14.048226
_cell_angle_alpha	89.995286
_cell_angle_beta	89.998499
_cell_angle_gamma	83.615843
loop_
_atom_site_label
_atom_site_type_symbol
_atom_site_fract_x
_atom_site_fract_y
_atom_site_fract_z
O1	O	1.186951	0.116564	-0.079047
O2	O	0.926551	0.130523	-0.079073
O3	O	1.063726	-0.006656	-0.079057
O4	O	1.049775	0.253743	-0.079063
O5	O	1.063710	-0.006664	0.079264
O6	O	0.926534	0.130515	0.079248
O7	O	1.186934	0.116556	0.079274
Zn8	Zn	1.056732	0.123534	0.104398
Zn9	Zn	1.056753	0.123545	-0.104197
O10	O	1.049759	0.253735	0.079258
C11	C	0.893218	0.129895	0.000084
C12	C	0.793921	0.128024	0.000075
C13	C	1.063093	-0.039985	0.000102
C14	C	1.061219	-0.139281	0.000097
C15	C	0.736698	0.208613	0.000074
C16	C	0.643398	0.206850	0.000088
C17	C	0.607323	0.124497	0.000096
C18	C	0.664554	0.043902	0.000100
C19	C	0.757851	0.045666	0.000092
C20	C	0.470091	0.040231	0.000113
C21	C	0.376787	0.038466	0.000118
C22	C	0.355638	0.201415	0.000109
C23	C	0.448936	0.203179	0.000102
C24	C	0.506160	0.122583	0.000103
C25	C	1.060350	-0.185922	-0.086205
C26	C	1.058583	-0.279221	-0.086206
C27	C	1.057693	-0.325879	0.000096
C28	C	1.058559	-0.279231	0.086404
C29	C	1.060319	-0.185933	0.086405
C30	C	1.054893	-0.473695	0.086398
C31	C	1.053135	-0.566999	0.086398
C32	C	1.053158	-0.566982	-0.086213
C33	C	1.054917	-0.473684	-0.086213
C34	C	1.055786	-0.427043	0.000096
C35	C	1.220267	0.117184	0.000114
C36	C	1.319564	0.119055	0.000118
C37	C	1.050392	0.287064	0.000097
C38	C	1.052266	0.386360	0.000095
N39	N	1.056723	0.123526	0.246759
N40	N	1.056769	0.123546	-0.246558
C41	C	1.117484	0.062809	0.296584
C42	C	1.117490	0.062808	0.396241
C43	C	1.056739	0.123530	0.446072
C44	C	0.995972	0.184251	0.396240
C45	C	0.995962	0.184246	0.296584
C46	C	0.995998	0.184257	0.603955
C47	C	0.996008	0.184263	0.703617
C48	C	1.117525	0.062819	0.703611
C49	C	1.117515	0.062815	0.603956
C50	C	1.056749	0.123537	0.554131
H51	H	0.766062	0.275674	0.000067
F52	F	0.818752	-0.040108	0.000096
F53	F	1.061304	-0.136274	-0.178061
H54	H	1.057879	-0.317192	-0.156482
F55	F	1.061243	-0.136295	0.178259
H56	H	1.052449	-0.604961	-0.156489
F57	F	1.182148	-0.001817	0.243559
F58	F	1.055819	-0.424059	0.178258
H59	H	0.596810	0.272473	0.000087
H60	H	1.057829	-0.317227	0.156673
F61	F	0.530991	-0.045549	0.000117
H62	H	1.166965	0.013367	0.436808
H63	H	1.055649	-0.435698	-0.156488
F64	F	0.931290	0.248868	0.243558
F65	F	1.052188	-0.616655	0.178249
F66	F	0.931347	0.248891	0.756644
H67	H	1.166987	0.013375	0.563383
H68	H	0.946513	0.233701	0.563390
H69	H	0.946503	0.233689	0.436818
F70	F	0.487327	0.290828	0.000084
F71	F	0.294735	0.287191	0.000109
F72	F	0.626158	-0.043745	0.000114
F73	F	1.182197	-0.001804	0.756643
F74	F	0.338396	-0.049183	0.000151
