data_functionalizedCrystal
_audit_creation_method	'MofGen! by Chris Wilmer'
_symmetry_space_group_name_H-M	'P1'
_symmetry_Int_Tables_number	1
_symmetry_cell_setting	triclinic
loop_
_symmetry_equiv_pos_as_xyz
  x,y,z
_cell_length_a	15.711995
_cell_length_b	11.892095
_cell_length_c	12.811442
_cell_angle_alpha	88.493659
_cell_angle_beta	101.731282
_cell_angle_gamma	84.926270
loop_
_atom_site_label
_atom_site_type_symbol
_atom_site_fract_x
_atom_site_fract_y
_atom_site_fract_z
O1	O	-1.157940	0.152669	-0.568888
O2	O	-0.657940	0.652669	-0.068888
O3	O	-0.905511	0.144434	-0.489284
O4	O	-0.405511	0.644434	0.010716
O5	O	-1.037161	0.133213	-0.379476
O6	O	-0.537161	0.633213	0.120524
O7	O	-1.026291	0.163890	-0.678696
O8	O	-0.526291	0.663890	-0.178696
O9	O	-1.026184	-0.053861	-0.388611
O10	O	-0.526184	0.446139	0.111389
O11	O	-0.894534	-0.042640	-0.498419
O12	O	-0.394534	0.457360	0.001581
O13	O	-1.146963	-0.034405	-0.578023
O14	O	-0.646963	0.465595	-0.078023
Zn15	Zn	-1.019006	-0.068225	-0.539671
Zn16	Zn	-0.519006	0.431775	-0.039671
Zn17	Zn	-1.033469	0.178253	-0.527636
Zn18	Zn	-0.533469	0.678253	-0.027636
O19	O	-1.015314	-0.023184	-0.687831
O20	O	-0.515314	0.476816	-0.187831
C21	C	-0.867694	0.049554	-0.480846
C22	C	-0.367694	0.549554	0.019154
C23	C	-0.771362	0.045552	-0.442083
C24	C	-0.271362	0.545552	0.057917
N25	N	-1.009142	-0.236439	-0.547887
N26	N	-0.509142	0.263561	-0.047887
C27	C	-0.407445	0.079347	-0.771225
C28	C	0.092555	0.579347	-0.271225
C29	C	-0.316933	0.075631	-0.734774
C30	C	0.183067	0.575631	-0.234774
C31	C	-0.335786	0.056909	-0.552126
C32	C	0.164214	0.556909	-0.052126
C33	C	-0.426302	0.060629	-0.588561
C34	C	0.073698	0.560629	-0.088561
C35	C	-0.462124	0.071847	-0.698111
C36	C	0.037876	0.571847	-0.198111
C37	C	-0.480981	0.053129	-0.515448
C38	C	0.019019	0.553129	-0.015448
C39	C	-0.571489	0.056843	-0.551881
C40	C	-0.071489	0.556843	-0.051881
C41	C	-0.607318	0.068057	-0.661427
C42	C	-0.107318	0.568057	-0.161427
C43	C	-0.552633	0.075561	-0.734544
C44	C	-0.052633	0.575561	-0.234544
C45	C	-0.445157	0.041903	-0.405898
C46	C	0.054843	0.541903	0.094102
C47	C	-0.499836	0.034402	-0.332785
C48	C	0.000164	0.534402	0.167215
C49	C	-0.590346	0.038124	-0.369217
C50	C	-0.090346	0.538124	0.130783
C51	C	-0.626175	0.049338	-0.478763
C52	C	-0.126175	0.549338	0.021237
C53	C	-0.645032	0.030620	-0.296100
C54	C	-0.145032	0.530620	0.203900
C55	C	-0.735540	0.034334	-0.332533
C56	C	-0.235540	0.534334	0.167467
C57	C	-0.716683	0.053052	-0.515196
C58	C	-0.216683	0.553052	-0.015196
C59	C	-1.111977	-0.481845	-0.462185
C60	C	-0.611977	0.018155	0.037815
C61	C	-1.105088	-0.599599	-0.467937
C62	C	-0.605088	-0.099599	0.032063
C63	C	-0.988473	-0.589704	-0.565139
C64	C	-0.488473	-0.089704	-0.065139
C65	C	-0.995362	-0.471950	-0.559386
C66	C	-0.495362	0.028050	-0.059386
C67	C	-1.057116	-0.418025	-0.507909
C68	C	-0.557116	0.081975	-0.007909
C69	C	-1.064008	-0.300268	-0.502163
C70	C	-0.564008	0.199732	-0.002163
C71	C	-0.947390	-0.290376	-0.599357
C72	C	-0.447390	0.209624	-0.099357
C73	C	-0.940501	-0.408130	-0.605110
C74	C	-0.440501	0.091870	-0.105110
C75	C	-0.184780	0.060458	-0.586466
C76	C	0.315220	0.560458	-0.086466
C77	C	-0.281106	0.064411	-0.625247
C78	C	0.218894	0.564411	-0.125247
C79	C	-1.030725	0.035660	-0.344862
C80	C	-0.530725	0.535660	0.155138
C81	C	-1.027893	0.023696	-0.228112
C82	C	-0.527893	0.523696	0.271888
N83	N	-1.043339	0.346467	-0.519414
N84	N	-0.543339	0.846467	-0.019414
C85	C	-1.021749	0.074371	-0.722445
C86	C	-0.521749	0.574371	-0.222445
C87	C	-1.024582	0.086343	-0.839195
C88	C	-0.524582	0.586343	-0.339195
C89	C	-1.017923	-0.095140	-0.068534
C90	C	-0.517923	0.404860	0.431466
C91	C	-1.020580	-0.083900	-0.178231
C92	C	-0.520580	0.416100	0.321769
C93	C	-1.032547	0.120060	-0.168286
C94	C	-0.532547	0.620060	0.331714
C95	C	-1.029890	0.108820	-0.058589
C96	C	-0.529890	0.608820	0.441411
C97	C	-1.022579	0.001217	-0.008718
C98	C	-0.522579	0.501217	0.491282
C99	C	-1.019928	-0.010021	0.100980
C100	C	-0.519928	0.489979	0.600980
C101	C	-1.031889	0.193938	0.110924
C102	C	-0.531889	0.693938	0.610924
C103	C	-1.034546	0.205177	0.001227
C104	C	-0.534546	0.705177	0.501227
H105	H	-0.745851	0.062185	-0.604403
H106	H	-0.245851	0.562185	-0.104403
H107	H	-1.114294	-0.256363	-0.460251
H108	H	-0.614294	0.243637	0.039749
H109	H	-1.011975	-0.182754	-0.027929
H110	H	-0.511975	0.317246	0.472071
N111	N	-1.164267	-0.668434	-0.418635
N112	N	-0.664267	-0.168434	0.081365
H113	H	-1.154765	-0.655950	-0.339594
H114	H	-0.654765	-0.155950	0.160406
H115	H	-1.227126	-0.644219	-0.453267
H116	H	-0.727126	-0.144219	0.046733
H117	H	-0.780062	0.028229	-0.272996
H118	H	-0.280062	0.528229	0.227004
N119	N	-1.036920	0.297875	0.175438
N120	N	-0.536920	0.797875	0.675438
H121	H	-1.034130	0.274431	0.252498
H122	H	-0.534130	0.774431	0.752498
H123	H	-0.986331	0.343129	0.170446
H124	H	-0.486331	0.843129	0.670446
N125	N	-1.178563	-0.423680	-0.406640
N126	N	-0.678563	0.076320	0.093360
H127	H	-1.174596	-0.339400	-0.409925
H128	H	-0.674596	0.160600	0.090075
H129	H	-1.239027	-0.440567	-0.443202
H130	H	-0.739027	0.059433	0.056798
N131	N	-0.257959	0.083736	-0.813640
N132	N	0.242041	0.583736	-0.313640
H133	H	-0.195186	0.079682	-0.773940
H134	H	0.304814	0.579682	-0.273940
H135	H	-0.265571	0.019121	-0.863267
H136	H	0.234429	0.519121	-0.363267
N137	N	-0.446095	0.091450	-0.889382
N138	N	0.053905	0.591450	-0.389382
H139	H	-0.487317	0.162757	-0.905185
H140	H	0.012683	0.662757	-0.405185
H141	H	-0.397673	0.095593	-0.930100
H142	H	0.102327	0.595593	-0.430100
H143	H	-0.938188	-0.633627	-0.607041
H144	H	-0.438188	-0.133627	-0.107041
H145	H	-0.306606	0.047762	-0.462930
H146	H	0.193394	0.547762	0.037070
H147	H	-1.013976	-0.097637	0.141583
H148	H	-0.513976	0.402363	0.641583
H149	H	-0.890219	-0.452050	-0.647018
H150	H	-0.390219	0.047950	-0.147018
N151	N	-0.606397	0.018519	-0.177946
N152	N	-0.106397	0.518519	0.322054
H153	H	-0.622185	-0.054275	-0.147740
H154	H	-0.122185	0.445725	0.352260
H155	H	-0.540772	0.017350	-0.166042
H156	H	-0.040772	0.517350	0.333958
N157	N	-1.015556	-0.187826	-0.242750
N158	N	-0.515556	0.312174	0.257250
H159	H	-1.010522	-0.257693	-0.194507
H160	H	-0.510522	0.242307	0.305493
H161	H	-1.070066	-0.186359	-0.300486
H162	H	-0.570066	0.313641	0.199514
N163	N	-1.040231	0.236103	-0.222040
N164	N	-0.540231	0.736103	0.277960
H165	H	-1.041141	0.228595	-0.300594
H166	H	-0.541141	0.728595	0.199406
H167	H	-1.095997	0.280105	-0.212780
H168	H	-0.595997	0.780105	0.287220
N169	N	-0.347537	0.037900	-0.366606
N170	N	0.152463	0.537900	0.133394
H171	H	-0.333530	0.102675	-0.318589
H172	H	0.166470	0.602675	0.181411
H173	H	-0.325410	-0.036063	-0.325405
H174	H	0.174590	0.463937	0.174595
N175	N	-0.888219	-0.221541	-0.648687
N176	N	-0.388219	0.278459	-0.148687
H177	H	-0.901954	-0.138761	-0.637237
H178	H	-0.401954	0.361239	-0.137237
H179	H	-0.825352	-0.245801	-0.614125
H180	H	-0.325352	0.254199	-0.114125
N181	N	-1.042325	0.321226	-0.052542
N182	N	-0.542325	0.821226	0.447458
H183	H	-1.043266	0.313727	-0.131103
H184	H	-0.543266	0.813727	0.368897
H185	H	-1.098115	0.365136	-0.043242
H186	H	-0.598115	0.865136	0.456758
H187	H	-0.581800	0.084694	-0.823751
H188	H	-0.081800	0.584694	-0.323751
N189	N	-0.704937	0.072054	-0.700725
N190	N	-0.204937	0.572054	-0.200725
H191	H	-0.734535	0.138623	-0.670271
H192	H	-0.234535	0.638623	-0.170271
H193	H	-0.719257	0.080254	-0.781217
H194	H	-0.219257	0.580254	-0.281217
H195	H	-0.470656	0.025256	-0.243589
H196	H	0.029344	0.525256	0.256411
