data_functionalizedCrystal
_audit_creation_method	'MofGen! by Chris Wilmer'
_symmetry_space_group_name_H-M	'P1'
_symmetry_Int_Tables_number	1
_symmetry_cell_setting	triclinic
loop_
_symmetry_equiv_pos_as_xyz
  x,y,z
_cell_length_a	14.971482
_cell_length_b	14.044190
_cell_length_c	13.448316
_cell_angle_alpha	89.988796
_cell_angle_beta	89.993798
_cell_angle_gamma	88.402193
loop_
_atom_site_label
_atom_site_type_symbol
_atom_site_fract_x
_atom_site_fract_y
_atom_site_fract_z
O1	O	1.196683	0.123521	-0.082690
O2	O	1.696683	0.623521	0.417310
O3	O	0.937449	0.138319	-0.082697
O4	O	1.437449	0.638319	0.417303
O5	O	1.063171	-0.007069	-0.082674
O6	O	1.563171	0.492931	0.417326
O7	O	1.070960	0.268909	-0.082713
O8	O	1.570960	0.768909	0.417287
O9	O	1.063154	-0.007078	0.082710
O10	O	1.563154	0.492922	0.582710
O11	O	0.937431	0.138310	0.082687
O12	O	1.437431	0.638310	0.582687
O13	O	1.196665	0.123512	0.082693
O14	O	1.696665	0.623512	0.582693
Cu15	Cu	1.067046	0.130910	0.097791
Cu16	Cu	1.567046	0.630910	0.597791
Cu17	Cu	1.067068	0.130921	-0.097794
Cu18	Cu	1.567068	0.630921	0.402206
O19	O	1.070942	0.268900	0.082671
O20	O	1.570942	0.768900	0.582671
C21	C	0.904063	0.137653	-0.000005
C22	C	1.404063	0.637653	0.499995
C23	C	0.804609	0.135672	-0.000007
C24	C	1.304609	0.635672	0.499993
C25	C	0.757881	0.134734	0.090145
C26	C	1.257881	0.634734	0.590145
C27	C	0.664435	0.132857	0.090147
C28	C	1.164435	0.632857	0.590147
C29	C	0.617718	0.131925	-0.000005
C30	C	1.117718	0.631925	0.499995
C31	C	0.664453	0.132861	-0.090164
C32	C	1.164453	0.632861	0.409836
C33	C	0.757898	0.134730	-0.090164
C34	C	1.257898	0.634730	0.409836
C35	C	0.469684	0.128965	-0.090157
C36	C	0.969684	0.628965	0.409843
C37	C	0.376232	0.127097	-0.090157
C38	C	0.876232	0.627097	0.409843
C39	C	0.376221	0.127092	0.090154
C40	C	0.876221	0.627092	0.590154
C41	C	0.469666	0.128962	0.090153
C42	C	0.969666	0.628962	0.590153
C43	C	0.516394	0.129899	-0.000006
C44	C	1.016394	0.629899	0.499994
C45	C	1.059755	-0.042392	0.000021
C46	C	1.559755	0.457608	0.500021
C47	C	1.049591	-0.147629	0.000029
C48	C	1.549591	0.352371	0.500029
C49	C	1.103093	-0.397856	-0.000009
C50	C	1.603093	0.102144	0.499991
C51	C	1.031025	-0.340307	-0.000003
C52	C	1.531025	0.159693	0.499997
C53	C	1.041358	-0.233092	0.000015
C54	C	1.541358	0.266908	0.500015
C55	C	1.092761	-0.505082	-0.000027
C56	C	1.592761	-0.005082	0.499973
C57	C	1.230051	0.124178	-0.000000
C58	C	1.730051	0.624178	0.500000
C59	C	1.329504	0.126159	-0.000005
C60	C	1.829504	0.626159	0.499995
C61	C	1.074359	0.304223	-0.000026
C62	C	1.574359	0.804223	0.499974
C63	C	1.084522	0.409460	-0.000041
C64	C	1.584522	0.909460	0.499959
N65	N	1.067038	0.130902	0.235355
N66	N	1.567038	0.630902	0.735355
N67	N	1.067082	0.130921	-0.235359
N68	N	1.567082	0.630921	0.264641
C69	C	1.122729	0.066551	0.287406
C70	C	1.622729	0.566551	0.787406
C71	C	1.122734	0.066550	0.391509
C72	C	1.622734	0.566550	0.891509
C73	C	1.067053	0.130906	0.443560
C74	C	1.567053	0.630906	0.943560
C75	C	1.011356	0.195260	0.391502
C76	C	1.511356	0.695260	0.891502
C77	C	1.011346	0.195256	0.287401
C78	C	1.511346	0.695256	0.787401
C79	C	1.011381	0.195267	0.608482
C80	C	1.511381	0.695267	1.108482
C81	C	1.011391	0.195273	0.712591
C82	C	1.511391	0.695273	1.212591
C83	C	1.122769	0.066561	0.712590
C84	C	1.622769	0.566561	1.212590
C85	C	1.122760	0.066557	0.608489
C86	C	1.622760	0.566557	1.108489
C87	C	1.067063	0.130912	0.556439
C88	C	1.567063	0.630912	1.056439
H89	H	0.507727	0.129729	-0.163574
H90	H	1.007727	0.629729	0.336426
H91	H	0.961564	-0.371561	-0.000011
H92	H	1.461564	0.128439	0.499989
H93	H	0.626409	0.132095	-0.163567
H94	H	1.126409	0.632095	0.336433
H95	H	1.168119	0.014160	0.754976
H96	H	1.668119	0.514160	1.254976
H97	H	1.172548	-0.366604	0.000003
H98	H	1.672548	0.133396	0.500003
H99	H	0.795942	0.135496	-0.163575
H100	H	1.295942	0.635496	0.336425
H101	H	0.966024	0.247669	0.566106
H102	H	1.466024	0.747669	1.066106
H103	H	1.168075	0.014149	0.245033
H104	H	1.668075	0.514149	0.745033
H105	H	0.507700	0.129727	0.163563
H106	H	1.007700	0.629727	0.663563
H107	H	1.168104	0.014158	0.566109
H108	H	1.668104	0.514158	1.066109
H109	H	1.168082	0.014150	0.433888
H110	H	1.668082	0.514150	0.933888
H111	H	0.966049	0.247677	0.754966
H112	H	1.466049	0.747677	1.254966
H113	H	0.966014	0.247657	0.433888
H114	H	1.466014	0.747657	0.933888
H115	H	0.795911	0.135501	0.163557
H116	H	1.295911	0.635501	0.663557
H117	H	0.626394	0.132078	0.163557
H118	H	1.126394	0.632078	0.663557
H119	H	0.965996	0.247656	0.245023
H120	H	1.465996	0.747656	0.745023
H121	H	0.338171	0.126329	0.163565
H122	H	0.838171	0.626329	0.663565
H123	H	0.338198	0.126339	-0.163567
H124	H	0.838198	0.626339	0.336433
