data_functionalizedCrystal
_audit_creation_method	'MofGen! by Chris Wilmer'
_symmetry_space_group_name_H-M	'P1'
_symmetry_Int_Tables_number	1
_symmetry_cell_setting	triclinic
loop_
_symmetry_equiv_pos_as_xyz
  x,y,z
_cell_length_a	23.532355
_cell_length_b	22.010155
_cell_length_c	14.853569
_cell_angle_alpha	90.003089
_cell_angle_beta	96.768468
_cell_angle_gamma	90.002586
loop_
_atom_site_label
_atom_site_type_symbol
_atom_site_fract_x
_atom_site_fract_y
_atom_site_fract_z
O1	O	0.755760	0.050444	-0.109203
O2	O	0.589962	0.050464	-0.125086
O3	O	0.677289	0.050448	0.014135
O4	O	0.668433	0.050460	-0.248424
O5	O	0.677273	-0.050603	0.014114
O6	O	0.589946	-0.050587	-0.125107
O7	O	0.755744	-0.050606	-0.109224
Cu8	Cu	0.672844	-0.059823	-0.117167
Cu9	Cu	0.672862	0.059681	-0.117143
O10	O	0.668417	-0.050590	-0.248445
C11	C	0.568735	-0.000059	-0.124700
C12	C	0.505512	-0.000052	-0.123506
N13	N	0.672834	-0.143876	-0.117184
C14	C	0.113456	-0.055160	-0.116017
C15	C	0.054052	-0.055163	-0.114881
O16	O	0.023323	-0.102008	-0.114273
N17	N	0.024350	-0.000080	-0.114307
C18	C	0.054056	0.055008	-0.114859
O19	O	0.023337	0.101860	-0.114265
C20	C	0.113459	0.055010	-0.115988
C21	C	0.143158	-0.000076	-0.116572
C22	C	0.143155	-0.110242	-0.116600
C23	C	0.202555	-0.110239	-0.117737
C24	C	0.232257	-0.055155	-0.118292
C25	C	0.202558	-0.000073	-0.117709
C26	C	0.143165	0.110098	-0.116534
C27	C	0.202573	0.110095	-0.117662
C28	C	0.232271	0.055009	-0.118246
C29	C	0.291660	0.055013	-0.119401
N30	N	0.321362	-0.000069	-0.119976
C31	C	0.291661	-0.055153	-0.119421
C32	C	-0.070696	0.055000	-0.112486
C33	C	-0.130099	0.054999	-0.111363
C34	C	-0.130099	-0.055172	-0.111384
C35	C	-0.070695	-0.055170	-0.112513
C36	C	-0.040994	-0.000082	-0.113061
C37	C	0.416405	-0.055143	-0.121810
C38	C	0.475810	-0.055136	-0.122951
C39	C	0.475805	0.055035	-0.122926
C40	C	0.416404	0.055027	-0.121789
C41	C	0.386706	-0.000066	-0.121229
O42	O	0.322426	0.101834	-0.120006
O43	O	0.322387	-0.101997	-0.120003
C44	C	0.711533	-0.563662	-0.055504
C45	C	0.711536	-0.627270	-0.055498
O46	O	0.744416	-0.660167	-0.003067
N47	N	0.672862	-0.659083	-0.117124
C48	C	0.634179	-0.627285	-0.178754
O49	O	0.601284	-0.660185	-0.231170
C50	C	0.634174	-0.563678	-0.178755
C51	C	0.672854	-0.531869	-0.117131
C52	C	0.750210	-0.531852	0.006115
C53	C	0.750208	-0.468249	0.006108
C54	C	0.711529	-0.436456	-0.055519
C55	C	0.672852	-0.468265	-0.117139
C56	C	0.595489	-0.531882	-0.240380
C57	C	0.595487	-0.468271	-0.240375
C58	C	0.634167	-0.436461	-0.178751
C59	C	0.634172	-0.372869	-0.178773
N60	N	0.672845	-0.341056	-0.117147
C61	C	0.711524	-0.372849	-0.055520
C62	C	0.634192	-0.760863	-0.178745
C63	C	0.634199	-0.824468	-0.178749
C64	C	0.711555	-0.824448	-0.055492
C65	C	0.711550	-0.760842	-0.055493
C66	C	0.672865	-0.729050	-0.117120
C67	C	0.711517	-0.239278	-0.055542
C68	C	0.711513	-0.175669	-0.055557
C69	C	0.634155	-0.175694	-0.178811
C70	C	0.634161	-0.239297	-0.178799
C71	C	0.672844	-0.271088	-0.117157
O72	O	0.601307	-0.339931	-0.231175
O73	O	0.744409	-0.339941	-0.003105
C74	C	0.776970	-0.000082	-0.109610
C75	C	0.840194	-0.000085	-0.110804
C76	C	0.676880	-0.000078	0.047709
C77	C	0.675677	-0.000078	0.147779
N78	N	0.672876	0.143733	-0.117119
C79	C	0.668826	-0.000063	-0.282019
C80	C	0.670029	-0.000059	-0.382089
C81	C	0.623238	-0.000073	0.183566
C82	C	0.726985	-0.000079	0.206021
C83	C	0.725857	-0.000076	0.300043
C84	C	0.673418	-0.000071	0.335830
C85	C	0.622108	-0.000069	0.277596
C86	C	0.777166	-0.000072	0.358283
C87	C	0.776040	-0.000069	0.452311
C88	C	0.723600	-0.000068	0.488100
C89	C	0.672288	-0.000066	0.429860
C90	C	0.619849	-0.000061	0.465648
C91	C	0.568536	-0.000064	0.407409
C92	C	0.569668	-0.000068	0.313385
C93	C	0.722468	-0.000064	0.582124
C94	C	0.618719	-0.000057	0.559677
H95	H	0.499988	-0.099995	-0.123430
H96	H	-0.154276	0.099856	-0.110903
H97	H	0.499998	0.099883	-0.123381
H98	H	0.392231	-0.100006	-0.121362
H99	H	0.226731	-0.155096	-0.118207
H100	H	0.392221	0.099883	-0.121329
H101	H	0.576016	-0.000058	0.588808
H102	H	0.118995	0.154954	-0.116057
H103	H	0.118978	-0.155100	-0.116146
H104	H	0.525840	-0.000056	0.436559
H105	H	0.819859	-0.000114	0.329138
O106	O	-0.158882	-0.108722	-0.110716
C107	C	-0.170693	-0.202866	-0.032233
C108	C	-0.138042	-0.142254	-0.032889
H109	H	-0.153865	-0.229988	0.030694
H110	H	-0.164169	-0.230074	-0.095516
H111	H	-0.218252	-0.193388	-0.031365
H112	H	-0.090474	-0.151677	-0.033725
H113	H	-0.144614	-0.115065	0.030390
H114	H	0.743046	-0.734946	-0.005314
H115	H	0.743013	-0.149772	-0.005376
H116	H	0.226752	0.154955	-0.118108
H117	H	0.527892	-0.000068	0.265960
H118	H	-0.046518	0.099862	-0.112940
O119	O	0.573358	0.000008	0.127090
C120	C	0.485051	0.052382	0.079095
C121	C	0.541513	0.052358	0.143121
H122	H	0.459294	0.094709	0.092020
H123	H	0.459204	0.010125	0.092059
H124	H	0.494878	0.052347	0.005753
H125	H	0.531738	0.052415	0.216486
H126	H	0.567343	0.094612	0.130078
O127	O	0.596673	-0.730010	-0.238748
C128	C	0.563404	-0.710606	-0.395795
C129	C	0.605933	-0.745568	-0.327944
H130	H	0.570868	-0.723181	-0.467924
H131	H	0.570036	-0.659671	-0.385301
H132	H	0.517789	-0.723113	-0.384382
H133	H	0.651565	-0.733111	-0.339315
H134	H	0.599251	-0.796494	-0.338454
O135	O	0.777872	-0.000110	0.171110
C136	C	0.825590	-0.000080	0.036207
C137	C	0.767919	-0.000057	0.075626
H138	H	0.817564	-0.000024	-0.040996
H139	H	0.850952	-0.042381	0.060160
H140	H	0.850954	0.042198	0.060286
H141	H	0.742510	-0.042306	0.051566
H142	H	0.742601	0.042272	0.051678
H143	H	0.743016	-0.265154	-0.005346
H144	H	0.602670	-0.265197	-0.228987
O145	O	0.596550	-0.855337	-0.238528
C146	C	0.497568	-0.874770	-0.292216
C147	C	0.540146	-0.839788	-0.224455
H148	H	0.451956	-0.862202	-0.280875
H149	H	0.504158	-0.925701	-0.281635
H150	H	0.505074	-0.862273	-0.364355
H151	H	0.532666	-0.852234	-0.152290
H152	H	0.533545	-0.788865	-0.235115
O153	O	0.787799	-0.437448	0.066064
C154	C	0.864543	-0.444166	0.188289
C155	C	0.821993	-0.479118	0.120445
H156	H	0.892207	-0.477840	0.232261
H157	H	0.839949	-0.414406	0.233187
H158	H	0.892999	-0.414368	0.149594
H159	H	0.793525	-0.508949	0.159065
H160	H	0.846621	-0.508839	0.075548
O161	O	-0.041775	-0.108641	-0.112953
C162	C	0.031652	-0.172605	-0.036092
C163	C	-0.001042	-0.112019	-0.035497
H164	H	0.064584	-0.175362	0.026534
H165	H	0.054342	-0.175369	-0.099677
H166	H	0.000199	-0.211962	-0.035547
H167	H	0.030373	-0.072628	-0.036009
H168	H	-0.023741	-0.109309	0.028083
H169	H	0.817822	-0.000068	0.499722
O170	O	0.787709	-0.562758	0.066071
C171	C	0.799766	-0.634580	0.189277
C172	C	0.757229	-0.599614	0.121443
H173	H	0.775140	-0.664397	0.234050
H174	H	0.827396	-0.600936	0.233376
H175	H	0.828260	-0.664327	0.150573
H176	H	0.728698	-0.569866	0.160073
H177	H	0.729639	-0.633291	0.077345
O178	O	0.557858	-0.562677	-0.300275
C179	C	0.481148	-0.555956	-0.422551
C180	C	0.523728	-0.521006	-0.354752
H181	H	0.453550	-0.522280	-0.466627
H182	H	0.452629	-0.585717	-0.383911
H183	H	0.505774	-0.585752	-0.467353
H184	H	0.499149	-0.491177	-0.309933
H185	H	0.552246	-0.491283	-0.393448
O186	O	0.749102	-0.855272	0.004503
C187	C	0.782323	-0.874759	0.161544
C188	C	0.739781	-0.839802	0.093705
H189	H	0.774794	-0.862275	0.233678
H190	H	0.827958	-0.862242	0.150256
H191	H	0.775686	-0.925680	0.150911
H192	H	0.746366	-0.788873	0.104298
H193	H	0.694162	-0.852370	0.105010
O194	O	0.772359	-0.000086	0.638567
C195	C	0.875383	-0.000043	0.650911
C196	C	0.818921	-0.000032	0.586888
H197	H	0.913043	0.000014	0.609155
H198	H	0.877488	-0.042340	0.695477
H199	H	0.877415	0.042239	0.695511
H200	H	0.816851	-0.042285	0.542232
H201	H	0.816839	0.042294	0.542385
H202	H	0.563984	-0.442389	-0.290558
H203	H	0.602665	-0.149798	-0.228989
