data_functionalizedCrystal
_audit_creation_method	'MofGen! by Chris Wilmer'
_symmetry_space_group_name_H-M	'P1'
_symmetry_Int_Tables_number	1
_symmetry_cell_setting	triclinic
loop_
_symmetry_equiv_pos_as_xyz
  x,y,z
_cell_length_a	16.109293
_cell_length_b	15.186229
_cell_length_c	16.109298
_cell_angle_alpha	89.998883
_cell_angle_beta	96.540770
_cell_angle_gamma	89.992624
loop_
_atom_site_label
_atom_site_type_symbol
_atom_site_fract_x
_atom_site_fract_y
_atom_site_fract_z
O1	O	-1.103134	0.073287	0.106836
O2	O	-0.861071	0.073273	0.120142
O3	O	-0.988754	0.073287	-0.007543
O4	O	-0.975452	0.073273	0.234520
O5	O	-0.988744	-0.073171	-0.007546
O6	O	-0.861061	-0.073185	0.120139
O7	O	-1.103124	-0.073170	0.106833
Zn8	Zn	-0.982091	-0.096430	0.113485
Zn9	Zn	-0.982104	0.096533	0.113489
O10	O	-0.975442	-0.073184	0.234517
C11	C	-0.830091	0.000042	0.119603
C12	C	-0.737796	0.000037	0.117990
C13	C	-0.525448	-0.079794	0.114260
C14	C	-0.438728	-0.079793	0.112736
C15	C	-0.438749	0.079883	0.112743
C16	C	-0.525469	0.079881	0.114261
C17	C	-0.568816	0.000040	0.115024
C18	C	-0.395376	0.000043	0.111982
C19	C	-0.301350	0.000044	0.110329
C20	C	-0.662848	0.000039	0.116675
C21	C	-0.134103	0.000056	0.107380
C22	C	-0.226396	0.000046	0.109015
N23	N	-0.982088	-0.228123	0.113482
C24	C	-1.038649	-0.546035	0.056962
C25	C	-1.038647	-0.453846	0.056963
C26	C	-0.925550	-0.453868	0.170012
C27	C	-0.925557	-0.546056	0.170015
C28	C	-0.982106	-0.592137	0.113485
C29	C	-0.982096	-0.407760	0.113483
C30	C	-0.982094	-0.307804	0.113483
C31	C	-0.982110	-0.692100	0.113485
C32	C	-0.988210	0.000062	-0.038519
C33	C	-0.986596	0.000072	-0.130814
N34	N	-0.982114	0.228226	0.113486
C35	C	-0.981334	0.079887	-0.429881
C36	C	-0.982862	0.079893	-0.343162
C37	C	-0.982863	-0.079783	-0.343150
C38	C	-0.981342	-0.079788	-0.429869
C39	C	-0.980573	0.000049	-0.473232
C40	C	-0.983623	0.000061	-0.299793
C41	C	-0.985279	0.000067	-0.205768
C42	C	-0.978918	0.000043	-0.567264
C43	C	-0.975985	0.000043	0.265494
C44	C	-0.977599	0.000039	0.357789
H45	H	-0.403446	0.144887	0.112123
C46	C	-0.573130	-0.167617	0.115090
C47	C	-0.642208	-0.189571	0.043982
C48	C	-0.689886	-0.277398	0.044810
C49	C	-0.668485	-0.343271	0.116747
C50	C	-0.599403	-0.321320	0.187861
C51	C	-0.551725	-0.233493	0.187033
H52	H	-0.658054	-0.140805	-0.009275
H53	H	-0.741025	-0.293647	-0.007834
H54	H	-0.703779	-0.408286	0.117360
H55	H	-0.583557	-0.370085	0.241118
H56	H	-0.500586	-0.217243	0.239676
H57	H	-0.403422	-0.144802	0.112114
H58	H	-0.980707	0.144896	-0.465185
C59	C	-0.573179	0.167705	0.115103
C60	C	-0.525502	0.255527	0.114275
C61	C	-0.573214	0.343345	0.115114
C62	C	-0.668602	0.343342	0.116780
C63	C	-0.716285	0.255516	0.117608
C64	C	-0.668573	0.167698	0.116769
H65	H	-0.454885	0.255532	0.113042
H66	H	-0.537915	0.408359	0.114501
H67	H	-0.703921	0.408350	0.117400
H68	H	-0.786902	0.255511	0.118841
H69	H	-0.703872	0.102684	0.117382
H70	H	-0.980724	-0.144805	-0.465167
C71	C	-0.863342	-0.403179	0.232186
C72	C	-0.799762	-0.339822	0.199682
C73	C	-0.737550	-0.289135	0.261856
C74	C	-0.738918	-0.301806	0.356534
C75	C	-0.802501	-0.365166	0.389043
C76	C	-0.864713	-0.415852	0.326869
H77	H	-0.798747	-0.330440	0.129591
H78	H	-0.690481	-0.242232	0.237791
H79	H	-0.692865	-0.264285	0.402559
H80	H	-0.803516	-0.374548	0.459134
H81	H	-0.911781	-0.462755	0.350935
H82	H	-0.983484	0.144905	-0.307869
H83	H	-0.879512	-0.583595	0.216047
C84	C	-0.983701	-0.167600	-0.295448
C85	C	-0.985370	-0.167599	-0.200060
C86	C	-0.986204	-0.255419	-0.152359
C87	C	-0.985369	-0.343240	-0.200047
C88	C	-0.983700	-0.343244	-0.295441
C89	C	-0.982866	-0.255424	-0.343141
H90	H	-0.985988	-0.102586	-0.164754
H91	H	-0.987440	-0.255416	-0.081743
H92	H	-0.985987	-0.408250	-0.164736
H93	H	-0.983082	-0.408257	-0.330747
H94	H	-0.981630	-0.255428	-0.413758
H95	H	-1.084696	-0.583552	0.010934
H96	H	-1.084691	-0.416312	0.010938
