data_functionalizedCrystal
_audit_creation_method	'MofGen! by Chris Wilmer'
_symmetry_space_group_name_H-M	'P1'
_symmetry_Int_Tables_number	1
_symmetry_cell_setting	triclinic
loop_
_symmetry_equiv_pos_as_xyz
  x,y,z
_cell_length_a	12.759399
_cell_length_b	12.759401
_cell_length_c	12.759393
_cell_angle_alpha	90.021396
_cell_angle_beta	89.967969
_cell_angle_gamma	89.984062
loop_
_atom_site_label
_atom_site_type_symbol
_atom_site_fract_x
_atom_site_fract_y
_atom_site_fract_z
Zn1	Zn	-0.418181	-1.606252	-0.594061
Zn2	Zn	-0.084847	-1.272919	-0.260727
Zn3	Zn	0.248486	-0.939585	0.072606
Zn4	Zn	-0.593900	-1.606145	-0.418380
Zn5	Zn	-0.260566	-1.272812	-0.085046
Zn6	Zn	0.072767	-0.939478	0.248287
Zn7	Zn	-0.418238	-1.430554	-0.418391
Zn8	Zn	-0.084905	-1.097221	-0.085058
Zn9	Zn	0.248429	-0.763887	0.248275
Zn10	Zn	-0.593821	-1.430541	-0.594012
Zn11	Zn	-0.260487	-1.097208	-0.260679
Zn12	Zn	0.072846	-0.763875	0.072655
O13	O	-0.506035	-1.518373	-0.506211
O14	O	-0.172701	-1.185040	-0.172878
O15	O	0.160632	-0.851706	0.160456
O16	O	-0.441499	-1.753259	-0.570772
O17	O	-0.108166	-1.419925	-0.237439
O18	O	0.225167	-1.086592	0.095895
O19	O	-0.570655	-1.582813	-0.271360
O20	O	-0.237322	-1.249480	0.061973
O21	O	0.096012	-0.916147	0.395307
O22	O	-0.271209	-1.453911	-0.441719
O23	O	0.062124	-1.120577	-0.108386
O24	O	0.395457	-0.787244	0.224947
O25	O	-0.570599	-1.753180	-0.441700
O26	O	-0.237266	-1.419847	-0.108366
O27	O	0.096067	-1.086514	0.224967
O28	O	-0.271167	-1.582995	-0.570783
O29	O	0.062166	-1.249662	-0.237450
O30	O	0.395499	-0.916329	0.095884
O31	O	-0.441597	-1.453807	-0.271369
O32	O	-0.108264	-1.120474	0.061965
O33	O	0.225070	-0.787141	0.395298
O34	O	-0.441520	-1.283531	-0.441672
O35	O	-0.108187	-0.950198	-0.108339
O36	O	0.225146	-0.616865	0.224995
O37	O	-0.570465	-1.453889	-0.741040
O38	O	-0.237131	-1.120556	-0.407706
O39	O	0.096202	-0.787222	-0.074373
O40	O	-0.570520	-1.283522	-0.570700
O41	O	-0.237187	-0.950189	-0.237367
O42	O	0.096146	-0.616855	0.095967
O43	O	-0.441423	-1.582983	-0.741075
O44	O	-0.108089	-1.249650	-0.407742
O45	O	0.225244	-0.916316	-0.074409
O46	O	-0.740910	-1.582801	-0.441652
O47	O	-0.407577	-1.249468	-0.108319
O48	O	-0.074244	-0.916134	0.225014
O49	O	-0.740852	-1.453785	-0.570689
O50	O	-0.407519	-1.120452	-0.237356
O51	O	-0.074186	-0.787119	0.095978
C52	C	-0.506019	-1.245406	-0.506183
C53	C	-0.172685	-0.912072	-0.172849
C54	C	0.160648	-0.578739	0.160484
C55	C	-0.506037	-1.128629	-0.506195
C56	C	-0.172704	-0.795296	-0.172862
C57	C	0.160630	-0.461962	0.160471
C58	C	-0.573309	-1.073790	-0.573273
C59	C	-0.239975	-0.740456	-0.239940
C60	C	0.093358	-0.407123	0.093394
C61	C	-0.573311	-0.964066	-0.573291
C62	C	-0.239978	-0.630732	-0.239958
C63	C	0.093355	-0.297399	0.093376
C64	C	-0.438768	-0.964030	-0.439145
C65	C	-0.105434	-0.630697	-0.105811
C66	C	0.227899	-0.297363	0.227522
C67	C	-0.438760	-1.073752	-0.439133
C68	C	-0.105427	-0.740419	-0.105799
C69	C	0.227906	-0.407085	0.227534
C70	C	-0.779002	-1.518309	-0.506187
C71	C	-0.445669	-1.184975	-0.172854
C72	C	-0.112336	-0.851642	0.160480
C73	C	-0.895779	-1.518377	-0.506212
C74	C	-0.562445	-1.185044	-0.172879
C75	C	-0.229112	-0.851711	0.160455
C76	C	-0.950636	-1.585632	-0.439099
C77	C	-0.617303	-1.252299	-0.105766
C78	C	-0.283969	-0.918966	0.227568
C79	C	-1.060360	-1.585700	-0.439134
C80	C	-0.727027	-1.252366	-0.105801
C81	C	-0.393693	-0.919033	0.227532
C82	C	-1.060360	-1.451248	-0.573398
C83	C	-0.727027	-1.117915	-0.240065
C84	C	-0.393693	-0.784581	0.093268
C85	C	-0.950638	-1.451187	-0.573368
C86	C	-0.617305	-1.117853	-0.240034
C87	C	-0.283971	-0.784520	0.093299
C88	C	-0.232001	-1.518466	-0.506258
C89	C	0.101332	-1.185133	-0.172925
C90	C	0.434665	-0.851800	0.160409
C91	C	-0.115225	-1.518506	-0.506278
C92	C	0.218109	-1.185173	-0.172945
C93	C	0.551442	-0.851839	0.160389
C94	C	-0.505929	-1.518446	-0.780244
C95	C	-0.172595	-1.185113	-0.446911
C96	C	0.160738	-0.851780	-0.113578
C97	C	-0.505883	-1.518478	-0.897021
C98	C	-0.172550	-1.185144	-0.563688
C99	C	0.160783	-0.851811	-0.230354
C100	C	-0.506049	-0.792406	-0.506233
C101	C	-0.172715	-0.459073	-0.172900
C102	C	0.160618	-0.125740	0.160434
C103	C	-0.506047	-0.909183	-0.506225
C104	C	-0.172713	-0.575850	-0.172892
C105	C	0.160620	-0.242516	0.160442
C106	C	-0.438671	-1.451328	-0.951887
C107	C	-0.105337	-1.117995	-0.618554
C108	C	0.227996	-0.784662	-0.285220
C109	C	-0.438638	-1.451353	-1.061611
C110	C	-0.105305	-1.118020	-0.728278
C111	C	0.228028	-0.784686	-0.394945
C112	C	-0.573034	-1.585685	-1.061594
C113	C	-0.239701	-1.252352	-0.728261
C114	C	0.093632	-0.919018	-0.394927
C115	C	-0.573071	-1.585654	-0.951872
C116	C	-0.239738	-1.252321	-0.618538
C117	C	0.093596	-0.918988	-0.285205
C118	C	-0.506065	-1.518360	-0.233244
C119	C	-0.172731	-1.185027	0.100090
C120	C	0.160602	-0.851694	0.433423
C121	C	-0.505814	-1.518533	-0.116467
C122	C	-0.172481	-1.185199	0.216866
C123	C	0.160853	-0.851866	0.550199
H124	H	-0.628087	-1.118467	-0.627883
H125	H	-0.294754	-0.785134	-0.294549
H126	H	0.038580	-0.451801	0.038784
F127	F	-0.892255	-1.657144	-0.367628
F128	F	-0.558921	-1.323810	-0.034295
F129	F	-0.225588	-0.990477	0.299039
F130	F	-0.367112	-1.379872	-1.119999
F131	F	-0.033779	-1.046539	-0.786665
F132	F	0.299554	-0.713205	-0.453332
H133	H	-0.628089	-0.919420	-0.627914
H134	H	-0.294756	-0.586087	-0.294580
H135	H	0.038577	-0.252754	0.038753
H136	H	-0.627735	-1.640379	-1.106267
H137	H	-0.294402	-1.307045	-0.772933
H138	H	0.038931	-0.973712	-0.439600
F139	F	-0.644616	-1.657124	-0.893476
F140	F	-0.311282	-1.323791	-0.560143
F141	F	0.022051	-0.990457	-0.226809
H142	H	-1.105020	-1.640467	-0.384486
H143	H	-0.771687	-1.307134	-0.051152
H144	H	-0.438353	-0.973800	0.282181
H145	H	-0.383995	-0.919336	-0.384543
H146	H	-0.050662	-0.586002	-0.051210
H147	H	0.282672	-0.252669	0.282124
H148	H	-0.383973	-1.118403	-0.384510
H149	H	-0.050640	-0.785070	-0.051177
H150	H	0.282694	-0.451737	0.282157
F151	F	-0.892251	-1.379606	-0.644807
F152	F	-0.558918	-1.046272	-0.311474
F153	F	-0.225585	-0.712939	0.021860
H154	H	-1.105040	-1.396543	-0.628072
H155	H	-0.771706	-1.063209	-0.294739
H156	H	-0.438373	-0.729876	0.038594
F157	F	-0.367166	-1.379830	-0.893515
F158	F	-0.033833	-1.046497	-0.560181
F159	F	0.299500	-0.713164	-0.226848
