data_functionalizedCrystal
_audit_creation_method	'MofGen! by Chris Wilmer'
_symmetry_space_group_name_H-M	'P1'
_symmetry_Int_Tables_number	1
_symmetry_cell_setting	triclinic
loop_
_symmetry_equiv_pos_as_xyz
  x,y,z
_cell_length_a	31.640172
_cell_length_b	14.628931
_cell_length_c	14.628931
_cell_angle_alpha	59.999972
_cell_angle_beta	59.998222
_cell_angle_gamma	90.004023
loop_
_atom_site_label
_atom_site_type_symbol
_atom_site_fract_x
_atom_site_fract_y
_atom_site_fract_z
Zr1	Zr	0.407183	-0.119842	1.000466
O2	O	0.339693	-0.265822	1.191190
O3	O	0.427872	-0.075091	0.809755
O4	O	0.427872	-0.265797	1.000461
O5	O	0.339693	0.075316	1.000484
O6	O	0.497429	-0.265777	1.000442
O7	O	0.339693	-0.075116	1.000484
O8	O	0.497429	0.075361	0.659304
O9	O	0.339693	-0.265821	1.341621
O10	O	0.488605	-0.055990	0.888178
O11	O	0.436696	0.056261	0.888192
O12	O	0.436696	-0.168271	1.112723
O13	O	0.384786	-0.056020	1.112737
Zr14	Zr	0.518118	0.120112	1.000435
Zr15	Zr	0.518118	-0.119810	1.000436
Zr16	Zr	0.407183	0.120080	1.000465
Zr17	Zr	0.407183	-0.119841	1.240387
Zr18	Zr	0.518118	0.120112	0.760514
O19	O	0.497429	0.075362	1.191146
O20	O	0.497429	-0.265776	1.191147
O21	O	0.339693	0.075316	1.191189
O22	O	0.585608	0.266092	0.809711
O23	O	0.585608	-0.075046	0.809712
O24	O	0.427872	0.266047	0.809754
O25	O	0.585608	-0.075045	1.000417
O26	O	0.497429	0.266067	1.000440
O27	O	0.427872	0.266047	1.000459
O28	O	0.585608	0.075387	1.000417
O29	O	0.427872	-0.265796	1.341597
O30	O	0.497429	0.266067	0.659303
O31	O	0.585608	0.266092	0.659279
O32	O	0.585608	0.075386	0.659280
O33	O	0.339694	-0.075115	1.341621
O34	O	0.427872	-0.075090	1.341597
O35	O	0.488605	0.168541	0.888177
O36	O	0.540515	0.056290	0.888164
O37	O	0.488606	-0.055990	1.112709
O38	O	0.436696	0.056261	1.112723
C39	C	0.323887	0.000095	1.000488
C40	C	0.276792	0.000082	1.000501
C41	C	0.462650	0.000135	0.700346
C42	C	0.462650	0.000135	0.598493
C43	C	0.462651	0.300241	1.000449
C44	C	0.462651	0.402094	1.000449
C45	C	0.011883	0.058767	0.883228
C46	C	-0.165103	0.058789	0.883205
O47	O	-0.164944	0.108675	0.783522
N48	N	-0.214328	0.000179	1.000415
C49	C	-0.219307	-0.058436	1.117638
O50	O	-0.265238	-0.108278	1.217332
C51	C	-0.042323	-0.058451	1.117659
C52	C	0.006903	0.000155	1.000442
C53	C	0.061106	0.117369	0.766020
C54	C	0.105349	0.117358	0.766027
C55	C	0.100369	0.058745	0.883241
C56	C	0.051146	0.000144	1.000449
C57	C	-0.047302	-0.117058	1.234881
C58	C	-0.003051	-0.117054	1.234876
C59	C	0.046175	-0.058449	1.117659
C60	C	0.090409	-0.058480	1.117670
N61	N	0.139635	0.000130	1.000461
C62	C	0.144615	0.058743	0.883246
C63	C	-0.312225	-0.058426	1.117619
C64	C	-0.356471	-0.058424	1.117614
C65	C	-0.302263	0.058803	0.883181
C66	C	-0.258016	0.058794	0.883187
C67	C	-0.262999	0.000185	1.000409
C68	C	0.237527	0.058715	0.883269
C69	C	0.281772	0.058694	0.883287
C70	C	0.227561	-0.058527	1.117719
C71	C	0.183319	-0.058512	1.117703
C72	C	0.188306	0.000117	1.000467
O73	O	0.090290	-0.108330	1.217302
O74	O	0.190550	0.108598	0.783568
C75	C	-0.032361	0.058778	0.883221
C76	C	-0.081584	0.000177	1.000429
C77	C	-0.086564	-0.058436	1.117643
C78	C	-0.125830	0.000179	1.000424
C79	C	-0.120850	0.058791	0.883209
C80	C	-0.071624	0.117402	0.766000
C81	C	-0.027381	0.117391	0.766007
C82	C	-0.135790	-0.117046	1.234852
C83	C	-0.180031	-0.117032	1.234836
C84	C	-0.175051	-0.058419	1.117622
C85	C	0.601414	0.000175	1.000412
C86	C	0.648509	0.000189	1.000400
C87	C	0.462650	-0.299970	1.000451
C88	C	0.462650	-0.401823	1.000451
C89	C	0.436900	0.391805	1.111839
C90	C	0.436900	0.497074	1.111841
C91	C	0.426234	-0.078634	0.526586
C92	C	0.426233	-0.078635	0.631858
C93	C	0.462651	0.000136	1.300555
C94	C	0.462651	0.000136	1.402408
C95	C	0.601414	0.000175	0.700308
C96	C	0.648509	0.000188	0.598442
C97	C	0.462651	0.300240	0.700345
C98	C	0.462651	0.402093	0.598492
C99	C	0.601414	0.300280	0.700307
C100	C	0.648509	0.402147	0.598441
C101	C	0.323887	-0.300010	1.300594
C102	C	0.276792	-0.401876	1.402460
C103	C	0.323888	0.000096	1.300593
C104	C	0.276793	0.000083	1.402458
C105	C	0.462651	-0.299970	1.300556
C106	C	0.462651	-0.401823	1.402409
C107	C	0.643529	-0.058425	0.550613
C108	C	0.687775	-0.058435	0.454912
C109	C	0.737001	0.000176	0.407037
C110	C	0.741980	0.058791	0.454876
C111	C	0.697734	0.058793	0.550581
C112	C	0.697726	0.391391	0.550597
C113	C	0.741981	0.487096	0.454896
C114	C	0.737018	0.593556	0.407035
C115	C	0.687795	0.604310	0.454889
C116	C	0.643541	0.508606	0.550595
C117	C	0.227575	-0.391120	1.450316
C118	C	0.183320	-0.486825	1.546046
C119	C	0.188284	-0.593285	1.593912
C120	C	0.237506	-0.604040	1.546052
C121	C	0.281760	-0.508335	1.450330
C122	C	0.281773	0.058686	1.450298
C123	C	0.237526	0.058669	1.546025
C124	C	0.188300	0.000055	1.593904
C125	C	0.183321	-0.058555	1.546060
C126	C	0.227567	-0.058544	1.450341
C127	C	0.488401	0.503201	0.553075
C128	C	0.488402	0.608473	0.447805
H129	H	0.241596	0.106457	0.787805
C130	C	0.129183	-0.474976	1.598663
H131	H	0.132569	-0.397864	1.556425
H132	H	0.110791	-0.509858	1.689017
H133	H	0.110793	-0.509881	1.582982
C134	C	0.796129	0.123279	0.402188
H135	H	0.792763	0.158192	0.444375
H136	H	0.814507	0.178724	0.311831
H137	H	0.814520	0.072701	0.417867
C138	C	0.066593	0.181841	0.637073
H139	H	0.102249	0.216729	0.567281
H140	H	0.050464	0.237305	0.632175
H141	H	0.050461	0.131249	0.632197
C142	C	0.407119	0.274629	1.240671
H143	H	0.411029	0.219248	1.223768
H144	H	0.371463	0.266162	1.288873
H145	H	0.420499	0.266182	1.288847
C146	C	0.139601	-0.698550	1.699186
H147	H	0.109580	-0.676887	1.720813
H148	H	0.139589	-0.741858	1.773867
H149	H	0.139597	-0.741836	1.667804
H150	H	0.683711	-0.106166	0.415973
C151	C	0.785700	0.698821	0.301752
H152	H	0.815721	0.677157	0.280109
H153	H	0.785710	0.742124	0.333104
H154	H	0.785707	0.742111	0.227071
H155	H	0.241541	-0.690731	1.585036
H156	H	0.414856	0.488439	1.207206
H157	H	0.493830	0.067574	0.492007
C158	C	0.243012	0.123155	1.598623
H159	H	0.278667	0.158079	1.556377
H160	H	0.226885	0.072582	1.688976
H161	H	0.226876	0.178611	1.582937
C162	C	0.785667	0.000175	0.301752
H163	H	0.775646	-0.043120	0.280120
H164	H	0.805690	-0.031193	0.333098
H165	H	0.805683	0.074847	0.227067
C166	C	0.335897	-0.520175	1.397648
H167	H	0.361547	-0.447936	1.333777
H168	H	0.339755	-0.559946	1.360332
H169	H	0.339791	-0.559940	1.466333
H170	H	0.152277	0.000056	1.671844
H171	H	0.484699	0.606820	0.905082
C172	C	0.335919	0.123170	0.754343
H173	H	0.332545	0.158088	0.684537
H174	H	0.354306	0.072591	0.749463
H175	H	0.354307	0.178629	0.749475
C176	C	0.492434	0.519267	0.871613
H177	H	0.508586	0.512072	0.801728
H178	H	0.518059	0.559018	0.866800
H179	H	0.469025	0.558994	0.866819
H180	H	0.603468	0.517380	0.589537
H181	H	0.012697	0.165116	0.670556
H182	H	0.223505	-0.106263	1.411393
H183	H	0.510449	0.695210	0.408746
H184	H	0.493826	0.067577	0.374030
C185	C	0.384116	-0.169740	0.564935
H186	H	0.389644	-0.157792	0.489149
H187	H	0.351025	-0.166339	0.614661
H188	H	0.385700	-0.241305	0.614643
H189	H	0.395057	-0.146076	0.738346
H190	H	0.701777	0.304714	0.589551
C191	C	0.129171	-0.123016	1.598726
H192	H	0.103538	-0.114610	1.662571
H193	H	0.125280	-0.200119	1.636068
H194	H	0.125287	-0.094061	1.530022
C195	C	0.432865	0.390422	0.545752
H196	H	0.416706	0.313336	0.587903
H197	H	0.456268	0.425365	0.455389
H198	H	0.407237	0.425347	0.561453
H199	H	0.683762	0.691003	0.415907
H200	H	0.603450	-0.106166	0.589592
C201	C	0.335916	0.123167	1.397647
H202	H	0.332537	0.158054	1.439868
H203	H	0.354304	0.178633	1.307292
H204	H	0.354305	0.072585	1.413330
H205	H	0.701796	0.106530	0.589512
C206	C	0.796119	0.475247	0.402261
H207	H	0.792733	0.398134	0.444461
H208	H	0.814512	0.510131	0.417947
H209	H	0.814507	0.510150	0.311899
H210	H	0.223524	-0.304443	1.411349
H211	H	0.510445	0.511828	0.592132
H212	H	0.145427	0.165075	0.670577
H213	H	-0.217938	0.106526	0.787738
H214	H	-0.298215	0.106521	0.787740
H215	H	0.440607	0.511445	0.441453
H216	H	-0.396549	-0.106160	1.213064
H217	H	-0.316290	-0.106160	1.213081
H218	H	-0.087377	-0.164779	1.330332
H219	H	-0.007114	-0.164767	1.330335
H220	H	0.143237	-0.106248	1.213150
H221	H	-0.067576	0.165120	0.670560
C222	C	0.222088	-0.122995	1.246648
H223	H	0.186435	-0.157906	1.316462
H224	H	0.238228	-0.072409	1.251510
H225	H	0.238219	-0.178459	1.251522
C226	C	-0.234178	-0.181499	1.363781
H227	H	-0.259819	-0.173108	1.347002
H228	H	-0.238052	-0.152556	1.411932
H229	H	-0.238067	-0.258607	1.411947
C230	C	-0.141275	-0.181533	1.363795
H231	H	-0.176931	-0.216440	1.433591
H232	H	-0.125141	-0.130968	1.368689
H233	H	-0.125148	-0.237001	1.368669
