data_functionalizedCrystal
_audit_creation_method	'MofGen! by Chris Wilmer'
_symmetry_space_group_name_H-M	'P1'
_symmetry_Int_Tables_number	1
_symmetry_cell_setting	triclinic
loop_
_symmetry_equiv_pos_as_xyz
  x,y,z
_cell_length_a	19.121102
_cell_length_b	19.120786
_cell_length_c	18.050582
_cell_angle_alpha	87.534997
_cell_angle_beta	87.546607
_cell_angle_gamma	89.915559
loop_
_atom_site_label
_atom_site_type_symbol
_atom_site_fract_x
_atom_site_fract_y
_atom_site_fract_z
Zn1	Zn	1.059826	-0.324966	-0.452986
Zn2	Zn	1.054747	-0.442199	-0.323274
Zn3	Zn	0.942598	-0.319967	-0.323755
Zn4	Zn	0.937556	-0.437162	-0.442370
O5	O	0.998682	-0.381073	-0.385596
O6	O	1.157257	-0.344717	-0.440022
O7	O	1.039855	-0.426001	-0.219412
O8	O	0.962385	-0.222521	-0.345542
O9	O	1.153525	-0.430848	-0.344722
O10	O	1.048512	-0.226194	-0.440488
O11	O	0.957460	-0.336197	-0.219765
O12	O	0.843825	-0.331313	-0.335248
O13	O	0.953791	-0.422263	-0.547705
O14	O	0.840120	-0.417416	-0.422394
O15	O	1.043622	-0.339833	-0.555504
O16	O	1.034965	-0.539640	-0.334428
O17	O	0.948866	-0.535939	-0.421928
C18	C	0.816535	-0.373276	-0.377722
C19	C	0.738611	-0.369957	-0.374369
C20	C	0.700089	-0.413294	-0.418089
C21	C	0.626871	-0.410166	-0.414944
C22	C	0.592177	-0.363704	-0.368074
C23	C	0.630705	-0.320362	-0.324352
C24	C	0.703921	-0.323487	-0.327502
C25	C	0.371207	-0.352020	-0.356300
C26	C	0.297985	-0.348901	-0.353152
C27	C	0.294157	-0.438704	-0.443744
C28	C	0.367375	-0.441828	-0.446887
C29	C	0.405896	-0.398483	-0.403169
C30	C	0.517337	-0.360508	-0.364856
C31	C	0.480735	-0.401677	-0.406391
C32	C	0.990836	-0.563229	-0.376991
C33	C	0.987544	-0.641158	-0.373337
C34	C	1.030805	-0.679620	-0.421091
C35	C	1.027709	-0.752843	-0.417659
C36	C	0.981354	-0.787603	-0.366469
C37	C	0.938088	-0.749136	-0.318713
C38	C	0.941181	-0.675914	-0.322149
C39	C	0.969769	-1.008592	-0.353622
C40	C	0.966681	-1.081819	-0.350188
C41	C	1.056301	-1.085521	-0.449135
C42	C	1.059393	-1.012298	-0.452564
C43	C	1.016124	-0.973837	-0.404810
C44	C	0.978189	-0.862448	-0.362958
C45	C	1.019286	-0.898993	-0.408325
C46	C	1.181540	-0.388902	-0.393502
C47	C	1.259463	-0.392238	-0.396872
C48	C	0.998711	-0.381043	-0.579305
C49	C	0.998723	-0.381031	-0.661852
C50	C	1.006577	-0.198208	-0.394253
C51	C	1.009942	-0.120281	-0.397942
C52	C	0.949911	-0.425794	-0.857066
C53	C	1.013142	-0.445665	-0.908408
C54	C	0.998760	-0.380979	-0.812986
C55	C	0.935565	-0.361089	-0.908728
C56	C	0.998790	-0.380929	-0.958975
C57	C	1.062023	-0.400885	-0.863242
C58	C	0.984403	-0.316278	-0.863556
C59	C	1.047680	-0.336127	-0.914880
C60	C	0.998741	-0.381009	-0.728886
C61	C	0.998815	-0.380900	-1.043074
C62	C	0.998696	-0.381054	-0.192646
C63	C	0.998828	-0.380875	-0.110114
H64	H	0.262785	-0.473992	-0.479339
O65	O	1.102468	-0.285896	-0.948151
H66	H	1.140782	-0.314822	-0.983194
H67	H	0.395617	-0.479664	-0.485052
O68	O	0.916689	-1.119310	-0.294961
H69	H	0.921820	-1.176687	-0.300586
H70	H	0.508986	-0.439503	-0.444556
H71	H	0.972223	-0.261597	-0.843761
H72	H	0.269740	-0.311057	-0.314990
H73	H	0.402562	-0.316731	-0.320696
H74	H	1.097139	-0.983998	-0.494246
H75	H	1.062942	-0.784155	-0.456539
H76	H	0.602451	-0.282529	-0.286193
O77	O	0.745475	-0.276754	-0.280339
H78	H	0.709051	-0.243927	-0.247211
O79	O	0.479903	-0.310422	-0.314284
H80	H	0.448076	-0.273375	-0.347821
O81	O	1.080810	-0.642136	-0.476300
H82	H	1.050823	-0.607436	-0.514263
H83	H	1.091527	-1.116844	-0.488014
O84	O	0.923118	-0.967114	-0.302105
H85	H	0.890376	-1.003589	-0.265925
O86	O	0.888098	-0.786622	-0.263489
H87	H	0.893223	-0.844000	-0.269113
O88	O	0.894527	-0.634425	-0.270638
H89	H	0.861780	-0.670896	-0.234459
O90	O	1.069289	-0.861508	-0.463531
H91	H	1.039303	-0.826809	-0.501495
H92	H	0.940449	-0.890758	-0.321277
O93	O	0.864760	-0.338821	-0.935275
H94	H	0.824297	-0.376122	-0.911988
O95	O	0.895245	-0.476060	-0.823603
H96	H	0.907349	-0.529715	-0.841508
H97	H	1.025303	-0.500361	-0.928185
H98	H	1.115492	-0.417749	-0.843286
H99	H	0.595509	-0.445457	-0.450544
O100	O	0.737508	-0.463404	-0.468645
H101	H	0.698418	-0.493008	-0.498524
