data_functionalizedCrystal
_audit_creation_method	'MofGen! by Chris Wilmer'
_symmetry_space_group_name_H-M	'P1'
_symmetry_Int_Tables_number	1
_symmetry_cell_setting	triclinic
loop_
_symmetry_equiv_pos_as_xyz
  x,y,z
_cell_length_a	16.120490
_cell_length_b	21.295417
_cell_length_c	16.120297
_cell_angle_alpha	92.868089
_cell_angle_beta	90.129683
_cell_angle_gamma	87.121864
loop_
_atom_site_label
_atom_site_type_symbol
_atom_site_fract_x
_atom_site_fract_y
_atom_site_fract_z
Zn1	Zn	1.247403	-0.318967	-0.534501
Zn2	Zn	1.254340	-0.419177	-0.395433
Zn3	Zn	1.115394	-0.308324	-0.388424
Zn4	Zn	1.108296	-0.418591	-0.527406
O5	O	1.181358	-0.366265	-0.461441
O6	O	1.364689	-0.336959	-0.521956
O7	O	1.241782	-0.400263	-0.278138
O8	O	1.132973	-0.221651	-0.407837
O9	O	1.369786	-0.410583	-0.419784
O10	O	1.229959	-0.229470	-0.515160
O11	O	1.139699	-0.318820	-0.272988
O12	O	0.998086	-0.318252	-0.400957
O13	O	1.120875	-0.409585	-0.644712
O14	O	0.992871	-0.399265	-0.503067
O15	O	1.223076	-0.336391	-0.649925
O16	O	1.234899	-0.507185	-0.412904
O17	O	1.127601	-0.506754	-0.509863
C18	C	0.965306	-0.357541	-0.450482
C19	C	0.872877	-0.353824	-0.445813
C20	C	0.659911	-0.385537	-0.485659
C21	C	0.703653	-0.347045	-0.437288
C22	C	0.797818	-0.350818	-0.442033
C23	C	0.565737	-0.381765	-0.480916
C24	C	1.181254	-0.529811	-0.461393
C25	C	1.181284	-0.599780	-0.461405
C26	C	1.231753	-0.636661	-0.517324
C27	C	1.231781	-0.702406	-0.517346
C28	C	1.181351	-0.731267	-0.461434
C29	C	1.130872	-0.694377	-0.405511
C30	C	1.130839	-0.628634	-0.405496
N31	N	1.178760	-0.831630	-0.388343
N32	N	1.178796	-0.894083	-0.388359
C33	C	1.181446	-0.929346	-0.461477
N34	N	1.184074	-0.899798	-0.534579
N35	N	1.184042	-0.837339	-0.534562
C36	C	1.181380	-0.802553	-0.461445
C37	C	1.231947	-1.037515	-0.517425
C38	C	1.231970	-1.103261	-0.517448
C39	C	1.131065	-1.095231	-0.405605
C40	C	1.131038	-1.029487	-0.405589
C41	C	1.181484	-1.000633	-0.461498
C42	C	1.398254	-0.375023	-0.472443
C43	C	1.490682	-0.378756	-0.477132
C44	C	1.170410	-0.374110	-0.678335
C45	C	1.165744	-0.377453	-0.770762
C46	C	1.181484	-0.202082	-0.461508
C47	C	1.181538	-0.132117	-0.461536
C48	C	1.157196	-0.383541	-0.939986
C49	C	1.205684	-0.348807	-0.983756
C50	C	1.200928	-0.352194	-1.077918
C51	C	1.161951	-0.380154	-0.845815
C52	C	1.192312	-0.358407	-0.245394
C53	C	1.197138	-0.354893	-0.152975
H54	H	0.670382	-0.311257	-0.392313
Cl55	Cl	0.711276	-0.440795	-0.555084
H56	H	1.272826	-0.613171	-0.562850
Cl57	Cl	1.295238	-0.748780	-0.587645
H58	H	1.250768	-0.316525	-0.950511
Cl59	Cl	1.067387	-0.582267	-0.335192
Cl60	Cl	1.067468	-0.730658	-0.335226
Cl61	Cl	1.295359	-1.001239	-0.587712
H62	H	1.089998	-1.118728	-0.360086
Cl63	Cl	1.087596	-0.433381	-0.991311
H64	H	1.273067	-1.133289	-0.562988
H65	H	1.089946	-0.999456	-0.360051
