data_functionalizedCrystal
_audit_creation_method	'MofGen! by Chris Wilmer'
_symmetry_space_group_name_H-M	'P1'
_symmetry_Int_Tables_number	1
_symmetry_cell_setting	triclinic
loop_
_symmetry_equiv_pos_as_xyz
  x,y,z
_cell_length_a	18.215407
_cell_length_b	16.625546
_cell_length_c	18.215398
_cell_angle_alpha	89.973350
_cell_angle_beta	89.980536
_cell_angle_gamma	90.022916
loop_
_atom_site_label
_atom_site_type_symbol
_atom_site_fract_x
_atom_site_fract_y
_atom_site_fract_z
Zn1	Zn	1.125082	-0.321020	-0.416110
Zn2	Zn	1.625082	0.178980	0.083890
Zn3	Zn	1.124996	-0.455855	-0.293041
Zn4	Zn	1.624996	0.044145	0.206959
Zn5	Zn	1.002015	-0.321041	-0.293057
Zn6	Zn	1.502015	0.178959	0.206943
Zn7	Zn	1.001985	-0.455816	-0.416066
Zn8	Zn	1.501985	0.044184	0.083934
O9	O	1.063519	-0.388433	-0.354568
O10	O	1.563519	0.111567	0.145432
O11	O	1.228055	-0.338914	-0.399796
O12	O	1.728055	0.161086	0.100204
O13	O	1.108659	-0.437996	-0.190059
O14	O	1.608659	0.062004	0.309941
O15	O	1.018388	-0.208206	-0.309405
O16	O	1.518388	0.291794	0.190595
O17	O	1.227992	-0.437976	-0.309378
O18	O	1.727992	0.062024	0.190622
O19	O	1.108805	-0.208191	-0.399812
O20	O	1.608805	0.291809	0.100188
O21	O	1.018305	-0.338949	-0.190070
O22	O	1.518305	0.161051	0.309930
O23	O	0.899027	-0.338911	-0.309363
O24	O	1.399027	0.161089	0.190637
O25	O	1.018338	-0.437910	-0.519056
O26	O	1.518338	0.062090	-0.019056
O27	O	0.899005	-0.437930	-0.399737
O28	O	1.399005	0.062070	0.100263
O29	O	1.108776	-0.338876	-0.519088
O30	O	1.608776	0.161124	-0.019088
O31	O	1.108630	-0.568682	-0.309335
O32	O	1.608630	-0.068682	0.190665
O33	O	1.018255	-0.568653	-0.399721
O34	O	1.518255	-0.068653	0.100279
C35	C	0.872313	-0.388419	-0.354547
C36	C	1.372313	0.111581	0.145453
C37	C	0.790514	-0.388433	-0.354556
C38	C	1.290514	0.111567	0.145444
C39	C	0.602328	-0.440073	-0.401554
C40	C	1.102328	0.059927	0.098446
C41	C	0.525470	-0.440075	-0.401563
C42	C	1.025470	0.059925	0.098437
C43	C	0.525463	-0.336808	-0.307598
C44	C	1.025463	0.163192	0.192402
C45	C	0.602320	-0.336802	-0.307593
C46	C	1.102320	0.163198	0.192407
C47	C	0.640751	-0.388439	-0.354570
C48	C	1.140751	0.111561	0.145430
C49	C	0.487035	-0.388447	-0.354584
C50	C	0.987035	0.111553	0.145416
C51	C	0.403701	-0.388450	-0.354594
C52	C	0.903701	0.111550	0.145406
C53	C	0.724090	-0.388436	-0.354562
C54	C	1.224090	0.111564	0.145438
C55	C	1.063450	-0.597924	-0.354537
C56	C	1.563450	-0.097924	0.145463
C57	C	1.063487	-0.687545	-0.354549
C58	C	1.563487	-0.187545	0.145451
C59	C	1.063616	-1.015720	-0.354625
C60	C	1.563616	-0.515720	0.145375
C61	C	1.063578	-0.924412	-0.354606
C62	C	1.563578	-0.424412	0.145394
C63	C	1.063551	-0.851636	-0.354587
C64	C	1.563551	-0.351636	0.145413
C65	C	1.063514	-0.760321	-0.354568
C66	C	1.563514	-0.260321	0.145432
C67	C	1.255472	-0.388447	-0.354590
C68	C	1.755472	0.111553	0.145410
C69	C	1.337271	-0.388453	-0.354599
C70	C	1.837271	0.111547	0.145401
C71	C	1.063563	-0.388387	-0.546521
C72	C	1.563563	0.111613	-0.046521
C73	C	1.063582	-0.388367	-0.628320
C74	C	1.563582	0.111633	-0.128320
C75	C	1.063609	-0.178124	-0.354615
C76	C	1.563609	0.321876	0.145385
C77	C	1.063648	-0.088503	-0.354635
C78	C	1.563648	0.411497	0.145365
C79	C	1.110662	-0.439841	-0.893376
C80	C	1.610662	0.060159	-0.393376
C81	C	1.110651	-0.439869	-0.816517
C82	C	1.610651	0.060131	-0.316517
C83	C	1.016556	-0.336737	-0.816513
C84	C	1.516556	0.163263	-0.316513
C85	C	1.016565	-0.336714	-0.893370
C86	C	1.516565	0.163286	-0.393370
C87	C	1.063622	-0.388264	-0.931800
C88	C	1.563622	0.111736	-0.431800
C89	C	1.063602	-0.388316	-0.778084
C90	C	1.563602	0.111684	-0.278084
C91	C	1.063590	-0.388346	-0.694750
C92	C	1.563590	0.111654	-0.194750
C93	C	1.063633	-0.388236	-1.015139
C94	C	1.563633	0.111764	-0.515139
C95	C	1.063518	-0.388421	-0.163362
C96	C	1.563518	0.111579	0.336638
C97	C	1.063642	-0.388213	-0.081563
C98	C	1.563642	0.111787	0.418437
H99	H	0.633616	-0.482117	-0.439808
H100	H	1.133616	0.017883	0.060192
H101	H	0.494189	-0.482119	-0.439823
H102	H	0.994189	0.017881	0.060177
N103	N	0.641572	-0.284068	-0.259586
N104	N	1.141572	0.215932	0.240414
N105	N	0.684432	-0.312369	-0.212643
N106	N	1.184432	0.187631	0.287357
H107	H	0.712155	-0.275127	-0.178740
H108	H	1.212155	0.224873	0.321260
N109	N	1.158738	-0.492496	-0.932620
N110	N	1.658738	0.007504	-0.432620
N111	N	1.200738	-0.538539	-0.898300
N112	N	1.700738	-0.038539	-0.398300
H113	H	1.234695	-0.575727	-0.926014
H114	H	1.734695	-0.075727	-0.426014
N115	N	0.486194	-0.284069	-0.259620
N116	N	0.986194	0.215931	0.240380
N117	N	0.417572	-0.284081	-0.259630
N118	N	0.917572	0.215919	0.240370
H119	H	0.389838	-0.246835	-0.225743
H120	H	0.889838	0.253165	0.274257
N121	N	1.158703	-0.492563	-0.777280
N122	N	1.658703	0.007437	-0.277280
N123	N	1.200709	-0.538587	-0.811604
N124	N	1.700709	-0.038587	-0.311604
H125	H	1.234647	-0.575806	-0.783894
H126	H	1.734647	-0.075806	-0.283894
N127	N	0.968495	-0.284088	-0.777245
N128	N	1.468495	0.215912	-0.277245
N129	N	0.968493	-0.284114	-0.708623
N130	N	1.468493	0.215886	-0.208623
H131	H	0.934550	-0.246929	-0.680890
H132	H	1.434550	0.253071	-0.180890
N133	N	0.968501	-0.284027	-0.932613
N134	N	1.468501	0.215973	-0.432613
N135	N	0.926493	-0.238001	-0.898295
N136	N	1.426493	0.261999	-0.398295
H137	H	0.892546	-0.200794	-0.926009
H138	H	1.392546	0.299206	-0.426009
