data_functionalizedCrystal
_audit_creation_method	'MofGen! by Chris Wilmer'
_symmetry_space_group_name_H-M	'P1'
_symmetry_Int_Tables_number	1
_symmetry_cell_setting	triclinic
loop_
_symmetry_equiv_pos_as_xyz
  x,y,z
_cell_length_a	11.169416
_cell_length_b	12.594517
_cell_length_c	11.169409
_cell_angle_alpha	90.029349
_cell_angle_beta	89.968635
_cell_angle_gamma	89.994796
loop_
_atom_site_label
_atom_site_type_symbol
_atom_site_fract_x
_atom_site_fract_y
_atom_site_fract_z
Zn1	Zn	-0.477868	-1.627333	-0.678856
Zn2	Zn	-0.678609	-1.627236	-0.478176
Zn3	Zn	-0.477921	-1.449331	-0.478157
Zn4	Zn	-0.678491	-1.449338	-0.678788
O5	O	-0.578222	-1.538309	-0.578494
O6	O	-0.504524	-1.776266	-0.652272
O7	O	-0.652058	-1.603593	-0.310224
O8	O	-0.309964	-1.472981	-0.504800
O9	O	-0.652007	-1.776195	-0.504833
O10	O	-0.309925	-1.603759	-0.652253
O11	O	-0.504614	-1.472886	-0.310210
O12	O	-0.504500	-1.300386	-0.504734
O13	O	-0.651806	-1.472993	-0.846746
O14	O	-0.651857	-1.300391	-0.652137
O15	O	-0.504410	-1.603766	-0.846797
O16	O	-0.846543	-1.603600	-0.504767
O17	O	-0.846456	-1.472899	-0.652156
C18	C	-0.890047	-1.538268	-0.578482
C19	C	-1.023447	-1.538348	-0.578517
C20	C	-0.578172	-1.261768	-0.578427
C21	C	-0.578180	-1.143463	-0.578427
C22	C	-0.497932	-1.003412	-0.498424
C23	C	-0.468686	-1.074272	-0.607948
C24	C	-0.607372	-1.074175	-0.468914
C25	C	-0.548906	-1.003537	-0.688076
C26	C	-0.687643	-1.003434	-0.548968
C27	C	-0.658439	-1.074261	-0.658568
C28	C	-0.265180	-1.538380	-0.578532
C29	C	-0.131780	-1.538410	-0.578548
C30	C	-0.578089	-1.538391	-0.891537
C31	C	-0.578032	-1.538426	-1.024937
C32	C	-0.578251	-0.815930	-0.578538
C33	C	-0.578209	-0.934236	-0.578493
C34	C	-0.578268	-1.538289	-0.266669
C35	C	-0.577987	-1.538461	-0.133270
H36	H	-0.430005	-0.972308	-0.430824
H37	H	-0.726315	-1.105171	-0.726330
Br38	Br	-0.314415	-1.126121	-0.649551
H39	H	-0.524120	-0.972637	-0.780744
H40	H	-0.780175	-0.972295	-0.523984
Br41	Br	-0.648505	-1.125901	-0.314509
