data_functionalizedCrystal
_audit_creation_method	'MofGen! by Chris Wilmer'
_symmetry_space_group_name_H-M	'P1'
_symmetry_Int_Tables_number	1
_symmetry_cell_setting	triclinic
loop_
_symmetry_equiv_pos_as_xyz
  x,y,z
_cell_length_a	12.759401
_cell_length_b	12.759400
_cell_length_c	16.959447
_cell_angle_alpha	89.977220
_cell_angle_beta	90.014656
_cell_angle_gamma	89.997591
loop_
_atom_site_label
_atom_site_type_symbol
_atom_site_fract_x
_atom_site_fract_y
_atom_site_fract_z
Zn1	Zn	-1.606270	-0.418284	-0.446957
Zn2	Zn	-1.606217	-0.593991	-0.314796
Zn3	Zn	-1.430591	-0.418322	-0.314794
Zn4	Zn	-1.430594	-0.593917	-0.446934
O5	O	-1.518418	-0.506129	-0.380870
O6	O	-1.753284	-0.441607	-0.429436
O7	O	-1.582897	-0.570735	-0.204185
O8	O	-1.453917	-0.271296	-0.332335
O9	O	-1.753245	-0.570698	-0.332338
O10	O	-1.582987	-0.271268	-0.429434
O11	O	-1.453865	-0.441672	-0.204183
O12	O	-1.283571	-0.441601	-0.332312
O13	O	-1.453922	-0.570573	-0.557548
O14	O	-1.283573	-0.570610	-0.429395
O15	O	-1.582990	-0.441536	-0.557565
O16	O	-1.582900	-0.741002	-0.332316
O17	O	-1.453870	-0.740948	-0.429397
C18	C	-1.245451	-0.506102	-0.380851
C19	C	-1.128674	-0.506116	-0.380861
C20	C	-0.964069	-0.573249	-0.330245
C21	C	-1.073793	-0.573230	-0.330234
C22	C	-1.073826	-0.439009	-0.431498
C23	C	-0.964104	-0.439024	-0.431505
C24	C	-0.909193	-0.640375	-0.279620
C25	C	-0.964034	-0.707481	-0.228982
C26	C	-1.073758	-0.707462	-0.228971
C27	C	-1.128641	-0.640337	-0.279597
C28	C	-1.518408	-0.779096	-0.380871
C29	C	-1.518500	-0.895873	-0.380898
C30	C	-1.518462	-0.506042	-0.587039
C31	C	-1.518481	-0.506005	-0.674895
C32	C	-0.792452	-0.506152	-0.380885
C33	C	-0.909228	-0.506150	-0.380880
C34	C	-1.518457	-0.232095	-0.380887
C35	C	-1.518474	-0.115319	-0.380894
C36	C	-1.585669	0.049240	-0.330351
C37	C	-1.585659	-0.060485	-0.330351
C38	C	-1.451302	-0.060423	-0.431446
C39	C	-1.451318	0.049299	-0.431450
C40	C	-1.652851	0.104068	-0.279798
C41	C	-1.720025	0.049180	-0.229247
C42	C	-1.720015	-0.060544	-0.229246
C43	C	-1.652831	-0.115380	-0.279798
C44	C	-1.451406	-0.573077	-1.046365
C45	C	-1.585806	-0.438710	-1.046377
C46	C	-1.585778	-0.438732	-0.963832
C47	C	-1.518564	-0.505929	-0.922548
C48	C	-1.451378	-0.573104	-0.963811
C49	C	-1.652971	-0.371567	-0.922563
C50	C	-1.652946	-0.371587	-0.840012
C51	C	-1.585726	-0.438779	-0.798727
C52	C	-1.518537	-0.505956	-0.839995
C53	C	-1.451323	-0.573153	-0.798711
C54	C	-1.384127	-0.640325	-0.839978
C55	C	-1.384158	-0.640296	-0.922526
C56	C	-1.585695	-0.438808	-0.716178
C57	C	-1.451295	-0.573179	-0.716158
C58	C	-1.518435	-0.506139	-0.175504
C59	C	-1.518620	-0.505881	-0.087648
H60	H	-0.819850	-0.640400	-0.279625
C61	C	-1.377487	-0.646956	-1.091757
N62	N	-1.321809	-0.702599	-1.125948
C63	C	-0.903660	-0.781310	-0.173293
N64	N	-0.858188	-0.836920	-0.131347
C65	C	-1.377395	-0.120747	-0.487041
N66	N	-1.321723	-0.166183	-0.528913
H67	H	-1.774730	0.093833	-0.188094
H68	H	-1.118406	-0.762095	-0.187733
C69	C	-1.659730	-0.364791	-1.091792
N70	N	-1.715408	-0.309107	-1.126001
H71	H	-1.217986	-0.640319	-0.279578
C72	C	-1.134202	-0.365182	-0.487188
N73	N	-1.179678	-0.309578	-0.529136
C74	C	-1.652883	0.224767	-0.279806
N75	N	-1.652911	0.315677	-0.279815
C76	C	-0.903776	-0.365214	-0.487208
N77	N	-0.858337	-0.309617	-0.529164
H78	H	-1.640407	-0.384120	-0.682583
H79	H	-1.774719	-0.105231	-0.188091
H80	H	-1.329455	-0.694987	-0.956133
H81	H	-1.707699	-0.316865	-0.956182
H82	H	-1.652837	-0.204725	-0.279800
C83	C	-1.377412	0.109679	-0.487043
N84	N	-1.321742	0.155157	-0.528914
H85	H	-1.396551	-0.627890	-0.682551
C86	C	-1.310194	-0.714239	-0.794556
N87	N	-1.254508	-0.769908	-0.760340
H88	H	-1.707660	-0.316891	-0.806420
