data_functionalizedCrystal
_audit_creation_method	'MofGen! by Chris Wilmer'
_symmetry_space_group_name_H-M	'P1'
_symmetry_Int_Tables_number	1
_symmetry_cell_setting	triclinic
loop_
_symmetry_equiv_pos_as_xyz
  x,y,z
_cell_length_a	17.699083
_cell_length_b	23.532407
_cell_length_c	16.176319
_cell_angle_alpha	89.988536
_cell_angle_beta	89.998611
_cell_angle_gamma	83.065847
loop_
_atom_site_label
_atom_site_type_symbol
_atom_site_fract_x
_atom_site_fract_y
_atom_site_fract_z
O1	O	1.003713	0.072020	-0.068639
O2	O	1.503713	0.572020	0.431361
O3	O	0.783287	0.081390	-0.068667
O4	O	1.283287	0.581390	0.431333
O5	O	0.900147	-0.006208	-0.068637
O6	O	1.400147	0.493792	0.431363
O7	O	0.886853	0.159618	-0.068669
O8	O	1.386853	0.659618	0.431331
O9	O	0.900131	-0.006213	0.068856
O10	O	1.400131	0.493787	0.568856
O11	O	0.783271	0.081384	0.068826
O12	O	1.283271	0.581384	0.568826
O13	O	1.003697	0.072014	0.068854
O14	O	1.503697	0.572014	0.568854
Cu15	Cu	0.893483	0.076699	0.081394
Cu16	Cu	1.393483	0.576699	0.581394
Cu17	Cu	0.893502	0.076705	-0.081207
Cu18	Cu	1.393502	0.576705	0.418793
O19	O	0.886837	0.159612	0.068824
O20	O	1.386837	0.659612	0.568824
C21	C	0.755084	0.081051	0.000076
C22	C	1.255084	0.581051	0.500076
C23	C	0.671071	0.080044	0.000066
C24	C	1.171071	0.580044	0.500066
C25	C	0.622189	0.131462	0.000056
C26	C	1.122189	0.631462	0.500056
C27	C	0.543251	0.130512	0.000067
C28	C	1.043251	0.630512	0.500067
C29	C	0.513196	0.078144	0.000082
C30	C	1.013196	0.578144	0.500082
C31	C	0.562084	0.026722	0.000094
C32	C	1.062084	0.526722	0.500094
C33	C	0.641021	0.027672	0.000089
C34	C	1.141021	0.527672	0.500089
C35	C	0.243740	0.022888	0.000115
C36	C	0.743740	0.522888	0.500115
C37	C	0.164797	0.021942	0.000117
C38	C	0.664797	0.521942	0.500117
C39	C	0.145970	0.125728	0.000093
C40	C	0.645970	0.625728	0.500093
C41	C	0.224907	0.126678	0.000088
C42	C	0.724907	0.626678	0.500088
C43	C	0.273788	0.075257	0.000105
C44	C	0.773788	0.575257	0.500105
C45	C	0.359382	0.076287	0.000094
C46	C	0.859382	0.576287	0.500094
C47	C	0.427603	0.077113	0.000086
C48	C	0.927603	0.577113	0.500086
C49	C	0.899801	-0.027427	0.000111
C50	C	1.399801	0.472573	0.500111
C51	C	0.898783	-0.090647	0.000118
C52	C	1.398783	0.409353	0.500118
C53	C	0.961554	-0.489570	0.000080
C54	C	1.461554	0.010430	0.500080
C55	C	0.960609	-0.548973	0.000074
C56	C	1.460609	-0.048973	0.500074
O57	O	1.018799	-0.585550	0.000051
O58	O	1.518799	-0.085550	0.500051
N59	N	0.891136	-0.571799	0.000066
N60	N	1.391136	-0.071799	0.500066
C61	C	0.822604	-0.535218	0.000055
C62	C	1.322604	-0.035218	0.500055
O63	O	0.763424	-0.560088	0.000047
O64	O	1.263424	-0.060088	0.500047
C65	C	0.823550	-0.475816	0.000056
C66	C	1.323550	0.024184	0.500056
C67	C	0.893028	-0.452994	0.000073
C68	C	1.393028	0.047006	0.500073
C69	C	1.031026	-0.466747	0.000096
C70	C	1.531026	0.033253	0.500096
C71	C	1.031972	-0.407348	0.000104
C72	C	1.531972	0.092652	0.500104
C73	C	0.963445	-0.370772	0.000096
C74	C	1.463445	0.129228	0.500096
C75	C	0.893973	-0.393595	0.000080
C76	C	1.393973	0.106405	0.500080
C77	C	0.755019	-0.439237	0.000040
C78	C	1.255019	0.060763	0.500040
C79	C	0.755971	-0.379832	0.000039
C80	C	1.255971	0.120168	0.500039
C81	C	0.825448	-0.357009	0.000056
C82	C	1.325448	0.142991	0.500056
C83	C	0.826391	-0.297620	0.000081
C84	C	1.326391	0.202380	0.500081
N85	N	0.895864	-0.274795	0.000089
N86	N	1.395864	0.225205	0.500089
C87	C	0.964391	-0.311371	0.000097
C88	C	1.464391	0.188629	0.500097
C89	C	0.820622	-0.659966	0.000053
C90	C	1.320622	-0.159966	0.500053
C91	C	0.819674	-0.719367	0.000058
C92	C	1.319674	-0.219367	0.500058
C93	C	0.957680	-0.733118	0.000075
C94	C	1.457680	-0.233118	0.500075
C95	C	0.958626	-0.673716	0.000076
C96	C	1.458626	-0.173716	0.500076
C97	C	0.890095	-0.637141	0.000061
C98	C	1.390095	-0.137141	0.500061
C99	C	0.966371	-0.186628	0.000114
C100	C	1.466371	0.313372	0.500114
C101	C	0.967310	-0.127223	0.000125
C102	C	1.467310	0.372777	0.500125
C103	C	0.829305	-0.113478	0.000104
C104	C	1.329305	0.386522	0.500104
C105	C	0.828365	-0.172877	0.000097
C106	C	1.328365	0.327123	0.500097
C107	C	0.896904	-0.209452	0.000099
C108	C	1.396904	0.290548	0.500099
O109	O	0.768232	-0.261008	0.000100
O110	O	1.268232	0.238992	0.500100
O111	O	1.023560	-0.286493	0.000094
O112	O	1.523560	0.213507	0.500094
C113	C	1.031901	0.072353	0.000109
C114	C	1.531901	0.572353	0.500109
C115	C	1.115914	0.073360	0.000114
C116	C	1.615914	0.573360	0.500114
C117	C	0.887184	0.180832	0.000073
C118	C	1.387184	0.680832	0.500073
C119	C	0.888202	0.244052	0.000062
C120	C	1.388202	0.744052	0.500062
N121	N	0.893475	0.076694	0.195759
N122	N	1.393475	0.576694	0.695759
N123	N	0.893516	0.076706	-0.195573
N124	N	1.393516	0.576706	0.304427
C125	C	0.945236	0.037921	0.239037
C126	C	1.445236	0.537921	0.739037
C127	C	0.945240	0.037921	0.325584
C128	C	1.445240	0.537921	0.825584
C129	C	0.893486	0.076696	0.368852
C130	C	1.393486	0.576696	0.868852
C131	C	0.841719	0.115470	0.325568
C132	C	1.341719	0.615470	0.825568
C133	C	0.841713	0.115467	0.239023
C134	C	1.341713	0.615467	0.739023
C135	C	0.841745	0.115481	0.674597
C136	C	1.341745	0.615481	1.174597
C137	C	0.841758	0.115481	0.761148
C138	C	1.341758	0.615481	1.261148
C139	C	0.945273	0.037934	0.761158
C140	C	1.445273	0.537934	1.261158
C141	C	0.945266	0.037932	0.674612
C142	C	1.445266	0.537932	1.174612
C143	C	0.893497	0.076704	0.631336
C144	C	1.393497	0.576704	1.131336
C145	C	0.893493	0.076703	0.537492
C146	C	1.393493	0.576703	1.037492
C147	C	0.893493	0.076700	0.462695
C148	C	1.393493	0.576700	0.962695
H149	H	0.537607	-0.015917	0.000117
H150	H	1.037607	0.484083	0.500117
H151	H	0.646653	0.174106	0.000044
H152	H	1.146653	0.674106	0.500044
C153	C	1.042825	-0.102557	0.000097
C154	C	1.542825	0.397443	0.500097
C155	C	1.102633	-0.147307	0.000077
C156	C	1.602633	0.352693	0.500077
C157	C	1.172204	-0.124608	0.000038
C158	C	1.672204	0.375392	0.500038
H159	H	1.046169	-0.079687	0.048034
H160	H	1.546169	0.420313	0.548034
H161	H	1.046109	-0.079678	-0.047866
H162	H	1.546109	0.420322	0.452134
H163	H	1.099349	-0.170176	0.048036
H164	H	1.599349	0.329824	0.548036
H165	H	1.099314	-0.170180	-0.047856
H166	H	1.599314	0.329820	0.452144
H167	H	1.175489	-0.101730	-0.047925
H168	H	1.675489	0.398270	0.452075
H169	H	1.175540	-0.101739	0.047976
H170	H	1.675540	0.398261	0.547976
H171	H	1.212792	-0.154968	0.000017
H172	H	1.712792	0.345032	0.500017
H173	H	0.799610	0.147058	0.796376
H174	H	1.299610	0.647058	1.296376
H175	H	0.698442	-0.457808	0.000021
H176	H	1.198442	0.042192	0.500021
H177	H	0.987424	0.006362	0.796402
H178	H	1.487424	0.506362	1.296402
C179	C	0.490304	0.186400	0.000013
C180	C	0.990304	0.686400	0.500013
C181	C	0.533520	0.232465	-0.000027
C182	C	1.033520	0.732465	0.499973
C183	C	0.484773	0.283959	-0.000086
C184	C	0.984773	0.783959	0.499914
H185	H	0.459106	0.188268	0.047950
H186	H	0.959106	0.688268	0.547950
H187	H	0.459126	0.188218	-0.047950
H188	H	0.959126	0.688218	0.452050
H189	H	0.564685	0.230647	0.047931
H190	H	1.064685	0.730647	0.547931
H191	H	0.564717	0.230615	-0.047961
H192	H	1.064717	0.730615	0.452039
H193	H	0.453595	0.285778	-0.048049
H194	H	0.953595	0.785778	0.451951
H195	H	0.453576	0.285821	0.047852
H196	H	0.953576	0.785821	0.547852
H197	H	0.514087	0.315220	-0.000121
H198	H	1.014087	0.815220	0.499879
H199	H	0.249373	0.169322	0.000072
H200	H	0.749373	0.669322	0.500072
H201	H	1.086833	-0.496522	0.000099
H202	H	1.586833	0.003478	0.500099
C203	C	1.032106	-0.772810	0.000245
C204	C	1.532106	-0.272810	0.500245
C205	C	1.073957	-0.762539	0.070997
C206	C	1.573957	-0.262539	0.570997
C207	C	1.142512	-0.799099	0.071187
C208	C	1.642512	-0.299099	0.571187
H209	H	1.060708	-0.765929	-0.047643
H210	H	1.560708	-0.265929	0.452357
H211	H	1.021617	-0.811463	0.000284
H212	H	1.521617	-0.311463	0.500284
H213	H	1.084449	-0.723895	0.070951
H214	H	1.584449	-0.223895	0.570951
H215	H	1.045379	-0.769424	0.118896
H216	H	1.545379	-0.269424	0.618896
H217	H	1.132023	-0.837752	0.071225
H218	H	1.632023	-0.337752	0.571225
H219	H	1.171107	-0.792215	0.023295
H220	H	1.671107	-0.292215	0.523295
H221	H	1.170914	-0.792139	0.119194
H222	H	1.670914	-0.292139	0.619194
H223	H	1.088547	-0.388773	0.000114
H224	H	1.588547	0.111227	0.500114
C225	C	1.001290	-0.004204	0.627487
C226	C	1.501290	0.495796	1.127487
C227	C	0.990158	0.004058	0.542431
C228	C	1.490158	0.504058	1.042431
C229	C	1.041699	-0.034788	0.498996
C230	C	1.541699	0.465212	0.998996
H231	H	0.993271	-0.042188	0.641667
H232	H	1.493271	0.457812	1.141667
H233	H	1.051829	0.001834	0.641531
H234	H	1.551829	0.501834	1.141531
H235	H	0.939631	-0.001984	0.528394
H236	H	1.439631	0.498016	1.028394
H237	H	0.998183	0.042034	0.528226
H238	H	1.498183	0.542034	1.028226
H239	H	1.092238	-0.028751	0.513039
H240	H	1.592238	0.471249	1.013039
H241	H	1.033676	-0.072770	0.513183
H242	H	1.533676	0.427230	1.013183
H243	H	1.034158	-0.029185	0.441281
H244	H	1.534158	0.470815	0.941281
C245	C	0.681643	-0.340027	-0.000015
C246	C	1.181643	0.159973	0.499985
C247	C	0.697333	-0.283119	-0.000027
C248	C	1.197333	0.216881	0.499973
C249	C	0.628882	-0.246437	-0.000086
C250	C	1.128882	0.253563	0.499914
H251	H	0.653074	-0.346872	0.047912
H252	H	1.153074	0.153128	0.547912
H253	H	0.653139	-0.346896	-0.047988
H254	H	1.153139	0.153104	0.452012
H255	H	0.725824	-0.276252	0.047941
H256	H	1.225824	0.223748	0.547941
H257	H	0.725891	-0.276255	-0.047951
H258	H	1.225891	0.223745	0.452049
H259	H	0.600379	-0.253306	-0.048059
H260	H	1.100379	0.246694	0.451941
H261	H	0.600318	-0.253287	0.047842
H262	H	1.100318	0.246713	0.547842
H263	H	0.639518	-0.207820	-0.000102
H264	H	1.139518	0.292180	0.499898
C265	C	0.754850	-0.073826	-0.000039
C266	C	1.254850	0.426174	0.499961
C267	C	0.712998	-0.084123	-0.070779
C268	C	1.212998	0.415877	0.429221
C269	C	0.644402	-0.047610	-0.070941
C270	C	1.144402	0.452390	0.429059
H271	H	0.765264	-0.035162	-0.000080
H272	H	1.265264	0.464838	0.499920
H273	H	0.726288	-0.080745	0.047874
H274	H	1.226288	0.419255	0.547874
H275	H	0.741554	-0.077199	-0.118680
H276	H	1.241554	0.422801	0.381320
H277	H	0.702564	-0.122780	-0.070753
H278	H	1.202564	0.377220	0.429247
H279	H	0.615840	-0.054529	-0.023028
H280	H	1.115840	0.445471	0.476972
H281	H	0.654823	-0.008948	-0.070979
H282	H	1.154823	0.491052	0.429021
H283	H	0.615994	-0.054595	-0.118933
H284	H	1.115994	0.445405	0.381067
C285	C	0.744218	-0.744109	-0.000121
C286	C	1.244218	-0.244109	0.499879
C287	C	0.702838	-0.725505	-0.070873
C288	C	1.202838	-0.225505	0.429127
C289	C	0.633326	-0.748289	-0.071078
C290	C	1.133326	-0.248289	0.428922
H291	H	0.715925	-0.731570	0.047766
H292	H	1.215925	-0.231570	0.547766
H293	H	0.753429	-0.784727	-0.000169
H294	H	1.253429	-0.284727	0.499831
H295	H	0.693625	-0.684895	-0.070818
H296	H	1.193625	-0.184895	0.429182
H297	H	0.731108	-0.738043	-0.118773
H298	H	1.231108	-0.238043	0.381227
H299	H	0.642537	-0.788908	-0.071126
H300	H	1.142537	-0.288908	0.428874
H301	H	0.605041	-0.735748	-0.023187
H302	H	1.105041	-0.235748	0.476813
H303	H	0.605245	-0.735674	-0.119086
H304	H	1.105245	-0.235674	0.380914
C305	C	1.001462	-0.004242	0.192214
C306	C	1.501462	0.495758	0.692214
C307	C	1.046778	-0.038208	0.248643
C308	C	1.546778	0.461792	0.748643
C309	C	1.098575	-0.077063	0.205543
C310	C	1.598575	0.422937	0.705543
H311	H	1.032883	0.016146	0.158437
H312	H	1.532883	0.516146	0.658437
H313	H	0.974434	-0.027957	0.158482
H314	H	1.474434	0.472043	0.658482
H315	H	1.073805	-0.014496	0.282360
H316	H	1.573805	0.485504	0.782360
H317	H	1.015379	-0.058609	0.282421
H318	H	1.515379	0.441391	0.782421
H319	H	1.071546	-0.100777	0.171811
H320	H	1.571546	0.399223	0.671811
H321	H	1.129990	-0.056669	0.171768
H322	H	1.629990	0.443331	0.671768
H323	H	1.129323	-0.100116	0.243823
H324	H	1.629323	0.399884	0.743823
C325	C	1.040761	-0.226359	-0.000049
C326	C	1.540761	0.273641	0.499951
C327	C	1.044280	-0.260843	-0.070798
C328	C	1.544280	0.239157	0.429202
C329	C	1.112799	-0.297444	-0.070976
C330	C	1.612799	0.202556	0.429024
H331	H	1.043330	-0.249880	0.047841
H332	H	1.543330	0.250120	0.547841
H333	H	1.082288	-0.204272	-0.000081
H334	H	1.582288	0.295728	0.499919
H335	H	1.002764	-0.282928	-0.070758
H336	H	1.502764	0.217072	0.429242
H337	H	1.041723	-0.237338	-0.118699
H338	H	1.541723	0.262662	0.381301
H339	H	1.154327	-0.275357	-0.071009
H340	H	1.654327	0.224643	0.428991
H341	H	1.115363	-0.320960	-0.023083
H342	H	1.615363	0.179040	0.476917
H343	H	1.115199	-0.320841	-0.118982
H344	H	1.615199	0.179159	0.381018
H345	H	0.764811	-0.630189	0.000048
H346	H	1.264811	-0.130189	0.500048
H347	H	0.987387	0.006349	0.360820
H348	H	1.487387	0.506349	0.860820
C349	C	0.785511	0.157642	0.627768
C350	C	1.285511	0.657642	1.127768
C351	C	0.740207	0.191610	0.684187
C352	C	1.240207	0.691610	1.184187
C353	C	0.688400	0.230462	0.641075
C354	C	1.188400	0.730462	1.141075
H355	H	0.754084	0.137252	0.594017
H356	H	1.254084	0.637252	1.094017
H357	H	0.812532	0.181355	0.594011
H358	H	1.312532	0.681355	1.094011
H359	H	0.713187	0.167900	0.717930
H360	H	1.213187	0.667900	1.217930
H361	H	0.771613	0.212013	0.717940
H362	H	1.271613	0.712013	1.217940
H363	H	0.715422	0.254176	0.607319
H364	H	1.215422	0.754176	1.107319
H365	H	0.656978	0.210067	0.607326
H366	H	1.156978	0.710067	1.107326
H367	H	0.657660	0.253518	0.679349
H368	H	1.157660	0.753518	1.179349
H369	H	1.015201	-0.655139	0.000089
H370	H	1.515201	-0.155139	0.500089
H371	H	0.771791	-0.191460	0.000106
H372	H	1.271791	0.308540	0.500106
H373	H	0.799576	0.147040	0.360802
H374	H	1.299576	0.647040	0.860802
H375	H	0.799563	0.147039	0.203787
H376	H	1.299563	0.647039	0.703787
H377	H	0.106161	0.167598	0.000084
H378	H	0.606161	0.667598	0.500084
H379	H	0.140330	-0.020705	0.000130
H380	H	0.640330	0.479295	0.500130
H381	H	0.283530	-0.018983	0.000129
H382	H	0.783530	0.481017	0.500129
H383	H	0.680820	-0.014197	0.000096
H384	H	1.180820	0.485803	0.500096
