data_functionalizedCrystal
_audit_creation_method	'MofGen! by Chris Wilmer'
_symmetry_space_group_name_H-M	'P1'
_symmetry_Int_Tables_number	1
_symmetry_cell_setting	triclinic
loop_
_symmetry_equiv_pos_as_xyz
  x,y,z
_cell_length_a	14.519709
_cell_length_b	14.519709
_cell_length_c	17.766277
_cell_angle_alpha	90.000159
_cell_angle_beta	89.996257
_cell_angle_gamma	96.319856
loop_
_atom_site_label
_atom_site_type_symbol
_atom_site_fract_x
_atom_site_fract_y
_atom_site_fract_z
O1	O	1.223874	-0.120893	-0.062486
O2	O	1.473874	0.129107	0.187514
O3	O	1.723874	0.379107	0.437514
O4	O	1.973874	0.629107	0.687514
O5	O	0.955397	-0.135129	-0.062507
O6	O	1.205397	0.114871	0.187493
O7	O	1.455397	0.364871	0.437493
O8	O	1.705397	0.614871	0.687493
O9	O	1.096754	0.006228	-0.062503
O10	O	1.346754	0.256228	0.187497
O11	O	1.596754	0.506228	0.437497
O12	O	1.846754	0.756228	0.687497
O13	O	1.082517	-0.262249	-0.062490
O14	O	1.332517	-0.012249	0.187510
O15	O	1.582517	0.237751	0.437510
O16	O	1.832517	0.487751	0.687510
O17	O	1.096729	0.006235	0.062686
O18	O	1.346729	0.256235	0.312686
O19	O	1.596729	0.506235	0.562686
O20	O	1.846729	0.756235	0.812686
O21	O	0.955372	-0.135122	0.062681
O22	O	1.205372	0.114878	0.312681
O23	O	1.455372	0.364878	0.562681
O24	O	1.705372	0.614878	0.812681
O25	O	1.223849	-0.120885	0.062703
O26	O	1.473849	0.129115	0.312703
O27	O	1.723849	0.379115	0.562703
O28	O	1.973849	0.629115	0.812703
Cu29	Cu	1.089608	-0.128003	0.074123
Cu30	Cu	1.339608	0.121997	0.324123
Cu31	Cu	1.589608	0.371997	0.574123
Cu32	Cu	1.839608	0.621997	0.824123
Cu33	Cu	1.089638	-0.128012	-0.073927
Cu34	Cu	1.339638	0.121988	0.176073
Cu35	Cu	1.589638	0.371988	0.426073
Cu36	Cu	1.839638	0.621988	0.676073
O37	O	1.082492	-0.262242	0.062698
O38	O	1.332492	-0.012242	0.312698
O39	O	1.582492	0.237758	0.562698
O40	O	1.832492	0.487758	0.812698
C41	C	0.921025	-0.134462	0.000084
C42	C	1.171025	0.115538	0.250084
C43	C	1.421025	0.365538	0.500084
C44	C	1.671025	0.615538	0.750084
C45	C	0.818643	-0.132474	0.000075
C46	C	1.068643	0.117526	0.250075
C47	C	1.318643	0.367526	0.500075
C48	C	1.568643	0.617526	0.750075
C49	C	0.443748	-0.125154	0.000109
C50	C	0.693748	0.124846	0.250109
C51	C	0.943748	0.374846	0.500109
C52	C	1.193748	0.624846	0.750109
C53	C	0.548056	-0.127187	0.000099
C54	C	0.798056	0.122813	0.250099
C55	C	1.048056	0.372813	0.500099
C56	C	1.298056	0.622813	0.750099
C57	C	0.631192	-0.128814	0.000091
C58	C	0.881192	0.121186	0.250091
C59	C	1.131192	0.371186	0.500091
C60	C	1.381192	0.621186	0.750091
C61	C	0.735507	-0.130847	0.000083
C62	C	0.985507	0.119153	0.250083
C63	C	1.235507	0.369153	0.500083
C64	C	1.485507	0.619153	0.750083
C65	C	1.083168	-0.296605	0.000106
C66	C	1.333168	-0.046605	0.250106
C67	C	1.583168	0.203395	0.500106
C68	C	1.833168	0.453395	0.750106
C69	C	1.085156	-0.398987	0.000111
C70	C	1.335156	-0.148987	0.250111
C71	C	1.585156	0.101013	0.500111
C72	C	1.835156	0.351013	0.750111
C73	C	1.092476	-0.773883	0.000082
C74	C	1.342476	-0.523883	0.250082
C75	C	1.592476	-0.273883	0.500082
C76	C	1.842476	-0.023883	0.750082
C77	C	1.090443	-0.669575	0.000090
C78	C	1.340443	-0.419575	0.250090
C79	C	1.590443	-0.169575	0.500090
C80	C	1.840443	0.080425	0.750090
C81	C	1.088816	-0.586438	0.000097
C82	C	1.338816	-0.336438	0.250097
C83	C	1.588816	-0.086438	0.500097
C84	C	1.838816	0.163562	0.750097
C85	C	1.086783	-0.482123	0.000104
C86	C	1.336783	-0.232123	0.250104
C87	C	1.586783	0.017877	0.500104
C88	C	1.836783	0.267877	0.750104
C89	C	1.258221	-0.121553	0.000110
C90	C	1.508221	0.128447	0.250110
C91	C	1.758221	0.378447	0.500110
C92	C	2.008221	0.628447	0.750110
C93	C	1.360602	-0.123541	0.000114
C94	C	1.610602	0.126459	0.250114
C95	C	1.860602	0.376459	0.500114
C96	C	2.110602	0.626459	0.750114
C97	C	1.096078	0.040591	0.000088
C98	C	1.346078	0.290591	0.250088
C99	C	1.596078	0.540591	0.500088
C100	C	1.846078	0.790591	0.750088
C101	C	1.094090	0.142972	0.000078
C102	C	1.344090	0.392972	0.250078
C103	C	1.594090	0.642972	0.500078
C104	C	1.844090	0.892972	0.750078
N105	N	1.089594	-0.127996	0.178253
N106	N	1.339594	0.122004	0.428253
N107	N	1.589594	0.372004	0.678253
N108	N	1.839594	0.622004	0.928253
N109	N	1.089659	-0.128011	-0.178057
N110	N	1.339659	0.121989	0.071943
N111	N	1.589659	0.371989	0.321943
N112	N	1.839659	0.621989	0.571943
C113	C	1.152207	-0.065434	0.217642
C114	C	1.402207	0.184566	0.467642
C115	C	1.652207	0.434566	0.717642
C116	C	1.902207	0.684566	0.967642
C117	C	1.152213	-0.065430	0.296444
C118	C	1.402213	0.184570	0.546444
C119	C	1.652213	0.434570	0.796444
C120	C	1.902213	0.684570	1.046444
C121	C	1.089614	-0.128004	0.335854
C122	C	1.339614	0.121996	0.585854
C123	C	1.589614	0.371996	0.835854
C124	C	1.839614	0.621996	1.085854
C125	C	1.026989	-0.190570	0.296455
C126	C	1.276989	0.059430	0.546455
C127	C	1.526989	0.309430	0.796455
C128	C	1.776989	0.559430	1.046455
C129	C	1.026979	-0.190567	0.217655
C130	C	1.276979	0.059433	0.467655
C131	C	1.526979	0.309433	0.717655
C132	C	1.776979	0.559433	0.967655
C133	C	1.077669	-0.211975	0.460695
C134	C	1.327669	0.038025	0.710695
C135	C	1.577669	0.288025	0.960695
C136	C	1.827669	0.538025	1.210695
C137	C	1.077685	-0.211980	0.539494
C138	C	1.327685	0.038020	0.789494
C139	C	1.577685	0.288020	1.039494
C140	C	1.827685	0.538020	1.289494
C141	C	1.089638	-0.128015	0.578900
C142	C	1.339638	0.121985	0.828900
C143	C	1.589638	0.371985	1.078900
C144	C	1.839638	0.621985	1.328900
C145	C	1.101595	-0.044042	0.539498
C146	C	1.351595	0.205958	0.789498
C147	C	1.601595	0.455958	1.039498
C148	C	1.851595	0.705958	1.289498
C149	C	1.101586	-0.044038	0.460697
C150	C	1.351586	0.205962	0.710697
C151	C	1.601586	0.455962	0.960697
C152	C	1.851586	0.705962	1.210697
C153	C	1.089617	-0.128014	0.421299
C154	C	1.339617	0.121986	0.671299
C155	C	1.589617	0.371986	0.921299
C156	C	1.839617	0.621986	1.171299
C157	C	1.152261	-0.065443	0.703735
C158	C	1.402261	0.184557	0.953735
C159	C	1.652261	0.434557	1.203735
C160	C	1.902261	0.684557	1.453735
C161	C	1.152260	-0.065438	0.782538
C162	C	1.402260	0.184562	1.032538
C163	C	1.652260	0.434562	1.282538
C164	C	1.902260	0.684562	1.532538
C165	C	1.027040	-0.190586	0.782548
C166	C	1.277040	0.059414	1.032548
C167	C	1.527040	0.309414	1.282548
C168	C	1.777040	0.559414	1.532548
C169	C	1.027037	-0.190584	0.703746
C170	C	1.277037	0.059416	0.953746
C171	C	1.527037	0.309416	1.203746
C172	C	1.777037	0.559416	1.453746
C173	C	1.089652	-0.128013	0.664344
C174	C	1.339652	0.121987	0.914344
C175	C	1.589652	0.371987	1.164344
C176	C	1.839652	0.621987	1.414344
H177	H	1.203190	-0.014484	0.185563
H178	H	1.453190	0.235516	0.435563
H179	H	1.703190	0.485516	0.685563
H180	H	1.953190	0.735516	0.935563
H181	H	1.203243	-0.014492	0.671653
H182	H	1.453243	0.235508	0.921653
H183	H	1.703243	0.485508	1.171653
H184	H	1.953243	0.735508	1.421653
Br185	Br	1.237233	0.019482	0.835999
Br186	Br	1.487233	0.269482	1.085999
Br187	Br	1.737233	0.519482	1.335999
Br188	Br	1.987233	0.769482	1.585999
Br189	Br	0.942061	-0.275496	0.650284
Br190	Br	1.192061	-0.025496	0.900284
Br191	Br	1.442061	0.224504	1.150284
Br192	Br	1.692061	0.474504	1.400284
Br193	Br	1.117830	0.069919	0.592967
Br194	Br	1.367830	0.319919	0.842967
Br195	Br	1.617830	0.569919	1.092967
Br196	Br	1.867830	0.819919	1.342967
H197	H	1.067919	-0.280353	0.428617
H198	H	1.317919	-0.030353	0.678617
H199	H	1.567919	0.219647	0.928617
H200	H	1.817919	0.469647	1.178617
Br201	Br	1.237194	0.019484	0.349910
Br202	Br	1.487194	0.269484	0.599910
Br203	Br	1.737194	0.519484	0.849910
Br204	Br	1.987194	0.769484	1.099910
Br205	Br	1.117803	0.069919	0.407225
Br206	Br	1.367803	0.319919	0.657225
Br207	Br	1.617803	0.569919	0.907225
Br208	Br	1.867803	0.819919	1.157225
Br209	Br	0.942074	-0.275498	0.836026
Br210	Br	1.192074	-0.025498	1.086026
Br211	Br	1.442074	0.224502	1.336026
Br212	Br	1.692074	0.474502	1.586026
Br213	Br	1.061468	-0.325941	0.592960
Br214	Br	1.311468	-0.075941	0.842960
Br215	Br	1.561468	0.174059	1.092960
Br216	Br	1.811468	0.424059	1.342960
H217	H	0.976018	-0.241517	0.328547
H218	H	1.226018	0.008483	0.578547
H219	H	1.476018	0.258483	0.828547
H220	H	1.726018	0.508483	1.078547
H221	H	0.975991	-0.241513	0.185584
H222	H	1.225991	0.008487	0.435584
H223	H	1.475991	0.258487	0.685584
H224	H	1.725991	0.508487	0.935584
