data_functionalizedCrystal
_audit_creation_method	'MofGen! by Chris Wilmer'
_symmetry_space_group_name_H-M	'P1'
_symmetry_Int_Tables_number	1
_symmetry_cell_setting	triclinic
loop_
_symmetry_equiv_pos_as_xyz
  x,y,z
_cell_length_a	7.088929
_cell_length_b	9.065218
_cell_length_c	9.065218
_cell_angle_alpha	85.015885
_cell_angle_beta	83.685725
_cell_angle_gamma	96.296166
loop_
_atom_site_label
_atom_site_type_symbol
_atom_site_fract_x
_atom_site_fract_y
_atom_site_fract_z
O1	O	0.158984	-1.945457	-0.231322
O2	O	0.492318	-1.612124	0.102011
O3	O	0.825651	-1.278791	0.435344
O4	O	0.158986	-1.516172	-0.249069
O5	O	0.492320	-1.182839	0.084264
O6	O	0.825653	-0.849505	0.417598
O7	O	0.158981	-1.739688	-0.025553
O8	O	0.492315	-1.406355	0.307780
O9	O	0.825648	-1.073022	0.641114
O10	O	0.158989	-1.721941	-0.454839
O11	O	0.492322	-1.388608	-0.121505
O12	O	0.825656	-1.055274	0.211828
O13	O	-0.158995	-1.769558	0.004386
O14	O	0.174339	-1.436225	0.337720
O15	O	0.507672	-1.102891	0.671053
O16	O	-0.158990	-1.546042	-0.219130
O17	O	0.174344	-1.212709	0.114203
O18	O	0.507677	-0.879375	0.447537
O19	O	-0.158992	-1.975327	-0.201383
O20	O	0.174342	-1.641994	0.131950
O21	O	0.507675	-1.308660	0.465283
Cu22	Cu	-0.188024	-1.763412	-0.207523
Cu23	Cu	0.145309	-1.430078	0.125810
Cu24	Cu	0.478642	-1.096745	0.459144
Cu25	Cu	0.188019	-1.728087	-0.242929
Cu26	Cu	0.521352	-1.394754	0.090404
Cu27	Cu	0.854686	-1.061421	0.423737
O28	O	-0.158987	-1.751811	-0.424899
O29	O	0.174347	-1.418477	-0.091566
O30	O	0.507680	-1.085144	0.241767
C31	C	-0.000001	-1.476120	-0.232394
C32	C	0.333332	-1.142787	0.100939
C33	C	0.666665	-0.809454	0.434273
C34	C	-0.000000	-1.312277	-0.227294
C35	C	0.333333	-0.978944	0.106039
C36	C	0.666666	-0.645611	0.439372
N37	N	-0.452513	-1.788268	-0.182619
N38	N	-0.119180	-1.454935	0.150714
N39	N	0.214154	-1.121601	0.484048
C40	C	-0.000004	-1.752917	0.044403
C41	C	0.333330	-1.419584	0.377736
C42	C	0.666663	-1.086251	0.711070
C43	C	0.000006	-1.747817	0.208245
C44	C	0.333339	-1.414483	0.541578
C45	C	0.666672	-1.081150	0.874912
N46	N	0.452507	-1.703243	-0.267822
N47	N	0.785841	-1.369909	0.065512
N48	N	1.119174	-1.036576	0.398845
C49	C	0.000000	-2.015378	-0.218059
C50	C	0.333333	-1.682045	0.115275
C51	C	0.666667	-1.348712	0.448608
C52	C	0.000012	-2.179220	-0.223160
C53	C	0.333345	-1.845887	0.110174
C54	C	0.666678	-1.512553	0.443507
C55	C	0.000002	-1.738581	-0.494856
C56	C	0.333336	-1.405248	-0.161522
C57	C	0.666669	-1.071915	0.171811
C58	C	0.000006	-1.743681	-0.658699
C59	C	0.333339	-1.410347	-0.325366
C60	C	0.666672	-1.077014	0.007968
H61	H	-0.465844	-1.615124	-0.356116
H62	H	-0.132511	-1.281791	-0.022783
H63	H	0.200822	-0.948457	0.310551
H64	H	-0.534171	-1.876403	-0.094330
H65	H	-0.200837	-1.543070	0.239004
H66	H	0.132496	-1.209737	0.572337
