data_functionalizedCrystal
_audit_creation_method	'MofGen! by Chris Wilmer'
_symmetry_space_group_name_H-M	'P1'
_symmetry_Int_Tables_number	1
_symmetry_cell_setting	triclinic
loop_
_symmetry_equiv_pos_as_xyz
  x,y,z
_cell_length_a	29.839134
_cell_length_b	21.295417
_cell_length_c	21.295412
_cell_angle_alpha	90.030668
_cell_angle_beta	89.966777
_cell_angle_gamma	89.974633
loop_
_atom_site_label
_atom_site_type_symbol
_atom_site_fract_x
_atom_site_fract_y
_atom_site_fract_z
Zn1	Zn	0.686804	0.250711	-0.356074
Zn2	Zn	0.686735	0.355980	-0.250800
Zn3	Zn	0.611672	0.250719	-0.250802
Zn4	Zn	0.611648	0.355937	-0.356014
O5	O	0.649215	0.303337	-0.303422
O6	O	0.749662	0.264690	-0.342134
O7	O	0.676759	0.342037	-0.162711
O8	O	0.621676	0.162628	-0.264792
O9	O	0.749611	0.342030	-0.264789
O10	O	0.676875	0.162623	-0.342136
O11	O	0.621610	0.264703	-0.162712
O12	O	0.548801	0.264662	-0.264734
O13	O	0.621637	0.341958	-0.444111
O14	O	0.548784	0.341965	-0.342032
O15	O	0.676853	0.264649	-0.444156
O16	O	0.676737	0.444063	-0.264730
O17	O	0.621571	0.444032	-0.342031
C18	C	0.532492	0.303310	-0.303377
C19	C	0.482558	0.303314	-0.303372
C20	C	0.649156	0.466888	-0.303388
C21	C	0.649172	0.536856	-0.303394
C22	C	0.649250	0.303297	-0.467613
C23	C	0.649265	0.303281	-0.537581
C24	C	0.172915	0.343648	-0.343623
C25	C	-0.014758	0.343666	-0.343651
O26	O	-0.039022	0.377930	-0.377846
N27	N	-0.038227	0.303360	-0.303470
C28	C	-0.014775	0.263043	-0.263282
O29	O	-0.039044	0.228756	-0.229111
C30	C	0.172897	0.263023	-0.263258
C31	C	0.196364	0.303336	-0.303437
C32	C	0.196382	0.383957	-0.383799
C33	C	0.243297	0.383955	-0.383789
C34	C	0.266746	0.343643	-0.343603
C35	C	0.243279	0.303334	-0.303427
C36	C	0.196348	0.222704	-0.223074
C37	C	0.243269	0.222701	-0.223072
C38	C	0.266736	0.263015	-0.263251
C39	C	0.313643	0.263019	-0.263231
N40	N	0.337112	0.303326	-0.303412
C41	C	0.313664	0.343637	-0.343598
C42	C	-0.113306	0.263058	-0.263297
C43	C	-0.160224	0.263064	-0.263302
C44	C	-0.160203	0.343685	-0.343671
C45	C	-0.113285	0.343682	-0.343663
C46	C	-0.089837	0.303364	-0.303478
C47	C	0.412190	0.343630	-0.343574
C48	C	0.459109	0.343625	-0.343558
C49	C	0.459084	0.263002	-0.263192
C50	C	0.412169	0.263008	-0.263204
C51	C	0.388723	0.303324	-0.303400
O52	O	0.337936	0.228768	-0.229059
O53	O	0.337940	0.377909	-0.377773
C54	C	0.125999	0.343650	-0.343632
C55	C	0.102533	0.303341	-0.303456
C56	C	0.125981	0.263029	-0.263270
C57	C	0.055615	0.303347	-0.303461
C58	C	0.032166	0.343659	-0.343647
C59	C	0.055635	0.383965	-0.383828
C60	C	0.102551	0.383962	-0.383818
C61	C	0.102512	0.222723	-0.223090
C62	C	0.055597	0.222729	-0.223102
C63	C	0.032148	0.263041	-0.263288
C64	C	0.766393	0.303364	-0.303468
C65	C	0.816327	0.303375	-0.303488
C66	C	0.649286	0.139146	-0.303471
C67	C	0.649316	0.069178	-0.303492
C68	C	0.677922	0.569718	-0.263185
C69	C	0.677943	0.635461	-0.263199
C70	C	0.649206	0.668339	-0.303415
C71	C	0.620453	0.635469	-0.343632
C72	C	0.620436	0.569728	-0.343621
N73	N	0.609906	0.771600	-0.308199
N74	N	0.609923	0.834051	-0.308206
C75	C	0.649256	0.866413	-0.303451
N76	N	0.688572	0.833965	-0.298678
N77	N	0.688554	0.771508	-0.298668
C78	C	0.649221	0.739624	-0.303432
C79	C	0.678032	0.970561	-0.263256
C80	C	0.678054	1.036305	-0.263274
C81	C	0.620560	1.036311	-0.343704
C82	C	0.620542	0.970569	-0.343689
C83	C	0.649277	0.937698	-0.303461
C84	C	0.620556	0.263008	-0.570438
C85	C	0.620555	0.262996	-0.636181
C86	C	0.649270	0.303251	-0.669063
C87	C	0.677980	0.343531	-0.636198
C88	C	0.677978	0.343546	-0.570457
N89	N	0.688596	0.308063	-0.772311
N90	N	0.688597	0.308045	-0.834762
C91	C	0.649278	0.303209	-0.867138
N92	N	0.609957	0.298379	-0.834703
N93	N	0.609956	0.298393	-0.772246
C94	C	0.649275	0.303239	-0.740349
C95	C	0.620565	0.262921	-0.971281
C96	C	0.620563	0.262914	-1.037025
C97	C	0.677992	0.343446	-1.037041
C98	C	0.677991	0.343456	-0.971299
C99	C	0.649278	0.303191	-0.938423
C100	C	0.649206	0.303330	-0.139871
C101	C	0.649278	0.303170	-0.069903
H102	H	0.393105	0.376457	-0.376307
C103	C	0.598539	0.655666	-0.450192
C104	C	0.588865	0.671607	-0.387840
H105	H	0.579040	0.677979	-0.477486
H106	H	0.594412	0.611815	-0.455938
H107	H	0.628724	0.666403	-0.459442
H108	H	0.558680	0.660865	-0.378588
H109	H	0.592988	0.715468	-0.382091
H110	H	0.121653	0.416789	-0.416536
C111	C	0.614308	1.110185	-0.428381
C112	C	0.588972	1.072443	-0.387914
H113	H	0.594806	1.132495	-0.455673
H114	H	0.633862	1.084497	-0.452482
H115	H	0.631433	1.139166	-0.404430
H116	H	0.571849	1.043459	-0.411865
H117	H	0.569410	1.098133	-0.363811
H118	H	0.597024	0.542971	-0.376365
C119	C	0.734864	0.977155	-0.183757
C120	C	0.709620	0.934424	-0.219043
H121	H	0.754366	0.954845	-0.156465
H122	H	0.715307	1.002837	-0.159656
H123	H	0.752046	1.002756	-0.211222
H124	H	0.692435	0.908826	-0.191578
H125	H	0.729179	0.908731	-0.243146
C126	C	0.703475	0.736239	-0.227479
C127	C	0.709535	0.671594	-0.218980
H128	H	0.722977	0.758543	-0.200177
H129	H	0.673295	0.747038	-0.218241
H130	H	0.710052	0.746977	-0.269782
H131	H	0.702955	0.660855	-0.176679
H132	H	0.739722	0.660790	-0.228214
H133	H	-0.179327	0.230243	-0.230578
C134	C	0.614248	0.896589	-0.428342
C135	C	0.588934	0.934444	-0.387884
H136	H	0.594733	0.874291	-0.455630
H137	H	0.631355	0.867603	-0.404388
H138	H	0.633818	0.922203	-0.452453
H139	H	0.569366	0.908830	-0.363770
H140	H	0.571819	0.963434	-0.411841
C141	C	0.738429	0.352180	-1.111000
C142	C	0.709562	0.387692	-1.073172
H143	H	0.757921	0.379498	-1.133303
H144	H	0.721329	0.328205	-1.139981
H145	H	0.755618	0.324762	-1.085366
H146	H	0.692371	0.415107	-1.098807
H147	H	0.726664	0.411677	-1.044188
C148	C	-0.060543	0.428368	-0.352254
C149	C	-0.087493	0.387992	-0.387832
H150	H	-0.044624	0.455726	-0.379526
H151	H	-0.039861	0.404361	-0.328331
H152	H	-0.078868	0.452410	-0.324785
H153	H	-0.069167	0.363946	-0.415299
H154	H	-0.108177	0.412002	-0.411767
C155	C	0.563792	0.183404	-0.577031
C156	C	0.588992	0.218754	-0.534302
H157	H	0.544304	0.156087	-0.554720
H158	H	0.583378	0.159326	-0.602692
H159	H	0.546598	0.210827	-0.602654
H160	H	0.606189	0.191331	-0.508682
H161	H	0.569403	0.242834	-0.508631
C162	C	0.734760	0.423047	-0.977920
C163	C	0.709554	0.387718	-0.935177
H164	H	0.754249	0.450370	-0.955619
H165	H	0.715178	0.447117	-1.003536
H166	H	0.751955	0.395611	-1.003585
H167	H	0.692357	0.415153	-0.909515
H168	H	0.729139	0.363646	-0.909550
C169	C	0.560134	0.254206	-0.710078
C170	C	0.588999	0.218722	-0.672309
H171	H	0.540653	0.226871	-0.732377
H172	H	0.577235	0.278177	-0.739063
H173	H	0.542933	0.281628	-0.684406
H174	H	0.606203	0.191304	-0.697982
H175	H	0.571896	0.194740	-0.643320
C176	C	-0.118049	0.183371	-0.183853
C177	C	-0.087536	0.218740	-0.219117
H178	H	-0.102141	0.156016	-0.156574
H179	H	-0.136328	0.159333	-0.211328
H180	H	-0.136368	0.210780	-0.159732
H181	H	-0.069219	0.191331	-0.243241
H182	H	-0.069250	0.242780	-0.191638
C183	C	0.473499	0.232201	-0.156653
C184	C	0.484868	0.218696	-0.219019
H185	H	0.489420	0.204849	-0.129385
H186	H	0.442203	0.226424	-0.150906
H187	H	0.481170	0.274486	-0.147370
H188	H	0.477194	0.176412	-0.228304
H189	H	0.516171	0.224468	-0.224769
C190	C	0.738553	1.110091	-0.254708
C191	C	0.709704	1.072395	-0.219108
H192	H	0.758107	1.132359	-0.227450
H193	H	0.721444	1.139104	-0.278628
H194	H	0.755677	1.084374	-0.282182
H195	H	0.692578	1.098113	-0.191637
H196	H	0.726814	1.043379	-0.195178
H197	H	0.597185	0.230135	-0.944512
H198	H	0.597182	0.230121	-1.063776
C199	C	-0.232120	0.379477	-0.379367
C200	C	-0.185984	0.387992	-0.387850
H201	H	-0.248036	0.406824	-0.406645
H202	H	-0.239828	0.388643	-0.337061
H203	H	-0.239785	0.337189	-0.388651
H204	H	-0.178318	0.430279	-0.378561
H205	H	-0.178273	0.378831	-0.430165
C206	C	0.703489	0.379255	-0.736983
C207	C	0.709547	0.387776	-0.672340
H208	H	0.722980	0.406570	-0.759294
H209	H	0.673305	0.388461	-0.747730
H210	H	0.710083	0.336956	-0.747765
H211	H	0.702950	0.430074	-0.661557
H212	H	0.739738	0.378575	-0.661588
C213	C	0.359437	0.178312	-0.254641
C214	C	0.386375	0.218687	-0.219044
H215	H	0.343516	0.150946	-0.227382
H216	H	0.377768	0.154285	-0.282108
H217	H	0.338754	0.202325	-0.278568
H218	H	0.407061	0.194675	-0.195120
H219	H	0.368043	0.242717	-0.191566
C220	C	0.699815	0.450150	-0.550199
C221	C	0.709539	0.387815	-0.534337
H222	H	0.719303	0.477477	-0.527901
H223	H	0.669630	0.459352	-0.539394
H224	H	0.703926	0.455896	-0.594058
H225	H	0.705425	0.382067	-0.490478
H226	H	0.739731	0.378609	-0.545137
C227	C	0.454410	0.423316	-0.423006
C228	C	0.484903	0.387937	-0.387730
H229	H	0.470333	0.450667	-0.450277
H230	H	0.436090	0.447359	-0.395538
H231	H	0.436129	0.395913	-0.447135
H232	H	0.503182	0.415340	-0.363597
H233	H	0.503230	0.363893	-0.415201
H234	H	0.262400	0.416781	-0.416508
H235	H	0.177295	0.416784	-0.416526
H236	H	0.262358	0.189865	-0.190352
C237	C	0.201060	0.143000	-0.143650
C238	C	0.170561	0.178384	-0.178912
H239	H	0.185140	0.115634	-0.116390
H240	H	0.219337	0.170394	-0.119517
H241	H	0.219382	0.118967	-0.171132
H242	H	0.152241	0.202420	-0.151430
H243	H	0.152277	0.150987	-0.203048
H244	H	0.036535	0.416790	-0.416547
H245	H	0.036494	0.189902	-0.190378
H246	H	0.121599	0.189896	-0.190365
H247	H	0.701321	0.542956	-0.230431
