data_functionalizedCrystal
_audit_creation_method	'MofGen! by Chris Wilmer'
_symmetry_space_group_name_H-M	'P1'
_symmetry_Int_Tables_number	1
_symmetry_cell_setting	triclinic
loop_
_symmetry_equiv_pos_as_xyz
  x,y,z
_cell_length_a	19.188930
_cell_length_b	14.519709
_cell_length_c	13.596369
_cell_angle_alpha	90.006934
_cell_angle_beta	90.019208
_cell_angle_gamma	83.412462
loop_
_atom_site_label
_atom_site_type_symbol
_atom_site_fract_x
_atom_site_fract_y
_atom_site_fract_z
O1	O	-0.926555	-0.115137	-0.082110
O2	O	-0.593222	0.218196	0.251224
O3	O	-0.259889	0.551530	0.584557
O4	O	-0.723299	-0.130636	-0.082043
O5	O	-0.389966	0.202697	0.251291
O6	O	-0.056633	0.536031	0.584624
O7	O	-0.830316	0.011385	-0.082069
O8	O	-0.496983	0.344719	0.251264
O9	O	-0.163650	0.678052	0.584598
O10	O	-0.819538	-0.257158	-0.082083
O11	O	-0.486205	0.076175	0.251250
O12	O	-0.152872	0.409508	0.584583
O13	O	-0.830306	0.011393	0.081514
O14	O	-0.496972	0.344726	0.414847
O15	O	-0.163639	0.678059	0.748180
O16	O	-0.723289	-0.130629	0.081540
O17	O	-0.389955	0.202705	0.414874
O18	O	-0.056622	0.536038	0.748207
O19	O	-0.926545	-0.115130	0.081473
O20	O	-0.593211	0.218204	0.414806
O21	O	-0.259878	0.551537	0.748140
Zn22	Zn	-0.824915	-0.122878	0.107479
Zn23	Zn	-0.491582	0.210455	0.440812
Zn24	Zn	-0.158248	0.543789	0.774146
Zn25	Zn	-0.824929	-0.122888	-0.108049
Zn26	Zn	-0.491596	0.210446	0.225285
Zn27	Zn	-0.158262	0.543779	0.558618
O28	O	-0.819528	-0.257151	0.081500
O29	O	-0.486194	0.076182	0.414833
O30	O	-0.152861	0.409516	0.748166
C31	C	-0.697281	-0.130131	-0.000242
C32	C	-0.363948	0.203203	0.333091
C33	C	-0.030615	0.536536	0.666424
C34	C	-0.619771	-0.128624	-0.000217
C35	C	-0.286438	0.204710	0.333117
C36	C	0.046895	0.538043	0.666450
C37	C	-0.952563	-0.115635	-0.000329
C38	C	-0.619230	0.217698	0.333004
C39	C	-0.285896	0.551032	0.666338
C40	C	-1.030073	-0.117142	-0.000361
C41	C	-0.696739	0.216191	0.332972
C42	C	-0.363406	0.549525	0.666305
C43	C	-0.575144	-0.211957	-0.000236
C44	C	-0.241811	0.121376	0.333097
C45	C	0.091523	0.454709	0.666430
C46	C	-0.502315	-0.210542	-0.000247
C47	C	-0.168982	0.122791	0.333086
C48	C	0.164351	0.456125	0.666419
C49	C	-0.474117	-0.125788	-0.000258
C50	C	-0.140784	0.207545	0.333076
C51	C	0.192550	0.540879	0.666409
C52	C	-0.518754	-0.042444	-0.000232
C53	C	-0.185421	0.290890	0.333101
C54	C	0.147913	0.624223	0.666434
C55	C	-0.591581	-0.043861	-0.000212
C56	C	-0.258248	0.289472	0.333121
C57	C	0.075085	0.622805	0.666455
N58	N	-0.365910	-0.061007	-0.055968
N59	N	-0.032576	0.272326	0.277365
N60	N	0.300757	0.605660	0.610698
N61	N	-0.296726	-0.059666	-0.055990
N62	N	0.036607	0.273668	0.277343
N63	N	0.369940	0.607001	0.610677
C64	C	-0.254693	-0.121511	-0.000318
C65	C	0.078640	0.211822	0.333016
C66	C	0.411974	0.545156	0.666349
N67	N	-0.284455	-0.184762	0.055365
N68	N	0.048878	0.148571	0.388698
N69	N	0.382211	0.481904	0.722031
N70	N	-0.353645	-0.186106	0.055382
N71	N	-0.020312	0.147227	0.388715
N72	N	0.313022	0.480560	0.722049
C73	C	-0.395149	-0.124241	-0.000280
C74	C	-0.061816	0.209092	0.333054
C75	C	0.271518	0.542425	0.666387
C76	C	-0.131096	-0.203315	-0.000348
C77	C	0.202237	0.130018	0.332986
C78	C	0.535571	0.463351	0.666319
C79	C	-0.058266	-0.201896	-0.000352
C80	C	0.275067	0.131437	0.332981
C81	C	0.608401	0.464770	0.666314
C82	C	-0.074706	-0.033796	-0.000348
C83	C	0.258627	0.299538	0.332986
C84	C	0.591960	0.632871	0.666319
C85	C	-0.147535	-0.035217	-0.000333
C86	C	0.185799	0.298116	0.333000
C87	C	0.519132	0.631450	0.666334
C88	C	-0.175725	-0.119980	-0.000338
C89	C	0.157609	0.213354	0.332995
C90	C	0.490942	0.546687	0.666329
C91	C	-0.829809	0.045746	-0.000277
C92	C	-0.496475	0.379079	0.333056
C93	C	-0.163142	0.712412	0.666389
C94	C	-0.828304	0.148118	-0.000276
C95	C	-0.494970	0.481451	0.333057
C96	C	-0.161637	0.814784	0.666390
C97	C	-0.820035	-0.291511	-0.000294
C98	C	-0.486702	0.041822	0.333039
C99	C	-0.153369	0.375155	0.666372
C100	C	-0.821541	-0.393883	-0.000302
C101	C	-0.488207	-0.060550	0.333032
C102	C	-0.154874	0.272783	0.666365
N103	N	-0.824911	-0.122871	0.254571
N104	N	-0.491577	0.210463	0.587904
N105	N	-0.158244	0.543796	0.921238
C106	C	-0.822762	0.522979	-0.000300
C107	C	-0.489429	0.856312	0.333033
C108	C	-0.156096	1.189646	0.666367
C109	C	-0.824301	0.418681	-0.000293
C110	C	-0.490968	0.752014	0.333040
C111	C	-0.157634	1.085347	0.666374
C112	C	-0.825533	0.335552	-0.000287
C113	C	-0.492199	0.668885	0.333046
C114	C	-0.158866	1.002218	0.666379
C115	C	-0.827072	0.231247	-0.000282
C116	C	-0.493739	0.564580	0.333051
C117	C	-0.160405	0.897913	0.666384
N118	N	-0.824939	-0.122888	-0.255140
N119	N	-0.491606	0.210446	0.078193
N120	N	-0.158272	0.543779	0.411526
C121	C	-0.824928	-0.122889	0.655862
C122	C	-0.491595	0.210445	0.989195
C123	C	-0.158262	0.543778	1.322528
C124	C	-0.824921	-0.122887	0.544210
C125	C	-0.491588	0.210447	0.877544
C126	C	-0.158255	0.543780	1.210877
C127	C	-0.824920	-0.122880	0.455220
C128	C	-0.491586	0.210453	0.788553
C129	C	-0.158253	0.543786	1.121887
C130	C	-0.824912	-0.122877	0.343561
C131	C	-0.491579	0.210456	0.676895
C132	C	-0.158245	0.543790	1.010228
H133	H	-0.598091	-0.280978	-0.000242
H134	H	-0.264758	0.052356	0.333091
H135	H	0.068575	0.385689	0.666424
C136	C	-0.453967	-0.301122	-0.000329
C137	C	-0.120634	0.032211	0.333004
C138	C	0.212699	0.365544	0.666338
C139	C	-0.494243	-0.375655	-0.000353
C140	C	-0.160910	-0.042322	0.332980
C141	C	0.172424	0.291011	0.666313
C142	C	-0.449732	-0.459111	-0.000446
C143	C	-0.116399	-0.125777	0.332888
C144	C	0.216935	0.207556	0.666221
H145	H	-0.425175	-0.304200	0.056688
H146	H	-0.091841	0.029134	0.390022
H147	H	0.241492	0.362467	0.723355
H148	H	-0.425252	-0.304104	-0.057409
H149	H	-0.091918	0.029229	0.275924
H150	H	0.241415	0.362563	0.609258
H151	H	-0.522947	-0.372675	0.056721
H152	H	-0.189614	-0.039342	0.390054
H153	H	0.143720	0.293991	0.723387
H154	H	-0.523034	-0.372609	-0.057367
H155	H	-0.189701	-0.039275	0.275967
H156	H	0.143632	0.294058	0.609300
H157	H	-0.421016	-0.462092	-0.057526
H158	H	-0.087683	-0.128759	0.275808
H159	H	0.245650	0.204574	0.609141
H160	H	-0.420942	-0.462178	0.056573
H161	H	-0.087608	-0.128845	0.389906
H162	H	0.245725	0.204488	0.723239
H163	H	-0.477052	-0.509691	-0.000471
H164	H	-0.143719	-0.176358	0.332862
H165	H	0.189614	0.156976	0.666195
H166	H	-0.154049	-0.272334	-0.000337
H167	H	0.179284	0.060999	0.332996
H168	H	0.512617	0.394333	0.666329
C169	C	-0.196027	0.055232	-0.000125
C170	C	0.137306	0.388566	0.333208
C171	C	0.470640	0.721899	0.666542
C172	C	-0.238275	0.059346	0.084057
C173	C	0.095058	0.392680	0.417391
C174	C	0.428391	0.726013	0.750724
C175	C	-0.282949	0.142663	0.084291
C176	C	0.050385	0.475996	0.417625
C177	C	0.383718	0.809330	0.750958
H178	H	-0.224864	0.058256	-0.057096
H179	H	0.108469	0.391589	0.276237
H180	H	0.441802	0.724922	0.609571
H181	H	-0.168830	0.105941	-0.000081
H182	H	0.164503	0.439274	0.333252
H183	H	0.497836	0.772607	0.666586
H184	H	-0.265470	0.008652	0.084005
H185	H	0.067864	0.341985	0.417338
H186	H	0.401197	0.675318	0.750671
H187	H	-0.209457	0.056339	0.141042
H188	H	0.123876	0.389672	0.474376
H189	H	0.457210	0.723005	0.807709
H190	H	-0.255752	0.193371	0.084335
H191	H	0.077581	0.526705	0.417669
H192	H	0.410915	0.860038	0.751002
H193	H	-0.311782	0.145679	0.027316
H194	H	0.021552	0.479012	0.360650
H195	H	0.354885	0.812346	0.693983
H196	H	-0.311615	0.145469	0.141412
H197	H	0.021718	0.478803	0.474745
H198	H	0.355052	0.812136	0.808079
H199	H	-0.495790	0.026564	-0.000255
H200	H	-0.162457	0.359897	0.333079
H201	H	0.170876	0.693230	0.666412
C202	C	-0.639922	0.046720	-0.000248
C203	C	-0.306589	0.380053	0.333085
C204	C	0.026744	0.713386	0.666418
C205	C	-0.599644	0.121250	-0.000281
C206	C	-0.266311	0.454584	0.333053
C207	C	0.067022	0.787917	0.666386
C208	C	-0.644153	0.204708	-0.000331
C209	C	-0.310820	0.538041	0.333003
C210	C	0.022514	0.871374	0.666336
H211	H	-0.668671	0.049795	0.056786
H212	H	-0.335338	0.383128	0.390119
H213	H	-0.002005	0.716461	0.723453
H214	H	-0.668682	0.049707	-0.057311
H215	H	-0.335349	0.383040	0.276022
H216	H	-0.002015	0.716373	0.609355
H217	H	-0.570897	0.118265	0.056776
H218	H	-0.237563	0.451598	0.390110
H219	H	0.095770	0.784931	0.723443
H220	H	-0.570897	0.118206	-0.057311
H221	H	-0.237564	0.451539	0.276022
H222	H	0.095770	0.784873	0.609356
H223	H	-0.672913	0.207695	-0.057394
H224	H	-0.339579	0.541028	0.275940
H225	H	-0.006246	0.874361	0.609273
H226	H	-0.672900	0.207773	0.056705
H227	H	-0.339566	0.541106	0.390038
H228	H	-0.006233	0.874440	0.723372
H229	H	-0.616831	0.255286	-0.000362
H230	H	-0.283498	0.588620	0.332972
H231	H	0.049836	0.921953	0.666305
C232	C	-0.009926	-0.292479	-0.000421
C233	C	0.323407	0.040855	0.332912
C234	C	0.656740	0.374188	0.666245
C235	C	-0.050206	-0.367007	-0.000448
C236	C	0.283127	-0.033674	0.332885
C237	C	0.616460	0.299659	0.666219
C238	C	-0.005699	-0.450466	-0.000525
C239	C	0.327634	-0.117133	0.332809
C240	C	0.660968	0.216201	0.666142
H241	H	0.018860	-0.295554	0.056602
H242	H	0.352194	0.037780	0.389935
H243	H	0.685527	0.371113	0.723269
H244	H	0.018796	-0.295468	-0.057495
H245	H	0.352129	0.037866	0.275838
H246	H	0.685462	0.371199	0.609171
H247	H	-0.078916	-0.364020	0.056620
H248	H	0.254417	-0.030686	0.389954
H249	H	0.587751	0.302647	0.723287
H250	H	-0.078991	-0.363963	-0.057467
H251	H	0.254342	-0.030630	0.275866
H252	H	0.587675	0.302704	0.609200
H253	H	0.023023	-0.453455	-0.057599
H254	H	0.356356	-0.120122	0.275735
H255	H	0.689690	0.213211	0.609068
H256	H	0.023085	-0.453531	0.056500
H257	H	0.356419	-0.120198	0.389833
H258	H	0.689752	0.213135	0.723166
H259	H	-0.033022	-0.501044	-0.000552
H260	H	0.300311	-0.167710	0.332782
H261	H	0.633644	0.165623	0.666115
C262	C	-0.044236	0.058320	-0.000307
C263	C	0.289098	0.391653	0.333026
C264	C	0.622431	0.724986	0.666360
C265	C	-0.098911	0.130999	-0.000266
C266	C	0.234422	0.464332	0.333067
C267	C	0.567755	0.797666	0.666400
C268	C	-0.070865	0.215871	-0.000211
C269	C	0.262468	0.549204	0.333122
C270	C	0.595801	0.882538	0.666456
H271	H	-0.016197	0.062497	-0.057342
H272	H	0.317136	0.395831	0.275991
H273	H	0.650469	0.729164	0.609324
H274	H	-0.016168	0.062419	0.056755
H275	H	0.317166	0.395752	0.390088
H276	H	0.650499	0.729085	0.723422
H277	H	-0.126967	0.126902	-0.057323
H278	H	0.206366	0.460235	0.276011
H279	H	0.539699	0.793569	0.609344
H280	H	-0.126954	0.126852	0.056765
H281	H	0.206379	0.460185	0.390098
H282	H	0.539713	0.793519	0.723431
H283	H	-0.042798	0.219970	0.056851
H284	H	0.290536	0.553303	0.390184
H285	H	0.623869	0.886637	0.723518
H286	H	-0.042827	0.220039	-0.057247
H287	H	0.290506	0.553372	0.276086
H288	H	0.623839	0.886706	0.609419
H289	H	-0.107958	0.265194	-0.000174
H290	H	0.225375	0.598527	0.333159
H291	H	0.558709	0.931861	0.666492
