data_functionalizedCrystal
_audit_creation_method	'MofGen! by Chris Wilmer'
_symmetry_space_group_name_H-M	'P1'
_symmetry_Int_Tables_number	1
_symmetry_cell_setting	triclinic
loop_
_symmetry_equiv_pos_as_xyz
  x,y,z
_cell_length_a	11.792241
_cell_length_b	8.559649
_cell_length_c	7.681208
_cell_angle_alpha	85.067523
_cell_angle_beta	95.768971
_cell_angle_gamma	76.986040
loop_
_atom_site_label
_atom_site_type_symbol
_atom_site_fract_x
_atom_site_fract_y
_atom_site_fract_z
O1	O	-1.474846	-0.233850	0.146259
O2	O	-1.142437	-0.256408	0.146299
O3	O	-1.337927	-0.012780	0.146274
O4	O	-1.279356	-0.477478	0.146284
O5	O	-1.362003	0.017284	-0.146600
O6	O	-1.166513	-0.226343	-0.146574
O7	O	-1.498922	-0.203786	-0.146615
Zn8	Zn	-1.336540	-0.210291	-0.193094
Zn9	Zn	-1.304819	-0.249903	0.192779
O10	O	-1.303432	-0.447413	-0.146589
C11	C	-1.112313	-0.239960	-0.000132
C12	C	-0.986687	-0.235721	-0.000117
N13	N	-1.283173	-0.276925	0.456127
C14	C	-1.529045	-0.220234	-0.000179
C15	C	-1.654671	-0.224474	-0.000183
C16	C	-0.756692	-0.227918	-0.000168
C17	C	-0.884679	-0.232253	-0.000140
C18	C	-1.354404	0.061743	-0.000160
C19	C	-1.367615	0.239008	-0.000152
C20	C	-1.286955	-0.521937	-0.000151
C21	C	-1.273743	-0.699203	-0.000148
N22	N	-1.358186	-0.183269	0.543557
H23	H	-1.183267	0.218083	-0.000143
H24	H	-1.458099	0.321733	-0.000177
H25	H	-1.206621	-0.372492	0.531374
H26	H	-1.434750	-0.087707	0.468301
