data_functionalizedCrystal
_audit_creation_method	'MofGen! by Chris Wilmer'
_symmetry_space_group_name_H-M	'P1'
_symmetry_Int_Tables_number	1
_symmetry_cell_setting	triclinic
loop_
_symmetry_equiv_pos_as_xyz
  x,y,z
_cell_length_a	16.704493
_cell_length_b	23.196402
_cell_length_c	23.196401
_cell_angle_alpha	60.007332
_cell_angle_beta	85.850003
_cell_angle_gamma	57.661527
loop_
_atom_site_label
_atom_site_type_symbol
_atom_site_fract_x
_atom_site_fract_y
_atom_site_fract_z
Zr1	Zr	0.773295	0.630971	-0.116056
O2	O	0.645119	0.751235	-0.201403
O3	O	0.812576	0.510709	-0.089895
O4	O	0.812552	0.630972	-0.210160
O5	O	0.645174	0.630970	0.013732
O6	O	0.944640	0.630971	-0.217065
O7	O	0.645142	0.630972	-0.081138
O8	O	0.944681	0.415843	-0.001933
O9	O	0.645133	0.846099	-0.201400
O10	O	0.927918	0.560173	-0.083888
O11	O	0.829366	0.560173	-0.007935
O12	O	0.829339	0.701767	-0.149531
O13	O	0.730787	0.701767	-0.073578
Zr14	Zr	0.984010	0.630967	0.024237
Zr15	Zr	0.983959	0.630969	-0.127069
Zr16	Zr	0.773345	0.630969	0.035250
Zr17	Zr	0.773316	0.782268	-0.116052
Zr18	Zr	0.983988	0.479670	0.024233
O19	O	0.944729	0.751229	-0.001923
O20	O	0.944657	0.751232	-0.217061
O21	O	0.645191	0.751231	0.013735
O22	O	1.112185	0.510703	0.109584
O23	O	1.112113	0.510707	-0.105554
O24	O	0.812647	0.510706	0.125243
O25	O	1.112130	0.630968	-0.105550
O26	O	0.944752	0.630966	0.118341
O27	O	0.812664	0.630967	0.125246
O28	O	1.112162	0.630966	-0.010681
O29	O	0.812583	0.846098	-0.210154
O30	O	0.944722	0.415841	0.118335
O31	O	1.112172	0.415839	0.109581
O32	O	1.112132	0.415841	-0.010687
O33	O	0.645173	0.846097	-0.081131
O34	O	0.812623	0.846096	-0.089885
O35	O	0.927965	0.560171	0.057712
O36	O	1.026517	0.560171	-0.018241
O37	O	0.927938	0.701765	-0.083884
O38	O	0.829386	0.701765	-0.007931
C39	C	0.878626	0.441719	-0.045915
C40	C	0.878616	0.377490	-0.045917
C41	C	0.951403	0.295060	0.002539
C42	C	0.951410	0.234699	0.002545
C43	C	0.878637	0.256774	-0.045916
C44	C	0.805838	0.339218	-0.094375
C45	C	0.805828	0.399576	-0.094376
C46	C	0.855959	0.201188	-0.108522
C47	C	0.855976	0.140829	-0.108523
C48	C	0.878664	0.070612	-0.045914
C49	C	0.901356	0.060752	0.016697
C50	C	0.901345	0.121110	0.016697
C51	C	0.878640	0.191332	-0.045921
C52	C	0.951462	-0.077271	0.002552
C53	C	0.951462	-0.137631	0.002559
C54	C	0.805894	-0.033109	-0.094367
C55	C	0.805890	0.027247	-0.094368
C56	C	0.878679	0.005161	-0.045909
C57	C	0.615143	0.630971	-0.032134
C58	C	0.525711	0.630972	-0.027459
C59	C	0.357631	0.630960	-0.123208
C60	C	0.273601	0.630961	-0.118818
C61	C	0.273623	0.630968	-0.014287
C62	C	0.357653	0.630968	-0.018677
C63	C	0.399653	0.630965	-0.073140
C64	C	0.483681	0.630970	-0.077532
C65	C	0.483705	0.630971	0.027002
C66	C	0.399675	0.630972	0.031392
C67	C	1.142161	0.630967	-0.059685
C68	C	1.231594	0.630966	-0.064360
C69	C	0.878589	0.630972	-0.235170
C70	C	0.878568	0.630973	-0.299404
C71	C	0.878679	0.820219	-0.045904
C72	C	0.878688	0.884449	-0.045902
C73	C	0.827115	0.704881	-0.363842
C74	C	0.827140	0.704882	-0.424199
C75	C	0.878604	0.630971	-0.420112
C76	C	0.930068	0.557053	-0.355662
C77	C	0.930050	0.557054	-0.295308
C78	C	0.871287	0.574345	-0.487049
C79	C	0.871298	0.574347	-0.547403
C80	C	0.878666	0.630965	-0.606263
C81	C	0.886004	0.687594	-0.604767
C82	C	0.885985	0.687595	-0.544413
C83	C	0.878630	0.630962	-0.485552
C84	C	0.827239	0.704879	-0.736149
C85	C	0.827271	0.704877	-0.796506
C86	C	0.930192	0.557046	-0.727967
C87	C	0.930166	0.557050	-0.667613
C88	C	0.878684	0.630969	-0.671709
C89	C	0.878715	0.630966	0.143352
C90	C	0.878737	0.630965	0.207585
C91	C	1.142135	0.441717	-0.059690
C92	C	1.231558	0.377487	-0.064368
C93	C	0.878689	0.441716	0.143346
C94	C	0.878701	0.377486	0.207578
C95	C	1.142198	0.441714	0.129571
C96	C	1.231643	0.377483	0.189127
C97	C	0.615107	0.820224	-0.221389
C98	C	0.525662	0.884455	-0.280946
C99	C	0.615170	0.820221	-0.032128
C100	C	0.525746	0.884452	-0.027451
C101	C	0.878616	0.820222	-0.235165
C102	C	0.878603	0.884453	-0.299396
C103	C	1.222085	0.347324	-0.100837
C104	C	1.306099	0.286982	-0.105246
C105	C	1.399587	0.256798	-0.073180
C106	C	1.409058	0.286966	-0.036709
C107	C	1.325044	0.347312	-0.032305
C108	C	0.930174	0.347321	0.272015
C109	C	0.930182	0.286978	0.332373
C110	C	0.878722	0.256797	0.328293
C111	C	0.827242	0.286967	0.263849
C112	C	0.827229	0.347313	0.203492
C113	C	1.325099	0.347319	0.177448
C114	C	1.409150	0.286975	0.233401
C115	C	1.399743	0.256792	0.301033
C116	C	1.306276	0.286962	0.312711
C117	C	1.222228	0.347309	0.256759
C118	C	0.432206	0.914626	-0.269267
C119	C	0.348154	0.974989	-0.325220
C120	C	0.357562	1.005175	-0.392852
C121	C	0.451028	0.975002	-0.404530
C122	C	0.535077	0.914645	-0.348577
C123	C	0.535220	0.914620	0.009012
C124	C	0.451205	0.974980	0.013404
C125	C	0.357717	1.005165	-0.018664
C126	C	0.348246	0.974994	-0.055132
C127	C	0.432260	0.914640	-0.059528
C128	C	0.930074	0.914615	-0.295293
C129	C	0.930081	0.974959	-0.355641
C130	C	0.878612	1.005143	-0.420090
C131	C	0.827140	0.974974	-0.424192
C132	C	0.827139	0.914628	-0.363845
H133	H	0.919823	0.003582	0.067679
H134	H	1.145970	0.371899	-0.126959
H135	H	1.467988	0.207660	-0.076770
H136	H	1.010726	-0.095255	0.042014
O137	O	1.121434	0.379822	0.269369
H138	H	1.080668	0.446395	0.245785
H139	H	1.485187	0.262382	-0.010603
O140	O	0.771773	0.254382	0.259461
H141	H	0.714921	0.265946	0.288173
H142	H	0.837502	0.148862	-0.159504
H143	H	0.785199	0.765072	-0.367183
H144	H	0.785316	0.371865	0.151027
H145	H	1.332777	0.371886	0.122383
H146	H	0.424533	0.890078	-0.089218
H147	H	0.971986	0.890049	-0.242821
O148	O	0.863425	0.513277	-0.549059
H149	H	0.929512	0.475098	-0.560906
O150	O	0.985596	1.007494	-0.351210
H151	H	1.021368	0.976373	-0.296254
O152	O	0.878603	1.070241	-0.485177
H153	H	0.923032	1.086147	-0.471489
O154	O	0.267099	1.070258	-0.013919
H155	H	0.222735	1.047091	0.011523
H156	H	0.785239	0.765069	-0.476674
H157	H	0.891962	0.733703	-0.543198
O158	O	1.029980	-0.226545	0.054817
H159	H	1.080597	-0.231757	0.088503
H160	H	0.289116	1.054322	-0.438406
O161	O	0.985730	0.254434	0.401872
H162	H	0.956023	0.305099	0.409558
O163	O	0.636048	0.882071	0.043601
H164	H	0.676780	0.893646	0.004156
H165	H	0.517927	0.630979	0.067770
O166	O	0.878758	0.191695	0.393393
H167	H	0.923212	0.175785	0.438883
H168	H	1.485246	0.262418	0.223880
O169	O	0.831497	0.276919	-0.176053
H170	H	0.815740	0.273628	-0.219589
O171	O	0.893961	0.748663	-0.668243
H172	H	0.892756	0.739144	-0.710460
O173	O	0.228266	0.630969	-0.172826
H174	H	0.282862	0.575707	-0.173116
H175	H	0.785235	0.999559	-0.476675
H176	H	0.458676	0.999588	-0.459602
H177	H	0.746624	0.094368	-0.133830
O178	O	0.985700	0.477323	-0.723547
H179	H	0.977065	0.489737	-0.776341
H180	H	1.332772	0.371862	-0.002603
O181	O	0.771729	0.784600	-0.740557
H182	H	0.735967	0.835996	-0.795510
H183	H	0.746586	0.357188	-0.133832
O184	O	0.727331	0.488490	-0.146649
H185	H	0.676731	0.493704	-0.180351
O186	O	0.985677	0.379872	0.276425
H187	H	1.021457	0.348758	0.331377
O188	O	1.490403	0.191692	0.361378
H189	H	1.490384	0.214844	0.393255
O190	O	1.296135	0.254393	0.385658
H191	H	1.370286	0.207354	0.422597
H192	H	0.424527	0.890052	-0.214202
O193	O	0.461430	1.007505	0.052749
H194	H	0.540554	0.976359	0.074319
O195	O	0.771611	0.882109	-0.368284
H196	H	0.823547	0.815536	-0.345284
H197	H	0.865280	0.528240	-0.439126
O198	O	1.029899	0.271243	0.054808
H199	H	1.080508	0.203779	0.088508
H200	H	0.365471	0.630971	0.075736
H201	H	0.785375	0.765065	-0.848976
O202	O	0.228323	0.630962	0.044456
H203	H	0.151564	0.686227	0.023336
H204	H	1.010682	0.167572	0.042005
O205	O	0.635873	0.882127	-0.361184
H206	H	0.692746	0.835097	-0.310920
H207	H	0.272059	0.999546	-0.315698
H208	H	0.972060	0.496866	-0.615143
H209	H	0.272117	0.999581	-0.081241
O210	O	0.985579	0.477332	-0.225805
H211	H	0.976934	0.489751	-0.184525
O212	O	0.925803	0.110489	0.084220
H213	H	0.941575	0.051528	0.127759
O214	O	0.727403	-0.009287	-0.146641
H215	H	0.739641	-0.065106	-0.138504
O216	O	0.528989	0.630963	-0.136269
H217	H	0.485654	0.630951	-0.170343
H218	H	0.391823	0.630966	-0.167558
H219	H	0.971972	0.496874	-0.352339
O220	O	1.295874	0.254443	-0.144577
H221	H	1.216750	0.285562	-0.166121
