data_functionalizedCrystal
_audit_creation_method	'MofGen! by Chris Wilmer'
_symmetry_space_group_name_H-M	'P1'
_symmetry_Int_Tables_number	1
_symmetry_cell_setting	triclinic
loop_
_symmetry_equiv_pos_as_xyz
  x,y,z
_cell_length_a	10.540539
_cell_length_b	15.995350
_cell_length_c	9.016244
_cell_angle_alpha	89.999993
_cell_angle_beta	89.994699
_cell_angle_gamma	84.008933
loop_
_atom_site_label
_atom_site_type_symbol
_atom_site_fract_x
_atom_site_fract_y
_atom_site_fract_z
O1	O	1.684271	0.117994	-0.123262
O2	O	1.314706	0.129112	-0.123280
O3	O	1.509591	0.001726	-0.123269
O4	O	1.489386	0.245380	-0.123273
O5	O	1.509562	0.001729	0.123411
O6	O	1.314677	0.129115	0.123401
O7	O	1.684243	0.117997	0.123418
Cu8	Cu	1.499457	0.123556	0.145934
Cu9	Cu	1.499491	0.123553	-0.145795
O10	O	1.489358	0.245383	0.123408
C11	C	1.267400	0.128280	0.000058
C12	C	1.126486	0.125785	0.000051
C13	C	0.944373	0.030202	0.000629
C14	C	1.090956	0.032730	0.000057
C15	C	1.064214	0.170565	-0.140811
C16	C	0.917713	0.167389	-0.140913
C17	C	0.917166	0.169286	0.139609
C18	C	1.064137	0.170143	0.141455
C19	C	1.508741	-0.029472	0.000068
C20	C	1.506237	-0.122438	0.000060
C21	C	1.497244	-0.460239	0.000064
C22	C	1.358450	-0.413635	-0.000496
C23	C	1.360955	-0.316930	0.000061
C24	C	1.501705	-0.292652	0.000061
C25	C	1.570146	-0.333318	0.140929
C26	C	1.566660	-0.429975	0.141046
C27	C	1.569559	-0.430319	-0.139476
C28	C	1.569527	-0.333374	-0.141337
C29	C	1.504233	-0.197939	0.000064
C30	C	1.494719	-0.554952	0.000071
C31	C	1.731549	0.118829	0.000077
C32	C	1.872462	0.121324	0.000074
C33	C	1.490207	0.276581	0.000067
C34	C	1.492711	0.369547	0.000066
N35	N	1.499443	0.123558	0.351120
N36	N	1.499516	0.123544	-0.350981
C37	C	1.394878	0.191473	0.586147
C38	C	1.395104	0.191727	0.414256
C39	C	1.631893	0.143433	0.413464
C40	C	1.631320	0.143914	0.585409
C41	C	1.472879	0.035546	0.585663
C42	C	1.469826	0.036116	0.413709
H43	H	0.916281	-0.006559	0.101649
H44	H	0.889970	0.134290	-0.246208
O45	O	1.094996	0.260008	0.152734
H46	H	1.058099	0.295420	0.053173
H47	H	1.549185	-0.015013	0.626319
H48	H	1.672168	-0.317398	-0.149842
O49	O	1.118946	0.126809	0.279506
H50	H	1.165619	0.172413	0.348136
H51	H	1.303210	-0.433558	0.099956
H52	H	1.655918	0.206909	0.370387
O53	O	1.705112	-0.471573	-0.140754
H54	H	1.704462	-0.540878	-0.144997
H55	H	1.654792	0.208115	0.625498
H56	H	0.868825	0.234313	-0.147308
H57	H	1.296652	0.179768	0.372107
O58	O	1.092581	0.261084	-0.147783
H59	H	1.151510	0.275148	-0.050694
H60	H	1.107242	0.139456	-0.245643
O61	O	1.707113	-0.313781	0.147894
H62	H	1.758660	-0.339133	0.047558
O63	O	1.507163	-0.296105	0.279797
H64	H	1.427125	-0.248659	0.248842
O65	O	0.875945	0.129392	0.281051
H66	H	0.823127	0.074929	0.253469
H67	H	1.306769	-0.289388	0.101207
H68	H	1.524193	-0.451131	-0.246245
O69	O	1.146921	-0.014269	-0.133932
H70	H	1.251932	-0.012632	-0.134801
O71	O	0.905031	-0.018297	-0.132422
H72	H	0.990191	-0.037824	-0.201447
O73	O	0.853376	0.258313	0.140897
H74	H	0.790133	0.268394	0.042698
H75	H	1.307154	-0.288831	-0.100919
O76	O	1.340768	0.016151	0.359746
H77	H	1.277759	0.008579	0.456405
H78	H	1.302987	-0.432500	-0.101514
O79	O	1.417090	0.277469	0.643338
H80	H	1.502334	0.272041	0.716345
O81	O	1.264055	0.175880	0.640986
H82	H	1.201973	0.165283	0.544820
H83	H	1.412106	0.257014	0.373109
H84	H	1.711615	0.096432	0.626996
O85	O	1.503347	-0.297612	-0.279391
H86	H	1.422491	-0.251024	-0.247451
O87	O	1.737500	0.079694	0.359297
H88	H	1.696606	0.033064	0.287186
O89	O	1.500508	-0.454621	0.280514
H90	H	1.471299	-0.397527	0.347236
H91	H	1.668559	-0.461614	0.147438
O92	O	1.347705	0.010499	0.643142
H93	H	1.303078	0.060499	0.717516
H94	H	1.541081	-0.016861	0.370737
H95	H	1.134043	-0.002504	0.101034
