data_functionalizedCrystal
_audit_creation_method	'MofGen! by Chris Wilmer'
_symmetry_space_group_name_H-M	'P1'
_symmetry_Int_Tables_number	1
_symmetry_cell_setting	triclinic
loop_
_symmetry_equiv_pos_as_xyz
  x,y,z
_cell_length_a	17.077404
_cell_length_b	12.759400
_cell_length_c	17.077395
_cell_angle_alpha	89.975675
_cell_angle_beta	89.984359
_cell_angle_gamma	90.014910
loop_
_atom_site_label
_atom_site_type_symbol
_atom_site_fract_x
_atom_site_fract_y
_atom_site_fract_z
Zn1	Zn	1.200069	-0.418273	-0.443859
Zn2	Zn	1.700069	0.081727	0.056141
Zn3	Zn	1.200004	-0.593970	-0.312599
Zn4	Zn	1.700004	-0.093970	0.187401
Zn5	Zn	1.068810	-0.418306	-0.312606
Zn6	Zn	1.568810	0.081694	0.187394
Zn7	Zn	1.068788	-0.593911	-0.443823
Zn8	Zn	1.568788	-0.093911	0.056177
O9	O	1.134418	-0.506115	-0.378222
O10	O	1.634418	-0.006115	0.121778
O11	O	1.309908	-0.441590	-0.426459
O12	O	1.809908	0.058410	0.073541
O13	O	1.182583	-0.570706	-0.202753
O14	O	1.682583	-0.070706	0.297247
O15	O	1.086259	-0.271281	-0.330035
O16	O	1.586259	0.228719	0.169965
O17	O	1.309860	-0.570674	-0.330023
O18	O	1.809860	-0.070674	0.169977
O19	O	1.182694	-0.271256	-0.426466
O20	O	1.682694	0.228744	0.073534
O21	O	1.086195	-0.441647	-0.202759
O22	O	1.586195	0.058353	0.297241
O23	O	0.958960	-0.441590	-0.330001
O24	O	1.458960	0.058410	0.169999
O25	O	1.086221	-0.570574	-0.553674
O26	O	1.586221	-0.070574	-0.053674
O27	O	0.958944	-0.570606	-0.426405
O28	O	1.458944	-0.070606	0.073595
O29	O	1.182673	-0.441534	-0.553701
O30	O	1.682673	0.058466	-0.053701
O31	O	1.182562	-0.740983	-0.329988
O32	O	1.682562	-0.240983	0.170012
O33	O	1.086158	-0.740940	-0.426398
O34	O	1.586158	-0.240940	0.073602
C35	C	0.930470	-0.506096	-0.378200
C36	C	1.430470	-0.006096	0.121800
C37	C	0.843220	-0.506113	-0.378209
C38	C	1.343220	-0.006113	0.121791
C39	C	0.802242	-0.573393	-0.428326
C40	C	1.302242	-0.073393	0.071674
C41	C	0.720262	-0.573396	-0.428339
C42	C	1.220262	-0.073396	0.071661
C43	C	0.679261	-0.506122	-0.378230
C44	C	1.179261	-0.006122	0.121770
C45	C	0.720245	-0.438835	-0.328111
C46	C	1.220245	0.061165	0.171889
C47	C	0.802224	-0.438828	-0.328103
C48	C	1.302224	0.061172	0.171897
C49	C	0.549375	-0.438855	-0.328130
C50	C	1.049375	0.061145	0.171870
C51	C	0.467390	-0.438863	-0.328136
C52	C	0.967390	0.061137	0.171864
C53	C	0.467413	-0.573423	-0.428366
C54	C	0.967413	-0.073423	0.071634
C55	C	0.549392	-0.573416	-0.428358
C56	C	1.049392	-0.073416	0.071642
C57	C	0.590370	-0.506130	-0.378237
C58	C	1.090370	-0.006130	0.121763
C59	C	1.134371	-0.779082	-0.378205
C60	C	1.634371	-0.279082	0.121795
C61	C	1.134423	-0.895859	-0.378225
C62	C	1.634423	-0.395859	0.121775
C63	C	1.184676	-0.950709	-0.328080
C64	C	1.684676	-0.450709	0.171920
C65	C	1.184725	-1.060433	-0.328104
C66	C	1.684725	-0.560433	0.171896
C67	C	1.084260	-1.060448	-0.428420
C68	C	1.584260	-0.560448	0.071580
C69	C	1.084216	-0.950726	-0.428399
C70	C	1.584216	-0.450726	0.071601
C71	C	1.234884	-0.895842	-0.277905
C72	C	1.734884	-0.395842	0.222095
C73	C	1.285140	-0.950691	-0.227755
C74	C	1.785140	-0.450691	0.272245
C75	C	1.285189	-1.060415	-0.227780
C76	C	1.785189	-0.560415	0.272220
C77	C	1.234980	-1.115290	-0.277954
C78	C	1.734980	-0.615290	0.222046
C79	C	1.339162	-0.506135	-0.378244
C80	C	1.839162	-0.006135	0.121756
C81	C	1.426412	-0.506143	-0.378253
C82	C	1.926412	-0.006143	0.121747
C83	C	1.134452	-0.506044	-0.582966
C84	C	1.634452	-0.006044	-0.082966
C85	C	1.134466	-0.506013	-0.670216
C86	C	1.634466	-0.006013	-0.170216
C87	C	1.134486	-0.232082	-0.378255
C88	C	1.634486	0.267918	0.121745
C89	C	1.134515	-0.115305	-0.378270
C90	C	1.634515	0.384695	0.121730
C91	C	1.184776	-0.438679	-1.046045
C92	C	1.684776	0.061321	-0.546045
C93	C	1.184760	-0.438716	-0.964065
C94	C	1.684760	0.061284	-0.464065
C95	C	1.134531	-0.505914	-0.923065
C96	C	1.634531	-0.005914	-0.423065
C97	C	1.084320	-0.573087	-0.964050
C98	C	1.584320	-0.073087	-0.464050
C99	C	1.084341	-0.573055	-1.046029
C100	C	1.584341	-0.073055	-0.546029
C101	C	1.084280	-0.573148	-0.793180
C102	C	1.584280	-0.073148	-0.293180
C103	C	1.084258	-0.573179	-0.711195
C104	C	1.584258	-0.073179	-0.211195
C105	C	1.184698	-0.438809	-0.711216
C106	C	1.684698	0.061191	-0.211216
C107	C	1.184719	-0.438777	-0.793195
C108	C	1.684719	0.061223	-0.293195
C109	C	1.134507	-0.505949	-0.834174
C110	C	1.634507	-0.005949	-0.334174
C111	C	1.134430	-0.506110	-0.174274
C112	C	1.634430	-0.006110	0.325726
C113	C	1.134567	-0.505845	-0.087025
C114	C	1.634567	-0.005845	0.412975
H115	H	0.686901	-0.628183	-0.469149
H116	H	1.186901	-0.128183	0.030851
Br117	Br	1.353401	-1.134852	-0.159731
Br118	Br	1.853401	-0.634852	0.340269
Br119	Br	1.353287	-0.876223	-0.159676
Br120	Br	1.853287	-0.376223	0.340324
H121	H	1.234848	-0.806499	-0.277878
H122	H	1.734848	-0.306499	0.222122
H123	H	1.225646	-0.384026	-0.930703
H124	H	1.725646	0.115974	-0.430703
Br125	Br	1.016093	-0.664381	-0.655552
Br126	Br	1.516093	-0.164381	-0.155552
Br127	Br	1.016136	-0.664312	-0.848794
Br128	Br	1.516136	-0.164312	-0.348794
Br129	Br	0.857878	-0.664706	-0.496330
Br130	Br	1.357878	-0.164706	0.003670
H131	H	0.582773	-0.628202	-0.469157
H132	H	1.082773	-0.128202	0.030843
H133	H	1.043426	-0.627805	-0.930661
H134	H	1.543426	-0.127805	-0.430661
Br135	Br	1.016202	-0.664217	-1.101644
Br136	Br	1.516202	-0.164217	-0.601644
Br137	Br	0.411801	-0.664727	-0.496397
Br138	Br	0.911801	-0.164727	0.003603
H139	H	0.434009	-0.384071	-0.287342
H140	H	0.934009	0.115929	0.212658
Br141	Br	0.604988	-0.347535	-0.260110
Br142	Br	1.104988	0.152465	0.239890
H143	H	1.235030	-1.204634	-0.277975
H144	H	1.735030	-0.704634	0.222025
Br145	Br	0.664602	-0.347524	-0.260112
Br146	Br	1.164602	0.152476	0.239888
Br147	Br	1.252900	-0.347596	-0.848838
Br148	Br	1.752900	0.152404	-0.348838
H149	H	1.043382	-1.105135	-0.469268
H150	H	1.543382	-0.605135	0.030732
H151	H	0.835587	-0.384036	-0.287296
H152	H	1.335587	0.115964	0.212704
Br153	Br	1.016018	-0.876280	-0.496458
Br154	Br	1.516018	-0.376280	0.003542
Br155	Br	1.252936	-0.347462	-1.101680
Br156	Br	1.752936	0.152538	-0.601680
H157	H	1.225581	-0.384113	-0.677847
H158	H	1.725581	0.115887	-0.177847
