data_functionalizedCrystal
_audit_creation_method	'MofGen! by Chris Wilmer'
_symmetry_space_group_name_H-M	'P1'
_symmetry_Int_Tables_number	1
_symmetry_cell_setting	triclinic
loop_
_symmetry_equiv_pos_as_xyz
  x,y,z
_cell_length_a	10.908937
_cell_length_b	11.026607
_cell_length_c	8.140239
_cell_angle_alpha	89.998310
_cell_angle_beta	89.995517
_cell_angle_gamma	84.335986
loop_
_atom_site_label
_atom_site_type_symbol
_atom_site_fract_x
_atom_site_fract_y
_atom_site_fract_z
O1	O	1.662445	-0.179060	-0.136664
O2	O	1.309512	-0.088523	-0.136655
O3	O	1.456728	-0.304542	-0.136653
O4	O	1.515229	0.036959	-0.136666
O5	O	1.456717	-0.304542	0.136575
O6	O	1.309502	-0.088523	0.136572
O7	O	1.662434	-0.179060	0.136563
Zn8	Zn	1.485966	-0.133791	0.179949
Zn9	Zn	1.485980	-0.133792	-0.180040
O10	O	1.515219	0.036959	0.136561
C11	C	1.263622	-0.080062	-0.000040
C12	C	1.126895	-0.054865	-0.000037
C13	C	0.915317	-0.120775	-0.000064
C14	C	1.056631	-0.146820	-0.000042
C15	C	1.445930	-0.347575	-0.000041
C16	C	1.413757	-0.475796	-0.000046
C17	C	1.502592	-0.567529	-0.000050
C18	C	1.469342	-0.700053	-0.000055
C19	C	1.708325	-0.187521	-0.000055
C20	C	1.845052	-0.212718	-0.000069
C21	C	1.526016	0.079992	-0.000054
C22	C	1.558189	0.208213	-0.000060
N23	N	1.485965	-0.133794	0.425631
N24	N	1.485989	-0.133800	-0.425722
H25	H	1.082440	0.043139	-0.000052
N26	N	1.115496	-0.276644	-0.000028
H27	H	1.168387	-0.291247	-0.101305
H28	H	1.168294	-0.291157	0.101333
N29	N	1.335983	-0.725965	-0.000033
H30	H	1.281267	-0.646540	-0.000024
H31	H	1.318775	-0.774391	-0.101321
H32	H	0.889514	-0.310715	-0.000068
H33	H	1.313087	-0.495373	-0.000054
H34	H	1.658866	-0.772219	-0.000186
H35	H	0.870855	-0.022779	-0.000084
H36	H	1.603262	-0.547952	-0.000043
