data_functionalizedCrystal
_audit_creation_method	'MofGen! by Chris Wilmer'
_symmetry_space_group_name_H-M	'P1'
_symmetry_Int_Tables_number	1
_symmetry_cell_setting	triclinic
loop_
_symmetry_equiv_pos_as_xyz
  x,y,z
_cell_length_a	18.215407
_cell_length_b	12.759399
_cell_length_c	12.759393
_cell_angle_alpha	90.032031
_cell_angle_beta	89.978212
_cell_angle_gamma	89.984436
loop_
_atom_site_label
_atom_site_type_symbol
_atom_site_fract_x
_atom_site_fract_y
_atom_site_fract_z
Zn1	Zn	1.125136	0.418191	-0.594072
Zn2	Zn	1.125061	0.593910	-0.418391
Zn3	Zn	1.002064	0.418247	-0.418401
Zn4	Zn	1.002056	0.593830	-0.594022
O5	O	1.063579	0.506045	-0.506221
O6	O	1.228110	0.441511	-0.570784
O7	O	1.108718	0.570665	-0.271371
O8	O	1.018425	0.271219	-0.441729
O9	O	1.228055	0.570611	-0.441712
O10	O	1.108845	0.271178	-0.570794
O11	O	1.018353	0.441606	-0.271378
O12	O	0.899079	0.441529	-0.441681
O13	O	1.018410	0.570474	-0.741050
O14	O	0.899072	0.570529	-0.570709
O15	O	1.108837	0.441433	-0.741086
O16	O	1.108709	0.740921	-0.441663
O17	O	1.018337	0.740862	-0.570699
C18	C	1.063534	0.779012	-0.506197
C19	C	1.063582	0.895789	-0.506222
C20	C	0.872373	0.506027	-0.506191
C21	C	0.790574	0.506044	-0.506203
C22	C	1.063631	0.505938	-0.780255
C23	C	1.063653	0.505893	-0.897032
C24	C	0.602396	0.573320	-0.573304
C25	C	0.525537	0.573324	-0.573317
C26	C	0.525515	0.438788	-0.439162
C27	C	0.602372	0.438780	-0.439155
C28	C	0.640811	0.506052	-0.506224
C29	C	0.487095	0.506063	-0.506244
C30	C	0.403761	0.506067	-0.506258
C31	C	0.724150	0.506048	-0.506212
C32	C	1.255532	0.506063	-0.506252
C33	C	1.337331	0.506072	-0.506265
C34	C	1.063645	0.232011	-0.506268
C35	C	1.063673	0.115235	-0.506288
C36	C	1.110693	0.950646	-0.439110
C37	C	1.110740	1.060370	-0.439145
C38	C	1.016560	1.060369	-0.573408
C39	C	1.016517	0.950647	-0.573377
C40	C	1.016616	0.438680	-0.951897
C41	C	1.016634	0.438648	-1.061621
C42	C	1.110730	0.573045	-1.061605
C43	C	1.110708	0.573081	-0.951883
C44	C	1.063571	0.506075	-0.233254
C45	C	1.063691	0.505824	-0.116478
H46	H	0.633691	0.628095	-0.627919
H47	H	0.494264	0.628098	-0.627941
H48	H	0.978154	0.905979	-0.628033
H49	H	0.978240	1.105049	-0.628082
H50	H	0.494208	0.384019	-0.384555
Cl51	Cl	0.650668	0.354201	-0.354826
H52	H	0.978301	0.383971	-0.907241
H53	H	1.149017	0.905983	-0.384430
Cl54	Cl	0.957490	0.354161	-1.130590
H55	H	1.149013	0.627819	-0.907210
Cl56	Cl	1.169969	1.129330	-0.354774
H57	H	1.149041	0.627746	-1.106278
