data_functionalizedCrystal
_audit_creation_method	'MofGen! by Chris Wilmer'
_symmetry_space_group_name_H-M	'P1'
_symmetry_Int_Tables_number	1
_symmetry_cell_setting	triclinic
loop_
_symmetry_equiv_pos_as_xyz
  x,y,z
_cell_length_a	23.096457
_cell_length_b	20.919309
_cell_length_c	20.919356
_cell_angle_alpha	59.201187
_cell_angle_beta	93.151288
_cell_angle_gamma	62.591463
loop_
_atom_site_label
_atom_site_type_symbol
_atom_site_fract_x
_atom_site_fract_y
_atom_site_fract_z
Zr1	Zr	0.576921	0.700776	-0.111346
O2	O	0.483828	0.834338	-0.218772
O3	O	0.602373	0.567214	-0.074805
O4	O	0.600168	0.700778	-0.213573
O5	O	0.491282	0.700773	0.025353
O6	O	0.695448	0.700780	-0.213577
O7	O	0.486034	0.700774	-0.080004
O8	O	0.699393	0.461858	0.034654
O9	O	0.487338	0.939695	-0.222878
O10	O	0.688062	0.622152	-0.063584
O11	O	0.620873	0.622149	0.015046
O12	O	0.618277	0.779404	-0.148335
O13	O	0.551087	0.779402	-0.069706
Zr14	Zr	0.737253	0.700777	0.056680
Zr15	Zr	0.728882	0.700779	-0.111352
Zr16	Zr	0.585292	0.700775	0.056686
Zr17	Zr	0.582518	0.868808	-0.117894
Zr18	Zr	0.731656	0.532746	0.063228
O19	O	0.711800	0.834340	0.020139
O20	O	0.699897	0.834342	-0.218781
O21	O	0.495731	0.834336	0.020148
O22	O	0.830345	0.567216	0.164107
O23	O	0.818442	0.567218	-0.074814
O24	O	0.614276	0.567212	0.164116
O25	O	0.822891	0.700781	-0.080018
O26	O	0.714006	0.700776	0.158907
O27	O	0.618725	0.700774	0.158911
O28	O	0.828140	0.700780	0.025339
O29	O	0.608126	0.939697	-0.222883
O30	O	0.706047	0.461857	0.168217
O31	O	0.826836	0.461859	0.168212
O32	O	0.820182	0.461860	0.034649
O33	O	0.493992	0.939693	-0.089314
O34	O	0.614781	0.939696	-0.089319
O35	O	0.695897	0.622150	0.093670
O36	O	0.763086	0.622152	0.015040
O37	O	0.693301	0.779404	-0.069712
O38	O	0.626111	0.779402	0.008918
C39	C	0.650086	0.490595	-0.019143
C40	C	0.647710	0.419261	-0.016363
C41	C	0.681664	0.385750	-0.056101
C42	C	0.679433	0.318719	-0.053482
C43	C	0.643244	0.285206	-0.011128
C44	C	0.609289	0.318721	0.028615
C45	C	0.611524	0.385745	0.025999
C46	C	0.634745	0.082831	-0.001175
C47	C	0.632510	0.015804	0.001435
C48	C	0.702655	0.015806	-0.080660
C49	C	0.704884	0.082836	-0.083275
C50	C	0.670932	0.116341	-0.043529
C51	C	0.640961	0.216693	-0.008452
C52	C	0.673219	0.184849	-0.046201
C53	C	0.467007	0.700773	-0.027325
C54	C	0.402495	0.700772	-0.027322
C55	C	0.408617	0.618691	0.016909
C56	C	0.348001	0.618689	0.016913
C57	C	0.281264	0.700774	-0.027331
C58	C	0.275146	0.782867	-0.071565
C59	C	0.335761	0.782866	-0.071561
N60	N	0.157176	0.761875	-0.096511
N61	N	0.099596	0.761870	-0.096513
C62	C	0.098631	0.700782	-0.027345
N63	N	0.157427	0.639685	0.041825
N64	N	0.215013	0.639687	0.041826
C65	C	0.215533	0.700785	-0.027340
C66	C	0.039029	0.618694	0.016894
C67	C	-0.021589	0.618696	0.016900
C68	C	-0.094444	0.782876	-0.071586
C69	C	-0.033827	0.782871	-0.071584
C70	C	0.032908	0.700778	-0.027345
C71	C	0.847167	0.700780	-0.027341
C72	C	0.911678	0.700782	-0.027343
C73	C	0.646615	0.700779	-0.237516
C74	C	0.643062	0.700780	-0.308850
C75	C	0.664088	0.910959	-0.035523
C76	C	0.666464	0.982292	-0.038303
C77	C	0.620295	0.700771	-0.712295
C78	C	0.623643	0.700768	-0.645267
C79	C	0.677806	0.700774	-0.611765
C80	C	0.728629	0.700774	-0.645290
C81	C	0.725283	0.700771	-0.712313
C82	C	0.690538	0.700777	-0.409397
C83	C	0.693879	0.700783	-0.342371
C84	C	0.588894	0.700775	-0.342352
C85	C	0.585550	0.700777	-0.409379
C86	C	0.636374	0.700773	-0.442895
C87	C	0.681229	0.700773	-0.543254
C88	C	0.632954	0.700767	-0.511402
C89	C	0.667558	0.700775	0.182850
C90	C	0.671112	0.700774	0.254184
C91	C	0.840166	0.490599	-0.019151
C92	C	0.902301	0.419266	-0.016374
C93	C	0.660557	0.490593	0.191040
C94	C	0.661735	0.419259	0.265154
C95	C	0.850637	0.490597	0.191032
C96	C	0.916326	0.419263	0.265144
C97	C	0.463537	0.910957	-0.245698
C98	C	0.397847	0.982290	-0.319809
C99	C	0.474008	0.910955	-0.035515
C100	C	0.411873	0.982288	-0.038292
C101	C	0.653617	0.910961	-0.245706
C102	C	0.652439	0.982295	-0.319820
C103	C	0.892318	0.385767	-0.056117
C104	C	0.950695	0.318752	-0.053524
C105	C	1.019053	0.285232	-0.011182
C106	C	1.029035	0.318738	0.028563
C107	C	0.970659	0.385756	0.025964
C108	C	0.701450	0.385759	0.341007
C109	C	0.702555	0.318743	0.410650
C110	C	0.663948	0.285221	0.404440
C111	C	0.624228	0.318727	0.328580
C112	C	0.623120	0.385747	0.258937
C113	C	0.982253	0.385766	0.258903
C114	C	1.043981	0.318750	0.328532
C115	C	1.039780	0.285228	0.404400
C116	C	0.973846	0.318733	0.410639
C117	C	0.912120	0.385752	0.341011
C118	C	0.331921	1.015796	-0.313569
C119	C	0.270194	1.082833	-0.383198
C120	C	0.274395	1.116358	-0.459067
C121	C	0.340328	1.082849	-0.465306
C122	C	0.402054	1.015818	-0.395677
C123	C	0.421855	1.015793	0.001444
C124	C	0.363478	1.082827	-0.001168
C125	C	0.295120	1.116349	-0.043513
C126	C	0.285138	1.082841	-0.083254
C127	C	0.343514	1.015813	-0.080646
C128	C	0.691054	1.015795	-0.313584
C129	C	0.689961	1.082813	-0.383215
C130	C	0.650249	1.116333	-0.459081
C131	C	0.611633	1.082827	-0.465316
C132	C	0.612730	1.015806	-0.395685
H133	H	0.711129	0.413036	-0.090594
F134	F	-0.040343	0.870235	-0.118666
H135	H	0.330772	0.849708	-0.107578
F136	F	0.649086	1.187665	-0.533182
F137	F	0.742547	0.421421	0.347634
H138	H	0.985687	0.413049	0.197134
F139	F	1.105481	0.213899	0.478498
H140	H	0.730298	-0.011481	-0.113019
H141	H	-0.148782	0.849711	-0.107611
F142	F	0.110055	0.531324	0.063980
H143	H	0.978797	0.413023	0.058334
F144	F	0.570784	0.283041	0.073701
F145	F	0.232997	1.187686	-0.046281
F146	F	0.472216	0.980161	-0.402331
F147	F	0.583143	0.283042	0.321983
H148	H	0.229473	1.110145	-0.117731
H149	H	0.576187	0.700772	-0.739570
H150	H	0.611496	0.189399	0.026032
H151	H	0.590781	0.413014	0.197178
F152	F	0.744833	0.283093	0.491379
F153	F	0.494603	0.980131	0.046514
H154	H	1.097661	0.291477	0.323438
F155	F	-0.015069	0.531328	0.063988
F156	F	0.731060	1.118464	-0.376563
F157	F	0.208694	1.187698	-0.533166
H158	H	0.970437	0.291430	0.472420
F159	F	0.374116	1.118475	0.041135
F160	F	0.332879	0.980156	-0.122937
F161	F	1.101793	0.283052	0.073626
H162	H	0.707081	0.291434	-0.085839
H163	H	0.858442	0.413017	0.346103
F164	F	0.569559	0.700763	-0.609590
H165	H	0.220804	0.849701	-0.107588
F166	F	0.200029	1.118481	-0.376542
F167	F	0.327434	0.980127	-0.232831
F168	F	0.527904	0.700772	-0.445034
H169	H	0.579300	1.110130	-0.527096
F170	F	0.733324	0.980132	-0.232847
H171	H	0.737987	0.700789	-0.315098
H172	H	0.664856	0.230649	0.461154
F173	F	0.571622	0.980167	-0.402335
H174	H	0.734352	0.110121	-0.117763
H175	H	0.603037	-0.011479	0.035924
H176	H	0.607102	0.110100	0.031193
F177	F	0.711736	0.220514	-0.091272
F178	F	0.479638	0.531319	0.063996
F179	F	0.575387	0.421409	0.068296
F180	F	0.344788	1.118537	-0.546057
H181	H	0.352986	0.551847	0.052932
H182	H	0.547516	0.700777	-0.315056
H183	H	0.731920	0.700776	-0.436682
H184	H	0.772732	0.700773	-0.618006
H185	H	0.588857	0.700757	-0.538678
F186	F	0.738872	0.700782	-0.507597
F187	F	0.779371	0.700770	-0.747985
H188	H	0.942554	0.291480	-0.085889
F189	F	0.819571	0.421432	-0.101189
H190	H	1.066581	0.230661	-0.009072
