data_functionalizedCrystal
_audit_creation_method	'MofGen! by Chris Wilmer'
_symmetry_space_group_name_H-M	'P1'
_symmetry_Int_Tables_number	1
_symmetry_cell_setting	triclinic
loop_
_symmetry_equiv_pos_as_xyz
  x,y,z
_cell_length_a	15.944545
_cell_length_b	15.944480
_cell_length_c	16.176319
_cell_angle_alpha	90.000701
_cell_angle_beta	89.995369
_cell_angle_gamma	96.516990
loop_
_atom_site_label
_atom_site_type_symbol
_atom_site_fract_x
_atom_site_fract_y
_atom_site_fract_z
O1	O	1.114503	-0.108313	-0.068682
O2	O	1.614503	0.391687	0.431318
O3	O	0.869950	-0.121675	-0.068694
O4	O	1.369950	0.378325	0.431306
O5	O	0.998936	0.007285	-0.068695
O6	O	1.498936	0.507285	0.431305
O7	O	0.985517	-0.237273	-0.068681
O8	O	1.485517	0.262727	0.431319
O9	O	0.998918	0.007294	0.068798
O10	O	1.498918	0.507294	0.568798
O11	O	0.869932	-0.121667	0.068799
O12	O	1.369932	0.378333	0.568799
O13	O	1.114486	-0.108304	0.068812
O14	O	1.614486	0.391696	0.568812
Cu15	Cu	0.992207	-0.114985	0.081360
Cu16	Cu	1.492207	0.385015	0.581360
Cu17	Cu	0.992228	-0.114994	-0.081242
Cu18	Cu	1.492228	0.385006	0.418758
O19	O	0.985499	-0.237265	0.068813
O20	O	1.485499	0.262735	0.568813
C21	C	0.838647	-0.121117	0.000051
C22	C	1.338647	0.378883	0.500051
C23	C	0.745401	-0.119457	0.000046
C24	C	1.245401	0.380543	0.500046
C25	C	0.474790	-0.034560	0.000050
C26	C	0.974790	0.465440	0.500050
C27	C	0.525352	-0.075486	0.067846
C28	C	1.025352	0.424514	0.567846
C29	C	0.409759	-0.113536	0.000060
C30	C	0.909759	0.386464	0.500060
C31	C	0.525350	-0.075516	-0.067712
C32	C	1.025350	0.424484	0.432288
C33	C	0.574671	-0.116441	0.000052
C34	C	1.074671	0.383559	0.500052
C35	C	0.459093	-0.154441	0.067912
C36	C	0.959093	0.345559	0.567912
C37	C	0.459087	-0.154459	-0.067707
C38	C	0.959087	0.345541	0.432293
C39	C	0.509617	-0.195443	0.000105
C40	C	1.009617	0.304557	0.500105
C41	C	0.314757	-0.111860	0.000065
C42	C	0.814757	0.388140	0.500065
C43	C	0.669670	-0.118122	0.000052
C44	C	1.169670	0.381878	0.500052
C45	C	0.998380	0.038584	0.000048
C46	C	1.498380	0.538584	0.500048
C47	C	0.996741	0.131833	0.000037
C48	C	1.496741	0.631833	0.500037
C49	C	1.072673	0.367597	0.000056
C50	C	1.572673	0.867597	0.500056
C51	C	1.031743	0.418160	-0.067737
C52	C	1.531743	0.918160	0.432263
C53	C	0.993705	0.302555	0.000047
C54	C	1.493705	0.802555	0.500047
C55	C	1.031707	0.418144	0.067820
C56	C	1.531707	0.918144	0.567820
C57	C	0.990778	0.467466	0.000059
C58	C	1.490778	0.967466	0.500059
C59	C	0.952796	0.351891	-0.067803
C60	C	1.452796	0.851891	0.432197
C61	C	0.952772	0.351871	0.067816
C62	C	1.452772	0.851871	0.567816
C63	C	0.911784	0.402402	0.000006
C64	C	1.411784	0.902402	0.500006
C65	C	0.995394	0.207555	0.000039
C66	C	1.495394	0.707555	0.500039
C67	C	0.989084	0.562464	0.000061
C68	C	1.489084	1.062464	0.500061
C69	C	1.145788	-0.108862	0.000065
C70	C	1.645788	0.391138	0.500065
C71	C	1.239034	-0.110523	0.000065
C72	C	1.739034	0.389477	0.500065
N73	N	0.992198	-0.114977	0.195725
N74	N	1.492198	0.385023	0.695725
C75	C	0.986066	0.731438	0.000067
C76	C	1.486066	1.231438	0.500067
C77	C	0.987739	0.638193	0.000069
C78	C	1.487739	1.138193	0.500069
N79	N	0.992243	-0.114995	-0.195607
N80	N	1.492243	0.385005	0.304393
C81	C	1.049331	-0.057897	0.238989
C82	C	1.549331	0.442103	0.738989
C83	C	1.049335	-0.057896	0.325536
C84	C	1.549335	0.442104	0.825536
C85	C	0.992210	-0.114980	0.368818
C86	C	1.492210	0.385020	0.868818
C87	C	0.935072	-0.172063	0.325548
C88	C	1.435072	0.327937	0.825548
C89	C	0.935064	-0.172059	0.239002
C90	C	1.435064	0.327941	0.739002
C91	C	0.935101	-0.172079	0.674576
C92	C	1.435101	0.327921	1.174576
C93	C	0.935114	-0.172080	0.761128
C94	C	1.435114	0.327920	1.261128
C95	C	1.049371	-0.057916	0.761110
C96	C	1.549371	0.442084	1.261110
C97	C	1.049364	-0.057912	0.674564
C98	C	1.549364	0.442088	1.174564
C99	C	0.992223	-0.114992	0.631302
C100	C	1.492223	0.385008	1.131302
C101	C	0.992218	-0.114991	0.537458
C102	C	1.492218	0.385009	1.037458
C103	C	0.992219	-0.114986	0.462660
C104	C	1.492219	0.385014	0.962660
H105	H	0.525092	-0.263510	0.000149
H106	H	1.025092	0.236490	0.500149
C107	C	0.407255	0.071756	-0.070908
C108	C	0.907255	0.571756	0.429092
C109	C	0.453682	0.057256	0.000123
C110	C	0.953682	0.557256	0.500123
H111	H	0.394231	0.128440	-0.070863
H112	H	0.894231	0.628440	0.429137
H113	H	0.356423	0.034400	-0.071427
H114	H	0.856423	0.534400	0.428573
H115	H	0.439633	0.062274	-0.118608
H116	H	0.939633	0.562274	0.381392
H117	H	0.421301	0.066732	0.047823
H118	H	0.921301	0.566732	0.547823
H119	H	0.504522	0.094624	0.000649
H120	H	1.004522	0.594624	0.500649
C121	C	0.332355	-0.198082	-0.143832
C122	C	0.832355	0.301918	0.356168
C123	C	0.419999	-0.199454	-0.145074
C124	C	0.919999	0.300546	0.354926
H125	H	0.308225	-0.225861	-0.191598
H126	H	0.808225	0.274139	0.308402
H127	H	0.319833	-0.141249	-0.143357
H128	H	0.819833	0.358751	0.356643
H129	H	0.309568	-0.226221	-0.095703
H130	H	0.809568	0.273779	0.404297
H131	H	0.442788	-0.171310	-0.193200
H132	H	0.942788	0.328690	0.306800
H133	H	0.432528	-0.256298	-0.145557
H134	H	0.932528	0.243702	0.354443
C135	C	0.884355	-0.222769	0.458222
C136	C	1.384355	0.277231	0.958222
C137	C	0.872281	-0.234814	0.373121
C138	C	1.372281	0.265186	0.873121
H139	H	0.845593	-0.261515	0.487589
H140	H	1.345593	0.238485	0.987589
H141	H	0.875245	-0.166710	0.472408
H142	H	1.375245	0.333290	0.972408
H143	H	0.940413	-0.231928	0.472384
H144	H	1.440413	0.268072	0.972384
H145	H	0.816224	-0.225649	0.358958
H146	H	1.316224	0.274351	0.858958
H147	H	0.881383	-0.290886	0.358929
H148	H	1.381383	0.209114	0.858929
H149	H	0.888540	-0.218539	0.203778
H150	H	1.388540	0.281461	0.703778
H151	H	1.140690	0.351970	-0.000009
H152	H	1.640690	0.851970	0.499991
C153	C	0.916842	-0.286390	0.577262
C154	C	1.416842	0.213610	1.077262
C155	C	0.872303	-0.234834	0.627033
C156	C	1.372303	0.265166	1.127033
H157	H	0.878071	-0.325134	0.547907
H158	H	1.378071	0.174866	1.047907
H159	H	0.951799	-0.316617	0.611019
H160	H	1.451799	0.183383	1.111019
H161	H	0.950850	-0.252384	0.539096
H162	H	1.450850	0.247616	1.039096
H163	H	0.838300	-0.268840	0.665202
H164	H	1.338300	0.231160	1.165202
H165	H	0.837331	-0.204605	0.593273
H166	H	1.337331	0.295395	1.093273
H167	H	0.554284	-0.042129	0.125157
H168	H	1.054284	0.457871	0.625157
C169	C	0.605289	-0.087362	-0.192135
C170	C	1.105289	0.412638	0.307865
C171	C	0.564409	-0.030484	-0.145084
C172	C	1.064409	0.469516	0.354916
H173	H	0.629404	-0.059554	-0.239895
H174	H	1.129404	0.440446	0.260105
H175	H	0.565643	-0.133380	-0.208427
H176	H	1.065643	0.366620	0.291573
H177	H	0.648554	-0.107715	-0.159993
H178	H	1.148554	0.392285	0.340007
H179	H	0.521140	-0.010135	-0.177224
H180	H	1.021140	0.489865	0.322776
H181	H	0.604059	0.015550	-0.128794
H182	H	1.104059	0.515550	0.371206
C183	C	1.160967	0.440071	-0.144978
C184	C	1.660967	0.940071	0.355022
C185	C	1.076770	0.457242	-0.145103
C186	C	1.576770	0.957242	0.354897
H187	H	1.188768	0.464202	-0.192736
H188	H	1.688768	0.964202	0.307264
H189	H	1.162796	0.380736	-0.145285
H190	H	1.662796	0.880736	0.354715
H191	H	1.188442	0.463642	-0.096832
H192	H	1.688442	0.963642	0.403168
H193	H	1.049293	0.433665	-0.193245
H194	H	1.549293	0.933665	0.306755
H195	H	1.074936	0.516588	-0.144803
H196	H	1.574936	1.016588	0.355197
H197	H	0.430267	-0.187766	0.125289
H198	H	0.930267	0.312234	0.625289
H199	H	0.919474	0.323066	-0.125177
H200	H	1.419474	0.823066	0.374823
C201	C	0.778271	0.388338	0.070270
C202	C	1.278271	0.888338	0.570270
C203	C	0.819895	0.423287	-0.000044
C204	C	1.319895	0.923287	0.499956
H205	H	0.721543	0.401230	0.070232
H206	H	1.221543	0.901230	0.570232
H207	H	0.806186	0.411249	0.118451
H208	H	1.306186	0.911249	0.618451
H209	H	0.778843	0.328829	0.069804
H210	H	1.278843	0.828829	0.569804
H211	H	0.819328	0.482797	0.000425
H212	H	1.319328	0.982797	0.500425
H213	H	0.791972	0.400380	-0.048238
H214	H	1.291972	0.900380	0.451762
H215	H	0.919444	0.322913	0.125129
H216	H	1.419444	0.822913	0.625129
H217	H	1.065065	0.447079	0.125130
H218	H	1.565065	0.947079	0.625130
H219	H	1.095851	-0.011416	0.203754
H220	H	1.595851	0.488584	0.703754
H221	H	1.095856	-0.011417	0.360761
H222	H	1.595856	0.488583	0.860761
C223	C	1.162300	0.054945	0.683241
C224	C	1.662300	0.554945	1.183241
C225	C	1.112154	0.004839	0.626990
C226	C	1.612154	0.504839	1.126990
H227	H	1.201058	0.093691	0.653870
H228	H	1.701058	0.593691	1.153870
H229	H	1.192509	0.019961	0.716986
H230	H	1.692509	0.519961	1.216986
H231	H	1.127338	0.085177	0.717009
H232	H	1.627338	0.585177	1.217009
H233	H	1.147115	-0.025398	0.593226
H234	H	1.647115	0.474602	1.093226
H235	H	1.081943	0.039828	0.593231
H236	H	1.581943	0.539828	1.093231
C237	C	0.822149	-0.284920	0.752457
C238	C	1.322149	0.215080	1.252457
C239	C	0.872310	-0.234824	0.808705
C240	C	1.372310	0.265176	1.308705
H241	H	0.783376	-0.323648	0.781831
H242	H	1.283376	0.176352	1.281831
H243	H	0.857092	-0.315163	0.718695
H244	H	1.357092	0.184837	1.218695
H245	H	0.791948	-0.249921	0.718707
H246	H	1.291948	0.250079	1.218707
H247	H	0.902516	-0.269822	0.842451
H248	H	1.402516	0.230178	1.342451
H249	H	0.837362	-0.204579	0.842481
H250	H	1.337362	0.295421	1.342481
H251	H	1.095896	-0.011436	0.796343
H252	H	1.595896	0.488564	1.296343
