data_functionalizedCrystal
_audit_creation_method	'MofGen! by Chris Wilmer'
_symmetry_space_group_name_H-M	'P1'
_symmetry_Int_Tables_number	1
_symmetry_cell_setting	triclinic
loop_
_symmetry_equiv_pos_as_xyz
  x,y,z
_cell_length_a	13.897449
_cell_length_b	13.897448
_cell_length_c	11.169409
_cell_angle_alpha	89.964424
_cell_angle_beta	89.977985
_cell_angle_gamma	90.018972
loop_
_atom_site_label
_atom_site_type_symbol
_atom_site_fract_x
_atom_site_fract_y
_atom_site_fract_z
Zn1	Zn	1.474715	-0.383904	-0.678586
Zn2	Zn	1.974715	0.116096	-0.178586
Zn3	Zn	1.474605	-0.545240	-0.477891
Zn4	Zn	1.974605	-0.045240	0.022109
Zn5	Zn	1.313400	-0.383964	-0.477913
Zn6	Zn	1.813400	0.116036	0.022087
Zn7	Zn	1.313386	-0.545162	-0.678529
Zn8	Zn	1.813386	-0.045162	-0.178529
O9	O	1.394027	-0.464567	-0.578230
O10	O	1.894027	0.035433	-0.078230
O11	O	1.609682	-0.405313	-0.651978
O12	O	2.109682	0.094687	-0.151978
O13	O	1.453181	-0.523903	-0.309944
O14	O	1.953181	-0.023903	0.190056
O15	O	1.334851	-0.248974	-0.504565
O16	O	1.834851	0.251026	-0.004565
O17	O	1.609601	-0.523845	-0.504529
O18	O	2.109601	-0.023845	-0.004529
O19	O	1.453368	-0.248930	-0.651999
O20	O	1.953368	0.251070	-0.151999
O21	O	1.334745	-0.405415	-0.309960
O22	O	1.834745	0.094585	0.190040
O23	O	1.178417	-0.405340	-0.504510
O24	O	1.678417	0.094660	-0.004510
O25	O	1.334826	-0.523713	-0.846486
O26	O	1.834826	-0.023713	-0.346486
O27	O	1.178406	-0.523772	-0.651901
O28	O	1.678406	-0.023772	-0.151901
O29	O	1.453354	-0.405238	-0.846528
O30	O	1.953354	0.094762	-0.346528
O31	O	1.453167	-0.680211	-0.504474
O32	O	1.953167	-0.180211	-0.004474
O33	O	1.334720	-0.680154	-0.651881
O34	O	1.834720	-0.180154	-0.151881
C35	C	1.143412	-0.464554	-0.578202
C36	C	1.643412	0.035446	-0.078202
C37	C	1.036198	-0.464572	-0.578219
C38	C	1.536198	0.035428	-0.078219
C39	C	0.839903	-0.464576	-0.578251
C40	C	1.339903	0.035424	-0.078251
C41	C	0.949136	-0.464571	-0.578230
C42	C	1.449136	0.035429	-0.078230
C43	C	1.393956	-0.715182	-0.578195
C44	C	1.893956	-0.215182	-0.078195
C45	C	1.394014	-0.822396	-0.578220
C46	C	1.894014	-0.322396	-0.078220
C47	C	1.394116	-1.018691	-0.578295
C48	C	1.894116	-0.518691	-0.078295
C49	C	1.394057	-0.909458	-0.578257
C50	C	1.894057	-0.409458	-0.078257
C51	C	1.645619	-0.464581	-0.578258
C52	C	2.145619	0.035419	-0.078258
C53	C	1.752833	-0.464587	-0.578270
C54	C	2.252833	0.035413	-0.078270
C55	C	1.394101	-0.464460	-0.891272
C56	C	1.894101	0.035540	-0.391272
C57	C	1.394132	-0.464415	-1.024672
C58	C	1.894132	0.035585	-0.524672
C59	C	1.394123	-0.212974	-0.578291
C60	C	1.894123	0.287026	-0.078291
C61	C	1.394165	-0.105760	-0.578317
C62	C	1.894165	0.394240	-0.078317
C63	C	1.394008	-0.464604	-0.266405
C64	C	1.894008	0.035396	0.233595
C65	C	1.394164	-0.464378	-0.133006
C66	C	1.894164	0.035622	0.366994
