data_functionalizedCrystal
_audit_creation_method	'MofGen! by Chris Wilmer'
_symmetry_space_group_name_H-M	'P1'
_symmetry_Int_Tables_number	1
_symmetry_cell_setting	triclinic
loop_
_symmetry_equiv_pos_as_xyz
  x,y,z
_cell_length_a	6.817900
_cell_length_b	7.190339
_cell_length_c	7.076105
_cell_angle_alpha	96.843180
_cell_angle_beta	62.298168
_cell_angle_gamma	119.388276
loop_
_atom_site_label
_atom_site_type_symbol
_atom_site_fract_x
_atom_site_fract_y
_atom_site_fract_z
V1	V	4.285430	0.291769	-0.663521
V2	V	4.785430	0.791769	-0.163521
O3	O	4.178752	-0.017451	-0.652442
O4	O	4.678752	0.482549	-0.152442
O5	O	4.321032	0.581828	-0.657491
O6	O	4.821032	1.081828	-0.157491
O7	O	4.310675	0.285776	-0.953586
O8	O	4.810675	0.785776	-0.453586
O9	O	4.189181	0.280650	-0.354297
O10	O	4.689181	0.780650	0.145703
V11	V	4.748631	0.254960	-0.626717
V12	V	5.248631	0.754960	-0.126717
O13	O	4.591268	0.372511	-0.744255
O14	O	5.091268	0.872511	-0.244255
O15	O	4.892991	0.174218	-0.545983
O16	O	5.392991	0.674218	-0.045983
O17	O	4.489822	-0.035098	-0.632747
O18	O	4.989822	0.464902	-0.132747
O19	O	4.972706	0.564180	-0.637796
O20	O	5.472706	1.064180	-0.137796
O21	O	4.962277	0.266079	-0.935941
O22	O	5.462277	0.766079	-0.435941
O23	O	4.500180	0.260954	-0.336651
O24	O	5.000180	0.760954	0.163349
C25	C	4.184105	0.652587	-0.646649
C26	C	4.684105	1.152587	-0.146649
C27	C	4.297078	0.894162	-0.643600
C28	C	4.797078	1.394162	-0.143600
C29	C	4.177822	0.274928	-0.024334
C30	C	4.677822	0.774928	0.475666
C31	C	4.303354	0.271834	-0.265902
C32	C	4.803354	0.771834	0.234098
