data_functionalizedCrystal
_audit_creation_method	'MofGen! by Chris Wilmer'
_symmetry_space_group_name_H-M	'P1'
_symmetry_Int_Tables_number	1
_symmetry_cell_setting	triclinic
loop_
_symmetry_equiv_pos_as_xyz
  x,y,z
_cell_length_a	19.077115
_cell_length_b	16.120484
_cell_length_c	19.077174
_cell_angle_alpha	95.281307
_cell_angle_beta	85.484425
_cell_angle_gamma	90.738480
loop_
_atom_site_label
_atom_site_type_symbol
_atom_site_fract_x
_atom_site_fract_y
_atom_site_fract_z
Zn1	Zn	1.077026	-0.405078	-0.458484
Zn2	Zn	1.410360	-0.071744	-0.125151
Zn3	Zn	1.743693	0.261589	0.208183
Zn4	Zn	1.066712	-0.538657	-0.346088
Zn5	Zn	1.400045	-0.205324	-0.012755
Zn6	Zn	1.733378	0.128009	0.320579
Zn7	Zn	0.954891	-0.393424	-0.335404
Zn8	Zn	1.288225	-0.060090	-0.002071
Zn9	Zn	1.621558	0.273243	0.331263
Zn10	Zn	0.953608	-0.538603	-0.459205
Zn11	Zn	1.286941	-0.205270	-0.125872
Zn12	Zn	1.620275	0.128064	0.207462
O13	O	1.013059	-0.468940	-0.399795
O14	O	1.346393	-0.135607	-0.066462
O15	O	1.679726	0.197726	0.266871
O16	O	1.174106	-0.427697	-0.447744
O17	O	1.507440	-0.094364	-0.114411
O18	O	1.840773	0.238969	0.218923
O19	O	1.048099	-0.514537	-0.245821
O20	O	1.381432	-0.181204	0.087512
O21	O	1.714765	0.152129	0.420845
O22	O	0.975947	-0.278308	-0.346958
O23	O	1.309280	0.055026	-0.013624
O24	O	1.642613	0.388359	0.319709
O25	O	1.166528	-0.525838	-0.365167
O26	O	1.499861	-0.192505	-0.031834
O27	O	1.833195	0.140829	0.301499
O28	O	1.065679	-0.286870	-0.437384
O29	O	1.399012	0.046463	-0.104051
O30	O	1.732346	0.379797	0.229283
O31	O	0.965945	-0.407835	-0.237972
O32	O	1.299278	-0.074501	0.095361
O33	O	1.632612	0.258832	0.428695
O34	O	0.856273	-0.407782	-0.347657
O35	O	1.189606	-0.074449	-0.014323
O36	O	1.522940	0.258885	0.319010
O37	O	0.973759	-0.525745	-0.557959
O38	O	1.307093	-0.192412	-0.224625
O39	O	1.640426	0.140922	0.108708
O40	O	0.855330	-0.514445	-0.438613
O41	O	1.188663	-0.181111	-0.105279
O42	O	1.521997	0.152222	0.228054
O43	O	1.064434	-0.427644	-0.557429
O44	O	1.397768	-0.094311	-0.224096
O45	O	1.731101	0.239022	0.109238
O46	O	1.046854	-0.655312	-0.365866
O47	O	1.380188	-0.321979	-0.032533
O48	O	1.713521	0.011355	0.300800
O49	O	0.963757	-0.655272	-0.448973
O50	O	1.297091	-0.321939	-0.115639
O51	O	1.630424	0.011395	0.217694
C52	C	0.830275	-0.459843	-0.392054
C53	C	1.163608	-0.126510	-0.058721
C54	C	1.496942	0.206823	0.274613
C55	C	0.752079	-0.455972	-0.388760
C56	C	1.085412	-0.122639	-0.055427
C57	C	1.418745	0.210694	0.277907
C58	C	0.311970	-0.428174	-0.365139
C59	C	0.645303	-0.094840	-0.031806
C60	C	0.978637	0.238493	0.301527
C61	C	0.385443	-0.431816	-0.368238
C62	C	0.718777	-0.098482	-0.034905
C63	C	1.052110	0.234851	0.298428
C64	C	0.421699	-0.489254	-0.417074
C65	C	0.755032	-0.155921	-0.083741
C66	C	1.088366	0.177412	0.249592
C67	C	0.384477	-0.543049	-0.462819
C68	C	0.717811	-0.209715	-0.129485
C69	C	1.051144	0.123618	0.203848
C70	C	0.311006	-0.539402	-0.459722
C71	C	0.644339	-0.206069	-0.126389
C72	C	0.977672	0.127265	0.206944
C73	C	0.641385	-0.506120	-0.431408
C74	C	0.974719	-0.172787	-0.098075
C75	C	1.308052	0.160546	0.235259
C76	C	0.714862	-0.509764	-0.434500
C77	C	1.048196	-0.176431	-0.101166
C78	C	1.381529	0.156902	0.232167
C79	C	0.715823	-0.398530	-0.339920
C80	C	1.049157	-0.065197	-0.006586
C81	C	1.382490	0.268137	0.326747
C82	C	0.642350	-0.394892	-0.336825
C83	C	0.975683	-0.061559	-0.003492
C84	C	1.309016	0.271775	0.329842
C85	C	0.605135	-0.448683	-0.382572
C86	C	0.938468	-0.115350	-0.049239
C87	C	1.271801	0.217983	0.284095
N88	N	0.496801	-0.492980	-0.420242
N89	N	0.830134	-0.159647	-0.086908
N90	N	1.163467	0.173687	0.246425
N91	N	0.530035	-0.444953	-0.379407
N92	N	0.863368	-0.111619	-0.046074
N93	N	1.196701	0.221714	0.287259
C94	C	1.004067	-0.685543	-0.408673
C95	C	1.337400	-0.352209	-0.075340
C96	C	1.670734	-0.018876	0.257993
C97	C	1.000285	-0.778211	-0.412498
C98	C	1.333619	-0.444877	-0.079165
C99	C	1.666952	-0.111544	0.254169
C100	C	0.993385	-0.947876	-0.419495
C101	C	1.326719	-0.614543	-0.086162
C102	C	1.660052	-0.281210	0.247172
C103	C	1.032860	-0.989171	-0.380112
C104	C	1.366193	-0.655837	-0.046779
C105	C	1.699526	-0.322504	0.286554
C106	C	1.029021	-1.083579	-0.384006
C107	C	1.362354	-0.750245	-0.050672
C108	C	1.695687	-0.416912	0.282661
C109	C	0.997224	-0.853460	-0.415603
C110	C	1.330557	-0.520127	-0.082269
C111	C	1.663890	-0.186793	0.251064
C112	C	1.196557	-0.478074	-0.407567
C113	C	1.529891	-0.144740	-0.074234
C114	C	1.863224	0.188593	0.259100
C115	C	1.274753	-0.481966	-0.410879
C116	C	1.608087	-0.148632	-0.077546
C117	C	1.941420	0.184701	0.255788
C118	C	1.020104	-0.477989	-0.584041
C119	C	1.353438	-0.144655	-0.250708
C120	C	1.686771	0.188678	0.082626
C121	C	1.023106	-0.481844	-0.662555
C122	C	1.356440	-0.148511	-0.329222
C123	C	1.689773	0.184822	0.004111
C124	C	1.022107	-0.251494	-0.390899
C125	C	1.355440	0.081839	-0.057565
C126	C	1.688773	0.415173	0.275768
C127	C	1.025962	-0.158831	-0.387107
C128	C	1.359295	0.174502	-0.053774
C129	C	1.692629	0.507835	0.279559
C130	C	0.981745	-0.428103	-0.695354
C131	C	1.315079	-0.094769	-0.362021
C132	C	1.648412	0.238564	-0.028688
C133	C	0.984563	-0.431732	-0.769127
C134	C	1.317897	-0.098399	-0.435794
C135	C	1.651230	0.234934	-0.102461
C136	C	1.028746	-0.489100	-0.810100
C137	C	1.362079	-0.155767	-0.476767
C138	C	1.695413	0.177566	-0.143433
C139	C	1.070108	-0.542848	-0.777296
C140	C	1.403442	-0.209515	-0.443963
C141	C	1.736775	0.123819	-0.110629
C142	C	1.067286	-0.539222	-0.703524
C143	C	1.400620	-0.205888	-0.370191
C144	C	1.733953	0.127445	-0.036858
C145	C	1.041769	-0.505907	-1.031172
C146	C	1.375102	-0.172573	-0.697839
C147	C	1.708436	0.160760	-0.364505
C148	C	1.044590	-0.509527	-1.104948
C149	C	1.377923	-0.176194	-0.771615
C150	C	1.711256	0.157139	-0.438282
C151	C	0.959043	-0.398412	-1.096775
C152	C	1.292376	-0.065079	-0.763441
C153	C	1.625710	0.268255	-0.430108
C154	C	0.956228	-0.394788	-1.023002
C155	C	1.289561	-0.061454	-0.689669
C156	C	1.622895	0.271879	-0.356335
C157	C	0.997588	-0.448538	-0.990205
C158	C	1.330921	-0.115205	-0.656871
C159	C	1.664254	0.218129	-0.323538
N160	N	1.031629	-0.492810	-0.885508
N161	N	1.364962	-0.159477	-0.552174
N162	N	1.698296	0.173857	-0.218841
N163	N	0.994701	-0.444832	-0.914798
N164	N	1.328034	-0.111498	-0.581465
N165	N	1.661367	0.221835	-0.248131
C166	C	1.006085	-0.459869	-0.216266
C167	C	1.339418	-0.126536	0.117068
C168	C	1.672752	0.206797	0.450401
C169	C	1.003229	-0.455785	-0.137747
C170	C	1.336562	-0.122452	0.195586
C171	C	1.669895	0.210881	0.528919
H172	H	0.282456	-0.381402	-0.325371
H173	H	0.615789	-0.048068	0.007962
H174	H	0.949123	0.285265	0.341296
H175	H	1.106079	-0.589562	-0.810662
H176	H	1.439413	-0.256229	-0.477329
H177	H	1.772746	0.077104	-0.143995
H178	H	0.956710	-0.983424	-0.456132
H179	H	1.290043	-0.650091	-0.122799
H180	H	1.623376	-0.316757	0.210535
H181	H	0.611094	-0.549924	-0.468656
H182	H	0.944427	-0.216591	-0.135323
H183	H	1.277760	0.116743	0.198011
H184	H	1.069537	-0.953621	-0.343471
H185	H	1.402871	-0.620287	-0.010138
H186	H	1.736204	-0.286954	0.323195
H187	H	0.945771	-0.381383	-0.661999
H188	H	1.279105	-0.048049	-0.328666
H189	H	1.612438	0.285284	0.004667
H190	H	1.075439	-0.549683	-1.004478
H191	H	1.408772	-0.216349	-0.671144
H192	H	1.742106	0.116984	-0.337811
H193	H	0.950880	-0.387973	-0.795829
H194	H	1.284214	-0.054640	-0.462495
H195	H	1.617547	0.278694	-0.129162
H196	H	0.920248	-0.348075	-0.989647
H197	H	1.253581	-0.014741	-0.656313
H198	H	1.586914	0.318592	-0.322980
H199	H	0.925370	-0.354652	-1.123486
H200	H	1.258703	-0.021319	-0.790153
H201	H	1.592036	0.312014	-0.456820
H202	H	1.080571	-0.556244	-1.138307
H203	H	1.413905	-0.222911	-0.804974
H204	H	1.747238	0.110422	-0.471640
H205	H	1.100972	-0.582978	-0.676821
H206	H	1.434306	-0.249645	-0.343488
H207	H	1.767639	0.083689	-0.010154
H208	H	0.414003	-0.589813	-0.502585
H209	H	0.747336	-0.256480	-0.169251
H210	H	1.080669	0.076854	0.164082
H211	H	0.415742	-0.388016	-0.330989
H212	H	0.749075	-0.054683	0.002344
H213	H	1.082408	0.278651	0.335677
H214	H	0.746132	-0.354735	-0.302676
H215	H	1.079465	-0.021402	0.030657
H216	H	1.412798	0.311931	0.363991
H217	H	0.612835	-0.348125	-0.297053
H218	H	0.946168	-0.014792	0.036280
H219	H	1.279502	0.318542	0.369614
H220	H	0.744380	-0.556538	-0.474271
H221	H	1.077713	-0.223205	-0.140938
H222	H	1.411046	0.110128	0.192396
H223	H	0.280705	-0.583203	-0.496970
H224	H	0.614038	-0.249870	-0.163637
H225	H	0.947372	0.083463	0.169696
