data_functionalizedCrystal
_audit_creation_method	'MofGen! by Chris Wilmer'
_symmetry_space_group_name_H-M	'P1'
_symmetry_Int_Tables_number	1
_symmetry_cell_setting	triclinic
loop_
_symmetry_equiv_pos_as_xyz
  x,y,z
_cell_length_a	27.732048
_cell_length_b	15.944551
_cell_length_c	15.021413
_cell_angle_alpha	90.009504
_cell_angle_beta	89.999540
_cell_angle_gamma	83.070697
loop_
_atom_site_label
_atom_site_type_symbol
_atom_site_fract_x
_atom_site_fract_y
_atom_site_fract_z
O1	O	-0.641360	-0.099949	-0.073919
O2	O	-0.141360	0.400051	0.426081
O3	O	-0.500632	-0.115146	-0.073947
O4	O	-0.000632	0.384854	0.426053
O5	O	-0.574839	0.014778	-0.073924
O6	O	-0.074839	0.514778	0.426076
O7	O	-0.567153	-0.229873	-0.073942
O8	O	-0.067153	0.270127	0.426058
O9	O	-0.574833	0.014791	0.074140
O10	O	-0.074833	0.514791	0.574140
O11	O	-0.500626	-0.115133	0.074118
O12	O	-0.000626	0.384867	0.574118
O13	O	-0.641354	-0.099936	0.074145
O14	O	-0.141354	0.400064	0.574145
Zn15	Zn	-0.570989	-0.107532	0.097640
Zn16	Zn	-0.070989	0.392468	0.597640
Zn17	Zn	-0.570997	-0.107550	-0.097441
Zn18	Zn	-0.070997	0.392450	0.402559
O19	O	-0.567147	-0.229859	0.074122
O20	O	-0.067147	0.270141	0.574122
C21	C	-0.574517	0.046074	0.000108
C22	C	-0.074517	0.546074	0.500108
C23	C	-0.573560	0.139308	0.000108
C24	C	-0.073560	0.639308	0.500108
C25	C	-0.482621	-0.114820	0.000082
C26	C	0.017379	0.385180	0.500082
C27	C	-0.428962	-0.113860	0.000072
C28	C	0.071038	0.386140	0.500072
C29	C	-0.659365	-0.100262	0.000114
C30	C	-0.159365	0.399738	0.500114
C31	C	-0.713024	-0.101222	0.000118
C32	C	-0.213024	0.398778	0.500118
C33	C	-0.090453	-0.184589	0.000106
C34	C	0.409547	0.315411	0.500106
C35	C	0.111222	-0.181025	0.000114
C36	C	0.611222	0.318975	0.500114
O37	O	0.142198	-0.245701	0.000148
O38	O	0.642198	0.254299	0.500148
N39	N	0.130679	-0.103986	0.000118
N40	N	0.630679	0.396014	0.500118
C41	C	0.099715	-0.027832	0.000125
C42	C	0.599715	0.472168	0.500125
O43	O	0.120892	0.037776	0.000138
O44	O	0.620892	0.537776	0.500138
C45	C	-0.101960	-0.031397	0.000124
C46	C	0.398040	0.468603	0.500124
C47	C	-0.121414	-0.108441	0.000111
C48	C	0.378586	0.391559	0.500111
C49	C	-0.109908	-0.261627	0.000094
C50	C	0.390092	0.238373	0.500094
C51	C	-0.160324	-0.262517	0.000087
C52	C	0.339676	0.237483	0.500087
C53	C	-0.191285	-0.186369	0.000092
C54	C	0.308715	0.313631	0.500092
C55	C	-0.171830	-0.109331	0.000104
C56	C	0.328170	0.390669	0.500104
C57	C	-0.132923	0.044756	0.000138
C58	C	0.367077	0.544756	0.500138
C59	C	-0.183345	0.043858	0.000139
C60	C	0.316655	0.543858	0.500139
C61	C	-0.202799	-0.033186	0.000126
C62	C	0.297201	0.466814	0.500126
C63	C	-0.253206	-0.034073	0.000102
C64	C	0.246794	0.465927	0.500102
N65	N	-0.272664	-0.111113	0.000098
N66	N	0.227336	0.388887	0.500098
C67	C	-0.241703	-0.187260	0.000093
C68	C	0.258297	0.312740	0.500093
C69	C	0.205597	-0.025966	0.000125
C70	C	0.705597	0.474034	0.500125
C71	C	0.256015	-0.025074	0.000123
C72	C	0.756015	0.474926	0.500123
C73	C	0.267519	-0.178268	0.000113
C74	C	0.767519	0.321732	0.500113
C75	C	0.217100	-0.179158	0.000108
C76	C	0.717100	0.320842	0.500108
C77	C	0.186139	-0.103005	0.000121
C78	C	0.686139	0.396995	0.500121
C79	C	-0.347580	-0.189124	0.000078
C80	C	0.152420	0.310876	0.500078
C81	C	-0.398001	-0.190007	0.000067
C82	C	0.101999	0.309993	0.500067
C83	C	-0.409500	-0.036815	0.000082
C84	C	0.090500	0.463185	0.500082
C85	C	-0.359084	-0.035931	0.000088
C86	C	0.140916	0.464069	0.500088
C87	C	-0.328125	-0.112092	0.000089
C88	C	0.171875	0.387908	0.500089
O89	O	-0.284210	0.030569	0.000078
O90	O	0.215790	0.530569	0.500078
O91	O	-0.262890	-0.252859	0.000100
O92	O	0.237110	0.247141	0.500100
C93	C	-0.040037	-0.183699	0.000112
C94	C	0.459963	0.316301	0.500112
C95	C	-0.020582	-0.106661	0.000124
C96	C	0.479418	0.393339	0.500124
C97	C	-0.051543	-0.030513	0.000129
C98	C	0.448457	0.469487	0.500129
C99	C	0.029836	-0.105769	0.000123
C100	C	0.529836	0.394231	0.500123
C101	C	0.060797	-0.181917	0.000118
C102	C	0.560797	0.318083	0.500118
C103	C	0.041339	-0.258956	0.000114
C104	C	0.541339	0.241044	0.500114
C105	C	-0.009076	-0.259846	0.000107
C106	C	0.490924	0.240154	0.500107
C107	C	-0.032086	0.046526	0.000133
C108	C	0.467914	0.546526	0.500133
C109	C	0.018331	0.047410	0.000139
C110	C	0.518331	0.547410	0.500139
C111	C	0.049291	-0.028737	0.000134
C112	C	0.549291	0.471263	0.500134
C113	C	-0.567469	-0.261156	0.000088
C114	C	-0.067469	0.238844	0.500088
C115	C	-0.568426	-0.354389	0.000082
C116	C	-0.068426	0.145611	0.500082
N117	N	-0.570986	-0.107520	0.230777
N118	N	-0.070986	0.392480	0.730777
C119	C	-0.525277	0.353533	0.000087
C120	C	-0.025277	0.853533	0.500087
C121	C	-0.547695	0.414850	0.073096
C122	C	-0.047695	0.914850	0.573096
C123	C	-0.571830	0.310011	0.000101
C124	C	-0.071830	0.810011	0.500101
C125	C	-0.547712	0.414820	-0.072884
C126	C	-0.047712	0.914820	0.427116
C127	C	-0.570155	0.474902	0.000090
C128	C	-0.070155	0.974902	0.500090
C129	C	-0.594260	0.370100	0.073170
C130	C	-0.094260	0.870100	0.573170
C131	C	-0.594271	0.370064	-0.072875
C132	C	-0.094271	0.870064	0.427125
C133	C	-0.616723	0.431364	0.000152
C134	C	-0.116723	0.931364	0.500152
C135	C	-0.572793	0.215021	0.000108
C136	C	-0.072793	0.715021	0.500108
C137	C	-0.569195	0.569890	0.000090
C138	C	-0.069195	1.069890	0.500090
N139	N	-0.571003	-0.107555	-0.230579
N140	N	-0.071003	0.392445	0.269421
C141	C	-0.605043	-0.046973	0.529779
C142	C	-0.105043	0.453027	1.029779
C143	C	-0.614818	-0.122516	0.470409
C144	C	-0.114818	0.377484	0.970409
C145	C	-0.570998	-0.107545	0.587814
C146	C	-0.070998	0.392455	1.087814
C147	C	-0.561240	-0.031992	0.470442
C148	C	-0.061240	0.468008	0.970442
C149	C	-0.570993	-0.107528	0.412390
C150	C	-0.070993	0.392472	0.912390
C151	C	-0.580795	-0.183125	0.529751
C152	C	-0.080795	0.316875	1.029751
C153	C	-0.527197	-0.092552	0.529789
C154	C	-0.027197	0.407448	1.029789
C155	C	-0.536954	-0.168150	0.470446
C156	C	-0.036954	0.331850	0.970446
C157	C	-0.571002	-0.107553	0.688871
C158	C	-0.071002	0.392447	1.188871
C159	C	-0.570989	-0.107529	0.311335
C160	C	-0.070989	0.392471	0.811335
H161	H	-0.413838	-0.252749	0.000056
H162	H	0.086162	0.247251	0.500056
H163	H	-0.613947	0.350185	-0.134594
H164	H	-0.113947	0.850185	0.365406
H165	H	-0.552988	0.031895	0.444389
H166	H	-0.052988	0.531895	0.944389
H167	H	0.180392	0.036051	0.000135
H168	H	0.680392	0.536051	0.500135
H169	H	-0.528002	0.434706	0.134811
H170	H	-0.028002	0.934706	0.634811
H171	H	-0.176158	-0.325254	0.000076
H172	H	0.323842	0.174746	0.500076
F173	F	-0.521969	0.440737	-0.153555
F174	F	-0.021969	0.940737	0.346445
F175	F	-0.619973	0.344318	0.153935
F176	F	-0.119973	0.844318	0.653935
H177	H	-0.490170	-0.079848	0.555892
H178	H	0.009830	0.420152	1.055892
F179	F	-0.065031	0.127578	0.000140
F180	F	0.434969	0.627578	0.500140
H181	H	-0.633854	0.004187	0.555829
H182	H	-0.133854	0.504187	1.055829
F183	F	-0.667273	0.475368	0.000213
F184	F	-0.167273	0.975368	0.500213
F185	F	-0.663228	-0.139080	0.436297
F186	F	-0.163228	0.360920	0.936297
H187	H	-0.589087	-0.247028	0.555694
H188	H	-0.089087	0.252972	1.055694
H189	H	-0.434718	0.025183	0.000082
H190	H	0.065282	0.525183	0.500082
F191	F	-0.474771	0.309338	0.000168
F192	F	0.025229	0.809338	0.500168
H193	H	-0.508161	-0.219422	0.444559
H194	H	-0.008161	0.280578	0.944559
H195	H	-0.322378	-0.251142	0.000081
H196	H	0.177622	0.248858	0.500081
H197	H	-0.024911	-0.322584	0.000098
H198	H	0.475089	0.177416	0.500098
F199	F	-0.076964	-0.342681	0.000088
F200	F	0.423036	0.157319	0.500088
F201	F	0.196400	-0.261158	0.000096
F202	F	0.696400	0.238842	0.500096
H203	H	0.292736	-0.240270	0.000110
H204	H	0.792736	0.259730	0.500110
H205	H	-0.117093	0.107494	0.000149
H206	H	0.382907	0.607494	0.500149
F207	F	0.276714	0.056926	0.000117
F208	F	0.776714	0.556926	0.500117
H209	H	-0.208551	0.105873	0.000150
H210	H	0.291449	0.605873	0.500150
F211	F	-0.338379	0.046068	0.000102
F212	F	0.161621	0.546068	0.500102
H213	H	0.034165	0.110154	0.000143
H214	H	0.534165	0.610154	0.500143
F215	F	0.074299	-0.339998	0.000104
F216	F	0.574299	0.160002	0.500104
