data_functionalizedCrystal
_audit_creation_method	'MofGen! by Chris Wilmer'
_symmetry_space_group_name_H-M	'P1'
_symmetry_Int_Tables_number	1
_symmetry_cell_setting	triclinic
loop_
_symmetry_equiv_pos_as_xyz
  x,y,z
_cell_length_a	12.759401
_cell_length_b	17.640280
_cell_length_c	17.639407
_cell_angle_alpha	87.835466
_cell_angle_beta	78.794003
_cell_angle_gamma	78.802151
loop_
_atom_site_label
_atom_site_type_symbol
_atom_site_fract_x
_atom_site_fract_y
_atom_site_fract_z
Zn1	Zn	1.611713	-0.389180	0.368278
Zn2	Zn	1.679915	-0.490465	0.215659
Zn3	Zn	1.463295	-0.363509	0.241311
Zn4	Zn	1.477031	-0.516119	0.342609
O5	O	1.557989	-0.439818	0.291964
O6	O	1.767781	-0.402622	0.348040
O7	O	1.673974	-0.452144	0.112797
O8	O	1.448692	-0.260658	0.279632
O9	O	1.817889	-0.477036	0.235912
O10	O	1.557734	-0.279518	0.372914
O11	O	1.514825	-0.358870	0.131643
O12	O	1.318097	-0.383746	0.254741
O13	O	1.472103	-0.520760	0.452279
O14	O	1.328188	-0.495868	0.329164
O15	O	1.571053	-0.427498	0.471138
O16	O	1.687293	-0.600124	0.211021
O17	O	1.538236	-0.618972	0.304291
C18	C	1.285022	-0.439806	0.291951
C19	C	1.168247	-0.439822	0.291960
C20	C	1.621681	-0.637103	0.252103
C21	C	1.649019	-0.721507	0.235076
C22	C	1.118708	-0.498263	0.330621
C23	C	1.008981	-0.498269	0.330635
C24	C	0.998344	-0.381390	0.253322
C25	C	1.108067	-0.381382	0.253312
C26	C	0.848661	-0.543644	0.414650
C27	C	0.799124	-0.602095	0.453302
C28	C	0.856191	-0.678534	0.449862
C29	C	0.962803	-0.696535	0.407756
C30	C	1.012337	-0.638087	0.369097
C31	C	0.955265	-0.561640	0.372554
C32	C	1.268391	-0.336014	0.169294
C33	C	1.317930	-0.277568	0.130631
C34	C	1.260865	-0.201127	0.134064
C35	C	1.154255	-0.183126	0.176156
C36	C	1.104716	-0.241572	0.214820
C37	C	1.161787	-0.318013	0.211388
C38	C	1.350674	-1.048249	0.421595
C39	C	1.376370	-1.127554	0.405571
C40	C	1.531646	-1.107882	0.308548
C41	C	1.505966	-1.028574	0.324566
C42	C	1.415478	-0.998763	0.381090
C43	C	1.570771	-0.979089	0.284061
C44	C	1.545089	-0.899786	0.300076
C45	C	1.454604	-0.869969	0.356595
C46	C	1.389797	-0.919461	0.397105
C47	C	1.661254	-1.008900	0.227534
C48	C	1.726058	-0.959415	0.187029
C49	C	1.700382	-0.880112	0.203047
C50	C	1.609896	-0.850295	0.259566
C51	C	1.765188	-0.830620	0.162538
C52	C	1.739507	-0.751318	0.178552
C53	C	1.584215	-0.770992	0.275581
C54	C	1.832022	-0.439831	0.291978
C55	C	1.948798	-0.439837	0.291984
C56	C	1.515503	-0.479854	0.490033
C57	C	1.497397	-0.496915	0.574437
C58	C	1.494073	-0.241766	0.331998
C59	C	1.466836	-0.157369	0.349057
C60	C	1.695445	-0.310264	0.901125
C61	C	1.678426	-0.326313	0.980433
C62	C	1.575398	-0.423418	0.960786
C63	C	1.592413	-0.407380	0.881475
C64	C	1.652436	-0.350802	0.851651
C65	C	1.549404	-0.447918	0.832000
C66	C	1.566412	-0.431878	0.752696
C67	C	1.626430	-0.375301	0.722867
C68	C	1.669445	-0.334762	0.772347
C69	C	1.489374	-0.504492	0.861826
C70	C	1.446365	-0.545030	0.812352
C71	C	1.463380	-0.528995	0.733046
C72	C	1.523398	-0.472417	0.703216
C73	C	1.420366	-0.569533	0.683565
C74	C	1.437374	-0.553494	0.604261
C75	C	1.540406	-0.456378	0.623912
C76	C	1.600307	-0.399950	1.094664
C77	C	1.618412	-0.382877	1.010261
H78	H	1.167703	-0.545847	0.362092
H79	H	1.713446	-0.293293	1.020715
Br80	Br	1.267002	-0.878998	0.473826
Br81	Br	1.493937	-0.500198	1.001269
Br82	Br	1.419971	-0.762383	0.378524
H83	H	1.276996	-1.023978	0.467628
Br84	Br	1.654448	-1.148347	0.231840
Br85	Br	1.364904	-0.621810	0.852835
Br86	Br	1.288397	-1.194711	0.460537
H87	H	1.682163	-1.073474	0.214499
H88	H	1.099138	-0.652742	0.334815
Br89	Br	0.771212	-0.439899	0.419340
H90	H	1.371486	-0.615594	0.707861
Br91	Br	1.040241	-0.800282	0.403073
H92	H	1.589289	-0.410309	0.599627
H93	H	1.799731	-0.983697	0.141005
Br94	Br	1.887980	-0.871085	0.085823
H95	H	0.949333	-0.333811	0.221855
Br96	Br	1.378999	-0.608506	0.537113
H97	H	1.792277	-0.711025	0.145568
H98	H	1.475516	-0.517543	0.926403
H99	H	1.640278	-0.362243	0.658292
H100	H	1.718327	-0.288694	0.748063
H101	H	1.744328	-0.264196	0.876841
H102	H	0.815850	-0.726125	0.481334
H103	H	0.712319	-0.587432	0.487587
Br104	Br	0.960023	-0.217145	0.271939
H105	H	1.301208	-0.153541	0.102573
Br106	Br	1.076796	-0.079383	0.180808
H107	H	1.404740	-0.292231	0.096356
Br108	Br	1.345775	-0.439782	0.164519
H109	H	1.510537	-0.746721	0.321614
