data_functionalizedCrystal
_audit_creation_method	'MofGen! by Chris Wilmer'
_symmetry_space_group_name_H-M	'P1'
_symmetry_Int_Tables_number	1
_symmetry_cell_setting	triclinic
loop_
_symmetry_equiv_pos_as_xyz
  x,y,z
_cell_length_a	19.805407
_cell_length_b	18.101395
_cell_length_c	19.805399
_cell_angle_alpha	90.025118
_cell_angle_beta	90.019573
_cell_angle_gamma	90.031104
loop_
_atom_site_label
_atom_site_type_symbol
_atom_site_fract_x
_atom_site_fract_y
_atom_site_fract_z
Zn1	Zn	1.034714	-0.294847	0.382731
Zn2	Zn	1.034619	-0.418690	0.269548
Zn3	Zn	0.921528	-0.294867	0.269556
Zn4	Zn	0.921482	-0.418651	0.382695
O5	O	0.978086	-0.356764	0.326132
O6	O	1.129418	-0.311283	0.367729
O7	O	1.019597	-0.402290	0.174832
O8	O	0.936601	-0.191232	0.284587
O9	O	1.129348	-0.402270	0.284574
O10	O	1.019758	-0.191217	0.367737
O11	O	0.936510	-0.311318	0.174838
O12	O	0.826806	-0.311279	0.284552
O13	O	0.936523	-0.402203	0.477416
O14	O	0.826772	-0.402223	0.367674
O15	O	1.019714	-0.311245	0.477443
O16	O	1.019553	-0.522318	0.284538
O17	O	0.936432	-0.522289	0.367667
C18	C	0.802230	-0.356750	0.326110
C19	C	0.726998	-0.356761	0.326117
C20	C	0.691654	-0.404187	0.369329
C21	C	0.620965	-0.404188	0.369339
C22	C	0.585622	-0.356767	0.326132
C23	C	0.620971	-0.309336	0.282919
C24	C	0.691658	-0.309332	0.282913
C25	C	0.335898	-0.309353	0.282941
C26	C	0.265206	-0.309363	0.282948
C27	C	0.265205	-0.404209	0.369367
C28	C	0.335892	-0.404205	0.369361
C29	C	0.371235	-0.356771	0.326150
C30	C	0.447883	-0.356770	0.326141
C31	C	0.508975	-0.356772	0.326137
C32	C	0.977995	-0.549174	0.326112
C33	C	0.978018	-0.631489	0.326127
C34	C	0.978167	-0.930579	0.326163
C35	C	0.925991	-0.899267	0.378595
C36	C	0.925743	-0.813649	0.378431
C37	C	0.978093	-0.782197	0.326146
C38	C	0.958782	-0.813345	0.254811
C39	C	0.958446	-0.898990	0.255125
C40	C	1.049768	-0.898924	0.344438
C41	C	1.049347	-0.813273	0.346002
C42	C	0.978053	-0.698337	0.326131
C43	C	0.978206	-1.014439	0.326173
C44	C	1.154629	-0.356779	0.326155
C45	C	1.229861	-0.356785	0.326164
C46	C	0.978124	-0.356717	0.502675
C47	C	0.978140	-0.356697	0.577907
C48	C	0.978195	-0.163602	0.326167
C49	C	0.978242	-0.081288	0.326182
C50	C	0.978087	-0.356757	0.150276
C51	C	0.978202	-0.356568	0.075045
C52	C	1.021458	-0.309333	0.613266
C53	C	1.021465	-0.309311	0.683955
C54	C	0.978157	-0.356659	0.719283
C55	C	0.934834	-0.404025	0.683919
C56	C	0.934824	-0.404042	0.613231
C57	C	0.934872	-0.403956	0.968992
C58	C	0.934887	-0.403937	1.039684
C59	C	1.021513	-0.309225	1.039716
C60	C	1.021503	-0.309242	0.969028
C61	C	0.978178	-0.356606	0.933670
C62	C	0.978170	-0.356628	0.857022
C63	C	0.978168	-0.356641	0.795930
H64	H	0.364665	-0.442822	0.404542
N65	N	0.729780	-0.258185	0.236300
H66	H	0.779923	-0.265376	0.242853
H67	H	0.717452	-0.205311	0.246921
N68	N	0.941741	-0.785742	0.448493
H69	H	0.949018	-0.829076	0.479763
H70	H	0.902866	-0.754860	0.465559
H71	H	1.056741	-0.270744	0.712741
H72	H	0.937953	-0.919817	0.431660
H73	H	1.056772	-0.270690	0.940268
H74	H	0.592189	-0.270722	0.247742
N75	N	1.007533	-0.786366	0.201647
H76	H	1.042690	-0.753613	0.223345
H77	H	0.982096	-0.757380	0.166284
N78	N	1.068243	-0.258136	1.077851
H79	H	1.061678	-0.265305	1.127992
H80	H	1.057739	-0.205248	1.065501
H81	H	0.236420	-0.442829	0.404554
H82	H	0.899617	-0.442494	1.068446
N83	N	0.888096	-0.455121	0.575090
H84	H	0.860661	-0.485112	0.608195
H85	H	0.915618	-0.489404	0.545757
N86	N	1.101263	-0.925748	0.293860
H87	H	1.147162	-0.905236	0.305854
H88	H	1.088081	-0.908473	0.247203
H89	H	0.364665	-0.270735	0.247751
H90	H	0.873241	-0.920853	0.366642
H91	H	0.236431	-0.270742	0.247765
N92	N	0.889117	-0.925550	0.234627
H93	H	0.892779	-0.956653	0.192439
H94	H	0.859097	-0.881585	0.225508
N95	N	0.888123	-0.455014	0.930861
H96	H	0.860685	-0.484998	0.963969
H97	H	0.915625	-0.489305	0.901516
H98	H	0.899569	-0.442573	0.712688
N99	N	0.582844	-0.455350	0.415936
H100	H	0.615959	-0.485398	0.443299
H101	H	0.553493	-0.489578	0.388320
H102	H	0.720425	-0.442805	0.404510
N103	N	0.855446	-0.786586	0.362392
H104	H	0.824499	-0.830293	0.355396
H105	H	0.856662	-0.755730	0.319935
N106	N	0.890187	-0.785019	0.233938
H107	H	0.855261	-0.801439	0.267921
H108	H	0.878269	-0.805375	0.187964
H109	H	0.994801	-0.919706	0.214727
N110	N	1.073105	-0.927467	0.412161
H111	H	1.039990	-0.911896	0.448224
H112	H	1.119144	-0.906458	0.422818
N113	N	1.068644	-0.786305	0.415541
H114	H	1.031392	-0.754091	0.434109
H115	H	1.111817	-0.756760	0.412635
H116	H	1.090278	-0.791859	0.310597
H117	H	1.056727	-0.270779	0.584508
