data_functionalizedCrystal
_audit_creation_method	'MofGen! by Chris Wilmer'
_symmetry_space_group_name_H-M	'P1'
_symmetry_Int_Tables_number	1
_symmetry_cell_setting	triclinic
loop_
_symmetry_equiv_pos_as_xyz
  x,y,z
_cell_length_a	15.944551
_cell_length_b	22.010155
_cell_length_c	15.944551
_cell_angle_alpha	90.003301
_cell_angle_beta	96.501262
_cell_angle_gamma	90.003973
loop_
_atom_site_label
_atom_site_type_symbol
_atom_site_fract_x
_atom_site_fract_y
_atom_site_fract_z
O1	O	1.114530	0.050463	-0.108320
O2	O	0.869981	0.050478	-0.121677
O3	O	0.998934	0.050465	0.007276
O4	O	0.985577	0.050477	-0.237273
O5	O	0.998910	-0.050585	0.007257
O6	O	0.869957	-0.050572	-0.121696
O7	O	1.114507	-0.050587	-0.108340
Cu8	Cu	0.992230	-0.059806	-0.115020
Cu9	Cu	0.992258	0.059697	-0.114997
O10	O	0.985554	-0.050574	-0.237293
C11	C	0.838675	-0.000045	-0.121132
C12	C	0.745429	-0.000039	-0.119470
N13	N	0.992217	-0.143859	-0.115035
C14	C	0.530572	-0.000055	-0.035565
C15	C	0.469564	0.049770	-0.074518
C16	C	0.574703	-0.000047	-0.116462
C17	C	0.469563	-0.049858	-0.074556
C18	C	0.409790	-0.000056	-0.113551
C19	C	0.514923	0.049820	-0.155437
C20	C	0.514928	-0.049853	-0.155464
C21	C	0.453937	-0.000016	-0.194476
C22	C	0.669705	-0.000040	-0.118137
C23	C	0.314789	-0.000058	-0.111883
C24	C	1.049361	-0.563644	-0.057905
C25	C	1.049365	-0.627252	-0.057899
O26	O	1.097918	-0.660148	-0.009335
N27	N	0.992257	-0.659066	-0.114979
C28	C	0.935136	-0.627269	-0.172063
O29	O	0.886561	-0.660170	-0.220614
C30	C	0.935128	-0.563663	-0.172064
C31	C	0.992246	-0.531852	-0.114986
C32	C	1.106474	-0.531833	-0.000830
C33	C	1.106471	-0.468230	-0.000837
C34	C	1.049355	-0.436438	-0.057919
C35	C	0.992243	-0.468249	-0.114993
C36	C	0.878004	-0.531867	-0.229144
C37	C	0.878001	-0.468256	-0.229140
C38	C	0.935118	-0.436445	-0.172061
C39	C	0.935125	-0.372853	-0.172082
N40	N	0.992233	-0.341039	-0.115001
C41	C	1.049348	-0.372831	-0.057920
C42	C	0.935154	-0.760847	-0.172056
C43	C	0.935165	-0.824452	-0.172059
C44	C	1.049394	-0.824430	-0.057893
C45	C	1.049386	-0.760824	-0.057895
C46	C	0.992262	-0.729033	-0.114975
C47	C	1.049338	-0.239260	-0.057939
C48	C	1.049332	-0.175651	-0.057954
C49	C	0.935101	-0.175678	-0.172116
C50	C	0.935109	-0.239282	-0.172105
C51	C	0.992231	-0.271071	-0.115010
O52	O	0.886594	-0.339916	-0.220618
O53	O	1.097907	-0.339922	-0.009370
C54	C	1.145813	-0.000063	-0.108885
C55	C	1.239059	-0.000064	-0.110547
C56	C	0.998367	-0.000060	0.038561
C57	C	0.996705	-0.000061	0.131807
N58	N	0.992278	0.143750	-0.114975
C59	C	0.986120	-0.000047	-0.268577
C60	C	0.987782	-0.000043	-0.361823
C61	C	0.912801	-0.000047	0.346663
C62	C	0.951752	-0.049873	0.407671
C63	C	0.993698	-0.000056	0.302533
C64	C	0.951794	0.049754	0.407674
C65	C	0.990787	-0.000048	0.467445
C66	C	1.032671	-0.049923	0.362312
C67	C	1.032702	0.049749	0.362308
C68	C	1.071711	-0.000089	0.423298
C69	C	0.995372	-0.000061	0.207530
C70	C	0.989119	-0.000048	0.562446
H71	H	0.449463	0.091890	-0.040294
C72	C	0.824638	0.000437	0.214194
C73	C	0.822156	-0.000100	0.301694
H74	H	0.768679	0.000407	0.186433
H75	H	0.853644	-0.034600	0.198017
H76	H	0.853265	0.035875	0.198789
H77	H	0.793535	-0.035540	0.317099
H78	H	0.793138	0.034941	0.317877
H79	H	0.888663	-0.850348	-0.218547
H80	H	1.095850	-0.265136	-0.011446
H81	H	0.888639	-0.734966	-0.218545
H82	H	1.152984	-0.557713	0.045656
H83	H	0.535050	-0.091975	-0.189660
H84	H	0.917577	0.091882	0.427759
C85	C	0.401964	-0.089059	0.041224
C86	C	0.442433	-0.106722	-0.028363
H87	H	0.385222	-0.124164	0.069748
H88	H	0.353590	-0.065449	0.022480
H89	H	0.439642	-0.065594	0.078644
H90	H	0.404753	-0.130184	-0.065786
H91	H	0.490814	-0.130343	-0.009619
C92	C	0.552824	0.052249	0.097245
C93	C	0.575552	0.000009	0.055075
H94	H	0.580601	0.052292	0.153198
H95	H	0.493470	0.052604	0.098929
H96	H	0.569002	0.087281	0.068213
H97	H	0.559369	-0.035023	0.084104
H98	H	0.634919	-0.000352	0.053396
C99	C	0.581711	0.089194	-0.271645
C100	C	0.541912	0.106750	-0.201576
H101	H	0.598378	0.124342	-0.300122
H102	H	0.543669	0.065913	-0.308928
H103	H	0.630085	0.065430	-0.253399
H104	H	0.493534	0.130511	-0.219823
H105	H	0.579956	0.130042	-0.164286
C106	C	0.358092	0.051725	-0.297544
C107	C	0.409163	0.000024	-0.285198
H108	H	0.330447	0.051749	-0.353550
H109	H	0.392041	0.087119	-0.288802
H110	H	0.317144	0.051365	-0.258661
H111	H	0.450116	0.000386	-0.324078
H112	H	0.375212	-0.035380	-0.293949
C113	C	1.162242	-0.182028	0.054901
C114	C	1.112116	-0.140686	0.004795
H115	H	1.200995	-0.160442	0.093642
H116	H	1.192454	-0.206836	0.019919
H117	H	1.127269	-0.206838	0.085135
H118	H	1.147089	-0.115878	-0.025443
H119	H	1.081901	-0.115867	0.039782
H120	H	1.152978	-0.442333	0.045643
C121	C	1.162308	-0.818036	0.054962
C122	C	1.112175	-0.859384	0.004857
H123	H	1.201067	-0.839617	0.093694
H124	H	1.127346	-0.793229	0.085198
H125	H	1.192522	-0.793225	0.019971
H126	H	1.081956	-0.884192	0.039847
H127	H	1.147141	-0.884202	-0.025381
H128	H	0.831481	-0.442375	-0.275621
H129	H	0.917526	-0.091993	0.427771
H130	H	1.138919	-0.000122	0.456457
C131	C	1.024114	0.140582	0.278405
C132	C	1.078866	0.106610	0.335131
H133	H	1.052612	0.175686	0.261622
H134	H	0.976320	0.152543	0.304945
H135	H	1.006289	0.116556	0.230168
H136	H	1.096687	0.130635	0.383371
H137	H	1.126675	0.094649	0.308591
H138	H	0.831493	-0.557759	-0.275622
C139	C	1.067544	-0.689337	0.056462
C140	C	1.112138	-0.725880	0.004904
H141	H	1.106279	-0.667771	0.095246
H142	H	1.032562	-0.714170	0.086640
H143	H	1.033559	-0.661280	0.022465
H144	H	1.146118	-0.753941	0.038901
H145	H	1.147135	-0.701046	-0.025276
H146	H	0.888607	-0.265183	-0.218592
C147	C	0.885770	-0.156092	-0.317498
C148	C	0.872321	-0.140722	-0.234857
H149	H	0.847012	-0.134507	-0.356227
H150	H	0.877589	-0.198520	-0.325667
H151	H	0.941828	-0.145663	-0.326650
H152	H	0.816265	-0.151155	-0.225702
H153	H	0.880496	-0.098285	-0.226684
C154	C	1.079906	-0.106357	0.247637
C155	C	1.078806	-0.106856	0.335322
H156	H	1.108381	-0.141506	0.230975
H157	H	1.108458	-0.071026	0.231755
H158	H	1.023622	-0.106209	0.220715
H159	H	1.135090	-0.106999	0.362244
H160	H	1.050255	-0.142195	0.351213
