data_functionalizedCrystal
_audit_creation_method	'MofGen! by Chris Wilmer'
_symmetry_space_group_name_H-M	'P1'
_symmetry_Int_Tables_number	1
_symmetry_cell_setting	triclinic
loop_
_symmetry_equiv_pos_as_xyz
  x,y,z
_cell_length_a	14.908520
_cell_length_b	12.827893
_cell_length_c	14.908768
_cell_angle_alpha	86.696520
_cell_angle_beta	83.235728
_cell_angle_gamma	86.681083
loop_
_atom_site_label
_atom_site_type_symbol
_atom_site_fract_x
_atom_site_fract_y
_atom_site_fract_z
Zn1	Zn	-0.390108	-1.606973	0.532589
Zn2	Zn	0.109892	-1.106973	1.032589
Zn3	Zn	-0.532702	-1.587825	0.389954
Zn4	Zn	-0.032702	-1.087825	0.889954
Zn5	Zn	-0.381352	-1.422731	0.381241
Zn6	Zn	0.118648	-0.922731	0.881241
Zn7	Zn	-0.541424	-1.422641	0.541268
Zn8	Zn	-0.041424	-0.922641	1.041268
O9	O	-0.461397	-1.510042	0.461263
O10	O	0.038603	-1.010042	0.961263
O11	O	-0.409038	-1.750669	0.513682
O12	O	0.090962	-1.250669	1.013682
O13	O	-0.505311	-1.557950	0.262133
O14	O	-0.005311	-1.057950	0.762133
O15	O	-0.255846	-1.455222	0.394039
O16	O	0.244154	-0.955222	0.894039
O17	O	-0.513801	-1.736601	0.408889
O18	O	-0.013801	-1.236601	0.908889
O19	O	-0.262280	-1.590583	0.505234
O20	O	0.237720	-1.090583	1.005234
O21	O	-0.394114	-1.436656	0.255732
O22	O	0.105886	-0.936656	0.755732
O23	O	-0.402571	-1.276483	0.402455
O24	O	0.097429	-0.776483	0.902455
O25	O	-0.528667	-1.455068	0.666782
O26	O	-0.028667	-0.955068	1.166782
O27	O	-0.520176	-1.276417	0.520026
O28	O	-0.020176	-0.776417	1.020026
O29	O	-0.417495	-1.590496	0.660405
O30	O	0.082505	-1.090496	1.160405
O31	O	-0.660526	-1.557862	0.417305
O32	O	-0.160526	-1.057862	0.917305
O33	O	-0.666934	-1.436502	0.528475
O34	O	-0.166934	-0.936502	1.028475
C35	C	-0.461371	-1.238533	0.461237
C36	C	0.038629	-0.738533	0.961237
C37	C	-0.461382	-1.122379	0.461249
C38	C	0.038618	-0.622379	0.961249
C39	C	-0.403119	-1.070611	0.403163
C40	C	0.096881	-0.570611	0.903163
C41	C	-0.403130	-0.950560	0.403174
C42	C	0.096870	-0.450560	0.903174
C43	C	-0.696575	-1.495124	0.474797
C44	C	-0.196575	-0.995124	0.974797
C45	C	-0.797187	-1.488840	0.480617
C46	C	-0.297187	-0.988840	0.980617
C47	C	-0.979519	-1.603546	0.375886
C48	C	-0.479519	-1.103546	0.875886
C49	C	-1.074053	-1.597645	0.381352
C50	C	-0.574053	-1.097645	0.881352
C51	C	-1.080790	-1.471141	0.497018
C52	C	-0.580790	-0.971141	0.997018
C53	C	-0.986256	-1.477043	0.491553
C54	C	-0.486256	-0.977043	0.991553
C55	C	-0.935624	-1.543246	0.430984
C56	C	-0.435624	-1.043246	0.930984
C57	C	-0.841088	-1.549142	0.425514
C58	C	-0.341088	-1.049142	0.925514
C59	C	-0.847827	-1.422645	0.541184
C60	C	-0.347827	-0.922645	1.041184
C61	C	-0.942361	-1.416743	0.546650
C62	C	-0.442361	-0.916743	1.046650
C63	C	-0.225301	-1.525049	0.447696
C64	C	0.274699	-1.025049	0.947696
C65	C	-0.124691	-1.531443	0.441915
C66	C	0.375309	-1.031443	0.941915
C67	C	-0.475031	-1.524908	0.697355
C68	C	0.024969	-1.024908	1.197355
C69	C	-0.480841	-1.531243	0.797963
C70	C	0.019159	-1.031243	1.297963
C71	C	-0.461416	-0.782613	0.461282
C72	C	0.038584	-0.282613	0.961282
C73	C	-0.461404	-0.898766	0.461270
C74	C	0.038596	-0.398766	0.961270
C75	C	-0.546917	-1.603310	0.943101
C76	C	-0.046917	-1.103310	1.443101
C77	C	-0.541463	-1.597366	0.848571
C78	C	-0.041463	-1.097366	1.348571
C79	C	-0.425671	-1.471058	0.841891
C80	C	0.074329	-0.971058	1.341891
C81	C	-0.431125	-1.477002	0.936421
C82	C	0.068875	-0.977002	1.436421
C83	C	-0.491749	-1.543132	0.987023
C84	C	0.008251	-1.043132	1.487023
C85	C	-0.497198	-1.549082	1.081555
C86	C	0.002802	-1.049082	1.581555
C87	C	-0.381411	-1.422769	1.074873
C88	C	0.118589	-0.922769	1.574873
C89	C	-0.375957	-1.416824	0.980343
C90	C	0.124043	-0.916824	1.480343
C91	C	-0.447836	-1.495227	1.226091
C92	C	0.052164	-0.995227	1.726091
C93	C	-0.442028	-1.488897	1.125483
C94	C	0.057972	-0.988897	1.625483
H95	H	-0.353245	-0.906041	0.353447
H96	H	0.146755	-0.406041	0.853447
H97	H	-0.326601	-1.362981	0.939131
H98	H	0.173399	-0.862981	1.439131
H99	H	-0.983599	-1.362845	0.595966
H100	H	-0.483599	-0.862845	1.095966
Br101	Br	-0.544543	-0.972955	0.544172
Br102	Br	-0.044543	-0.472955	1.044172
Br103	Br	-0.579467	-1.638834	1.150228
Br104	Br	-0.079467	-1.138834	1.650228
H105	H	-0.596273	-1.657164	0.984302
H106	H	-0.096273	-1.157164	1.484302
Br107	Br	-0.772373	-1.638981	0.343309
Br108	Br	-0.272373	-1.138981	0.843309
H109	H	-1.122031	-1.417249	0.546336
H110	H	-0.622031	-0.917249	1.046336
Br111	Br	-0.910799	-1.693369	0.293672
Br112	Br	-0.410799	-1.193369	0.793672
Br113	Br	-0.616341	-1.679034	0.788965
Br114	Br	-0.116341	-1.179034	1.288965
Br115	Br	-1.133623	-1.679489	0.306578
Br116	Br	-0.633623	-1.179489	0.806578
Br117	Br	-0.788250	-1.340785	0.615948
Br118	Br	-0.288250	-0.840785	1.115948
Br119	Br	-0.306527	-1.341105	1.134485
Br120	Br	0.193473	-0.841105	1.634485
H121	H	-0.376321	-1.417209	0.800676
H122	H	0.123679	-0.917209	1.300676
Br123	Br	-0.319967	-1.144861	0.320253
Br124	Br	0.180033	-0.644861	0.820253
H125	H	-0.511274	-1.077824	0.510984
H126	H	-0.011274	-0.577824	1.010984
