data_functionalizedCrystal
_audit_creation_method	'MofGen! by Chris Wilmer'
_symmetry_space_group_name_H-M	'P1'
_symmetry_Int_Tables_number	1
_symmetry_cell_setting	triclinic
loop_
_symmetry_equiv_pos_as_xyz
  x,y,z
_cell_length_a	10.654549
_cell_length_b	14.971494
_cell_length_c	9.730223
_cell_angle_alpha	89.997316
_cell_angle_beta	89.997731
_cell_angle_gamma	84.051167
loop_
_atom_site_label
_atom_site_type_symbol
_atom_site_fract_x
_atom_site_fract_y
_atom_site_fract_z
O1	O	1.666497	0.125629	-0.114253
O2	O	1.300890	0.137598	-0.114262
O3	O	1.493487	0.001467	-0.114254
O4	O	1.473900	0.261760	-0.114260
O5	O	1.493475	0.001464	0.114326
O6	O	1.300878	0.137595	0.114318
O7	O	1.666485	0.125625	0.114327
Zn8	Zn	1.483679	0.131609	0.150615
Zn9	Zn	1.483696	0.131614	-0.150549
O10	O	1.473888	0.261756	0.114320
C11	C	1.254096	0.136718	0.000027
C12	C	1.114681	0.134089	0.000023
C13	C	1.492603	-0.031864	0.000034
C14	C	1.489973	-0.131175	0.000028
C15	C	0.903336	0.211763	0.000027
C16	C	1.034330	0.214240	0.000019
C17	C	1.064031	0.051454	0.000023
C18	C	0.933039	0.048978	0.000021
C19	C	1.488746	-0.177824	-0.124573
C20	C	1.486266	-0.271137	-0.124575
C21	C	1.485022	-0.317799	0.000026
C22	C	1.486244	-0.271143	0.124636
C23	C	1.488715	-0.177831	0.124636
C24	C	1.481097	-0.465634	0.124626
C25	C	1.478629	-0.558952	0.124627
C26	C	1.478648	-0.558940	-0.124584
C27	C	1.481119	-0.465628	-0.124584
C28	C	1.482344	-0.418978	0.000027
C29	C	1.713279	0.126506	0.000036
C30	C	1.852694	0.129135	0.000030
C31	C	1.474772	0.295087	0.000029
C32	C	1.477402	0.394398	0.000026
N33	N	1.483677	0.131605	0.356151
N34	N	1.483708	0.131611	-0.356085
C35	C	1.568988	0.071352	0.428081
C36	C	1.569001	0.071353	0.571964
C37	C	1.398388	0.191867	0.571975
C38	C	1.398370	0.191862	0.428095
H39	H	1.075555	0.281524	0.000015
O40	O	1.477195	-0.604232	0.245687
C41	C	1.367747	-0.623340	0.458701
C42	C	1.369195	-0.571998	0.321642
H43	H	1.280452	-0.597285	0.520162
H44	H	1.365699	-0.698046	0.437347
H45	H	1.456084	-0.612655	0.520104
H46	H	1.280876	-0.582610	0.260171
H47	H	1.371309	-0.497310	0.343093
H48	H	1.129463	-0.013807	0.000018
H49	H	0.837922	0.277033	0.000034
H50	H	0.891808	-0.018312	0.000019
H51	H	1.489766	-0.139839	-0.226037
H52	H	1.485273	-0.309115	-0.226037
O53	O	1.315357	0.250309	0.641806
C54	C	1.097084	0.301305	0.685808
C55	C	1.190977	0.235053	0.606667
H56	H	0.996503	0.289006	0.657406
H57	H	1.111645	0.290959	0.801015
H58	H	1.113608	0.373049	0.657521
H59	H	1.174510	0.163283	0.634839
H60	H	1.176394	0.245477	0.491479
H61	H	1.328894	0.240928	0.369526
O62	O	1.482272	-0.420432	-0.245741
C63	C	1.482104	-0.430267	-0.492925
C64	C	1.480771	-0.481560	-0.355814
H65	H	1.480918	-0.479669	-0.581955
H66	H	1.395421	-0.378963	-0.499248
H67	H	1.571060	-0.394194	-0.499070
H68	H	1.391872	-0.517687	-0.349577
H69	H	1.567513	-0.532813	-0.349549
O70	O	1.489945	-0.132655	0.245796
C71	C	1.489547	-0.142499	0.492979
C72	C	1.488200	-0.193774	0.355861
H73	H	1.488110	-0.191889	0.582002
H74	H	1.578533	-0.106470	0.499326
H75	H	1.402896	-0.091158	0.499110
H76	H	1.574791	-0.245159	0.349638
H77	H	1.399158	-0.229742	0.349571
O78	O	1.651891	0.012730	0.358407
C79	C	1.821161	-0.106772	0.373588
C80	C	1.727323	-0.040441	0.452659
H81	H	1.882189	-0.149765	0.449757
H82	H	1.766936	-0.151880	0.306283
H83	H	1.883888	-0.067725	0.306171
H84	H	1.664572	-0.079415	0.520151
H85	H	1.781626	0.004667	0.519877
H86	H	1.477648	-0.596926	-0.226047
H87	H	1.482067	-0.427652	0.226098
H88	H	1.485223	-0.309142	0.226087
H89	H	1.638467	0.022288	0.630525
