data_functionalizedCrystal
_audit_creation_method	'MofGen! by Chris Wilmer'
_symmetry_space_group_name_H-M	'P1'
_symmetry_Int_Tables_number	1
_symmetry_cell_setting	triclinic
loop_
_symmetry_equiv_pos_as_xyz
  x,y,z
_cell_length_a	23.532407
_cell_length_b	16.109301
_cell_length_c	14.586319
_cell_angle_alpha	89.994786
_cell_angle_beta	90.001839
_cell_angle_gamma	83.155079
loop_
_atom_site_label
_atom_site_type_symbol
_atom_site_fract_x
_atom_site_fract_y
_atom_site_fract_z
O1	O	0.755631	0.100925	-0.076129
O2	O	0.589822	0.115528	-0.076156
O3	O	0.677281	-0.012841	-0.076132
O4	O	0.668171	0.229293	-0.076153
O5	O	0.677275	-0.012843	0.076348
O6	O	0.589816	0.115526	0.076325
O7	O	0.755625	0.100923	0.076352
Cu8	Cu	0.672720	0.108224	0.090261
Cu9	Cu	0.672727	0.108226	-0.090065
O10	O	0.668165	0.229291	0.076328
C11	C	0.568601	0.115155	0.000081
C12	C	0.505380	0.114037	0.000071
C13	C	0.676909	-0.043814	0.000108
C14	C	0.675803	-0.136100	0.000110
C15	C	0.725127	-0.358760	0.000103
C16	C	0.724083	-0.445473	0.000095
C17	C	0.620315	-0.424782	0.000082
C18	C	0.621360	-0.338072	0.000083
C19	C	0.673768	-0.305063	0.000098
C20	C	0.671679	-0.478486	0.000089
C21	C	0.670547	-0.572503	0.000081
C22	C	0.674900	-0.211040	0.000105
C23	C	0.106531	0.182990	0.000107
C24	C	0.047127	0.181951	0.000112
O25	O	0.010619	0.245872	0.000140
N26	N	0.024220	0.105636	0.000117
C27	C	0.060719	0.030355	0.000126
O28	O	0.035780	-0.034652	0.000131
C29	C	0.120122	0.031395	0.000126
C30	C	0.143027	0.107715	0.000112
C31	C	0.129436	0.259304	0.000093
C32	C	0.188836	0.260342	0.000086
C33	C	0.225331	0.185066	0.000092
C34	C	0.202427	0.108753	0.000105
C35	C	0.156621	-0.043886	0.000141
C36	C	0.216027	-0.042840	0.000143
C37	C	0.238932	0.033480	0.000129
C38	C	0.298322	0.034516	0.000103
N39	N	0.321229	0.110831	0.000098
C40	C	0.284734	0.186106	0.000093
C41	C	-0.064031	0.028178	0.000125
C42	C	-0.123433	0.027138	0.000118
C43	C	-0.137021	0.178734	0.000106
C44	C	-0.077618	0.179774	0.000107
C45	C	-0.041123	0.104493	0.000120
C46	C	0.409479	0.188281	0.000076
C47	C	0.468885	0.189312	0.000065
C48	C	0.482468	0.037716	0.000081
C49	C	0.423067	0.036684	0.000088
C50	C	0.386574	0.111973	0.000088
O51	O	0.334865	-0.029371	0.000079
O52	O	0.309682	0.251102	0.000099
C53	C	0.776846	0.101295	0.000113
C54	C	0.840067	0.102414	0.000117
N55	N	0.672719	0.108222	0.217093
C56	C	0.668537	0.260264	0.000085
C57	C	0.669644	0.352551	0.000078
N58	N	0.672732	0.108222	-0.216897
C59	C	0.711459	0.051399	0.452110
C60	C	0.711460	0.051397	0.548091
C61	C	0.633988	0.165047	0.548079
C62	C	0.633984	0.165045	0.452100
C63	C	0.672723	0.108222	0.404117
C64	C	0.672728	0.108222	0.596078
C65	C	0.672730	0.108220	0.700145
C66	C	0.672721	0.108222	0.300044
H67	H	0.767801	-0.331888	0.000114
F68	F	0.752687	-0.009082	0.599165
H69	H	0.577647	-0.451669	0.000071
H70	H	0.579534	-0.294349	0.000076
F71	F	0.493257	0.270546	0.000047
H72	H	0.379772	0.249588	0.000080
F73	F	0.213205	0.341573	0.000075
F74	F	-0.175872	0.258850	0.000104
F75	F	0.090603	0.339430	0.000087
F76	F	0.778748	-0.502618	0.000099
F77	F	-0.053247	0.261003	0.000094
F78	F	0.592752	0.225522	0.401019
F79	F	0.752686	-0.009079	0.401047
H80	H	-0.142076	-0.035010	0.000115
H81	H	0.602449	0.211312	0.587156
H82	H	-0.034320	-0.033129	0.000128
F83	F	0.398690	-0.044543	0.000103
F84	F	0.254865	-0.122966	0.000159
F85	F	0.521319	-0.042393	0.000089
F86	F	0.132258	-0.125117	0.000144
