data_functionalizedCrystal
_audit_creation_method	'MofGen! by Chris Wilmer'
_symmetry_space_group_name_H-M	'P1'
_symmetry_Int_Tables_number	1
_symmetry_cell_setting	triclinic
loop_
_symmetry_equiv_pos_as_xyz
  x,y,z
_cell_length_a	17.077404
_cell_length_b	13.897448
_cell_length_c	13.897441
_cell_angle_alpha	89.970373
_cell_angle_beta	89.980344
_cell_angle_gamma	90.017917
loop_
_atom_site_label
_atom_site_type_symbol
_atom_site_fract_x
_atom_site_fract_y
_atom_site_fract_z
Zn1	Zn	1.200084	-0.383988	-0.545408
Zn2	Zn	1.533417	-0.050654	-0.212075
Zn3	Zn	1.866751	0.282679	0.121258
Zn4	Zn	1.200003	-0.545307	-0.384110
Zn5	Zn	1.533336	-0.211973	-0.050776
Zn6	Zn	1.866669	0.121360	0.282557
Zn7	Zn	1.068816	-0.384028	-0.384124
Zn8	Zn	1.402149	-0.050694	-0.050790
Zn9	Zn	1.735482	0.282639	0.282543
Zn10	Zn	1.068796	-0.545243	-0.545359
Zn11	Zn	1.402129	-0.211910	-0.212026
Zn12	Zn	1.735463	0.121424	0.121307
O13	O	1.134425	-0.464641	-0.464750
O14	O	1.467758	-0.131308	-0.131417
O15	O	1.801091	0.202025	0.201916
O16	O	1.309920	-0.405397	-0.524026
O17	O	1.643254	-0.072063	-0.190693
O18	O	1.976587	0.261270	0.142640
O19	O	1.182575	-0.523956	-0.249130
O20	O	1.515908	-0.190623	0.084203
O21	O	1.849241	0.142711	0.417537
O22	O	1.086271	-0.249041	-0.405545
O23	O	1.419604	0.084292	-0.072212
O24	O	1.752938	0.417626	0.261122
O25	O	1.309860	-0.523917	-0.405521
O26	O	1.643194	-0.190584	-0.072188
O27	O	1.976527	0.142750	0.261146
O28	O	1.182713	-0.249011	-0.524040
O29	O	1.516047	0.084322	-0.190707
O30	O	1.849380	0.417655	0.142627
O31	O	1.086192	-0.405465	-0.249140
O32	O	1.419525	-0.072132	0.084193
O33	O	1.752859	0.261201	0.417526
O34	O	0.958966	-0.405404	-0.405497
O35	O	1.292299	-0.072070	-0.072164
O36	O	1.625633	0.261263	0.261169
O37	O	1.086237	-0.523809	-0.680348
O38	O	1.419571	-0.190475	-0.347014
O39	O	1.752904	0.142858	-0.013681
O40	O	0.958952	-0.523848	-0.523957
O41	O	1.292285	-0.190514	-0.190623
O42	O	1.625618	0.142819	0.142710
O43	O	1.182694	-0.405335	-0.680384
O44	O	1.516028	-0.072002	-0.347050
O45	O	1.849361	0.261332	-0.013717
O46	O	1.182556	-0.680280	-0.405474
O47	O	1.515889	-0.346946	-0.072140
O48	O	1.849222	-0.013613	0.261193
O49	O	1.086158	-0.680233	-0.523943
O50	O	1.419492	-0.346900	-0.190610
O51	O	1.752825	-0.013566	0.142724
C52	C	0.930477	-0.464624	-0.464724
C53	C	1.263810	-0.131290	-0.131390
C54	C	1.597143	0.202043	0.201943
C55	C	0.843227	-0.464639	-0.464735
C56	C	1.176560	-0.131306	-0.131402
C57	C	1.509894	0.202027	0.201931
C58	C	1.134367	-0.715256	-0.464722
C59	C	1.467701	-0.381922	-0.131389
C60	C	1.801034	-0.048589	0.201944
C61	C	1.134415	-0.822469	-0.464743
C62	C	1.467748	-0.489136	-0.131409
C63	C	1.801081	-0.155803	0.201924
C64	C	0.802250	-0.526406	-0.526318
C65	C	1.135583	-0.193073	-0.192985
C66	C	1.468916	0.140260	0.140349
C67	C	0.720269	-0.526408	-0.526333
C68	C	1.053603	-0.193075	-0.193000
C69	C	1.386936	0.140258	0.140333
C70	C	0.679268	-0.464648	-0.464761
C71	C	1.012601	-0.131314	-0.131427
C72	C	1.345934	0.202019	0.201906
C73	C	0.720250	-0.402874	-0.403175
C74	C	1.053584	-0.069541	-0.069842
C75	C	1.386917	0.263793	0.263492
C76	C	0.802229	-0.402868	-0.403165
C77	C	1.135563	-0.069535	-0.069832
C78	C	1.468896	0.263799	0.263501
C79	C	0.549380	-0.402893	-0.403198
C80	C	0.882714	-0.069560	-0.069865
C81	C	1.216047	0.263774	0.263468
C82	C	0.467396	-0.402900	-0.403207
C83	C	0.800729	-0.069567	-0.069873
C84	C	1.134062	0.263766	0.263460
C85	C	0.467420	-0.526434	-0.526366
C86	C	0.800754	-0.193100	-0.193033
C87	C	1.134087	0.140233	0.140300
C88	C	0.549399	-0.526427	-0.526357
C89	C	0.882733	-0.193094	-0.193023
C90	C	1.216066	0.140239	0.140310
C91	C	0.590377	-0.464655	-0.464770
C92	C	0.923710	-0.131321	-0.131436
C93	C	1.257043	0.202012	0.201897
C94	C	1.134497	-1.018765	-0.464803
C95	C	1.467830	-0.685431	-0.131470
C96	C	1.801164	-0.352098	0.201863
C97	C	1.134449	-0.909532	-0.464773
C98	C	1.467782	-0.576199	-0.131439
C99	C	1.801116	-0.242865	0.201894
C100	C	1.339169	-0.464659	-0.464778
C101	C	1.672502	-0.131326	-0.131444
C102	C	2.005836	0.202007	0.201889
C103	C	1.426419	-0.464667	-0.464789
C104	C	1.759752	-0.131334	-0.131456
C105	C	2.093085	0.201999	0.201877
C106	C	1.134473	-0.464560	-0.716344
C107	C	1.467806	-0.131227	-0.383010
C108	C	1.801139	0.202106	-0.049677
C109	C	1.134493	-0.464526	-0.823558
C110	C	1.467826	-0.131192	-0.490224
C111	C	1.801160	0.202141	-0.156891
C112	C	1.134504	-0.213048	-0.464800
C113	C	1.467837	0.120285	-0.131466
C114	C	1.801170	0.453618	0.201867
C115	C	1.134537	-0.105834	-0.464820
C116	C	1.467870	0.227499	-0.131487
C117	C	1.801204	0.560832	0.201846
C118	C	1.134509	-0.464498	-0.910627
C119	C	1.467843	-0.131165	-0.577294
C120	C	1.801176	0.202168	-0.243961
C121	C	1.134532	-0.464455	-1.019860
C122	C	1.467865	-0.131122	-0.686527
C123	C	1.801198	0.202212	-0.353193
C124	C	1.134422	-0.464652	-0.214136
C125	C	1.467755	-0.131319	0.119197
C126	C	1.801089	0.202014	0.452531
C127	C	1.134554	-0.464415	-0.106923
C128	C	1.467887	-0.131082	0.226411
C129	C	1.801220	0.202252	0.559744
H130	H	0.835628	-0.576702	-0.576455
H131	H	1.168961	-0.243369	-0.243121
H132	H	1.502294	0.089964	0.090212
H133	H	0.835592	-0.352566	-0.353023
H134	H	1.168925	-0.019233	-0.019690
H135	H	1.502259	0.314101	0.313643
H136	H	0.686860	-0.352583	-0.353046
H137	H	1.020194	-0.019250	-0.019712
H138	H	1.353527	0.314083	0.313621
N139	N	0.676072	-0.593042	-0.592741
N140	N	1.009405	-0.259709	-0.259407
N141	N	1.342738	0.073625	0.073926
H142	H	0.714485	-0.632175	-0.631735
H143	H	1.047819	-0.298842	-0.298402
H144	H	1.381152	0.034492	0.034931
H145	H	0.642040	-0.637626	-0.553386
H146	H	0.975373	-0.304293	-0.220052
H147	H	1.308706	0.029041	0.113281
N148	N	0.423158	-0.336320	-0.336779
N149	N	0.756491	-0.002987	-0.003446
N150	N	1.089824	0.330346	0.329888
H151	H	0.389149	-0.291678	-0.376046
H152	H	0.722483	0.041655	-0.042712
H153	H	1.055816	0.374988	0.290621
H154	H	0.389181	-0.375577	-0.292044
H155	H	0.722515	-0.042243	0.041289
H156	H	1.055848	0.291090	0.374622
N157	N	0.423230	-0.593064	-0.592792
N158	N	0.756563	-0.259730	-0.259459
N159	N	1.089896	0.073603	0.073875
H160	H	0.365075	-0.583695	-0.583461
H161	H	0.698408	-0.250362	-0.250127
H162	H	1.031741	0.082971	0.083206
H163	H	0.437590	-0.578140	-0.661707
H164	H	0.770923	-0.244807	-0.328373
H165	H	1.104256	0.088526	0.004960
H166	H	0.582742	-0.352583	-0.353056
H167	H	0.916075	-0.019249	-0.019723
H168	H	1.249408	0.314084	0.313610
H169	H	0.582781	-0.576724	-0.576489
H170	H	0.916114	-0.243390	-0.243156
H171	H	1.249447	0.089943	0.090177
