data_functionalizedCrystal
_audit_creation_method	'MofGen! by Chris Wilmer'
_symmetry_space_group_name_H-M	'P1'
_symmetry_Int_Tables_number	1
_symmetry_cell_setting	triclinic
loop_
_symmetry_equiv_pos_as_xyz
  x,y,z
_cell_length_a	18.101398
_cell_length_b	18.101395
_cell_length_c	18.101390
_cell_angle_alpha	89.968664
_cell_angle_beta	89.975319
_cell_angle_gamma	90.026371
loop_
_atom_site_label
_atom_site_type_symbol
_atom_site_fract_x
_atom_site_fract_y
_atom_site_fract_z
Zn1	Zn	1.132124	-0.294895	-0.418847
Zn2	Zn	1.132019	-0.418752	-0.295009
Zn3	Zn	1.008282	-0.294918	-0.295008
Zn4	Zn	1.008233	-0.418689	-0.418797
O5	O	1.070164	-0.356813	-0.356915
O6	O	1.235743	-0.311341	-0.402441
O7	O	1.115581	-0.402361	-0.191376
O8	O	1.024774	-0.191282	-0.311456
O9	O	1.235666	-0.402338	-0.311457
O10	O	1.115760	-0.191265	-0.402440
O11	O	1.024672	-0.311381	-0.191375
O12	O	0.904642	-0.311320	-0.311408
O13	O	1.024691	-0.402231	-0.522437
O14	O	0.904607	-0.402254	-0.402355
O15	O	1.115713	-0.311280	-0.522473
O16	O	1.115534	-0.522376	-0.311409
O17	O	1.024590	-0.522330	-0.402356
C18	C	0.877754	-0.356783	-0.356877
C19	C	0.795440	-0.356788	-0.356878
C20	C	1.070065	-0.549224	-0.356893
C21	C	1.070091	-0.631538	-0.356909
C22	C	0.496349	-0.356835	-0.356940
C23	C	0.527672	-0.299336	-0.299997
C24	C	0.613290	-0.299490	-0.299754
C25	C	0.644731	-0.356811	-0.356909
C26	C	0.613613	-0.434824	-0.335587
C27	C	0.527968	-0.434505	-0.335191
C28	C	0.527964	-0.336998	-0.435339
C29	C	0.613615	-0.335261	-0.434911
C30	C	0.728591	-0.356803	-0.356893
C31	C	0.412489	-0.356848	-0.356954
C32	C	1.070253	-0.930629	-0.356949
C33	C	1.013166	-0.899306	-0.414312
C34	C	1.012895	-0.813688	-0.414133
C35	C	1.070172	-0.782247	-0.356930
C36	C	1.049043	-0.813402	-0.278878
C37	C	1.048675	-0.899047	-0.279221
C38	C	1.148595	-0.898978	-0.376950
C39	C	1.148134	-0.813327	-0.378661
C40	C	1.070128	-0.698387	-0.356914
C41	C	1.070296	-1.014488	-0.356959
C42	C	1.263326	-0.356844	-0.356954
C43	C	1.345640	-0.356857	-0.356971
C44	C	1.070208	-0.356746	-0.550077
C45	C	1.070227	-0.356717	-0.632391
C46	C	1.070284	-0.163652	-0.356953
C47	C	1.070335	-0.081337	-0.356970
C48	C	1.070267	-0.356671	-0.931483
C49	C	1.127724	-0.299648	-0.900180
C50	C	1.127545	-0.299437	-0.814562
C51	C	1.070248	-0.356694	-0.783100
C52	C	0.992231	-0.335484	-0.814166
C53	C	0.992575	-0.335057	-0.899811
C54	C	1.090140	-0.435050	-0.899899
C55	C	1.091852	-0.434650	-0.814249
C56	C	1.070232	-0.356708	-0.699240
C57	C	1.070278	-0.356655	-1.015342
C58	C	1.070163	-0.356827	-0.164505
C59	C	1.070288	-0.356648	-0.082191
H60	H	0.634330	-0.241640	-0.313119
N61	N	0.499390	-0.262959	-0.461026
H62	H	0.465657	-0.241525	-0.422098
H63	H	0.542364	-0.228382	-0.469554
N64	N	1.034707	-0.491328	-0.926709
H65	H	1.035571	-0.493172	-0.982468
H66	H	1.047784	-0.541541	-0.906192
N67	N	1.204609	-0.317020	-0.927472
H68	H	1.202945	-0.362019	-0.960395
H69	H	1.224367	-0.273531	-0.956353
H70	H	1.146032	-0.454361	-0.921548
H71	H	0.507101	-0.241309	-0.313215
N72	N	0.973989	-0.785072	-0.256035
H73	H	0.935776	-0.801484	-0.293214
H74	H	0.960949	-0.805432	-0.205732
H75	H	0.506122	-0.312301	-0.242242
H76	H	1.114391	-0.241372	-0.794086
N77	N	1.110525	-0.223161	-0.928697
H78	H	1.065677	-0.225287	-0.961805
H79	H	1.100291	-0.189187	-0.885656
H80	H	1.026114	-0.792621	-0.472007
H81	H	0.507956	-0.451326	-0.277877
H82	H	1.149265	-0.450643	-0.793944
H83	H	0.633743	-0.312604	-0.241661
N84	N	0.641965	-0.457503	-0.260487
H85	H	0.697708	-0.459684	-0.261526
H86	H	0.625498	-0.420228	-0.222396
N87	N	0.936712	-0.927883	-0.396982
H88	H	0.900380	-0.907498	-0.434086
H89	H	0.936670	-0.983617	-0.399556
N90	N	1.102374	-0.786425	-0.220710
H91	H	1.127421	-0.830122	-0.196708
H92	H	1.140795	-0.753659	-0.244500
N93	N	0.970257	-0.259168	-0.926295
H94	H	0.960289	-0.226307	-0.882335
H95	H	1.011462	-0.237294	-0.956944
H96	H	0.507708	-0.378878	-0.477766
H97	H	0.633959	-0.277852	-0.450989
N98	N	0.641961	-0.386690	-0.494126
H99	H	0.675523	-0.424860	-0.471125
H100	H	0.598872	-0.412205	-0.518719
N101	N	0.500523	-0.493183	-0.387722
H102	H	0.469577	-0.530264	-0.359729
H103	H	0.469578	-0.469406	-0.427588
H104	H	1.167859	-0.920523	-0.432895
H105	H	0.633978	-0.478814	-0.375763
H106	H	1.053046	-0.479420	-0.792829
H107	H	1.026255	-0.919850	-0.472374
H108	H	1.088451	-0.919770	-0.235023
H109	H	0.954826	-0.793261	-0.400884
N110	N	0.972822	-0.925599	-0.256778
H111	H	0.939937	-0.881668	-0.246756
H112	H	0.950938	-0.956221	-0.297946
H113	H	1.164068	-0.792961	-0.436103
N114	N	1.207461	-0.784972	-0.327361
H115	H	1.184539	-0.751430	-0.289132
H116	H	1.232134	-0.828056	-0.301911
H117	H	0.948309	-0.374782	-0.920516
H118	H	0.948259	-0.375737	-0.793784
N119	N	1.204937	-0.925804	-0.321611
H120	H	1.179880	-0.958300	-0.283765
H121	H	1.244444	-0.955023	-0.348021
H122	H	1.185396	-0.312720	-0.793559
H123	H	0.975078	-0.278826	-0.792724
