data_functionalizedCrystal
_audit_creation_method	'MofGen! by Chris Wilmer'
_symmetry_space_group_name_H-M	'P1'
_symmetry_Int_Tables_number	1
_symmetry_cell_setting	triclinic
loop_
_symmetry_equiv_pos_as_xyz
  x,y,z
_cell_length_a	23.532407
_cell_length_b	19.188905
_cell_length_c	18.266242
_cell_angle_alpha	89.983837
_cell_angle_beta	90.016826
_cell_angle_gamma	97.008346
loop_
_atom_site_label
_atom_site_type_symbol
_atom_site_fract_x
_atom_site_fract_y
_atom_site_fract_z
O1	O	-0.071034	0.925934	-0.061018
O2	O	-0.080620	0.722589	-0.060995
O3	O	0.007092	0.830393	-0.060983
O4	O	-0.158746	0.818130	-0.061030
O5	O	0.007096	0.830375	0.060779
O6	O	-0.080616	0.722571	0.060767
O7	O	-0.071030	0.925916	0.060744
Zn8	Zn	-0.075822	0.824241	0.080087
Zn9	Zn	-0.075828	0.824264	-0.080339
O10	O	-0.158742	0.818112	0.060732
C11	C	0.028311	0.830072	-0.000098
C12	C	0.091530	0.829133	-0.000084
C13	C	-0.080310	0.696570	-0.000111
C14	C	-0.079385	0.619067	-0.000101
C15	C	0.357836	0.761465	-0.000110
C16	C	0.298434	0.762337	-0.000107
O17	O	0.261799	0.708657	-0.000126
N18	N	0.275676	0.826426	-0.000107
C19	C	0.312324	0.889648	-0.000117
O20	O	0.287513	0.944241	-0.000117
C21	C	0.371725	0.888775	-0.000125
C22	C	0.394479	0.824681	-0.000118
C23	C	0.380591	0.697376	-0.000103
C24	C	0.439989	0.696504	-0.000105
C25	C	0.476632	0.759721	-0.000113
C26	C	0.453877	0.823809	-0.000119
C27	C	0.408372	0.951995	-0.000141
C28	C	0.467776	0.951117	-0.000149
C29	C	0.490530	0.887023	-0.000142
C30	C	0.549918	0.886154	-0.000129
N31	N	0.572676	0.822064	-0.000129
C32	C	0.536033	0.758848	-0.000121
C33	C	0.187578	0.891476	-0.000101
C34	C	0.128178	0.892350	-0.000088
C35	C	0.114292	0.765039	-0.000079
C36	C	0.173693	0.764166	-0.000087
C37	C	0.210336	0.827387	-0.000101
C38	C	0.660773	0.757022	-0.000123
C39	C	0.720177	0.756155	-0.000122
C40	C	0.734058	0.883466	-0.000135
C41	C	0.674659	0.884333	-0.000132
C42	C	0.638018	0.821105	-0.000129
O43	O	0.586588	0.939806	-0.000113
O44	O	0.560853	0.704264	-0.000130
C45	C	0.820039	0.818433	-0.000145
C46	C	0.756820	0.819372	-0.000130
C47	C	-0.078944	0.582687	-0.066476
C48	C	-0.078068	0.509866	-0.066484
C49	C	-0.077623	0.473431	-0.000115
C50	C	-0.078068	0.509819	0.066268
C51	C	-0.078949	0.582638	0.066275
N52	N	-0.043829	0.364511	0.049286
N53	N	-0.042991	0.295336	0.049275
C54	C	-0.074970	0.254032	-0.000132
N55	N	-0.107812	0.284517	-0.049539
N56	N	-0.108648	0.353698	-0.049530
C57	C	-0.076668	0.394471	-0.000115
C58	C	-0.073580	0.138691	-0.066521
C59	C	-0.072709	0.065868	-0.066527
C60	C	-0.072703	0.065824	0.066227
C61	C	-0.073580	0.138644	0.066232
C62	C	-0.074016	0.175074	-0.000144
C63	C	-0.071340	0.951935	-0.000142
C64	C	-0.072265	1.029438	-0.000157
N65	N	-0.075818	0.824229	0.189574
N66	N	-0.075828	0.824281	-0.189826
C67	C	-0.036998	0.871980	0.227889
C68	C	-0.036995	0.871985	0.304534
C69	C	-0.075822	0.824245	0.342861
C70	C	-0.114645	0.776485	0.304538
C71	C	-0.114643	0.776477	0.227894
N72	N	-0.126238	0.815008	0.463180
N73	N	-0.126238	0.815020	0.535988
C74	C	-0.075830	0.824264	0.573784
N75	N	-0.025420	0.833511	0.536021
N76	N	-0.025421	0.833503	0.463206
C77	C	-0.075829	0.824248	0.425968
C78	C	-0.037004	0.872023	0.695205
C79	C	-0.037001	0.872023	0.771851
C80	C	-0.114656	0.776526	0.771854
C81	C	-0.114654	0.776523	0.695209
C82	C	-0.075829	0.824275	0.656889
H83	H	0.738700	0.703961	-0.000113
H84	H	-0.146268	0.737642	0.664012
H85	H	-0.005383	0.910861	0.196691
H86	H	-0.072344	0.036158	0.120267
C87	C	-0.024447	0.967098	0.390696
C88	C	0.005678	0.924479	0.346658
H89	H	0.001899	0.999503	0.416702
H90	H	-0.048097	0.992039	0.360774
H91	H	-0.047567	0.938656	0.424487
H92	H	0.028795	0.952920	0.312864
H93	H	0.029338	0.899537	0.376583
C94	C	0.653030	0.631092	-0.000105
C95	C	0.620503	0.687521	-0.000114
H96	H	0.628168	0.588187	-0.000092
H97	H	0.676475	0.633408	-0.042566
H98	H	0.676501	0.633406	0.042356
H99	H	0.597035	0.685210	-0.042579
H100	H	0.597048	0.685204	0.042351
C101	C	-0.074925	0.250340	-0.125456
C102	C	-0.074065	0.178740	-0.139478
H103	H	-0.075221	0.275063	-0.170498
H104	H	-0.108269	0.256701	-0.098197
H105	H	-0.041861	0.267817	-0.098174
H106	H	-0.107131	0.161262	-0.166756
H107	H	-0.040718	0.172375	-0.166749
C108	C	-0.073480	0.131285	0.197448
C109	C	-0.074057	0.178640	0.139193
H110	H	-0.073771	0.155978	0.242493
H111	H	-0.106338	0.097324	0.194677
H112	H	-0.039931	0.108444	0.194687
H113	H	-0.107608	0.201477	0.141952
H114	H	-0.041195	0.212613	0.141966
H115	H	-0.146258	0.737613	0.335748
H116	H	-0.146255	0.737592	0.196698
C117	C	-0.127215	0.681432	0.858074
C118	C	-0.157335	0.724047	0.813976
H119	H	-0.153564	0.649035	0.884083
H120	H	-0.103566	0.656484	0.828193
H121	H	-0.104095	0.709878	0.891862
H122	H	-0.180452	0.695601	0.780184
H123	H	-0.180995	0.748997	0.843859
C124	C	0.420278	0.570755	-0.000105
C125	C	0.464994	0.626050	-0.000107
H126	H	0.435714	0.527258	-0.000113
H127	H	0.397413	0.573738	0.042357
H128	H	0.397386	0.573764	-0.042565
H129	H	0.487884	0.623044	0.042356
H130	H	0.487869	0.623066	-0.042574
H131	H	0.656132	0.936523	-0.000128
H132	H	-0.005389	0.910904	0.664004
C133	C	0.283369	0.642163	-0.000089
C134	C	0.340317	0.627881	-0.000094
H135	H	0.258510	0.599255	-0.000084
H136	H	0.276499	0.668448	0.042368
H137	H	0.276476	0.668463	-0.042555
H138	H	0.347212	0.601585	0.042375
H139	H	0.347190	0.601585	-0.042555
C140	C	0.153987	0.638415	-0.000081
C141	C	0.198701	0.693713	-0.000090
H142	H	0.169425	0.594920	-0.000089
H143	H	0.131124	0.641398	0.042382
H144	H	0.131093	0.641421	-0.042540
H145	H	0.221593	0.690710	0.042372
H146	H	0.221573	0.690729	-0.042558
C147	C	0.017064	0.709857	-0.000084
C148	C	0.074005	0.695548	-0.000082
H149	H	-0.007807	0.666958	-0.000091
H150	H	0.010197	0.736138	0.042376
H151	H	0.010183	0.736168	-0.042546
H152	H	0.080887	0.669241	0.042384
H153	H	0.080875	0.669255	-0.042546
H154	H	-0.005386	0.910905	0.803047
H155	H	0.109658	0.944541	-0.000082
C156	C	0.195328	1.017406	-0.000097
C157	C	0.227854	0.960975	-0.000102
H158	H	0.220191	1.060311	-0.000093
H159	H	0.171861	1.015105	-0.042553
H160	H	0.171879	1.015079	0.042369
H161	H	0.251299	0.963300	-0.042571
H162	H	0.251330	0.963278	0.042359
H163	H	0.389856	1.004187	-0.000147
H164	H	0.497609	1.002600	-0.000165
C165	C	-0.028120	0.436109	0.143288
C166	C	-0.077576	0.469774	0.139224
H167	H	-0.027817	0.411392	0.188332
H168	H	-0.027737	0.404020	0.103761
H169	H	0.004734	0.470089	0.140539
H170	H	-0.110430	0.435794	0.141967
H171	H	-0.077965	0.501867	0.178762
H172	H	0.763904	0.934935	-0.000138
C173	C	-0.078151	0.517219	-0.197705
C174	C	-0.077581	0.469866	-0.139448
H175	H	-0.077847	0.492525	-0.242749
H176	H	-0.111697	0.540056	-0.194956
H177	H	-0.045289	0.551185	-0.194926
H178	H	-0.110446	0.435903	-0.142224
H179	H	-0.044032	0.447018	-0.142198
H180	H	-0.079310	0.612258	0.120326
C181	C	-0.121378	0.035301	-0.179703
C182	C	-0.072223	0.025878	-0.139493
H183	H	-0.121074	0.010616	-0.224752
H184	H	-0.154433	0.017793	-0.152447
H185	H	-0.121957	0.083886	-0.189190
H186	H	-0.071646	-0.022707	-0.130001
H187	H	-0.039159	0.043383	-0.166754
H188	H	-0.079299	0.612344	-0.120524
