data_functionalizedCrystal
_audit_creation_method	'MofGen! by Chris Wilmer'
_symmetry_space_group_name_H-M	'P1'
_symmetry_Int_Tables_number	1
_symmetry_cell_setting	triclinic
loop_
_symmetry_equiv_pos_as_xyz
  x,y,z
_cell_length_a	19.188930
_cell_length_b	8.140239
_cell_length_c	9.065215
_cell_angle_alpha	89.997429
_cell_angle_beta	84.079739
_cell_angle_gamma	89.983403
loop_
_atom_site_label
_atom_site_type_symbol
_atom_site_fract_x
_atom_site_fract_y
_atom_site_fract_z
O1	O	0.927573	-0.137139	0.184174
O2	O	1.427573	0.362861	0.684174
O3	O	0.724454	-0.137026	0.208968
O4	O	1.224454	0.362974	0.708968
O5	O	0.830213	-0.137078	-0.018217
O6	O	1.330213	0.362922	0.481783
O7	O	0.821814	-0.137087	0.411359
O8	O	1.321814	0.362913	0.911359
O9	O	0.830207	0.136149	-0.018220
O10	O	1.330207	0.636149	0.481780
O11	O	0.724448	0.136201	0.208965
O12	O	1.224448	0.636201	0.708965
O13	O	0.927567	0.136088	0.184172
O14	O	1.427567	0.636088	0.684172
Zn15	Zn	0.826007	0.179525	0.196568
Zn16	Zn	1.326007	0.679525	0.696568
Zn17	Zn	0.826015	-0.180463	0.196571
Zn18	Zn	1.326015	0.319537	0.696571
O19	O	0.821808	0.136140	0.411357
O20	O	1.321808	0.636140	0.911357
C21	C	0.698434	-0.000398	0.208164
C22	C	1.198434	0.499602	0.708164
C23	C	0.620911	-0.000355	0.205753
C24	C	1.120911	0.499645	0.705753
N25	N	0.826007	0.425208	0.196565
N26	N	1.326007	0.925208	0.696565
N27	N	0.826020	-0.426146	0.196563
N28	N	1.326020	0.073854	0.696563
C29	C	0.577022	-0.000384	0.339058
C30	C	1.077022	0.499616	0.839058
C31	C	0.504181	-0.000402	0.336794
C32	C	1.004181	0.499598	0.836794
C33	C	0.475231	-0.000424	0.201217
C34	C	0.975231	0.499576	0.701217
C35	C	0.519130	-0.000386	0.067895
C36	C	1.019130	0.499614	0.567895
C37	C	0.591970	-0.000352	0.070163
C38	C	1.091970	0.499648	0.570163
N39	N	0.366449	-0.093479	0.097587
N40	N	0.866449	0.406521	0.597587
N41	N	0.297253	-0.093515	0.095441
N42	N	0.797253	0.406485	0.595441
C43	C	0.255770	-0.000524	0.194375
C44	C	0.755770	0.499476	0.694375
N45	N	0.286094	0.092484	0.295559
N46	N	0.786094	0.592484	0.795559
N47	N	0.355295	0.092513	0.297709
N48	N	0.855295	0.592513	0.797709
C49	C	0.396250	-0.000460	0.198743
C50	C	0.896250	0.499540	0.698743
C51	C	0.132897	-0.000570	0.325234
C52	C	0.632897	0.499430	0.825234
C53	C	0.060055	-0.000578	0.322964
C54	C	0.560055	0.499422	0.822964
C55	C	0.075006	-0.000579	0.054061
C56	C	0.575006	0.499421	0.554061
C57	C	0.147847	-0.000555	0.056335
C58	C	0.647847	0.499445	0.556335
C59	C	0.176788	-0.000558	0.191925
C60	C	0.676788	0.499442	0.691925
C61	C	0.953587	-0.000544	0.184976
C62	C	1.453587	0.499456	0.684976
C63	C	1.031111	-0.000598	0.187386
C64	C	1.531111	0.499402	0.687386
C65	C	0.829404	-0.000466	-0.073177
C66	C	1.329404	0.499534	0.426823
C67	C	0.826991	-0.000469	-0.236937
C68	C	1.326991	0.499531	0.263063
C69	C	0.822618	-0.000476	0.466317
C70	C	1.322618	0.499524	0.966317
C71	C	0.825030	-0.000483	0.630076
C72	C	1.325030	0.499517	1.130076
H73	H	0.600581	-0.000390	0.449466
H74	H	1.100581	0.499610	0.949466
Br75	Br	0.444605	-0.000431	0.517720
Br76	Br	0.944605	0.499569	1.017720
H77	H	0.051436	-0.000699	-0.056328
H78	H	0.551436	0.499301	0.443672
H79	H	0.183582	-0.000540	-0.052216
H80	H	0.683582	0.499460	0.447784
H81	H	0.495555	-0.000427	-0.042493
H82	H	0.995555	0.499573	0.457507
Br83	Br	0.651538	-0.000309	-0.110765
Br84	Br	1.151538	0.499691	0.389235
H85	H	0.156462	-0.000549	0.435640
H86	H	0.656462	0.499451	0.935640
H87	H	0.024320	-0.000592	0.431521
H88	H	0.524320	0.499408	0.931521
