data_functionalizedCrystal
_audit_creation_method	'MofGen! by Chris Wilmer'
_symmetry_space_group_name_H-M	'P1'
_symmetry_Int_Tables_number	1
_symmetry_cell_setting	triclinic
loop_
_symmetry_equiv_pos_as_xyz
  x,y,z
_cell_length_a	15.944545
_cell_length_b	15.944499
_cell_length_c	12.996460
_cell_angle_alpha	89.991289
_cell_angle_beta	89.991915
_cell_angle_gamma	83.486891
loop_
_atom_site_label
_atom_site_type_symbol
_atom_site_fract_x
_atom_site_fract_y
_atom_site_fract_z
O1	O	0.108127	1.114551	-0.085633
O2	O	0.121528	0.869995	-0.085623
O3	O	-0.007449	0.998954	-0.085616
O4	O	0.237104	0.985592	-0.085640
O5	O	-0.007455	0.998939	0.085518
O6	O	0.121522	0.869980	0.085511
O7	O	0.108120	1.114536	0.085500
Cu8	Cu	0.114820	0.992257	0.101132
Cu9	Cu	0.114828	0.992274	-0.101254
O10	O	0.237098	0.985577	0.085494
C11	C	0.120977	0.838693	-0.000054
C12	C	0.119332	0.745444	-0.000049
C13	C	-0.038746	0.998393	-0.000048
C14	C	-0.131992	0.996732	-0.000045
C15	C	0.194264	0.453907	-0.000072
C16	C	0.155315	0.514944	-0.084448
C17	C	0.113355	0.409808	-0.000073
C18	C	0.155287	0.514915	0.084276
C19	C	0.116296	0.574717	-0.000060
C20	C	0.074384	0.469617	-0.084518
C21	C	0.074367	0.469582	0.084282
C22	C	0.035360	0.530602	-0.000115
C23	C	0.111664	0.314808	-0.000081
C24	C	0.117981	0.669716	-0.000059
C25	C	-0.402609	0.911837	-0.000062
C26	C	-0.352028	0.952774	-0.084442
C27	C	-0.467635	0.990811	-0.000074
C28	C	-0.352061	0.952780	0.084282
C29	C	-0.302722	0.993716	-0.000058
C30	C	-0.418282	1.031728	-0.084524
C31	C	-0.418319	1.031723	0.084276
C32	C	-0.367771	1.072718	-0.000125
C33	C	-0.562637	0.989136	-0.000084
C34	C	-0.207723	0.995398	-0.000055
C35	C	0.268395	0.986138	-0.000076
C36	C	0.361641	0.987798	-0.000086
C37	C	0.108672	1.145838	-0.000070
C38	C	0.110317	1.239086	-0.000082
N39	N	0.114814	0.992250	0.243479
C40	C	0.114832	0.992267	0.663293
C41	C	0.114830	0.992260	0.546488
C42	C	0.114824	0.992259	0.453390
C43	C	0.114820	0.992251	0.336577
N44	N	0.114831	0.992279	0.756399
H45	H	0.261410	0.420575	-0.000160
O46	O	-0.317658	0.912859	0.169365
C47	C	-0.335034	0.828104	0.169035
H48	H	-0.393099	0.822010	0.119624
H49	H	-0.347430	0.807439	0.251094
H50	H	-0.278624	0.786329	0.136120
H51	H	0.189542	0.535047	-0.155784
H52	H	-0.418249	0.843822	-0.000142
O53	O	-0.453018	1.071473	0.169299
C54	C	-0.541254	1.069996	0.167604
H55	H	-0.562948	1.061687	0.085025
H56	H	-0.573553	1.131903	0.199824
H57	H	-0.558614	1.015208	0.216590
O58	O	0.033680	0.445889	-0.169824
C59	C	0.076174	0.469516	-0.258540
H60	H	0.114465	0.523544	-0.238882
H61	H	0.028109	0.490855	-0.320840
H62	H	0.120307	0.413254	-0.287637
H63	H	-0.031846	0.563781	-0.000153
H64	H	0.040172	0.449460	0.155624
H65	H	0.189519	0.534984	0.155607
O66	O	-0.317513	0.912858	-0.169466
C67	C	-0.334911	0.828110	-0.169178
H68	H	-0.347996	0.808058	-0.087066
H69	H	-0.278239	0.786089	-0.201047
H70	H	-0.392564	0.821654	-0.219187
O71	O	-0.452776	1.071431	-0.169696
C72	C	-0.540944	1.069379	-0.168685
H73	H	-0.556942	1.014640	-0.118674
H74	H	-0.564199	1.060582	-0.250495
H75	H	-0.572984	1.131254	-0.136069
H76	H	-0.352292	1.140785	-0.000175
