data_functionalizedCrystal
_audit_creation_method	'MofGen! by Chris Wilmer'
_symmetry_space_group_name_H-M	'P1'
_symmetry_Int_Tables_number	1
_symmetry_cell_setting	triclinic
loop_
_symmetry_equiv_pos_as_xyz
  x,y,z
_cell_length_a	13.635800
_cell_length_b	10.992421
_cell_length_c	15.866475
_cell_angle_alpha	69.544491
_cell_angle_beta	102.659066
_cell_angle_gamma	71.235237
loop_
_atom_site_label
_atom_site_type_symbol
_atom_site_fract_x
_atom_site_fract_y
_atom_site_fract_z
V1	V	2.066183	-0.319353	0.298898
O2	O	2.045075	-0.130361	0.293222
O3	O	2.054910	-0.493087	0.296841
O4	O	2.058931	-0.378374	0.429264
O5	O	2.041027	-0.245868	0.159882
V6	V	2.304126	-0.289193	0.282272
O7	O	2.205189	-0.385511	0.335368
O8	O	2.390219	-0.223035	0.245802
O9	O	2.203796	-0.115458	0.284330
O10	O	2.383933	-0.478184	0.287948
O11	O	2.387981	-0.362678	0.421288
O12	O	2.199776	-0.230171	0.151906
V13	V	2.566183	-0.319353	0.298898
O14	O	2.545075	-0.130361	0.293222
O15	O	2.554910	-0.493087	0.296841
O16	O	2.558931	-0.378374	0.429264
O17	O	2.541027	-0.245868	0.159882
V18	V	2.804126	-0.289193	0.282272
O19	O	2.705189	-0.385511	0.335368
O20	O	2.890219	-0.223035	0.245802
O21	O	2.703796	-0.115458	0.284330
O22	O	2.883933	-0.478184	0.287948
O23	O	2.887981	-0.362678	0.421288
O24	O	2.699776	-0.230171	0.151906
C25	C	1.980007	-0.533442	0.292122
C26	C	2.011547	-0.675883	0.291309
C27	C	1.945180	-0.868065	0.284753
C28	C	1.912153	-0.719641	0.285219
C29	C	2.044141	-0.672167	0.201905
C30	C	2.076231	-0.820262	0.200959
C31	C	2.147538	-0.945662	0.384230
C32	C	2.113070	-0.798067	0.386170
C33	C	1.985135	-0.387112	0.461040
C34	C	2.019932	-0.436518	0.567614
C35	C	2.110370	-0.075109	0.289046
C36	C	2.068451	0.067328	0.289865
C37	C	2.105242	-0.221435	0.120126
C38	C	2.060064	-0.172022	0.013550
C39	C	2.480007	-0.533442	0.292122
C40	C	2.511547	-0.675883	0.291309
C41	C	2.485135	-0.387112	0.461040
C42	C	2.519932	-0.436518	0.567614
C43	C	1.980219	0.021749	0.849656
C44	C	2.012911	-0.024694	0.949801
C45	C	2.074546	-0.272966	0.977172
C46	C	2.041863	-0.226545	0.877028
C47	C	1.994700	-0.079186	0.813277
C48	C	2.056344	-0.327480	0.840649
C49	C	2.023659	-0.281061	0.740514
C50	C	1.976492	-0.133708	0.676757
C51	C	1.962014	-0.032767	0.713142
C52	C	2.103500	-0.474838	0.904401
C53	C	2.117981	-0.575773	0.868022
C54	C	2.085303	-0.529356	0.767885
C55	C	2.038137	-0.382002	0.704129
C56	C	2.099781	-0.630296	0.731501
C57	C	2.067095	-0.583878	0.631365
C58	C	2.005451	-0.335584	0.603993
C59	C	2.610370	-0.075109	0.289046
C60	C	2.568451	0.067328	0.289865
C61	C	2.605242	-0.221435	0.120126
C62	C	2.560064	-0.172022	0.013550
C63	C	2.628466	-0.468440	0.622549
C64	C	2.661171	-0.514845	0.722686
C65	C	2.585344	-0.529337	0.767887
C66	C	2.476800	-0.497407	0.712945
C67	C	2.444094	-0.450993	0.612809
C68	C	2.453663	-0.157527	-0.031627
C69	C	2.411194	-0.111082	-0.131767
C70	C	2.475130	-0.079143	-0.186727
C71	C	2.581539	-0.093636	-0.141545
C72	C	2.624004	-0.140070	-0.041407
C73	C	2.445180	-0.868065	0.284753
C74	C	2.412153	-0.719641	0.285219
C75	C	2.544141	-0.672167	0.201905
C76	C	2.576231	-0.820262	0.200959
C77	C	2.647538	-0.945662	0.384230
C78	C	2.613070	-0.798067	0.386170
H79	H	1.885527	-0.724139	0.349101
H80	H	2.710647	-0.151875	-0.004632
H81	H	2.749558	-0.540843	0.767407
H82	H	2.737605	-0.988999	0.388916
H83	H	2.611990	-0.567132	0.849425
H84	H	2.616989	-0.642420	0.202936
H85	H	1.934193	-0.944559	0.348239
H86	H	2.018679	-0.804150	0.129974
H87	H	2.688263	-0.772590	0.396155
H88	H	2.324548	-0.099289	-0.168540
H89	H	2.440545	-0.041351	-0.268263
H90	H	1.835748	-0.634935	0.217109
H91	H	2.518679	-0.804150	0.129974
H92	H	2.664332	-0.861078	0.200818
H93	H	2.401586	-0.183527	0.013110
H94	H	1.885221	-0.856387	0.216699
H95	H	2.415069	-0.509214	0.749763
H96	H	2.164332	-0.861078	0.200818
H97	H	2.001133	0.057509	0.979415
H98	H	2.471718	-0.584661	0.131677
H99	H	2.355715	-0.425008	0.568088
H100	H	2.633586	-0.067620	-0.186309
H101	H	2.385527	-0.724139	0.349101
H102	H	2.690224	-0.456652	0.585760
H103	H	2.188263	-0.772590	0.396155
H104	H	2.434193	-0.944559	0.348239
H105	H	2.385221	-0.856387	0.216699
H106	H	2.335748	-0.634935	0.217109
H107	H	2.646419	-1.027225	0.451879
H108	H	1.923619	0.087226	0.661232
H109	H	2.590575	-0.805505	0.452315
H110	H	1.967055	-0.215590	0.552083
H111	H	2.116989	-0.642420	0.202936
H112	H	2.237605	-0.988999	0.388916
H113	H	1.971718	-0.584661	0.131677
H114	H	2.090575	-0.805505	0.452315
H115	H	2.146419	-1.027225	0.451879
H116	H	1.949871	-0.095916	0.595220
H117	H	1.941823	0.141743	0.797747
H118	H	2.112946	-0.392947	1.029091
H119	H	2.130107	-0.512627	0.985937
H120	H	2.156381	-0.695753	0.919941
H121	H	2.138174	-0.750276	0.783420
H122	H	2.078884	-0.666069	0.601745
