data_functionalizedCrystal
_audit_creation_method	'MofGen! by Chris Wilmer'
_symmetry_space_group_name_H-M	'P1'
_symmetry_Int_Tables_number	1
_symmetry_cell_setting	triclinic
loop_
_symmetry_equiv_pos_as_xyz
  x,y,z
_cell_length_a	8.559649
_cell_length_b	10.654550
_cell_length_c	7.088929
_cell_angle_alpha	83.717104
_cell_angle_beta	95.325015
_cell_angle_gamma	77.131784
loop_
_atom_site_label
_atom_site_type_symbol
_atom_site_fract_x
_atom_site_fract_y
_atom_site_fract_z
O1	O	2.103417	-0.028084	-0.158957
O2	O	1.638930	0.036703	-0.158966
O3	O	1.881854	-0.179534	-0.158954
O4	O	1.860494	0.188152	-0.158969
O5	O	1.914318	-0.208490	0.159022
O6	O	1.671394	0.007747	0.159011
O7	O	2.135881	-0.057041	0.159020
Cu8	Cu	1.906602	-0.027291	0.188049
Cu9	Cu	1.868210	0.006953	-0.187995
O10	O	1.892957	0.159196	0.159008
C11	C	1.595687	0.027135	0.000021
C12	C	1.418468	0.041749	0.000018
C13	C	1.896517	-0.240648	0.000032
C14	C	1.891825	-0.379606	0.000025
C15	C	2.034854	-0.473867	0.000033
C16	C	2.030434	-0.604430	0.000020
C17	C	1.739944	-0.546457	-0.000003
C18	C	1.744364	-0.415896	-0.000003
C19	C	2.182315	-0.437576	0.000061
C20	C	2.325357	-0.531840	0.000072
C21	C	2.320937	-0.662403	0.000058
C22	C	2.173476	-0.698703	0.000034
C23	C	2.179124	-0.047472	0.000028
C24	C	2.356341	-0.062086	0.000019
C25	C	1.878293	0.220310	0.000017
C26	C	1.882985	0.359270	0.000012
N27	N	1.933616	-0.051378	0.452538
N28	N	1.841208	0.031029	-0.452485
H29	H	1.336070	0.141835	0.000003
N30	N	2.060503	-0.164494	0.560693
H31	H	2.037468	-0.248583	0.525970
H32	H	2.170393	-0.157778	0.525876
N33	N	1.465458	-0.194656	0.000015
H34	H	1.580836	-0.186657	0.000017
H35	H	1.456227	-0.253733	0.117895
N36	N	2.187081	-0.296757	0.000075
H37	H	2.302195	-0.288066	0.000091
H38	H	2.119017	-0.243276	-0.117811
H39	H	1.745437	0.116428	0.465864
N40	N	2.484397	-0.492697	0.000096
H41	H	2.465499	-0.395685	0.000113
H42	H	2.559070	-0.538921	0.117981
H43	H	2.437406	-0.739149	0.000047
N44	N	2.168686	-0.839519	0.000009
H45	H	2.212611	-0.871611	-0.117866
H46	H	2.236655	-0.892993	0.117960
N47	N	1.580902	-0.585597	-0.000010
H48	H	1.560557	-0.627742	-0.117880
H49	H	1.584732	-0.649161	0.117946
N50	N	1.590088	-0.314242	0.000034
H51	H	1.597493	-0.269526	0.117917
H52	H	1.573471	-0.248116	-0.117910
