data_functionalizedCrystal
_audit_creation_method	'MofGen! by Chris Wilmer'
_symmetry_space_group_name_H-M	'P1'
_symmetry_Int_Tables_number	1
_symmetry_cell_setting	triclinic
loop_
_symmetry_equiv_pos_as_xyz
  x,y,z
_cell_length_a	16.992695
_cell_length_b	16.109301
_cell_length_c	16.053802
_cell_angle_alpha	87.422229
_cell_angle_beta	87.258926
_cell_angle_gamma	92.935148
loop_
_atom_site_label
_atom_site_type_symbol
_atom_site_fract_x
_atom_site_fract_y
_atom_site_fract_z
O1	O	0.097485	-1.113143	0.069377
O2	O	0.597485	-0.613143	0.569377
O3	O	0.110027	-0.871918	0.069390
O4	O	0.610027	-0.371918	0.569390
O5	O	-0.010386	-0.991563	0.069377
O6	O	0.489614	-0.491563	0.569377
O7	O	0.217898	-0.993498	0.069390
O8	O	0.717898	-0.493498	0.569390
O9	O	-0.003786	-0.984976	-0.069481
O10	O	0.496214	-0.484976	0.430519
O11	O	0.116627	-0.865331	-0.069468
O12	O	0.616627	-0.365331	0.430532
O13	O	0.104086	-1.106555	-0.069481
O14	O	0.604086	-0.606555	0.430519
Zn15	Zn	0.111404	-0.984897	-0.091521
Zn16	Zn	0.611404	-0.484897	0.408479
Zn17	Zn	0.102708	-0.993576	0.091430
Zn18	Zn	0.602708	-0.493576	0.591430
O19	O	0.224499	-0.986911	-0.069468
O20	O	0.724499	-0.486911	0.430532
C21	C	0.112819	-0.837616	-0.000037
C22	C	0.612819	-0.337616	0.499963
C23	C	0.111296	-0.745219	-0.000032
C24	C	0.611296	-0.245219	0.499968
C25	C	-0.036298	-0.985782	-0.000052
C26	C	0.463702	-0.485782	0.499948
C27	C	-0.123340	-0.978358	-0.000051
C28	C	0.376660	-0.478358	0.499949
C29	C	0.101293	-1.140858	-0.000052
C30	C	0.601293	-0.640858	0.499948
C31	C	0.102817	-1.233255	-0.000051
C32	C	0.602817	-0.733255	0.499949
C33	C	-0.173599	-1.049984	-0.000056
C34	C	0.326401	-0.549984	0.499944
C35	C	-0.255384	-1.043004	-0.000048
C36	C	0.244616	-0.543004	0.499952
C37	C	-0.286909	-0.964398	-0.000041
C38	C	0.213091	-0.464398	0.499959
C39	C	-0.236644	-0.892767	-0.000033
C40	C	0.263356	-0.392767	0.499967
C41	C	-0.154860	-0.899747	-0.000036
C42	C	0.345140	-0.399747	0.499964
C43	C	-0.530500	-0.935466	-0.000028
C44	C	-0.030500	-0.435466	0.499972
C45	C	-0.612289	-0.928490	-0.000028
C46	C	-0.112289	-0.428490	0.499972
C47	C	-0.631024	-1.078729	-0.000041
C48	C	-0.131024	-0.578729	0.499959
C49	C	-0.549238	-1.085702	-0.000048
C50	C	-0.049238	-0.585702	0.499952
C51	C	-0.498980	-1.014071	-0.000036
C52	C	0.001020	-0.514071	0.499964
N53	N	-0.370506	-0.957261	-0.000035
N54	N	0.129494	-0.457261	0.499965
N55	N	-0.415385	-1.021209	-0.000036
N56	N	0.084615	-0.521209	0.499964
C57	C	0.250410	-0.992692	-0.000037
C58	C	0.750410	-0.492692	0.499963
C59	C	0.337452	-1.000116	-0.000033
C60	C	0.837452	-0.500116	0.499967
N61	N	0.117339	-0.978980	-0.216381
N62	N	0.617339	-0.478980	0.283619
C63	C	0.179205	-0.527478	-0.000038
C64	C	0.679205	-0.027478	0.499962
C65	C	0.177768	-0.440662	-0.000043
C66	C	0.677768	0.059338	0.499957
C67	C	0.034902	-0.451002	-0.000048
C68	C	0.534902	0.048998	0.499952
C69	C	0.036340	-0.537817	-0.000049
C70	C	0.536340	-0.037817	0.499951
C71	C	0.108494	-0.576053	-0.000039
C72	C	0.608494	-0.076053	0.499961
C73	C	0.105618	-0.402421	-0.000044
C74	C	0.605618	0.097579	0.499956
C75	C	0.104060	-0.308291	-0.000050
C76	C	0.604060	0.191709	0.499950
C77	C	0.110053	-0.670189	-0.000035
C78	C	0.610053	-0.170189	0.499965
C79	C	0.066121	-1.029910	-0.260081
C80	C	0.566121	-0.529910	0.239919
C81	C	0.070280	-1.025779	-0.347487
C82	C	0.570280	-0.525779	0.152513
C83	C	0.125661	-0.970722	-0.391192
C84	C	0.625661	-0.470722	0.108808
C85	C	0.176881	-0.919786	-0.347486
C86	C	0.676881	-0.419786	0.152514
C87	C	0.172718	-0.923913	-0.260082
C88	C	0.672718	-0.423913	0.239918
C89	C	0.143824	-0.952692	-0.652600
C90	C	0.643824	-0.452692	-0.152600
C91	C	0.147985	-0.948570	-0.740011
C92	C	0.647985	-0.448570	-0.240011
C93	C	0.041382	-1.054562	-0.740005
C94	C	0.541382	-0.554562	-0.240005
C95	C	0.037227	-1.058688	-0.652599
C96	C	0.537227	-0.558688	-0.152599
C97	C	0.088445	-1.007750	-0.608901
C98	C	0.588445	-0.507750	-0.108901
N99	N	0.129915	-0.966500	-0.480535
N100	N	0.629915	-0.466500	0.019465
N101	N	0.084186	-1.011968	-0.519559
N102	N	0.584186	-0.511968	-0.019559
N103	N	0.096767	-0.999500	0.216290
N104	N	0.596767	-0.499500	0.716290
H105	H	-0.147938	-1.113994	-0.000067
H106	H	0.352062	-0.613994	0.499933
H107	H	0.235349	-0.401116	-0.000044
H108	H	0.735349	0.098884	0.499956
H109	H	-0.296302	-1.101330	-0.000054
H110	H	0.203698	-0.601330	0.499946
H111	H	-0.637952	-0.864476	-0.000035
H112	H	-0.137952	-0.364476	0.499965
H113	H	0.028574	-1.067250	-0.383067
H114	H	0.528574	-0.567250	0.116933
H115	H	-0.113940	-0.841422	-0.000031
H116	H	0.386060	-0.341422	0.499969
C117	C	-0.686305	-1.157518	-0.000045
C118	C	-0.186305	-0.657518	0.499955
H119	H	-0.655815	-1.205331	-0.000054
H120	H	-0.155815	-0.705331	0.499946
H121	H	-0.720896	-1.160215	0.048379
H122	H	-0.220896	-0.660215	0.548379
H123	H	-0.716298	-1.155622	-0.048473
H124	H	-0.216298	-0.655622	0.451527
C125	C	-0.044463	-0.408944	-0.000048
C126	C	0.455537	0.091056	0.499952
H127	H	-0.086371	-0.450310	-0.000056
H128	H	0.413629	0.049690	0.499944
H129	H	-0.050294	-0.377589	0.048376
H130	H	0.449706	0.122411	0.548376
H131	H	-0.045695	-0.372998	-0.048476
H132	H	0.454305	0.127002	0.451524
H133	H	0.193086	-0.903733	-0.775591
H134	H	0.693086	-0.403733	-0.275591
C135	C	-0.514567	-1.172170	-0.000045
C136	C	-0.014567	-0.672170	0.499955
H137	H	-0.556214	-1.213830	-0.000038
H138	H	-0.056214	-0.713830	0.499962
H139	H	-0.480752	-1.175722	-0.048466
H140	H	0.019248	-0.675722	0.451534
H141	H	-0.485354	-1.180307	0.048385
H142	H	0.014646	-0.680307	0.548385
H143	H	-0.021245	-0.577368	-0.000052
H144	H	0.478755	-0.077368	0.499948
C145	C	0.229057	-0.867894	-0.212008
C146	C	0.729057	-0.367894	0.287992
H147	H	0.218641	-0.878231	-0.153694
H148	H	0.718641	-0.378231	0.346306
H149	H	0.282073	-0.879718	-0.226319
H150	H	0.782073	-0.379718	0.273681
H151	H	0.221201	-0.811163	-0.226345
H152	H	0.721201	-0.311163	0.273655
H153	H	0.021028	-1.074747	-0.224502
H154	H	0.521028	-0.574747	0.275498
C155	C	0.200167	-0.896669	-0.604543
C156	C	0.700167	-0.396669	-0.104543
H157	H	0.233751	-0.863296	-0.643093
H158	H	0.733751	-0.363296	-0.143093
H159	H	0.170332	-0.861795	-0.570457
H160	H	0.670332	-0.361795	-0.070457
H161	H	0.231195	-0.930358	-0.570436
H162	H	0.731195	-0.430358	-0.070436
H163	H	-0.007868	-1.103520	-0.617016
H164	H	0.492132	-0.603520	-0.117016
H165	H	-0.000317	-1.096033	-0.775592
H166	H	0.499683	-0.596033	-0.275592
H167	H	0.221971	-0.874953	-0.383076
H168	H	0.721971	-0.374953	0.116924
H169	H	-0.489589	-0.877138	-0.000018
H170	H	0.010411	-0.377138	0.499982
H171	H	-0.262318	-0.828764	-0.000022
H172	H	0.237682	-0.328764	0.499978
C173	C	0.258571	-0.569535	-0.000037
C174	C	0.758571	-0.069535	0.499963
H175	H	0.300478	-0.528168	-0.000044
H176	H	0.800478	-0.028168	0.499956
H177	H	0.259805	-0.605482	0.048386
H178	H	0.759805	-0.105482	0.548386
H179	H	0.264400	-0.600890	-0.048466
H180	H	0.764400	-0.100890	0.451534
