data_functionalizedCrystal
_audit_creation_method	'MofGen! by Chris Wilmer'
_symmetry_space_group_name_H-M	'P1'
_symmetry_Int_Tables_number	1
_symmetry_cell_setting	triclinic
loop_
_symmetry_equiv_pos_as_xyz
  x,y,z
_cell_length_a	16.120484
_cell_length_b	13.897449
_cell_length_c	13.897441
_cell_angle_alpha	90.020722
_cell_angle_beta	92.866498
_cell_angle_gamma	87.074557
loop_
_atom_site_label
_atom_site_type_symbol
_atom_site_fract_x
_atom_site_fract_y
_atom_site_fract_z
Zn1	Zn	-0.331892	-1.455159	-0.564880
Zn2	Zn	0.001441	-1.121825	-0.231547
Zn3	Zn	0.334775	-0.788492	0.101787
Zn4	Zn	-0.471321	-1.446857	-0.411750
Zn5	Zn	-0.137988	-1.113523	-0.078416
Zn6	Zn	0.195346	-0.780190	0.254917
Zn7	Zn	-0.331926	-1.293852	-0.403594
Zn8	Zn	0.001408	-0.960519	-0.070261
Zn9	Zn	0.334741	-0.627185	0.263072
Zn10	Zn	-0.471265	-1.285631	-0.572993
Zn11	Zn	-0.137932	-0.952298	-0.239660
Zn12	Zn	0.195402	-0.618964	0.093674
O13	O	-0.401601	-1.370375	-0.488304
O14	O	-0.068268	-1.037041	-0.154971
O15	O	0.265066	-0.703708	0.178362
O16	O	-0.350397	-1.589038	-0.544585
O17	O	-0.017063	-1.255705	-0.211251
O18	O	0.316270	-0.922372	0.122082
O19	O	-0.452867	-1.426526	-0.275688
O20	O	-0.119534	-1.093193	0.057645
O21	O	0.213799	-0.759860	0.390978
O22	O	-0.215256	-1.322164	-0.418181
O23	O	0.118078	-0.988831	-0.084847
O24	O	0.451411	-0.655498	0.248486
O25	O	-0.452835	-1.582939	-0.432081
O26	O	-0.119501	-1.249606	-0.098747
O27	O	0.213832	-0.916272	0.234586
O28	O	-0.215231	-1.440676	-0.536676
O29	O	0.118103	-1.107343	-0.203343
O30	O	0.451436	-0.774009	0.129990
O31	O	-0.350454	-1.314114	-0.269697
O32	O	-0.017121	-0.980781	0.063637
O33	O	0.316212	-0.647448	0.396970
O34	O	-0.350400	-1.157780	-0.426048
O35	O	-0.017067	-0.824447	-0.092714
O36	O	0.316267	-0.491114	0.240619
O37	O	-0.452739	-1.308153	-0.706896
O38	O	-0.119406	-0.974820	-0.373563
O39	O	0.213927	-0.641486	-0.040230
O40	O	-0.452772	-1.151740	-0.550504
O41	O	-0.119439	-0.818407	-0.217171
O42	O	0.213895	-0.485074	0.116162
O43	O	-0.350342	-1.432704	-0.700936
O44	O	-0.017009	-1.099371	-0.367602
O45	O	0.316324	-0.766038	-0.034269
O46	O	-0.587979	-1.418555	-0.439948
O47	O	-0.254646	-1.085222	-0.106614
O48	O	0.078688	-0.751888	0.226719
O49	O	-0.587938	-1.300103	-0.558412
O50	O	-0.254605	-0.966770	-0.225079
O51	O	0.078729	-0.633436	0.108254
C52	C	-0.401584	-1.119761	-0.488272
C53	C	-0.068251	-0.786428	-0.154939
C54	C	0.265082	-0.453095	0.178395
C55	C	-0.401597	-1.012547	-0.488282
C56	C	-0.068264	-0.679213	-0.154949
C57	C	0.265069	-0.345880	0.178384
C58	C	-0.401596	-0.816251	-0.488300
C59	C	-0.068263	-0.482918	-0.154967
C60	C	0.265071	-0.149585	0.178366
C61	C	-0.401594	-0.925484	-0.488287
C62	C	-0.068261	-0.592151	-0.154954
C63	C	0.265073	-0.258817	0.178379
C64	C	-0.618209	-1.357562	-0.500966
C65	C	-0.284875	-1.024229	-0.167633
C66	C	0.048458	-0.690896	0.165700
C67	C	-0.710874	-1.352169	-0.506416
C68	C	-0.377541	-1.018836	-0.173082
C69	C	-0.044208	-0.685503	0.160251
C70	C	-0.880536	-1.342329	-0.516384
C71	C	-0.547202	-1.008995	-0.183051
C72	C	-0.213869	-0.675662	0.150283
C73	C	-0.921826	-1.398593	-0.460240
C74	C	-0.588492	-1.065260	-0.126907
C75	C	-0.255159	-0.731927	0.206426
C76	C	-1.016231	-1.393118	-0.465787
C77	C	-0.682898	-1.059785	-0.132453
C78	C	-0.349564	-0.726451	0.200880
C79	C	-0.786122	-1.347803	-0.510839
C80	C	-0.452788	-1.014469	-0.177505
C81	C	-0.119455	-0.681136	0.155828
C82	C	-0.184147	-1.383263	-0.475614
C83	C	0.149186	-1.049930	-0.142280
C84	C	0.482519	-0.716597	0.191053
C85	C	-0.091482	-1.388756	-0.470206
C86	C	0.241852	-1.055422	-0.136873
C87	C	0.575185	-0.722089	0.196461
C88	C	-0.401531	-1.370438	-0.739893
C89	C	-0.068198	-1.037104	-0.406560
C90	C	0.265136	-0.703771	-0.073227
C91	C	-0.401501	-1.370465	-0.847106
C92	C	-0.068168	-1.037131	-0.513772
C93	C	0.265166	-0.703798	-0.180439
C94	C	-0.401613	-0.621967	-0.488328
C95	C	-0.068279	-0.288633	-0.154994
C96	C	0.265054	0.044700	0.178339
C97	C	-0.401604	-0.729181	-0.488313
C98	C	-0.068270	-0.395848	-0.154980
C99	C	0.265063	-0.062515	0.178354
C100	C	-0.401477	-1.370486	-0.934174
C101	C	-0.068144	-1.037152	-0.600841
C102	C	0.265189	-0.703819	-0.267507
C103	C	-0.401440	-1.370516	-1.043404
C104	C	-0.068107	-1.037182	-0.710071
C105	C	0.265227	-0.703849	-0.376738
C106	C	-0.401610	-1.370371	-0.237690
C107	C	-0.068277	-1.037037	0.095643
C108	C	0.265056	-0.703704	0.428976
C109	C	-0.401405	-1.370544	-0.130465
C110	C	-0.068072	-1.037211	0.202868
C111	C	0.265261	-0.703878	0.536202
H112	H	-0.886274	-1.450874	-0.408008
H113	H	-0.552941	-1.117541	-0.074674
H114	H	-0.219607	-0.784207	0.258659
H115	H	-0.916085	-1.290051	-0.568611
H116	H	-0.582751	-0.956717	-0.235278
H117	H	-0.249418	-0.623384	0.098056
