data_functionalizedCrystal
_audit_creation_method	'MofGen! by Chris Wilmer'
_symmetry_space_group_name_H-M	'P1'
_symmetry_Int_Tables_number	1
_symmetry_cell_setting	triclinic
loop_
_symmetry_equiv_pos_as_xyz
  x,y,z
_cell_length_a	17.077402
_cell_length_b	16.959455
_cell_length_c	17.077396
_cell_angle_alpha	89.980622
_cell_angle_beta	90.029784
_cell_angle_gamma	89.982348
loop_
_atom_site_label
_atom_site_type_symbol
_atom_site_fract_x
_atom_site_fract_y
_atom_site_fract_z
Zn1	Zn	-0.312618	-1.208401	0.443833
Zn2	Zn	0.020716	-0.875067	0.777166
Zn3	Zn	0.354049	-0.541734	1.110500
Zn4	Zn	-0.443893	-1.208307	0.312564
Zn5	Zn	-0.110559	-0.874974	0.645897
Zn6	Zn	0.222774	-0.541640	0.979231
Zn7	Zn	-0.312633	-1.076220	0.312581
Zn8	Zn	0.020701	-0.742886	0.645915
Zn9	Zn	0.354034	-0.409553	0.979248
Zn10	Zn	-0.443833	-1.076187	0.443788
Zn11	Zn	-0.110500	-0.742854	0.777121
Zn12	Zn	0.222833	-0.409521	1.110455
O13	O	-0.378244	-1.142279	0.378191
O14	O	-0.044911	-0.808945	0.711525
O15	O	0.288423	-0.475612	1.044858
O16	O	-0.330050	-1.318999	0.426432
O17	O	0.003283	-0.985666	0.759765
O18	O	0.336617	-0.652332	1.093098
O19	O	-0.426512	-1.190760	0.202719
O20	O	-0.093178	-0.857426	0.536053
O21	O	0.240155	-0.524093	0.869386
O22	O	-0.202784	-1.093806	0.330018
O23	O	0.130550	-0.760473	0.663351
O24	O	0.463883	-0.427140	0.996685
O25	O	-0.426497	-1.318930	0.329989
O26	O	-0.093164	-0.985597	0.663322
O27	O	0.240170	-0.652264	0.996655
O28	O	-0.202773	-1.190919	0.426448
O29	O	0.130561	-0.857586	0.759782
O30	O	0.463894	-0.524253	1.093115
O31	O	-0.330076	-1.093716	0.202732
O32	O	0.003258	-0.760382	0.536065
O33	O	0.336591	-0.427049	0.869399
O34	O	-0.330018	-0.965604	0.329974
O35	O	0.003315	-0.632271	0.663308
O36	O	0.336648	-0.298938	0.996641
O37	O	-0.426396	-1.093751	0.553641
O38	O	-0.093063	-0.760418	0.886974
O39	O	0.240270	-0.427085	1.220307
O40	O	-0.426411	-0.965581	0.426371
O41	O	-0.093078	-0.632247	0.759705
O42	O	0.240256	-0.298914	1.093038
O43	O	-0.329993	-1.190888	0.553674
O44	O	0.003341	-0.857555	0.887007
O45	O	0.336674	-0.524221	1.220341
O46	O	-0.553732	-1.190729	0.329945
O47	O	-0.220398	-0.857395	0.663278
O48	O	0.112935	-0.524062	0.996612
O49	O	-0.553688	-1.093661	0.426355
O50	O	-0.220355	-0.760327	0.759688
O51	O	0.112978	-0.426994	1.093021
C52	C	-0.378210	-0.936912	0.378170
C53	C	-0.044877	-0.603579	0.711504
C54	C	0.288456	-0.270246	1.044837
C55	C	-0.378215	-0.849056	0.378180
C56	C	-0.044882	-0.515722	0.711513
C57	C	0.288452	-0.182389	1.044846
C58	C	-0.327986	-0.477568	0.328092
C59	C	0.005347	-0.144235	0.661425
C60	C	0.338680	0.189099	0.994759
C61	C	-0.428516	-0.477592	0.428315
C62	C	-0.095183	-0.144259	0.761648
C63	C	0.238150	0.189074	1.094982
C64	C	-0.428508	-0.560138	0.428312
C65	C	-0.095175	-0.226805	0.761645
C66	C	0.238158	0.106528	1.094978
C67	C	-0.378239	-0.601403	0.378197
C68	C	-0.044906	-0.268070	0.711530
C69	C	0.288427	0.065264	1.044863
C70	C	-0.327978	-0.560122	0.328085
C71	C	0.005355	-0.226788	0.661419
C72	C	0.338688	0.106545	0.994752
C73	C	-0.478774	-0.601426	0.478416
C74	C	-0.145441	-0.268092	0.811750
C75	C	0.187893	0.065241	1.145083
C76	C	-0.478768	-0.683976	0.478414
C77	C	-0.145435	-0.350643	0.811748
C78	C	0.187898	-0.017310	1.145081
C79	C	-0.428495	-0.725243	0.428303
C80	C	-0.095161	-0.391909	0.761636
C81	C	0.238172	-0.058576	1.094969
C82	C	-0.378231	-0.683956	0.378190
C83	C	-0.044898	-0.350623	0.711523
C84	C	0.288436	-0.017290	1.044857
C85	C	-0.327962	-0.725221	0.328075
C86	C	0.005371	-0.391888	0.661408
C87	C	0.338705	-0.058554	0.994742
C88	C	-0.277694	-0.683936	0.277966
C89	C	0.055639	-0.350603	0.611299
C90	C	0.388973	-0.017270	0.944632
C91	C	-0.277705	-0.601388	0.277974
C92	C	0.055629	-0.268055	0.611307
C93	C	0.388962	0.065279	0.944640
C94	C	-0.428484	-0.807791	0.428295
C95	C	-0.095151	-0.474458	0.761628
C96	C	0.238183	-0.141124	1.094961
C97	C	-0.327954	-0.807775	0.328068
C98	C	0.005379	-0.474441	0.661402
C99	C	0.338713	-0.141108	0.994735
C100	C	-0.582192	-1.142202	0.378160
C101	C	-0.248859	-0.808869	0.711494
C102	C	0.084475	-0.475536	1.044827
C103	C	-0.669442	-1.142242	0.378173
C104	C	-0.336108	-0.808909	0.711506
C105	C	-0.002775	-0.475575	1.044840
C106	C	-0.710428	-1.192837	0.328026
C107	C	-0.377095	-0.859504	0.661360
C108	C	-0.043762	-0.526170	0.994693
C109	C	-0.792409	-1.192876	0.328046
C110	C	-0.459076	-0.859542	0.661380
C111	C	-0.125742	-0.526209	0.994713
C112	C	-0.833401	-1.142315	0.378210
C113	C	-0.500068	-0.808981	0.711543
C114	C	-0.166734	-0.475648	1.044876
C115	C	-0.792409	-1.091718	0.428362
C116	C	-0.459075	-0.758384	0.761695
C117	C	-0.125742	-0.425051	1.095028
C118	C	-0.710430	-1.091684	0.428345
C119	C	-0.377096	-0.758350	0.761678
C120	C	-0.043763	-0.425017	1.095012
C121	C	-0.963279	-1.091791	0.428392
C122	C	-0.629945	-0.758458	0.761725
C123	C	-0.296612	-0.425124	1.095058
C124	C	-1.045263	-1.091824	0.428407
C125	C	-0.711930	-0.758490	0.761741
C126	C	-0.378597	-0.425157	1.095074
C127	C	-1.045258	-1.192983	0.328093
C128	C	-0.711925	-0.859650	0.661426
C129	C	-0.378591	-0.526316	0.994760
C130	C	-0.963279	-1.192949	0.328076
C131	C	-0.629946	-0.859615	0.661410
C132	C	-0.296612	-0.526282	0.994743
C133	C	-0.922292	-1.142350	0.378228
C134	C	-0.588959	-0.809017	0.711561
C135	C	-0.255625	-0.475684	1.044894
C136	C	-0.173500	-1.142377	0.378240
C137	C	0.159834	-0.809043	0.711573
C138	C	0.493167	-0.475710	1.044907
C139	C	-0.086250	-1.142419	0.378261
C140	C	0.247083	-0.809085	0.711594
C141	C	0.580417	-0.475752	1.044928
C142	C	-0.378186	-1.142327	0.582936
C143	C	-0.044853	-0.808993	0.916269
C144	C	0.288480	-0.475660	1.249603
C145	C	-0.378162	-1.142347	0.670186
C146	C	-0.044828	-0.809014	1.003519
C147	C	0.288505	-0.475680	1.336852
C148	C	-0.378269	-0.348447	0.378209
C149	C	-0.044936	-0.015114	0.711543
C150	C	0.288398	0.318220	1.044876
C151	C	-0.378255	-0.436303	0.378207
C152	C	-0.044922	-0.102970	0.711540
C153	C	0.288411	0.230363	1.044874
C154	C	-0.378245	-1.142277	0.174244
C155	C	-0.044912	-0.808943	0.507577
C156	C	0.288422	-0.475610	0.840910
C157	C	-0.378049	-1.142409	0.086994
C158	C	-0.044715	-0.809076	0.420328
C159	C	0.288618	-0.475743	0.753661
C160	C	-0.327960	-1.192928	0.711194
C161	C	0.005373	-0.859594	1.044528
C162	C	0.338707	-0.526261	1.377861
C163	C	-0.327934	-1.192937	0.793175
C164	C	0.005399	-0.859604	1.126508
C165	C	0.338733	-0.526271	1.459842
C166	C	-0.378114	-1.142369	0.834145
C167	C	-0.044781	-0.809036	1.167479
C168	C	0.288553	-0.475703	1.500812
C169	C	-0.428318	-1.091783	0.793131
C170	C	-0.094984	-0.758450	1.126464
C171	C	0.238349	-0.425116	1.459797
C172	C	-0.428339	-1.091770	0.711152
C173	C	-0.095006	-0.758437	1.044485
C174	C	0.238327	-0.425103	1.377818
C175	C	-0.428270	-1.091815	0.964001
C176	C	-0.094937	-0.758481	1.297334
C177	C	0.238396	-0.425148	1.630668
C178	C	-0.428250	-1.091828	1.045986
C179	C	-0.094917	-0.758495	1.379319
C180	C	0.238417	-0.425162	1.712652
C181	C	-0.327865	-1.192982	1.046024
C182	C	0.005468	-0.859649	1.379357
C183	C	0.338802	-0.526315	1.712691
C184	C	-0.327887	-1.192969	0.964045
C185	C	0.005447	-0.859636	1.297378
C186	C	0.338780	-0.526302	1.630712
C187	C	-0.378092	-1.142383	0.923036
C188	C	-0.044758	-0.809050	1.256370
C189	C	0.288575	-0.475717	1.589703
H190	H	-0.287014	-0.841367	0.287263
H191	H	0.046320	-0.508033	0.620596
H192	H	0.379653	-0.174700	0.953930
H193	H	-0.929910	-1.050591	0.469233
H194	H	-0.596577	-0.717258	0.802566
H195	H	-0.263243	-0.383924	1.135900
C196	C	-0.837491	-1.248526	0.272881
C197	C	-0.504158	-0.915193	0.606215
C198	C	-0.170824	-0.581859	0.939548
H199	H	-0.801336	-1.278625	0.242996
H200	H	-0.468003	-0.945292	0.576330
H201	H	-0.134670	-0.611959	0.909663
H202	H	-0.869424	-1.282966	0.302943
H203	H	-0.536091	-0.949632	0.636276
H204	H	-0.202758	-0.616299	0.969609
H205	H	-0.869517	-1.218315	0.238658
H206	H	-0.536183	-0.884982	0.571991
H207	H	-0.202850	-0.551649	0.905324
C208	C	-0.534052	-0.729383	0.533538
C209	C	-0.200719	-0.396049	0.866872
C210	C	0.132614	-0.062716	1.200205
H211	H	-0.563987	-0.692983	0.563389
H212	H	-0.230654	-0.359650	0.896722
H213	H	0.102680	-0.026316	1.230056
H214	H	-0.568213	-0.761570	0.503453
H215	H	-0.234880	-0.428237	0.836786
H216	H	0.098453	-0.094904	1.170120
H217	H	-0.504056	-0.761600	0.567795
H218	H	-0.170722	-0.428266	0.901129
H219	H	0.162611	-0.094933	1.234462
H220	H	-0.287030	-1.234150	0.930689
H221	H	0.046303	-0.900817	1.264023
H222	H	0.379636	-0.567484	1.597356
H223	H	-0.469448	-0.443990	0.469112
H224	H	-0.136114	-0.110656	0.802445
H225	H	0.197219	0.222677	1.135778
H226	H	-0.236768	-0.717545	0.237159
H227	H	0.096565	-0.384211	0.570492
H228	H	0.429898	-0.050878	0.903825
C229	C	-0.272650	-1.248634	1.091130
C230	C	0.060684	-0.915301	1.424463
C231	C	0.394017	-0.581967	1.757797
H232	H	-0.279819	-1.241398	1.145821
H233	H	0.053514	-0.908065	1.479155
H234	H	0.386848	-0.574732	1.812488
H235	H	-0.284164	-1.301730	1.077697
H236	H	0.049169	-0.968397	1.411030
H237	H	0.382503	-0.635064	1.744363
H238	H	-0.219903	-1.237099	1.077710
H239	H	0.113431	-0.903765	1.411043
H240	H	0.446764	-0.570432	1.744376
C241	C	-0.222427	-0.555974	0.222849
C242	C	0.110906	-0.222641	0.556183
C243	C	0.444240	0.110693	0.889516
H244	H	-0.229641	-0.500901	0.230024
H245	H	0.103692	-0.167568	0.563357
H246	H	0.437025	0.165765	0.896690
H247	H	-0.169695	-0.569511	0.234422
H248	H	0.163638	-0.236177	0.567755
H249	H	0.496972	0.097156	0.901089
H250	H	-0.233859	-0.569482	0.170086
H251	H	0.099475	-0.236149	0.503419
H252	H	0.432808	0.097185	0.836752
C253	C	-0.483442	-1.036201	1.091052
C254	C	-0.150109	-0.702867	1.424385
C255	C	0.183225	-0.369534	1.757719
H256	H	-0.513338	-1.006064	1.054889
H257	H	-0.180004	-0.672731	1.388222
H258	H	0.153329	-0.339397	1.721556
H259	H	-0.517643	-1.066423	1.123028
H260	H	-0.184309	-0.733090	1.456362
H261	H	0.149024	-0.399757	1.789695
H262	H	-0.453390	-1.001783	1.123033
H263	H	-0.120056	-0.668450	1.456367
H264	H	0.213277	-0.335117	1.789700
H265	H	-0.469172	-1.050607	0.826495
H266	H	-0.135839	-0.717273	1.159829
H267	H	0.197494	-0.383940	1.493162
C268	C	-0.665341	-1.036031	0.483505
C269	C	-0.332007	-0.702697	0.816838
C270	C	0.001326	-0.369364	1.150171
H271	H	-0.610647	-1.043257	0.476317
H272	H	-0.277313	-0.709924	0.809650
H273	H	0.056020	-0.376591	1.142983
H274	H	-0.678820	-0.982933	0.471975
H275	H	-0.345487	-0.649600	0.805308
H276	H	-0.012153	-0.316267	1.138642
H277	H	-0.678731	-1.047582	0.536262
H278	H	-0.345398	-0.714248	0.869595
H279	H	-0.012065	-0.380915	1.202928
H280	H	-0.469141	-1.050610	0.930614
H281	H	-0.135807	-0.717277	1.263947
H282	H	0.197526	-0.383943	1.597281
H283	H	-0.287057	-0.443950	0.287296
H284	H	0.046276	-0.110617	0.620630
H285	H	0.379610	0.222716	0.953963
H286	H	-0.287057	-1.234127	0.826561
H287	H	0.046277	-0.900794	1.159894
H288	H	0.379610	-0.567460	1.493227
H289	H	-0.469211	-1.050574	0.677764
H290	H	-0.135877	-0.717241	1.011097
H291	H	0.197456	-0.383907	1.344430
C292	C	-1.090340	-1.248631	0.272918
C293	C	-0.757006	-0.915297	0.606252
C294	C	-0.423673	-0.581964	0.939585
H295	H	-1.145034	-1.241414	0.280114
H296	H	-0.811701	-0.908081	0.613447
H297	H	-0.478367	-0.574748	0.946780
H298	H	-1.076946	-1.237074	0.220168
H299	H	-0.743612	-0.903740	0.553501
H300	H	-0.410279	-0.570407	0.886835
H301	H	-1.076862	-1.301734	0.284443
H302	H	-0.743528	-0.968401	0.617776
H303	H	-0.410195	-0.635067	0.951109
H304	H	-0.519706	-0.567822	0.519212
H305	H	-0.186372	-0.234488	0.852545
H306	H	0.146961	0.098845	1.185878
C307	C	-0.483771	-0.853201	0.483408
C308	C	-0.150438	-0.519868	0.816741
C309	C	0.182896	-0.186534	1.150074
H310	H	-0.513709	-0.816802	0.513256
H311	H	-0.180376	-0.483469	0.846589
H312	H	0.152958	-0.150136	1.179923
H313	H	-0.517929	-0.885387	0.453316
H314	H	-0.184595	-0.552053	0.786650
H315	H	0.148738	-0.218720	1.119983
H316	H	-0.453779	-0.885420	0.517667
H317	H	-0.120446	-0.552087	0.851001
H318	H	0.212887	-0.218753	1.184334
H319	H	-0.677058	-1.234006	0.287174
H320	H	-0.343725	-0.900672	0.620508
H321	H	-0.010391	-0.567339	0.953841
H322	H	-0.929903	-1.234115	0.287226
H323	H	-0.596570	-0.900782	0.620559
H324	H	-0.263236	-0.567448	0.953892
C325	C	-1.090354	-1.036218	0.483595
C326	C	-0.757020	-0.702885	0.816928
C327	C	-0.423687	-0.369552	1.150262
H328	H	-1.054204	-1.006088	0.513471
H329	H	-0.720871	-0.672755	0.846804
H330	H	-0.387537	-0.339422	1.180137
H331	H	-1.122383	-1.001805	0.453550
H332	H	-0.789049	-0.668472	0.786883
H333	H	-0.455716	-0.335139	1.120216
H334	H	-1.122285	-1.066464	0.517827
H335	H	-0.788951	-0.733130	0.851160
H336	H	-0.455618	-0.399797	1.184493
H337	H	-0.825791	-1.050554	0.469209
H338	H	-0.492458	-0.717220	0.802542
H339	H	-0.159124	-0.383887	1.135876
H340	H	-0.287100	-1.234109	0.677842
H341	H	0.046233	-0.900775	1.011176
H342	H	0.379567	-0.567442	1.344509
