data_functionalizedCrystal
_audit_creation_method	'MofGen! by Chris Wilmer'
_symmetry_space_group_name_H-M	'P1'
_symmetry_Int_Tables_number	1
_symmetry_cell_setting	triclinic
loop_
_symmetry_equiv_pos_as_xyz
  x,y,z
_cell_length_a	21.295420
_cell_length_b	25.639240
_cell_length_c	21.295411
_cell_angle_alpha	89.973291
_cell_angle_beta	89.975408
_cell_angle_gamma	90.028539
loop_
_atom_site_label
_atom_site_type_symbol
_atom_site_fract_x
_atom_site_fract_y
_atom_site_fract_z
Zn1	Zn	0.962345	-0.208269	-0.355890
Zn2	Zn	1.295679	0.125064	-0.022556
Zn3	Zn	1.629012	0.458397	0.310777
Zn4	Zn	0.962244	-0.295689	-0.250606
Zn5	Zn	1.295577	0.037644	0.082727
Zn6	Zn	1.628910	0.370977	0.416061
Zn7	Zn	0.857069	-0.208263	-0.250635
Zn8	Zn	1.190402	0.125070	0.082699
Zn9	Zn	1.523735	0.458404	0.416032
Zn10	Zn	0.857034	-0.295669	-0.355837
Zn11	Zn	1.190367	0.037664	-0.022504
Zn12	Zn	1.523701	0.370998	0.310829
O13	O	0.909673	-0.251973	-0.303242
O14	O	1.243006	0.081361	0.030091
O15	O	1.576340	0.414694	0.363425
O16	O	1.050421	-0.219877	-0.341933
O17	O	1.383755	0.113457	-0.008600
O18	O	1.717088	0.446790	0.324733
O19	O	0.948264	-0.284098	-0.162520
O20	O	1.281597	0.049235	0.170813
O21	O	1.614931	0.382569	0.504146
O22	O	0.871091	-0.135099	-0.264631
O23	O	1.204424	0.198235	0.068702
O24	O	1.537758	0.531568	0.402036
O25	O	1.050347	-0.284104	-0.264582
O26	O	1.383680	0.049230	0.068752
O27	O	1.717013	0.382563	0.402085
O28	O	0.948437	-0.135103	-0.341961
O29	O	1.281771	0.198230	-0.008628
O30	O	1.615104	0.531563	0.324705
O31	O	0.870992	-0.219866	-0.162541
O32	O	1.204326	0.113467	0.170792
O33	O	1.537659	0.446800	0.504125
O34	O	0.768975	-0.219847	-0.264580
O35	O	1.102308	0.113487	0.068753
O36	O	1.435641	0.446820	0.402086
O37	O	0.871032	-0.284069	-0.443934
O38	O	1.204365	0.049264	-0.110601
O39	O	1.537698	0.382597	0.222733
O40	O	0.768949	-0.284063	-0.341872
O41	O	1.102283	0.049270	-0.008539
O42	O	1.435616	0.382603	0.324794
O43	O	0.948404	-0.219857	-0.443972
O44	O	1.281737	0.113476	-0.110639
O45	O	1.615070	0.446810	0.222694
O46	O	0.948230	-0.368852	-0.264531
O47	O	1.281564	-0.035518	0.068802
O48	O	1.614897	0.297815	0.402136
O49	O	0.870933	-0.368837	-0.341844
O50	O	1.204266	-0.035504	-0.008511
O51	O	1.537600	0.297830	0.324822
C52	C	0.746121	-0.251953	-0.303224
C53	C	1.079455	0.081381	0.030109
C54	C	1.412788	0.414714	0.363443
C55	C	0.676153	-0.251957	-0.303231
C56	C	1.009487	0.081377	0.030102
C57	C	1.342820	0.414710	0.363435
C58	C	0.176734	-0.218608	-0.343594
C59	C	0.510067	0.114725	-0.010260
C60	C	0.843400	0.448058	0.323073
C61	C	0.242476	-0.218605	-0.343594
C62	C	0.575809	0.114729	-0.010260
C63	C	0.909143	0.448062	0.323073
C64	C	0.275314	-0.251989	-0.303257
C65	C	0.608647	0.081345	0.030077
C66	C	0.941980	0.414678	0.363410
C67	C	0.242404	-0.285388	-0.262928
C68	C	0.575737	0.047945	0.070405
C69	C	0.909070	0.381278	0.403739
C70	C	0.176662	-0.285395	-0.262934
C71	C	0.509996	0.047938	0.070400
C72	C	0.843329	0.381272	0.403733
N73	N	0.378503	-0.255922	-0.248136
N74	N	0.711837	0.077411	0.085197
N75	N	1.045170	0.410745	0.418530
N76	N	0.440955	-0.255912	-0.248133
N77	N	0.774288	0.077421	0.085200
N78	N	1.107622	0.410754	0.418534
C79	C	0.473388	-0.251971	-0.303238
C80	C	0.806722	0.081362	0.030095
C81	C	1.140055	0.414695	0.363429
N82	N	0.441011	-0.248030	-0.358348
N83	N	0.774345	0.085304	-0.025015
N84	N	1.107678	0.418637	0.308318
N85	N	0.378554	-0.248036	-0.358351
N86	N	0.711888	0.085297	-0.025018
N87	N	1.045221	0.418630	0.308316
C88	C	0.346599	-0.251985	-0.303246
C89	C	0.679932	0.081348	0.030087
C90	C	1.013266	0.414681	0.363420
C91	C	0.577576	-0.218572	-0.343567
C92	C	0.910910	0.114761	-0.010234
C93	C	1.244243	0.448095	0.323099
C94	C	0.643320	-0.218572	-0.343568
C95	C	0.976653	0.114762	-0.010235
C96	C	1.309987	0.448095	0.323098
C97	C	0.643246	-0.285353	-0.262897
C98	C	0.976580	0.047981	0.070437
C99	C	1.309913	0.381314	0.403770
C100	C	0.577504	-0.285356	-0.262901
C101	C	0.910837	0.047978	0.070432
C102	C	1.244171	0.381311	0.403765
C103	C	0.544673	-0.251963	-0.303236
C104	C	0.878006	0.081371	0.030098
C105	C	1.211339	0.414704	0.363431
C106	C	0.909584	-0.387815	-0.303193
C107	C	1.242917	-0.054482	0.030141
C108	C	1.576251	0.278851	0.363474
C109	C	0.909604	-0.445929	-0.303193
C110	C	1.242937	-0.112596	0.030141
C111	C	1.576270	0.220737	0.363474
C112	C	0.949967	-0.806256	-0.343581
C113	C	1.283301	-0.472923	-0.010247
C114	C	1.616634	-0.139589	0.323086
C115	C	0.949986	-0.860860	-0.343593
C116	C	1.283319	-0.527527	-0.010260
C117	C	1.616652	-0.194194	0.323073
O118	O	0.984199	-0.889066	-0.377882
O119	O	1.317532	-0.555733	-0.044549
O120	O	1.650865	-0.222400	0.288785
N121	N	0.909760	-0.888212	-0.303303
N122	N	1.243094	-0.554878	0.030031
N123	N	1.576427	-0.221545	0.363364
C124	C	0.869509	-0.860956	-0.263001
C125	C	1.202842	-0.527622	0.070332
C126	C	1.536176	-0.194289	0.403665
O127	O	0.835295	-0.889234	-0.228733
O128	O	1.168629	-0.555901	0.104601
O129	O	1.501962	-0.222567	0.437934
C130	C	0.869488	-0.806352	-0.262992
C131	C	1.202821	-0.473019	0.070341
C132	C	1.536154	-0.139686	0.403674
C133	C	0.909720	-0.779004	-0.303281
C134	C	1.243054	-0.445671	0.030052
C135	C	1.576387	-0.112337	0.363386
C136	C	0.990196	-0.778908	-0.383866
C137	C	1.323529	-0.445574	-0.050533
C138	C	1.656863	-0.112241	0.282800
C139	C	0.990178	-0.724307	-0.383853
C140	C	1.323511	-0.390974	-0.050519
C141	C	1.656845	-0.057640	0.282814
C142	C	0.949931	-0.697055	-0.343553
C143	C	1.283265	-0.363722	-0.010220
C144	C	1.616598	-0.030388	0.323114
C145	C	0.909703	-0.724404	-0.303267
C146	C	1.243036	-0.391070	0.030066
C147	C	1.576369	-0.057737	0.363400
C148	C	0.829234	-0.779098	-0.222694
C149	C	1.162567	-0.445764	0.110639
C150	C	1.495901	-0.112431	0.443972
C151	C	0.829216	-0.724491	-0.222689
C152	C	1.162549	-0.391157	0.110644
C153	C	1.495882	-0.057824	0.443978
C154	C	0.869448	-0.697142	-0.262978
C155	C	1.202782	-0.363809	0.070356
C156	C	1.536115	-0.030475	0.403689
C157	C	0.869438	-0.642551	-0.262954
C158	C	1.202771	-0.309218	0.070380
C159	C	1.536105	0.024116	0.403713
N160	N	0.909663	-0.615200	-0.303244
N161	N	1.242997	-0.281866	0.030089
N162	N	1.576330	0.051467	0.363423
C163	C	0.949910	-0.642452	-0.343544
C164	C	1.283243	-0.309118	-0.010210
C165	C	1.616577	0.024215	0.323123
C166	C	0.869556	-0.975626	-0.263024
C167	C	1.202889	-0.642293	0.070309
C168	C	1.536223	-0.308960	0.403642
C169	C	0.869580	-1.030229	-0.263030
C170	C	1.202913	-0.696895	0.070303
C171	C	1.536247	-0.363562	0.403637
C172	C	0.950056	-1.030130	-0.343623
C173	C	1.283389	-0.696796	-0.010290
C174	C	1.616723	-0.363463	0.323044
C175	C	0.950035	-0.975526	-0.343614
C176	C	1.283368	-0.642193	-0.010280
C177	C	1.616701	-0.308860	0.323053
C178	C	0.909782	-0.948275	-0.303315
C179	C	1.243115	-0.614942	0.030018
C180	C	1.576448	-0.281608	0.363352
C181	C	0.949870	-0.527787	-0.343511
C182	C	1.283203	-0.194453	-0.010178
C183	C	1.616537	0.138880	0.323155
C184	C	0.949850	-0.473181	-0.343492
C185	C	1.283184	-0.139848	-0.010159
C186	C	1.616517	0.193485	0.323174
C187	C	0.869372	-0.473285	-0.262902
C188	C	1.202706	-0.139952	0.070431
C189	C	1.536039	0.193381	0.403765
C190	C	0.869394	-0.527886	-0.262918
C191	C	1.202727	-0.194552	0.070415
C192	C	1.536061	0.138781	0.403748
C193	C	0.909645	-0.555135	-0.303228
C194	C	1.242978	-0.221802	0.030105
C195	C	1.576312	0.111531	0.363438
O196	O	0.835241	-0.614310	-0.228684
O197	O	1.168574	-0.280977	0.104649
O198	O	1.501907	0.052356	0.437982
O199	O	0.984112	-0.614167	-0.377813
O200	O	1.317445	-0.280833	-0.044479
O201	O	1.650779	0.052500	0.288854
C202	C	1.073863	-0.251993	-0.303260
C203	C	1.407196	0.081340	0.030073
C204	C	1.740530	0.414674	0.363406
C205	C	1.143831	-0.252002	-0.303268
C206	C	1.477165	0.081332	0.030065
C207	C	1.810498	0.414665	0.363399
C208	C	0.909725	-0.251962	-0.467432
C209	C	1.243059	0.081372	-0.134099
C210	C	1.576392	0.414705	0.199234
C211	C	0.909747	-0.251957	-0.537400
C212	C	1.243081	0.081376	-0.204067
C213	C	1.576414	0.414710	0.129266
C214	C	0.909779	-0.115600	-0.303305
C215	C	1.243113	0.217734	0.030028
C216	C	1.576446	0.551067	0.363361
C217	C	0.909825	-0.057486	-0.303332
C218	C	1.243158	0.275848	0.030001
C219	C	1.576491	0.609181	0.363334
C220	C	0.950033	-0.218520	-0.570288
C221	C	1.283367	0.114813	-0.236955
C222	C	1.616700	0.448147	0.096379
C223	C	0.950032	-0.218497	-0.636031
C224	C	1.283366	0.114836	-0.302697
C225	C	1.616699	0.448169	0.030636
C226	C	0.909752	-0.251921	-0.668883
C227	C	1.243086	0.081412	-0.335550
C228	C	1.576419	0.414746	-0.002216
C229	C	0.869459	-0.285360	-0.635987
C230	C	1.202792	0.047973	-0.302654
C231	C	1.536125	0.381307	0.030679
C232	C	0.869456	-0.285378	-0.570246
C233	C	1.202790	0.047955	-0.236913
C234	C	1.536123	0.381289	0.096421
N235	N	0.904893	-0.297659	-0.772093
N236	N	1.238227	0.035675	-0.438760
N237	N	1.571560	0.369008	-0.105427
N238	N	0.904899	-0.297640	-0.834545
N239	N	1.238233	0.035693	-0.501212
N240	N	1.571566	0.369027	-0.167878
C241	C	0.909756	-0.251868	-0.866958
C242	C	1.243090	0.081465	-0.533624
C243	C	1.576423	0.414799	-0.200291
N244	N	0.914619	-0.206114	-0.834560
N245	N	1.247953	0.127219	-0.501227
N246	N	1.581286	0.460553	-0.167893
N247	N	0.914616	-0.206133	-0.772103
N248	N	1.247950	0.127200	-0.438769
N249	N	1.581283	0.460534	-0.105436
C250	C	0.909750	-0.251905	-0.740168
C251	C	1.243084	0.081428	-0.406835
C252	C	1.576417	0.414762	-0.073502
C253	C	0.950043	-0.218404	-0.971131
C254	C	1.283377	0.114930	-0.637798
C255	C	1.616710	0.448263	-0.304464
C256	C	0.950038	-0.218380	-1.036875
C257	C	1.283371	0.114953	-0.703541
C258	C	1.616705	0.448287	-0.370208
C259	C	0.869468	-0.285247	-1.036830
C260	C	1.202801	0.048086	-0.703497
C261	C	1.536134	0.381419	-0.370164
C262	C	0.869470	-0.285266	-0.971088
C263	C	1.202803	0.048067	-0.637755
C264	C	1.536136	0.381400	-0.304421
C265	C	0.909761	-0.251845	-0.938242
C266	C	1.243094	0.081488	-0.604909
C267	C	1.576428	0.414822	-0.271575
C268	C	0.909657	-0.251946	-0.139690
C269	C	1.242990	0.081387	0.193643
C270	C	1.576324	0.414721	0.526976
C271	C	0.909757	-0.251803	-0.069723
C272	C	1.243090	0.081530	0.263611
C273	C	1.576424	0.414863	0.596944
H274	H	0.982615	-0.450916	-0.376300
H275	H	1.315948	-0.117583	-0.042967
H276	H	1.649281	0.215751	0.290367
H277	H	1.022937	-0.702043	-0.416661
H278	H	1.356270	-0.368710	-0.083328
H279	H	1.689604	-0.035377	0.250006
Cl280	Cl	0.283684	-0.327359	-0.212221
Cl281	Cl	0.617018	0.005974	0.121112
Cl282	Cl	0.950351	0.339308	0.454446
Cl283	Cl	0.135464	-0.176633	-0.394305
Cl284	Cl	0.468797	0.156700	-0.060972
Cl285	Cl	0.802130	0.490034	0.272362
Cl286	Cl	1.000691	-0.176387	-0.929836
Cl287	Cl	1.334024	0.156947	-0.596503
Cl288	Cl	1.667357	0.490280	-0.263170
H289	H	0.836668	-0.312497	-0.944310
H290	H	1.170002	0.020836	-0.610977
H291	H	1.503335	0.354169	-0.277644
Cl292	Cl	0.818807	-0.327417	-0.528899
Cl293	Cl	1.152141	0.005916	-0.195566
Cl294	Cl	1.485474	0.339250	0.137767
H295	H	0.269270	-0.191409	-0.376431
H296	H	0.602604	0.141924	-0.043098
H297	H	0.935937	0.475257	0.290235
Cl298	Cl	0.684522	-0.327326	-0.212192
Cl299	Cl	1.017855	0.006007	0.121142
Cl300	Cl	1.351189	0.339340	0.454475
H301	H	0.982642	-0.549967	-0.376340
H302	H	1.315975	-0.216633	-0.043007
H303	H	1.649308	0.116700	0.290327
H304	H	0.836825	-1.052491	-0.230216
H305	H	1.170159	-0.719158	0.103117
H306	H	1.503492	-0.385825	0.436451
H307	H	0.982843	-0.191149	-1.063651
H308	H	1.316176	0.142185	-0.730318
H309	H	1.649509	0.475518	-0.396984
H310	H	1.022970	-0.801091	-0.416687
H311	H	1.356303	-0.467757	-0.083354
H312	H	1.689636	-0.134424	0.249980
Cl313	Cl	0.818779	-0.439015	-0.212242
Cl314	Cl	1.152112	-0.105682	0.121091
Cl315	Cl	1.485446	0.227651	0.454424
H316	H	0.149874	-0.312589	-0.230095
H317	H	0.483207	0.020744	0.103239
H318	H	0.816540	0.354078	0.436572
Cl319	Cl	0.778650	-0.813465	-0.172045
Cl320	Cl	1.111983	-0.480132	0.161288
Cl321	Cl	1.445316	-0.146798	0.494622
Cl322	Cl	0.536300	-0.176595	-0.394274
Cl323	Cl	0.869633	0.156739	-0.060941
Cl324	Cl	1.202967	0.490072	0.272392
Cl325	Cl	1.000681	-0.176502	-0.529000
Cl326	Cl	1.334015	0.156831	-0.195666
Cl327	Cl	1.667348	0.490165	0.137667
H328	H	0.670108	-0.191380	-0.376411
H329	H	1.003441	0.141953	-0.043078
H330	H	1.336775	0.475286	0.290256
Cl331	Cl	0.536139	-0.327330	-0.212193
Cl332	Cl	0.869472	0.006003	0.121140
Cl333	Cl	1.202805	0.339336	0.454474
H334	H	0.982795	-0.953262	-0.376421
H335	H	1.316129	-0.619929	-0.043087
H336	H	1.649462	-0.286596	0.290246
Cl337	Cl	1.000669	-0.176449	-0.677384
Cl338	Cl	1.334002	0.156885	-0.344051
Cl339	Cl	1.667335	0.490218	-0.010717
H340	H	0.836779	-0.953441	-0.230203
H341	H	1.170112	-0.620108	0.103130
H342	H	1.503446	-0.286775	0.436464
Cl343	Cl	1.000651	-1.064400	-0.394287
Cl344	Cl	1.333985	-0.731066	-0.060954
Cl345	Cl	1.667318	-0.397733	0.272380
Cl346	Cl	0.778609	-0.690235	-0.172024
Cl347	Cl	1.111942	-0.356902	0.161309
Cl348	Cl	1.445275	-0.023569	0.494643
H349	H	0.836638	-0.550154	-0.230107
H350	H	1.169972	-0.216821	0.103226
H351	H	1.503305	0.116513	0.436559
Cl352	Cl	0.818818	-0.327376	-0.677287
Cl353	Cl	1.152152	0.005957	-0.343953
Cl354	Cl	1.485485	0.339290	-0.010620
Cl355	Cl	0.818823	-0.327261	-1.078124
Cl356	Cl	1.152157	0.006072	-0.744791
Cl357	Cl	1.485490	0.339405	-0.411458
