data_functionalizedCrystal
_audit_creation_method	'MofGen! by Chris Wilmer'
_symmetry_space_group_name_H-M	'P1'
_symmetry_Int_Tables_number	1
_symmetry_cell_setting	triclinic
loop_
_symmetry_equiv_pos_as_xyz
  x,y,z
_cell_length_a	16.974800
_cell_length_b	12.811415
_cell_length_c	15.455313
_cell_angle_alpha	87.254642
_cell_angle_beta	90.973911
_cell_angle_gamma	84.065383
loop_
_atom_site_label
_atom_site_type_symbol
_atom_site_fract_x
_atom_site_fract_y
_atom_site_fract_z
O1	O	1.050013	0.133135	-0.008866
O2	O	0.820693	0.149085	-0.026226
O3	O	0.940553	-0.010906	-0.005219
O4	O	0.930153	0.293126	-0.029873
O5	O	0.933698	-0.001795	0.137844
O6	O	0.813838	0.158196	0.116838
O7	O	1.043158	0.142247	0.134198
Cu8	Cu	0.927872	0.151053	0.138581
Cu9	Cu	0.935979	0.140278	-0.030609
O10	O	0.923298	0.302237	0.113191
C11	C	0.787901	0.152867	0.043305
C12	C	0.700403	0.150550	0.037342
C13	C	0.655564	0.154425	0.112527
C14	C	0.573352	0.152231	0.106928
C15	C	0.535979	0.146169	0.026143
C16	C	0.580824	0.142290	-0.049047
C17	C	0.663035	0.144477	-0.043447
C18	C	0.290505	0.139090	0.001032
C19	C	0.208287	0.136906	-0.004563
C20	C	0.200821	0.146845	0.151414
C21	C	0.283034	0.149038	0.157006
C22	C	0.327872	0.145153	0.081817
N23	N	0.451945	0.143929	0.020418
N24	N	0.411905	0.147385	0.087543
C25	C	0.936333	-0.045262	0.069317
C26	C	0.933961	-0.161207	0.078268
C27	C	0.936964	-0.389003	-0.060899
C28	C	0.934735	-0.497944	-0.052493
C29	C	0.927271	-0.488031	0.103485
C30	C	0.929499	-0.379090	0.095079
C31	C	0.934347	-0.329580	0.012884
C32	C	0.936581	-0.220638	0.004479
C33	C	0.929110	-0.210726	0.160456
C34	C	0.926882	-0.319667	0.168862
C35	C	1.075951	0.138465	0.064665
C36	C	1.163449	0.140782	0.070622
C37	C	0.927518	0.336594	0.038653
C38	C	0.929890	0.452538	0.029696
N39	N	0.922177	0.158631	0.257580
N40	N	0.941680	0.132692	-0.149607
C41	C	0.973116	0.090687	0.311898
C42	C	0.968816	0.096427	0.401952
C43	C	0.913580	0.170118	0.437686
C44	C	0.862636	0.238066	0.383362
C45	C	0.866932	0.232319	0.293309
C46	C	0.895033	0.194893	0.706016
C47	C	0.890742	0.200637	0.796075
C48	C	0.996921	0.058996	0.814659
C49	C	1.001216	0.053261	0.724604
C50	C	0.950269	0.121204	0.670287
N51	N	0.909185	0.175990	0.529736
N52	N	0.954661	0.115327	0.578240
H53	H	0.550389	0.137347	-0.114824
H54	H	0.936864	-0.546321	-0.112576
H55	H	0.685986	0.159370	0.178310
O56	O	0.529910	0.156056	0.180044
C57	C	0.580526	0.161857	0.252548
H58	H	0.637192	0.194993	0.230861
H59	H	0.549512	0.215363	0.301158
H60	H	0.595805	0.079910	0.284256
O61	O	0.817417	0.298433	0.240666
C62	C	0.767730	0.364691	0.291514
H63	H	0.796984	0.370089	0.357865
H64	H	0.757533	0.446392	0.258125
H65	H	0.708497	0.331171	0.299668
O66	O	0.941643	-0.341063	-0.140805
C67	C	0.943502	-0.416878	-0.204126
H68	H	0.915914	-0.488833	-0.177357
H69	H	0.908572	-0.382349	-0.264294
H70	H	1.007519	-0.440758	-0.221930
H71	H	1.038399	0.003678	0.858892
O72	O	0.922423	-0.536075	0.183325
C73	C	0.852584	-0.494807	0.223041
H74	H	0.807763	-0.459613	0.171127
H75	H	0.826560	-0.560312	0.262018
H76	H	0.866956	-0.431128	0.268093
H77	H	0.853551	0.250218	0.661798
H78	H	0.922932	-0.359993	0.235783
H79	H	0.926982	-0.162333	0.220536
H80	H	1.010293	0.041101	0.446178
H81	H	0.164306	0.150006	0.212629
O82	O	1.026795	0.019010	0.277332
C83	C	1.070845	-0.039711	0.344589
H84	H	1.035464	-0.036912	0.406622
H85	H	1.083523	-0.124734	0.325940
H86	H	1.129165	-0.004971	0.355592
O87	O	0.706643	0.140534	-0.116443
C88	C	0.762726	0.051146	-0.110169
H89	H	0.741628	-0.009856	-0.062223
H90	H	0.769745	0.016445	-0.176498
H91	H	0.822155	0.074568	-0.086714
O92	O	1.054892	-0.018419	0.690038
C93	C	1.098945	-0.077142	0.757291
H94	H	1.063567	-0.074348	0.819326
H95	H	1.111624	-0.162164	0.738639
H96	H	1.157266	-0.042402	0.768293
H97	H	0.313457	0.153969	0.222791
H98	H	0.177861	0.131973	-0.070351
O99	O	0.809048	0.309619	0.418213
C100	C	0.816166	0.300108	0.509344
H101	H	0.877957	0.262091	0.529065
H102	H	0.806321	0.381354	0.536763
H103	H	0.769976	0.249192	0.535894
O104	O	0.836970	0.272107	0.830756
C105	C	0.759894	0.253438	0.804636
H106	H	0.760113	0.168240	0.786393
H107	H	0.717610	0.269065	0.860169
H108	H	0.739635	0.307910	0.746226
O109	O	0.333931	0.135356	-0.072094
C110	C	0.283314	0.129513	-0.144592
H111	H	0.220587	0.162453	-0.128531
H112	H	0.305032	0.177321	-0.201834
H113	H	0.283395	0.044042	-0.162035
H114	H	0.940530	-0.180329	-0.062448
