data_functionalizedCrystal
_audit_creation_method	'MofGen! by Chris Wilmer'
_symmetry_space_group_name_H-M	'P1'
_symmetry_Int_Tables_number	1
_symmetry_cell_setting	triclinic
loop_
_symmetry_equiv_pos_as_xyz
  x,y,z
_cell_length_a	29.839134
_cell_length_b	29.839125
_cell_length_c	21.295417
_cell_angle_alpha	90.018987
_cell_angle_beta	89.974633
_cell_angle_gamma	89.978020
loop_
_atom_site_label
_atom_site_type_symbol
_atom_site_fract_x
_atom_site_fract_y
_atom_site_fract_z
Zn1	Zn	0.686754	-0.254121	0.250784
Zn2	Zn	1.020087	0.079212	0.584117
Zn3	Zn	1.353420	0.412546	0.917450
Zn4	Zn	0.686700	-0.178989	0.356031
Zn5	Zn	1.020033	0.154344	0.689364
Zn6	Zn	1.353367	0.487677	1.022697
Zn7	Zn	0.611636	-0.178991	0.250770
Zn8	Zn	0.944970	0.154343	0.584103
Zn9	Zn	1.278303	0.487676	0.917437
Zn10	Zn	0.611599	-0.254078	0.356010
Zn11	Zn	0.944932	0.079256	0.689343
Zn12	Zn	1.278265	0.412589	1.022676
O13	O	0.649172	-0.216545	0.303398
O14	O	0.982506	0.116789	0.636732
O15	O	1.315839	0.450122	0.970065
O16	O	0.749614	-0.244172	0.264760
O17	O	1.082947	0.089161	0.598093
O18	O	1.416280	0.422494	0.931426
O19	O	0.676736	-0.116122	0.342071
O20	O	1.010070	0.217211	0.675404
O21	O	1.343403	0.550544	1.008737
O22	O	0.621639	-0.188975	0.162682
O23	O	0.954973	0.144358	0.496016
O24	O	1.288306	0.477691	0.829349
O25	O	0.749574	-0.188973	0.342084
O26	O	1.082908	0.144360	0.675417
O27	O	1.416241	0.477693	1.008751
O28	O	0.676828	-0.244174	0.162693
O29	O	1.010161	0.089160	0.496026
O30	O	1.343494	0.422493	0.829359
O31	O	0.621587	-0.116123	0.264736
O32	O	0.954921	0.217210	0.598069
O33	O	1.288254	0.550543	0.931403
O34	O	0.548764	-0.188933	0.264716
O35	O	0.882098	0.144400	0.598049
O36	O	1.215431	0.477733	0.931382
O37	O	0.621575	-0.316951	0.342048
O38	O	0.954908	0.016383	0.675381
O39	O	1.288241	0.349716	1.008715
O40	O	0.548736	-0.244100	0.342035
O41	O	0.882070	0.089234	0.675368
O42	O	1.215403	0.422567	1.008701
O43	O	0.676791	-0.316982	0.264739
O44	O	1.010124	0.016351	0.598072
O45	O	1.343457	0.349684	0.931406
O46	O	0.676699	-0.188931	0.444117
O47	O	1.010033	0.144402	0.777451
O48	O	1.343366	0.477735	1.110784
O49	O	0.621523	-0.244098	0.444102
O50	O	0.954856	0.089235	0.777435
O51	O	1.288189	0.422568	1.110768
C52	C	0.532450	-0.216512	0.303372
C53	C	0.865783	0.116821	0.636705
C54	C	1.199116	0.450154	0.970038
C55	C	0.482515	-0.216509	0.303375
C56	C	0.815849	0.116824	0.636709
C57	C	1.149182	0.450158	0.970042
C58	C	0.172867	-0.245234	0.343718
C59	C	0.506200	0.088099	0.677051
C60	C	0.839533	0.421432	1.010385
C61	C	-0.014806	-0.245254	0.343736
C62	C	0.318527	0.088079	0.677069
C63	C	0.651860	0.421412	1.010402
O64	O	-0.039075	-0.269659	0.378007
O65	O	0.294258	0.063675	0.711340
O66	O	0.627591	0.397008	1.044674
N67	N	-0.038270	-0.216578	0.303422
N68	N	0.295063	0.116755	0.636755
N69	N	0.628397	0.450088	0.970088
C70	C	-0.014812	-0.187898	0.263097
C71	C	0.318521	0.145436	0.596430
C72	C	0.651854	0.478769	0.929764
O73	O	-0.039076	-0.163511	0.228803
O74	O	0.294258	0.169823	0.562137
O75	O	0.627591	0.503156	0.895470
C76	C	0.172860	-0.187880	0.263077
C77	C	0.506193	0.145453	0.596410
C78	C	0.839527	0.478786	0.929743
C79	C	0.196321	-0.216555	0.303398
C80	C	0.529654	0.116779	0.636731
C81	C	0.862988	0.450112	0.970065
C82	C	0.196328	-0.273907	0.384036
C83	C	0.529661	0.059426	0.717369
C84	C	0.862995	0.392760	1.050702
C85	C	0.243243	-0.273900	0.384033
C86	C	0.576577	0.059433	0.717367
C87	C	0.909910	0.392767	1.050700
C88	C	0.266698	-0.245220	0.343713
C89	C	0.600031	0.088113	0.677047
C90	C	0.933364	0.421446	1.010380
C91	C	0.243236	-0.216548	0.303396
C92	C	0.576570	0.116786	0.636729
C93	C	0.909903	0.450119	0.970062
C94	C	0.196317	-0.159202	0.222749
C95	C	0.529650	0.174131	0.556083
C96	C	0.862983	0.507465	0.889416
C97	C	0.243238	-0.159201	0.222747
C98	C	0.576571	0.174132	0.556080
C99	C	0.909904	0.507466	0.889413
C100	C	0.266699	-0.187876	0.263068
C101	C	0.600032	0.145458	0.596402
C102	C	0.933365	0.478791	0.929735
C103	C	0.313606	-0.187861	0.263073
C104	C	0.646940	0.145472	0.596406
C105	C	0.980273	0.478806	0.929740
N106	N	0.337070	-0.216537	0.303387
N107	N	0.670403	0.116796	0.636721
N108	N	1.003736	0.450130	0.970054
C109	C	0.313616	-0.245217	0.343707
C110	C	0.646949	0.088117	0.677041
C111	C	0.980282	0.421450	1.010374
C112	C	-0.113343	-0.187908	0.263112
C113	C	0.219990	0.145425	0.596445
C114	C	0.553324	0.478759	0.929778
C115	C	-0.160261	-0.187912	0.263117
C116	C	0.173073	0.145422	0.596451
C117	C	0.506406	0.478755	0.929784
C118	C	-0.160251	-0.245269	0.343755
C119	C	0.173082	0.088064	0.677089
C120	C	0.506415	0.421397	1.010422
C121	C	-0.113333	-0.245263	0.343752
C122	C	0.220001	0.088070	0.677086
C123	C	0.553334	0.421404	1.010419
C124	C	-0.089879	-0.216584	0.303426
C125	C	0.243454	0.116749	0.636759
C126	C	0.576787	0.450083	0.970092
C127	C	0.412141	-0.245200	0.343700
C128	C	0.745475	0.088134	0.677033
C129	C	1.078808	0.421467	1.010366
C130	C	0.459061	-0.245189	0.343696
C131	C	0.792394	0.088145	0.677029
C132	C	1.125728	0.421478	1.010362
C133	C	0.459048	-0.187833	0.263055
C134	C	0.792381	0.145500	0.596389
C135	C	1.125714	0.478834	0.929722
C136	C	0.412132	-0.187842	0.263062
C137	C	0.745465	0.145491	0.596395
C138	C	1.078799	0.478825	0.929728
C139	C	0.388680	-0.216529	0.303386
C140	C	0.722013	0.116804	0.636719
C141	C	1.055347	0.450138	0.970053
O142	O	0.337904	-0.163473	0.228815
O143	O	0.671238	0.169860	0.562148
O144	O	1.004571	0.503193	0.895482
O145	O	0.337887	-0.269607	0.377986
O146	O	0.671220	0.063726	0.711320
O147	O	1.004554	0.397060	1.044653
C148	C	0.125951	-0.245242	0.343721
C149	C	0.459285	0.088092	0.677054
C150	C	0.792618	0.421425	1.010387
C151	C	0.102490	-0.216569	0.303403
C152	C	0.435823	0.116764	0.636736
C153	C	0.769157	0.450098	0.970070
C154	C	0.125944	-0.187889	0.263083
C155	C	0.459278	0.145444	0.596416
C156	C	0.792611	0.478777	0.929750
C157	C	0.055572	-0.216573	0.303409
C158	C	0.388906	0.116761	0.636742
C159	C	0.722239	0.450094	0.970075
C160	C	0.032118	-0.245252	0.343729
C161	C	0.365451	0.088081	0.677062
C162	C	0.698785	0.421414	1.010395
C163	C	0.055582	-0.273928	0.384043
C164	C	0.388915	0.059405	0.717376
C165	C	0.722248	0.392738	1.050710
C166	C	0.102497	-0.273921	0.384041
C167	C	0.435830	0.059412	0.717374
C168	C	0.769164	0.392745	1.050707
C169	C	0.102481	-0.159213	0.222769
C170	C	0.435814	0.174120	0.556102
C171	C	0.769147	0.507453	0.889435
C172	C	0.055565	-0.159222	0.222775
C173	C	0.388899	0.174111	0.556108
C174	C	0.722232	0.507444	0.889441
C175	C	0.032111	-0.187902	0.263095
C176	C	0.365444	0.145431	0.596428
C177	C	0.698778	0.478765	0.929762
C178	C	0.649184	-0.333723	0.303393
C179	C	0.982518	-0.000390	0.636726
C180	C	1.315851	0.332944	0.970059
C181	C	0.649190	-0.383657	0.303390
C182	C	0.982523	-0.050324	0.636724
C183	C	1.315856	0.283009	0.970057
C184	C	0.677971	-0.693321	0.263030
C185	C	1.011304	-0.359987	0.596364
C186	C	1.344637	-0.026654	0.929697
C187	C	0.677993	-0.880994	0.262977
C188	C	1.011326	-0.547660	0.596310
C189	C	1.344660	-0.214327	0.929643
O190	O	0.702431	-0.905275	0.228720
O191	O	1.035764	-0.571942	0.562054
O192	O	1.369097	-0.238609	0.895387
N193	N	0.649249	-0.904443	0.303222
N194	N	0.982582	-0.571109	0.636555
N195	N	1.315916	-0.237776	0.969888
C196	C	0.620495	-0.880971	0.343480
C197	C	0.953829	-0.547637	0.676814
C198	C	1.287162	-0.214304	1.010147
O199	O	0.596044	-0.905222	0.377706
O200	O	0.929377	-0.571889	0.711039
O201	O	1.262711	-0.238555	1.044372
C202	C	0.620471	-0.693298	0.343531
C203	C	0.953805	-0.359965	0.676864
C204	C	1.287138	-0.026632	1.010197
C205	C	0.649220	-0.669852	0.303287
C206	C	0.982554	-0.336518	0.636620
C207	C	1.315887	-0.003185	0.969954
C208	C	0.706717	-0.669874	0.222790
C209	C	1.040051	-0.336541	0.556123
C210	C	1.373384	-0.003207	0.889456
C211	C	0.706713	-0.622958	0.222806
C212	C	1.040046	-0.289625	0.556139
C213	C	1.373380	0.043708	0.889472
C214	C	0.677963	-0.599490	0.263063
C215	C	1.011296	-0.266156	0.596396
C216	C	1.344629	0.067177	0.929729
C217	C	0.649216	-0.622936	0.303303
C218	C	0.982549	-0.289603	0.636637
C219	C	1.315883	0.043730	0.969970
C220	C	0.591716	-0.669827	0.383786
C221	C	0.925049	-0.336494	0.717119
C222	C	1.258382	-0.003161	1.050452
C223	C	0.591711	-0.622906	0.383793
C224	C	0.925045	-0.289573	0.717127
C225	C	1.258378	0.043760	1.050460
C226	C	0.620460	-0.599460	0.343550
C227	C	0.953794	-0.266126	0.676883
C228	C	1.287127	0.067207	1.010217
C229	C	0.620461	-0.552552	0.343576
C230	C	0.953795	-0.219219	0.676910
C231	C	1.287128	0.114115	1.010243
N232	N	0.649205	-0.529103	0.303331
N233	N	0.982539	-0.195770	0.636665
N234	N	1.315872	0.137564	0.969998
C235	C	0.677956	-0.552572	0.263074
C236	C	1.011289	-0.219238	0.596408
C237	C	1.344623	0.114095	0.929741
C238	C	0.620511	-0.979501	0.343452
C239	C	0.953844	-0.646168	0.676786
C240	C	1.287177	-0.312835	1.010119
C241	C	0.620517	-1.026419	0.343441
C242	C	0.953851	-0.693086	0.676774
C243	C	1.287184	-0.359753	1.010107
C244	C	0.678015	-1.026439	0.262936
C245	C	1.011348	-0.693106	0.596269
C246	C	1.344681	-0.359772	0.929602
C247	C	0.678010	-0.979520	0.262951
C248	C	1.011343	-0.646187	0.596284
C249	C	1.344677	-0.312854	0.929618
C250	C	0.649255	-0.956052	0.303207
C251	C	0.982588	-0.622719	0.636540
C252	C	1.315921	-0.289386	0.969874
C253	C	0.677945	-0.454046	0.263112
C254	C	1.011279	-0.120713	0.596445
C255	C	1.344612	0.212621	0.929779
C256	C	0.677940	-0.407126	0.263134
C257	C	1.011273	-0.073793	0.596467
C258	C	1.344607	0.259540	0.929800
C259	C	0.620441	-0.407111	0.343636
C260	C	0.953775	-0.073777	0.676969
C261	C	1.287108	0.259556	1.010302
C262	C	0.620448	-0.454026	0.343617
C263	C	0.953782	-0.120693	0.676950
C264	C	1.287115	0.212641	1.010283
C265	C	0.649202	-0.477493	0.303350
C266	C	0.982535	-0.144159	0.636683
C267	C	1.315868	0.189174	0.970016
O268	O	0.596033	-0.528242	0.377810
O269	O	0.929367	-0.194908	0.711143
O270	O	1.262700	0.138425	1.044476
O271	O	0.702397	-0.528313	0.228844
O272	O	1.035730	-0.194979	0.562178
O273	O	1.369063	0.138354	0.895511
C274	C	0.677975	-0.740236	0.263014
C275	C	1.011308	-0.406903	0.596347
C276	C	1.344642	-0.073569	0.929681
C277	C	0.649229	-0.763683	0.303255
C278	C	0.982562	-0.430349	0.636588
C279	C	1.315895	-0.097016	0.969921
C280	C	0.620478	-0.740214	0.343511
C281	C	0.953811	-0.406881	0.676845
C282	C	1.287145	-0.073547	1.010178
C283	C	0.649235	-0.810601	0.303243
C284	C	0.982568	-0.477267	0.636576
C285	C	1.315902	-0.143934	0.969910
C286	C	0.677986	-0.834069	0.262986
C287	C	1.011319	-0.500736	0.596319
C288	C	1.344652	-0.167403	0.929653
C289	C	0.706730	-0.810620	0.222741
C290	C	1.040063	-0.477287	0.556074
C291	C	1.373396	-0.143954	0.889408
C292	C	0.706726	-0.763705	0.222757
C293	C	1.040059	-0.430372	0.556090
C294	C	1.373392	-0.097038	0.889424
C295	C	0.591734	-0.763663	0.383757
C296	C	0.925067	-0.430330	0.717090
C297	C	1.258401	-0.096996	1.050423
C298	C	0.591741	-0.810579	0.383738
C299	C	0.925074	-0.477245	0.717071
C300	C	1.258408	-0.143912	1.050404
C301	C	0.620491	-0.834047	0.343481
C302	C	0.953825	-0.500714	0.676814
C303	C	1.287158	-0.167381	1.010148
C304	C	0.766351	-0.216577	0.303426
C305	C	1.099684	0.116756	0.636759
C306	C	1.433017	0.450089	0.970092
C307	C	0.816285	-0.216591	0.303437
C308	C	1.149618	0.116742	0.636771
C309	C	1.482952	0.450075	0.970104
C310	C	0.649113	-0.216520	0.466950
C311	C	0.982447	0.116814	0.800283
C312	C	1.315780	0.450147	1.133617
C313	C	0.649129	-0.216524	0.536918
C314	C	0.982463	0.116809	0.870252
C315	C	1.315796	0.450143	1.203585
C316	C	0.649186	-0.099822	0.303359
C317	C	0.982519	0.233511	0.636692
C318	C	1.315853	0.566844	0.970025
C319	C	0.649268	-0.049888	0.303184
C320	C	0.982601	0.283445	0.636517
C321	C	1.315935	0.616779	0.969850
C322	C	0.649244	-0.216579	0.139208
C323	C	0.982577	0.116754	0.472542
C324	C	1.315910	0.450087	0.805875
C325	C	0.649274	-0.216594	0.069240
C326	C	0.982607	0.116739	0.402573
C327	C	1.315941	0.450072	0.735907
C328	C	0.677885	-0.187828	0.569772
C329	C	1.011219	0.145505	0.903105
C330	C	1.344552	0.478839	1.236439
C331	C	0.677906	-0.187838	0.635515
C332	C	1.011240	0.145495	0.968848
C333	C	1.344573	0.478828	1.302181
C334	C	0.649163	-0.216540	0.668401
C335	C	0.982497	0.116794	1.001734
C336	C	1.315830	0.450127	1.335067
C337	C	0.620405	-0.245241	0.635539
C338	C	0.953739	0.088092	0.968872
C339	C	1.287072	0.421425	1.302206
C340	C	0.620388	-0.245234	0.569798
C341	C	0.953721	0.088100	0.903131
C342	C	1.287055	0.421433	1.236464
N343	N	0.609863	-0.219954	0.771663
N344	N	0.943196	0.113380	1.104996
N345	N	1.276529	0.446713	1.438329
N346	N	0.609880	-0.219958	0.834114
N347	N	0.943213	0.113375	1.167447
N348	N	1.276547	0.446708	1.500781
C349	C	0.649214	-0.216565	0.866475
C350	C	0.982547	0.116768	1.199809
C351	C	1.315880	0.450101	1.533142
N352	N	0.688530	-0.213159	0.834026
N353	N	1.021863	0.120175	1.167359
N354	N	1.355197	0.453508	1.500693
N355	N	0.688512	-0.213152	0.771569
N356	N	1.021845	0.120182	1.104902
N357	N	1.355179	0.453515	1.438236
C358	C	0.649179	-0.216551	0.739686
C359	C	0.982512	0.116782	1.073019
C360	C	1.315845	0.450115	1.406353
C361	C	0.677995	-0.187879	0.970615
C362	C	1.011328	0.145455	1.303948
C363	C	1.344662	0.478788	1.637281
C364	C	0.678017	-0.187892	1.036358
C365	C	1.011350	0.145441	1.369692
C366	C	1.344683	0.478775	1.703025
C367	C	0.620512	-0.245293	1.036382
C368	C	0.953845	0.088041	1.369715
C369	C	1.287178	0.421374	1.703048
C370	C	0.620494	-0.245282	0.970639
C371	C	0.953827	0.088051	1.303972
C372	C	1.287160	0.421385	1.637306
C373	C	0.649235	-0.216572	0.937760
C374	C	0.982568	0.116761	1.271093
C375	C	1.315902	0.450094	1.604426
H376	H	0.478161	-0.268539	0.376532
H377	H	0.811494	0.064794	0.709866
H378	H	1.144828	0.398127	1.043199
H379	H	0.478153	-0.164481	0.230230
H380	H	0.811486	0.168852	0.563563
H381	H	1.144819	0.502185	0.896897
H382	H	-0.094251	-0.164552	0.230272
H383	H	0.239082	0.168781	0.563606
H384	H	0.572415	0.502115	0.896939
H385	H	0.701353	-0.388038	0.230362
H386	H	1.034686	-0.054705	0.563695
H387	H	1.368019	0.278629	0.897029
H388	H	0.262341	-0.297251	0.416866
H389	H	0.595675	0.036082	0.750199
H390	H	0.929008	0.369416	1.083533
H391	H	0.597043	-0.473117	0.376392
H392	H	0.930376	-0.139784	0.709725
H393	H	1.263709	0.193549	1.043059
H394	H	0.597112	-1.045506	0.376218
H395	H	0.930445	-0.712172	0.709551
H396	H	1.263778	-0.378839	1.042884
H397	H	0.701399	-0.164503	0.943843
H398	H	1.034733	0.168830	1.277177
H399	H	1.368066	0.502163	1.610510
H400	H	0.701289	-0.164452	0.543003
H401	H	1.034622	0.168881	0.876337
H402	H	1.367956	0.502214	1.209670
H403	H	0.597095	-0.960398	0.376238
H404	H	0.930428	-0.627065	0.709571
H405	H	1.263762	-0.293731	1.042904
H406	H	0.568305	-0.688909	0.416556
H407	H	0.901638	-0.355576	0.749889
H408	H	1.234971	-0.022243	1.083223
H409	H	-0.094234	-0.268613	0.376585
H410	H	0.239100	0.064720	0.709918
H411	H	0.572433	0.398053	1.043251
H412	H	0.596971	-0.268602	0.543047
H413	H	0.930304	0.064731	0.876381
H414	H	1.263638	0.398065	1.209714
H415	H	0.177237	-0.297264	0.416869
H416	H	0.510570	0.036069	0.750203
H417	H	0.843903	0.369403	1.083536
H418	H	0.701436	-0.164525	1.063107
H419	H	1.034770	0.168808	1.396440
H420	H	1.368103	0.502142	1.729774
H421	H	0.730123	-0.603872	0.190034
H422	H	1.063456	-0.270539	0.523368
H423	H	1.396789	0.062794	0.856701
H424	H	0.701325	-0.164471	0.662269
H425	H	1.034658	0.168863	0.995603
H426	H	1.367991	0.502196	1.328936
H427	H	0.393029	-0.164492	0.230230
H428	H	0.726362	0.168841	0.563563
H429	H	1.059696	0.502175	0.896897
H430	H	0.597003	-0.268611	0.662319
H431	H	0.930337	0.064722	0.995652
H432	H	1.263670	0.398056	1.328986
H433	H	-0.179356	-0.268622	0.376586
H434	H	0.153977	0.064712	0.709919
H435	H	0.487311	0.398045	1.043252
H436	H	0.597110	-0.268664	1.063157
H437	H	0.930444	0.064669	1.396490
H438	H	1.263777	0.398003	1.729824
H439	H	0.393052	-0.268560	0.376534
H440	H	0.726386	0.064773	0.709867
H441	H	1.059719	0.398106	1.043201
H442	H	-0.179359	-0.164558	0.230290
H443	H	0.153974	0.168776	0.563623
H444	H	0.487308	0.502109	0.896957
H445	H	0.701425	-1.045555	0.230157
H446	H	1.034758	-0.712222	0.563491
H447	H	1.368091	-0.378889	0.896824
H448	H	0.177223	-0.135851	0.189917
H449	H	0.510556	0.197483	0.523250
H450	H	0.843889	0.530816	0.856584
H451	H	0.121595	-0.297271	0.416874
H452	H	0.454928	0.036062	0.750207
H453	H	0.788262	0.369395	1.083541
H454	H	0.568290	-0.603801	0.416569
H455	H	0.901623	-0.270468	0.749902
H456	H	1.234957	0.062866	1.083235
H457	H	0.597035	-0.387994	0.376414
H458	H	0.930368	-0.054661	0.709747
H459	H	1.263701	0.278673	1.043081
H460	H	0.597076	-0.268647	0.943888
H461	H	0.930409	0.064686	1.277221
H462	H	1.263743	0.398020	1.610554
H463	H	0.701419	-0.960433	0.230180
H464	H	1.034753	-0.627100	0.563513
H465	H	1.368086	-0.293766	0.896847
H466	H	0.262331	-0.135849	0.189904
H467	H	0.595664	0.197484	0.523237
H468	H	0.928998	0.530818	0.856570
H469	H	0.036467	-0.135868	0.189941
H470	H	0.369801	0.197466	0.523274
H471	H	0.703134	0.530799	0.856608
H472	H	0.121572	-0.135858	0.189934
H473	H	0.454906	0.197475	0.523268
H474	H	0.788239	0.530808	0.856601
H475	H	0.036477	-0.297279	0.416875
H476	H	0.369810	0.036054	0.750208
H477	H	0.703144	0.369388	1.083542
H478	H	0.701358	-0.473147	0.230320
H479	H	1.034691	-0.139813	0.563654
H480	H	1.368025	0.193520	0.896987
H481	H	0.730129	-0.688977	0.190004
H482	H	1.063463	-0.355644	0.523337
H483	H	1.396796	-0.022311	0.856671
H484	H	0.730141	-0.829737	0.189964
H485	H	1.063474	-0.496403	0.523298
H486	H	1.396808	-0.163070	0.856631
H487	H	0.568331	-0.829665	0.416515
H488	H	0.901664	-0.496331	0.749848
H489	H	1.234997	-0.162998	1.083181
H490	H	0.730136	-0.744619	0.189986
H491	H	1.063469	-0.411285	0.523320
H492	H	1.396802	-0.077952	0.856653
H493	H	0.568322	-0.744559	0.416540
H494	H	0.901655	-0.411226	0.749874
H495	H	1.234989	-0.077893	1.083207
