data_functionalizedCrystal
_audit_creation_method	'MofGen! by Chris Wilmer'
_symmetry_space_group_name_H-M	'P1'
_symmetry_Int_Tables_number	1
_symmetry_cell_setting	triclinic
loop_
_symmetry_equiv_pos_as_xyz
  x,y,z
_cell_length_a	14.519709
_cell_length_b	17.038272
_cell_length_c	12.996460
_cell_angle_alpha	89.993697
_cell_angle_beta	90.000034
_cell_angle_gamma	87.395851
loop_
_atom_site_label
_atom_site_type_symbol
_atom_site_fract_x
_atom_site_fract_y
_atom_site_fract_z
O1	O	1.231711	0.102503	-0.085433
O2	O	0.964158	0.114573	-0.085465
O3	O	1.096345	-0.005280	-0.085441
O4	O	1.099525	0.222356	-0.085457
O5	O	1.096329	-0.005287	0.085693
O6	O	0.964143	0.114567	0.085669
O7	O	1.231696	0.102496	0.085701
Cu8	Cu	1.097918	0.108531	0.101311
Cu9	Cu	1.097936	0.108539	-0.101075
O10	O	1.099510	0.222349	0.085677
C11	C	0.929748	0.114008	0.000098
C12	C	0.827237	0.112322	0.000086
C13	C	0.451867	0.106116	0.000134
C14	C	0.556307	0.107839	0.000120
C15	C	0.639549	0.109219	0.000109
C16	C	0.743995	0.110942	0.000098
C17	C	1.093444	-0.034416	0.000125
C18	C	1.084814	-0.121223	0.000124
C19	C	1.164047	-0.171209	0.000135
C20	C	1.155933	-0.252773	0.000124
C21	C	1.068585	-0.284349	0.000110
C22	C	0.989347	-0.234357	0.000097
C23	C	0.997462	-0.152795	0.000100
C24	C	1.039916	-0.530153	0.000093
C25	C	1.031807	-0.611722	0.000092
C26	C	1.198394	-0.630132	0.000118
C27	C	1.206502	-0.548568	0.000127
C28	C	1.127263	-0.498583	0.000108
C29	C	1.060289	-0.367720	0.000102
C30	C	1.135560	-0.415213	0.000109
C31	C	1.266107	0.103062	0.000135
C32	C	1.368617	0.104748	0.000141
C33	C	1.102410	0.251486	0.000108
C34	C	1.111040	0.338292	0.000103
N35	N	1.097912	0.108525	0.243658
N36	N	1.097949	0.108538	-0.243422
C37	C	1.097935	0.108539	0.663472
C38	C	1.097926	0.108538	0.546667
C39	C	1.097924	0.108533	0.453569
C40	C	1.097914	0.108530	0.336756
H41	H	1.235175	-0.145506	0.000152
H42	H	0.932942	-0.112096	0.000091
H43	H	1.206678	-0.389500	0.000097
N44	N	1.241391	-0.306687	0.000141
H45	H	1.297956	-0.274307	0.000159
H46	H	1.241638	-0.340933	0.063583
N47	N	1.283857	-0.684040	0.000122
H48	H	1.321678	-0.673876	0.063566
H49	H	1.265396	-0.740479	0.000077
N50	N	0.966078	-0.401775	0.000097
H51	H	0.959005	-0.435198	-0.063344
H52	H	0.959059	-0.435173	0.063576
H53	H	0.975394	-0.489465	0.000078
N54	N	1.300712	-0.514512	0.000148
H55	H	1.349676	-0.558555	0.000153
H56	H	1.307716	-0.481064	-0.063289
H57	H	0.960675	-0.637427	0.000098
H58	H	0.918226	-0.260072	0.000079
