data_functionalizedCrystal
_audit_creation_method	'MofGen! by Chris Wilmer'
_symmetry_space_group_name_H-M	'P1'
_symmetry_Int_Tables_number	1
_symmetry_cell_setting	triclinic
loop_
_symmetry_equiv_pos_as_xyz
  x,y,z
_cell_length_a	11.792241
_cell_length_b	10.654550
_cell_length_c	9.130313
_cell_angle_alpha	90.000110
_cell_angle_beta	89.996046
_cell_angle_gamma	84.339159
loop_
_atom_site_label
_atom_site_type_symbol
_atom_site_fract_x
_atom_site_fract_y
_atom_site_fract_z
O1	O	-1.507300	-0.172130	-0.121653
O2	O	-1.177000	-0.189870	-0.121687
O3	O	-1.349744	0.001761	-0.121664
O4	O	-1.334556	-0.363761	-0.121676
O5	O	-1.349742	0.001756	0.121935
O6	O	-1.176998	-0.189875	0.121912
O7	O	-1.507298	-0.172135	0.121946
Cu8	Cu	-1.342148	-0.181006	0.144171
Cu9	Cu	-1.342150	-0.180999	-0.143912
O10	O	-1.334554	-0.363766	0.121923
C11	C	-1.348628	0.048553	0.000134
C12	C	-1.345291	0.187987	0.000128
C13	C	-1.134705	-0.188758	0.000108
C14	C	-1.008684	-0.185423	0.000095
C15	C	-1.549592	-0.173247	0.000147
C16	C	-1.675614	-0.176582	0.000151
C17	C	-0.777958	-0.179290	0.000138
C18	C	-0.906351	-0.182697	0.000114
C19	C	-1.335670	-0.410558	0.000122
C20	C	-1.339006	-0.549992	0.000118
N21	N	-1.342154	-0.181009	0.346794
C22	C	-1.447000	0.267760	0.000143
C23	C	-1.443858	0.398772	0.000133
C24	C	-1.237290	0.370224	0.000099
C25	C	-1.240433	0.239215	0.000099
C26	C	-1.551859	0.216532	0.000173
C27	C	-1.653577	0.296307	0.000189
C28	C	-1.650435	0.427319	0.000179
C29	C	-1.545575	0.478556	0.000152
N30	N	-1.342152	-0.180986	-0.346535
C31	C	-1.418665	-0.096184	0.423456
C32	C	-1.418662	-0.096169	0.576793
C33	C	-1.265633	-0.265815	0.576792
C34	C	-1.265632	-0.265823	0.423458
C35	C	-1.495187	-0.011370	0.346792
C36	C	-1.571705	0.073461	0.423455
C37	C	-1.571702	0.073476	0.576791
C38	C	-1.495181	-0.011340	0.653466
H39	H	-1.738949	0.254580	0.000175
O40	O	-1.749343	0.504633	0.000252
C41	C	-1.842561	0.431318	0.000239
H42	H	-1.814517	0.333747	0.046356
H43	H	-1.874659	0.421769	-0.116621
C44	C	-1.973352	0.615771	0.039143
C45	C	-1.938911	0.495936	0.095797
H46	H	-2.032788	0.655632	0.098082
H47	H	-1.910550	0.665166	0.039147
H48	H	-2.000093	0.607797	-0.058239
H49	H	-1.912157	0.503913	0.193170
H50	H	-2.001711	0.446544	0.095812
H51	H	-1.203334	-0.334870	0.639230
O52	O	-1.141528	0.161895	0.000148
C53	C	-1.048303	0.235200	0.000095
H54	H	-1.076332	0.332772	0.046226
H55	H	-1.016221	0.244748	-0.116778
C56	C	-0.917520	0.050734	0.038942
C57	C	-0.951943	0.170570	0.095612
H58	H	-0.858078	0.010866	0.097854
H59	H	-0.980326	0.001346	0.038972
H60	H	-0.890792	0.058707	-0.058452
H61	H	-0.978683	0.162594	0.192996
H62	H	-0.889138	0.219956	0.095600
O63	O	-1.495354	-0.011187	0.802418
C64	C	-1.579266	0.081900	0.853647
H65	H	-1.646713	0.103289	0.765295
H66	H	-1.538056	0.171456	0.880826
C67	C	-1.552650	0.007445	1.100756
C68	C	-1.635494	0.033707	0.992245
H69	H	-1.587331	-0.022278	1.186254
H70	H	-1.496113	-0.055267	1.066244
H71	H	-1.518314	0.082081	1.123387
H72	H	-1.669817	-0.040931	0.969603
H73	H	-1.692038	0.096406	1.026757
H74	H	-1.543025	0.585236	0.000128
H75	H	-1.203328	-0.334895	0.361039
O76	O	-1.645917	0.156045	0.349074
C77	C	-1.626490	0.280495	0.386593
H78	H	-1.535607	0.281765	0.428712
H79	H	-1.689091	0.316906	0.475627
C80	C	-1.755099	0.363977	0.198676
C81	C	-1.643471	0.365538	0.250396
H82	H	-1.765578	0.416439	0.114667
H83	H	-1.768191	0.280134	0.173402
H84	H	-1.807253	0.394317	0.272884
H85	H	-1.591319	0.335184	0.176195
H86	H	-1.630371	0.449380	0.275655
H87	H	-1.554429	0.109857	0.000186
H88	H	-1.495199	-0.011377	0.221938
H89	H	-1.151918	0.411953	0.000079
H90	H	-1.633998	0.142557	0.639208
