data_functionalizedCrystal
_audit_creation_method	'MofGen! by Chris Wilmer'
_symmetry_space_group_name_H-M	'P1'
_symmetry_Int_Tables_number	1
_symmetry_cell_setting	triclinic
loop_
_symmetry_equiv_pos_as_xyz
  x,y,z
_cell_length_a	6.817900
_cell_length_b	11.102244
_cell_length_c	17.982968
_cell_angle_alpha	94.232195
_cell_angle_beta	102.451960
_cell_angle_gamma	108.604870
loop_
_atom_site_label
_atom_site_type_symbol
_atom_site_fract_x
_atom_site_fract_y
_atom_site_fract_z
V1	V	-4.041367	-0.177029	-0.237546
O2	O	-4.001741	0.007282	-0.233027
O3	O	-4.018618	-0.349840	-0.235920
O4	O	-3.987550	-0.174843	-0.341150
O5	O	-4.033024	-0.168927	-0.127068
V6	V	-4.522373	-0.154920	-0.224333
O7	O	-4.308146	-0.225527	-0.266532
O8	O	-4.705791	-0.106421	-0.195347
O9	O	-4.321915	0.017892	-0.225959
O10	O	-4.679396	-0.339231	-0.228853
O11	O	-4.648112	-0.163022	-0.334811
O12	O	-4.352983	-0.157105	-0.120730
C13	C	-3.870034	-0.391951	-0.232172
C14	C	-3.932685	-0.533230	-0.231533
C15	C	-3.922552	-0.581114	-0.161465
C16	C	-3.981432	-0.713863	-0.160873
C17	C	-4.060567	-0.750835	-0.300423
C18	C	-4.001702	-0.618088	-0.301014
C19	C	-3.876856	-0.559769	-0.080897
C20	C	-3.935736	-0.692519	-0.080305
C21	C	-3.830402	-0.168724	-0.366402
C22	C	-3.867854	-0.168080	-0.451098
C23	C	-4.068315	-0.174146	-0.494770
C24	C	-4.103492	-0.173541	-0.574350
C25	C	-3.938211	-0.166878	-0.610259
C26	C	-3.737732	-0.160808	-0.566581
C27	C	-3.702553	-0.161404	-0.487001
C28	C	-3.879603	-0.158401	-0.887518
C29	C	-3.914801	-0.157809	-0.967104
C30	C	-4.280542	-0.170538	-0.974867
C31	C	-4.245363	-0.171134	-0.895287
C32	C	-4.044885	-0.165057	-0.851616
C33	C	-4.006742	-0.165711	-0.765325
C34	C	-3.976356	-0.166233	-0.696549
C35	C	-4.133842	0.059996	-0.229705
C36	C	-4.050429	0.201274	-0.230349
C37	C	-4.173474	-0.163229	-0.095473
C38	C	-4.115259	-0.163866	-0.010776
H39	H	-3.793759	-0.715367	-0.046297
O40	O	-3.684929	-0.152777	-0.845200
C41	C	-3.636535	-0.259406	-0.872692
H42	H	-3.791112	-0.340252	-0.904033
H43	H	-3.548539	-0.294091	-0.822103
H44	H	-3.530824	-0.230101	-0.914170
H45	H	-3.603157	-0.155375	-0.595823
H46	H	-3.539304	-0.156433	-0.451441
H47	H	-3.780195	-0.152380	-0.996338
O48	O	-4.298369	-0.179652	-0.616755
C49	C	-4.455152	-0.294283	-0.609992
H50	H	-4.376314	-0.368062	-0.593079
H51	H	-4.579421	-0.333894	-0.667554
H52	H	-4.536500	-0.273586	-0.563876
H53	H	-4.116766	-0.819942	-0.356992
O54	O	-4.011600	-0.571786	-0.369144
C55	C	-4.085187	-0.675154	-0.430340
H56	H	-4.052022	-0.762105	-0.408146
H57	H	-3.998458	-0.646271	-0.477291
H58	H	-4.264579	-0.700671	-0.455069
H59	H	-4.202915	-0.179580	-0.465540
O60	O	-4.004308	-0.513070	-0.047559
C61	C	-3.980381	-0.537437	0.029130
H62	H	-3.919972	-0.621701	0.035590
H63	H	-4.141402	-0.561991	0.044116
H64	H	-3.860428	-0.448329	0.069697
O65	O	-3.665407	-0.496632	-0.047571
C66	C	-3.617638	-0.516950	0.029743
H67	H	-3.769636	-0.543234	0.051001
H68	H	-3.494233	-0.425355	0.066887
H69	H	-3.550419	-0.598689	0.033862
O70	O	-4.113207	-0.739972	-0.053738
C71	C	-4.062800	-0.796321	0.012235
H72	H	-3.916206	-0.824512	0.011797
H73	H	-4.204001	-0.885663	0.012063
H74	H	-4.027435	-0.724358	0.066191
O75	O	-4.405713	-0.177660	-0.860291
C76	C	-4.331660	-0.176855	-0.780684
H77	H	-4.189469	-0.211909	-0.770256
H78	H	-4.465413	-0.243163	-0.758711
H79	H	-4.280222	-0.074845	-0.748712
O80	O	-4.475277	-0.176596	-1.017390
C81	C	-4.560689	-0.287279	-1.073977
H82	H	-4.425212	-0.318541	-1.085970
H83	H	-4.650659	-0.264673	-1.129258
H84	H	-4.675262	-0.368122	-1.052461
