data_functionalizedCrystal
_audit_creation_method	'MofGen! by Chris Wilmer'
_symmetry_space_group_name_H-M	'P1'
_symmetry_Int_Tables_number	1
_symmetry_cell_setting	triclinic
loop_
_symmetry_equiv_pos_as_xyz
  x,y,z
_cell_length_a	17.699083
_cell_length_b	27.732048
_cell_length_c	16.176319
_cell_angle_alpha	90.001929
_cell_angle_beta	90.007696
_cell_angle_gamma	82.962835
loop_
_atom_site_label
_atom_site_type_symbol
_atom_site_fract_x
_atom_site_fract_y
_atom_site_fract_z
O1	O	0.090060	0.641253	0.068642
O2	O	0.103753	0.500509	0.068667
O3	O	-0.013318	0.574857	0.068646
O4	O	0.207130	0.566904	0.068662
O5	O	-0.013325	0.574847	-0.068847
O6	O	0.103746	0.500498	-0.068826
O7	O	0.090052	0.641243	-0.068851
Cu8	Cu	0.096898	0.570870	-0.081393
Cu9	Cu	0.096907	0.570882	0.081209
O10	O	0.207123	0.566894	-0.068831
C11	C	0.103462	0.482496	-0.000076
C12	C	0.102596	0.428838	-0.000067
C13	C	-0.041516	0.574567	-0.000100
C14	C	-0.125527	0.573712	-0.000100
C15	C	-0.174532	0.617353	-0.000109
C16	C	-0.253469	0.616547	-0.000102
C17	C	-0.283398	0.572099	-0.000091
C18	C	-0.234386	0.528455	-0.000080
C19	C	-0.155451	0.529262	-0.000081
C20	C	-0.552720	0.525201	-0.000073
C21	C	-0.631661	0.524398	-0.000074
C22	C	-0.650738	0.612486	-0.000093
C23	C	-0.571803	0.613293	-0.000095
C24	C	-0.522798	0.569649	-0.000079
C25	C	-0.437207	0.570524	-0.000085
C26	C	-0.368987	0.571224	-0.000091
C27	C	0.166329	0.090252	-0.000098
C28	C	0.163117	-0.111419	-0.000106
O29	O	0.221396	-0.142466	-0.000137
N30	N	0.093699	-0.130793	-0.000109
C31	C	0.025079	-0.099745	-0.000116
O32	O	-0.034039	-0.120851	-0.000128
C33	C	0.028291	0.101925	-0.000115
C34	C	0.097714	0.121296	-0.000103
C35	C	0.235746	0.109623	-0.000087
C36	C	0.236548	0.160037	-0.000081
C37	C	0.167933	0.191081	-0.000085
C38	C	0.098516	0.171710	-0.000096
C39	C	-0.040329	0.132972	-0.000128
C40	C	-0.039519	0.183392	-0.000129
C41	C	0.029903	0.202763	-0.000117
C42	C	0.030703	0.253169	-0.000095
N43	N	0.100121	0.272543	-0.000091
C44	C	0.168736	0.241499	-0.000086
C45	C	0.023397	-0.205625	-0.000116
C46	C	0.022594	-0.256042	-0.000115
C47	C	0.160633	-0.267713	-0.000106
C48	C	0.161435	-0.217295	-0.000101
C49	C	0.092815	-0.186252	-0.000112
C50	C	0.170415	0.347374	-0.000072
C51	C	0.171211	0.397794	-0.000062
C52	C	0.033173	0.409460	-0.000076
C53	C	0.032376	0.359045	-0.000081
C54	C	0.101004	0.328002	-0.000082
O55	O	-0.027545	0.284244	-0.000072
O56	O	0.227845	0.262614	-0.000093
C57	C	0.165526	0.039837	-0.000105
C58	C	0.096109	0.020466	-0.000116
C59	C	0.027494	0.051510	-0.000120
C60	C	0.095306	-0.029951	-0.000115
C61	C	0.163921	-0.060995	-0.000110
C62	C	0.233339	-0.041622	-0.000106
C63	C	0.234141	0.008793	-0.000100
C64	C	-0.041924	0.032137	-0.000124
C65	C	-0.042720	-0.018279	-0.000129
C66	C	0.025895	-0.049323	-0.000125
C67	C	0.235321	0.567184	-0.000082
C68	C	0.319332	0.568039	-0.000077
C69	C	0.090343	0.659256	-0.000106
C70	C	0.091209	0.712914	-0.000110
N71	N	0.096892	0.570865	-0.195758
C72	C	0.045074	0.603796	-0.239031
C73	C	0.045073	0.603799	-0.325579
C74	C	0.096894	0.570872	-0.368851
C75	C	0.148715	0.537937	-0.325571
C76	C	0.148711	0.537932	-0.239026
C77	C	0.148729	0.537953	-0.674600
C78	C	0.148730	0.537961	-0.761151
C79	C	0.045090	0.603819	-0.761152
C80	C	0.045087	0.603815	-0.674607
C81	C	0.096904	0.570879	-0.631335
C82	C	0.096904	0.570876	-0.537491
C83	C	0.096899	0.570876	-0.462693
N84	N	0.096907	0.570891	0.195574
H85	H	-0.293367	0.652084	-0.000111
H86	H	-0.512829	0.489663	-0.000060
H87	H	-0.095399	0.208666	-0.000139
H88	H	0.217965	-0.201528	-0.000096
C89	C	-0.052092	-0.171482	-0.000119
C90	C	-0.109150	-0.173607	-0.071513
C91	C	-0.184640	-0.139467	-0.071511
C92	C	-0.203072	-0.103201	-0.000114
C93	C	-0.146012	-0.101075	0.071286
C94	C	-0.070522	-0.135215	0.071284
H95	H	-0.095507	-0.200454	-0.124370
H96	H	-0.226880	-0.141041	-0.124366
H97	H	-0.258954	-0.077929	-0.000112
H98	H	-0.159655	-0.074228	0.124144
H99	H	-0.028283	-0.133641	0.124139
H100	H	-0.690647	0.648023	-0.000102
H101	H	0.227746	0.413562	-0.000052
H102	H	0.289208	-0.066907	-0.000099
H103	H	0.293079	0.175804	-0.000071
C104	C	-0.011918	0.640034	-0.627007
C105	C	0.017254	0.676960	-0.567494
C106	C	-0.039754	0.713178	-0.519895
C107	C	-0.125935	0.712470	-0.531809
C108	C	-0.155112	0.675543	-0.591324
C109	C	-0.098103	0.639325	-0.638924
H110	H	0.081054	0.677485	-0.558672
H111	H	-0.018155	0.740514	-0.475837
H112	H	-0.168136	0.739281	-0.496573
H113	H	-0.218912	0.675018	-0.600146
H114	H	-0.119702	0.611989	-0.682981
C115	C	-0.011918	0.640047	-0.808753
C116	C	-0.011925	0.640055	-0.903949
C117	C	-0.068930	0.676283	-0.951546
C118	C	-0.125927	0.712503	-0.903947
C119	C	-0.125922	0.712497	-0.808745
C120	C	-0.068918	0.676269	-0.761148
H121	H	0.030270	0.613241	-0.939190
H122	H	-0.068933	0.676287	-1.022021
H123	H	-0.168125	0.739321	-0.939181
H124	H	-0.168117	0.739311	-0.773504
H125	H	-0.068914	0.676265	-0.690673
H126	H	-0.096860	0.117210	-0.000138
C127	C	-0.117407	0.066280	-0.000122
C128	C	-0.174466	0.064160	-0.071517
C129	C	-0.249956	0.098300	-0.071508
C130	C	-0.268386	0.134561	-0.000105
C131	C	-0.211325	0.136683	0.071296
C132	C	-0.135836	0.102542	0.071287
H133	H	-0.160825	0.037316	-0.124379
H134	H	-0.292196	0.096730	-0.124364
H135	H	-0.324267	0.159834	-0.000098
H136	H	-0.224967	0.163527	0.124157
H137	H	-0.093596	0.104113	0.124143
H138	H	-0.547440	0.649487	-0.000107
H139	H	0.190906	0.511116	-0.203794
C140	C	0.205721	0.501716	-0.373166
C141	C	0.205767	0.501741	-0.468363
C142	C	0.262776	0.465520	-0.515955
C143	C	0.319740	0.429274	-0.468350
C144	C	0.319696	0.429247	-0.373148
C145	C	0.262686	0.465468	-0.325556
H146	H	0.163597	0.528573	-0.503608
H147	H	0.262808	0.465539	-0.586430
H148	H	0.361942	0.402461	-0.503581
H149	H	0.361866	0.402415	-0.337904
H150	H	0.262654	0.465448	-0.255081
H151	H	0.190930	0.511146	-0.796382
H152	H	-0.656025	0.488201	-0.000067
C153	C	-0.267305	0.479561	-0.000061
C154	C	-0.354129	0.478671	-0.000059
C155	C	-0.387046	0.429776	-0.000039
C156	C	-0.333138	0.381772	-0.000022
C157	C	-0.246309	0.382660	-0.000024
C158	C	-0.213392	0.431555	-0.000043
H159	H	-0.394039	0.514209	-0.000072
H160	H	-0.451323	0.429119	-0.000038
H161	H	-0.357505	0.345577	-0.000008
H162	H	-0.206398	0.347122	-0.000011
H163	H	-0.149114	0.432212	-0.000045
H164	H	-0.150171	0.653548	-0.000123
C165	C	-0.043986	0.337732	-0.000092
C166	C	-0.100813	0.349484	-0.071497
C167	C	-0.177175	0.328175	-0.071519
C168	C	-0.196710	0.295113	-0.000136
C169	C	-0.139882	0.283360	0.071274
C170	C	-0.063520	0.304669	0.071296
H171	H	-0.086353	0.373960	-0.124343
H172	H	-0.219243	0.336876	-0.124381
H173	H	-0.253238	0.279339	-0.000153
H174	H	-0.154342	0.258884	0.124120
H175	H	-0.021452	0.295968	0.124158
H176	H	-0.115551	0.493725	-0.000074
H177	H	0.226298	0.322104	-0.000076
C178	C	0.311231	0.075480	-0.000078
C179	C	0.368275	0.077609	0.071328
C180	C	0.443767	0.043470	0.071344
C181	C	0.462214	0.007202	-0.000046
C182	C	0.405168	0.005072	-0.071458
C183	C	0.329676	0.039211	-0.071475
H184	H	0.354621	0.104457	0.124181
H185	H	0.485996	0.045047	0.124209
H186	H	0.518097	-0.018069	-0.000034
H187	H	0.418822	-0.021777	-0.124311
H188	H	0.287447	0.037634	-0.124339
H189	H	0.216502	-0.292998	-0.000102
H190	H	-0.033937	-0.271809	-0.000111
H191	H	-0.022692	0.434745	-0.000076
H192	H	0.290672	0.024559	-0.000091
H193	H	0.002878	0.630613	-0.360811
H194	H	0.190922	0.511136	-0.639375
H195	H	-0.099257	-0.034045	-0.000132
H196	H	0.002878	0.630611	-0.203805
