data_functionalizedCrystal
_audit_creation_method	'MofGen! by Chris Wilmer'
_symmetry_space_group_name_H-M	'P1'
_symmetry_Int_Tables_number	1
_symmetry_cell_setting	triclinic
loop_
_symmetry_equiv_pos_as_xyz
  x,y,z
_cell_length_a	13.897441
_cell_length_b	12.759401
_cell_length_c	12.759399
_cell_angle_alpha	90.016641
_cell_angle_beta	90.029233
_cell_angle_gamma	90.020083
loop_
_atom_site_label
_atom_site_type_symbol
_atom_site_fract_x
_atom_site_fract_y
_atom_site_fract_z
Zn1	Zn	-0.545374	-1.606254	0.418190
Zn2	Zn	-0.045374	-1.106254	0.918190
Zn3	Zn	-0.384079	-1.606147	0.593901
Zn4	Zn	0.115921	-1.106147	1.093901
Zn5	Zn	-0.384094	-1.430556	0.418241
Zn6	Zn	0.115906	-0.930556	0.918241
Zn7	Zn	-0.545333	-1.430544	0.593832
Zn8	Zn	-0.045333	-0.930544	1.093832
O9	O	-0.464720	-1.518375	0.506041
O10	O	0.035280	-1.018375	1.006041
O11	O	-0.523988	-1.753261	0.441506
O12	O	-0.023988	-1.253261	0.941506
O13	O	-0.249099	-1.582814	0.570649
O14	O	0.250901	-1.082814	1.070649
O15	O	-0.405511	-1.453913	0.271213
O16	O	0.094489	-0.953913	0.771213
O17	O	-0.405486	-1.753182	0.570599
O18	O	0.094514	-1.253182	1.070599
O19	O	-0.524003	-1.582998	0.271176
O20	O	-0.024003	-1.082998	0.771176
O21	O	-0.249110	-1.453808	0.441592
O22	O	0.250890	-0.953808	0.941592
O23	O	-0.405472	-1.283533	0.441526
O24	O	0.094528	-0.783533	0.941526
O25	O	-0.680320	-1.453892	0.570483
O26	O	-0.180320	-0.953892	1.070483
O27	O	-0.523934	-1.283524	0.570532
O28	O	-0.023934	-0.783524	1.070532
O29	O	-0.680350	-1.582986	0.441440
O30	O	-0.180350	-1.082986	0.941440
O31	O	-0.405446	-1.582803	0.740912
O32	O	0.094554	-1.082803	1.240912
O33	O	-0.523919	-1.453788	0.740862
O34	O	-0.023919	-0.953788	1.240862
C35	C	-0.464701	-1.245408	0.506028
C36	C	0.035299	-0.745408	1.006028
C37	C	-0.464715	-1.128631	0.506048
C38	C	0.035285	-0.628631	1.006048
C39	C	-0.716313	-1.518450	0.505948
C40	C	-0.216313	-1.018450	1.005948
C41	C	-0.823527	-1.518482	0.505908
C42	C	-0.323527	-1.018482	1.005908
C43	C	-0.464698	-1.518311	0.779008
C44	C	0.035302	-1.018311	1.279008
C45	C	-0.464721	-1.518379	0.895785
C46	C	0.035279	-1.018379	1.395785
C47	C	-1.019822	-1.518510	0.505837
C48	C	-0.519822	-1.018510	1.005837
C49	C	-0.910590	-1.518491	0.505880
C50	C	-0.410590	-1.018491	1.005880
C51	C	-0.214106	-1.518361	0.506058
C52	C	0.285894	-1.018361	1.006058
C53	C	-0.106892	-1.518533	0.505801
C54	C	0.393108	-1.018533	1.005801
C55	C	-0.464740	-1.792408	0.506055
C56	C	0.035260	-1.292408	1.006055
C57	C	-0.464748	-1.909185	0.506060
C58	C	0.035252	-1.409185	1.006060
C59	C	-0.526301	-1.073792	0.573324
C60	C	-0.026301	-0.573792	1.073324
C61	C	-0.526321	-0.964068	0.573328
C62	C	-0.026321	-0.464068	1.073328
C63	C	-0.403159	-0.964032	0.438777
C64	C	0.096841	-0.464032	0.938777
C65	C	-0.403146	-1.073754	0.438769
C66	C	0.096854	-0.573754	0.938769
C67	C	-0.464763	-1.518469	0.232008
C68	C	0.035237	-1.018469	0.732008
C69	C	-0.464781	-1.518508	0.115231
C70	C	0.035219	-1.018508	0.615231
C71	C	-0.403102	-1.585634	0.950638
C72	C	0.096898	-1.085634	1.450638
C73	C	-0.403134	-1.585702	1.060362
C74	C	0.096866	-1.085702	1.560362
C75	C	-0.526407	-1.451251	1.060370
C76	C	-0.026407	-0.951251	1.560370
C77	C	-0.526379	-1.451189	0.950648
C78	C	-0.026379	-0.951189	1.450648
H79	H	-0.576438	-1.118470	0.628104
H80	H	-0.076438	-0.618470	1.128104
N81	N	-0.336712	-1.132897	0.366199
N82	N	0.163288	-0.632897	0.866199
H83	H	-0.291937	-1.178391	0.408828
H84	H	0.208063	-0.678391	0.908828
H85	H	-0.376054	-1.178389	0.317573
H86	H	0.123946	-0.678389	0.817573
H87	H	-0.576472	-0.919423	0.628109
H88	H	-0.076472	-0.419423	1.128109
H89	H	-0.576561	-1.396422	0.905984
H90	H	-0.076561	-0.896422	1.405984
H91	H	-0.353030	-0.919337	0.384003
H92	H	0.146970	-0.419337	0.884003
H93	H	-0.352898	-1.640346	0.905971
H94	H	0.147102	-1.140346	1.405971
H95	H	-0.352960	-1.640469	1.105019
H96	H	0.147040	-1.140469	1.605019
H97	H	-0.576605	-1.396545	1.105053
H98	H	-0.076605	-0.896545	1.605053
