data_functionalizedCrystal
_audit_creation_method	'MofGen! by Chris Wilmer'
_symmetry_space_group_name_H-M	'P1'
_symmetry_Int_Tables_number	1
_symmetry_cell_setting	triclinic
loop_
_symmetry_equiv_pos_as_xyz
  x,y,z
_cell_length_a	16.992694
_cell_length_b	17.019294
_cell_length_c	15.455313
_cell_angle_alpha	88.788101
_cell_angle_beta	87.142206
_cell_angle_gamma	87.023206
loop_
_atom_site_label
_atom_site_type_symbol
_atom_site_fract_x
_atom_site_fract_y
_atom_site_fract_z
O1	O	1.044222	0.163479	-0.084230
O2	O	0.815933	0.161649	-0.084119
O3	O	0.936039	0.048515	-0.075651
O4	O	0.924116	0.276613	-0.092698
O5	O	0.929171	0.054956	0.068129
O6	O	0.809065	0.168090	0.059661
O7	O	1.037354	0.169920	0.059550
Cu8	Cu	0.922582	0.169593	0.072734
Cu9	Cu	0.930705	0.161976	-0.097303
O10	O	0.917248	0.283054	0.051082
C11	C	0.783281	0.162517	-0.012057
C12	C	0.696220	0.155497	-0.011542
C13	C	0.646145	0.223225	-0.016603
C14	C	0.564342	0.216625	-0.016098
C15	C	0.532615	0.142296	-0.010538
C16	C	0.582697	0.074563	-0.005474
C17	C	0.664498	0.081164	-0.005973
C18	C	0.288950	0.114939	-0.008470
C19	C	0.207142	0.108343	-0.007974
C20	C	0.188793	0.250407	-0.018596
C21	C	0.270597	0.257001	-0.019100
C22	C	0.320671	0.189267	-0.014032
N23	N	0.449000	0.135548	-0.010024
N24	N	0.404285	0.196016	-0.014539
C25	C	0.932018	0.022414	-0.001572
C26	C	0.930258	-0.064956	0.004951
C27	C	0.933177	-0.109509	-0.070358
C28	C	0.931518	-0.191601	-0.064226
C29	C	0.926946	-0.229139	0.017216
C30	C	0.924024	-0.184580	0.092531
C31	C	0.925677	-0.102489	0.086398
C32	C	0.921761	-0.476826	0.039654
C33	C	0.920111	-0.558923	0.045781
C34	C	0.927603	-0.565938	-0.110977
C35	C	0.929260	-0.483845	-0.117102
C36	C	0.926335	-0.439293	-0.041787
C37	C	0.925252	-0.313051	0.023486
C38	C	0.928022	-0.355383	-0.048058
C39	C	1.070006	0.169052	-0.012515
C40	C	1.157067	0.176072	-0.013035
C41	C	0.921269	0.309155	-0.022999
C42	C	0.923030	0.396524	-0.029528
N43	N	0.916875	0.174950	0.192328
N44	N	0.936418	0.156612	-0.216897
C45	C	0.967918	0.126907	0.241318
C46	C	0.963609	0.130966	0.331822
C47	C	0.908260	0.183074	0.373334
C48	C	0.857212	0.231119	0.324338
C49	C	0.861518	0.227055	0.233836
C50	C	0.889675	0.200594	0.643604
C51	C	0.885375	0.204656	0.734113
C52	C	0.991772	0.104502	0.741591
C53	C	0.996076	0.100446	0.651087
C54	C	0.945025	0.148488	0.602098
N55	N	0.903856	0.187226	0.465844
N56	N	0.949425	0.144331	0.509591
H57	H	0.148014	0.305551	-0.022721
O58	O	0.172918	0.028171	-0.001969
H59	H	0.221479	-0.017820	0.001481
H60	H	0.523573	0.271777	-0.020220
H61	H	1.033335	0.065387	0.781486
H62	H	0.848109	0.239713	0.603725
O63	O	0.342954	0.041888	-0.003004
H64	H	0.307147	-0.010905	0.000938
H65	H	1.041145	0.058016	0.617290
H66	H	0.840301	0.247091	0.767907
H67	H	0.933898	-0.227873	-0.125551
H68	H	0.812142	0.273543	0.358142
H69	H	0.556858	0.014043	-0.000934
H70	H	0.819952	0.266176	0.193948
H71	H	1.012992	0.084479	0.207525
H72	H	0.929983	-0.602221	-0.172294
H73	H	0.671970	0.283752	-0.021131
O74	O	0.932953	-0.314894	-0.135895
H75	H	0.881030	-0.328675	-0.172582
H76	H	0.296422	0.317527	-0.023638
H77	H	0.916383	-0.589484	0.112104
O78	O	0.718514	0.008115	-0.000517
H79	H	0.682712	-0.044681	0.003425
O80	O	0.938100	-0.069024	-0.158202
H81	H	0.992972	-0.090118	-0.194337
O82	O	0.934176	-0.443355	-0.204943
H83	H	0.935916	-0.488127	-0.256282
O84	O	0.918626	-0.428779	0.120882
H85	H	0.915184	-0.468677	0.178541
O86	O	0.919108	-0.225063	0.180376
H87	H	0.918462	-0.289633	0.171990
O88	O	0.922538	-0.054430	0.167623
H89	H	0.919090	-0.094323	0.225286
H90	H	1.005172	0.091845	0.371710
O91	O	0.920344	-0.353549	0.111322
H92	H	0.866019	-0.387142	0.117589
