data_functionalizedCrystal
_audit_creation_method	'MofGen! by Chris Wilmer'
_symmetry_space_group_name_H-M	'P1'
_symmetry_Int_Tables_number	1
_symmetry_cell_setting	triclinic
loop_
_symmetry_equiv_pos_as_xyz
  x,y,z
_cell_length_a	14.044220
_cell_length_b	10.654549
_cell_length_c	9.730217
_cell_angle_alpha	89.997559
_cell_angle_beta	90.002267
_cell_angle_gamma	91.162102
loop_
_atom_site_label
_atom_site_type_symbol
_atom_site_fract_x
_atom_site_fract_y
_atom_site_fract_z
O1	O	-0.133252	1.681224	-0.114321
O2	O	-0.145941	1.317021	-0.114316
O3	O	-0.001576	1.493656	-0.114312
O4	O	-0.277617	1.504589	-0.114325
O5	O	-0.001575	1.493650	0.114268
O6	O	-0.145940	1.317015	0.114264
O7	O	-0.133251	1.681218	0.114259
Zn8	Zn	-0.139595	1.499115	0.150554
Zn9	Zn	-0.139597	1.499123	-0.150610
O10	O	-0.277616	1.504583	0.114255
C11	C	-0.145008	1.270126	-0.000025
C12	C	-0.142217	1.130403	-0.000023
C13	C	-0.309607	0.857239	-0.000070
C14	C	-0.397234	0.917582	-0.000068
C15	C	-0.399859	1.048864	-0.000050
C16	C	-0.314847	1.119806	-0.000038
C17	C	-0.227220	1.059464	-0.000040
C18	C	-0.224604	0.928178	-0.000053
C19	C	-0.054590	1.070060	-0.000025
C20	C	-0.051963	0.938778	-0.000033
C21	C	0.030422	1.141003	-0.000013
C22	C	0.118051	1.080660	-0.000005
C23	C	0.120673	0.949370	-0.000021
C24	C	0.035665	0.878436	-0.000035
C25	C	-0.312963	1.509372	-0.000036
C26	C	-0.418282	1.523647	-0.000041
C27	C	-0.611116	1.549746	-0.000036
C28	C	-0.668082	1.448498	-0.000033
C29	C	-0.775381	1.463020	-0.000030
C30	C	-0.503807	1.535226	-0.000039
C31	C	0.033771	1.488867	-0.000024
C32	C	0.139090	1.474591	-0.000027
C33	C	-0.134184	1.728112	-0.000034
C34	C	-0.136975	1.867836	-0.000045
N35	N	-0.139593	1.499119	0.356090
N36	N	-0.139591	1.499129	-0.356147
C37	C	-0.011796	1.655603	0.356084
C38	C	0.052100	1.733853	0.428021
C39	C	0.052101	1.733866	0.571901
C40	C	-0.011800	1.655617	0.643847
C41	C	-0.075696	1.577366	0.571910
C42	C	-0.075691	1.577365	0.428027
C43	C	-0.203487	1.420878	0.571916
C44	C	-0.203494	1.420870	0.428036
C45	C	-0.267388	1.342629	0.643862
C46	C	-0.331290	1.264383	0.571926
C47	C	-0.331288	1.264375	0.428037
C48	C	-0.267390	1.342620	0.356100
H49	H	-0.307478	0.750342	-0.000060
O50	O	-0.485059	1.107288	0.000011
C51	C	-0.559530	1.016530	-0.000045
H52	H	-0.532365	0.924490	0.043219
H53	H	-0.620657	1.050751	0.066317
H54	H	-0.585790	1.000959	-0.109711
O55	O	-0.317566	1.247322	0.000028
C56	C	-0.413137	1.285370	-0.000021
H57	H	-0.460507	1.206710	0.043244
H58	H	-0.420138	1.372872	0.066344
H59	H	-0.436045	1.307293	-0.109685
H60	H	0.028278	1.247899	-0.000005
H61	H	-0.636268	1.350911	-0.000031
H62	H	-0.642928	1.647326	-0.000032
H63	H	-0.011798	1.655611	0.238930
H64	H	-0.383309	1.200673	0.630513
O65	O	0.114036	1.809885	0.357919
C66	C	0.100332	1.793111	0.215501
H67	H	0.025268	1.754491	0.195869
H68	H	0.110134	1.887129	0.160843
H69	H	0.154511	1.724152	0.174627
H70	H	-0.267381	1.342637	0.761017
H71	H	0.037791	0.771538	-0.000036
O72	O	-0.393450	1.188324	0.358375
C73	C	-0.449825	1.119245	0.452735
H74	H	-0.451260	1.170897	0.555292
H75	H	-0.525447	1.108536	0.411167
H76	H	-0.418357	1.022445	0.468049
H77	H	0.104134	1.797579	0.630472
H78	H	-0.011787	1.655621	0.761001
H79	H	-0.267386	1.342624	0.238945
H80	H	0.187261	1.138432	-0.000005
O81	O	-0.479747	0.848532	-0.000259
C82	C	-0.483407	0.772314	-0.118668
H83	H	-0.408071	0.757254	-0.158135
H84	H	-0.518094	0.677749	-0.092055
H85	H	-0.527014	0.820304	-0.201561
O86	O	0.205877	0.890957	0.000034
C87	C	0.280339	0.981729	0.000009
H88	H	0.253163	1.073751	0.043293
H89	H	0.341469	0.947500	0.066368
H90	H	0.306596	0.997336	-0.109651
