data_functionalizedCrystal
_audit_creation_method	'MofGen! by Chris Wilmer'
_symmetry_space_group_name_H-M	'P1'
_symmetry_Int_Tables_number	1
_symmetry_cell_setting	triclinic
loop_
_symmetry_equiv_pos_as_xyz
  x,y,z
_cell_length_a	12.759401
_cell_length_b	19.077068
_cell_length_c	19.077569
_cell_angle_alpha	90.064237
_cell_angle_beta	87.687111
_cell_angle_gamma	92.328499
loop_
_atom_site_label
_atom_site_type_symbol
_atom_site_fract_x
_atom_site_fract_y
_atom_site_fract_z
Zn1	Zn	1.614794	-0.263779	-0.408508
Zn2	Zn	2.114794	0.236221	0.091492
Zn3	Zn	1.600568	-0.386010	-0.295713
Zn4	Zn	2.100568	0.113990	0.204287
Zn5	Zn	1.431779	-0.268522	-0.291017
Zn6	Zn	1.931779	0.231478	0.208983
Zn7	Zn	1.432280	-0.381256	-0.413185
Zn8	Zn	1.932280	0.118744	0.086815
O9	O	1.519855	-0.324892	-0.352106
O10	O	2.019855	0.175108	0.147894
O11	O	1.759928	-0.279998	-0.393553
O12	O	2.259928	0.220002	0.106447
O13	O	1.572014	-0.374399	-0.196758
O14	O	2.072014	0.125601	0.303242
O15	O	1.461800	-0.169559	-0.302680
O16	O	1.961800	0.330441	0.197320
O17	O	1.749476	-0.369800	-0.310684
O18	O	2.249476	0.130200	0.189316
O19	O	1.596260	-0.166075	-0.389000
O20	O	2.096260	0.333925	0.111000
O21	O	1.448006	-0.288081	-0.193308
O22	O	1.948006	0.211919	0.306692
O23	O	1.284824	-0.283472	-0.307215
O24	O	1.784824	0.216528	0.192785
O25	O	1.462654	-0.361699	-0.510896
O26	O	1.962654	0.138301	-0.010896
O27	O	1.285192	-0.366297	-0.396971
O28	O	1.785192	0.133703	0.103029
O29	O	1.596746	-0.275389	-0.507460
O30	O	2.096746	0.224611	-0.007460
O31	O	1.572500	-0.483713	-0.315219
O32	O	2.072500	0.016287	0.184781
O33	O	1.448860	-0.480221	-0.401525
O34	O	1.948860	0.019779	0.098475
C35	C	1.246887	-0.324884	-0.352091
C36	C	1.746887	0.175116	0.147909
C37	C	1.130111	-0.324897	-0.352103
C38	C	1.630111	0.175103	0.147897
C39	C	1.075460	-0.368095	-0.398771
C40	C	1.575460	0.131905	0.101229
C41	C	0.965736	-0.368097	-0.398785
C42	C	1.465736	0.131903	0.101215
C43	C	0.965325	-0.281701	-0.305457
C44	C	1.465325	0.218299	0.194543
C45	C	1.075046	-0.281695	-0.305447
C46	C	1.575046	0.218305	0.194553
C47	C	1.509220	-0.507463	-0.359404
C48	C	2.009220	-0.007463	0.140596
C49	C	1.504768	-0.585567	-0.362550
C50	C	2.004768	-0.085567	0.137450
C51	C	1.567104	-0.624054	-0.319131
C52	C	2.067104	-0.124054	0.180869
C53	C	1.562923	-0.697440	-0.322093
C54	C	2.062923	-0.197440	0.177907
C55	C	1.496400	-0.732339	-0.368473
C56	C	1.996400	-0.232339	0.131527
C57	C	1.434062	-0.693847	-0.411897
C58	C	1.934062	-0.193847	0.088103
C59	C	1.438249	-0.620461	-0.408937
C60	C	1.938249	-0.120461	0.091063
C61	C	1.476973	-0.951625	-0.382143
C62	C	1.976973	-0.451625	0.117857
C63	C	1.472788	-1.025015	-0.385098
C64	C	1.972788	-0.525015	0.114902
C65	C	1.601651	-1.028604	-0.295295
C66	C	2.101651	-0.528604	0.204705
C67	C	1.605828	-0.955217	-0.292336
C68	C	2.105828	-0.455217	0.207664
C69	C	1.543494	-0.916731	-0.335763
C70	C	2.043494	-0.416731	0.164237
N71	N	1.492122	-0.807352	-0.371501
N72	N	1.992122	-0.307352	0.128499
N73	N	1.547778	-0.841720	-0.332738
N74	N	2.047778	-0.341720	0.167262
C75	C	1.793889	-0.324900	-0.352121
C76	C	2.293889	0.175100	0.147879
C77	C	1.910666	-0.324904	-0.352127
C78	C	2.410666	0.175096	0.147873
C79	C	1.531343	-0.317485	-0.535388
C80	C	2.031343	0.182515	-0.035388
C81	C	1.536238	-0.314328	-0.613491
C82	C	2.036238	0.185672	-0.113491
C83	C	1.530561	-0.141607	-0.344794
C84	C	2.030561	0.358393	0.155206
C85	C	1.535124	-0.063502	-0.341678
C86	C	2.035124	0.436498	0.158322
C87	C	1.468725	-0.357779	-0.651975
C88	C	1.968725	0.142221	-0.151975
C89	C	1.473334	-0.354813	-0.725361
C90	C	1.973334	0.145187	-0.225361
C91	C	1.545451	-0.308393	-0.760263
C92	C	2.045451	0.191607	-0.260263
C93	C	1.612971	-0.264940	-0.721775
C94	C	2.112971	0.235060	-0.221775
C95	C	1.608367	-0.267910	-0.648389
C96	C	2.108367	0.232090	-0.148389
C97	C	1.566711	-0.294695	-0.979550
C98	C	2.066711	0.205305	-0.479550
C99	C	1.571308	-0.291727	-1.052940
C100	C	2.071308	0.208273	-0.552940
C101	C	1.431672	-0.381601	-1.056522
C102	C	1.931672	0.118399	-0.556522
C103	C	1.427070	-0.384564	-0.983135
C104	C	1.927070	0.115436	-0.483135
C105	C	1.494594	-0.341114	-0.944653
C106	C	1.994594	0.158886	-0.444653
N107	N	1.550161	-0.305358	-0.835276
N108	N	2.050161	0.194642	-0.335276
N109	N	1.489888	-0.344153	-0.869642
N110	N	1.989888	0.155847	-0.369642
C111	C	1.508476	-0.332219	-0.169535
C112	C	2.008476	0.167781	0.330465
C113	C	1.503795	-0.335178	-0.091424
C114	C	2.003795	0.164822	0.408576
H115	H	1.621269	-0.595644	-0.281360
H116	H	2.121269	-0.095644	0.218640
F117	F	1.689729	-0.215539	-0.758922
F118	F	2.189729	0.284461	-0.258922
H119	H	1.613682	-0.728773	-0.286736
H120	H	2.113682	-0.228773	0.213264
F121	F	1.363269	-0.730990	-0.461262
F122	F	1.863269	-0.230990	0.038738
H123	H	1.409987	-0.395571	-0.623563
H124	H	1.909987	0.104429	-0.123563
H125	H	0.921244	-0.403273	-0.436787
H126	H	1.421244	0.096727	0.063213
F127	F	1.680227	-0.221666	-0.607433
F128	F	2.180227	0.278334	-0.107433
F129	F	1.638574	-0.248449	-0.938604
F130	F	2.138574	0.251551	-0.438604
H131	H	1.120290	-0.403271	-0.436763
H132	H	1.620290	0.096729	0.063237
H133	H	1.387490	-0.589126	-0.444295
H134	H	1.887490	-0.089126	0.055705
F135	F	1.133214	-0.235711	-0.255777
F136	F	1.633214	0.264289	0.244223
F137	F	1.648034	-0.242294	-1.090083
F138	F	2.148034	0.257706	-0.590083
F139	F	1.401484	-0.401065	-0.766315
F140	F	1.901484	0.098935	-0.266315
F141	F	1.350308	-0.433968	-0.945995
F142	F	1.850308	0.066032	-0.445995
H143	H	1.376698	-0.416976	-1.087862
H144	H	1.876698	0.083024	-0.587862
F145	F	1.676643	-0.918080	-0.242981
F146	F	2.176643	-0.418080	0.257019
H147	H	1.652401	-1.059946	-0.259940
H148	H	2.152401	-0.559946	0.240060
F149	F	1.401971	-1.062156	-0.434456
F150	F	1.901971	-0.562156	0.065544
H151	H	0.920478	-0.246529	-0.267470
H152	H	1.420478	0.253471	0.232530
F153	F	1.410630	-0.910675	-0.428361
F154	F	1.910630	-0.410675	0.071639
