data_functionalizedCrystal
_audit_creation_method	'MofGen! by Chris Wilmer'
_symmetry_space_group_name_H-M	'P1'
_symmetry_Int_Tables_number	1
_symmetry_cell_setting	triclinic
loop_
_symmetry_equiv_pos_as_xyz
  x,y,z
_cell_length_a	17.699083
_cell_length_b	17.699092
_cell_length_c	16.776229
_cell_angle_alpha	89.995030
_cell_angle_beta	90.006428
_cell_angle_gamma	96.715475
loop_
_atom_site_label
_atom_site_type_symbol
_atom_site_fract_x
_atom_site_fract_y
_atom_site_fract_z
O1	O	-1.004082	0.095710	-0.066272
O2	O	-0.504082	0.595710	0.433728
O3	O	-0.783704	0.108163	-0.066276
O4	O	-0.283704	0.608163	0.433724
O5	O	-0.900116	-0.008253	-0.066272
O6	O	-0.400116	0.491747	0.433728
O7	O	-0.887670	0.212125	-0.066276
O8	O	-0.387670	0.712125	0.433724
O9	O	-0.900100	-0.008260	0.066305
O10	O	-0.400100	0.491740	0.566305
O11	O	-0.783688	0.108156	0.066301
O12	O	-0.283688	0.608156	0.566301
O13	O	-1.004066	0.095703	0.066305
O14	O	-0.504066	0.595703	0.566305
Zn15	Zn	-0.893875	0.101928	0.087352
Zn16	Zn	-0.393875	0.601928	0.587352
Zn17	Zn	-0.893895	0.101937	-0.087323
Zn18	Zn	-0.393895	0.601937	0.412677
O19	O	-0.887654	0.212118	0.066301
O20	O	-0.387654	0.712118	0.566301
C21	C	-0.755499	0.107713	0.000012
C22	C	-0.255499	0.607713	0.500012
C23	C	-0.671481	0.106375	0.000010
C24	C	-0.171481	0.606375	0.500010
C25	C	-0.632005	0.105740	0.072278
C26	C	-0.132005	0.605740	0.572278
C27	C	-0.553063	0.104471	0.072279
C28	C	-0.053063	0.604471	0.572279
C29	C	-0.513597	0.103841	0.000011
C30	C	-0.013597	0.603841	0.500011
C31	C	-0.553078	0.104473	-0.072263
C32	C	-0.053078	0.604473	0.427737
C33	C	-0.632020	0.105737	-0.072263
C34	C	-0.132020	0.605737	0.427737
C35	C	-0.234716	0.099374	-0.072266
C36	C	0.265284	0.599374	0.427734
C37	C	-0.155768	0.098112	-0.072260
C38	C	0.344232	0.598112	0.427740
C39	C	-0.155758	0.098107	0.072276
C40	C	0.344242	0.598107	0.572276
C41	C	-0.234700	0.099371	0.072277
C42	C	0.265300	0.599371	0.572277
C43	C	-0.274175	0.100000	0.000003
C44	C	0.225825	0.600000	0.500003
C45	C	-0.359774	0.101375	0.000004
C46	C	0.140226	0.601375	0.500004
C47	C	-0.427999	0.102471	0.000010
C48	C	0.072001	0.602471	0.500010
C49	C	-0.899661	-0.036453	0.000015
C50	C	-0.399661	0.463547	0.500015
C51	C	-0.898320	-0.120471	0.000011
C52	C	-0.398320	0.379529	0.500011
C53	C	-0.897700	-0.159934	-0.072257
C54	C	-0.397700	0.340066	0.427743
C55	C	-0.896435	-0.238877	-0.072258
C56	C	-0.396435	0.261123	0.427742
C57	C	-0.895795	-0.278356	0.000010
C58	C	-0.395795	0.221644	0.500010
C59	C	-0.896413	-0.238887	0.072284
C60	C	-0.396413	0.261113	0.572284
C61	C	-0.897673	-0.159944	0.072284
C62	C	-0.397673	0.340056	0.572284
C63	C	-0.891333	-0.557252	0.072285
C64	C	-0.391333	-0.057252	0.572285
C65	C	-0.890075	-0.636200	0.072280
C66	C	-0.390075	-0.136200	0.572280
C67	C	-0.890095	-0.636185	-0.072257
C68	C	-0.390095	-0.136185	0.427743
C69	C	-0.891355	-0.557242	-0.072257
C70	C	-0.391355	-0.057242	0.427743
C71	C	-0.891968	-0.517779	0.000017
C72	C	-0.391968	-0.017779	0.500017
C73	C	-0.893338	-0.432180	0.000017
C74	C	-0.393338	0.067820	0.500017
C75	C	-0.894431	-0.363954	0.000011
C76	C	-0.394431	0.136046	0.500011
C77	C	-0.032272	0.096148	0.000015
C78	C	0.467728	0.596148	0.500015
C79	C	-0.116292	0.097472	0.000009
C80	C	0.383708	0.597472	0.500009
C81	C	-0.888109	0.240318	0.000012
C82	C	-0.388109	0.740318	0.500012
C83	C	-0.889450	0.324336	0.000010
C84	C	-0.389450	0.824336	0.500010
N85	N	-0.893866	0.101921	0.206563
N86	N	-0.393866	0.601921	0.706563
N87	N	-0.893909	0.101938	-0.206534
N88	N	-0.393909	0.601938	0.293466
C89	C	-0.945429	0.050393	0.248282
C90	C	-0.445429	0.550393	0.748282
C91	C	-0.945434	0.050393	0.331734
C92	C	-0.445434	0.550393	0.831734
C93	C	-0.893878	0.101924	0.373466
C94	C	-0.393878	0.601924	0.873466
C95	C	-0.842309	0.153454	0.331741
C96	C	-0.342309	0.653454	0.831741
C97	C	-0.842302	0.153450	0.248291
C98	C	-0.342302	0.653450	0.748291
C99	C	-0.842337	0.153469	0.668289
C100	C	-0.342337	0.653469	1.168289
C101	C	-0.842350	0.153470	0.751745
C102	C	-0.342350	0.653470	1.251745
C103	C	-0.945468	0.050411	0.751732
C104	C	-0.445468	0.550411	1.251732
C105	C	-0.945461	0.050408	0.668282
C106	C	-0.445461	0.550408	1.168282
C107	C	-0.893890	0.101935	0.626564
C108	C	-0.393890	0.601935	1.126564
C109	C	-0.893885	0.101934	0.536076
C110	C	-0.393885	0.601934	1.036076
C111	C	-0.893886	0.101929	0.463953
C112	C	-0.393886	0.601929	0.963953
H113	H	-0.520939	0.103955	-0.131105
H114	H	-0.020939	0.603955	0.368895
Br115	Br	-0.685596	0.106592	-0.170345
Br116	Br	-0.185596	0.606592	0.329655
Br117	Br	-0.898576	-0.106365	-0.170341
Br118	Br	-0.398576	0.393635	0.329659
Br119	Br	-0.772316	0.223379	0.191672
Br120	Br	-0.272316	0.723379	0.691672
H121	H	-0.987419	0.008435	0.365701
H122	H	-0.487419	0.508435	0.865701
Br123	Br	-0.102207	0.097259	-0.170346
Br124	Br	0.397793	0.597259	0.329654
H125	H	-0.891847	-0.525132	0.131135
H126	H	-0.391847	-0.025132	0.631135
Br127	Br	-0.892229	-0.503669	-0.170338
Br128	Br	-0.392229	-0.003669	0.329662
H129	H	-0.123609	0.097592	0.131125
H130	H	0.376391	0.597592	0.631125
Br131	Br	-0.895593	-0.292432	-0.170341
Br132	Br	-0.395593	0.207568	0.329659
H133	H	-0.889592	-0.668324	-0.131106
H134	H	-0.389592	-0.168324	0.368894
Br135	Br	-0.889208	-0.689778	0.170365
Br136	Br	-0.389208	-0.189778	0.670365
Br137	Br	-1.015458	-0.019521	0.808352
Br138	Br	-0.515458	0.480479	1.308352
Br139	Br	-0.895533	-0.292462	0.170364
Br140	Br	-0.395533	0.207538	0.670364
Br141	Br	-1.015435	-0.019525	0.611648
Br142	Br	-0.515435	0.480475	1.111648
Br143	Br	-0.685557	0.106602	0.170363
Br144	Br	-0.185557	0.606602	0.670363
Br145	Br	-0.772377	0.223411	0.808382
Br146	Br	-0.272377	0.723411	1.308382
H147	H	-0.898167	-0.127813	0.131133
H148	H	-0.398167	0.372187	0.631133
Br149	Br	-1.015408	-0.019541	0.191655
Br150	Br	-0.515408	0.480459	0.691655
H151	H	-0.800348	0.195425	0.634329
H152	H	-0.300348	0.695425	1.134329
H153	H	-0.800328	0.195409	0.365724
H154	H	-0.300328	0.695409	0.865724
H155	H	-0.266829	0.099888	0.131125
H156	H	0.233171	0.599888	0.631125
Br157	Br	-0.288279	0.100226	-0.170351
Br158	Br	0.211721	0.600226	0.329649
Br159	Br	-0.499489	0.103622	0.170362
Br160	Br	0.000511	0.603622	0.670362
