data_functionalizedCrystal
_audit_creation_method	'MofGen! by Chris Wilmer'
_symmetry_space_group_name_H-M	'P1'
_symmetry_Int_Tables_number	1
_symmetry_cell_setting	triclinic
loop_
_symmetry_equiv_pos_as_xyz
  x,y,z
_cell_length_a	15.944551
_cell_length_b	14.519709
_cell_length_c	12.996460
_cell_angle_alpha	89.999966
_cell_angle_beta	89.992903
_cell_angle_gamma	96.410558
loop_
_atom_site_label
_atom_site_type_symbol
_atom_site_fract_x
_atom_site_fract_y
_atom_site_fract_z
O1	O	0.110109	-1.223676	-0.085435
O2	O	0.443442	-0.890343	0.247898
O3	O	0.776776	-0.557009	0.581232
O4	O	0.123076	-0.955177	-0.085467
O5	O	0.456409	-0.621843	0.247866
O6	O	0.789742	-0.288510	0.581200
O7	O	-0.005672	-1.096759	-0.085441
O8	O	0.327662	-0.763425	0.247892
O9	O	0.660995	-0.430092	0.581226
O10	O	0.238857	-1.082094	-0.085461
O11	O	0.572190	-0.748761	0.247872
O12	O	0.905523	-0.415428	0.581206
O13	O	-0.005679	-1.096744	0.085693
O14	O	0.327654	-0.763410	0.419026
O15	O	0.660988	-0.430077	0.752360
O16	O	0.123069	-0.955162	0.085667
O17	O	0.456402	-0.621829	0.419000
O18	O	0.789735	-0.288495	0.752334
O19	O	0.110102	-1.223661	0.085699
O20	O	0.443435	-0.890328	0.419032
O21	O	0.776769	-0.556995	0.752365
Cu22	Cu	0.116585	-1.089410	0.101309
Cu23	Cu	0.449918	-0.756077	0.434642
Cu24	Cu	0.783251	-0.422744	0.767975
Cu25	Cu	0.116593	-1.089428	-0.101077
Cu26	Cu	0.449926	-0.756094	0.232256
Cu27	Cu	0.783260	-0.422761	0.565590
O28	O	0.238849	-1.082080	0.085673
O29	O	0.572183	-0.748746	0.419006
O30	O	0.905516	-0.415413	0.752339
C31	C	0.122468	-0.920810	0.000096
C32	C	0.455801	-0.587477	0.333429
C33	C	0.789134	-0.254144	0.666763
C34	C	0.120657	-0.818432	0.000084
C35	C	0.453990	-0.485099	0.333418
C36	C	0.787324	-0.151766	0.666751
C37	C	-0.036970	-1.096142	0.000126
C38	C	0.296363	-0.762809	0.333459
C39	C	0.629696	-0.429476	0.666793
C40	C	-0.130219	-1.094317	0.000126
C41	C	0.203114	-0.760984	0.333460
C42	C	0.536448	-0.427651	0.666793
N43	N	0.116578	-1.089405	0.243656
N44	N	0.449911	-0.756071	0.576989
N45	N	0.783245	-0.422738	0.910322
C46	C	-0.345209	-1.002196	0.000101
C47	C	-0.011876	-0.668862	0.333435
C48	C	0.321457	-0.335529	0.666768
C49	C	-0.406168	-1.044967	0.084486
C50	C	-0.072835	-0.711633	0.417819
C51	C	0.260499	-0.378300	0.751153
C52	C	-0.300950	-1.091015	0.000118
C53	C	0.032384	-0.757682	0.333452
C54	C	0.365717	-0.424349	0.666785
C55	C	-0.406144	-1.045002	-0.084239
C56	C	-0.072811	-0.711669	0.249095
C57	C	0.260522	-0.378335	0.582428
C58	C	-0.465867	-1.087820	0.000106
C59	C	-0.132534	-0.754486	0.333439
C60	C	0.200800	-0.421153	0.666772
C61	C	-0.360680	-1.133811	0.084572
C62	C	-0.027347	-0.800477	0.417906
C63	C	0.305987	-0.467144	0.751239
C64	C	-0.360650	-1.133834	-0.084228
C65	C	-0.027317	-0.800500	0.249105
C66	C	0.306017	-0.467167	0.582439
C67	C	-0.421591	-1.176669	0.000177
C68	C	-0.088258	-0.843336	0.333510
C69	C	0.245076	-0.510003	0.666844
C70	C	-0.205945	-1.092854	0.000126
C71	C	0.127389	-0.759521	0.333460
C72	C	0.460722	-0.426187	0.666793
C73	C	-0.560871	-1.085988	0.000105
C74	C	-0.227537	-0.752655	0.333438
C75	C	0.105796	-0.419321	0.666772
C76	C	0.270148	-1.082696	0.000103
C77	C	0.603481	-0.749362	0.333437
C78	C	0.936815	-0.416029	0.666770
C79	C	0.363397	-1.084521	0.000096
C80	C	0.696730	-0.751187	0.333430
C81	C	1.030063	-0.417854	0.666763
C82	C	0.110710	-1.258028	0.000133
C83	C	0.444043	-0.924694	0.333467
C84	C	0.777377	-0.591361	0.666800
C85	C	0.112521	-1.360406	0.000139
C86	C	0.445854	-1.027072	0.333472
C87	C	0.779187	-0.693739	0.666805
C88	C	0.113990	-0.443548	0.000132
C89	C	0.447324	-0.110215	0.333465
C90	C	0.780657	0.223118	0.666798
C91	C	0.115842	-0.547853	0.000118
C92	C	0.449175	-0.214520	0.333451
C93	C	0.782508	0.118814	0.666785
C94	C	0.117323	-0.630987	0.000107
C95	C	0.450657	-0.297654	0.333440
C96	C	0.783990	0.035680	0.666774
C97	C	0.119175	-0.735298	0.000095
C98	C	0.452509	-0.401965	0.333429
C99	C	0.785842	-0.068632	0.666762
N100	N	0.116593	-1.089441	-0.243424
N101	N	0.449926	-0.756107	0.089909
N102	N	0.783260	-0.422774	0.423243
C103	C	0.116594	-1.089426	0.663470
C104	C	0.449927	-0.756093	0.996803
C105	C	0.783261	-0.422760	1.330137
C106	C	0.116592	-1.089418	0.546665
C107	C	0.449926	-0.756084	0.879998
C108	C	0.783259	-0.422751	1.213332
C109	C	0.116587	-1.089416	0.453567
C110	C	0.449920	-0.756083	0.786900
C111	C	0.783253	-0.422749	1.120233
C112	C	0.116584	-1.089406	0.336754
C113	C	0.449917	-0.756073	0.670087
C114	C	0.783250	-0.422740	1.003421
H115	H	-0.312009	-0.928471	0.000177
H116	H	0.021325	-0.595138	0.333510
H117	H	0.354658	-0.261805	0.666844
F118	F	-0.464794	-1.273116	0.000247
F119	F	-0.131461	-0.939782	0.333581
F120	F	0.201873	-0.606449	0.666914
F121	F	-0.432527	-0.995858	0.177722
F122	F	-0.099193	-0.662524	0.511056
F123	F	0.234140	-0.329191	0.844389
F124	F	-0.334261	-1.182904	-0.177469
F125	F	-0.000928	-0.849571	0.155865
F126	F	0.332405	-0.516237	0.489198
H127	H	-0.340638	-1.171340	0.155991
H128	H	-0.007305	-0.838007	0.489324
H129	H	0.326029	-0.504674	0.822658
H130	H	-0.426273	-1.007429	-0.155584
H131	H	-0.092939	-0.674096	0.177749
H132	H	0.240394	-0.340763	0.511083
