data_functionalizedCrystal
_audit_creation_method	'MofGen! by Chris Wilmer'
_symmetry_space_group_name_H-M	'P1'
_symmetry_Int_Tables_number	1
_symmetry_cell_setting	triclinic
loop_
_symmetry_equiv_pos_as_xyz
  x,y,z
_cell_length_a	12.759401
_cell_length_b	25.639239
_cell_length_c	25.639234
_cell_angle_alpha	89.975095
_cell_angle_beta	89.982483
_cell_angle_gamma	90.039113
loop_
_atom_site_label
_atom_site_type_symbol
_atom_site_fract_x
_atom_site_fract_y
_atom_site_fract_z
Zn1	Zn	1.606069	-0.208177	-0.295577
Zn2	Zn	1.605893	-0.295605	-0.208142
Zn3	Zn	1.430374	-0.208186	-0.208159
Zn4	Zn	1.430286	-0.295584	-0.295549
O5	O	1.518155	-0.251888	-0.251857
O6	O	1.753066	-0.219779	-0.283983
O7	O	1.582573	-0.284021	-0.134979
O8	O	1.453791	-0.135019	-0.219775
O9	O	1.752937	-0.284012	-0.219744
O10	O	1.582873	-0.135013	-0.284000
O11	O	1.453620	-0.219795	-0.134992
O12	O	1.283341	-0.219774	-0.219748
O13	O	1.453640	-0.283976	-0.368718
O14	O	1.283277	-0.283985	-0.283953
O15	O	1.582787	-0.219759	-0.368739
O16	O	1.582488	-0.368767	-0.219717
O17	O	1.453470	-0.368752	-0.283936
C18	C	1.245188	-0.251879	-0.251849
C19	C	1.128411	-0.251888	-0.251859
C20	C	1.073617	-0.218502	-0.285359
C21	C	0.963893	-0.218507	-0.285363
C22	C	0.963767	-0.285288	-0.218364
C23	C	1.073489	-0.285280	-0.218358
C24	C	0.814024	-0.156883	-0.304164
C25	C	0.759226	-0.123502	-0.337673
C26	C	0.794888	-0.115543	-0.388702
C27	C	0.885345	-0.140973	-0.406233
C28	C	0.940137	-0.174358	-0.372727
C29	C	0.904478	-0.182307	-0.321690
C30	C	1.223360	-0.346905	-0.199562
C31	C	1.278154	-0.380293	-0.166058
C32	C	1.242495	-0.388257	-0.115028
C33	C	1.152034	-0.362837	-0.097499
C34	C	1.097240	-0.329448	-0.131003
C35	C	1.132907	-0.321483	-0.182032
C36	C	1.517979	-0.387730	-0.251833
C37	C	1.517999	-0.445844	-0.251840
C38	C	1.585510	-0.806203	-0.218475
C39	C	1.585551	-0.860807	-0.218482
O40	O	1.642768	-0.889040	-0.190088
N41	N	1.518340	-0.888127	-0.251892
C42	C	1.451092	-0.860839	-0.285300
O43	O	1.393928	-0.889091	-0.313718
C44	C	1.451057	-0.806236	-0.285295
C45	C	1.518265	-0.778919	-0.251880
C46	C	1.652713	-0.778886	-0.185063
C47	C	1.652671	-0.724286	-0.185056
C48	C	1.585426	-0.697002	-0.218460
C49	C	1.518222	-0.724319	-0.251872
C50	C	1.383815	-0.778949	-0.318705
C51	C	1.383786	-0.724342	-0.318698
C52	C	1.450994	-0.697026	-0.285283
C53	C	1.450934	-0.642434	-0.285269
N54	N	1.518145	-0.615115	-0.251860
C55	C	1.585391	-0.642399	-0.218456
C56	C	1.451171	-0.975510	-0.285308
C57	C	1.451199	-1.030112	-0.285310
C58	C	1.585660	-1.030076	-0.218494
C59	C	1.585626	-0.975473	-0.218489
C60	C	1.518382	-0.948190	-0.251899
C61	C	1.585296	-0.527734	-0.218442
C62	C	1.585245	-0.473128	-0.218436
C63	C	1.450788	-0.473169	-0.285254
C64	C	1.450835	-0.527769	-0.285259
C65	C	1.518098	-0.555050	-0.251851
O66	O	1.393750	-0.614167	-0.313650
O67	O	1.642555	-0.614141	-0.190047
C68	C	1.792189	-0.251897	-0.251865
C69	C	1.908965	-0.251901	-0.251868
C70	C	1.518224	-0.251864	-0.388230
C71	C	1.518253	-0.251854	-0.446344
C72	C	1.518361	-0.115515	-0.251892
C73	C	1.518449	-0.057401	-0.251907
C74	C	1.451137	-0.218349	-0.806719
C75	C	1.451142	-0.218339	-0.861324
O76	O	1.394025	-0.189910	-0.889571
N77	N	1.518288	-0.251772	-0.888627
C78	C	1.585424	-0.285220	-0.861322
O79	O	1.642537	-0.313656	-0.889559
C80	C	1.585413	-0.285231	-0.806719
C81	C	1.518270	-0.251793	-0.779419
C82	C	1.383999	-0.184914	-0.779419
C83	C	1.383995	-0.184923	-0.724819
C84	C	1.451129	-0.218367	-0.697518
C85	C	1.518266	-0.251802	-0.724818
C86	C	1.652543	-0.318681	-0.779416
C87	C	1.652525	-0.318690	-0.724809
C88	C	1.585383	-0.285252	-0.697509
C89	C	1.585396	-0.285255	-0.642917
N90	N	1.518251	-0.251822	-0.615615
C91	C	1.451117	-0.218378	-0.642915
C92	C	1.585443	-0.285193	-0.975993
C93	C	1.585461	-0.285179	-1.030595
C94	C	1.451177	-0.218299	-1.030593
C95	C	1.451165	-0.218311	-0.975990
C96	C	1.518297	-0.251761	-0.948690
C97	C	1.451114	-0.218399	-0.528250
C98	C	1.451119	-0.218410	-0.473644
C99	C	1.585399	-0.285291	-0.473652
C100	C	1.585398	-0.285279	-0.528252
C101	C	1.518247	-0.251831	-0.555550
O102	O	1.642482	-0.313671	-0.614635
O103	O	1.394004	-0.189952	-0.614671
C104	C	1.518148	-0.251874	-0.116014
C105	C	1.518322	-0.251737	-0.057901
H106	H	0.914367	-0.134494	-0.447788
H107	H	1.351823	-0.400985	-0.180332
O108	O	1.378700	-0.182314	-0.557683
H109	H	1.425777	-0.155713	-0.582570
O110	O	1.657800	-0.321362	-0.444197
H111	H	1.740276	-0.312397	-0.454681
H112	H	1.118332	-0.191310	-0.312636
O113	O	1.378330	-0.557230	-0.321294
H114	H	1.324917	-0.582145	-0.297873
H115	H	1.707479	-0.801095	-0.157861
O116	O	1.261832	-0.338313	-0.254603
H117	H	1.208542	-0.310820	-0.274952
O118	O	0.904526	-0.321303	-0.182233
H119	H	0.925555	-0.362349	-0.191119
H120	H	1.640419	-1.052301	-0.191296
H121	H	1.396462	-1.052349	-0.312515
H122	H	1.639973	-0.450889	-0.191223
H123	H	1.329325	-0.157679	-0.801642
O124	O	1.657815	-0.321342	-0.557703
H125	H	1.704493	-0.344600	-0.529543
H126	H	1.640070	-0.549939	-0.191239
H127	H	1.396492	-0.191082	-0.953766
H128	H	1.329082	-0.801181	-0.345913
O129	O	1.378763	-0.182226	-1.060043
H130	H	1.390051	-0.187841	-1.102598
O131	O	1.657876	-0.321267	-0.946555
H132	H	1.610823	-0.347880	-0.921669
O133	O	1.725175	-0.694825	-0.149023
H134	H	1.771945	-0.722978	-0.125805
H135	H	1.023581	-0.308750	-0.116727
O136	O	0.735791	-0.079534	-0.424841
H137	H	0.708983	-0.101706	-0.459539
O138	O	0.775568	-0.165457	-0.249120
H139	H	0.757953	-0.207455	-0.243274
O140	O	1.378265	-0.443737	-0.321285
H141	H	1.389543	-0.401179	-0.315668
O142	O	0.661674	-0.096067	-0.318766
H143	H	0.646092	-0.107198	-0.277647
O144	O	1.378704	-0.182340	-0.444198
H145	H	1.332020	-0.159087	-0.472359
O146	O	1.113572	-0.371423	-0.042457
H147	H	1.041461	-0.348140	-0.035899
H148	H	1.707217	-0.345911	-0.801634
H149	H	1.287099	-0.415459	-0.087756
O150	O	1.037701	-0.201783	-0.391625
H151	H	1.053299	-0.190640	-0.432739
O152	O	1.311582	-0.148855	-0.695376
H153	H	1.264905	-0.125602	-0.723541
H154	H	1.640353	-0.953235	-0.191280
H155	H	1.329029	-0.702131	-0.345906
H156	H	1.707200	-0.345926	-0.702584
H157	H	1.640146	-0.312402	-1.052818
H158	H	1.396404	-0.953299	-0.312512
