data_functionalizedCrystal
_audit_creation_method	'MofGen! by Chris Wilmer'
_symmetry_space_group_name_H-M	'P1'
_symmetry_Int_Tables_number	1
_symmetry_cell_setting	triclinic
loop_
_symmetry_equiv_pos_as_xyz
  x,y,z
_cell_length_a	19.077236
_cell_length_b	13.031981
_cell_length_c	19.076919
_cell_angle_alpha	84.787276
_cell_angle_beta	89.887323
_cell_angle_gamma	99.168272
loop_
_atom_site_label
_atom_site_type_symbol
_atom_site_fract_x
_atom_site_fract_y
_atom_site_fract_z
Zn1	Zn	1.027260	-0.379248	-0.406832
Zn2	Zn	1.018200	-0.546676	-0.274444
Zn3	Zn	0.914520	-0.378700	-0.284661
Zn4	Zn	0.894879	-0.560614	-0.385943
O5	O	0.963714	-0.466310	-0.337970
O6	O	1.124850	-0.395853	-0.393737
O7	O	1.008875	-0.518331	-0.178007
O8	O	0.941487	-0.232571	-0.313886
O9	O	1.118194	-0.518863	-0.296472
O10	O	1.024316	-0.232973	-0.403644
O11	O	0.932702	-0.394920	-0.185514
O12	O	0.813122	-0.408435	-0.293630
O13	O	0.908011	-0.542618	-0.486506
O14	O	0.798692	-0.542087	-0.368042
O15	O	1.005271	-0.409369	-0.501853
O16	O	0.989829	-0.694727	-0.276216
O17	O	0.899226	-0.704967	-0.358134
C18	C	0.780291	-0.476715	-0.329678
C19	C	0.701819	-0.481192	-0.326145
C20	C	0.668407	-0.419362	-0.375185
C21	C	0.594675	-0.423564	-0.371860
C22	C	0.554355	-0.489602	-0.319497
C23	C	0.587773	-0.551435	-0.270452
C24	C	0.661504	-0.547227	-0.273775
C25	C	0.333472	-0.509038	-0.304120
C26	C	0.259735	-0.513244	-0.300803
C27	C	0.266643	-0.385371	-0.402209
C28	C	0.340375	-0.381173	-0.405530
C29	C	0.373786	-0.443002	-0.356483
N30	N	0.478989	-0.493901	-0.316098
N31	N	0.449152	-0.438697	-0.359879
C32	C	0.941432	-0.737755	-0.313816
C33	C	0.931963	-0.853878	-0.303509
C34	C	0.968693	-0.905770	-0.343365
C35	C	0.958907	-1.025789	-0.332713
C36	C	1.147854	-0.455864	-0.346295
C37	C	1.226323	-0.451413	-0.349842
C38	C	0.955460	-0.477609	-0.520245
C39	C	0.951943	-0.482425	-0.597920
C40	C	0.986103	-0.193804	-0.362235
C41	C	0.995643	-0.077678	-0.372575
C42	C	1.000926	-0.415314	-0.642403
C43	C	0.997612	-0.419835	-0.715386
C44	C	0.945319	-0.491472	-0.743885
C45	C	0.896331	-0.558586	-0.699397
C46	C	0.899642	-0.554059	-0.626415
C47	C	0.929984	-0.512445	-0.961301
C48	C	0.926679	-0.516969	-1.034288
C49	C	1.027960	-0.378217	-1.050273
C50	C	1.031269	-0.373700	-0.977288
C51	C	0.982278	-0.440810	-0.932807
N52	N	0.941932	-0.496098	-0.818486
N53	N	0.985662	-0.436179	-0.858208
C54	C	0.971983	-0.454976	-0.156413
C55	C	0.975662	-0.449859	-0.078771
H56	H	0.239431	-0.335032	-0.442140
C57	C	0.880251	-0.913063	-0.247580
C58	C	0.811835	-0.891604	-0.261917
C59	C	0.764178	-0.946113	-0.210414
H60	H	0.894094	-0.891796	-0.202639
H61	H	0.880481	-0.985871	-0.247868
H62	H	0.811607	-0.818812	-0.261621
H63	H	0.797971	-0.912874	-0.306847
H64	H	0.764407	-1.018921	-0.210703
H65	H	0.778027	-0.924842	-0.165477
H66	H	0.717751	-0.931568	-0.220138
H67	H	1.034335	-1.033256	-0.414589
H68	H	0.226908	-0.567025	-0.258162
H69	H	1.043511	-0.356982	-0.619205
C70	C	0.369605	-0.576288	-0.250830
C71	C	0.318509	-0.635041	-0.204277
C72	C	0.351770	-0.697016	-0.155180
H73	H	0.403016	-0.532837	-0.225209
H74	H	0.393409	-0.621941	-0.274728
H75	H	0.294716	-0.589393	-0.180381
H76	H	0.285095	-0.678512	-0.229877
H77	H	0.375574	-0.742669	-0.179078
H78	H	0.385180	-0.653557	-0.129564
H79	H	0.317106	-0.736894	-0.123591
H80	H	1.037501	-0.365189	-0.751602
C81	C	1.020179	-0.846414	-0.399428
C82	C	0.983211	-0.788823	-0.447884
C83	C	1.030618	-0.734122	-0.499534
H84	H	1.041980	-0.894414	-0.423131
H85	H	1.055611	-0.800357	-0.377888
H86	H	0.947793	-0.834875	-0.469421
H87	H	0.961413	-0.740805	-0.424201
H88	H	1.066050	-0.688065	-0.477995
H89	H	1.052416	-0.782129	-0.523232
H90	H	1.005544	-0.695033	-0.532414
C91	C	0.907368	-1.084872	-0.276596
C92	C	0.928057	-1.053248	-0.210495
C93	C	0.880592	-1.107643	-0.158786
H94	H	0.907606	-1.157680	-0.276784
H95	H	0.860895	-1.070398	-0.286166
H96	H	0.974519	-1.067730	-0.200927
H97	H	0.927816	-0.980449	-0.210283
H98	H	0.834119	-1.093169	-0.168356
H99	H	0.880833	-1.180448	-0.158981
H100	H	0.894620	-1.086187	-0.113931
C101	C	1.088074	-0.295810	-0.946487
C102	C	1.130252	-0.237985	-1.001066
C103	C	1.182584	-0.166216	-0.972719
H104	H	1.116913	-0.332146	-0.915861
H105	H	1.066119	-0.249999	-0.920868
H106	H	1.152206	-0.283790	-1.026673
H107	H	1.101433	-0.201626	-1.031696
H108	H	1.160629	-0.120405	-0.947100
H109	H	1.211418	-0.202561	-0.942093
H110	H	1.211204	-0.126966	-1.009747
H111	H	0.554939	-0.605200	-0.227815
H112	H	0.890102	-0.567105	-0.925091
H113	H	1.067844	-0.323579	-1.086497
C114	C	0.869823	-0.594786	-1.065098
C115	C	0.827616	-0.652571	-1.010524
C116	C	0.775233	-0.724253	-1.038880
H117	H	0.891712	-0.640640	-1.090726
H118	H	0.841021	-0.558351	-1.095719
H119	H	0.856414	-0.689003	-0.979915
H120	H	0.805710	-0.606745	-0.984892
H121	H	0.746431	-0.687819	-1.069501
H122	H	0.797129	-0.770100	-1.064508
H123	H	0.746585	-0.763462	-1.001857
H124	H	0.853750	-0.616911	-0.722606
C125	C	0.846427	-0.627061	-0.578230
C126	C	0.799937	-0.690793	-0.618805
C127	C	0.750912	-0.758069	-0.574441
H128	H	0.820166	-0.587205	-0.551905
H129	H	0.870972	-0.669339	-0.546942
H130	H	0.775394	-0.648521	-0.650080
H131	H	0.826177	-0.730671	-0.645129
H132	H	0.775457	-0.800347	-0.543154
H133	H	0.724657	-0.718205	-0.548118
H134	H	0.719367	-0.801326	-0.601964
C135	C	0.697918	-0.614241	-0.220575
C136	C	0.771120	-0.596401	-0.234679
C137	C	0.804688	-0.658103	-0.185677
H138	H	0.679703	-0.685816	-0.223887
H139	H	0.689256	-0.596607	-0.174452
H140	H	0.779777	-0.614042	-0.280791
H141	H	0.789355	-0.524838	-0.231362
H142	H	0.796026	-0.640468	-0.139554
H143	H	0.786468	-0.729674	-0.188993
H144	H	0.854359	-0.645999	-0.195236
C145	C	0.712080	-0.347736	-0.432142
C146	C	0.689134	-0.375937	-0.498413
C147	C	0.729341	-0.309968	-0.550898
H148	H	0.760789	-0.354025	-0.427201
H149	H	0.706197	-0.277562	-0.427738
H150	H	0.695023	-0.446094	-0.502816
H151	H	0.640431	-0.369644	-0.503377
H152	H	0.723458	-0.239793	-0.546494
H153	H	0.778048	-0.316261	-0.545951
H154	H	0.713774	-0.329086	-0.595869
C155	C	0.558296	-0.356615	-0.425131
C156	C	0.509076	-0.421065	-0.462661
C157	C	0.475545	-0.359426	-0.511737
H158	H	0.592788	-0.316675	-0.456858
H159	H	0.534433	-0.311031	-0.401229
H160	H	0.532938	-0.466630	-0.486561
H161	H	0.474570	-0.461005	-0.430953
H162	H	0.451682	-0.313842	-0.487836
H163	H	0.510042	-0.319488	-0.543459
H164	H	0.442141	-0.403145	-0.537203
H165	H	0.373198	-0.327402	-0.448171
