data_functionalizedCrystal
_audit_creation_method	'MofGen! by Chris Wilmer'
_symmetry_space_group_name_H-M	'P1'
_symmetry_Int_Tables_number	1
_symmetry_cell_setting	triclinic
loop_
_symmetry_equiv_pos_as_xyz
  x,y,z
_cell_length_a	17.699083
_cell_length_b	10.723024
_cell_length_c	16.176319
_cell_angle_alpha	89.994397
_cell_angle_beta	89.998611
_cell_angle_gamma	83.875442
loop_
_atom_site_label
_atom_site_type_symbol
_atom_site_fract_x
_atom_site_fract_y
_atom_site_fract_z
O1	O	1.005074	0.157797	-0.068628
O2	O	0.784825	0.178327	-0.068655
O3	O	0.900030	-0.013601	-0.068638
O4	O	0.889869	0.349725	-0.068646
O5	O	0.900014	-0.013613	0.068855
O6	O	0.784809	0.178315	0.068838
O7	O	1.005058	0.157785	0.068865
Cu8	Cu	0.894932	0.168049	0.081406
Cu9	Cu	0.894951	0.168063	-0.081196
O10	O	0.889853	0.349713	0.068848
C11	C	0.756616	0.177585	0.000088
C12	C	0.672584	0.175378	0.000078
C13	C	0.624673	0.288036	0.000076
C14	C	0.545717	0.285955	0.000086
C15	C	0.514672	0.171215	0.000093
C16	C	0.562589	0.058549	0.000098
C17	C	0.641544	0.060631	0.000093
C18	C	0.244173	0.050148	0.000118
C19	C	0.165212	0.048075	0.000121
C20	C	0.148346	0.275473	0.000112
C21	C	0.227301	0.277555	0.000107
C22	C	0.275210	0.164889	0.000116
C23	C	0.360824	0.167147	0.000106
C24	C	0.429060	0.168956	0.000097
C25	C	0.899283	-0.060094	0.000107
C26	C	0.897070	-0.198610	0.000104
C27	C	0.961533	-0.274698	0.000111
C28	C	0.959248	-0.417863	0.000108
C29	C	1.033268	0.158527	0.000120
C30	C	1.117300	0.160734	0.000125
C31	C	0.890601	0.396206	0.000100
C32	C	0.892813	0.534723	0.000098
N33	N	0.894924	0.168038	0.195771
N34	N	0.894965	0.168064	-0.195561
C35	C	0.945953	0.083087	0.239042
C36	C	0.945957	0.083085	0.325590
C37	C	0.894935	0.168042	0.368863
C38	C	0.843901	0.252997	0.325586
C39	C	0.843894	0.252992	0.239040
C40	C	0.843927	0.253021	0.674614
C41	C	0.843940	0.253022	0.761165
C42	C	0.945989	0.083115	0.761163
C43	C	0.945983	0.083109	0.674618
C44	C	0.894946	0.168059	0.631348
C45	C	0.894942	0.168058	0.537503
C46	C	0.894943	0.168050	0.462706
H47	H	0.139939	-0.045366	0.000127
H48	H	0.987507	0.013911	0.360821
C49	C	1.046865	-0.084846	0.752467
C50	C	1.002083	-0.010283	0.808728
H51	H	1.081496	-0.142498	0.781831
H52	H	1.015128	-0.129661	0.718718
H53	H	1.074353	-0.032946	0.718704
H54	H	0.974591	-0.062183	0.842486
H55	H	1.033824	0.034534	0.842491
C56	C	0.743061	0.420980	0.683321
C57	C	0.787835	0.346407	0.627059
H58	H	0.708434	0.478640	0.653958
H59	H	0.715575	0.369096	0.717084
H60	H	0.774809	0.465796	0.717069
H61	H	0.756087	0.301584	0.593315
H62	H	0.815323	0.398298	0.593281
H63	H	1.018413	-0.233851	0.000123
H64	H	0.837625	-0.399906	0.000098
C65	C	0.761110	-0.156009	0.000082
C66	C	0.820278	-0.253736	0.000089
H67	H	0.713702	-0.190042	0.000067
H68	H	0.764738	-0.105873	0.048029
H69	H	0.764759	-0.105846	-0.047866
H70	H	0.816634	-0.303894	0.048040
H71	H	0.816649	-0.303893	-0.047863
H72	H	0.680552	-0.031107	0.000094
C73	C	0.800562	0.469106	0.352208
C74	C	0.787811	0.346383	0.373145
H75	H	0.765930	0.526758	0.381564
H76	H	0.851134	0.482553	0.366390
H77	H	0.793256	0.481239	0.294469
H78	H	0.795123	0.334247	0.430883
H79	H	0.737227	0.332931	0.358968
H80	H	0.802341	0.322166	0.203809
H81	H	0.987503	0.013910	0.203815
C82	C	0.600063	0.512607	0.000075
C83	C	0.658793	0.414165	0.000070
H84	H	0.621127	0.590474	0.000079
H85	H	0.569619	0.507071	-0.047867
H86	H	0.569619	0.507047	0.048027
H87	H	0.689234	0.419718	-0.047885
H88	H	0.689250	0.419703	0.048017
C89	C	1.075987	-0.483859	-0.070559
C90	C	1.033752	-0.506108	0.000115
H91	H	1.121987	-0.538335	-0.070550
H92	H	1.047339	-0.498929	-0.118500
H93	H	1.087290	-0.399223	-0.070548
H94	H	1.022445	-0.590741	0.000100
H95	H	1.062407	-0.491047	0.048068
H96	H	0.987531	0.013933	0.639387
H97	H	0.506711	0.377693	0.000084
C98	C	0.449047	-0.045618	0.000102
C99	C	0.528466	-0.067578	0.000104
H100	H	0.427985	-0.123486	0.000098
H101	H	0.432647	0.000745	0.048045
H102	H	0.432650	0.000765	-0.047849
H103	H	0.544865	-0.113952	0.048058
H104	H	0.544874	-0.113960	-0.047845
H105	H	0.802389	0.322207	0.796397
H106	H	0.283172	-0.041591	0.000126
H107	H	0.109328	0.367210	0.000109
C108	C	0.202696	0.502128	0.000109
C109	C	0.261424	0.403680	0.000104
H110	H	0.223763	0.579992	0.000115
H111	H	0.172253	0.496596	-0.047834
H112	H	0.172251	0.496570	0.048060
H113	H	0.291865	0.409233	-0.047851
H114	H	0.291880	0.409215	0.048052
