data_functionalizedCrystal
_audit_creation_method	'MofGen! by Chris Wilmer'
_symmetry_space_group_name_H-M	'P1'
_symmetry_Int_Tables_number	1
_symmetry_cell_setting	triclinic
loop_
_symmetry_equiv_pos_as_xyz
  x,y,z
_cell_length_a	17.038272
_cell_length_b	15.500228
_cell_length_c	17.038272
_cell_angle_alpha	86.957332
_cell_angle_beta	91.111556
_cell_angle_gamma	93.052174
loop_
_atom_site_label
_atom_site_type_symbol
_atom_site_fract_x
_atom_site_fract_y
_atom_site_fract_z
O1	O	-1.045342	0.071837	-0.173934
O2	O	-0.817529	0.071863	-0.171227
O3	O	-0.930082	0.071843	-0.058674
O4	O	-0.932789	0.071857	-0.286487
O5	O	-0.936907	-0.072046	-0.051866
O6	O	-0.824354	-0.072027	-0.164418
O7	O	-1.052167	-0.072052	-0.167125
Cu8	Cu	-0.938883	-0.085178	-0.165150
Cu9	Cu	-0.930813	0.084988	-0.173202
O10	O	-0.939614	-0.072033	-0.279678
C11	C	-0.791649	-0.000079	-0.165360
C12	C	-0.704365	-0.000069	-0.158012
C13	C	-0.931031	-0.000101	-0.025977
C14	C	-0.923683	-0.000100	0.061306
N15	N	-0.944566	-0.204864	-0.159487
C16	C	-1.078047	-0.000109	-0.172992
C17	C	-1.165331	-0.000113	-0.180340
C18	C	-0.658755	-0.000066	-0.225476
C19	C	-0.576744	-0.000078	-0.218567
C20	C	-0.540343	-0.000088	-0.144193
C21	C	-0.585959	-0.000094	-0.076724
C22	C	-0.667969	-0.000088	-0.083634
C23	C	-0.292957	-0.000112	-0.119781
C24	C	-0.210940	-0.000116	-0.112876
C25	C	-0.201731	-0.000102	-0.254720
C26	C	-0.283743	-0.000091	-0.261623
C27	C	-0.329351	-0.000101	-0.194154
C28	C	-0.456515	-0.000098	-0.137129
C29	C	-0.413179	-0.000098	-0.201219
N30	N	-0.925136	0.204674	-0.178860
C31	C	-0.972933	0.249943	-0.131272
C32	C	-0.968638	0.340516	-0.135549
C33	C	-0.916542	0.385820	-0.187411
C34	C	-0.868744	0.340545	-0.235003
C35	C	-0.873043	0.249973	-0.230730
C36	C	-0.901067	0.659289	-0.202806
C37	C	-0.896769	0.749868	-0.207074
C38	C	-0.996665	0.749833	-0.107621
C39	C	-1.000956	0.659259	-0.103348
C40	C	-0.953160	0.613992	-0.150944
C41	C	-0.912149	0.478401	-0.191782
C42	C	-0.957558	0.521413	-0.146576
C43	C	-0.938664	-0.000087	-0.312375
C44	C	-0.946012	-0.000082	-0.399659
C45	C	-0.991147	-0.000109	0.106916
C46	C	-0.984238	-0.000100	0.188927
C47	C	-0.909864	-0.000088	0.225328
C48	C	-0.842395	-0.000077	0.179712
C49	C	-0.849305	-0.000080	0.097702
C50	C	-0.885453	-0.000074	0.472715
C51	C	-0.878548	-0.000074	0.554732
C52	C	-1.020392	-0.000094	0.563941
C53	C	-1.027295	-0.000102	0.481929
C54	C	-0.959826	-0.000087	0.436320
C55	C	-0.902800	-0.000082	0.309157
C56	C	-0.966891	-0.000087	0.352493
H57	H	-0.688386	-0.000058	-0.286039
H58	H	-0.539612	-0.000075	-0.273503
H59	H	-0.442820	-0.000095	-0.261773
H60	H	-1.007558	0.377373	-0.096801
H61	H	-0.164588	-0.000096	-0.309649
H62	H	-0.426869	-0.000130	-0.076572
C63	C	-1.071241	0.259015	-0.033397
C64	C	-1.030195	0.200149	-0.074261
H65	H	-1.106597	0.228275	0.001796
H66	H	-1.035053	0.294337	-0.004562
H67	H	-1.099922	0.294347	-0.069715
H68	H	-1.001510	0.164822	-0.037944
H69	H	-1.066389	0.164813	-0.103098
C70	C	-0.858123	0.777811	-0.341185
C71	C	-0.839508	0.799673	-0.264087
H72	H	-0.822776	0.808565	-0.376378
H73	H	-0.853836	0.717400	-0.345454
H74	H	-0.910380	0.792656	-0.354013
H75	H	-0.787253	0.784822	-0.251257
H76	H	-0.843788	0.860097	-0.259815
H77	H	-1.039175	-0.000108	0.226060
H78	H	-0.830514	-0.000061	0.435590
H79	H	-0.834123	0.213116	-0.269482
H80	H	-0.781838	-0.000063	0.209356
C81	C	-0.386999	0.073858	-0.048760
C82	C	-0.343081	-0.000112	-0.045619
H83	H	-0.417948	0.073855	-0.002974
H84	H	-0.352427	0.124024	-0.051389
H85	H	-0.420416	0.073851	-0.094041
H86	H	-0.309659	-0.000101	-0.000340
H87	H	-0.377656	-0.050291	-0.042982
H88	H	-0.556316	-0.000114	-0.016167
H89	H	-0.313374	-0.000073	-0.322187
H90	H	-1.075321	-0.000105	0.601084
C91	C	-0.769055	-0.074057	-0.005616
C92	C	-0.718104	-0.000090	-0.009475
H93	H	-0.800002	-0.074062	0.040172
H94	H	-0.802467	-0.074045	-0.050893
H95	H	-0.739248	-0.124230	-0.003497
H96	H	-0.747912	0.050083	-0.011600
H97	H	-0.684689	-0.000094	0.035814
H98	H	-1.035578	0.786697	-0.068871
H99	H	-0.181306	-0.000123	-0.052309
H100	H	-1.043376	0.622375	-0.061119
H101	H	-0.826330	0.377436	-0.277234
H102	H	-0.862148	0.622440	-0.241559
H103	H	-0.999977	0.484524	-0.104354
H104	H	-0.869731	0.515294	-0.234007
H105	H	-1.051711	-0.000123	0.077285
H106	H	-1.087858	-0.000111	0.452298
H107	H	-0.817982	-0.000078	0.584367
C108	C	-0.727027	0.073902	0.061097
C109	C	-0.775146	-0.000072	0.047565
H110	H	-0.681241	0.073906	0.030148
H111	H	-0.754922	0.124065	0.047170
H112	H	-0.712274	0.073893	0.115151
H113	H	-0.789904	-0.000060	-0.006488
H114	H	-0.747246	-0.050248	0.061487
H115	H	-1.027444	-0.000077	0.322851
H116	H	-0.842245	-0.000075	0.338803
