data_functionalizedCrystal
_audit_creation_method	'MofGen! by Chris Wilmer'
_symmetry_space_group_name_H-M	'P1'
_symmetry_Int_Tables_number	1
_symmetry_cell_setting	triclinic
loop_
_symmetry_equiv_pos_as_xyz
  x,y,z
_cell_length_a	19.288862
_cell_length_b	15.455320
_cell_length_c	19.288865
_cell_angle_alpha	87.336526
_cell_angle_beta	96.864237
_cell_angle_gamma	87.325106
loop_
_atom_site_label
_atom_site_type_symbol
_atom_site_fract_x
_atom_site_fract_y
_atom_site_fract_z
O1	O	-0.924405	0.072476	0.083566
O2	O	-0.722142	0.072406	0.095259
O3	O	-0.829117	0.072426	-0.011717
O4	O	-0.817430	0.072456	0.190542
O5	O	-0.823025	-0.071837	-0.005602
O6	O	-0.716049	-0.071857	0.101375
O7	O	-0.918313	-0.071787	0.089681
Cu8	Cu	-0.816625	-0.084995	0.096086
Cu9	Cu	-0.823830	0.085613	0.088854
O10	O	-0.811337	-0.071807	0.196658
C11	C	-0.693219	0.000265	0.097942
C12	C	-0.616114	0.000237	0.096814
N13	N	-0.811562	-0.204991	0.101173
C14	C	-0.825695	0.000291	-0.034536
C15	C	-0.824566	0.000283	-0.111639
C16	C	-0.571418	0.000258	0.159582
C17	C	-0.498971	0.000263	0.158522
C18	C	-0.471224	0.000265	0.094689
C19	C	-0.515929	0.000239	0.031914
C20	C	-0.588374	0.000225	0.032977
C21	C	-0.365097	0.050821	0.042368
C22	C	-0.292653	0.050840	0.041308
C23	C	-0.247780	0.000303	0.091410
C24	C	-0.275358	-0.050242	0.142584
C25	C	-0.347803	-0.050256	0.143646
C26	C	-0.392670	0.000279	0.093530
C27	C	-0.124528	0.000328	0.153032
C28	C	-0.052080	0.000327	0.151970
C29	C	-0.069040	0.000312	0.025360
C30	C	-0.141486	0.000304	0.026425
C31	C	-0.169226	0.000316	0.090263
C32	C	0.052765	0.000340	0.087002
C33	C	-0.024338	0.000328	0.088137
C34	C	-0.783441	-0.749004	0.129198
C35	C	-0.787284	-0.658195	0.125365
C36	C	-0.836589	-0.612775	0.076099
C37	C	-0.882049	-0.658168	0.030659
C38	C	-0.878201	-0.748975	0.034489
C39	C	-0.853174	-0.341191	0.059563
C40	C	-0.857020	-0.250378	0.055737
C41	C	-0.762254	-0.250411	0.150443
C42	C	-0.758414	-0.341219	0.154272
C43	C	-0.803871	-0.386605	0.108829
N44	N	-0.840521	-0.519954	0.072181
N45	N	-0.799935	-0.479424	0.112744
N46	N	-0.828898	0.205609	0.083763
C47	C	-0.887334	0.000301	-0.156336
C48	C	-0.886274	0.000314	-0.228784
C49	C	-0.822441	0.000293	-0.256530
C50	C	-0.759664	0.000280	-0.211823
C51	C	-0.760727	0.000275	-0.139377
C52	C	-0.770127	-0.050257	-0.362674
C53	C	-0.769067	-0.050258	-0.435119
C54	C	-0.819162	0.000311	-0.479977
C55	C	-0.870329	0.050869	-0.452382
C56	C	-0.871391	0.050864	-0.379936
C57	C	-0.821282	0.000298	-0.335084
C58	C	-0.880786	0.000344	-0.603231
C59	C	-0.879723	0.000363	-0.675680
C60	C	-0.753111	0.000320	-0.658716
C61	C	-0.754176	0.000310	-0.586270
C62	C	-0.818015	0.000318	-0.558531
C63	C	-0.814760	0.000329	0.219476
C64	C	-0.815889	0.000343	0.296579
H65	H	-0.593999	0.000269	0.211563
Cl66	Cl	-0.442772	0.000286	0.237435
Cl67	Cl	-0.382471	-0.113799	0.207972
H68	H	-0.915216	-0.785928	-0.002510
H69	H	-0.147115	0.000324	0.205013
Cl70	Cl	-0.679417	0.000260	-0.246703
H71	H	-0.750269	-0.621242	0.162362
Cl72	Cl	-0.707145	-0.113838	-0.306288
H73	H	-0.703062	0.000291	-0.549875
Cl74	Cl	-0.933310	0.114447	-0.508767
H75	H	-0.727401	-0.091420	-0.457580
H76	H	-0.238823	-0.091395	0.183381
Cl77	Cl	-0.197678	0.000283	-0.052488
Cl78	Cl	0.004111	0.000349	0.230885
H79	H	-0.718266	-0.378199	0.194388
Cl80	Cl	-0.967590	0.000336	-0.121470
H81	H	-0.725244	-0.213450	0.187440
H82	H	-0.897173	-0.213401	0.015617
Cl83	Cl	-0.681810	0.000253	-0.083183
H84	H	-0.046451	0.000368	-0.026616
Cl85	Cl	-0.721457	-0.806093	0.191139
H86	H	-0.270205	0.092001	-0.000358
H87	H	-0.890188	-0.378137	0.022562
H88	H	-0.922192	-0.621182	-0.009458
Cl89	Cl	-0.965189	0.000337	-0.284986
H90	H	-0.401628	0.091980	0.001567
Cl91	Cl	-0.935707	0.114426	-0.345248
H92	H	-0.701137	0.000307	-0.681307
Cl93	Cl	-0.481047	0.000236	-0.048332
H94	H	-0.624766	0.000209	-0.018138
Cl95	Cl	-0.961038	0.000349	-0.568356
H96	H	-0.930839	0.000382	-0.712073
