data_functionalizedCrystal
_audit_creation_method	'MofGen! by Chris Wilmer'
_symmetry_space_group_name_H-M	'P1'
_symmetry_Int_Tables_number	1
_symmetry_cell_setting	triclinic
loop_
_symmetry_equiv_pos_as_xyz
  x,y,z
_cell_length_a	10.723024
_cell_length_b	9.065218
_cell_length_c	8.140239
_cell_angle_alpha	90.001686
_cell_angle_beta	89.997577
_cell_angle_gamma	95.258123
loop_
_atom_site_label
_atom_site_type_symbol
_atom_site_fract_x
_atom_site_fract_y
_atom_site_fract_z
O1	O	1.658026	-0.206940	-0.136596
O2	O	2.158026	0.293060	0.363404
O3	O	1.294954	-0.226748	-0.136601
O4	O	1.794954	0.273252	0.363399
O5	O	1.483995	-0.002159	-0.136595
O6	O	1.983995	0.497841	0.363405
O7	O	1.468985	-0.431529	-0.136602
O8	O	1.968985	0.068471	0.363398
O9	O	1.483984	-0.002156	0.136632
O10	O	1.983984	0.497844	0.636632
O11	O	1.294944	-0.226745	0.136627
O12	O	1.794944	0.273255	0.636627
O13	O	1.658015	-0.206937	0.136631
O14	O	2.158015	0.293063	0.636631
Zn15	Zn	1.476478	-0.216841	0.180010
Zn16	Zn	1.976478	0.283159	0.680010
Zn17	Zn	1.476492	-0.216844	-0.179979
Zn18	Zn	1.976492	0.283156	0.320021
O19	O	1.468975	-0.431526	0.136626
O20	O	1.968975	0.068474	0.636626
C21	C	1.482547	0.052821	0.000016
C22	C	1.982547	0.552821	0.500016
C23	C	1.478234	0.216639	0.000008
C24	C	1.978234	0.716639	0.500008
C25	C	1.248443	-0.225305	0.000012
C26	C	1.748443	0.274695	0.500012
C27	C	1.109872	-0.220992	0.000010
C28	C	1.609872	0.279008	0.500010
N29	N	1.476477	-0.216837	0.425692
N30	N	1.976477	0.283163	0.925692
C31	C	1.035399	-0.346660	0.000007
C32	C	1.535399	0.153340	0.500007
C33	C	0.892178	-0.342206	0.000005
C34	C	1.392178	0.157794	0.500005
C35	C	1.704526	-0.208380	0.000015
C36	C	2.204526	0.291620	0.500015
C37	C	1.843098	-0.212693	0.000006
C38	C	2.343098	0.287307	0.500006
C39	C	1.470423	-0.486506	0.000011
C40	C	1.970423	0.013494	0.500011
C41	C	1.474736	-0.650324	0.000008
C42	C	1.974736	-0.150324	0.500008
N43	N	1.476502	-0.216836	-0.425661
N44	N	1.976502	0.283164	0.074339
H45	H	0.828182	-0.449788	-0.000004
H46	H	1.328182	0.050212	0.499996
C47	C	0.929528	-0.067343	0.000001
C48	C	1.429528	0.432657	0.500001
H49	H	0.880156	0.014489	-0.000011
H50	H	1.380156	0.514489	0.499989
H51	H	0.980875	-0.063412	0.095277
H52	H	1.480875	0.436588	0.595277
H53	H	0.980870	-0.063425	-0.095296
H54	H	1.480870	0.436575	0.404704
C55	C	1.092493	-0.496465	0.000003
C56	C	1.592493	0.003535	0.500003
H57	H	1.181265	-0.479806	-0.000007
H58	H	1.681265	0.020194	0.499993
H59	H	1.065720	-0.551006	0.095278
H60	H	1.565720	-0.051006	0.595278
H61	H	1.065730	-0.550996	-0.095294
H62	H	1.565730	-0.050996	0.404706
H63	H	1.067599	-0.110105	-0.000030
H64	H	1.567599	0.389895	0.499970
