data_functionalizedCrystal
_audit_creation_method	'MofGen! by Chris Wilmer'
_symmetry_space_group_name_H-M	'P1'
_symmetry_Int_Tables_number	1
_symmetry_cell_setting	triclinic
loop_
_symmetry_equiv_pos_as_xyz
  x,y,z
_cell_length_a	14.044191
_cell_length_b	15.944493
_cell_length_c	12.503572
_cell_angle_alpha	93.528588
_cell_angle_beta	86.162165
_cell_angle_gamma	88.333410
loop_
_atom_site_label
_atom_site_type_symbol
_atom_site_fract_x
_atom_site_fract_y
_atom_site_fract_z
O1	O	1.263136	0.198090	-0.089242
O2	O	1.596469	0.531424	0.244091
O3	O	1.929802	0.864757	0.577424
O4	O	0.987168	0.190776	-0.089257
O5	O	1.320502	0.524109	0.244077
O6	O	1.653835	0.857442	0.577410
O7	O	1.132717	0.072721	-0.089258
O8	O	1.466051	0.406054	0.244075
O9	O	1.799384	0.739388	0.577409
O10	O	1.117587	0.316145	-0.089241
O11	O	1.450920	0.649478	0.244092
O12	O	1.784253	0.982812	0.577426
O13	O	1.121771	0.081615	0.089384
O14	O	1.455104	0.414949	0.422717
O15	O	1.788438	0.748282	0.756051
O16	O	0.976222	0.199670	0.089385
O17	O	1.309555	0.533004	0.422719
O18	O	1.642889	0.866337	0.756052
O19	O	1.252190	0.206985	0.089400
O20	O	1.585523	0.540318	0.422733
O21	O	1.918856	0.873651	0.756066
Cu22	Cu	1.113206	0.204140	0.105704
Cu23	Cu	1.446540	0.537473	0.439037
Cu24	Cu	1.779873	0.870806	0.772371
Cu25	Cu	1.126151	0.193621	-0.105561
Cu26	Cu	1.459485	0.526954	0.227772
Cu27	Cu	1.792818	0.860287	0.561106
O28	O	1.106641	0.325039	0.089401
O29	O	1.439974	0.658373	0.422734
O30	O	1.773307	0.991706	0.756068
C31	C	0.946381	0.192023	0.000062
C32	C	1.279715	0.525357	0.333395
C33	C	1.613048	0.858690	0.666729
C34	C	0.841157	0.182479	0.000056
C35	C	1.174491	0.515813	0.333389
C36	C	1.507824	0.849146	0.666722
C37	C	0.590861	0.232718	0.000070
C38	C	0.924195	0.566052	0.333403
C39	C	1.257528	0.899385	0.666737
C40	C	0.648502	0.165045	0.000063
C41	C	0.981836	0.498379	0.333397
C42	C	1.315169	0.831712	0.666730
C43	C	0.755705	0.174748	0.000059
C44	C	1.089039	0.508081	0.333393
C45	C	1.422372	0.841415	0.666726
C46	C	0.483648	0.223017	0.000074
C47	C	0.816982	0.556350	0.333408
C48	C	1.150315	0.889684	0.666741
C49	C	1.126626	0.045827	0.000058
C50	C	1.459959	0.379160	0.333392
C51	C	1.793293	0.712494	0.666725
C52	C	1.124773	-0.047561	0.000045
C53	C	1.458106	0.285772	0.333378
C54	C	1.791440	0.619105	0.666711
C55	C	1.210445	-0.276903	0.000069
C56	C	1.543778	0.056430	0.333403
C57	C	1.877112	0.389764	0.666736
C58	C	1.169642	-0.335317	-0.088012
C59	C	1.502975	-0.001984	0.245321
C60	C	1.836308	0.331350	0.578654
C61	C	1.121337	-0.218539	0.000058
C62	C	1.454670	0.114794	0.333391
C63	C	1.788004	0.448128	0.666724
C64	C	1.158829	-0.326525	0.088115
C65	C	1.492162	0.006808	0.421448
C66	C	1.825495	0.340141	0.754781
C67	C	1.118025	-0.383696	0.000075
C68	C	1.451358	-0.050362	0.333408
C69	C	1.784691	0.282971	0.666741
C70	C	1.080562	-0.275727	-0.088097
C71	C	1.413896	0.057607	0.245236
C72	C	1.747229	0.390940	0.578570
C73	C	1.069758	-0.266927	0.088109
C74	C	1.403091	0.066407	0.421443
C75	C	1.736424	0.399740	0.754776
C76	C	1.028890	-0.325314	0.000006
C77	C	1.362224	0.008020	0.333339
C78	C	1.695557	0.341353	0.666673
C79	C	1.123248	-0.123397	0.000047
C80	C	1.456581	0.209937	0.333380
C81	C	1.789915	0.543270	0.666713
C82	C	1.116107	-0.478836	0.000078
C83	C	1.449440	-0.145503	0.333411
C84	C	1.782774	0.187830	0.666745
C85	C	1.292977	0.205737	0.000078
C86	C	1.626310	0.539070	0.333412
C87	C	1.959643	0.872404	0.666745
C88	C	1.398201	0.215281	0.000078
C89	C	1.731534	0.548614	0.333411
C90	C	2.064868	0.881947	0.666744
C91	C	1.112732	0.351933	0.000082
C92	C	1.446065	0.685267	0.333416
C93	C	1.779399	1.018600	0.666749
C94	C	1.114585	0.445321	0.000089
C95	C	1.447919	0.778655	0.333422
C96	C	1.781252	1.111988	0.666756
N97	N	1.104108	0.211538	0.254296
N98	N	1.437442	0.544871	0.587630
N99	N	1.770775	0.878205	0.920963
N100	N	1.135257	0.186216	-0.254153
N101	N	1.468590	0.519550	0.079180
N102	N	1.801924	0.852883	0.412513
C103	C	1.090725	0.222428	0.473412
C104	C	1.424058	0.555762	0.806745
C105	C	1.757391	0.889095	1.140078
C106	C	1.148637	0.175329	0.526738
C107	C	1.481971	0.508662	0.860072
C108	C	1.815304	0.841995	1.193405
C109	C	1.141191	0.181388	0.648662
C110	C	1.474524	0.514721	0.981995
C111	C	1.807857	0.848055	1.315328
C112	C	1.098170	0.216370	0.351477
C113	C	1.431504	0.549703	0.684811
C114	C	1.764837	0.883036	1.018144
H115	H	0.617343	0.099817	-0.000017
H116	H	0.950677	0.433151	0.333317
H117	H	1.284010	0.766484	0.666650
H118	H	0.622024	0.297937	0.000071
H119	H	0.955357	0.631270	0.333405
H120	H	1.288690	0.964604	0.666738
H121	H	1.027595	-0.237075	0.162575
H122	H	1.360929	0.096259	0.495909
H123	H	1.694262	0.429592	0.829242
H124	H	1.047520	-0.253435	-0.162643
H125	H	1.380853	0.079898	0.170691
H126	H	1.714186	0.413231	0.504024
H127	H	1.287206	-0.255530	-0.000015
H128	H	1.620539	0.077804	0.333318
H129	H	1.953872	0.411137	0.666652
F130	F	1.224791	-0.374315	-0.185341
F131	F	1.558124	-0.040982	0.147993
F132	F	1.891458	0.292351	0.481326
H133	H	0.952078	-0.346536	-0.000046
H134	H	1.285411	-0.013203	0.333287
H135	H	1.618745	0.320131	0.666620
H136	H	1.191917	-0.348929	0.162576
H137	H	1.525250	-0.015596	0.495909
H138	H	1.858583	0.317738	0.829243
H139	H	1.035556	0.267300	0.519320
H140	H	1.368889	0.600633	0.852653
H141	H	1.702223	0.933967	1.185986
F142	F	1.221037	0.116948	0.466730
F143	F	1.554370	0.450281	0.800064
F144	F	1.887703	0.783614	1.133397
