data_functionalizedCrystal
_audit_creation_method	'MofGen! by Chris Wilmer'
_symmetry_space_group_name_H-M	'P1'
_symmetry_Int_Tables_number	1
_symmetry_cell_setting	triclinic
loop_
_symmetry_equiv_pos_as_xyz
  x,y,z
_cell_length_a	10.540539
_cell_length_b	23.532407
_cell_length_c	9.016244
_cell_angle_alpha	89.993097
_cell_angle_beta	89.994699
_cell_angle_gamma	83.687085
loop_
_atom_site_label
_atom_site_type_symbol
_atom_site_fract_x
_atom_site_fract_y
_atom_site_fract_z
O1	O	1.683259	0.080251	-0.123287
O2	O	1.313598	0.087813	-0.123307
O3	O	1.509576	0.001174	-0.123270
O4	O	1.487282	0.166890	-0.123325
O5	O	1.509547	0.001176	0.123411
O6	O	1.313570	0.087815	0.123373
O7	O	1.683231	0.080253	0.123393
Cu8	Cu	1.498398	0.084034	0.145907
Cu9	Cu	1.498431	0.084032	-0.145821
O10	O	1.487253	0.166892	0.123356
C11	C	1.266300	0.087246	0.000031
C12	C	1.125407	0.085550	0.000024
C13	C	0.944114	0.020541	0.000622
C14	C	1.090676	0.022261	0.000050
C15	C	1.062751	0.116006	-0.140847
C16	C	0.916278	0.113846	-0.140949
C17	C	0.915715	0.115136	0.139573
C18	C	1.062677	0.115719	0.141419
C19	C	1.508994	-0.020045	0.000075
C20	C	1.507287	-0.083273	0.000086
C21	C	1.612557	-0.481681	0.000010
C22	C	1.610971	-0.541092	-0.000001
O23	O	1.708557	-0.577192	-0.000051
N24	N	1.494462	-0.564488	-0.000006
C25	C	1.379532	-0.528469	-0.000015
O26	O	1.280287	-0.553824	-0.000022
C27	C	1.381119	-0.469060	-0.000015
C28	C	1.497635	-0.445667	0.000006
C29	C	1.729064	-0.458288	0.000029
C30	C	1.730649	-0.398882	0.000043
C31	C	1.615727	-0.362868	0.000038
C32	C	1.499220	-0.386261	0.000020
C33	C	1.266190	-0.433042	-0.000034
C34	C	1.267787	-0.373629	-0.000035
C35	C	1.384303	-0.350237	-0.000014
C36	C	1.385883	-0.290840	0.000029
N37	N	1.502392	-0.267444	0.000035
C38	C	1.617314	-0.303458	0.000039
C39	C	1.376208	-0.653234	-0.000019
C40	C	1.374620	-0.712642	-0.000010
C41	C	1.606059	-0.725261	0.000002
C42	C	1.607646	-0.665851	0.000003
C43	C	1.492717	-0.629838	-0.000014
C44	C	1.620634	-0.178700	0.000070
C45	C	1.622209	-0.119287	0.000090
C46	C	1.390770	-0.106674	0.000071
C47	C	1.389194	-0.166081	0.000059
C48	C	1.504137	-0.202093	0.000053
O49	O	1.288349	-0.254705	0.000073
O50	O	1.716543	-0.278095	0.000026
C51	C	1.730530	0.080819	0.000052
C52	C	1.871422	0.082516	0.000048
C53	C	1.487835	0.188111	0.000008
C54	C	1.489542	0.251339	-0.000013
N55	N	1.498383	0.084035	0.351093
N56	N	1.498456	0.084026	-0.351007
C57	C	1.393236	0.130226	0.586106
C58	C	1.393460	0.130399	0.414215
C59	C	1.630663	0.097553	0.413434
C60	C	1.630086	0.097880	0.585378
C61	C	1.472574	0.024176	0.585655
C62	C	1.469516	0.024564	0.413701
H63	H	1.104358	0.093470	0.245635
H64	H	1.717094	-0.100245	0.000111
H65	H	1.174194	-0.344309	-0.000050
H66	H	1.295110	0.122265	0.372069
H67	H	1.378259	0.011310	0.629103
H68	H	1.294317	-0.185128	0.000083
H69	H	1.171310	-0.452077	-0.000060
H70	H	1.083579	0.162484	-0.146104
H71	H	1.714231	-0.208014	0.000060
H72	H	1.409454	0.174378	0.629285
H73	H	1.541225	-0.011468	0.370740
H74	H	1.409902	0.174802	0.373054
H75	H	1.134064	-0.001703	0.101034
H76	H	0.916337	-0.004461	0.101650
H77	H	1.654144	0.140724	0.370343
H78	H	1.699635	-0.754594	-0.000000
H79	H	1.372214	0.014317	0.372958
H80	H	1.085388	0.161861	0.149909
H81	H	1.822652	-0.487605	0.000027
H82	H	1.702524	-0.646810	0.000018
H83	H	0.866987	0.160849	0.140509
H84	H	1.825528	-0.379842	0.000053
H85	H	1.279741	-0.731682	-0.000000
H86	H	1.297204	-0.077341	0.000073
H87	H	1.653007	0.141545	0.625454
H88	H	0.888818	0.091335	-0.246237
H89	H	1.294574	0.122217	0.627497
H90	H	1.549314	-0.010211	0.626322
H91	H	1.106046	0.094848	-0.245672
H92	H	0.914735	-0.004357	-0.099826
H93	H	1.282612	-0.623914	-0.000020
H94	H	0.884828	0.094655	0.246352
H95	H	0.866816	0.159363	-0.147358
H96	H	1.133225	-0.001874	-0.101092
H97	H	1.710788	0.065586	0.626975
H98	H	1.710792	0.064822	0.372544
