data_functionalizedCrystal
_audit_creation_method	'MofGen! by Chris Wilmer'
_symmetry_space_group_name_H-M	'P1'
_symmetry_Int_Tables_number	1
_symmetry_cell_setting	triclinic
loop_
_symmetry_equiv_pos_as_xyz
  x,y,z
_cell_length_a	10.654550
_cell_length_b	14.519709
_cell_length_c	9.130313
_cell_angle_alpha	89.997798
_cell_angle_beta	89.996220
_cell_angle_gamma	84.082524
loop_
_atom_site_label
_atom_site_type_symbol
_atom_site_fract_x
_atom_site_fract_y
_atom_site_fract_z
O1	O	1.666589	0.129528	-0.121923
O2	O	1.300991	0.141869	-0.121900
O3	O	1.493483	0.001510	-0.121899
O4	O	1.474097	0.269887	-0.121924
O5	O	1.493481	0.001514	0.121700
O6	O	1.300989	0.141873	0.121699
O7	O	1.666586	0.129532	0.121676
Cu8	Cu	1.483787	0.135703	0.143930
Cu9	Cu	1.483790	0.135698	-0.144154
O10	O	1.474094	0.269891	0.121675
C11	C	1.254201	0.140965	-0.000098
C12	C	1.114784	0.138254	-0.000088
C13	C	1.034504	0.220895	-0.000117
C14	C	0.903507	0.218342	-0.000143
C15	C	0.933085	0.050500	-0.000116
C16	C	1.064078	0.053054	-0.000080
C17	C	1.085209	0.306095	-0.000126
C18	C	1.004928	0.388743	-0.000157
C19	C	0.873931	0.386190	-0.000182
C20	C	0.823217	0.300989	-0.000176
C21	C	1.492579	-0.032852	-0.000099
C22	C	1.489871	-0.135247	-0.000098
C23	C	1.479904	-0.510195	-0.000136
C24	C	1.482672	-0.405873	-0.000125
C25	C	1.484887	-0.322725	-0.000116
C26	C	1.487656	-0.218396	-0.000108
C27	C	1.713377	0.130436	-0.000130
C28	C	1.852794	0.133147	-0.000149
C29	C	1.474999	0.304253	-0.000128
C30	C	1.477707	0.406648	-0.000139
N31	N	1.483795	0.135705	0.346552
N32	N	1.483793	0.135688	-0.346777
C33	C	1.569052	0.073576	0.423205
C34	C	1.569048	0.073565	0.576542
C35	C	1.398527	0.197821	0.576560
C36	C	1.398525	0.197827	0.423226
C37	C	1.654321	0.011454	0.346531
C38	C	1.739586	-0.050679	0.423184
C39	C	1.739583	-0.050691	0.576520
C40	C	1.654315	0.011432	0.653205
H41	H	0.808569	0.453485	-0.000192
H42	H	1.809000	-0.101288	0.638929
C43	C	1.192600	0.467184	-0.000148
C44	C	1.060668	0.482392	-0.000166
H45	H	1.227007	0.525001	-0.000164
H46	H	1.220120	0.433134	0.084806
H47	H	1.220146	0.433114	-0.085091
H48	H	1.033121	0.516455	0.084783
H49	H	1.033137	0.516456	-0.085129
H50	H	1.329106	0.248400	0.639006
H51	H	1.191871	0.308183	-0.000112
C52	C	0.627542	0.343012	-0.125446
C53	C	0.679223	0.298178	-0.000204
H54	H	0.538650	0.341270	-0.125470
H55	H	0.646246	0.405573	-0.125432
H56	H	0.662670	0.312587	-0.210374
H57	H	0.644103	0.328607	0.084724
H58	H	0.660509	0.235605	-0.000205
C59	C	0.975472	-0.115149	-0.000088
C60	C	0.877342	-0.043149	-0.000124
H61	H	0.941058	-0.172963	-0.000089
H62	H	1.025971	-0.110663	-0.085016
H63	H	1.025927	-0.110656	0.084882
H64	H	0.826893	-0.047637	-0.085100
H65	H	0.826823	-0.047636	0.084812
C66	C	1.228598	-0.041435	-0.125253
C67	C	1.152339	-0.037782	-0.000053
H68	H	1.283092	-0.097512	-0.125224
H69	H	1.176904	-0.038955	-0.210200
H70	H	1.277531	0.009679	-0.125227
H71	H	1.103399	-0.088893	-0.000085
H72	H	1.204039	-0.040272	0.084916
H73	H	1.654334	0.011460	0.221677
C74	C	1.229986	0.320659	0.438634
C75	C	1.304817	0.266125	0.338958
H76	H	1.172138	0.362826	0.386607
H77	H	1.184731	0.281961	0.498438
H78	H	1.282342	0.354187	0.498441
H79	H	1.252461	0.232592	0.279158
H80	H	1.350075	0.304829	0.279129
C81	C	1.766512	-0.176026	0.250798
C82	C	1.833279	-0.119002	0.338930
H83	H	1.824349	-0.218214	0.198790
H84	H	1.714151	-0.209522	0.310637
H85	H	1.715769	-0.139012	0.183178
H86	H	1.884015	-0.156015	0.406558
H87	H	1.885662	-0.085503	0.279085
H88	H	1.654311	0.011412	0.778062
