data_functionalizedCrystal
_audit_creation_method	'MofGen! by Chris Wilmer'
_symmetry_space_group_name_H-M	'P1'
_symmetry_Int_Tables_number	1
_symmetry_cell_setting	triclinic
loop_
_symmetry_equiv_pos_as_xyz
  x,y,z
_cell_length_a	15.712078
_cell_length_b	15.625429
_cell_length_c	14.750779
_cell_angle_alpha	59.907167
_cell_angle_beta	106.492891
_cell_angle_gamma	101.022721
loop_
_atom_site_label
_atom_site_type_symbol
_atom_site_fract_x
_atom_site_fract_y
_atom_site_fract_z
O1	O	1.084597	0.539447	-0.267790
O2	O	0.838831	0.466530	-0.242365
O3	O	0.979639	0.365977	-0.207390
O4	O	0.943789	0.640000	-0.302766
O5	O	1.019444	0.337557	-0.037854
O6	O	0.878636	0.438110	-0.072830
O7	O	1.124402	0.511027	-0.098255
Zn8	Zn	1.007838	0.470056	-0.058625
Zn9	Zn	0.955394	0.507501	-0.281995
O10	O	0.983594	0.611580	-0.133230
C11	C	0.827492	0.440408	-0.153446
C12	C	0.734403	0.404903	-0.141071
C13	C	0.342990	0.706335	-0.246052
C14	C	0.255514	0.672958	-0.234459
C15	C	0.289614	0.505692	-0.176243
C16	C	0.377094	0.539056	-0.187836
C17	C	0.403775	0.639378	-0.222740
C18	C	0.437879	0.472099	-0.164524
C19	C	0.525352	0.505460	-0.176112
C20	C	0.552041	0.605778	-0.211011
C21	C	0.491248	0.672739	-0.234328
C22	C	0.411198	0.371776	-0.129613
C23	C	0.471983	0.304819	-0.106302
C24	C	0.559456	0.338181	-0.117896
C25	C	0.586145	0.438499	-0.152795
C26	C	0.620249	0.271220	-0.094580
C27	C	0.707723	0.304581	-0.106167
C28	C	0.673619	0.471860	-0.164383
C29	C	1.001865	0.315886	-0.110135
C30	C	1.008778	0.208968	-0.072927
C31	C	1.135741	0.537149	-0.187177
C32	C	1.228828	0.572655	-0.199558
C33	C	0.923014	-0.065226	-0.412582
C34	C	0.929514	-0.165698	-0.377586
C35	C	0.972906	-0.196667	-0.192770
C36	C	0.966414	-0.096195	-0.227750
C37	C	0.941467	-0.030482	-0.337657
C38	C	0.984867	-0.061450	-0.152826
C39	C	0.978371	0.039012	-0.187803
C40	C	0.953422	0.104730	-0.297705
C41	C	0.934971	0.069980	-0.372634
C42	C	1.009808	-0.127166	-0.042919
C43	C	1.028260	-0.092421	0.032005
C44	C	1.021771	0.008044	-0.002972
C45	C	0.996822	0.073762	-0.112874
C46	C	1.040222	0.042793	0.071957
C47	C	1.033726	0.143256	0.036980
C48	C	0.990326	0.174224	-0.147851
C49	C	0.961367	0.661672	-0.230487
C50	C	0.954452	0.768590	-0.267702
N51	N	1.043636	0.444502	0.093819
N52	N	0.919604	0.533050	-0.434438
C53	C	0.819629	0.604376	0.390029
C54	C	0.844720	0.586478	0.496753
C55	C	0.969425	0.497495	0.527667
C56	C	0.944342	0.515381	0.420945
C57	C	0.869444	0.568823	0.352133
C58	C	0.994157	0.479828	0.383048
C59	C	0.969079	0.497718	0.276334
C60	C	0.894186	0.551160	0.207515
C61	C	0.844366	0.586712	0.245418
C62	C	1.069059	0.426392	0.451860
C63	C	1.118874	0.390840	0.413964
C64	C	1.093793	0.408723	0.307249
C65	C	1.018899	0.462165	0.238430
C66	C	1.143612	0.373170	0.269346
C67	C	1.118534	0.391060	0.162631
C68	C	0.993821	0.480055	0.131715
H69	H	0.512973	0.754432	-0.262748
F70	F	0.318101	0.336271	-0.117273
F71	F	0.867499	0.570204	0.093936
H72	H	0.932826	0.523564	0.075688
H73	H	1.048734	0.171540	0.097993
H74	H	1.204600	0.329666	0.325383
F75	F	0.645148	0.641278	-0.223306
F76	F	0.791692	0.624327	0.537075
F77	F	0.772418	0.233318	-0.081354
F78	F	0.946510	0.211653	-0.334932
H79	H	0.914478	-0.193982	-0.438607
F80	F	0.908430	0.139925	-0.489611
H81	H	1.159100	0.362110	0.131777
F82	F	1.054803	-0.162368	0.148973
F83	F	0.896473	0.004718	-0.529558
H84	H	1.015087	-0.208970	-0.014443
H85	H	0.206024	0.727489	-0.253440
F86	F	0.591844	0.164451	-0.057421
F87	F	0.702016	0.578637	-0.201543
F88	F	0.963785	0.244169	-0.264828
H89	H	0.364714	0.788027	-0.274473
H90	H	0.783371	0.630222	0.189391
F91	F	0.261209	0.398924	-0.139093
F92	F	0.443578	0.198051	-0.069152
H93	H	0.993215	-0.250183	-0.103284
F94	F	1.066757	-0.027157	0.188925
H95	H	0.758634	0.647885	0.334002
F96	F	1.049137	0.440622	0.600908
F97	F	1.095749	0.407361	0.565434
F98	F	1.198586	0.333967	0.487205
