data_functionalizedCrystal
_audit_creation_method	'MofGen! by Chris Wilmer'
_symmetry_space_group_name_H-M	'P1'
_symmetry_Int_Tables_number	1
_symmetry_cell_setting	triclinic
loop_
_symmetry_equiv_pos_as_xyz
  x,y,z
_cell_length_a	17.699077
_cell_length_b	19.288865
_cell_length_c	18.366186
_cell_angle_alpha	89.989632
_cell_angle_beta	90.008526
_cell_angle_gamma	96.791588
loop_
_atom_site_label
_atom_site_type_symbol
_atom_site_fract_x
_atom_site_fract_y
_atom_site_fract_z
O1	O	1.003960	-0.087816	0.060548
O2	O	0.783565	-0.099248	0.060553
O3	O	0.900131	0.007591	0.060536
O4	O	0.887394	-0.194655	0.060565
O5	O	0.900111	0.007594	-0.060563
O6	O	0.783545	-0.099245	-0.060546
O7	O	1.003940	-0.087813	-0.060551
Zn8	Zn	0.893739	-0.093529	-0.079776
Zn9	Zn	0.893766	-0.093533	0.079778
O10	O	0.887374	-0.194652	-0.060534
C11	C	0.755359	-0.098838	0.000004
C12	C	0.671342	-0.097611	0.000005
C13	C	0.631865	-0.097031	-0.066007
C14	C	0.552924	-0.095868	-0.066008
C15	C	0.513461	-0.095289	0.000004
C16	C	0.552944	-0.095866	0.066021
C17	C	0.631885	-0.097025	0.066021
C18	C	0.234588	-0.091192	0.066022
C19	C	0.155642	-0.090035	0.066016
C20	C	0.155627	-0.090035	-0.066008
C21	C	0.234567	-0.091193	-0.066007
C22	C	0.274044	-0.091767	0.000009
C23	C	0.359641	-0.093028	0.000010
C24	C	0.427865	-0.094033	0.000004
C25	C	0.899711	0.033469	-0.000016
C26	C	0.898481	0.110574	-0.000022
C27	C	1.032147	-0.088224	-0.000000
C28	C	1.116163	-0.089450	0.000004
C29	C	0.887794	-0.220531	0.000019
C30	C	0.889024	-0.297636	0.000031
N31	N	0.893727	-0.093526	-0.188667
C32	C	0.966877	0.155191	-0.000027
C33	C	0.965721	0.227639	-0.000016
C34	C	0.896166	0.255468	-0.000014
C35	C	0.827761	0.210841	-0.000004
C36	C	0.828919	0.138394	-0.000009
C37	C	0.841480	0.363820	-0.042431
C38	C	0.840325	0.436266	-0.042431
C39	C	0.892592	0.478917	0.000003
C40	C	0.946026	0.449116	0.042428
C41	C	0.947184	0.376669	0.042423
C42	C	0.894902	0.334023	-0.000009
C43	C	0.959739	0.602092	0.000011
C44	C	0.958580	0.674541	0.000027
C45	C	0.820618	0.657741	0.000031
C46	C	0.821779	0.585294	0.000022
C47	C	0.891341	0.557473	0.000009
C48	C	0.939479	-0.135603	-0.226756
C49	C	0.939491	-0.135601	-0.302984
C50	C	0.893737	-0.093530	-0.341120
C51	C	0.847982	-0.051444	-0.303022
C52	C	0.847977	-0.051442	-0.226795
C53	C	0.825512	-0.091694	-0.461900
C54	C	0.825516	-0.091701	-0.538125
C55	C	0.893755	-0.093532	-0.576227
C56	C	0.961991	-0.095371	-0.538095
C57	C	0.961985	-0.095369	-0.461869
C58	C	0.893738	-0.093527	-0.423774
C59	C	0.939524	-0.135610	-0.696971
C60	C	0.939538	-0.135603	-0.773200
C61	C	0.848022	-0.051450	-0.773237
C62	C	0.848015	-0.051453	-0.697009
C63	C	0.893765	-0.093536	-0.658881
N64	N	0.893785	-0.093530	0.188669
H65	H	0.266721	-0.091657	0.119777
H66	H	0.664026	-0.097498	0.119775
O67	O	1.028227	-0.097064	-0.424742
C68	C	1.117072	-0.039052	-0.338687
C69	C	1.042034	-0.037051	-0.380678
H70	H	1.128267	0.009470	-0.303063
H71	H	1.112698	-0.087689	-0.302943
H72	H	1.165836	-0.040400	-0.379014
H73	H	0.993232	-0.035677	-0.340403
H74	H	1.046473	0.011580	-0.416432
O75	O	0.803457	-0.010551	-0.189905
C76	C	0.712725	0.072948	-0.197985
C77	C	0.763095	0.026662	-0.239855
H78	H	0.680091	0.103058	-0.238352
H79	H	0.670753	0.038767	-0.162322
H80	H	0.750088	0.111324	-0.162275
H81	H	0.725792	-0.011720	-0.275604
H82	H	0.805071	0.060887	-0.275472
O83	O	1.024973	0.717956	-0.000071
C84	C	1.103735	0.809490	-0.062825
C85	C	1.028510	0.760372	-0.062797
H86	H	1.106626	0.843785	-0.113542
H87	H	1.106662	0.843861	-0.012175
H88	H	1.153637	0.777145	-0.062800
H89	H	0.978565	0.792661	-0.062848
H90	H	1.025649	0.725998	-0.113443
O91	O	0.117238	-0.089374	0.130098
C92	C	0.036937	-0.027891	0.206720
C93	C	0.080381	-0.028559	0.134120
H94	H	0.007141	0.021279	0.210002
H95	H	-0.007160	-0.075907	0.210041
H96	H	0.078722	-0.028533	0.253892
H97	H	0.038654	-0.027894	0.086907
H98	H	0.124489	0.019452	0.130863
H99	H	0.796812	0.460523	-0.076972
H100	H	0.663988	-0.097509	-0.119762
O101	O	1.028286	-0.097023	-0.575128
C102	C	1.117117	-0.039033	-0.661206
C103	C	1.042037	-0.037064	-0.619297
H104	H	1.128250	0.009430	-0.696938
H105	H	1.165917	-0.040302	-0.620890
H106	H	1.112737	-0.087721	-0.696855
H107	H	1.046342	0.011617	-0.583647
H108	H	0.993266	-0.035833	-0.659653
H109	H	0.520786	-0.095384	-0.119762
H110	H	0.266693	-0.091668	-0.119761
O111	O	0.117263	-0.089344	-0.130120
C112	C	0.036881	-0.027902	-0.206741
C113	C	0.080305	-0.028586	-0.134119
H114	H	0.006976	0.021209	-0.209992
H115	H	0.078620	-0.028473	-0.253949
H116	H	-0.007145	-0.075971	-0.210026
H117	H	0.124331	0.019475	-0.130764
H118	H	0.038520	-0.028051	-0.086946
H119	H	0.988587	0.483842	0.076982
H120	H	0.520808	-0.095390	0.119769
H121	H	1.023520	0.132545	-0.000035
O122	O	0.790806	0.322330	-0.083701
C123	C	0.772896	0.238255	-0.181052
C124	C	0.830365	0.285193	-0.134359
H125	H	0.804857	0.208229	-0.222030
H126	H	0.736775	0.199819	-0.144386
H127	H	0.734501	0.272013	-0.211339
H128	H	0.868810	0.251492	-0.104064
H129	H	0.866432	0.323634	-0.171062
H130	H	0.763985	0.680398	0.000036
H131	H	0.766084	0.548965	0.000022
O132	O	1.032233	0.270891	-0.000055
C133	C	1.169192	0.279914	-0.000029
C134	C	1.093925	0.230855	-0.000001
H135	H	1.219090	0.247564	0.000030
H136	H	1.172135	0.314247	-0.050720
H137	H	1.172068	0.314257	0.050640
H138	H	1.090999	0.196468	-0.050635
H139	H	1.091013	0.196569	0.050724
H140	H	0.771129	0.233504	-0.000001
H141	H	1.016381	0.579439	0.000004
O142	O	0.762406	0.095149	-0.000040
C143	C	0.625447	0.086131	0.000012
C144	C	0.700716	0.135188	0.000032
H145	H	0.575551	0.118483	0.000086
H146	H	0.622479	0.051819	-0.050684
H147	H	0.622593	0.051767	0.050676
H148	H	0.703620	0.169596	-0.050598
H149	H	0.703653	0.169452	0.050761
H150	H	0.976735	-0.169868	-0.195717
O151	O	0.999110	0.347830	0.083703
C152	C	1.103852	0.368215	0.167846
C153	C	1.045079	0.400965	0.121141
H154	H	1.141044	0.411160	0.198115
H155	H	1.073031	0.330489	0.208829
H156	H	1.141028	0.338745	0.131125
H157	H	1.007886	0.430471	0.157804
H158	H	1.075948	0.438652	0.080152
H159	H	0.976749	-0.169867	-0.334002
H160	H	0.976777	-0.169876	-0.665925
O161	O	0.984005	-0.176543	-0.810089
C162	C	1.074796	-0.259988	-0.802006
C163	C	1.024461	-0.213669	-0.760137
H164	H	1.107530	-0.290005	-0.761638
H165	H	1.037474	-0.298436	-0.837675
H166	H	1.116690	-0.225771	-0.837709
H167	H	0.982560	-0.247830	-0.724394
H168	H	1.061831	-0.175216	-0.724514
O169	O	0.803494	-0.010567	-0.660118
C170	C	0.712758	0.072930	-0.668201
C171	C	0.763129	0.026644	-0.710070
H172	H	0.680122	0.103038	-0.708568
H173	H	0.670788	0.038750	-0.632535
H174	H	0.750121	0.111308	-0.632494
H175	H	0.725826	-0.011741	-0.745816
H176	H	0.805103	0.060867	-0.745689
O177	O	0.759170	-0.089895	-0.575050
C178	C	0.623796	-0.086313	-0.567033
C179	C	0.698883	-0.088333	-0.525127
H180	H	0.575032	-0.085065	-0.526689
H181	H	0.628113	-0.037640	-0.602719
H182	H	0.612651	-0.134795	-0.602723
H183	H	0.710073	-0.039885	-0.489398
H184	H	0.694529	-0.137038	-0.489487
O185	O	0.759255	-0.090005	-0.424808
C186	C	0.670390	-0.148022	-0.338776
C187	C	0.745442	-0.150018	-0.380725
H188	H	0.659190	-0.196544	-0.303137
H189	H	0.674749	-0.099384	-0.303052
H190	H	0.621638	-0.146679	-0.379132
H191	H	0.794233	-0.151387	-0.340422
H192	H	0.741018	-0.198650	-0.416460
H193	H	0.810769	-0.017194	-0.804286
H194	H	0.810730	-0.017189	-0.334077
