data_functionalizedCrystal
_audit_creation_method	'MofGen! by Chris Wilmer'
_symmetry_space_group_name_H-M	'P1'
_symmetry_Int_Tables_number	1
_symmetry_cell_setting	triclinic
loop_
_symmetry_equiv_pos_as_xyz
  x,y,z
_cell_length_a	15.712078
_cell_length_b	15.625429
_cell_length_c	14.750779
_cell_angle_alpha	59.907167
_cell_angle_beta	106.492891
_cell_angle_gamma	101.022721
loop_
_atom_site_label
_atom_site_type_symbol
_atom_site_fract_x
_atom_site_fract_y
_atom_site_fract_z
O1	O	1.084597	0.539447	-0.267790
O2	O	0.838831	0.466530	-0.242365
O3	O	0.979639	0.365977	-0.207390
O4	O	0.943789	0.640000	-0.302766
O5	O	1.019444	0.337557	-0.037854
O6	O	0.878636	0.438110	-0.072830
O7	O	1.124402	0.511027	-0.098255
Zn8	Zn	1.007838	0.470056	-0.058625
Zn9	Zn	0.955394	0.507501	-0.281995
O10	O	0.983594	0.611580	-0.133230
C11	C	0.827492	0.440408	-0.153446
C12	C	0.734403	0.404903	-0.141071
C13	C	1.001865	0.315886	-0.110135
C14	C	1.008778	0.208968	-0.072927
C15	C	0.342990	0.706335	-0.246052
C16	C	0.255514	0.672958	-0.234459
C17	C	0.289614	0.505692	-0.176243
C18	C	0.377094	0.539056	-0.187836
C19	C	0.403775	0.639378	-0.222740
C20	C	0.437879	0.472099	-0.164524
C21	C	0.525352	0.505460	-0.176112
C22	C	0.552041	0.605778	-0.211011
C23	C	0.491248	0.672739	-0.234328
C24	C	0.411198	0.371776	-0.129613
C25	C	0.471983	0.304819	-0.106302
C26	C	0.559456	0.338181	-0.117896
C27	C	0.586145	0.438499	-0.152795
C28	C	0.620249	0.271220	-0.094580
C29	C	0.707723	0.304581	-0.106167
C30	C	0.673619	0.471860	-0.164383
C31	C	0.923014	-0.065226	-0.412582
C32	C	0.929514	-0.165698	-0.377586
C33	C	0.972906	-0.196667	-0.192770
C34	C	0.966414	-0.096195	-0.227750
C35	C	0.941467	-0.030482	-0.337657
C36	C	0.984867	-0.061450	-0.152826
C37	C	0.978371	0.039012	-0.187803
C38	C	0.953422	0.104730	-0.297705
C39	C	0.934971	0.069980	-0.372634
C40	C	1.009808	-0.127166	-0.042919
C41	C	1.028260	-0.092421	0.032005
C42	C	1.021771	0.008044	-0.002972
C43	C	0.996822	0.073762	-0.112874
C44	C	1.040222	0.042793	0.071957
C45	C	1.033726	0.143256	0.036980
C46	C	0.990326	0.174224	-0.147851
C47	C	1.135741	0.537149	-0.187177
C48	C	1.228828	0.572655	-0.199558
C49	C	0.961367	0.661672	-0.230487
C50	C	0.954452	0.768590	-0.267702
N51	N	1.043636	0.444502	0.093819
N52	N	0.919604	0.533050	-0.434438
C53	C	0.819629	0.604376	0.390029
C54	C	0.844720	0.586478	0.496753
C55	C	0.969425	0.497495	0.527667
C56	C	0.944342	0.515381	0.420945
C57	C	0.869444	0.568823	0.352133
C58	C	0.994157	0.479828	0.383048
C59	C	0.969079	0.497718	0.276334
C60	C	0.894186	0.551160	0.207515
C61	C	0.844366	0.586712	0.245418
C62	C	1.069059	0.426392	0.451860
C63	C	1.118874	0.390840	0.413964
C64	C	1.093793	0.408723	0.307249
C65	C	1.018899	0.462165	0.238430
C66	C	1.143612	0.373170	0.269346
C67	C	1.118534	0.391060	0.162631
C68	C	0.993821	0.480055	0.131715
H69	H	0.695343	0.553552	-0.192803
H70	H	1.089477	0.411833	0.538751
H71	H	0.598515	0.189535	-0.066148
H72	H	0.873771	0.565729	0.120620
C73	C	0.260723	0.396774	-0.138503
C74	C	0.271856	0.369065	-0.210981
C75	C	0.245262	0.268735	-0.176247
H76	H	0.199923	0.386368	-0.134946
H77	H	0.295947	0.357914	-0.069336
H78	H	0.236631	0.407913	-0.280130
H79	H	0.332649	0.379447	-0.214547
H80	H	0.280487	0.229874	-0.107079
H81	H	0.184463	0.258338	-0.172690
H82	H	0.252820	0.249919	-0.225411
C83	C	0.646973	0.641987	-0.223790
C84	C	0.664748	0.622110	-0.299012
C85	C	0.752184	0.655465	-0.310825
H86	H	0.687018	0.608761	-0.156616
H87	H	0.654177	0.711334	-0.247972
H88	H	0.657552	0.552776	-0.274826
H89	H	0.624725	0.655336	-0.366199
H90	H	0.759388	0.724812	-0.335007
H91	H	0.792221	0.622236	-0.243646
H92	H	0.764253	0.641992	-0.361871
C93	C	1.067444	-0.028419	0.191304
C94	C	1.152031	0.001941	0.233235
C95	C	1.177132	-0.063627	0.343177
H96	H	1.068745	-0.093258	0.201552
H97	H	1.025795	-0.028637	0.227196
H98	H	1.193670	0.002148	0.197355
H99	H	1.150753	0.066770	0.223016
H100	H	1.135482	-0.063844	0.379069
H101	H	1.178428	-0.128462	0.353415
H102	H	1.234522	-0.043032	0.371644
H103	H	0.970019	0.227733	-0.237349
C104	C	0.442909	0.195949	-0.068625
C105	C	0.373250	0.186547	-0.147511
C106	C	0.346454	0.086270	-0.112851
H107	H	0.423291	0.169430	-0.003798
H108	H	0.491606	0.160822	-0.056445
H109	H	0.324563	0.221661	-0.159677
H110	H	0.392847	0.213044	-0.212344
H111	H	0.395150	0.051143	-0.100671
H112	H	0.326840	0.059760	-0.048024
H113	H	0.299193	0.079877	-0.166373
H114	H	1.015087	-0.208970	-0.014443
C115	C	1.172531	0.352305	0.121541
C116	C	1.172606	0.248915	0.181899
C117	C	1.222326	0.213202	0.144041
H118	H	1.231882	0.379926	0.128314
H119	H	1.146842	0.370581	0.048141
H120	H	1.198298	0.230648	0.255281
H121	H	1.113268	0.221268	0.175132
H122	H	1.196637	0.231478	0.070641
H123	H	1.281673	0.240830	0.150816
H124	H	1.222377	0.143048	0.184981
C125	C	0.371806	0.815290	-0.283919
C126	C	0.299856	0.866792	-0.301839
C127	C	0.326373	0.967155	-0.336707
H128	H	0.391342	0.841823	-0.348800
H129	H	0.419059	0.821902	-0.230517
H130	H	0.252619	0.860186	-0.355238
H131	H	0.280311	0.840290	-0.236973
H132	H	0.373626	0.973767	-0.283305
H133	H	0.345909	0.993677	-0.401586
H134	H	0.277562	1.002110	-0.348861
C135	C	0.946267	0.213753	-0.335529
C136	C	0.882872	0.223297	-0.291402
C137	C	0.876264	0.323712	-0.326212
H138	H	0.928728	0.248014	-0.411696
H139	H	1.002331	0.241129	-0.312887
H140	H	0.826820	0.195934	-0.314050
H141	H	0.900395	0.189058	-0.215238
H142	H	0.932328	0.351089	-0.303570
H143	H	0.858728	0.357966	-0.402378
H144	H	0.833257	0.330201	-0.296269
H145	H	0.914664	0.123490	-0.462132
C146	C	0.909286	-0.203346	-0.459024
C147	C	0.821527	-0.184806	-0.517940
C148	C	0.802847	-0.219479	-0.592965
H149	H	0.916643	-0.272592	-0.422566
H150	H	0.948782	-0.170179	-0.506427
H151	H	0.782042	-0.217976	-0.470545
H152	H	0.814149	-0.115568	-0.554422
H153	H	0.842344	-0.186312	-0.640367
H154	H	0.810209	-0.288723	-0.556497
H155	H	0.743305	-0.206896	-0.632955
C156	C	0.763141	0.644911	0.170685
C157	C	0.775270	0.739605	0.162143
C158	C	0.700475	0.793246	0.093297
H159	H	0.711984	0.611452	0.198778
H160	H	0.755343	0.650539	0.101671
H161	H	0.783058	0.733973	0.231143
H162	H	0.826413	0.773091	0.134038
H163	H	0.692676	0.798874	0.024283
H164	H	0.649323	0.759779	0.121397
H165	H	0.708698	0.857504	0.087485
H166	H	0.804148	0.615435	0.527600
H167	H	0.512973	0.754432	-0.262748
H168	H	0.757215	0.250058	-0.087187
H169	H	0.339973	0.344614	-0.120168
H170	H	0.902707	-0.011717	-0.502079
C171	C	1.200072	0.332646	0.488793
C172	C	1.174450	0.247579	0.576091
C173	C	1.249221	0.193936	0.645040
H174	H	1.242087	0.372627	0.514142
H175	H	1.226149	0.313963	0.450996
H176	H	1.148386	0.266262	0.613883
H177	H	1.132446	0.207573	0.550775
H178	H	1.275299	0.175253	0.607242
H179	H	1.291232	0.233925	0.670381
H180	H	1.231847	0.136208	0.704274
C181	C	1.000137	-0.267874	-0.073424
C182	C	1.084724	-0.237503	-0.031506
C183	C	1.109837	-0.303064	0.078436
H184	H	1.001442	-0.332714	-0.063172
H185	H	0.958491	-0.268095	-0.037525
H186	H	1.126359	-0.237293	-0.067393
H187	H	1.083442	-0.172674	-0.041729
H188	H	1.068192	-0.303285	0.114334
H189	H	1.111138	-0.367900	0.088677
H190	H	1.167228	-0.282461	0.106893
C191	C	0.189383	0.745577	-0.259894
C192	C	0.117707	0.745927	-0.342150
C193	C	0.056765	0.812797	-0.365594
H194	H	0.217678	0.810151	-0.282406
H195	H	0.168356	0.726111	-0.197485
H196	H	0.138732	0.765398	-0.404546
H197	H	0.089388	0.681369	-0.319661
H198	H	0.035738	0.793331	-0.303185
H199	H	0.085068	0.877366	-0.388102
H200	H	0.008122	0.813037	-0.421400
H201	H	1.048569	-0.145938	0.121492
C202	C	1.224815	0.314985	0.344174
C203	C	1.199203	0.229918	0.431479
C204	C	1.273980	0.176287	0.500426
H205	H	1.266826	0.354974	0.369516
H206	H	1.250895	0.296304	0.306378
H207	H	1.173136	0.248601	0.469270
H208	H	1.157202	0.189905	0.406170
H209	H	1.300060	0.157605	0.462630
H210	H	1.315987	0.216284	0.525760
H211	H	1.256612	0.118559	0.559665
H212	H	1.048734	0.171540	0.097993
H213	H	0.932826	0.523564	0.075688
H214	H	0.758634	0.647885	0.334002
H215	H	1.030410	0.453985	0.583704
