data_functionalizedCrystal
_audit_creation_method	'MofGen! by Chris Wilmer'
_symmetry_space_group_name_H-M	'P1'
_symmetry_Int_Tables_number	1
_symmetry_cell_setting	triclinic
loop_
_symmetry_equiv_pos_as_xyz
  x,y,z
_cell_length_a	18.760492
_cell_length_b	20.016444
_cell_length_c	20.016444
_cell_angle_alpha	90.002955
_cell_angle_beta	120.002481
_cell_angle_gamma	119.996365
loop_
_atom_site_label
_atom_site_type_symbol
_atom_site_fract_x
_atom_site_fract_y
_atom_site_fract_z
Zr1	Zr	-0.780268	0.643587	-0.087699
O2	O	-0.928977	0.536911	-0.194381
O3	O	-0.631560	0.676287	-0.054993
O4	O	-0.780275	0.676282	-0.194377
O5	O	-0.780255	0.536922	0.054948
O6	O	-0.780281	0.786222	-0.194377
O7	O	-0.780261	0.536916	-0.054997
O8	O	-0.514256	0.786231	0.054956
O9	O	-1.046280	0.536913	-0.194385
O10	O	-0.692730	0.772282	-0.041047
O11	O	-0.692722	0.690240	0.041004
O12	O	-0.867815	0.690234	-0.123103
O13	O	-0.867806	0.608191	-0.041052
Zr14	Zr	-0.780268	0.818938	0.087650
Zr15	Zr	-0.780277	0.818928	-0.087700
Zr16	Zr	-0.780259	0.643596	0.087650
Zr17	Zr	-0.967354	0.643590	-0.087705
Zr18	Zr	-0.593182	0.818935	0.087656
O19	O	-0.928977	0.786237	0.054943
O20	O	-0.928989	0.786224	-0.194381
O21	O	-0.928964	0.536924	0.054944
O22	O	-0.631560	0.925613	0.194332
O23	O	-0.631573	0.925600	-0.054993
O24	O	-0.631547	0.676300	0.194332
O25	O	-0.780281	0.925602	-0.054997
O26	O	-0.780261	0.786243	0.194328
O27	O	-0.780255	0.676303	0.194328
O28	O	-0.780275	0.925608	0.054948
O29	O	-1.046287	0.676286	-0.194385
O30	O	-0.514249	0.786239	0.194336
O31	O	-0.514256	0.925612	0.194335
O32	O	-0.514263	0.925604	0.054956
O33	O	-1.046273	0.536920	-0.055005
O34	O	-1.046280	0.676293	-0.055005
O35	O	-0.692722	0.772291	0.123054
O36	O	-0.692730	0.854334	0.041003
O37	O	-0.867815	0.772285	-0.041053
O38	O	-0.867806	0.690242	0.040998
C39	C	-0.546252	0.731259	-0.000017
C40	C	-0.466829	0.731258	-0.000015
C41	C	-0.780257	0.511937	-0.000024
C42	C	-0.780253	0.437500	-0.000024
C43	C	-0.364889	0.791828	0.060561
C44	C	-0.494141	0.670690	-0.060593
C45	C	-0.419521	0.670689	-0.060596
C46	C	-0.317581	0.731259	-0.000019
C47	C	-0.290261	0.791830	0.060559
C48	C	-0.446835	0.610123	-0.121178
C49	C	-0.372213	0.610120	-0.121183
C50	C	-0.270271	0.670688	-0.060603
C51	C	-0.242953	0.731261	-0.000021
C52	C	-0.141013	0.791832	0.060555
C53	C	-0.113692	0.852402	0.121140
C54	C	-0.188319	0.852398	0.121140
C55	C	-0.195645	0.670692	-0.060602
C56	C	-0.066385	0.791834	0.060553
C57	C	-0.014284	0.731265	-0.000030
C58	C	-0.093705	0.731263	-0.000026
C59	C	-0.688872	0.309061	0.042810
C60	C	-0.688877	0.239116	0.042812
C61	C	-0.871671	0.153465	-0.042860
C62	C	-0.871666	0.223409	-0.042857
C63	C	-0.780263	0.301207	-0.000024
C64	C	-0.780273	0.161318	-0.000025
C65	C	-0.780278	0.085480	-0.000023
C66	C	-0.780258	0.377050	-0.000024
C67	C	-0.780279	0.731251	-0.219360
C68	C	-0.780283	0.731247	-0.293801
C69	C	-0.780279	0.950588	-0.000025
C70	C	-0.780283	1.025025	-0.000025
C71	C	-0.871664	0.688432	-0.507890
C72	C	-0.871660	0.688439	-0.577831
C73	C	-0.688865	0.774097	-0.492151
C74	C	-0.688871	0.774095	-0.422212
C75	C	-0.780273	0.731258	-0.430084
C76	C	-0.780263	0.731267	-0.569965
C77	C	-0.780258	0.731274	-0.645798
C78	C	-0.780279	0.731251	-0.354247
C79	C	-0.780257	0.731274	0.219311
C80	C	-0.780253	0.731278	0.293752
C81	C	-0.546263	0.950584	-0.000018
C82	C	-0.466844	1.025020	-0.000015
C83	C	-0.546241	0.731270	0.219318
C84	C	-0.466814	0.731273	0.293761
C85	C	-0.546252	0.950596	0.219318
C86	C	-0.466829	1.025036	0.293761
C87	C	-1.014284	0.511929	-0.219367
C88	C	-1.093707	0.437489	-0.293810
C89	C	-1.014273	0.511940	-0.000031
C90	C	-1.093692	0.437505	-0.000034
C91	C	-1.014295	0.731254	-0.219367
C92	C	-1.093722	0.731251	-0.293810
C93	C	-0.429548	1.017146	-0.042851
C94	C	-0.354936	1.087080	-0.042866
C95	C	-0.317616	1.164887	-0.000039
C96	C	-0.354919	1.172759	0.042799
C97	C	-0.429535	1.102826	0.042807
C98	C	-0.429515	0.774104	0.371558
C99	C	-0.354895	0.774104	0.441511
C100	C	-0.317572	0.731277	0.433667
C101	C	-0.354879	0.688440	0.355863
C102	C	-0.429502	0.688436	0.285911
C103	C	-0.429536	1.102826	0.285890
C104	C	-0.354920	1.172777	0.355831
C105	C	-0.317594	1.164935	0.433641
C106	C	-0.354895	1.087137	0.441510
C107	C	-0.429514	1.017188	0.371570
C108	C	-1.131010	0.359699	-0.285940
C109	C	-1.205649	0.289748	-0.355880
C110	C	-1.242979	0.297589	-0.433690
C111	C	-1.205673	0.375388	-0.441559
C112	C	-1.131040	0.445337	-0.371619
C113	C	-1.130996	0.445379	0.042795
C114	C	-1.205629	0.375445	0.042790
C115	C	-1.242952	0.297638	-0.000040
C116	C	-1.205645	0.289765	-0.042873
C117	C	-1.131018	0.359698	-0.042873
C118	C	-1.131022	0.774087	-0.285940
C119	C	-1.205642	0.774100	-0.355880
C120	C	-1.242966	0.731273	-0.433690
C121	C	-1.205658	0.688436	-0.441559
C122	C	-1.131035	0.688428	-0.371620
H123	H	0.016618	0.841156	0.109885
C124	C	-0.606273	0.604073	-0.127230
N125	N	-0.690737	0.553896	-0.177425
H126	H	-1.100647	0.353276	-0.077747
H127	H	-0.459895	0.808980	0.377960
H128	H	-0.166085	0.901712	0.170464
C129	C	-1.325069	0.220635	-0.510618
N130	N	-1.386895	0.162669	-0.568558
C131	C	-1.246738	0.384000	-0.527158
N132	N	-1.277664	0.390484	-0.591633
H133	H	-1.235992	0.381871	0.077673
C134	C	-0.313806	0.641337	0.347248
N135	N	-0.282863	0.605865	0.340761
C136	C	-1.090004	0.530905	-0.380291
N137	N	-1.059097	0.595354	-0.386828
H138	H	-0.030683	0.901721	0.170459
C139	C	-0.313862	0.821239	0.527088
N140	N	-0.282955	0.856743	0.591543
C141	C	-0.588328	0.821206	-0.483501
N142	N	-0.512601	0.856686	-0.476983
H143	H	-0.946088	0.090115	-0.077735
C144	C	-0.588339	0.247763	0.089926
N145	N	-0.512609	0.254278	0.125412
C146	C	-0.313849	1.258355	0.089912
N147	N	-0.282906	1.322828	0.125403
C148	C	-0.313894	1.258347	0.347156
N149	N	-0.282992	1.322797	0.340621
C150	C	-1.246697	0.204170	-0.089969
N151	N	-1.277611	0.139697	-0.125434
C152	C	-0.972208	0.214766	-0.089984
N153	N	-1.047934	0.208257	-0.125478
C154	C	-0.972209	0.641318	-0.516553
N155	N	-1.047943	0.605834	-0.523081
H156	H	-0.256834	1.221899	0.490583
C157	C	-0.470543	1.111502	0.089943
N158	N	-0.501425	1.118042	0.125448
C159	C	-0.470512	0.641326	0.200336
N160	N	-0.501396	0.605841	0.135882
H161	H	-0.946080	0.653568	-0.641181
C162	C	-0.588328	0.821208	-0.336618
N163	N	-0.512602	0.856693	-0.272150
C164	C	-1.246690	0.641362	-0.527158
N165	N	-1.277587	0.605916	-0.591634
H166	H	-0.256858	1.221824	-0.000052
C167	C	-0.470527	0.931620	0.380242
N168	N	-0.501415	0.867171	0.386779
H169	H	-0.459916	1.109226	0.222540
H170	H	-0.324493	1.080764	0.504872
C171	C	-1.089967	0.351053	-0.200355
N172	N	-1.059064	0.344534	-0.135894
H173	H	-0.342650	0.841141	0.109890
C174	C	-1.246669	0.204177	-0.347206
N175	N	-1.277564	0.139727	-0.340670
C176	C	-1.089960	0.530960	0.089910
N177	N	-1.059061	0.595418	0.125394
H178	H	-0.256809	0.731286	0.490633
H179	H	-1.303717	0.240701	-0.000034
H180	H	-1.100644	0.808962	-0.222590
C181	C	-1.246671	0.821222	-0.347206
N182	N	-1.277572	0.856713	-0.340671
H183	H	-1.303729	0.731286	-0.490633
H184	H	-1.100673	0.653542	-0.378039
C185	C	-0.558968	0.543511	-0.187818
N186	N	-0.643433	0.493339	-0.238015
H187	H	-0.324572	1.080654	-0.077749
C188	C	-0.402274	0.543481	-0.187817
N189	N	-0.424915	0.493283	-0.238002
H190	H	-0.614447	0.372405	0.077697
C191	C	-0.225696	0.604070	-0.127243
N192	N	-0.248336	0.553886	-0.177440
H193	H	-0.459933	0.953798	-0.077736
