data_functionalizedCrystal
_audit_creation_method	'MofGen! by Chris Wilmer'
_symmetry_space_group_name_H-M	'P1'
_symmetry_Int_Tables_number	1
_symmetry_cell_setting	triclinic
loop_
_symmetry_equiv_pos_as_xyz
  x,y,z
_cell_length_a	9.482900
_cell_length_b	9.065218
_cell_length_c	9.065218
_cell_angle_alpha	94.984115
_cell_angle_beta	80.524781
_cell_angle_gamma	80.570867
loop_
_atom_site_label
_atom_site_type_symbol
_atom_site_fract_x
_atom_site_fract_y
_atom_site_fract_z
O1	O	0.120893	-1.983090	0.193561
O2	O	0.454226	-1.649757	0.526894
O3	O	0.787560	-1.316424	0.860228
O4	O	0.120895	-1.553806	0.211307
O5	O	0.454228	-1.220473	0.544640
O6	O	0.787561	-0.887139	0.877974
O7	O	0.120891	-1.777321	-0.012208
O8	O	0.454224	-1.443987	0.321126
O9	O	0.787557	-1.110654	0.654459
O10	O	0.120897	-1.759575	0.417076
O11	O	0.454230	-1.426242	0.750409
O12	O	0.787563	-1.092909	1.083743
O13	O	-0.120901	-1.731922	0.033378
O14	O	0.212432	-1.398589	0.366711
O15	O	0.545766	-1.065256	0.700044
O16	O	-0.120897	-1.508407	0.256893
O17	O	0.212436	-1.175074	0.590226
O18	O	0.545769	-0.841741	0.923559
O19	O	-0.120899	-1.937692	0.239147
O20	O	0.212435	-1.604359	0.572480
O21	O	0.545768	-1.271025	0.905813
Cu22	Cu	-0.142975	-1.718904	0.252182
Cu23	Cu	0.190358	-1.385571	0.585515
Cu24	Cu	0.523691	-1.052238	0.918849
Cu25	Cu	0.142971	-1.772593	0.198272
Cu26	Cu	0.476305	-1.439260	0.531605
Cu27	Cu	0.809638	-1.105927	0.864938
O28	O	-0.120895	-1.714177	0.462661
O29	O	0.212438	-1.380844	0.795995
O30	O	0.545772	-1.047510	1.129328
C31	C	-0.000001	-1.476120	0.232394
C32	C	0.333332	-1.142787	0.565728
C33	C	0.666666	-0.809453	0.899061
C34	C	-0.000000	-1.312277	0.227295
C35	C	0.333333	-0.978944	0.560628
C36	C	0.666666	-0.645611	0.893961
N37	N	-0.344095	-1.681153	0.290099
N38	N	-0.010762	-1.347820	0.623432
N39	N	0.322572	-1.014487	0.956765
C40	C	-0.000003	-1.752916	-0.044402
C41	C	0.333331	-1.419583	0.288931
C42	C	0.666664	-1.086250	0.622265
C43	C	0.000004	-1.747818	-0.208246
C44	C	0.333338	-1.414485	0.125087
C45	C	0.666671	-1.081151	0.458420
C46	C	-0.416296	-1.761448	0.209448
C47	C	-0.082962	-1.428115	0.542781
C48	C	0.250371	-1.094781	0.876114
C49	C	-0.583712	-1.730049	0.241007
C50	C	-0.250379	-1.396716	0.574340
C51	C	0.082954	-1.063383	0.907673
N52	N	0.344091	-1.810356	0.160343
N53	N	0.677424	-1.477023	0.493677
N54	N	1.010757	-1.143689	0.827010
C55	C	0.000000	-2.015378	0.218059
C56	C	0.333333	-1.682045	0.551392
C57	C	0.666667	-1.348712	0.884725
C58	C	0.000009	-2.179223	0.223157
C59	C	0.333342	-1.845890	0.556490
C60	C	0.666676	-1.512556	0.889823
C61	C	0.000002	-1.738582	0.494855
C62	C	0.333335	-1.405249	0.828188
C63	C	0.666668	-1.071915	1.161522
C64	C	0.000004	-1.743682	0.658698
C65	C	0.333338	-1.410349	0.992031
C66	C	0.666671	-1.077015	1.325364
H67	H	-0.354169	-1.853432	0.117029
H68	H	-0.020836	-1.520099	0.450362
H69	H	0.312498	-1.186765	0.783696
H70	H	-0.593786	-1.902346	0.067919
H71	H	-0.260453	-1.569012	0.401253
H72	H	0.072880	-1.235679	0.734586
H73	H	-0.645835	-1.638049	0.333420
H74	H	-0.312502	-1.304716	0.666753
H75	H	0.020831	-0.971382	1.000086
H76	H	-0.406223	-1.589159	0.382506
H77	H	-0.072890	-1.255826	0.715839
H78	H	0.260443	-0.922492	1.049173
