data_functionalizedCrystal
_audit_creation_method	'MofGen! by Chris Wilmer'
_symmetry_space_group_name_H-M	'P1'
_symmetry_Int_Tables_number	1
_symmetry_cell_setting	triclinic
loop_
_symmetry_equiv_pos_as_xyz
  x,y,z
_cell_length_a	13.032831
_cell_length_b	16.625545
_cell_length_c	13.032268
_cell_angle_alpha	97.146495
_cell_angle_beta	90.886977
_cell_angle_gamma	82.830132
loop_
_atom_site_label
_atom_site_type_symbol
_atom_site_fract_x
_atom_site_fract_y
_atom_site_fract_z
Zn1	Zn	1.498388	-0.544519	-0.780799
Zn2	Zn	1.998388	-0.044519	-0.280799
Zn3	Zn	1.520110	-0.664649	-0.608812
Zn4	Zn	2.020110	-0.164649	-0.108812
Zn5	Zn	1.348252	-0.510837	-0.587043
Zn6	Zn	1.848252	-0.010837	-0.087043
Zn7	Zn	1.326359	-0.660290	-0.758937
Zn8	Zn	1.826359	-0.160290	-0.258937
O9	O	1.423278	-0.595074	-0.683898
O10	O	1.923278	-0.095074	-0.183898
O11	O	1.645188	-0.576375	-0.776245
O12	O	2.145188	-0.076375	-0.276245
O13	O	1.515566	-0.631974	-0.462008
O14	O	2.015566	-0.131974	0.037992
O15	O	1.368240	-0.402483	-0.612784
O16	O	1.868240	0.097517	-0.112784
O17	O	1.661147	-0.664634	-0.649886
O18	O	2.161147	-0.164634	-0.149886
O19	O	1.478544	-0.427229	-0.755136
O20	O	1.978544	0.072771	-0.255136
O21	O	1.389303	-0.518968	-0.446014
O22	O	1.889303	-0.018968	0.053986
O23	O	1.201430	-0.514741	-0.591585
O24	O	1.701430	-0.014741	-0.091585
O25	O	1.330926	-0.657204	-0.905753
O26	O	1.830926	-0.157204	-0.405753
O27	O	1.185345	-0.624544	-0.717875
O28	O	1.685345	-0.124544	-0.217875
O29	O	1.457315	-0.572148	-0.921815
O30	O	1.957315	-0.072148	-0.421815
O31	O	1.494338	-0.776892	-0.628687
O32	O	1.994338	-0.276892	-0.128687
O33	O	1.351989	-0.773690	-0.738984
O34	O	1.851989	-0.273690	-0.238984
C35	C	1.156071	-0.565515	-0.649996
C36	C	1.656071	-0.065515	-0.149996
C37	C	1.041756	-0.552891	-0.635517
C38	C	1.541756	-0.052891	-0.135517
C39	C	0.982872	-0.601662	-0.691454
C40	C	1.482872	-0.101662	-0.191454
C41	C	0.864721	-0.588616	-0.676491
C42	C	1.364721	-0.088616	-0.176491
C43	C	1.423170	-0.804549	-0.683851
C44	C	1.923170	-0.304549	-0.183851
C45	C	1.423214	-0.894177	-0.683878
C46	C	1.923214	-0.394177	-0.183878
C47	C	1.423251	-0.966966	-0.683903
C48	C	1.923251	-0.466966	-0.183903
C49	C	1.423308	-1.058283	-0.683933
C50	C	1.923308	-0.558283	-0.183933
C51	C	1.423360	-1.131066	-0.683953
C52	C	1.923360	-0.631066	-0.183953
C53	C	1.423416	-1.222389	-0.683982
C54	C	1.923416	-0.722389	-0.183982
C55	C	1.691527	-0.624748	-0.717932
C56	C	2.191527	-0.124748	-0.217932
C57	C	1.805839	-0.637394	-0.732436
C58	C	2.305839	-0.137394	-0.232436
C59	C	1.389256	-0.617947	-0.952143
C60	C	1.889256	-0.117947	-0.452143
C61	C	1.374757	-0.627694	-1.066454
C62	C	1.874757	-0.127694	-0.566454
C63	C	1.423411	-0.384785	-0.683971
C64	C	1.923411	0.115215	-0.183971
C65	C	1.423468	-0.295172	-0.684002
C66	C	1.923468	0.204828	-0.184002
C67	C	1.430828	-0.589956	-1.125364
C68	C	1.930828	-0.089956	-0.625364
C69	C	1.415845	-0.600029	-1.243510
C70	C	1.915845	-0.100029	-0.743510
C71	C	1.457226	-0.572238	-0.416703
C72	C	1.957226	-0.072238	0.083297
C73	C	1.471924	-0.562285	-0.302419
C74	C	1.971924	-0.062285	0.197581
H75	H	0.827668	-0.537197	-0.617524
H76	H	1.327668	-0.037197	-0.117524
C77	C	1.294919	-0.681417	-1.116465
C78	C	1.794919	-0.181417	-0.616465
H79	H	1.261678	-0.703783	-1.064183
H80	H	1.761678	-0.203783	-0.564183
H81	H	1.328959	-0.724443	-1.163355
H82	H	1.828959	-0.224443	-0.663355
H83	H	1.244847	-0.649159	-1.152694
H84	H	1.744847	-0.149159	-0.652694
H85	H	1.489921	-0.550185	-1.088332
H86	H	1.989921	-0.050185	-0.588332
H87	H	0.842890	-0.688806	-0.791414
H88	H	1.342890	-0.188806	-0.291414
C89	C	1.032923	-0.671117	-0.771117
C90	C	1.532923	-0.171117	-0.271117
H91	H	1.105769	-0.670777	-0.770719
H92	H	1.605769	-0.170777	-0.270719
H93	H	1.006619	-0.663374	-0.838038
H94	H	1.506619	-0.163374	-0.338038
H95	H	1.017271	-0.722056	-0.753727
H96	H	1.517271	-0.222056	-0.253727
H97	H	1.004698	-0.501476	-0.576554
H98	H	1.504698	-0.001476	-0.076554
H99	H	1.356737	-0.639793	-1.280536
H100	H	1.856737	-0.139793	-0.780536
C101	C	1.551765	-0.508559	-1.252410
C102	C	2.051765	-0.008559	-0.752410
H103	H	1.551368	-0.508839	-1.179564
H104	H	2.051368	-0.008839	-0.679564
H105	H	1.534540	-0.454211	-1.268076
H106	H	2.034540	0.045789	-0.768076
H107	H	1.618651	-0.529495	-1.278727
H108	H	2.118651	-0.029495	-0.778727
