data_functionalizedCrystal
_audit_creation_method	'MofGen! by Chris Wilmer'
_symmetry_space_group_name_H-M	'P1'
_symmetry_Int_Tables_number	1
_symmetry_cell_setting	triclinic
loop_
_symmetry_equiv_pos_as_xyz
  x,y,z
_cell_length_a	29.839131
_cell_length_b	12.759401
_cell_length_c	12.759393
_cell_angle_alpha	90.020842
_cell_angle_beta	89.962110
_cell_angle_gamma	89.958164
loop_
_atom_site_label
_atom_site_type_symbol
_atom_site_fract_x
_atom_site_fract_y
_atom_site_fract_z
Zn1	Zn	-0.178822	-1.606060	-0.594001
Zn2	Zn	-0.253960	-1.605873	-0.418302
Zn3	Zn	-0.178846	-1.430362	-0.418333
Zn4	Zn	-0.253926	-1.430269	-0.593936
O5	O	-0.216389	-1.518141	-0.506143
O6	O	-0.188793	-1.753056	-0.570708
O7	O	-0.244021	-1.582551	-0.271285
O8	O	-0.115975	-1.453787	-0.441676
O9	O	-0.243997	-1.752919	-0.441622
O10	O	-0.115958	-1.582871	-0.570739
O11	O	-0.188834	-1.453605	-0.271308
O12	O	-0.188801	-1.283329	-0.441613
O13	O	-0.243939	-1.453628	-0.740966
O14	O	-0.243962	-1.283260	-0.570628
O15	O	-0.188760	-1.582781	-0.741013
O16	O	-0.316823	-1.582461	-0.441559
O17	O	-0.316798	-1.453446	-0.570597
C18	C	-0.216381	-1.245174	-0.506117
C19	C	-0.216388	-1.128397	-0.506131
C20	C	-0.187692	-0.963888	-0.573458
C21	C	-0.187692	-1.073612	-0.573449
C22	C	-0.245090	-1.073453	-0.438825
C23	C	-0.245092	-0.963731	-0.438840
C24	C	-0.154553	-0.963981	-0.651179
C25	C	-0.154552	-1.073705	-0.651170
C26	C	-0.333111	-1.517951	-0.506091
C27	C	-0.383046	-1.517966	-0.506104
C28	C	-0.692689	-1.585442	-0.439051
C29	C	-0.880362	-1.585571	-0.439092
O30	O	-0.904628	-1.642791	-0.382041
N31	N	-0.903831	-1.518359	-0.506222
C32	C	-0.880378	-1.451114	-0.573352
O33	O	-0.904645	-1.393957	-0.630459
C34	C	-0.692705	-1.450991	-0.573316
C35	C	-0.669240	-1.518200	-0.506173
C36	C	-0.669224	-1.652646	-0.371915
C37	C	-0.622308	-1.652609	-0.371902
C38	C	-0.598858	-1.585367	-0.439024
C39	C	-0.622324	-1.518163	-0.506160
C40	C	-0.669253	-1.383752	-0.640450
C41	C	-0.622332	-1.383729	-0.640437
C42	C	-0.598867	-1.450938	-0.573294
C43	C	-0.551959	-1.450884	-0.573269
N44	N	-0.528491	-1.518096	-0.506138
C45	C	-0.551941	-1.585338	-0.439016
C46	C	-0.978908	-1.451183	-0.573365
C47	C	-1.025826	-1.451212	-0.573373
C48	C	-1.025808	-1.585670	-0.439114
C49	C	-0.978889	-1.585635	-0.439101
C50	C	-0.955440	-1.518395	-0.506234
C51	C	-0.453415	-1.585254	-0.438992
C52	C	-0.406495	-1.585208	-0.438981
C53	C	-0.406518	-1.450754	-0.573244
C54	C	-0.453433	-1.450796	-0.573251
C55	C	-0.476881	-1.518054	-0.506121
O56	O	-0.527665	-1.393703	-0.630297
O57	O	-0.527665	-1.642503	-0.381934
C58	C	-0.739605	-1.585479	-0.439065
C59	C	-0.763071	-1.518274	-0.506200
C60	C	-0.739621	-1.451033	-0.573323
C61	C	-0.809988	-1.518304	-0.506208
C62	C	-0.833438	-1.585545	-0.439086
C63	C	-0.809970	-1.652757	-0.371956
C64	C	-0.763054	-1.652720	-0.371942
C65	C	-0.763089	-1.383820	-0.640453
C66	C	-0.810005	-1.383862	-0.640460
C67	C	-0.833454	-1.451104	-0.573338
C68	C	-0.099210	-1.518360	-0.506218
C69	C	-0.049276	-1.518454	-0.506250
C70	C	-0.216343	-1.518215	-0.780176
C71	C	-0.216324	-1.518246	-0.896953
C72	C	-0.216394	-0.792174	-0.506163
C73	C	-0.216390	-0.908951	-0.506155
C74	C	-0.187590	-1.585505	-0.951842
C75	C	-0.187573	-1.585530	-1.061566
C76	C	-0.245030	-1.451034	-1.061503
C77	C	-0.245043	-1.451004	-0.951781
C78	C	-0.154419	-1.663159	-0.951879
C79	C	-0.154403	-1.663184	-1.061603
C80	C	-0.216401	-1.518128	-0.233175
C81	C	-0.216294	-1.518301	-0.116399
H82	H	-0.121487	-0.929987	-0.622179
C83	C	-0.276656	-1.133720	-0.364776
N84	N	-0.300432	-1.179113	-0.308997
C85	C	-0.953120	-1.377236	-0.647249
N86	N	-0.933699	-1.321546	-0.702908
C87	C	-0.695011	-1.726618	-0.298063
N88	N	-0.714431	-1.782332	-0.242425
C89	C	-0.276619	-1.377070	-1.121824
N90	N	-0.300412	-1.321359	-1.167257
C91	C	-0.167201	-0.923784	-0.761052
N92	N	-0.176730	-0.893508	-0.843806
H93	H	-0.688351	-1.329018	-0.695119
C94	C	-0.109736	-1.623952	-1.107616
N95	N	-0.076092	-1.594414	-1.142274
C96	C	-0.596541	-1.309758	-0.714291
N97	N	-0.577117	-1.254041	-0.769916
C98	C	-0.171440	-1.119707	-0.755516
N99	N	-0.184162	-1.154357	-0.834105
C100	C	-0.380686	-1.659141	-0.365112
N101	N	-0.361248	-1.714826	-0.309474
C102	C	-0.107534	-1.114001	-0.621913
N103	N	-0.072121	-1.144352	-0.599873
H104	H	-0.472500	-1.640025	-0.384331
H105	H	-0.387418	-1.396003	-0.627891
C106	C	-0.596502	-1.726536	-0.298031
N107	N	-0.577068	-1.782220	-0.242384
C108	C	-0.737301	-1.309873	-0.714326
N109	N	-0.717879	-1.254179	-0.769978
H110	H	-0.959786	-1.640363	-0.384429
H111	H	-1.044908	-1.640422	-0.384460
H112	H	-1.044928	-1.396474	-0.628037
H113	H	-0.166891	-1.740417	-0.917843
H114	H	-0.472540	-1.396072	-0.627927
C115	C	-0.166996	-1.773093	-1.101838
N116	N	-0.176482	-1.855872	-1.132143
H117	H	-0.829106	-1.329123	-0.695135
C118	C	-0.835774	-1.726722	-0.298120
N119	N	-0.855211	-1.782433	-0.242514
H120	H	-0.268440	-1.396232	-0.907095
H121	H	-0.268465	-0.919005	-0.384044
H122	H	-0.743952	-1.707448	-0.317269
H123	H	-0.119627	-1.641428	-0.922131
