data_functionalizedCrystal
_audit_creation_method	'MofGen! by Chris Wilmer'
_symmetry_space_group_name_H-M	'P1'
_symmetry_Int_Tables_number	1
_symmetry_cell_setting	triclinic
loop_
_symmetry_equiv_pos_as_xyz
  x,y,z
_cell_length_a	22.010155
_cell_length_b	11.792241
_cell_length_c	11.792241
_cell_angle_alpha	84.193416
_cell_angle_beta	90.004139
_cell_angle_gamma	89.995687
loop_
_atom_site_label
_atom_site_type_symbol
_atom_site_fract_x
_atom_site_fract_y
_atom_site_fract_z
O1	O	0.050466	-1.506917	-0.155552
O2	O	0.050481	-1.176576	-0.171585
O3	O	0.050469	-1.349763	0.001602
O4	O	0.050478	-1.333730	-0.328739
O5	O	-0.050581	-1.349731	0.001576
O6	O	-0.050570	-1.176544	-0.171611
O7	O	-0.050584	-1.506885	-0.155578
Cu8	Cu	-0.059804	-1.341712	-0.163597
Cu9	Cu	0.059700	-1.341749	-0.163566
O10	O	-0.050572	-1.333698	-0.328765
C11	C	-0.000043	-1.134269	-0.170591
C12	C	-0.000038	-1.008255	-0.167576
C13	C	-0.000056	-1.348740	0.043880
C14	C	-0.000055	-1.345726	0.169894
N15	N	-0.143856	-1.341694	-0.163618
C16	C	-0.563641	-1.418441	-0.086890
C17	C	-0.627248	-1.418446	-0.086882
O18	O	-0.660144	-1.483654	-0.021660
N19	N	-0.659063	-1.341748	-0.163542
C20	C	-0.627267	-1.265033	-0.240208
O21	O	-0.660169	-1.199795	-0.305412
C22	C	-0.563661	-1.265023	-0.240209
C23	C	-0.531849	-1.341734	-0.163552
C24	C	-0.531829	-1.495145	-0.010238
C25	C	-0.468226	-1.495140	-0.010247
C26	C	-0.436434	-1.418433	-0.086909
C27	C	-0.468246	-1.341729	-0.163561
C28	C	-0.531866	-1.188303	-0.316868
C29	C	-0.468255	-1.188299	-0.316862
C30	C	-0.436444	-1.265009	-0.240205
C31	C	-0.372851	-1.265018	-0.240232
N32	N	-0.341036	-1.341716	-0.163572
C33	C	-0.372828	-1.418423	-0.086910
C34	C	-0.760845	-1.265058	-0.240198
C35	C	-0.824450	-1.265072	-0.240203
C36	C	-0.824427	-1.418485	-0.086875
C37	C	-0.760820	-1.418475	-0.086877
C38	C	-0.729030	-1.341756	-0.163537
C39	C	-0.239256	-1.418409	-0.086937
C40	C	-0.175648	-1.418402	-0.086956
C41	C	-0.175676	-1.264986	-0.240279
C42	C	-0.239280	-1.264997	-0.240264
C43	C	-0.271068	-1.341713	-0.163583
O44	O	-0.339915	-1.199840	-0.305418
O45	O	-0.339918	-1.483640	-0.021707
N46	N	0.143753	-1.341776	-0.163536
C47	C	-0.000059	-1.549192	-0.156572
C48	C	-0.000061	-1.675206	-0.159587
C49	C	-0.000055	-0.777543	-0.162034
C50	C	-0.000045	-0.905928	-0.165113
C51	C	-0.000046	-1.334721	-0.371043
C52	C	-0.000043	-1.337736	-0.497057
C53	C	-0.000045	-1.340183	0.400606
C54	C	-0.000051	-1.343262	0.272221
H55	H	-0.265131	-1.480877	-0.024495
H56	H	-0.557758	-1.125837	-0.379288
H57	H	-0.442374	-1.125821	-0.379287
H58	H	-0.265181	-1.202543	-0.302696
H59	H	-0.149782	-1.202534	-0.302699
H60	H	-0.149748	-1.480873	-0.024532
N61	N	-0.566110	-1.577906	0.072438
H62	H	-0.555036	-1.564362	0.153088
H63	H	-0.555006	-1.658485	0.058694
N64	N	-0.726556	-1.182324	-0.322901
H65	H	-0.700167	-1.131797	-0.279198
H66	H	-0.756402	-1.133821	-0.371443
N67	N	-0.433919	-1.577874	0.072438
H68	H	-0.463718	-1.626459	0.121000
H69	H	-0.407530	-1.534115	0.122911
N70	N	-0.726512	-1.501211	-0.004198
H71	H	-0.756309	-1.549804	0.044361
H72	H	-0.700124	-1.457455	0.046280
H73	H	-0.850323	-1.480943	-0.024452
H74	H	-0.850347	-1.202619	-0.302636
