data_functionalizedCrystal
_audit_creation_method	'MofGen! by Chris Wilmer'
_symmetry_space_group_name_H-M	'P1'
_symmetry_Int_Tables_number	1
_symmetry_cell_setting	triclinic
loop_
_symmetry_equiv_pos_as_xyz
  x,y,z
_cell_length_a	19.121141
_cell_length_b	19.121405
_cell_length_c	19.120904
_cell_angle_alpha	89.925587
_cell_angle_beta	89.913687
_cell_angle_gamma	85.044044
loop_
_atom_site_label
_atom_site_type_symbol
_atom_site_fract_x
_atom_site_fract_y
_atom_site_fract_z
Zn1	Zn	-1.070062	0.343625	-0.428078
Zn2	Zn	-1.079971	0.456301	-0.306245
Zn3	Zn	-0.957388	0.333632	-0.306266
Zn4	Zn	-0.957762	0.455827	-0.418463
O5	O	-1.016296	0.397346	-0.364763
O6	O	-1.169675	0.362952	-0.415932
O7	O	-1.067701	0.436045	-0.208306
O8	O	-0.968031	0.236662	-0.326458
O9	O	-1.176956	0.445735	-0.326422
O10	O	-1.050812	0.244004	-0.415953
O11	O	-0.977640	0.345920	-0.208321
O12	O	-0.859139	0.345461	-0.317134
O13	O	-0.968668	0.444927	-0.517681
O14	O	-0.859413	0.435237	-0.399564
O15	O	-1.051174	0.362492	-0.524745
O16	O	-1.068063	0.554533	-0.317098
O17	O	-0.978277	0.554185	-0.399544
C18	C	-0.833788	0.389214	-0.357308
C19	C	-0.755710	0.385752	-0.354135
C20	C	-1.024304	0.579847	-0.357291
C21	C	-1.027794	0.657926	-0.354121
C22	C	-0.719196	0.430932	-0.395488
C23	C	-0.645834	0.427671	-0.392510
C24	C	-0.608986	0.379232	-0.348175
C25	C	-0.645505	0.334046	-0.306821
C26	C	-0.718866	0.337305	-0.309803
C27	C	-0.387475	0.367048	-0.337032
C28	C	-0.314109	0.363794	-0.334051
C29	C	-0.314442	0.457418	-0.419742
C30	C	-0.387805	0.460675	-0.422717
C31	C	-0.424317	0.415487	-0.381365
C32	C	-0.533998	0.375898	-0.345129
C33	C	-0.499304	0.418818	-0.384416
C34	C	-0.199516	0.405507	-0.372239
C35	C	-0.277595	0.408974	-0.375404
C36	C	-0.982657	0.694448	-0.395518
C37	C	-0.985938	0.767811	-0.392536
C38	C	-1.034361	0.804651	-0.348161
C39	C	-1.079500	0.768123	-0.306759
C40	C	-1.076214	0.694761	-0.309737
C41	C	-1.046619	1.026164	-0.337019
C42	C	-1.049903	1.099532	-0.334045
C43	C	-0.956340	1.099215	-0.419822
C44	C	-0.953061	1.025852	-0.422800
C45	C	-0.998198	0.989330	-0.381395
C46	C	-1.037718	0.879640	-0.345113
C47	C	-0.994837	0.914342	-0.384439
C48	C	-1.008857	0.404771	-0.547318
C49	C	-1.005687	0.407935	-0.625112
C50	C	-1.008252	1.214133	-0.372270
C51	C	-1.004766	1.136054	-0.375442
C52	C	-1.047153	0.366505	-0.665339
C53	C	-1.044165	0.369475	-0.738435
C54	C	-0.999716	0.413880	-0.771302
C55	C	-0.958247	0.455312	-0.731070
C56	C	-0.961230	0.452338	-0.657976
C57	C	-0.988555	0.425003	-0.991815
C58	C	-0.985575	0.427976	-1.064915
C59	C	-1.071494	0.342137	-1.072275
C60	C	-1.074477	0.339170	-0.999179
C61	C	-1.033004	0.380600	-0.958953
C62	C	-0.996664	0.416918	-0.846018
C63	C	-1.036054	0.377557	-0.884239
C64	C	-1.023743	0.389901	-0.182922
C65	C	-1.027041	0.386545	-0.105142
H66	H	-0.749192	0.470379	-0.431588
H67	H	-0.284706	0.494206	-0.453410
O68	O	-1.120132	0.659391	-0.269499
C69	C	-1.163564	0.707634	-0.229679
H70	H	-1.167151	0.761188	-0.256327
H71	H	-1.218265	0.688546	-0.225377
H72	H	-1.140398	0.712179	-0.175137
O73	O	-0.920937	0.492663	-0.619001
C74	C	-0.881056	0.532486	-0.663683
H75	H	-0.907804	0.538312	-0.716867
H76	H	-0.876859	0.586639	-0.639988
H77	H	-0.826259	0.504710	-0.670323
H78	H	-0.615498	0.294603	-0.270725
H79	H	-1.110674	0.303013	-0.972424
H80	H	-0.955408	0.884345	-0.420567
O81	O	-0.754232	0.293391	-0.269558
C82	C	-0.705979	0.249928	-0.229798
H83	H	-0.655048	0.276271	-0.224026
H84	H	-0.729078	0.241050	-0.175836
H85	H	-0.694795	0.197318	-0.257379
H86	H	-1.077145	0.909642	-0.308983
H87	H	-0.943229	0.664459	-0.431657
O88	O	-0.610289	0.471588	-0.432574
C89	C	-0.571474	0.513390	-0.389066
H90	H	-0.561544	0.485883	-0.336639
H91	H	-0.519145	0.521715	-0.415073
H92	H	-0.602345	0.566373	-0.380305
O93	O	-1.084412	0.329125	-0.777432
C94	C	-1.066714	0.257707	-0.761819
H95	H	-1.041810	0.252895	-0.707704
H96	H	-1.116136	0.228370	-0.762678
H97	H	-1.027888	0.234105	-0.802450
O98	O	-0.278280	0.316822	-0.290920
C99	C	-0.239409	0.353001	-0.242298
H100	H	-0.264131	0.409114	-0.236489
H101	H	-0.239616	0.325262	-0.189497
H102	H	-0.183048	0.353882	-0.261591
O103	O	-1.090234	0.323324	-0.633337
C104	C	-1.049976	0.274443	-0.591297
H105	H	-0.998276	0.296402	-0.577149
H106	H	-1.080275	0.264208	-0.541456
H107	H	-1.038825	0.223193	-0.621291
H108	H	-0.417801	0.500121	-0.458818
O109	O	-1.111703	0.301914	-1.111455
C110	C	-1.099554	0.314071	-1.183018
H111	H	-1.045944	0.335068	-1.189840
H112	H	-1.100879	0.262798	-1.213150
H113	H	-1.142013	0.354175	-1.203931
H114	H	-0.417195	0.330258	-0.303354
O115	O	-0.905952	0.990174	-0.465912
C116	C	-0.866823	1.038143	-0.501821
H117	H	-0.867933	1.089182	-0.470934
H118	H	-0.810221	1.014837	-0.507828
H119	H	-0.890675	1.049199	-0.555738
H120	H	-1.083372	0.996434	-0.303307
H121	H	-0.949177	0.797544	-0.426240
O122	O	-0.942333	0.471127	-1.096732
C123	C	-0.906380	0.507070	-1.045554
H124	H	-0.904811	0.476071	-0.994531
H125	H	-0.850502	0.512953	-1.064107
H126	H	-0.934754	0.561248	-1.036641
H127	H	-0.529307	0.458254	-0.420517
O128	O	-0.948371	0.465287	-0.952679
C129	C	-0.992065	0.510737	-0.910181
H130	H	-1.044661	0.487893	-0.902410
H131	H	-0.965951	0.516789	-0.857231
H132	H	-1.000916	0.564278	-0.936536
O133	O	-1.096967	1.135380	-0.291005
C134	C	-1.142574	1.181443	-0.330976
H135	H	-1.143712	1.161740	-0.387172
H136	H	-1.197695	1.183662	-0.307820
H137	H	-1.123196	1.236172	-0.330255
H138	H	-0.919592	1.128959	-0.453530
O139	O	-1.079326	0.334465	-0.852394
C140	C	-1.149283	0.353677	-0.872469
H141	H	-1.149759	0.382899	-0.924494
H142	H	-1.178464	0.304490	-0.878331
H143	H	-1.176195	0.389176	-0.830816
O144	O	-0.498281	0.328883	-0.301967
C145	C	-0.519679	0.342091	-0.232283
H146	H	-0.574194	0.371389	-0.231836
H147	H	-0.521215	0.290185	-0.203159
H148	H	-0.480932	0.375379	-0.205504
H149	H	-0.922053	0.491465	-0.757836
H150	H	-1.118924	0.798123	-0.270624
O151	O	-0.953388	0.459977	-0.877912
C152	C	-0.883435	0.440796	-0.857803
H153	H	-0.878247	0.383706	-0.839864
H154	H	-0.847035	0.447255	-0.904205
H155	H	-0.868455	0.475914	-0.813080
