data_functionalizedCrystal
_audit_creation_method	'MofGen! by Chris Wilmer'
_symmetry_space_group_name_H-M	'P1'
_symmetry_Int_Tables_number	1
_symmetry_cell_setting	triclinic
loop_
_symmetry_equiv_pos_as_xyz
  x,y,z
_cell_length_a	15.995350
_cell_length_b	15.995350
_cell_length_c	14.472311
_cell_angle_alpha	89.997596
_cell_angle_beta	89.994208
_cell_angle_gamma	96.507625
loop_
_atom_site_label
_atom_site_type_symbol
_atom_site_fract_x
_atom_site_fract_y
_atom_site_fract_z
O1	O	0.107916	-1.110989	0.076758
O2	O	0.121244	-0.867213	0.076776
O3	O	-0.007308	-0.995765	0.076766
O4	O	0.236468	-0.982437	0.076769
O5	O	-0.007291	-0.995747	-0.076916
O6	O	0.121261	-0.867196	-0.076906
O7	O	0.107933	-1.110971	-0.076924
Cu8	Cu	0.114598	-0.989082	-0.090947
Cu9	Cu	0.114578	-0.989103	0.090800
O10	O	0.236484	-0.982420	-0.076913
C11	C	0.120701	-0.836010	-0.000062
C12	C	0.119049	-0.743060	-0.000055
C13	C	-0.038494	-0.995205	-0.000073
C14	C	-0.131444	-0.993553	-0.000068
N15	N	0.114612	-0.989074	-0.218778
C16	C	-0.469192	-0.987621	-0.000071
C17	C	-0.421758	-0.896069	0.000281
C18	C	-0.325068	-0.897721	-0.000066
C19	C	-0.301631	-0.990564	-0.000069
C20	C	-0.342699	-1.035710	-0.087831
C21	C	-0.439335	-1.033411	-0.087904
C22	C	-0.439712	-1.035321	0.086861
C23	C	-0.342767	-1.035300	0.088021
C24	C	-0.206934	-0.992231	-0.000071
C25	C	-0.563890	-0.985956	-0.000075
C26	C	0.267671	-0.982980	-0.000072
C27	C	0.360621	-0.984631	-0.000071
C28	C	0.108476	-1.142175	-0.000083
C29	C	0.110127	-1.235125	-0.000084
C30	C	0.113117	-0.405312	-0.000074
C31	C	0.021565	-0.452746	-0.000418
C32	C	0.023217	-0.549436	-0.000065
C33	C	0.116060	-0.572873	-0.000065
C34	C	0.161206	-0.531795	0.087692
C35	C	0.158907	-0.435160	0.087759
C36	C	0.160817	-0.434801	-0.087007
C37	C	0.160796	-0.531746	-0.088160
C38	C	0.117727	-0.667570	-0.000057
C39	C	0.111452	-0.310614	-0.000076
C40	C	0.114593	-0.989089	-0.407278
C41	C	0.183354	-0.920292	-0.446503
C42	C	0.183166	-0.920056	-0.553591
C43	C	0.114577	-0.989103	-0.592869
C44	C	0.027106	-0.970378	-0.553978
C45	C	0.027519	-0.969876	-0.446857
C46	C	0.132515	-1.076821	-0.446744
C47	C	0.134490	-1.076241	-0.553872
C48	C	0.114562	-0.989113	-0.697757
C49	C	0.114603	-0.989077	-0.302390
N50	N	0.114558	-0.989117	0.218631
H51	H	-0.296653	-0.862232	0.062846
C52	C	0.253352	-0.550882	0.092107
N53	N	0.322756	-0.565260	0.095431
H54	H	-0.440297	-0.859484	0.063217
C55	C	0.118822	-0.570130	0.175925
N56	N	0.086892	-0.599002	0.242380
C57	C	0.167641	-0.832100	-0.588233
N58	N	0.155946	-0.765848	-0.614324
C59	C	0.168049	-0.832820	-0.410171
N60	N	0.156515	-0.766936	-0.382809
H61	H	-0.460259	-1.005396	0.153379
H62	H	0.228318	-0.403040	-0.087600
H63	H	0.198846	-1.090450	-0.579277
C64	C	0.120386	-0.407057	-0.176870
N65	N	0.089924	-0.386163	-0.244550
C66	C	-0.448193	-0.846853	-0.084281
N67	N	-0.468096	-0.809789	-0.147981
H68	H	-0.015023	-0.434217	-0.063352
C69	C	0.249709	-0.391592	0.093159
N70	N	0.318100	-0.358781	0.097236
H71	H	0.011778	-0.905904	-0.421883
H72	H	-0.327406	-1.103005	0.093317
H73	H	0.125969	-0.416859	0.153359
H74	H	0.127839	-0.559056	-0.153082
C75	C	0.064784	-1.145981	-0.412463
N76	N	0.013767	-1.198067	-0.386636
H77	H	-0.471473	-1.102822	0.087449
H78	H	-0.012271	-0.577858	-0.062973
H79	H	-0.025204	-1.018097	-0.420907
C80	C	-0.027664	-0.426274	0.084122
N81	N	-0.064741	-0.406331	0.147797
C82	C	0.216876	-1.101236	-0.410260
N83	N	0.280421	-1.119616	-0.382780
H84	H	-0.471583	-1.100626	-0.091888
C85	C	-0.043712	-1.036294	-0.588351
N86	N	-0.097052	-1.085941	-0.614245
H87	H	0.010980	-0.907148	-0.580825
H88	H	0.087678	-1.129815	-0.580609
C89	C	0.252257	-0.552517	-0.095333
N90	N	0.321148	-0.568166	-0.100733
H91	H	0.248176	-0.931157	-0.579888
C92	C	0.271480	-0.935027	-0.411717
N93	N	0.337860	-0.946128	-0.385511
H94	H	-0.012525	-0.577301	0.062951
C95	C	-0.287411	-0.849439	-0.085196
N96	N	-0.259049	-0.813071	-0.149322
H97	H	-0.457629	-1.000475	-0.153505
H98	H	-0.328573	-1.103919	-0.091097
H99	H	-0.314311	-1.004340	-0.153137
H100	H	-0.315525	-1.002292	0.152945
