data_functionalizedCrystal
_audit_creation_method	'MofGen! by Chris Wilmer'
_symmetry_space_group_name_H-M	'P1'
_symmetry_Int_Tables_number	1
_symmetry_cell_setting	triclinic
loop_
_symmetry_equiv_pos_as_xyz
  x,y,z
_cell_length_a	16.109301
_cell_length_b	15.995343
_cell_length_c	15.186229
_cell_angle_alpha	89.991534
_cell_angle_beta	89.999362
_cell_angle_gamma	83.475333
loop_
_atom_site_label
_atom_site_type_symbol
_atom_site_fract_x
_atom_site_fract_y
_atom_site_fract_z
O1	O	1.103157	0.107624	-0.073182
O2	O	0.861098	0.121018	-0.073197
O3	O	0.988747	-0.007569	-0.073173
O4	O	0.975507	0.236211	-0.073207
O5	O	0.988739	-0.007570	0.073284
O6	O	0.861089	0.121016	0.073260
O7	O	1.103148	0.107623	0.073275
Zn8	Zn	0.982117	0.114319	0.096521
Zn9	Zn	0.982129	0.114322	-0.096443
O10	O	0.975499	0.236209	0.073251
C11	C	0.830119	0.120475	0.000030
C12	C	0.737823	0.118848	0.000024
C13	C	0.515568	0.191367	0.000025
C14	C	0.428847	0.189832	0.000031
C15	C	0.448685	0.037268	0.000048
C16	C	0.535404	0.038804	0.000048
C17	C	0.568843	0.115856	0.000032
C18	C	0.395403	0.112785	0.000038
C19	C	0.301377	0.111120	0.000044
C20	C	0.662875	0.117521	0.000028
C21	C	0.988197	-0.038764	0.000058
C22	C	0.986559	-0.131715	0.000065
C23	C	0.983587	-0.301900	0.000044
C24	C	0.891443	-0.325221	0.000037
C25	C	0.889710	-0.421898	-0.000306
C26	C	0.980659	-0.469459	0.000025
C27	C	1.026995	-0.440372	-0.083438
C28	C	1.028088	-0.343580	-0.083498
C29	C	1.029427	-0.343686	0.083057
C30	C	1.026026	-0.440180	0.084144
C31	C	0.979009	-0.564157	0.000012
C32	C	0.985239	-0.207203	0.000052
C33	C	1.134127	0.108166	0.000046
C34	C	1.226423	0.109793	0.000045
C35	C	0.976049	0.267405	0.000018
C36	C	0.977687	0.360355	0.000005
N37	N	0.982116	0.114317	0.228213
N38	N	0.982137	0.114317	-0.228136
C39	C	1.038658	0.057398	0.453947
C40	C	1.038661	0.057396	0.546137
C41	C	0.925588	0.171239	0.546124
C42	C	0.925582	0.171236	0.453936
C43	C	0.982122	0.114317	0.407850
C44	C	0.982131	0.114317	0.592228
C45	C	0.982133	0.114316	0.692184
C46	C	0.982119	0.114317	0.307888
H47	H	0.421448	-0.025465	0.000066
C48	C	1.100854	-0.005213	0.596845
C49	C	1.163050	-0.067813	0.546149
C50	C	1.225245	-0.130425	0.596857
C51	C	1.225243	-0.130438	0.698261
C52	C	1.163045	-0.067836	0.748961
C53	C	1.100850	-0.005224	0.698253
H54	H	1.163053	-0.067805	0.471080
H55	H	1.271288	-0.176767	0.559325
H56	H	1.271284	-0.176788	0.735798
H57	H	1.163042	-0.067844	0.824031
H58	H	1.054807	0.041119	0.735786
H59	H	1.000352	-0.315415	0.146343
C60	C	0.980451	-0.465253	0.167567
C61	C	0.902409	-0.512092	0.159384
C62	C	0.856834	-0.537171	0.242804
C63	C	0.889300	-0.515411	0.334407
C64	C	0.967346	-0.468570	0.342594
C65	C	1.012922	-0.443491	0.259173
H66	H	0.878372	-0.528202	0.091570
H67	H	0.799059	-0.571846	0.236743
H68	H	0.855563	-0.533977	0.396160
H69	H	0.991384	-0.452460	0.410407
H70	H	1.070697	-0.408816	0.265234
H71	H	1.092391	-0.473147	0.089439
C72	C	0.370246	0.272896	0.000020
C73	C	0.373985	0.336039	-0.076041
C74	C	0.315383	0.419107	-0.076050
C75	C	0.253043	0.439034	0.000002
C76	C	0.249301	0.375890	0.076069
C77	C	0.307902	0.292821	0.076078
H78	H	0.420135	0.321289	-0.132345
H79	H	0.318154	0.465850	-0.132360
H80	H	0.209662	0.500526	-0.000004
H81	H	0.203150	0.390639	0.132373
H82	H	0.305132	0.246078	0.132388
C83	C	1.121060	-0.324810	0.084140
C84	C	1.179587	-0.359005	0.159239
C85	C	1.271221	-0.340139	0.160303
C86	C	1.304328	-0.287079	0.086268
C87	C	1.245800	-0.252881	0.011164
C88	C	1.154166	-0.271747	0.010100
H89	H	1.155081	-0.398286	0.214049
H90	H	1.314548	-0.365455	0.215900
H91	H	1.372161	-0.273114	0.087056
H92	H	1.270307	-0.213600	-0.043646
H93	H	1.110840	-0.246431	-0.045497
H94	H	0.879556	0.217583	0.583657
H95	H	0.853619	-0.440319	-0.060494
C96	C	0.594014	-0.044264	0.000054
C97	C	0.557236	-0.129018	0.000060
C98	C	0.615846	-0.212081	0.000070
C99	C	0.711233	-0.210390	0.000074
C100	C	0.748016	-0.125633	0.000068
C101	C	0.689406	-0.042570	0.000058
H102	H	0.486620	-0.130273	0.000057
H103	H	0.588616	-0.274824	0.000074
H104	H	0.754620	-0.271879	0.000081
H105	H	0.818632	-0.124378	0.000071
H106	H	0.716636	0.020173	0.000054
H107	H	0.542791	0.254107	0.000018
C108	C	0.840696	-0.447586	0.080495
C109	C	0.870538	-0.428465	0.173926
C110	C	0.821513	-0.454144	0.254726
C111	C	0.742647	-0.498945	0.242095
C112	C	0.712802	-0.518069	0.148660
C113	C	0.761826	-0.492390	0.067860
H114	H	0.928923	-0.395298	0.183281
H115	H	0.843608	-0.439987	0.323893
H116	H	0.706357	-0.517954	0.301907
H117	H	0.654416	-0.551235	0.139306
H118	H	0.739732	-0.506547	-0.001307
H119	H	0.996381	-0.316779	-0.146130
C120	C	1.100844	-0.005218	0.403252
C121	C	1.099449	-0.100566	0.415946
C122	C	1.161635	-0.163187	0.365254
C123	C	1.225215	-0.130458	0.301868
C124	C	1.226612	-0.035105	0.289170
C125	C	1.164426	0.027515	0.339862
H126	H	1.052381	-0.124798	0.462871
H127	H	1.160600	-0.233773	0.374654
H128	H	1.271248	-0.176814	0.264342
H129	H	1.273680	-0.010874	0.242245
H130	H	1.165461	0.098102	0.330462
C131	C	0.843184	-0.287388	0.080886
C132	C	0.886848	-0.234853	0.147906
C133	C	0.838589	-0.197017	0.228761
C134	C	0.746666	-0.211717	0.242596
C135	C	0.702996	-0.264255	0.175574
C136	C	0.751255	-0.302091	0.094720
H137	H	0.954900	-0.223968	0.137666
H138	H	0.870917	-0.158125	0.278374
H139	H	0.710941	-0.183709	0.302449
H140	H	0.634944	-0.275139	0.185814
H141	H	0.718927	-0.340983	0.045106
C142	C	0.863389	0.233851	0.403221
C143	C	0.801228	0.296492	0.453909
C144	C	0.739036	0.359101	0.403193
C145	C	0.739005	0.359069	0.301789
C146	C	0.801169	0.296425	0.251097
C147	C	0.863361	0.233817	0.301812
H148	H	0.801249	0.296519	0.528978
H149	H	0.693019	0.405474	0.440719
H150	H	0.692967	0.405416	0.264247
H151	H	0.801148	0.296399	0.176027
H152	H	0.909378	0.187444	0.264286
C153	C	0.843978	-0.286047	-0.080703
C154	C	0.888516	-0.233031	-0.146536
C155	C	0.841052	-0.193855	-0.227276
C156	C	0.749051	-0.207695	-0.242183
C157	C	0.704508	-0.260713	-0.176348
C158	C	0.751971	-0.299889	-0.095608
H159	H	0.956625	-0.222784	-0.135502
H160	H	0.874026	-0.154608	-0.276011
H161	H	0.713915	-0.178695	-0.301951
H162	H	0.636398	-0.270960	-0.187381
H163	H	0.718997	-0.339137	-0.046873
C164	C	0.984056	-0.467483	-0.167681
C165	C	0.907011	-0.515976	-0.160915
C166	C	0.864066	-0.543085	-0.245156
C167	C	0.898166	-0.521700	-0.336164
C168	C	0.975214	-0.473204	-0.342934
C169	C	1.018159	-0.446095	-0.258692
H170	H	0.881765	-0.531809	-0.093543
H171	H	0.807030	-0.578985	-0.240144
H172	H	0.866375	-0.541767	-0.398524
H173	H	1.000461	-0.457371	-0.410306
H174	H	1.075196	-0.410195	-0.263704
H175	H	1.095660	-0.329024	-0.087051
H176	H	1.093931	-0.472236	-0.086304
