data_functionalizedCrystal
_audit_creation_method	'MofGen! by Chris Wilmer'
_symmetry_space_group_name_H-M	'P1'
_symmetry_Int_Tables_number	1
_symmetry_cell_setting	triclinic
loop_
_symmetry_equiv_pos_as_xyz
  x,y,z
_cell_length_a	17.019282
_cell_length_b	14.519731
_cell_length_c	12.996460
_cell_angle_alpha	89.992872
_cell_angle_beta	93.875637
_cell_angle_gamma	83.538640
loop_
_atom_site_label
_atom_site_type_symbol
_atom_site_fract_x
_atom_site_fract_y
_atom_site_fract_z
O1	O	1.046854	0.117426	0.007224
O2	O	1.380187	0.450759	0.340558
O3	O	1.713521	0.784093	0.673891
O4	O	0.817211	0.132423	-0.013134
O5	O	1.150544	0.465756	0.320200
O6	O	1.483878	0.799089	0.653533
O7	O	0.938112	-0.009333	-0.002406
O8	O	1.271446	0.324000	0.330927
O9	O	1.604779	0.657334	0.664260
O10	O	0.925953	0.259181	-0.003503
O11	O	1.259286	0.592515	0.329830
O12	O	1.592619	0.925848	0.663164
O13	O	0.938100	-0.009341	0.168726
O14	O	1.271433	0.323992	0.502060
O15	O	1.604766	0.657326	0.835393
O16	O	0.817198	0.132415	0.157999
O17	O	1.150532	0.465748	0.491332
O18	O	1.483865	0.799081	0.824666
O19	O	1.046841	0.117418	0.178357
O20	O	1.380175	0.450751	0.511690
O21	O	1.713508	0.784085	0.845024
Cu22	Cu	0.932019	0.124916	0.183804
Cu23	Cu	1.265352	0.458249	0.517137
Cu24	Cu	1.598685	0.791582	0.850470
Cu25	Cu	0.932034	0.124925	-0.018580
Cu26	Cu	1.265367	0.458258	0.314753
Cu27	Cu	1.598700	0.791592	0.648086
O28	O	0.925940	0.259174	0.167630
O29	O	1.259273	0.592507	0.500963
O30	O	1.592607	0.925840	0.834296
C31	C	0.937536	-0.043694	0.083110
C32	C	1.270870	0.289639	0.416443
C33	C	1.604203	0.622972	0.749776
C34	C	0.935829	-0.146069	0.082959
C35	C	1.269162	0.187264	0.416292
C36	C	1.602496	0.520598	0.749626
C37	C	0.787815	0.131852	0.069827
C38	C	1.121148	0.465186	0.403161
C39	C	1.454481	0.798519	0.736494
C40	C	0.700242	0.130154	0.062064
C41	C	1.033575	0.463488	0.395398
C42	C	1.366909	0.796821	0.728731
C43	C	0.934442	-0.229209	0.082834
C44	C	1.267775	0.104125	0.416167
C45	C	1.601108	0.437458	0.749500
C46	C	0.932708	-0.333512	0.082672
C47	C	1.266042	-0.000178	0.416005
C48	C	1.599375	0.333155	0.749339
C49	C	0.931332	-0.416646	0.082544
C50	C	1.264666	-0.083313	0.415877
C51	C	1.597999	0.250021	0.749210
C52	C	0.929599	-0.520956	0.082384
C53	C	1.262933	-0.187622	0.415717
C54	C	1.596266	0.145711	0.749051
C55	C	0.659098	0.129350	0.151704
C56	C	0.992431	0.462683	0.485037
C57	C	1.325765	0.796017	0.818371
C58	C	0.576816	0.127739	0.144413
C59	C	0.910149	0.461073	0.477746
C60	C	1.243482	0.794406	0.811079
C61	C	0.535678	0.126940	0.047481
C62	C	0.869012	0.460273	0.380814
C63	C	1.202345	0.793607	0.714147
C64	C	0.576828	0.127742	-0.042166
C65	C	0.910162	0.461075	0.291168
C66	C	1.243495	0.794408	0.624501
C67	C	0.659110	0.129346	-0.034873
C68	C	0.992443	0.462679	0.298460
C69	C	1.325776	0.796012	0.631793
C70	C	0.287242	0.122092	0.020796
C71	C	0.620575	0.455425	0.354129
C72	C	0.953909	0.788758	0.687463
C73	C	0.204954	0.120491	0.013510
C74	C	0.538288	0.453824	0.346844
C75	C	0.871621	0.787157	0.680177
C76	C	0.204948	0.120487	0.200090
C77	C	0.538281	0.453820	0.533423
C78	C	0.871614	0.787153	0.866756
C79	C	0.287230	0.122096	0.207373
C80	C	0.620564	0.455430	0.540707
C81	C	0.953897	0.788763	0.874040
C82	C	0.328374	0.122893	0.117727
C83	C	0.661707	0.456226	0.451060
C84	C	0.995040	0.789560	0.784394
C85	C	0.451572	0.125297	0.040026
C86	C	0.784906	0.458630	0.373359
C87	C	1.118239	0.791964	0.706692
C88	C	0.412479	0.124529	0.125183
C89	C	0.745812	0.457863	0.458517
C90	C	1.079146	0.791196	0.791850
C91	C	1.076238	0.117988	0.095394
C92	C	1.409571	0.451321	0.428727
C93	C	1.742904	0.784655	0.762060
C94	C	1.163810	0.119686	0.103150
C95	C	1.497144	0.453020	0.436483
C96	C	1.830477	0.786353	0.769817
C97	C	0.926516	0.293535	0.082111
C98	C	1.259849	0.626868	0.415445
C99	C	1.593183	0.960202	0.748778
C100	C	0.928223	0.395910	0.082255
C101	C	1.261557	0.729243	0.415589
C102	C	1.594890	1.062576	0.748922
N103	N	0.932014	0.124909	0.326150
N104	N	1.265347	0.458242	0.659484
N105	N	1.598681	0.791575	0.992817
N106	N	0.932045	0.124925	-0.160927
N107	N	1.265378	0.458258	0.172407
N108	N	1.598711	0.791591	0.505740
C109	C	0.932033	0.124926	0.745966
C110	C	1.265366	0.458259	1.079300
C111	C	1.598699	0.791593	1.412633
C112	C	0.932025	0.124924	0.629161
C113	C	1.265358	0.458258	0.962494
C114	C	1.598692	0.791591	1.295827
C115	C	0.932024	0.124918	0.536062
C116	C	1.265357	0.458251	0.869396
C117	C	1.598690	0.791585	1.202729
C118	C	0.932015	0.124915	0.419249
C119	C	1.265349	0.458248	0.752582
C120	C	1.598682	0.791582	1.085916
H121	H	0.692586	0.130008	0.230636
H122	H	1.025919	0.463342	0.563970
H123	H	1.359252	0.796675	0.897303
H124	H	0.445977	0.125176	0.204105
H125	H	0.779310	0.458509	0.537438
H126	H	1.112644	0.791842	0.870771
H127	H	0.543322	0.127069	0.217407
H128	H	0.876655	0.460402	0.550741
H129	H	1.209988	0.793736	0.884074
H130	H	0.320719	0.122743	0.286306
H131	H	0.654053	0.456076	0.619639
H132	H	0.987386	0.789409	0.952972
H133	H	0.171462	0.119843	-0.065427
H134	H	0.504796	0.453176	0.267906
H135	H	0.838129	0.786509	0.601239
H136	H	0.320731	0.122738	-0.052201
H137	H	0.654065	0.456071	0.281133
H138	H	0.987398	0.789404	0.614466
H139	H	0.543328	0.127084	-0.121090
H140	H	0.876662	0.460418	0.212244
H141	H	1.209995	0.793751	0.545577
H142	H	0.418069	0.124646	-0.038897
H143	H	0.751402	0.457979	0.294437
H144	H	1.084735	0.791312	0.627770
H145	H	0.692608	0.130002	-0.107868
H146	H	1.025941	0.463336	0.225466
H147	H	1.359275	0.796669	0.558799
H148	H	0.171440	0.119837	0.273074
H149	H	0.504774	0.453170	0.606408
H150	H	0.838107	0.786503	0.939741
