data_functionalizedCrystal
_audit_creation_method	'MofGen! by Chris Wilmer'
_symmetry_space_group_name_H-M	'P1'
_symmetry_Int_Tables_number	1
_symmetry_cell_setting	triclinic
loop_
_symmetry_equiv_pos_as_xyz
  x,y,z
_cell_length_a	10.654550
_cell_length_b	10.489741
_cell_length_c	9.730223
_cell_angle_alpha	89.998920
_cell_angle_beta	89.996251
_cell_angle_gamma	84.512038
loop_
_atom_site_label
_atom_site_type_symbol
_atom_site_fract_x
_atom_site_fract_y
_atom_site_fract_z
O1	O	1.667918	0.179156	-0.114402
O2	O	1.302447	0.196226	-0.114380
O3	O	1.493499	0.002089	-0.114383
O4	O	1.476867	0.373293	-0.114399
O5	O	1.493497	0.002094	0.114196
O6	O	1.302445	0.196231	0.114200
O7	O	1.667916	0.179161	0.114178
Zn8	Zn	1.485180	0.187697	0.150481
Zn9	Zn	1.485183	0.187690	-0.150683
O10	O	1.476864	0.373298	0.114181
C11	C	1.255648	0.194975	-0.000087
C12	C	1.116203	0.191225	-0.000079
C13	C	1.036771	0.305530	-0.000103
C14	C	0.905748	0.301999	-0.000127
C15	C	0.933603	0.069849	-0.000107
C16	C	1.064623	0.073381	-0.000073
C17	C	1.020688	0.439560	-0.000121
C18	C	0.889665	0.436029	-0.000145
C19	C	1.492241	-0.045439	-0.000094
C20	C	1.488483	-0.187067	-0.000096
C21	C	1.366923	-0.255148	-0.000099
C22	C	1.424346	-0.347296	0.112599
C23	C	1.424377	-0.347276	-0.112763
C24	C	1.545956	-0.277350	0.112695
C25	C	1.545970	-0.277319	-0.112768
C26	C	1.603481	-0.369440	-0.000043
C27	C	1.714715	0.180412	-0.000118
C28	C	1.854160	0.184162	-0.000136
C29	C	1.478122	0.420826	-0.000111
C30	C	1.481880	0.562454	-0.000118
N31	N	1.485187	0.187700	0.356017
N32	N	1.485186	0.187677	-0.356220
C33	C	1.569807	0.101766	0.427942
C34	C	1.569803	0.101751	0.571825
C35	C	1.400557	0.273615	0.571846
C36	C	1.400555	0.273623	0.427966
C37	C	1.667524	0.002545	0.427931
C38	C	1.667520	0.002530	0.571814
H39	H	0.844012	0.476536	0.098538
N40	N	1.610457	-0.238423	-0.232304
N41	N	1.652787	-0.320109	-0.318213
H42	H	1.698324	-0.292639	-0.402647
N43	N	0.880891	-0.050509	-0.000093
N44	N	0.763909	-0.053650	-0.000111
H45	H	0.726681	-0.138655	-0.000100
N46	N	1.359810	-0.386160	0.232127
N47	N	1.247309	-0.344989	0.252215
H48	H	1.201722	-0.372433	0.336627
H49	H	1.703518	-0.418912	0.000014
H50	H	1.597345	-0.246540	0.208079
N51	N	1.359814	-0.386113	-0.232273
N52	N	1.247311	-0.344928	-0.252314
H53	H	1.201703	-0.372353	-0.336712
N54	N	1.057549	0.505300	0.119884
N55	N	1.171248	0.519325	0.140221
H56	H	1.197285	0.565750	0.224974
N57	N	1.065436	0.493093	-0.123930
N58	N	0.989382	0.530230	-0.216674
H59	H	1.020985	0.568035	-0.304118
N60	N	1.314091	0.361391	0.354517
N61	N	1.238534	0.438093	0.418777
H62	H	1.177461	0.500082	0.366905
H63	H	0.847957	0.486527	-0.095814
N64	N	1.314116	0.361365	0.645363
N65	N	1.314120	0.361341	0.773827
H66	H	1.253069	0.423315	0.825749
H67	H	1.636964	-0.090122	0.616435
H68	H	1.646035	-0.095499	0.388882
N69	N	1.781936	0.041532	0.371966
N70	N	1.884906	-0.020769	0.398929
H71	H	1.965709	0.006778	0.359411
H72	H	1.764042	0.024385	0.610857
H73	H	1.129293	-0.019697	-0.000034
N74	N	1.241539	-0.192812	0.000054
N75	N	1.168172	-0.211459	0.096681
H76	H	1.079621	-0.167434	0.096795
