data_functionalizedCrystal
_audit_creation_method	'MofGen! by Chris Wilmer'
_symmetry_space_group_name_H-M	'P1'
_symmetry_Int_Tables_number	1
_symmetry_cell_setting	triclinic
loop_
_symmetry_equiv_pos_as_xyz
  x,y,z
_cell_length_a	25.639239
_cell_length_b	17.077404
_cell_length_c	17.077396
_cell_angle_alpha	89.981638
_cell_angle_beta	89.968926
_cell_angle_gamma	90.036656
loop_
_atom_site_label
_atom_site_type_symbol
_atom_site_fract_x
_atom_site_fract_y
_atom_site_fract_z
Zn1	Zn	-0.208179	1.199968	-0.443805
Zn2	Zn	0.125154	1.533302	-0.110471
Zn3	Zn	0.458488	1.866635	0.222862
Zn4	Zn	-0.295617	1.199839	-0.312533
Zn5	Zn	0.037717	1.533173	0.020801
Zn6	Zn	0.371050	1.866506	0.354134
Zn7	Zn	-0.208194	1.068700	-0.312555
Zn8	Zn	0.125139	1.402034	0.020778
Zn9	Zn	0.458473	1.735367	0.354111
Zn10	Zn	-0.295582	1.068632	-0.443759
Zn11	Zn	0.037751	1.401965	-0.110426
Zn12	Zn	0.371084	1.735299	0.222908
O13	O	-0.251893	1.134285	-0.378163
O14	O	0.081440	1.467618	-0.044830
O15	O	0.414774	1.800952	0.288504
O16	O	-0.219786	1.309798	-0.426401
O17	O	0.113547	1.643132	-0.093068
O18	O	0.446881	1.976465	0.240266
O19	O	-0.284041	1.182418	-0.202689
O20	O	0.049293	1.515751	0.130645
O21	O	0.382626	1.849085	0.463978
O22	O	-0.135027	1.086196	-0.329994
O23	O	0.198307	1.419529	0.003339
O24	O	0.531640	1.752862	0.336672
O25	O	-0.284026	1.309703	-0.329956
O26	O	0.049307	1.643037	0.003377
O27	O	0.382641	1.976370	0.336711
O28	O	-0.135016	1.182638	-0.426423
O29	O	0.198317	1.515971	-0.093089
O30	O	0.531651	1.849305	0.240244
O31	O	-0.219811	1.086071	-0.202705
O32	O	0.113522	1.419404	0.130628
O33	O	0.446855	1.752737	0.463961
O34	O	-0.219778	0.958844	-0.329950
O35	O	0.113555	1.292178	0.003383
O36	O	0.446889	1.625511	0.336717
O37	O	-0.283967	1.086080	-0.553612
O38	O	0.049366	1.419413	-0.220279
O39	O	0.382699	1.752746	0.113055
O40	O	-0.283982	0.958794	-0.426345
O41	O	0.049352	1.292127	-0.093011
O42	O	0.382685	1.625461	0.240322
O43	O	-0.219753	1.182572	-0.553646
O44	O	0.113581	1.515905	-0.220312
O45	O	0.446914	1.849239	0.113021
O46	O	-0.368777	1.182352	-0.329912
O47	O	-0.035444	1.515685	0.003422
O48	O	0.297889	1.849018	0.336755
O49	O	-0.368752	1.085954	-0.426323
O50	O	-0.035419	1.419288	-0.092990
O51	O	0.297915	1.752621	0.240344
C52	C	-0.251878	0.930337	-0.378145
C53	C	0.081455	1.263670	-0.044812
C54	C	0.414788	1.597004	0.288521
C55	C	-0.251884	0.843087	-0.378156
C56	C	0.081449	1.176421	-0.044823
C57	C	0.414782	1.509754	0.288510
C58	C	-0.218494	0.802147	-0.428452
C59	C	0.114839	1.135481	-0.095119
C60	C	0.448173	1.468814	0.238215
C61	C	-0.218498	0.720167	-0.428456
C62	C	0.114836	1.053500	-0.095122
C63	C	0.448169	1.386834	0.238211
C64	C	-0.251894	0.679128	-0.378167
C65	C	0.081439	1.012461	-0.044834
C66	C	0.414772	1.345795	0.288500
C67	C	-0.285286	0.720074	-0.327866
C68	C	0.048047	1.053407	0.005467
C69	C	0.381381	1.386740	0.338801
C70	C	-0.285280	0.802053	-0.327859
C71	C	0.048054	1.135386	0.005474
C72	C	0.381387	1.468719	0.338808
C73	C	-0.285298	0.549204	-0.327885
C74	C	0.048035	0.882537	0.005448
C75	C	0.381369	1.215870	0.338781
C76	C	-0.285305	0.467219	-0.327893
C77	C	0.048028	0.800552	0.005440
C78	C	0.381362	1.133886	0.338773
C79	C	-0.218516	0.467318	-0.428482
C80	C	0.114818	0.800651	-0.095149
C81	C	0.448151	1.133985	0.238185
C82	C	-0.218509	0.549297	-0.428475
C83	C	0.114824	0.882630	-0.095142
C84	C	0.448157	1.215963	0.238192
C85	C	-0.251902	0.590237	-0.378175
C86	C	0.081431	0.923570	-0.044841
C87	C	0.414765	1.256904	0.288492
C88	C	-0.387736	1.134153	-0.378127
C89	C	-0.054402	1.467486	-0.044794
C90	C	0.278931	1.800820	0.288540
C91	C	-0.445850	1.134168	-0.378138
C92	C	-0.112516	1.467502	-0.044804
C93	C	0.220817	1.800835	0.288529
C94	C	-0.806213	1.184610	-0.328047
C95	C	-0.472880	1.517943	0.005286
C96	C	-0.139547	1.851277	0.338620
C97	C	-0.860818	1.184641	-0.328058
C98	C	-0.527484	1.517974	0.005276
C99	C	-0.194151	1.851307	0.338609
O100	O	-0.889055	1.227391	-0.285429
O101	O	-0.555721	1.560724	0.047904
O102	O	-0.222388	1.894058	0.381238
N103	N	-0.888132	1.134423	-0.378215
N104	N	-0.554799	1.467756	-0.044882
N105	N	-0.221465	1.801090	0.288452
C106	C	-0.860839	1.084177	-0.428371
C107	C	-0.527506	1.417511	-0.095037
C108	C	-0.194173	1.750844	0.238296
O109	O	-0.889086	1.041467	-0.471035
O110	O	-0.555753	1.374800	-0.137702
O111	O	-0.222420	1.708133	0.195632
C112	C	-0.806236	1.084151	-0.428364
C113	C	-0.472903	1.417485	-0.095030
C114	C	-0.139569	1.750818	0.238303
C115	C	-0.778924	1.134367	-0.378197
C116	C	-0.445591	1.467700	-0.044864
C117	C	-0.112258	1.801033	0.288469
C118	C	-0.778902	1.234822	-0.277885
C119	C	-0.445568	1.568155	0.055448
C120	C	-0.112235	1.901489	0.388781
C121	C	-0.724301	1.234790	-0.277874
C122	C	-0.390968	1.568124	0.055459
C123	C	-0.057634	1.901457	0.388793
C124	C	-0.697012	1.184547	-0.328024
C125	C	-0.363679	1.517880	0.005309
C126	C	-0.030346	1.851213	0.338642
C127	C	-0.724324	1.134335	-0.378186
C128	C	-0.390991	1.467668	-0.044853
C129	C	-0.057657	1.801002	0.288481
C130	C	-0.778944	1.033910	-0.478523
C131	C	-0.445611	1.367244	-0.145189
C132	C	-0.112278	1.700577	0.188144
C133	C	-0.724337	1.033889	-0.478512
C134	C	-0.391004	1.367223	-0.145178
C135	C	-0.057671	1.700556	0.188155
C136	C	-0.697026	1.084104	-0.428345
C137	C	-0.363692	1.417438	-0.095012
C138	C	-0.030359	1.750771	0.238321
C139	C	-0.642435	1.084060	-0.428325
C140	C	-0.309101	1.417393	-0.094991
C141	C	0.024232	1.750727	0.238342
N142	N	-0.615120	1.134277	-0.378167
N143	N	-0.281787	1.467611	-0.044834
N144	N	0.051547	1.800944	0.288499
C145	C	-0.642409	1.184521	-0.328017
C146	C	-0.309076	1.517854	0.005316
C147	C	0.024258	1.851188	0.338649
C148	C	-0.975510	1.084236	-0.428383
C149	C	-0.642177	1.417570	-0.095049
C150	C	-0.308843	1.750903	0.238284
C151	C	-1.030112	1.084258	-0.428386
C152	C	-0.696779	1.417591	-0.095053
C153	C	-0.363446	1.750924	0.238280
C154	C	-1.030087	1.184722	-0.328074
C155	C	-0.696753	1.518056	0.005259
C156	C	-0.363420	1.851389	0.338592
C157	C	-0.975483	1.184696	-0.328067
C158	C	-0.642150	1.518030	0.005266
C159	C	-0.308817	1.851363	0.338600
C160	C	-0.948196	1.134454	-0.378225
C161	C	-0.614862	1.467787	-0.044892
C162	C	-0.281529	1.801121	0.288441
C163	C	-0.527744	1.184450	-0.327997
C164	C	-0.194411	1.517783	0.005337
C165	C	0.138923	1.851117	0.338670
C166	C	-0.473138	1.184412	-0.327988
C167	C	-0.139805	1.517745	0.005346
C168	C	0.193528	1.851078	0.338679
C169	C	-0.473169	1.083951	-0.428302
C170	C	-0.139836	1.417284	-0.094969
C171	C	0.193498	1.750617	0.238364
C172	C	-0.527769	1.083986	-0.428309
C173	C	-0.194436	1.417319	-0.094976
C174	C	0.138897	1.750652	0.238358
C175	C	-0.555056	1.134242	-0.378154
C176	C	-0.221722	1.467575	-0.044820
C177	C	0.111611	1.800909	0.288513
O178	O	-0.614163	1.041333	-0.470934
O179	O	-0.280829	1.374667	-0.137600
O180	O	0.052504	1.708000	0.195733
O181	O	-0.614155	1.227232	-0.285367
O182	O	-0.280822	1.560565	0.047966
O183	O	0.052511	1.893898	0.381299
C184	C	-0.115520	1.134439	-0.378216
C185	C	0.217813	1.467772	-0.044883
C186	C	0.551147	1.801106	0.288451
C187	C	-0.057406	1.134504	-0.378239
C188	C	0.275927	1.467838	-0.044905
C189	C	0.609261	1.801171	0.288428
C190	C	-0.251855	1.134332	-0.582907
C191	C	0.081479	1.467666	-0.249574
C192	C	0.414812	1.800999	0.083759
C193	C	-0.251838	1.134353	-0.670157
C194	C	0.081495	1.467686	-0.336824
C195	C	0.414829	1.801019	-0.003490
C196	C	-0.251908	1.339029	-0.378181
C197	C	0.081425	1.672363	-0.044848
C198	C	0.414758	2.005696	0.288486
C199	C	-0.251915	1.426279	-0.378189
C200	C	0.081419	1.759612	-0.044855
C201	C	0.414752	2.092946	0.288478
C202	C	-0.218399	1.184598	-0.711166
C203	C	0.114935	1.517931	-0.377833
C204	C	0.448268	1.851265	-0.044499
C205	C	-0.218381	1.184608	-0.793147
C206	C	0.114952	1.517941	-0.459813
C207	C	0.448285	1.851274	-0.126480
C208	C	-0.251806	1.134375	-0.834117
C209	C	0.081527	1.467708	-0.500783
C210	C	0.414860	1.801042	-0.167450
C211	C	-0.285247	1.084124	-0.793102
C212	C	0.048086	1.417457	-0.459769
C213	C	0.381419	1.750791	-0.126435
C214	C	-0.285262	1.084111	-0.711123
C215	C	0.048072	1.417445	-0.377790
C216	C	0.381405	1.750778	-0.044456
C217	C	-0.285216	1.084156	-0.963972
C218	C	0.048118	1.417489	-0.630639
C219	C	0.381451	1.750822	-0.297305
C220	C	-0.285202	1.084169	-1.045957
C221	C	0.048131	1.417503	-0.712623
C222	C	0.381464	1.750836	-0.379290
C223	C	-0.218335	1.184652	-1.045996
C224	C	0.114998	1.517985	-0.712662
C225	C	0.448331	1.851319	-0.379329
C226	C	-0.218350	1.184639	-0.964017
C227	C	0.114983	1.517973	-0.630683
C228	C	0.448317	1.851306	-0.297350
C229	C	-0.251792	1.134389	-0.923008
C230	C	0.081542	1.467722	-0.589674
C231	C	0.414875	1.801056	-0.256341
C232	C	-0.251894	1.134283	-0.174215
C233	C	0.081440	1.467616	0.159118
C234	C	0.414773	1.800950	0.492452
C235	C	-0.251763	1.134415	-0.086966
C236	C	0.081571	1.467748	0.246368
C237	C	0.414904	1.801081	0.579701
H238	H	-0.191300	0.835555	-0.469405
H239	H	0.142033	1.168889	-0.136071
H240	H	0.475367	1.502222	0.197262
Br241	Br	-0.815996	0.965765	-0.546618
Br242	Br	-0.482663	1.299098	-0.213285
Br243	Br	-0.149330	1.632431	0.120048
H244	H	-0.191182	1.225506	-0.677814
H245	H	0.142152	1.558839	-0.344481
H246	H	0.475485	1.892172	-0.011147
Br247	Br	-0.436076	1.252564	-0.259899
Br248	Br	-0.102743	1.585897	0.073435
Br249	Br	0.230591	1.919231	0.406768
Br250	Br	-0.330607	1.015946	-0.848703
Br251	Br	0.002726	1.349279	-0.515370
Br252	Br	0.336059	1.682612	-0.182037
H253	H	-0.702122	0.992977	-0.519359
H254	H	-0.368789	1.326310	-0.186026
H255	H	-0.035456	1.659643	0.147308
H256	H	-0.312476	0.686653	-0.286916
H257	H	0.020858	1.019987	0.046417
H258	H	0.354191	1.353320	0.379750
Br259	Br	-0.173191	0.604993	-0.496733
Br260	Br	0.160143	0.938326	-0.163400
Br261	Br	0.493476	1.271659	0.169933
Br262	Br	-0.173180	0.664608	-0.496717
Br263	Br	0.160153	0.997941	-0.163384
Br264	Br	0.493486	1.331275	0.169949
Br265	Br	-0.173197	0.411758	-0.496747
Br266	Br	0.160136	0.745091	-0.163413
Br267	Br	0.493470	1.078424	0.169920
Br268	Br	-0.564837	1.015817	-0.496373
Br269	Br	-0.231503	1.349150	-0.163040
Br270	Br	0.101830	1.682484	0.170294
Br271	Br	-0.330596	0.857615	-0.259597
Br272	Br	0.002737	1.190949	0.073737
Br273	Br	0.336071	1.524282	0.407070
H274	H	-0.953295	1.043317	-0.469225
H275	H	-0.619962	1.376650	-0.135892
H276	H	-0.286628	1.709983	0.197441
H277	H	-0.191153	1.225524	-0.826532
H278	H	0.142180	1.558858	-0.493199
H279	H	0.475514	1.892191	-0.159866
H280	H	-0.312500	0.433807	-0.286944
H281	H	0.020833	0.767141	0.046389
H282	H	0.354167	1.100474	0.379722
Br283	Br	-0.330642	1.015914	-0.655467
Br284	Br	0.002691	1.349247	-0.322133
Br285	Br	0.336025	1.682580	0.011200
H286	H	-0.191135	1.225547	-0.930661
H287	H	0.142198	1.558881	-0.597328
H288	H	0.475531	1.892214	-0.263994
H289	H	-0.312488	0.582535	-0.286924
H290	H	0.020845	0.915868	0.046410
H291	H	0.354178	1.249201	0.379743
H292	H	-0.549954	1.225375	-0.287157
H293	H	-0.216620	1.558709	0.046176
H294	H	0.116713	1.892042	0.379509
Br295	Br	-0.687244	1.302955	-0.209799
Br296	Br	-0.353910	1.636288	0.123534
Br297	Br	-0.020577	1.969621	0.456868
H298	H	-0.450942	1.043040	-0.469132
H299	H	-0.117608	1.376374	-0.135799
H300	H	0.215725	1.709707	0.197535
Br301	Br	-0.815926	1.303021	-0.209817
Br302	Br	-0.482593	1.636354	0.123517
Br303	Br	-0.149259	1.969687	0.456850
Br304	Br	-0.172952	1.252852	-1.101649
Br305	Br	0.160381	1.586185	-0.768316
Br306	Br	0.493714	1.919519	-0.434983
H307	H	-0.953249	1.225586	-0.287218
H308	H	-0.619916	1.558920	0.046115
H309	H	-0.286583	1.892253	0.379449
Br310	Br	-1.067132	1.252907	-0.260009
Br311	Br	-0.733799	1.586241	0.073324
Br312	Br	-0.400465	1.919574	0.406658
H313	H	-1.052345	1.043360	-0.469230
H314	H	-0.719012	1.376693	-0.135896
H315	H	-0.385678	1.710027	0.197437
H316	H	-0.312419	1.043264	-1.079312
H317	H	0.020915	1.376597	-0.745979
H318	H	0.354248	1.709931	-0.412646
H319	H	-0.312439	1.043225	-0.930585
H320	H	0.020894	1.376558	-0.597252
H321	H	0.354227	1.709891	-0.263918
