data_functionalizedCrystal
_audit_creation_method	'MofGen! by Chris Wilmer'
_symmetry_space_group_name_H-M	'P1'
_symmetry_Int_Tables_number	1
_symmetry_cell_setting	triclinic
loop_
_symmetry_equiv_pos_as_xyz
  x,y,z
_cell_length_a	19.121063
_cell_length_b	16.120542
_cell_length_c	16.120297
_cell_angle_alpha	89.872913
_cell_angle_beta	95.179432
_cell_angle_gamma	90.317046
loop_
_atom_site_label
_atom_site_type_symbol
_atom_site_fract_x
_atom_site_fract_y
_atom_site_fract_z
Zn1	Zn	-0.355825	-1.228532	-0.551617
Zn2	Zn	-0.022492	-0.895199	-0.218284
Zn3	Zn	0.310842	-0.561865	0.115049
Zn4	Zn	-0.467608	-1.229541	-0.417908
Zn5	Zn	-0.134275	-0.896208	-0.084575
Zn6	Zn	0.199058	-0.562875	0.248758
Zn7	Zn	-0.343951	-1.097153	-0.404964
Zn8	Zn	-0.010618	-0.763820	-0.071631
Zn9	Zn	0.322716	-0.430486	0.261702
Zn10	Zn	-0.466953	-1.083532	-0.549843
Zn11	Zn	-0.133619	-0.750199	-0.216510
Zn12	Zn	0.199714	-0.416865	0.116823
O13	O	-0.408584	-1.159690	-0.481083
O14	O	-0.075251	-0.826356	-0.147750
O15	O	0.258083	-0.493023	0.185583
O16	O	-0.375897	-1.344754	-0.540040
O17	O	-0.042564	-1.011420	-0.206707
O18	O	0.290770	-0.678087	0.126626
O19	O	-0.446510	-1.218102	-0.299601
O20	O	-0.113177	-0.884769	0.033732
O21	O	0.220157	-0.551436	0.367065
O22	O	-0.247268	-1.119858	-0.419744
O23	O	0.086066	-0.786525	-0.086410
O24	O	0.419399	-0.453192	0.246923
O25	O	-0.458024	-1.345495	-0.441805
O26	O	-0.124690	-1.012162	-0.108472
O27	O	0.208643	-0.678829	0.224862
O28	O	-0.255991	-1.216382	-0.527489
O29	O	0.077342	-0.883049	-0.194156
O30	O	0.410675	-0.549715	0.139178
O31	O	-0.355660	-1.120837	-0.290092
O32	O	-0.022326	-0.787504	0.043242
O33	O	0.311007	-0.454171	0.376575
O34	O	-0.355024	-0.979258	-0.418023
O35	O	-0.021690	-0.645925	-0.084690
O36	O	0.311643	-0.312591	0.248643
O37	O	-0.456906	-1.096644	-0.666668
O38	O	-0.123573	-0.763310	-0.333335
O39	O	0.209761	-0.429977	-0.000002
O40	O	-0.445392	-0.969251	-0.524465
O41	O	-0.112059	-0.635918	-0.191132
O42	O	0.221274	-0.302584	0.142202
O43	O	-0.375261	-1.203175	-0.667972
O44	O	-0.041928	-0.869841	-0.334639
O45	O	0.291406	-0.536508	-0.001305
O46	O	-0.565780	-1.204895	-0.440085
O47	O	-0.232446	-0.871562	-0.106751
O48	O	0.100887	-0.538228	0.226582
O49	O	-0.565298	-1.097623	-0.537016
O50	O	-0.231965	-0.764289	-0.203683
O51	O	0.101369	-0.430956	0.129650
C52	C	-0.398849	-0.944154	-0.469647
C53	C	-0.065516	-0.610821	-0.136314
C54	C	0.267818	-0.277488	0.197019
C55	C	-0.394702	-0.851945	-0.464776
C56	C	-0.061369	-0.518612	-0.131442
C57	C	0.271965	-0.185279	0.201891
C58	C	-0.430074	-0.637104	-0.506308
C59	C	-0.096740	-0.303771	-0.172975
C60	C	0.236593	0.029563	0.160359
C61	C	-0.387137	-0.683123	-0.455880
C62	C	-0.053803	-0.349790	-0.122547
C63	C	0.279530	-0.016456	0.210786
C64	C	-0.391347	-0.777064	-0.460831
C65	C	-0.058014	-0.443731	-0.127498
C66	C	0.275319	-0.110398	0.205835
C67	C	-0.425864	-0.543154	-0.501358
C68	C	-0.092531	-0.209821	-0.168025
C69	C	0.240803	0.123513	0.165308
C70	C	-0.591018	-1.149912	-0.489782
C71	C	-0.257684	-0.816579	-0.156449
C72	C	0.075649	-0.483245	0.176885
C73	C	-0.669068	-1.145803	-0.493535
C74	C	-0.335735	-0.812470	-0.160202
C75	C	-0.002402	-0.479137	0.173132
C76	C	-0.705968	-1.199763	-0.444877
C77	C	-0.372634	-0.866430	-0.111544
C78	C	-0.039301	-0.533096	0.221789
C79	C	-0.779305	-1.195904	-0.448412
C80	C	-0.445971	-0.862570	-0.115079
C81	C	-0.112638	-0.529237	0.218254
C82	C	-0.815741	-1.138080	-0.500601
C83	C	-0.482407	-0.804747	-0.167268
C84	C	-0.149074	-0.471413	0.166066
C85	C	-0.778836	-1.084118	-0.549264
C86	C	-0.445503	-0.750785	-0.215931
C87	C	-0.112170	-0.417451	0.117402
C88	C	-0.705501	-1.087982	-0.545733
C89	C	-0.372168	-0.754649	-0.212400
C90	C	-0.038834	-0.421315	0.120933
C91	C	-1.037155	-1.123621	-0.513789
C92	C	-0.703822	-0.790288	-0.180456
C93	C	-0.370488	-0.456954	0.152877
C94	C	-1.110495	-1.119759	-0.517315
C95	C	-0.777162	-0.786426	-0.183982
C96	C	-0.443829	-0.453093	0.149352
C97	C	-1.110959	-1.231547	-0.416464
C98	C	-0.777625	-0.898213	-0.083130
C99	C	-0.444292	-0.564880	0.250203
C100	C	-1.037622	-1.235402	-0.412934
C101	C	-0.704288	-0.902069	-0.079600
C102	C	-0.370955	-0.568735	0.253733
C103	C	-1.000724	-1.181443	-0.461600
C104	C	-0.667391	-0.848110	-0.128267
C105	C	-0.334057	-0.514776	0.205067
C106	C	-0.890703	-1.134132	-0.504214
C107	C	-0.557369	-0.800799	-0.170880
C108	C	-0.224036	-0.467465	0.162453
C109	C	-0.925764	-1.185396	-0.457991
C110	C	-0.592430	-0.852062	-0.124658
C111	C	-0.259097	-0.518729	0.208675
C112	C	-0.225440	-1.169527	-0.472370
C113	C	0.107893	-0.836194	-0.139037
C114	C	0.441227	-0.502860	0.194296
C115	C	-0.147395	-1.173719	-0.468657
C116	C	0.185939	-0.840386	-0.135324
C117	C	0.519272	-0.507052	0.198009
C118	C	-0.417335	-1.148277	-0.698396
C119	C	-0.084002	-0.814944	-0.365063
C120	C	0.249332	-0.481611	-0.031729
C121	C	-0.421064	-1.143414	-0.791002
C122	C	-0.087731	-0.810081	-0.457668
C123	C	0.245603	-0.476747	-0.124335
C124	C	-0.418354	-0.376067	-0.492553
C125	C	-0.085020	-0.042734	-0.159219
C126	C	0.248313	0.290599	0.174114
C127	C	-0.422506	-0.468277	-0.497410
C128	C	-0.089173	-0.134943	-0.164077
C129	C	0.244160	0.198390	0.169257
C130	C	-0.427855	-1.134505	-0.960551
C131	C	-0.094522	-0.801172	-0.627218
C132	C	0.238811	-0.467839	-0.293884
C133	C	-0.389110	-1.185048	-1.002466
C134	C	-0.055777	-0.851715	-0.669133
C135	C	0.277557	-0.518382	-0.335799
C136	C	-0.392889	-1.180092	-1.096809
C137	C	-0.059556	-0.846758	-0.763476
C138	C	0.273778	-0.513425	-0.430142
C139	C	-0.424077	-1.139461	-0.866199
C140	C	-0.090744	-0.806128	-0.532866
C141	C	0.242589	-0.472794	-0.199533
C142	C	-0.399819	-1.171108	-0.264616
C143	C	-0.066486	-0.837775	0.068717
C144	C	0.266848	-0.504441	0.402050
C145	C	-0.395899	-1.176142	-0.172010
C146	C	-0.062566	-0.842809	0.161323
C147	C	0.270767	-0.509476	0.494657
H148	H	-0.676306	-1.246846	-0.402376
H149	H	-0.342973	-0.913512	-0.069043
H150	H	-0.009639	-0.580179	0.264291
H151	H	-0.353101	-1.232042	-0.967497
H152	H	-0.019767	-0.898708	-0.634163
H153	H	0.313566	-0.565375	-0.300830
F154	F	-0.474920	-1.073087	-1.006256
F155	F	-0.141587	-0.739753	-0.672923
F156	F	0.191747	-0.406420	-0.339589
F157	F	-0.334958	-0.642405	-0.394587
F158	F	-0.001625	-0.309072	-0.061254
F159	F	0.331708	0.024262	0.272079
F160	F	-0.929487	-1.072593	-0.559755
F161	F	-0.596154	-0.739260	-0.226422
F162	F	-0.262820	-0.405926	0.106912
H163	H	-1.007957	-1.282487	-0.370437
H164	H	-0.674624	-0.949153	-0.037104
H165	H	-0.341290	-0.615820	0.296229
F166	F	-1.150233	-1.288973	-0.364677
F167	F	-0.816900	-0.955640	-0.031344
F168	F	-0.483567	-0.622306	0.301989
F169	F	-1.149271	-1.058205	-0.572855
F170	F	-0.815938	-0.724871	-0.239522
F171	F	-0.482604	-0.391538	0.093812
F172	F	-0.482256	-0.677822	-0.567587
F173	F	-0.148923	-0.344488	-0.234254
F174	F	0.184411	-0.011155	0.099079
F175	F	-0.818573	-1.253338	-0.396626
F176	F	-0.485240	-0.920004	-0.063293
F177	F	-0.151906	-0.586671	0.270040
H178	H	-1.007118	-1.079684	-0.553414
H179	H	-0.673785	-0.746350	-0.220081
H180	H	-0.340452	-0.413017	0.113253
F181	F	-0.817616	-1.022582	-0.604813
F182	F	-0.484283	-0.689249	-0.271479
F183	F	-0.150950	-0.355915	0.061854
F184	F	-0.886985	-1.246937	-0.402454
F185	F	-0.553651	-0.913604	-0.069120
F186	F	-0.220318	-0.580270	0.264213
F187	F	-0.666230	-1.030553	-0.597524
F188	F	-0.332897	-0.697219	-0.264191
F189	F	0.000436	-0.363886	0.069143
