data_functionalizedCrystal
_audit_creation_method	'MofGen! by Chris Wilmer'
_symmetry_space_group_name_H-M	'P1'
_symmetry_Int_Tables_number	1
_symmetry_cell_setting	triclinic
loop_
_symmetry_equiv_pos_as_xyz
  x,y,z
_cell_length_a	29.839131
_cell_length_b	29.839134
_cell_length_c	29.839125
_cell_angle_alpha	89.978020
_cell_angle_beta	90.025363
_cell_angle_gamma	89.969912
loop_
_atom_site_label
_atom_site_type_symbol
_atom_site_fract_x
_atom_site_fract_y
_atom_site_fract_z
Zn1	Zn	-0.178978	-0.686739	0.254101
Zn2	Zn	0.321022	-0.186739	0.754101
Zn3	Zn	-0.254090	-0.686679	0.178961
Zn4	Zn	0.245910	-0.186679	0.678961
Zn5	Zn	-0.178968	-0.611622	0.178971
Zn6	Zn	0.321032	-0.111622	0.678971
Zn7	Zn	-0.254075	-0.611578	0.254049
Zn8	Zn	0.245925	-0.111578	0.754049
O9	O	-0.216528	-0.649154	0.216521
O10	O	0.283472	-0.149154	0.716521
O11	O	-0.188952	-0.749598	0.244151
O12	O	0.311048	-0.249598	0.744151
O13	O	-0.244127	-0.676716	0.116095
O14	O	0.255873	-0.176716	0.616095
O15	O	-0.116102	-0.621630	0.188963
O16	O	0.383898	-0.121630	0.688963
O17	O	-0.244137	-0.749554	0.188946
O18	O	0.255863	-0.249554	0.688946
O19	O	-0.116109	-0.676818	0.244161
O20	O	0.383891	-0.176818	0.744161
O21	O	-0.188935	-0.621572	0.116102
O22	O	0.311065	-0.121572	0.616102
O23	O	-0.188921	-0.548749	0.188912
O24	O	0.311079	-0.048749	0.688912
O25	O	-0.244111	-0.621554	0.316923
O26	O	0.255889	-0.121554	0.816923
O27	O	-0.244101	-0.548716	0.244072
O28	O	0.255899	-0.048716	0.744072
O29	O	-0.188937	-0.676775	0.316961
O30	O	0.311063	-0.176775	0.816961
O31	O	-0.316955	-0.676673	0.188896
O32	O	0.183045	-0.176673	0.688896
O33	O	-0.316944	-0.621497	0.244063
O34	O	0.183056	-0.121497	0.744063
C35	C	-0.333250	-0.649086	0.216483
C36	C	0.166750	-0.149086	0.716483
C37	C	-0.383185	-0.649098	0.216482
C38	C	0.116815	-0.149098	0.716482
C39	C	-0.216509	-0.532432	0.216488
C40	C	0.283491	-0.032432	0.716488
C41	C	-0.216511	-0.482497	0.216485
C42	C	0.283489	0.017503	0.716485
C43	C	-0.216524	-0.649167	0.333699
C44	C	0.283476	-0.149167	0.833699
C45	C	-0.216522	-0.649172	0.383633
C46	C	0.283478	-0.149172	0.883633
C47	C	-0.692797	-0.677885	0.245303
C48	C	-0.192797	-0.177885	0.745303
C49	C	-0.880470	-0.677933	0.245330
C50	C	-0.380470	-0.177933	0.745330
O51	O	-0.904708	-0.702342	0.269807
O52	O	-0.404708	-0.202342	0.769807
N53	N	-0.903970	-0.649231	0.216570
N54	N	-0.403970	-0.149231	0.716570
C55	C	-0.880548	-0.620512	0.187804
C56	C	-0.380548	-0.120512	0.687804
O57	O	-0.904843	-0.596096	0.163346
O58	O	-0.404843	-0.096096	0.663346
C59	C	-0.692876	-0.620461	0.187780
C60	C	-0.192876	-0.120461	0.687780
C61	C	-0.669379	-0.649169	0.216538
C62	C	-0.169379	-0.149169	0.716538
C63	C	-0.669300	-0.706590	0.274059
C64	C	-0.169300	-0.206590	0.774059
C65	C	-0.622384	-0.706579	0.274051
C66	C	-0.122384	-0.206579	0.774051
C67	C	-0.598966	-0.677863	0.245286
C68	C	-0.098966	-0.177863	0.745286
C69	C	-0.622463	-0.649158	0.216529
C70	C	-0.122463	-0.149158	0.716529
C71	C	-0.669456	-0.591740	0.159016
C72	C	-0.169456	-0.091740	0.659016
C73	C	-0.622535	-0.591729	0.159013
C74	C	-0.122535	-0.091729	0.659013
C75	C	-0.599037	-0.620437	0.187771
C76	C	-0.099037	-0.120437	0.687771
C77	C	-0.552130	-0.620431	0.187755
C78	C	-0.052130	-0.120431	0.687755
N79	N	-0.528630	-0.649134	0.216515
N80	N	-0.028630	-0.149134	0.716515
C81	C	-0.552048	-0.677850	0.245280
C82	C	-0.052048	-0.177850	0.745280
C83	C	-0.979079	-0.620541	0.187818
C84	C	-0.479079	-0.120541	0.687818
C85	C	-1.025997	-0.620554	0.187824
C86	C	-0.525997	-0.120554	0.687824
C87	C	-1.025915	-0.677975	0.245351
C88	C	-0.525915	-0.177975	0.745351
C89	C	-0.978996	-0.677964	0.245342
C90	C	-0.478996	-0.177964	0.745342
C91	C	-0.955579	-0.649244	0.216578
C92	C	-0.455579	-0.149244	0.716578
C93	C	-0.453522	-0.677826	0.245259
C94	C	0.046478	-0.177826	0.745259
C95	C	-0.406603	-0.677814	0.245247
C96	C	0.093397	-0.177814	0.745247
C97	C	-0.406688	-0.620391	0.187722
C98	C	0.093312	-0.120391	0.687722
C99	C	-0.453604	-0.620404	0.187732
C100	C	0.046396	-0.120404	0.687732
C101	C	-0.477020	-0.649123	0.216505
C102	C	0.022980	-0.149123	0.716505
O103	O	-0.527863	-0.596032	0.163295
O104	O	-0.027863	-0.096032	0.663295
O105	O	-0.527746	-0.702255	0.269742
O106	O	-0.027746	-0.202255	0.769742
C107	C	-0.739712	-0.677895	0.245312
C108	C	-0.239712	-0.177895	0.745312
C109	C	-0.763210	-0.649190	0.216556
C110	C	-0.263210	-0.149190	0.716556
C111	C	-0.739792	-0.620474	0.187790
C112	C	-0.239792	-0.120474	0.687790
C113	C	-0.810128	-0.649203	0.216561
C114	C	-0.310128	-0.149203	0.716561
C115	C	-0.833546	-0.677919	0.245326
C116	C	-0.333546	-0.177919	0.745326
C117	C	-0.810046	-0.706622	0.274086
C118	C	-0.310046	-0.206622	0.774086
C119	C	-0.763130	-0.706611	0.274077
C120	C	-0.263130	-0.206611	0.774077
C121	C	-0.763291	-0.591772	0.159031
C122	C	-0.263291	-0.091772	0.659031
C123	C	-0.810207	-0.591785	0.159041
C124	C	-0.310207	-0.091785	0.659041
C125	C	-0.833625	-0.620501	0.187807
C126	C	-0.333625	-0.120501	0.687807
C127	C	-0.099349	-0.649235	0.216568
C128	C	0.400651	-0.149235	0.716568
C129	C	-0.049415	-0.649270	0.216589
C130	C	0.450585	-0.149270	0.716589
C131	C	-0.216547	-0.766333	0.216553
C132	C	0.283453	-0.266333	0.716553
C133	C	-0.216555	-0.816267	0.216567
C134	C	0.283445	-0.316267	0.716567
C135	C	-0.245303	-0.172847	0.245207
C136	C	0.254697	0.327153	0.745207
C137	C	-0.245315	0.014827	0.245227
C138	C	0.254685	0.514827	0.745227
O139	O	-0.269774	0.039098	0.269629
O140	O	0.230226	0.539098	0.769629
N141	N	-0.216544	0.038288	0.216554
N142	N	0.283456	0.538288	0.716554
C143	C	-0.187766	0.014828	0.187877
C144	C	0.312234	0.514828	0.687877
O145	O	-0.163291	0.039089	0.163492
O146	O	0.336709	0.539089	0.663492
C147	C	-0.187751	-0.172844	0.187859
C148	C	0.312249	0.327156	0.687859
C149	C	-0.216527	-0.196303	0.216531
C150	C	0.283473	0.303697	0.716531
C151	C	-0.274076	-0.196305	0.273877
C152	C	0.225924	0.303695	0.773877
C153	C	-0.274075	-0.243221	0.273870
C154	C	0.225925	0.256779	0.773870
C155	C	-0.245299	-0.266677	0.245193
C156	C	0.254701	0.233323	0.745193
C157	C	-0.216526	-0.243219	0.216524
C158	C	0.283474	0.256781	0.716524
C159	C	-0.158971	-0.196303	0.159184
C160	C	0.341029	0.303697	0.659184
C161	C	-0.158969	-0.243224	0.159183
C162	C	0.341031	0.256776	0.659183
C163	C	-0.187745	-0.266683	0.187855
C164	C	0.312255	0.233317	0.687855
C165	C	-0.187749	-0.313591	0.187840
C166	C	0.312251	0.186409	0.687840
N167	N	-0.216520	-0.337052	0.216513
N168	N	0.283480	0.162948	0.716513
C169	C	-0.245295	-0.313595	0.245189
C170	C	0.254705	0.186405	0.745189
C171	C	-0.187776	0.113358	0.187887
C172	C	0.312224	0.613358	0.687887
C173	C	-0.187780	0.160276	0.187891
C174	C	0.312220	0.660276	0.687891
C175	C	-0.245329	0.160272	0.245242
C176	C	0.254671	0.660272	0.745242
C177	C	-0.245327	0.113353	0.245236
C178	C	0.254673	0.613353	0.745236
C179	C	-0.216547	0.089897	0.216560
C180	C	0.283453	0.589897	0.716560
C181	C	-0.245290	-0.412121	0.245172
C182	C	0.254710	0.087879	0.745172
C183	C	-0.245287	-0.459041	0.245161
C184	C	0.254713	0.040959	0.745161
C185	C	-0.187736	-0.459032	0.187812
C186	C	0.312264	0.040968	0.687812
C187	C	-0.187740	-0.412117	0.187821
C188	C	0.312260	0.087883	0.687821
C189	C	-0.216519	-0.388662	0.216505
C190	C	0.283481	0.111338	0.716505
O191	O	-0.163299	-0.337891	0.163455
O192	O	0.336701	0.162109	0.663455
O193	O	-0.269759	-0.337865	0.269577
O194	O	0.230241	0.162135	0.769577
C195	C	-0.245304	-0.125931	0.245214
C196	C	0.254696	0.374069	0.745214
C197	C	-0.216531	-0.102472	0.216545
C198	C	0.283469	0.397528	0.716545
C199	C	-0.187755	-0.125929	0.187868
C200	C	0.312245	0.374071	0.687868
C201	C	-0.216535	-0.055554	0.216548
C202	C	0.283465	0.444446	0.716548
C203	C	-0.245310	-0.032098	0.245225
C204	C	0.254690	0.467902	0.745225
C205	C	-0.274082	-0.055559	0.273898
C206	C	0.225918	0.444441	0.773898
C207	C	-0.274080	-0.102474	0.273891
C208	C	0.225920	0.397526	0.773891
C209	C	-0.158984	-0.102468	0.159196
C210	C	0.341016	0.397532	0.659196
C211	C	-0.158989	-0.055552	0.159205
C212	C	0.341011	0.444448	0.659205
C213	C	-0.187764	-0.032096	0.187881
C214	C	0.312236	0.467904	0.687881
C215	C	-0.216499	-0.649168	0.099798
C216	C	0.283501	-0.149168	0.599798
C217	C	-0.216374	-0.649250	0.049864
C218	C	0.283626	-0.149250	0.549864
C219	C	-0.187718	-0.677955	0.693300
C220	C	0.312282	-0.177955	1.193300
C221	C	-0.187680	-0.677978	0.880973
C222	C	0.312320	-0.177978	1.380973
O223	O	-0.163232	-0.702417	0.905257
O224	O	0.336768	-0.202417	1.405257
N225	N	-0.216402	-0.649231	0.904419
N226	N	0.283598	-0.149231	1.404419
C227	C	-0.245133	-0.620475	0.880943
C228	C	0.254867	-0.120475	1.380943
O229	O	-0.269559	-0.596022	0.905192
O230	O	0.230441	-0.096022	1.405192
C231	C	-0.245169	-0.620451	0.693271
C232	C	0.254831	-0.120451	1.193271
C233	C	-0.216448	-0.649202	0.669828
C234	C	0.283552	-0.149202	1.169828
C235	C	-0.158999	-0.706704	0.669856
C236	C	0.341001	-0.206704	1.169856
C237	C	-0.159011	-0.706700	0.622941
C238	C	0.340989	-0.206700	1.122941
C239	C	-0.187741	-0.677947	0.599469
C240	C	0.312259	-0.177947	1.099469
C241	C	-0.216460	-0.649198	0.622912
C242	C	0.283540	-0.149198	1.122912
C243	C	-0.273898	-0.591693	0.669797
C244	C	0.226102	-0.091693	1.169797
C245	C	-0.273903	-0.591689	0.622876
C246	C	0.226097	-0.091689	1.122876
C247	C	-0.245183	-0.620440	0.599432
C248	C	0.254817	-0.120440	1.099432
C249	C	-0.245202	-0.620441	0.552525
C250	C	0.254798	-0.120441	1.052525
N251	N	-0.216480	-0.649188	0.529079
N252	N	0.283520	-0.149188	1.029079
C253	C	-0.187749	-0.677941	0.552551
C254	C	0.312251	-0.177941	1.052551
C255	C	-0.245113	-0.620491	0.979474
C256	C	0.254887	-0.120491	1.479474
C257	C	-0.245105	-0.620497	1.026392
C258	C	0.254895	-0.120497	1.526392
C259	C	-0.187650	-0.677999	1.026418
C260	C	0.312350	-0.177999	1.526418
C261	C	-0.187661	-0.677994	0.979499
C262	C	0.312339	-0.177994	1.479499
C263	C	-0.216391	-0.649237	0.956028
C264	C	0.283609	-0.149237	1.456028
C265	C	-0.187776	-0.677930	0.454025
C266	C	0.312224	-0.177930	0.954025
C267	C	-0.187792	-0.677925	0.407105
C268	C	0.312208	-0.177925	0.907105
C269	C	-0.245244	-0.620421	0.407083
C270	C	0.254756	-0.120421	0.907083
C271	C	-0.245230	-0.620428	0.453999
C272	C	0.254770	-0.120428	0.953999
C273	C	-0.216493	-0.649184	0.477469
C274	C	0.283507	-0.149184	0.977469
O275	O	-0.269633	-0.596011	0.528212
O276	O	0.230367	-0.096011	1.028212
O277	O	-0.163320	-0.702383	0.528294
O278	O	0.336680	-0.202383	1.028294
C279	C	-0.187706	-0.677959	0.740215
C280	C	0.312294	-0.177959	1.240215
C281	C	-0.216425	-0.649211	0.763659
C282	C	0.283575	-0.149211	1.263659
C283	C	-0.245155	-0.620458	0.740187
C284	C	0.254845	-0.120458	1.240187
C285	C	-0.216417	-0.649217	0.810577
C286	C	0.283583	-0.149217	1.310577
C287	C	-0.187686	-0.677970	0.834049
C288	C	0.312314	-0.177970	1.334049
C289	C	-0.158964	-0.706717	0.810603
C290	C	0.341036	-0.206717	1.310603
C291	C	-0.158976	-0.706712	0.763687
C292	C	0.341024	-0.206712	1.263687
C293	C	-0.273877	-0.591711	0.763633
C294	C	0.226123	-0.091711	1.263633
C295	C	-0.273864	-0.591718	0.810548
C296	C	0.226136	-0.091718	1.310548
C297	C	-0.245133	-0.620471	0.834020
C298	C	0.254867	-0.120471	1.334020
H299	H	-0.387473	-0.701192	0.268665
H300	H	0.112527	-0.201192	0.768665
H301	H	-0.472736	-0.597032	0.164312
H302	H	0.027264	-0.097032	0.664312
C303	C	-0.953322	-0.588951	0.156170
C304	C	-0.453322	-0.088951	0.656170
C305	C	-0.921085	-0.553652	0.175585
C306	C	-0.421085	-0.053652	0.675585
C307	C	-0.895330	-0.522065	0.143935
C308	C	-0.395330	-0.022065	0.643935
C309	C	-0.901813	-0.525777	0.092869
C310	C	-0.401813	-0.025777	0.592869
C311	C	-0.934051	-0.561078	0.073452
C312	C	-0.434051	-0.061078	0.573452
C313	C	-0.959806	-0.592665	0.105102
C314	C	-0.459806	-0.092665	0.605102
H315	H	-0.916285	-0.550903	0.213389
H316	H	-0.416285	-0.050903	0.713389
H317	H	-0.871465	-0.495934	0.158309
H318	H	-0.371465	0.004066	0.658309
H319	H	-0.882747	-0.502395	0.069440
H320	H	-0.382747	-0.002395	0.569440
H321	H	-0.938851	-0.563827	0.035648
H322	H	-0.438851	-0.063827	0.535648
H323	H	-0.983671	-0.618796	0.090728
H324	H	-0.483671	-0.118796	0.590728
H325	H	-0.164374	-0.701344	0.473128
H326	H	0.335626	-0.201344	0.973128
H327	H	-0.268621	-0.597020	0.473087
H328	H	0.231379	-0.097020	0.973087
C329	C	-0.695292	-0.560154	0.127385
C330	C	-0.195292	-0.060154	0.627385
C331	C	-0.688863	-0.563843	0.076316
C332	C	-0.188863	-0.063843	0.576316
C333	C	-0.714697	-0.532252	0.044685
C334	C	-0.214697	-0.032252	0.544685
C335	C	-0.746962	-0.496972	0.064123
C336	C	-0.246962	0.003028	0.564123
C337	C	-0.753393	-0.493282	0.115194
C338	C	-0.253393	0.006718	0.615194
C339	C	-0.727558	-0.524873	0.146825
C340	C	-0.227558	-0.024873	0.646825
H341	H	-0.664977	-0.589960	0.061925
H342	H	-0.164977	-0.089960	0.561925
H343	H	-0.709936	-0.534984	0.006879
H344	H	-0.209936	-0.034984	0.506879
H345	H	-0.766086	-0.473587	0.040707
H346	H	-0.266086	0.026413	0.540707
H347	H	-0.777278	-0.467164	0.129585
H348	H	-0.277278	0.032836	0.629585
H349	H	-0.732319	-0.522140	0.184632
H350	H	-0.232319	-0.022140	0.684632
C351	C	-0.156195	-0.709551	0.381318
C352	C	0.343805	-0.209551	0.881318
C353	C	-0.175673	-0.744808	0.349071
C354	C	0.324327	-0.244808	0.849071
C355	C	-0.144077	-0.776433	0.323285
C356	C	0.355923	-0.276433	0.823285
C357	C	-0.093004	-0.772800	0.329746
C358	C	0.406996	-0.272800	0.829746
C359	C	-0.073524	-0.737542	0.361995
C360	C	0.426476	-0.237542	0.861995
C361	C	-0.105119	-0.705917	0.387781
C362	C	0.394881	-0.205917	0.887781
H363	H	-0.213483	-0.747498	0.344286
H364	H	0.286517	-0.247498	0.844286
H365	H	-0.158498	-0.802533	0.299412
H366	H	0.341502	-0.302533	0.799412
H367	H	-0.069615	-0.796211	0.310658
H368	H	0.430385	-0.296211	0.810658
H369	H	-0.035714	-0.734851	0.366780
H370	H	0.464286	-0.234851	0.866780
H371	H	-0.090698	-0.679817	0.411654
H372	H	0.409302	-0.179817	0.911654
H373	H	-0.603470	-0.568340	0.135590
H374	H	-0.103470	-0.068340	0.635590
C375	C	-0.737288	-0.738188	0.305716
C376	C	-0.237288	-0.238188	0.805716
C377	C	-0.743707	-0.789263	0.302109
C378	C	-0.243707	-0.289263	0.802109
C379	C	-0.717869	-0.820840	0.333751
C380	C	-0.217869	-0.320840	0.833751
C381	C	-0.685611	-0.801342	0.368999
C382	C	-0.185611	-0.301342	0.868999
C383	C	-0.679190	-0.750264	0.372607
C384	C	-0.179190	-0.250264	0.872607
C385	C	-0.705029	-0.718687	0.340965
C386	C	-0.205029	-0.218687	0.840965
H387	H	-0.767588	-0.803699	0.276015
H388	H	-0.267588	-0.303699	0.776015
H389	H	-0.722622	-0.858651	0.331080
H390	H	-0.222622	-0.358651	0.831080
H391	H	-0.666484	-0.824717	0.392423
H392	H	-0.166484	-0.324717	0.892423
H393	H	-0.655310	-0.735828	0.398702
H394	H	-0.155310	-0.235828	0.898702
H395	H	-0.700276	-0.680875	0.343636
H396	H	-0.200276	-0.180875	0.843636
H397	H	-0.135588	-0.730125	0.744604
H398	H	0.364412	-0.230125	1.244604
C399	C	-0.305735	-0.170509	0.305423
C400	C	0.194265	0.329491	0.805423
C401	C	-0.356798	-0.176945	0.301649
C402	C	0.143202	0.323055	0.801649
C403	C	-0.388462	-0.151153	0.333195
C404	C	0.111538	0.348847	0.833195
C405	C	-0.369062	-0.118924	0.368513
C406	C	0.130938	0.381076	0.868513
C407	C	-0.317996	-0.112487	0.372288
C408	C	0.182004	0.387513	0.872288
C409	C	-0.286332	-0.138279	0.340743
C410	C	0.213668	0.361721	0.840743
H411	H	-0.371162	-0.200804	0.275503
H412	H	0.128838	0.299196	0.775503
H413	H	-0.426265	-0.155919	0.330400
H414	H	0.073735	0.344081	0.830400
H415	H	-0.392502	-0.099831	0.391865
H416	H	0.107498	0.400169	0.891865
H417	H	-0.303633	-0.088628	0.398434
H418	H	0.196367	0.411372	0.898434
H419	H	-0.248529	-0.133513	0.343537
H420	H	0.251471	0.366487	0.843537
C421	C	-0.305734	-0.029751	0.305443
C422	C	0.194266	0.470249	0.805443
C423	C	-0.340973	0.002535	0.285911
C424	C	0.159027	0.502535	0.785911
C425	C	-0.372621	0.028345	0.317456
C426	C	0.127379	0.528345	0.817456
C427	C	-0.369031	0.021871	0.368535
C428	C	0.130969	0.521871	0.868535
C429	C	-0.333790	-0.010416	0.388070
C430	C	0.166210	0.489584	0.888070
C431	C	-0.302142	-0.036227	0.356524
C432	C	0.197858	0.463773	0.856524
H433	H	-0.343632	0.007329	0.248097
H434	H	0.156368	0.507329	0.748097
H435	H	-0.398709	0.052246	0.302995
H436	H	0.101291	0.552246	0.802995
H437	H	-0.392459	0.040978	0.391887
H438	H	0.107541	0.540978	0.891887
H439	H	-0.331131	-0.015210	0.425884
H440	H	0.168869	0.484790	0.925884
H441	H	-0.276055	-0.060128	0.370986
H442	H	0.223945	0.439872	0.870986
C443	C	-0.305512	-0.560057	0.597060
C444	C	0.194488	-0.060057	1.097060
C445	C	-0.340796	-0.579496	0.564806
C446	C	0.159204	-0.079496	1.064806
C447	C	-0.372406	-0.547866	0.538992
C448	C	0.127594	-0.047866	1.038992
C449	C	-0.368732	-0.496798	0.545432
C450	C	0.131268	0.003202	1.045432
C451	C	-0.333446	-0.477356	0.577687
C452	C	0.166554	0.022644	1.077687
C453	C	-0.301836	-0.508986	0.603501
C454	C	0.198164	-0.008986	1.103501
H455	H	-0.343517	-0.617302	0.560037
H456	H	0.156483	-0.117302	1.060037
H457	H	-0.398527	-0.562258	0.515114
H458	H	0.101473	-0.062258	1.015114
H459	H	-0.392132	-0.473384	0.526323
H460	H	0.107868	0.026616	1.026323
H461	H	-0.330725	-0.439550	0.582456
H462	H	0.169275	0.060450	1.082456
H463	H	-0.275715	-0.494594	0.627379
H464	H	0.224285	0.005406	1.127379
H465	H	-0.959868	-0.701340	0.268760
H466	H	-0.459868	-0.201340	0.768760
C467	C	-0.380923	-0.588801	0.156085
C468	C	0.119077	-0.088801	0.656085
C469	C	-0.329315	-0.588787	0.156084
C470	C	0.170685	-0.088787	0.656084
C471	C	-0.303548	-0.557193	0.124451
C472	C	0.196452	-0.057193	0.624451
C473	C	-0.329389	-0.525612	0.092819
C474	C	0.170611	-0.025612	0.592819
C475	C	-0.381000	-0.525624	0.092818
C476	C	0.119000	-0.025624	0.592818
C477	C	-0.406767	-0.557218	0.124451
C478	C	0.093233	-0.057218	0.624451
H479	H	-0.310183	-0.612167	0.179501
H480	H	0.189817	-0.112167	0.679501
H481	H	-0.265342	-0.557184	0.124451
H482	H	0.234658	-0.057184	0.624451
H483	H	-0.310315	-0.502224	0.069402
H484	H	0.189685	-0.002224	0.569402
H485	H	-0.400131	-0.502245	0.069401
H486	H	0.099869	-0.002245	0.569401
H487	H	-0.444972	-0.557227	0.124451
H488	H	0.055028	-0.057227	0.624451
H489	H	-1.044990	-0.701357	0.268772
H490	H	-0.544990	-0.201357	0.768772
H491	H	-0.268759	0.094256	0.268583
H492	H	0.231241	0.594256	0.768583
C493	C	-1.051840	-0.588978	0.156186
C494	C	-0.551840	-0.088978	0.656186
C495	C	-1.045411	-0.592676	0.105118
C496	C	-0.545411	-0.092676	0.605118
C497	C	-1.071252	-0.561096	0.073481
C498	C	-0.571252	-0.061096	0.573481
C499	C	-1.103523	-0.525818	0.092912
C500	C	-0.603523	-0.025818	0.592912
C501	C	-1.109953	-0.522118	0.143983
C502	C	-0.609953	-0.022118	0.643983
C503	C	-1.084112	-0.553698	0.175620
C504	C	-0.584112	-0.053698	0.675620
H505	H	-1.021521	-0.618792	0.090731
H506	H	-0.521521	-0.118792	0.590731
H507	H	-1.066492	-0.563835	0.035675
H508	H	-0.566492	-0.063835	0.535675
H509	H	-1.122652	-0.502440	0.069493
H510	H	-0.622652	-0.002440	0.569493
H511	H	-1.133843	-0.496002	0.158369
H512	H	-0.633843	0.003998	0.658369
H513	H	-1.088872	-0.550960	0.213426
H514	H	-0.588872	-0.050960	0.713426
H515	H	-0.164257	-0.701411	1.045537
H516	H	0.335743	-0.201411	1.545537
H517	H	-0.135573	-0.730130	0.829722
H518	H	0.364427	-0.230130	1.329722
H519	H	-0.135623	-0.730112	0.603857
H520	H	0.364377	-0.230112	1.103857
C521	C	-0.276941	-0.484844	0.276703
C522	C	0.223059	0.015156	0.776703
C523	C	-0.328007	-0.478363	0.272940
C524	C	0.171993	0.021637	0.772940
C525	C	-0.359660	-0.504165	0.304482
C526	C	0.140340	-0.004165	0.804482
C527	C	-0.340246	-0.536448	0.339787
C528	C	0.159754	-0.036448	0.839787
C529	C	-0.289178	-0.542930	0.343552
C530	C	0.210822	-0.042930	0.843552
C531	C	-0.257525	-0.517129	0.312010
C532	C	0.242475	-0.017129	0.812010
H533	H	-0.342380	-0.454465	0.246804
H534	H	0.157620	0.045535	0.746804
H535	H	-0.397464	-0.499366	0.301694
H536	H	0.102536	0.000634	0.801694
H537	H	-0.363677	-0.555548	0.363136
H538	H	0.136323	-0.055548	0.863136
H539	H	-0.274804	-0.566829	0.369688
H540	H	0.225196	-0.066829	0.869688
H541	H	-0.219721	-0.521928	0.314797
H542	H	0.280279	-0.021928	0.814797
H543	H	-0.268759	0.179378	0.268592
H544	H	0.231241	0.679378	0.768592
H545	H	-0.744228	-0.568387	0.135607
H546	H	-0.244228	-0.068387	0.635607
C547	C	-0.127333	-0.029752	0.127661
C548	C	0.372667	0.470248	0.627661
C549	C	-0.076268	-0.036236	0.131430
C550	C	0.423732	0.463764	0.631430
C551	C	-0.044610	-0.010438	0.099890
C552	C	0.455390	0.489562	0.599890
C553	C	-0.064018	0.021844	0.064581
C554	C	0.435982	0.521844	0.564581
C555	C	-0.115086	0.028329	0.060810
C556	C	0.384914	0.528329	0.560810
C557	C	-0.146743	0.002531	0.092350
C558	C	0.353257	0.502531	0.592350
H559	H	-0.061899	-0.060134	0.157570
H560	H	0.438101	0.439866	0.657570
H561	H	-0.006806	-0.015239	0.102682
H562	H	0.493194	0.484761	0.602682
H563	H	-0.040583	0.040941	0.041233
H564	H	0.459417	0.540941	0.541233
H565	H	-0.129455	0.052227	0.034671
H566	H	0.370545	0.552227	0.534671
H567	H	-0.184547	0.007332	0.089559
H568	H	0.315453	0.507332	0.589559
C569	C	-0.305457	-0.560085	0.836330
C570	C	0.194543	-0.060085	1.336330
C571	C	-0.356531	-0.563704	0.829868
C572	C	0.143469	-0.063704	1.329868
C573	C	-0.388119	-0.532066	0.855647
C574	C	0.111881	-0.032066	1.355647
C575	C	-0.368632	-0.496808	0.887889
C576	C	0.131368	0.003192	1.387889
C577	C	-0.317555	-0.493188	0.894353
C578	C	0.182445	0.006812	1.394353
C579	C	-0.285968	-0.524826	0.868574
C580	C	0.214032	-0.024826	1.368574
H581	H	-0.370959	-0.589804	0.805999
H582	H	0.129041	-0.089804	1.305999
H583	H	-0.425929	-0.534746	0.850862
H584	H	0.074071	-0.034746	1.350862
H585	H	-0.392015	-0.473388	0.906972
H586	H	0.107985	0.026612	1.406972
H587	H	-0.303127	-0.467087	0.918221
H588	H	0.196873	0.032913	1.418221
H589	H	-0.248157	-0.522146	0.873359
H590	H	0.251843	-0.022146	1.373359
C591	C	-0.835812	-0.738209	0.305729
C592	C	-0.335812	-0.238209	0.805729
C593	C	-0.868055	-0.773498	0.286306
C594	C	-0.368055	-0.273498	0.786306
C595	C	-0.893824	-0.805080	0.317949
C596	C	-0.393824	-0.305080	0.817949
C597	C	-0.887349	-0.801374	0.369016
C598	C	-0.387349	-0.301374	0.869016
C599	C	-0.855104	-0.766084	0.388442
C600	C	-0.355104	-0.266084	0.888442
C601	C	-0.829335	-0.734502	0.356799
C602	C	-0.329335	-0.234502	0.856799
H603	H	-0.872850	-0.776242	0.248500
H604	H	-0.372850	-0.276242	0.748500
H605	H	-0.917694	-0.831204	0.303568
H606	H	-0.417694	-0.331204	0.803568
H607	H	-0.906424	-0.824754	0.392440
H608	H	-0.406424	-0.324754	0.892440
H609	H	-0.850309	-0.763340	0.426247
H610	H	-0.350309	-0.263340	0.926247
H611	H	-0.805466	-0.708378	0.371179
H612	H	-0.305466	-0.208378	0.871179
H613	H	-0.268497	-0.597090	1.045476
H614	H	0.231503	-0.097090	1.545476
C615	C	-0.479275	-0.709418	0.276906
C616	C	0.020725	-0.209418	0.776906
C617	C	-0.472782	-0.760490	0.273289
C618	C	0.027218	-0.260490	0.773289
C619	C	-0.498535	-0.792085	0.304933
C620	C	0.001465	-0.292085	0.804933
C621	C	-0.530782	-0.772608	0.340194
C622	C	-0.030782	-0.272608	0.840194
C623	C	-0.537277	-0.721534	0.343812
C624	C	-0.037277	-0.221534	0.843812
C625	C	-0.511523	-0.689939	0.312168
C626	C	-0.011523	-0.189939	0.812168
H627	H	-0.448910	-0.774910	0.247186
H628	H	0.051090	-0.274910	0.747186
H629	H	-0.493727	-0.829893	0.302255
H630	H	0.006273	-0.329893	0.802255
H631	H	-0.549846	-0.795996	0.363619
H632	H	-0.049846	-0.295996	0.863619
H633	H	-0.561149	-0.707114	0.369915
H634	H	-0.061149	-0.207114	0.869915
H635	H	-0.516332	-0.652130	0.314847
H636	H	-0.016332	-0.152130	0.814847
C637	C	-0.305485	-0.560080	0.737822
C638	C	0.194515	-0.060080	1.237822
C639	C	-0.301810	-0.509012	0.744269
C640	C	0.198190	-0.009012	1.244269
C641	C	-0.333422	-0.477379	0.718463
C642	C	0.166578	0.022621	1.218463
C643	C	-0.368710	-0.496812	0.686209
C644	C	0.131290	0.003188	1.186209
C645	C	-0.372387	-0.547882	0.679761
C646	C	0.127613	-0.047882	1.179761
C647	C	-0.340774	-0.579516	0.705567
C648	C	0.159226	-0.079516	1.205567
H649	H	-0.275687	-0.494624	0.768146
H650	H	0.224313	0.005376	1.268146
H651	H	-0.330700	-0.439573	0.723237
H652	H	0.169300	0.060427	1.223237
H653	H	-0.392112	-0.473395	0.667106
H654	H	0.107888	0.026605	1.167106
H655	H	-0.398510	-0.562270	0.655883
H656	H	0.101490	-0.062270	1.155883
H657	H	-0.343496	-0.617321	0.700793
H658	H	0.156504	-0.117321	1.200793
H659	H	-0.829334	-0.568408	0.135619
H660	H	-0.329334	-0.068408	0.635619
H661	H	-0.135551	-0.121561	0.135843
H662	H	0.364449	0.378439	0.635843
C663	C	-0.127395	-0.738337	0.695671
C664	C	0.372605	-0.238337	1.195671
C665	C	-0.092109	-0.718910	0.727929
C666	C	0.407891	-0.218910	1.227929
C667	C	-0.060505	-0.750548	0.753740
C668	C	0.439495	-0.250548	1.253740
C669	C	-0.064187	-0.801615	0.747293
C670	C	0.435813	-0.301615	1.247293
C671	C	-0.099475	-0.821045	0.715033
C672	C	0.400525	-0.321045	1.215033
C673	C	-0.131079	-0.789407	0.689222
C674	C	0.368921	-0.289407	1.189222
H675	H	-0.089381	-0.681105	0.732704
H676	H	0.410619	-0.181105	1.232704
H677	H	-0.034383	-0.736164	0.777621
H678	H	0.465617	-0.236164	1.277621
H679	H	-0.040792	-0.825036	0.766399
H680	H	0.459208	-0.325036	1.266399
H681	H	-0.102202	-0.858850	0.710258
H682	H	0.397798	-0.358850	1.210258
H683	H	-0.157201	-0.803791	0.665341
H684	H	0.342799	-0.303791	1.165341
C685	C	-0.156065	-0.709618	0.953714
C686	C	0.343935	-0.209618	1.453714
C687	C	-0.104993	-0.705987	0.960182
C688	C	0.395007	-0.205987	1.460182
C689	C	-0.073395	-0.737612	0.934399
C690	C	0.426605	-0.237612	1.434399
C691	C	-0.092869	-0.772867	0.902148
C692	C	0.407131	-0.272867	1.402148
C693	C	-0.143945	-0.776499	0.895678
C694	C	0.356055	-0.276499	1.395678
C695	C	-0.175543	-0.744875	0.921461
C696	C	0.324457	-0.244875	1.421461
H697	H	-0.090574	-0.679888	0.984058
H698	H	0.409426	-0.179888	1.484058
H699	H	-0.035585	-0.734923	0.939189
H700	H	0.464415	-0.234923	1.439189
H701	H	-0.069478	-0.796277	0.883062
H702	H	0.430522	-0.296277	1.383062
H703	H	-0.158363	-0.802598	0.871802
H704	H	0.341637	-0.302598	1.371802
H705	H	-0.213352	-0.747564	0.916672
H706	H	0.286648	-0.247564	1.416672
C707	C	-0.156087	-0.386313	0.156280
C708	C	0.343913	0.113687	0.656280
C709	C	-0.175492	-0.354028	0.120973
C710	C	0.324508	0.145972	0.620973
C711	C	-0.143833	-0.328229	0.089435
C712	C	0.356167	0.171771	0.589435
C713	C	-0.092768	-0.334716	0.093205
C714	C	0.407232	0.165284	0.593205
C715	C	-0.073360	-0.367003	0.128513
C716	C	0.426640	0.132997	0.628513
C717	C	-0.105019	-0.392801	0.160051
C718	C	0.394981	0.107199	0.660051
H719	H	-0.213296	-0.349224	0.118182
H720	H	0.286704	0.150776	0.618182
H721	H	-0.158201	-0.304329	0.063298
H722	H	0.341799	0.195671	0.563298
H723	H	-0.069332	-0.315619	0.069858
H724	H	0.430668	0.184381	0.569858
H725	H	-0.035556	-0.371806	0.131305
H726	H	0.464444	0.128194	0.631305
H727	H	-0.090652	-0.416702	0.186189
H728	H	0.409348	0.083298	0.686189
C729	C	-0.276948	-0.386326	0.276721
C730	C	0.223052	0.113674	0.776721
C731	C	-0.328013	-0.392756	0.272949
C732	C	0.171987	0.107244	0.772949
C733	C	-0.359673	-0.366961	0.304495
C734	C	0.140327	0.133039	0.804495
C735	C	-0.340269	-0.334735	0.339814
C736	C	0.159731	0.165265	0.839814
C737	C	-0.289202	-0.328303	0.343588
C738	C	0.210798	0.171697	0.843588
C739	C	-0.257541	-0.354099	0.312042
C740	C	0.242459	0.145901	0.812042
H741	H	-0.342379	-0.416613	0.246802
H742	H	0.157621	0.083387	0.746802
H743	H	-0.397476	-0.371722	0.301701
H744	H	0.102524	0.128278	0.801701
H745	H	-0.363706	-0.315640	0.363166
H746	H	0.136294	0.184360	0.863166
H747	H	-0.274836	-0.304446	0.369734
H748	H	0.225164	0.195554	0.869734
H749	H	-0.219738	-0.349337	0.314836
H750	H	0.280262	0.150663	0.814836
H751	H	-0.603255	-0.729954	0.297470
H752	H	-0.103255	-0.229954	0.797470
C753	C	-0.156131	0.186078	0.156347
C754	C	0.343869	0.686078	0.656347
C755	C	-0.124480	0.160270	0.124805
C756	C	0.375520	0.660270	0.624805
C757	C	-0.092828	0.186069	0.093261
C758	C	0.407172	0.686069	0.593261
C759	C	-0.092827	0.237677	0.093258
C760	C	0.407173	0.737677	0.593258
C761	C	-0.124480	0.263488	0.124801
C762	C	0.375520	0.763488	0.624801
C763	C	-0.156132	0.237689	0.156345
C764	C	0.343868	0.737689	0.656345
H765	H	-0.124479	0.122064	0.124806
H766	H	0.375521	0.622064	0.624806
H767	H	-0.069397	0.166962	0.069911
H768	H	0.430603	0.666962	0.569911
H769	H	-0.069397	0.256775	0.069907
H770	H	0.430603	0.756775	0.569907
H771	H	-0.124480	0.301694	0.124800
H772	H	0.375520	0.801694	0.624800
H773	H	-0.179563	0.256796	0.179695
H774	H	0.320437	0.756796	0.679695
C775	C	-0.127316	-0.170511	0.127641
C776	C	0.372684	0.329489	0.627641
C777	C	-0.076251	-0.176996	0.131408
C778	C	0.423749	0.323004	0.631408
C779	C	-0.044594	-0.151206	0.099861
C780	C	0.455406	0.348794	0.599861
C781	C	-0.064003	-0.118931	0.064547
C782	C	0.435997	0.381069	0.564547
C783	C	-0.115071	-0.112444	0.060778
C784	C	0.384929	0.387556	0.560778
C785	C	-0.146727	-0.138234	0.092325
C786	C	0.353273	0.361766	0.592325
H787	H	-0.061881	-0.200889	0.157552
H788	H	0.438119	0.299111	0.657552
H789	H	-0.006790	-0.156008	0.102651
H790	H	0.493210	0.343992	0.602651
H791	H	-0.040569	-0.099839	0.041194
H792	H	0.459431	0.400161	0.541194
H793	H	-0.129441	-0.088551	0.034635
H794	H	0.370559	0.411449	0.534635
H795	H	-0.184531	-0.133432	0.089535
H796	H	0.315469	0.366568	0.589535
H797	H	-0.268511	-0.597073	0.960368
H798	H	0.231489	-0.097073	1.460368
H799	H	-0.297285	-0.568280	0.688876
H800	H	0.202715	-0.068280	1.188876
H801	H	-0.688362	-0.729974	0.297486
H802	H	-0.188362	-0.229974	0.797486
H803	H	-0.297506	-0.262317	0.297218
H804	H	0.202494	0.237683	0.797218
H805	H	-0.268637	-0.597013	0.387964
H806	H	0.231363	-0.097013	0.887964
H807	H	-0.164339	0.094265	0.164534
H808	H	0.335661	0.594265	0.664534
H809	H	-0.135529	-0.262320	0.135834
H810	H	0.364471	0.237680	0.635834
H811	H	-0.164309	-0.478139	0.164463
H812	H	0.335691	0.021861	0.664463
H813	H	-0.297512	-0.121570	0.297238
H814	H	0.202488	0.378430	0.797238
