data_functionalizedCrystal
_audit_creation_method	'MofGen! by Chris Wilmer'
_symmetry_space_group_name_H-M	'P1'
_symmetry_Int_Tables_number	1
_symmetry_cell_setting	triclinic
loop_
_symmetry_equiv_pos_as_xyz
  x,y,z
_cell_length_a	21.395362
_cell_length_b	18.101395
_cell_length_c	18.101389
_cell_angle_alpha	89.983159
_cell_angle_beta	89.961604
_cell_angle_gamma	90.046983
loop_
_atom_site_label
_atom_site_type_symbol
_atom_site_fract_x
_atom_site_fract_y
_atom_site_fract_z
Zn1	Zn	0.957823	-0.294593	-0.419125
Zn2	Zn	0.957735	-0.418419	-0.295287
Zn3	Zn	0.853049	-0.294630	-0.295256
Zn4	Zn	0.853007	-0.418432	-0.419045
O5	O	0.905404	-0.356519	-0.357178
O6	O	1.045490	-0.310998	-0.402744
O7	O	0.943829	-0.402008	-0.191650
O8	O	0.867001	-0.190992	-0.311708
O9	O	1.045425	-0.401973	-0.311761
O10	O	0.943979	-0.190965	-0.402714
O11	O	0.866916	-0.311061	-0.191627
O12	O	0.765365	-0.311074	-0.311630
O13	O	0.866930	-0.401994	-0.522689
O14	O	0.765334	-0.402030	-0.402578
O15	O	0.943939	-0.311011	-0.522747
O16	O	0.943789	-0.522054	-0.311683
O17	O	0.866845	-0.522063	-0.402608
C18	C	0.742616	-0.356558	-0.357092
C19	C	0.672975	-0.356592	-0.357073
C20	C	0.905320	-0.548929	-0.357156
C21	C	0.905341	-0.631243	-0.357172
C22	C	0.640262	-0.404016	-0.404358
C23	C	0.574827	-0.403998	-0.404391
C24	C	0.542106	-0.356564	-0.357126
C25	C	0.574827	-0.309131	-0.309837
C26	C	0.640261	-0.309145	-0.309811
C27	C	0.438387	-0.350599	-0.290456
C28	C	0.372954	-0.350590	-0.290481
C29	C	0.340286	-0.356516	-0.357208
C30	C	0.373058	-0.362466	-0.423911
C31	C	0.438492	-0.362480	-0.423884
C32	C	0.471154	-0.356543	-0.357149
C33	C	0.236620	-0.403922	-0.404533
C34	C	0.171184	-0.403899	-0.404567
C35	C	0.171185	-0.309036	-0.310006
C36	C	0.236621	-0.309055	-0.309978
C37	C	0.269334	-0.356502	-0.357241
C38	C	0.905479	-0.930334	-0.357212
C39	C	0.857180	-0.899046	-0.414561
C40	C	0.856951	-0.813428	-0.414382
C41	C	0.905410	-0.781952	-0.357193
C42	C	0.887534	-0.813095	-0.279136
C43	C	0.887223	-0.898740	-0.279479
C44	C	0.971759	-0.898660	-0.377232
C45	C	0.971369	-0.813009	-0.378943
C46	C	0.905373	-0.698092	-0.357177
C47	C	0.905515	-1.014194	-0.357222
C48	C	1.068827	-0.356480	-0.357265
C49	C	1.138468	-0.356463	-0.357302
C50	C	0.905440	-0.356500	-0.550340
C51	C	0.905455	-0.356492	-0.632654
C52	C	0.905505	-0.163357	-0.357216
C53	C	0.905548	-0.081043	-0.357232
C54	C	0.905492	-0.356353	-0.931745
C55	C	0.856873	-0.413416	-0.900383
C56	C	0.857005	-0.413680	-0.814765
C57	C	0.905473	-0.356422	-0.783363
C58	C	0.971486	-0.377584	-0.814488
C59	C	0.971215	-0.377959	-0.900133
C60	C	0.888671	-0.278001	-0.900163
C61	C	0.887202	-0.278454	-0.814511
C62	C	0.905467	-0.356460	-0.699503
C63	C	0.905503	-0.356317	-1.015605
C64	C	0.905404	-0.356484	-0.164768
C65	C	0.905510	-0.356283	-0.082454
H66	H	0.666893	-0.442651	-0.442844
Cl67	Cl	0.781065	-0.393182	-0.932136
Cl68	Cl	0.781099	-0.781912	-0.393907
H69	H	0.984850	-0.792652	-0.436389
Cl70	Cl	0.331997	-0.369911	-0.507802
Cl71	Cl	1.029870	-0.779916	-0.319162
Cl72	Cl	0.815642	-0.248228	-0.933463
H73	H	0.838772	-0.918796	-0.262523
H74	H	1.008683	-0.337328	-0.794152
Cl75	Cl	0.277748	-0.249435	-0.250528
Cl76	Cl	1.029004	-0.316534	-0.932173
Cl77	Cl	0.781428	-0.393235	-0.782266
Cl78	Cl	0.993885	-0.465074	-0.781395
Cl79	Cl	0.874215	-0.780914	-0.503741
Cl80	Cl	0.813521	-0.780104	-0.252487
H81	H	1.007743	-0.918890	-0.335463
H82	H	0.867868	-0.471139	-0.921913
H83	H	0.666895	-0.270525	-0.271305
Cl84	Cl	0.939171	-0.930700	-0.211251
Cl85	Cl	0.996922	-0.931934	-0.463616
Cl86	Cl	0.874271	-0.930783	-0.504212
H87	H	0.808350	-0.920646	-0.401464
H88	H	0.985475	-0.435235	-0.920122
H89	H	0.921606	-0.792705	-0.235240
H90	H	0.924083	-0.235487	-0.920448
H91	H	0.868110	-0.471758	-0.794287
H92	H	0.263257	-0.442553	-0.443020
Cl93	Cl	0.812195	-0.253816	-0.783108
H94	H	0.548187	-0.442616	-0.442900
Cl95	Cl	0.479690	-0.369955	-0.507736
H96	H	0.144550	-0.442516	-0.443077
Cl97	Cl	0.130058	-0.249399	-0.250590
H98	H	0.346276	-0.345750	-0.236167
Cl99	Cl	0.937892	-0.209332	-0.781521
Cl100	Cl	0.479449	-0.343152	-0.206563
Cl101	Cl	0.533694	-0.249496	-0.250421
