data_functionalizedCrystal
_audit_creation_method	'MofGen! by Chris Wilmer'
_symmetry_space_group_name_H-M	'P1'
_symmetry_Int_Tables_number	1
_symmetry_cell_setting	triclinic
loop_
_symmetry_equiv_pos_as_xyz
  x,y,z
_cell_length_a	8.634740
_cell_length_b	19.188930
_cell_length_c	7.088929
_cell_angle_alpha	96.207648
_cell_angle_beta	82.825325
_cell_angle_gamma	91.857544
loop_
_atom_site_label
_atom_site_type_symbol
_atom_site_fract_x
_atom_site_fract_y
_atom_site_fract_z
O1	O	2.028648	0.233647	0.159056
O2	O	1.579826	0.214567	0.159053
O3	O	1.817193	0.123339	0.159017
O4	O	1.791281	0.324875	0.159092
O5	O	1.848915	0.111115	-0.158963
O6	O	1.611548	0.202343	-0.158927
O7	O	2.060370	0.221423	-0.158924
Cu8	Cu	1.838855	0.210767	-0.187959
Cu9	Cu	1.801341	0.225223	0.188089
O10	O	1.823003	0.312651	-0.158888
C11	C	1.538266	0.204133	0.000062
C12	C	1.367169	0.191245	0.000059
C13	C	1.832215	0.091158	0.000022
C14	C	1.829699	0.013480	0.000005
C15	C	1.968977	-0.021882	-0.000003
C16	C	1.966608	-0.094867	0.000028
C17	C	1.824957	-0.132489	0.000028
C18	C	1.685660	-0.097117	0.000047
C19	C	1.688031	-0.024133	0.000036
N20	N	1.727478	-0.252087	-0.108187
N21	N	1.725235	-0.321420	-0.108180
C22	C	1.817805	-0.352386	0.000067
N23	N	1.912728	-0.311403	0.108283
N24	N	1.914975	-0.242064	0.108268
C25	C	1.822371	-0.211628	0.000042
C26	C	1.954524	-0.466887	0.000095
C27	C	1.952148	-0.539873	0.000137
C28	C	1.671197	-0.542123	0.000137
C29	C	1.673575	-0.469138	0.000114
C30	C	1.815244	-0.431524	0.000084
C31	C	2.101930	0.231857	0.000071
C32	C	2.273025	0.244745	0.000087
C33	C	1.807980	0.344832	0.000112
C34	C	1.810495	0.422510	0.000141
N35	N	1.865253	0.200599	-0.452451
N36	N	1.774956	0.235386	0.452581
H37	H	2.084334	0.008739	-0.000021
H38	H	1.323319	0.300407	0.000090
O39	O	1.307334	0.124813	0.000299
C40	C	1.273477	0.020896	0.165065
C41	C	1.341351	0.096114	0.165007
H42	H	1.300926	-0.002324	0.298236
H43	H	1.327583	-0.012649	0.032070
H44	H	1.141560	0.021997	0.164984
H45	H	1.473263	0.095080	0.165155
H46	H	1.287125	0.129628	0.297990
O47	O	2.092127	-0.430328	-0.000248
C48	C	2.274257	-0.352936	-0.164936
C49	C	2.118409	-0.394314	-0.164813
H50	H	2.295539	-0.323797	-0.297953
H51	H	2.373469	-0.390725	-0.165040
H52	H	2.269084	-0.313612	-0.031811
H53	H	2.123429	-0.433639	-0.297916
H54	H	2.019262	-0.356483	-0.164610
H55	H	1.555861	-0.572753	0.000147
O56	O	1.538148	-0.434896	0.000012
C57	C	1.259228	-0.444828	0.000122
C58	C	1.412496	-0.483695	0.000186
H59	H	1.157595	-0.484263	0.000303
H60	H	1.266488	-0.415862	-0.132990
H61	H	1.240126	-0.405570	0.133158
H62	H	1.431692	-0.522987	-0.132760
H63	H	1.405163	-0.512614	0.133387
H64	H	2.065569	-0.568663	0.000141
H65	H	2.080028	-0.123664	0.000029
H66	H	1.570326	-0.127753	0.000052
H67	H	1.574610	0.004658	0.000042
H68	H	1.681373	0.271434	-0.465759
H69	H	1.958852	0.164554	-0.534121
