data_functionalizedCrystal
_audit_creation_method	'MofGen! by Chris Wilmer'
_symmetry_space_group_name_H-M	'P1'
_symmetry_Int_Tables_number	1
_symmetry_cell_setting	triclinic
loop_
_symmetry_equiv_pos_as_xyz
  x,y,z
_cell_length_a	14.044191
_cell_length_b	17.019294
_cell_length_c	13.101039
_cell_angle_alpha	89.487532
_cell_angle_beta	86.337551
_cell_angle_gamma	88.281862
loop_
_atom_site_label
_atom_site_type_symbol
_atom_site_fract_x
_atom_site_fract_y
_atom_site_fract_z
O1	O	1.263670	0.185438	-0.101525
O2	O	0.987674	0.178598	-0.100934
O3	O	1.132755	0.068197	-0.091181
O4	O	1.118589	0.295839	-0.111278
O5	O	1.122346	0.076133	0.078548
O6	O	0.977265	0.186533	0.068795
O7	O	1.253261	0.193374	0.068204
Zn8	Zn	1.113610	0.191213	0.095447
Zn9	Zn	1.127325	0.180758	-0.128178
O10	O	1.108180	0.303774	0.058450
C11	C	0.947143	0.179574	-0.015807
C12	C	0.841881	0.170648	-0.015025
C13	C	1.126808	0.042856	-0.003731
C14	C	1.124585	-0.044478	0.003972
C15	C	0.591784	0.217630	-0.019162
C16	C	0.649157	0.154344	-0.013577
C17	C	0.756398	0.163418	-0.014383
C18	C	0.484533	0.208558	-0.018357
C19	C	1.129216	-0.089828	-0.084927
C20	C	1.127121	-0.171887	-0.077686
C21	C	1.120401	-0.208594	0.018456
C22	C	1.115766	-0.163237	0.107362
C23	C	1.117854	-0.081180	0.100120
C24	C	1.113804	-0.456137	0.044952
C25	C	1.111719	-0.538201	0.052188
C26	C	1.123073	-0.546845	-0.132861
C27	C	1.125166	-0.464786	-0.140095
C28	C	1.120526	-0.419436	-0.051189
C29	C	1.118262	-0.292471	0.025860
C30	C	1.122658	-0.335560	-0.058594
C31	C	1.293792	0.192398	-0.016925
C32	C	1.399054	0.201323	-0.017714
C33	C	1.114127	0.329116	-0.029001
C34	C	1.116351	0.416449	-0.036712
N35	N	1.104257	0.198349	0.248066
N36	N	1.136685	0.173617	-0.280795
C37	C	1.091532	0.208064	0.456250
C38	C	1.149407	0.163904	0.511027
C39	C	1.142327	0.169310	0.626868
C40	C	1.098611	0.202659	0.340398
H41	H	0.617739	0.093346	-0.008264
H42	H	1.112793	-0.322367	0.104139
C43	C	0.633862	0.298887	-0.026399
C44	C	0.733410	0.291842	-0.025810
C45	C	0.772217	0.366677	-0.032492
H46	H	0.609668	0.329458	0.030315
H47	H	0.616864	0.323855	-0.088063
H48	H	0.750399	0.266885	0.035847
H49	H	0.757630	0.261285	-0.082521
H50	H	0.755220	0.391645	-0.094156
H51	H	0.748016	0.397242	0.024224
H52	H	0.839764	0.361906	-0.032102
H53	H	1.134694	-0.059948	-0.163216
C54	C	1.129911	-0.295855	-0.163069
C55	C	1.133502	-0.353129	-0.239383
C56	C	1.140176	-0.316574	-0.335637
H57	H	1.186187	-0.266143	-0.169686
H58	H	1.075711	-0.261926	-0.169984
H59	H	1.187698	-0.387045	-0.232471
H60	H	1.077233	-0.382844	-0.232799
H61	H	1.085975	-0.282645	-0.342552
H62	H	1.196451	-0.286864	-0.342243
H63	H	1.142604	-0.355429	-0.387427
H64	H	1.204274	0.122038	0.470923
C65	C	1.018478	0.263873	0.509900
C66	C	1.025920	0.258227	0.615794
C67	C	0.958651	0.309635	0.665262
H68	H	0.956133	0.250229	0.493718
H69	H	1.030156	0.316226	0.487817
H70	H	1.014235	0.205885	0.637870
H71	H	1.088250	0.271878	0.632006
H72	H	0.970330	0.361989	0.643178
H73	H	0.896312	0.295987	0.649072
H74	H	0.963698	0.305817	0.737115
C75	C	1.112632	-0.031887	0.196601
C76	C	1.031998	0.018581	0.197571
C77	C	1.027143	0.063994	0.286440
H78	H	1.168371	-0.001740	0.197906
H79	H	1.108278	-0.065467	0.254929
H80	H	1.036360	0.052157	0.139259
H81	H	0.976245	-0.011546	0.196282
H82	H	1.022789	0.030414	0.344768
H83	H	1.082885	0.094137	0.287737
H84	H	0.972429	0.098237	0.287114
C85	C	1.127935	-0.595987	-0.229460
C86	C	1.050383	-0.575491	-0.287311
C87	C	1.054823	-0.620740	-0.376311
H88	H	1.125680	-0.650129	-0.211512
H89	H	1.185809	-0.586430	-0.268549
H90	H	0.992523	-0.585054	-0.248229
H91	H	1.052622	-0.521357	-0.305285
H92	H	1.112697	-0.611183	-0.415400
H93	H	1.052570	-0.674879	-0.358354
H94	H	1.002211	-0.606834	-0.415578
H95	H	1.130640	-0.434905	-0.218384
C96	C	1.104366	-0.577907	0.156671
C97	C	1.100723	-0.520629	0.232982
C98	C	1.093938	-0.557177	0.329237
H99	H	1.158524	-0.611849	0.163679
H100	H	1.048060	-0.607603	0.163198
H101	H	1.157022	-0.490946	0.226458
H102	H	1.046566	-0.486684	0.226008
H103	H	1.037633	-0.586873	0.335764
H104	H	1.148099	-0.591118	0.336235
H105	H	1.091457	-0.518319	0.381026
H106	H	1.130897	-0.208808	-0.150077
C107	C	1.108589	-0.406869	0.141448
C108	C	1.027959	-0.356396	0.142453
C109	C	1.023120	-0.311006	0.231343
H110	H	1.164331	-0.376726	0.142756
H111	H	1.104242	-0.440464	0.199761
H112	H	1.032314	-0.322805	0.084156
H113	H	0.972203	-0.386518	0.141161
H114	H	1.018773	-0.344601	0.289656
H115	H	1.078866	-0.280868	0.232643
H116	H	0.968409	-0.276760	0.232041
H117	H	1.110288	-0.193130	0.185643
