data_functionalizedCrystal
_audit_creation_method	'MofGen! by Chris Wilmer'
_symmetry_space_group_name_H-M	'P1'
_symmetry_Int_Tables_number	1
_symmetry_cell_setting	triclinic
loop_
_symmetry_equiv_pos_as_xyz
  x,y,z
_cell_length_a	6.817900
_cell_length_b	11.353959
_cell_length_c	16.015572
_cell_angle_alpha	88.358035
_cell_angle_beta	104.485554
_cell_angle_gamma	107.526623
loop_
_atom_site_label
_atom_site_type_symbol
_atom_site_fract_x
_atom_site_fract_y
_atom_site_fract_z
V1	V	-4.001620	-0.049215	-0.276797
O2	O	-3.954274	0.125442	-0.245393
O3	O	-3.987296	-0.215956	-0.300039
O4	O	-3.926749	0.005546	-0.386050
O5	O	-4.015240	-0.097594	-0.158787
V6	V	-4.484263	-0.034705	-0.259629
O7	O	-4.264810	-0.081044	-0.314457
O8	O	-4.671271	-0.002876	-0.221968
O9	O	-4.275381	0.132036	-0.236386
O10	O	-4.649005	-0.209362	-0.291032
O11	O	-4.588040	0.013673	-0.377639
O12	O	-4.335928	-0.089466	-0.150375
C13	C	-3.841442	-0.258291	-0.302158
C14	C	-3.910841	-0.394256	-0.321890
C15	C	-3.916768	-0.471700	-0.258023
C16	C	-3.988494	-0.612228	-0.278415
C17	C	-3.764208	0.024257	-0.411873
C18	C	-3.784502	0.067927	-0.501353
C19	C	-4.152349	-0.319686	-0.937299
C20	C	-4.171414	-0.278612	-1.021369
C21	C	-4.050999	-0.066108	-0.964693
C22	C	-4.031913	-0.107164	-0.880616
C23	C	-4.082594	-0.233955	-0.866927
C24	C	-3.962158	-0.021433	-0.810244
C25	C	-3.943085	-0.062487	-0.726174
C26	C	-3.993766	-0.189272	-0.712477
C27	C	-4.063521	-0.275008	-0.782858
C28	C	-3.911492	0.105356	-0.823935
C29	C	-3.841737	0.191088	-0.753563
C30	C	-3.822648	0.150035	-0.669491
C31	C	-3.873330	0.023250	-0.655794
C32	C	-3.752893	0.235771	-0.599111
C33	C	-3.733820	0.194718	-0.515042
C34	C	-3.854256	-0.017804	-0.571725
C35	C	-4.084578	0.174363	-0.234266
C36	C	-3.994417	0.310330	-0.214540
C37	C	-4.161812	-0.108184	-0.124549
C38	C	-4.120756	-0.151848	-0.035067
H39	H	-3.946399	-0.651944	-0.144760
Cl40	Cl	-4.062655	-0.670469	-0.386152
H41	H	-3.958874	-0.431991	-0.391665
H42	H	-3.895499	-0.121048	-0.560579
H43	H	-3.800485	0.294321	-0.764721
H44	H	-3.711655	0.339004	-0.610271
Cl45	Cl	-3.646214	0.302493	-0.426572
H46	H	-3.978239	-0.222696	-0.644022
H47	H	-4.104763	-0.378253	-0.771712
Cl48	Cl	-4.216016	-0.479082	-0.920082
H49	H	-4.228210	-0.348434	-1.078668
Cl50	Cl	-3.987291	0.093280	-0.981912
Cl51	Cl	-3.935488	0.156966	-0.929624
H52	H	-3.868753	-0.433966	-0.188249
