data_functionalizedCrystal
_audit_creation_method	'MofGen! by Chris Wilmer'
_symmetry_space_group_name_H-M	'P1'
_symmetry_Int_Tables_number	1
_symmetry_cell_setting	triclinic
loop_
_symmetry_equiv_pos_as_xyz
  x,y,z
_cell_length_a	16.625546
_cell_length_b	17.077404
_cell_length_c	17.077396
_cell_angle_alpha	89.981638
_cell_angle_beta	89.969785
_cell_angle_gamma	90.020438
loop_
_atom_site_label
_atom_site_type_symbol
_atom_site_fract_x
_atom_site_fract_y
_atom_site_fract_z
Zn1	Zn	-0.321045	1.200057	-0.443809
Zn2	Zn	0.178955	1.700057	0.056191
Zn3	Zn	-0.455888	1.199965	-0.312539
Zn4	Zn	0.044112	1.699965	0.187461
Zn5	Zn	-0.321068	1.068789	-0.312560
Zn6	Zn	0.178932	1.568789	0.187440
Zn7	Zn	-0.455835	1.068758	-0.443766
Zn8	Zn	0.044165	1.568758	0.056234
O9	O	-0.388459	1.134392	-0.378169
O10	O	0.111541	1.634392	0.121831
O11	O	-0.338945	1.309892	-0.426406
O12	O	0.161055	1.809892	0.073594
O13	O	-0.438036	1.182539	-0.202695
O14	O	0.061964	1.682539	0.297305
O15	O	-0.208233	1.086253	-0.329997
O16	O	0.291767	1.586253	0.170003
O17	O	-0.438013	1.309824	-0.329962
O18	O	0.061987	1.809824	0.170038
O19	O	-0.208216	1.182695	-0.426426
O20	O	0.291784	1.682695	0.073574
O21	O	-0.338984	1.086164	-0.202710
O22	O	0.161016	1.586164	0.297290
O23	O	-0.338933	0.958938	-0.329955
O24	O	0.161067	1.458938	0.170045
O25	O	-0.437923	1.086200	-0.553618
O26	O	0.062077	1.586200	-0.053618
O27	O	-0.437945	0.958915	-0.426351
O28	O	0.062055	1.458915	0.073649
O29	O	-0.338894	1.182665	-0.553651
O30	O	0.161106	1.682665	-0.053651
O31	O	-0.568713	1.182509	-0.329920
O32	O	-0.068713	1.682509	0.170080
O33	O	-0.568674	1.086111	-0.426331
O34	O	-0.068674	1.586111	0.073669
C35	C	-0.388436	0.930444	-0.378151
C36	C	0.111564	1.430444	0.121849
C37	C	-0.388446	0.843194	-0.378162
C38	C	0.111554	1.343194	0.121838
C39	C	-0.336953	0.802240	-0.428457
C40	C	0.163047	1.302240	0.071543
C41	C	-0.336958	0.720260	-0.428460
C42	C	0.163042	1.220260	0.071540
C43	C	-0.388461	0.679235	-0.378173
C44	C	0.111539	1.179235	0.121827
C45	C	-0.439956	0.720195	-0.327872
C46	C	0.060044	1.220195	0.172128
C47	C	-0.439947	0.802174	-0.327865
C48	C	0.060053	1.302174	0.172135
C49	C	-0.439975	0.549325	-0.327892
C50	C	0.060025	1.049325	0.172108
C51	C	-0.439986	0.467340	-0.327900
C52	C	0.060014	0.967340	0.172100
C53	C	-0.336986	0.467411	-0.428487
C54	C	0.163014	0.967411	0.071513
C55	C	-0.336976	0.549390	-0.428480
C56	C	0.163024	1.049390	0.071520
C57	C	-0.388473	0.590344	-0.378180
C58	C	0.111527	1.090344	0.121820
C59	C	-0.597950	1.134318	-0.378136
C60	C	-0.097950	1.634318	0.121864
C61	C	-0.687571	1.134358	-0.378148
C62	C	-0.187571	1.634358	0.121852
C63	C	-1.015747	1.134495	-0.378230
C64	C	-0.515747	1.634495	0.121770
C65	C	-0.924438	1.134454	-0.378209
C66	C	-0.424438	1.634454	0.121791
C67	C	-0.851662	1.134426	-0.378188
C68	C	-0.351662	1.634426	0.121812
C69	C	-0.760348	1.134386	-0.378169
C70	C	-0.260348	1.634386	0.121831
C71	C	-0.178150	1.134488	-0.378219
C72	C	0.321850	1.634488	0.121781
C73	C	-0.088529	1.134529	-0.378240
C74	C	0.411471	1.634529	0.121760
C75	C	-0.388400	1.134440	-0.582913
C76	C	0.111600	1.634440	-0.082913
C77	C	-0.388374	1.134460	-0.670163
C78	C	0.111626	1.634460	-0.170163
C79	C	-0.388483	1.339136	-0.378187
C80	C	0.111517	1.839136	0.121813
C81	C	-0.388493	1.426386	-0.378194
C82	C	0.111507	1.926386	0.121806
C83	C	-0.336806	1.184691	-0.711171
C84	C	0.163194	1.684691	-0.211171
C85	C	-0.336779	1.184700	-0.793151
C86	C	0.163221	1.684700	-0.293151
C87	C	-0.388325	1.134482	-0.834122
C88	C	0.111675	1.634482	-0.334122
C89	C	-0.439896	1.084245	-0.793108
C90	C	0.060104	1.584245	-0.293108
C91	C	-0.439919	1.084233	-0.711129
C92	C	0.060081	1.584233	-0.211129
C93	C	-0.439848	1.084277	-0.963979
C94	C	0.060152	1.584277	-0.463979
C95	C	-0.439827	1.084291	-1.045963
C96	C	0.060173	1.584291	-0.545963
C97	C	-0.336708	1.184745	-1.046001
C98	C	0.163292	1.684745	-0.546001
C99	C	-0.336730	1.184732	-0.964022
C100	C	0.163270	1.684732	-0.464022
C101	C	-0.388303	1.134496	-0.923013
C102	C	0.111697	1.634496	-0.423013
C103	C	-0.388460	1.134390	-0.174221
C104	C	0.111540	1.634390	0.325779
C105	C	-0.388258	1.134522	-0.086971
C106	C	0.111742	1.634522	0.413029
H107	H	-0.295029	0.686918	-0.469417
H108	H	0.204971	1.186918	0.030583
H109	H	-0.481887	0.686786	-0.286923
H110	H	0.018113	1.186786	0.213077
H111	H	-0.481799	1.043397	-1.079319
H112	H	0.018201	1.543397	-0.579319
H113	H	-0.481903	1.043321	-0.677742
H114	H	0.018097	1.543321	-0.177742
H115	H	-0.294715	1.225647	-1.079393
H116	H	0.205285	1.725647	-0.579393
O117	O	-0.490116	0.589076	-0.279118
O118	O	0.009884	1.089076	0.220882
C119	C	-0.570500	0.569016	-0.296127
C120	C	-0.070500	1.069016	0.203873
H121	H	-0.574650	0.546500	-0.358831
H122	H	-0.074650	1.046500	0.141169
H123	H	-0.610320	0.622916	-0.289298
H124	H	-0.110320	1.122916	0.210702
H125	H	-0.591531	0.521411	-0.254008
H126	H	-0.091531	1.021411	0.245992
O127	O	-0.490034	1.035466	-0.924263
O128	O	0.009966	1.535466	-0.424263
C129	C	-0.535522	0.991139	-0.978002
C130	C	-0.035522	1.491139	-0.478002
H131	H	-0.538283	1.023292	-1.036449
H132	H	-0.038283	1.523292	-0.536449
H133	H	-0.599062	0.982757	-0.954305
H134	H	-0.099062	1.482757	-0.454305
H135	H	-0.506005	0.931526	-0.986707
H136	H	-0.006005	1.431526	-0.486707
H137	H	-0.481925	0.433940	-0.286951
H138	H	0.018075	0.933940	0.213049
H139	H	-0.481877	0.835518	-0.286910
H140	H	0.018123	1.335518	0.213090
H141	H	-0.294788	1.225605	-0.826537
H142	H	0.205212	1.725605	-0.326537
H143	H	-0.295015	0.835637	-0.469409
H144	H	0.204985	1.335637	0.030591
H145	H	-0.294833	1.225587	-0.677818
H146	H	0.205167	1.725587	-0.177818
O147	O	-0.490081	1.035501	-0.832820
O148	O	0.009919	1.535501	-0.332820
C149	C	-0.570451	1.052629	-0.812783
C150	C	-0.070451	1.552629	-0.312783
H151	H	-0.572142	1.082792	-0.753264
H152	H	-0.072142	1.582792	-0.253264
H153	H	-0.606600	0.995959	-0.809961
H154	H	-0.106600	1.495959	-0.309961
H155	H	-0.597602	1.092982	-0.858920
H156	H	-0.097602	1.592982	-0.358920
O157	O	-0.287043	0.427669	-0.477458
O158	O	0.212957	0.927669	0.022542
C159	C	-0.304756	0.447743	-0.555659
C160	C	0.195244	0.947743	-0.055659
H161	H	-0.369175	0.470260	-0.559505
H162	H	0.130825	0.970260	-0.059505
H163	H	-0.297865	0.393849	-0.594458
H164	H	0.202135	0.893849	-0.094458
H165	H	-0.261554	0.495351	-0.576251
H166	H	0.238446	0.995351	-0.076251
O167	O	-0.286910	0.589330	-0.477221
O168	O	0.213090	1.089330	0.022779
C169	C	-0.234758	0.636730	-0.432613
C170	C	0.265242	1.136730	0.067387
H171	H	-0.263116	0.648974	-0.373073
H172	H	0.236884	1.148974	0.126927
H173	H	-0.223993	0.694397	-0.464597
H174	H	0.276007	1.194397	0.035403
H175	H	-0.174994	0.605151	-0.424100
H176	H	0.325006	1.105151	0.075900
O177	O	-0.286584	1.233539	-0.924342
O178	O	0.213416	1.733539	-0.424342
C179	C	-0.241073	1.277895	-0.978114
C180	C	0.258927	1.777895	-0.478114
H181	H	-0.238258	1.245757	-1.036549
H182	H	0.261742	1.745757	-0.536549
H183	H	-0.177554	1.286293	-0.954441
H184	H	0.322446	1.786293	-0.454441
H185	H	-0.270605	1.337500	-0.986833
H186	H	0.229395	1.837500	-0.486833
