data_functionalizedCrystal
_audit_creation_method	'MofGen! by Chris Wilmer'
_symmetry_space_group_name_H-M	'P1'
_symmetry_Int_Tables_number	1
_symmetry_cell_setting	triclinic
loop_
_symmetry_equiv_pos_as_xyz
  x,y,z
_cell_length_a	19.188930
_cell_length_b	19.188925
_cell_length_c	18.266242
_cell_angle_alpha	89.993996
_cell_angle_beta	89.977082
_cell_angle_gamma	83.143665
loop_
_atom_site_label
_atom_site_type_symbol
_atom_site_fract_x
_atom_site_fract_y
_atom_site_fract_z
O1	O	0.926148	0.087169	-0.061116
O2	O	0.722836	0.098903	-0.061065
O3	O	0.830361	-0.008620	-0.061088
O4	O	0.818623	0.194692	-0.061093
O5	O	0.830343	-0.008625	0.060674
O6	O	0.722818	0.098898	0.060697
O7	O	0.926129	0.087163	0.060646
Zn8	Zn	0.824471	0.093030	0.080004
Zn9	Zn	0.824495	0.093037	-0.080423
O10	O	0.818605	0.194687	0.060669
C11	C	0.696816	0.098520	-0.000178
C12	C	0.619311	0.097380	-0.000159
C13	C	0.829972	-0.034634	-0.000207
C14	C	0.828833	-0.112138	-0.000209
C15	C	0.574386	0.160471	-0.000172
C16	C	0.501563	0.159399	-0.000180
C17	C	0.473667	0.095233	-0.000189
C18	C	0.518602	0.032134	-0.000172
C19	C	0.591424	0.033207	-0.000157
N20	N	0.365694	0.046188	-0.041659
N21	N	0.296516	0.045172	-0.041675
C22	C	0.254259	0.091995	-0.000234
N23	N	0.283792	0.139882	0.041214
N24	N	0.352977	0.140899	0.041227
C25	C	0.394705	0.094062	-0.000206
C26	C	0.130369	0.153928	-0.000255
C27	C	0.057544	0.152854	-0.000258
C28	C	0.074586	0.025586	-0.000258
C29	C	0.147409	0.026663	-0.000247
C30	C	0.175296	0.090835	-0.000249
C31	C	0.884297	-0.673909	-0.000241
C32	C	0.885374	-0.601085	-0.000234
C33	C	0.822282	-0.556151	-0.000219
C34	C	0.758108	-0.584045	-0.000191
C35	C	0.757033	-0.656867	-0.000190
N36	N	0.776612	-0.435469	-0.041652
N37	N	0.777637	-0.366291	-0.041655
C38	C	0.825516	-0.336742	-0.000220
N39	N	0.872341	-0.378984	0.041208
N40	N	0.871318	-0.448168	0.041207
C41	C	0.823440	-0.477187	-0.000220
C42	C	0.890852	-0.229893	-0.000236
C43	C	0.891926	-0.157068	-0.000225
C44	C	0.764659	-0.140029	-0.000189
C45	C	0.763587	-0.212852	-0.000193
C46	C	0.826685	-0.257780	-0.000220
C47	C	0.952150	0.087546	-0.000243
C48	C	1.029654	0.088687	-0.000267
C49	C	0.818993	0.220700	-0.000213
C50	C	0.820132	0.298205	-0.000217
N51	N	0.824460	0.093024	0.189491
N52	N	0.824512	0.093037	-0.189910
C53	C	0.872087	0.045436	0.227790
C54	C	0.872092	0.045433	0.304435
C55	C	0.824475	0.093030	0.342778
C56	C	0.776839	0.140621	0.304469
C57	C	0.776831	0.140619	0.227826
N58	N	0.815398	0.154838	0.463110
N59	N	0.815410	0.154838	0.535918
C60	C	0.824495	0.093040	0.573700
N61	N	0.833581	0.031240	0.535924
N62	N	0.833573	0.031240	0.463109
C63	C	0.824478	0.093038	0.425885
C64	C	0.872130	0.045445	0.695106
C65	C	0.872129	0.045440	0.771752
C66	C	0.776880	0.140635	0.771786
C67	C	0.776877	0.140633	0.695141
C68	C	0.824505	0.093039	0.656806
H69	H	0.597087	0.212725	-0.000175
H70	H	0.944179	-0.134365	-0.000240
H71	H	0.713288	-0.103444	-0.000170
C72	C	0.452136	0.228807	-0.000203
N73	N	0.414910	0.281085	-0.000224
C74	C	0.161047	0.224519	-0.000248
N75	N	0.184152	0.277688	-0.000241
C76	C	0.924474	-0.006926	0.185625
N77	N	0.963929	-0.046367	0.153866
H78	H	0.706738	-0.547455	-0.000176
H79	H	0.738067	0.179374	0.335692
C80	C	0.692999	-0.243528	-0.000176
N81	N	0.639829	-0.266632	-0.000162
C82	C	0.724501	0.192993	0.813959
N83	N	0.685048	0.232429	0.845727
C84	C	0.686444	-0.687542	-0.000169
N85	N	0.633275	-0.710648	-0.000156
H86	H	0.937626	-0.578376	-0.000253
H87	H	0.020966	0.204232	-0.000265
C88	C	0.924515	-0.006916	0.652935
N89	N	0.963971	-0.046356	0.621173
H90	H	0.051874	-0.026659	-0.000311
H91	H	0.738046	0.179371	0.196642
H92	H	0.495885	-0.020111	-0.000190
H93	H	0.910877	0.006680	0.335623
C94	C	0.960261	-0.279316	-0.000257
N95	N	1.012541	-0.316540	-0.000271
C96	C	0.196829	-0.042744	-0.000241
N97	N	0.234052	-0.095024	-0.000236
H98	H	0.738097	0.179386	0.663956
C99	C	0.924514	-0.006925	0.813881
N100	N	0.963969	-0.046371	0.845613
H101	H	0.628003	-0.018171	-0.000147
H102	H	0.935677	-0.710485	-0.000259
