data_functionalizedCrystal
_audit_creation_method	'MofGen! by Chris Wilmer'
_symmetry_space_group_name_H-M	'P1'
_symmetry_Int_Tables_number	1
_symmetry_cell_setting	triclinic
loop_
_symmetry_equiv_pos_as_xyz
  x,y,z
_cell_length_a	10.723024
_cell_length_b	15.538191
_cell_length_c	9.798715
_cell_angle_alpha	89.999989
_cell_angle_beta	89.996609
_cell_angle_gamma	65.869982
loop_
_atom_site_label
_atom_site_type_symbol
_atom_site_fract_x
_atom_site_fract_y
_atom_site_fract_z
O1	O	1.596023	0.131734	-0.113468
O2	O	1.227016	0.144344	-0.113471
O3	O	1.483350	0.001374	-0.113475
O4	O	1.339689	0.274704	-0.113464
O5	O	1.483336	0.001373	0.113507
O6	O	1.227002	0.144343	0.113511
O7	O	1.596009	0.131734	0.113514
Zn8	Zn	1.411503	0.138038	0.149551
Zn9	Zn	1.411522	0.138039	-0.149508
O10	O	1.339675	0.274704	0.113518
C11	C	1.180936	0.143426	0.000019
C12	C	1.043656	0.140680	0.000017
C13	C	1.498374	-0.033625	0.000011
C14	C	1.543145	-0.137909	-0.000002
C15	C	0.931530	0.220679	0.000020
C16	C	0.789643	0.217843	0.000018
C17	C	1.098353	-0.428574	0.000023
C18	C	1.140454	-0.526568	0.000027
C19	C	1.377262	-0.547481	0.000028
C20	C	1.335181	-0.449487	0.000018
C21	C	1.195724	-0.390041	0.000017
C22	C	1.432552	-0.410953	0.000012
C23	C	1.390474	-0.312968	0.000009
C24	C	1.251024	-0.253516	0.000012
C25	C	1.153646	-0.292055	0.000014
C26	C	1.572008	-0.470401	0.000023
C27	C	1.669379	-0.431867	0.000017
C28	C	1.627302	-0.333880	0.000004
C29	C	1.487852	-0.274428	0.000007
C30	C	1.724680	-0.295341	0.000002
C31	C	1.682601	-0.197355	-0.000001
C32	C	1.445773	-0.176443	0.000004
C33	C	1.642090	0.132651	0.000021
C34	C	1.779369	0.135397	0.000014
C35	C	1.324652	0.309702	0.000029
C36	C	1.279880	0.413987	0.000033
N37	N	1.411500	0.138037	0.353651
N38	N	1.411539	0.138032	-0.353608
C39	C	1.519250	0.077744	0.421426
C40	C	1.519272	0.077741	0.578589
H41	H	0.940578	0.291268	0.000031
H42	H	1.611482	0.026122	0.363102
C43	C	1.643901	0.008001	0.657325
N44	N	1.737774	-0.044529	0.716633
H45	H	1.490807	-0.595894	0.000035
C46	C	0.909365	0.042869	0.000014
N47	N	1.007287	-0.026823	0.000018
C48	C	1.286904	0.207774	0.567665
N49	N	1.193028	0.260301	0.508357
C50	C	1.292364	-0.111046	0.000002
N51	N	1.176821	-0.061790	0.000005
H52	H	0.693413	0.286328	0.000015
C53	C	1.822777	-0.497268	0.000016
N54	N	1.938319	-0.546527	0.000011
C55	C	1.000236	-0.226659	0.000012
N56	N	0.884693	-0.177403	0.000015
H57	H	1.761891	-0.165981	-0.000004
H58	H	1.034608	0.070091	-0.000021
H59	H	1.216766	-0.173730	0.000018
H60	H	0.984794	-0.380169	0.000013
H61	H	1.606263	-0.550186	0.000013
H62	H	1.838225	-0.343756	0.000016
H63	H	1.061151	-0.557937	0.000052
H64	H	1.319264	0.189652	0.411977
