data_functionalizedCrystal
_audit_creation_method	'MofGen! by Chris Wilmer'
_symmetry_space_group_name_H-M	'P1'
_symmetry_Int_Tables_number	1
_symmetry_cell_setting	triclinic
loop_
_symmetry_equiv_pos_as_xyz
  x,y,z
_cell_length_a	17.699083
_cell_length_b	14.185569
_cell_length_c	15.625163
_cell_angle_alpha	94.305586
_cell_angle_beta	96.219997
_cell_angle_gamma	76.866969
loop_
_atom_site_label
_atom_site_type_symbol
_atom_site_fract_x
_atom_site_fract_y
_atom_site_fract_z
O1	O	0.996479	0.038373	-0.123426
O2	O	1.496479	0.538373	0.376574
O3	O	0.777150	0.033449	-0.137049
O4	O	1.277150	0.533449	0.362951
O5	O	0.883695	0.079743	-0.009746
O6	O	1.383695	0.579743	0.490254
O7	O	0.889933	-0.007920	-0.250728
O8	O	1.389933	0.492080	0.249272
O9	O	0.915170	-0.073418	0.027856
O10	O	1.415170	0.426582	0.527856
O11	O	0.808625	-0.119711	-0.099447
O12	O	1.308625	0.380289	0.400553
O13	O	1.027953	-0.114787	-0.085823
O14	O	1.527953	0.385213	0.414177
Cu15	Cu	0.921163	-0.131234	-0.089202
Cu16	Cu	1.421163	0.368766	0.410798
Cu17	Cu	0.883940	0.049896	-0.133671
Cu18	Cu	1.383940	0.549896	0.366329
O19	O	0.921408	-0.161081	-0.213126
O20	O	1.421408	0.338919	0.286874
C21	C	0.764652	-0.042950	-0.117761
C22	C	1.264652	0.457050	0.382239
C23	C	0.680518	-0.042406	-0.116300
C24	C	1.180518	0.457594	0.383700
N25	N	0.947349	-0.258631	-0.057924
N26	N	1.447349	0.241369	0.442076
C27	C	0.637692	-0.069588	-0.191022
C28	C	1.137692	0.430412	0.308978
C29	C	0.558645	-0.069098	-0.189639
C30	C	1.058645	0.430902	0.310361
C31	C	0.522422	-0.041418	-0.113535
C32	C	1.022422	0.458582	0.386465
C33	C	0.565254	-0.014237	-0.038806
C34	C	1.065254	0.485763	0.461194
C35	C	0.644302	-0.014734	-0.040189
C36	C	1.144302	0.485266	0.459811
C37	C	0.246463	-0.012233	-0.033229
C38	C	0.746463	0.487767	0.466771
C39	C	0.167409	-0.011735	-0.031853
C40	C	0.667409	0.488265	0.468147
C41	C	0.160806	-0.066596	-0.182679
C42	C	0.660806	0.433404	0.317321
C43	C	0.239854	-0.067094	-0.184062
C44	C	0.739854	0.432906	0.315938
C45	C	0.282680	-0.039917	-0.109333
C46	C	0.782680	0.460083	0.390667
C47	C	0.368393	-0.040451	-0.110833
C48	C	0.868393	0.459549	0.389167
C49	C	0.436709	-0.040878	-0.112035
C50	C	0.936709	0.459122	0.387965
C51	C	0.780824	-0.698602	-0.256800
C52	C	1.280824	-0.198602	0.243200
C53	C	0.800665	-0.795010	-0.233113
C54	C	1.300665	-0.295010	0.266887
C55	C	0.895034	-0.753993	-0.120428
C56	C	1.395034	-0.253993	0.379572
C57	C	0.875199	-0.657578	-0.144103
C58	C	1.375199	-0.157578	0.355897
C59	C	0.818093	-0.629892	-0.212290
C60	C	1.318093	-0.129892	0.287710
C61	C	0.912468	-0.588868	-0.099593
C62	C	1.412468	-0.088868	0.400407
C63	C	0.892637	-0.492464	-0.123269
C64	C	1.392637	0.007536	0.376731
C65	C	0.835536	-0.464769	-0.191455
C66	C	1.335536	0.035231	0.308545
C67	C	0.798262	-0.533487	-0.235966
C68	C	1.298262	-0.033487	0.264034
C69	C	0.969577	-0.616559	-0.031410
C70	C	1.469577	-0.116559	0.468590
C71	C	1.006847	-0.547849	0.013100
C72	C	1.506847	-0.047849	0.513100
C73	C	0.987012	-0.451440	-0.010572
C74	C	1.487012	0.048560	0.489428
C75	C	0.929910	-0.423746	-0.078758
C76	C	1.429910	0.076254	0.421242
C77	C	1.024285	-0.382722	0.033939
C78	C	1.524285	0.117278	0.533939
C79	C	1.004454	-0.286318	0.010263
C80	C	1.504454	0.213682	0.510263
C81	C	0.910079	-0.327341	-0.102434
C82	C	1.410079	0.172659	0.397566
C83	C	1.040451	-0.038386	-0.105112
C84	C	1.540451	0.461614	0.394888
C85	C	1.124584	-0.038924	-0.106574
C86	C	1.624584	0.461076	0.393426
C87	C	0.896595	0.014381	0.039887
C88	C	1.396595	0.514381	0.539887
C89	C	0.888129	0.047809	0.131759
C90	C	1.388129	0.547809	0.631759
N91	N	0.857760	0.177296	-0.164942
N92	N	1.357760	0.677296	0.335058
C93	C	0.908508	-0.095717	-0.262760
C94	C	1.408508	0.404283	0.237240
C95	C	0.916973	-0.129139	-0.354633
C96	C	1.416973	0.370861	0.145367
C97	C	0.859041	0.178404	0.240749
C98	C	1.359041	0.678404	0.740749
C99	C	0.866998	0.146984	0.154424
C100	C	1.366998	0.646984	0.654424
C101	C	0.901307	-0.019985	0.195417
C102	C	1.401307	0.480015	0.695417
C103	C	0.893349	0.011421	0.281746
C104	C	1.393349	0.511421	0.781746
C105	C	0.872217	0.110616	0.304405
C106	C	1.372217	0.610616	0.804405
C107	C	0.906525	-0.056367	0.345402
C108	C	1.406525	0.443633	0.845402
C109	C	0.898571	-0.024963	0.431724
C110	C	1.398571	0.475037	0.931724
C111	C	0.877442	0.074229	0.454391
C112	C	1.377442	0.574229	0.954391
C113	C	0.864263	0.142021	0.390727
C114	C	1.364263	0.642021	0.890727
C115	C	0.927663	-0.155562	0.322742
C116	C	1.427663	0.344438	0.822742
C117	C	0.940839	-0.223350	0.386398
C118	C	1.440839	0.276650	0.886398
C119	C	0.932880	-0.191947	0.472722
C120	C	1.432880	0.308053	0.972722
C121	C	0.911750	-0.092755	0.495388
C122	C	1.411750	0.407245	0.995388
C123	C	0.946059	-0.259739	0.536385
C124	C	1.446059	0.240261	1.036385
C125	C	0.938105	-0.228335	0.622708
C126	C	1.438105	0.271665	1.122708
C127	C	0.903797	-0.061351	0.581711
C128	C	1.403797	0.438649	1.081711
H129	H	0.667179	-0.092127	-0.252996
H130	H	1.167179	0.407873	0.247004
Br131	Br	0.832566	-0.289757	-0.194965
Br132	Br	1.332566	0.210243	0.305035
Br133	Br	0.875100	0.073273	0.612468
Br134	Br	1.375100	0.573273	1.112468
H135	H	0.751755	-0.510942	-0.291485
H136	H	1.251755	-0.010942	0.208515
H137	H	0.137920	0.010805	0.030124
H138	H	0.637920	0.510805	0.530124
H139	H	0.870969	0.099796	0.524682
H140	H	1.370969	0.599796	1.024682
Br141	Br	1.055040	-0.193066	0.070666
Br142	Br	1.555040	0.306934	0.570666
H143	H	0.269341	-0.089629	-0.246035
H144	H	0.769341	0.410371	0.253965
H145	H	0.948832	-0.283534	0.674539
H146	H	1.448832	0.216466	1.174539
Br147	Br	0.703311	-0.661018	-0.349331
Br148	Br	1.203311	-0.161018	0.150669
H149	H	0.125929	-0.088730	-0.243526
H150	H	0.625929	0.411270	0.256474
H151	H	0.523779	-0.091231	-0.250486
H152	H	1.023779	0.408769	0.249514
H153	H	0.770311	-0.850953	-0.269366
H154	H	1.270311	-0.350953	0.230634
Br155	Br	0.516098	0.023319	0.064482
Br156	Br	1.016098	0.523319	0.564482
Br157	Br	0.835566	0.276645	0.421484
Br158	Br	1.335566	0.776645	0.921484
H159	H	0.819392	-0.386270	-0.210734
H160	H	1.319392	0.113730	0.289266
Br161	Br	0.304575	0.024648	0.068190
Br162	Br	0.804575	0.524648	0.568190
Br163	Br	0.996495	-0.747399	0.000713
Br164	Br	1.496495	-0.247399	0.500713
Br165	Br	0.702425	0.022150	0.061226
Br166	Br	1.202425	0.522150	0.561226
Br167	Br	1.084348	-0.585432	0.105634
Br168	Br	1.584348	-0.085432	0.605634
H169	H	0.841819	0.259179	0.259196
H170	H	1.341819	0.759179	0.759196
Br171	Br	1.101794	-0.420312	0.126465
Br172	Br	1.601794	0.079688	0.626465
H173	H	0.941532	-0.776548	-0.064911
H174	H	1.441532	-0.276548	0.435089
H175	H	0.856267	0.202193	0.102595
H176	H	1.356267	0.702193	0.602595
Br177	Br	0.929990	-0.154604	0.164657
Br178	Br	1.429990	0.345396	0.664657
H179	H	0.934140	-0.181128	0.252452
H180	H	1.434140	0.318872	0.752452
H181	H	0.958048	-0.304116	0.367937
H182	H	1.458048	0.195884	0.867937
Br183	Br	0.974752	-0.394356	0.505625
Br184	Br	1.474752	0.105644	1.005625
