data_functionalizedCrystal
_audit_creation_method	'MofGen! by Chris Wilmer'
_symmetry_space_group_name_H-M	'P1'
_symmetry_Int_Tables_number	1
_symmetry_cell_setting	triclinic
loop_
_symmetry_equiv_pos_as_xyz
  x,y,z
_cell_length_a	15.944493
_cell_length_b	27.731996
_cell_length_c	15.021413
_cell_angle_alpha	89.998029
_cell_angle_beta	89.993251
_cell_angle_gamma	83.048216
loop_
_atom_site_label
_atom_site_type_symbol
_atom_site_fract_x
_atom_site_fract_y
_atom_site_fract_z
O1	O	1.113726	0.062202	-0.074032
O2	O	0.869066	0.069917	-0.074038
O3	O	0.999017	-0.004307	-0.074016
O4	O	0.983774	0.136426	-0.074054
O5	O	0.998996	-0.004296	0.074049
O6	O	0.869045	0.069928	0.074026
O7	O	1.113705	0.062213	0.074032
Zn8	Zn	0.991372	0.066072	0.097538
Zn9	Zn	0.991399	0.066058	-0.097543
O10	O	0.983754	0.136437	0.074010
C11	C	0.837765	0.069607	-0.000006
C12	C	0.744529	0.068662	-0.000008
C13	C	0.508183	0.112352	-0.000020
C14	C	0.457931	0.088797	0.072993
C15	C	0.573831	0.066910	-0.000005
C16	C	0.457956	0.088776	-0.072986
C17	C	0.408944	0.065222	-0.000007
C18	C	0.524807	0.043367	0.073068
C19	C	0.524835	0.043353	-0.072977
C20	C	0.474616	0.019764	0.000055
C21	C	0.668818	0.067884	-0.000004
C22	C	0.313960	0.064244	-0.000003
C23	C	0.998694	-0.022310	0.000020
C24	C	0.997750	-0.075970	0.000029
C25	C	0.991828	-0.408717	-0.080725
C26	C	0.988247	-0.610391	-0.080741
O27	O	0.987757	-0.636468	-0.149382
N28	N	0.987790	-0.635604	-0.000032
C29	C	0.988224	-0.610395	0.080687
O30	O	0.987745	-0.636468	0.149335
C31	C	0.991800	-0.408722	0.080702
C32	C	0.992264	-0.383512	-0.000012
C33	C	0.992292	-0.383507	-0.161433
C34	C	0.993192	-0.333092	-0.161428
C35	C	0.993628	-0.307887	-0.080715
C36	C	0.993164	-0.333098	-0.000008
C37	C	0.992227	-0.383514	0.161420
C38	C	0.993119	-0.333093	0.161416
C39	C	0.993584	-0.307883	0.080702
C40	C	0.994500	-0.257478	0.080710
N41	N	0.994956	-0.232264	0.000001
C42	C	0.994520	-0.257469	-0.080712
C43	C	0.986349	-0.716277	0.080674
C44	C	0.985456	-0.766695	0.080670
C45	C	0.985477	-0.766686	-0.080758
C46	C	0.986376	-0.716268	-0.080753
C47	C	0.986805	-0.691063	-0.000035
C48	C	0.996411	-0.151594	-0.080696
C49	C	0.997314	-0.101175	-0.080684
C50	C	0.997289	-0.101187	0.080744
C51	C	0.996390	-0.151603	0.080732
C52	C	0.995948	-0.176805	0.000005
O53	O	0.994981	-0.231368	0.149315
O54	O	0.994980	-0.231387	-0.149349
C55	C	0.990928	-0.459132	-0.080730
C56	C	0.990464	-0.484342	-0.000022
C57	C	0.990901	-0.459138	0.080691
C58	C	0.989572	-0.534761	-0.000025
C59	C	0.989136	-0.559965	-0.080738
C60	C	0.989592	-0.534752	-0.161447
C61	C	0.990492	-0.484337	-0.161442
C62	C	0.990445	-0.484351	0.161400
C63	C	0.989546	-0.534766	0.161388
C64	C	0.989109	-0.559971	0.080676
C65	C	1.145006	0.062523	-0.000002
C66	C	1.238242	0.063468	-0.000006
C67	C	0.984077	0.154440	-0.000027
C68	C	0.985020	0.208100	-0.000042
N69	N	0.991359	0.066081	0.230675
N70	N	0.991418	0.066045	-0.230681
C71	C	0.931261	0.100386	0.470348
C72	C	1.007038	0.109762	0.529681
C73	C	0.991381	0.066069	0.412282
C74	C	0.915625	0.056705	0.529691
C75	C	0.991395	0.066059	0.587706
C76	C	1.067196	0.075466	0.470309
C77	C	0.975733	0.022390	0.470313
C78	C	1.051565	0.031747	0.529619
C79	C	0.991372	0.066077	0.311225
C80	C	0.991413	0.066051	0.688761
H81	H	0.428727	0.107992	0.134709
H82	H	1.131281	0.083426	0.444334
O83	O	0.559596	0.020451	0.146695
C84	C	0.657682	-0.045080	0.204188
C85	C	0.618365	-0.019169	0.120734
H86	H	0.705191	-0.077124	0.183228
H87	H	0.691143	-0.018546	0.245140
H88	H	0.605764	-0.058773	0.245987
H89	H	0.670232	-0.005475	0.078866
H90	H	0.584882	-0.045721	0.079849
H91	H	1.020286	0.146695	0.555758
H92	H	0.985123	-0.787217	-0.146477
O93	O	0.839262	0.047196	0.560913
C94	C	0.763254	-0.006309	0.647746
C95	C	0.849792	0.004403	0.612468
H96	H	0.771736	-0.040913	0.689419
H97	H	0.734354	0.025337	0.690636
H98	H	0.719594	-0.011297	0.589237
H99	H	0.893516	0.009380	0.670922
H100	H	0.878624	-0.027248	0.569551
H101	H	0.523283	0.151495	0.000037
O102	O	1.112395	-0.002831	0.560439
C103	C	1.260951	-0.032033	0.564939
C104	C	1.192147	0.007161	0.529992
H105	H	1.325443	-0.023974	0.540322
H106	H	1.260222	-0.031998	0.640830
H107	H	1.248109	-0.069166	0.539487
H108	H	1.204941	0.044314	0.555378
H109	H	1.192892	0.007084	0.454102
O110	O	0.423234	0.111737	-0.146602
C111	C	0.400487	0.186481	-0.229766
C112	C	0.439857	0.160530	-0.146372
H113	H	0.413896	0.225937	-0.229598
H114	H	0.429062	0.167529	-0.291999
H115	H	0.329294	0.185192	-0.229406
H116	H	0.511049	0.161811	-0.146645
H117	H	0.411215	0.179490	-0.084176
H118	H	0.459675	-0.019408	0.000108
H119	H	0.554047	0.024172	-0.134696
H120	H	0.991850	-0.404032	0.227146
O121	O	0.990899	-0.459923	-0.239928
C122	C	0.990874	-0.465259	-0.400041
C123	C	0.990394	-0.492962	-0.311215
H124	H	0.990484	-0.491960	-0.457700
H125	H	0.932473	-0.437235	-0.404145
H126	H	1.050087	-0.446072	-0.404033
H127	H	0.931221	-0.512177	-0.307163
H128	H	1.048835	-0.520958	-0.307149
H129	H	0.997694	-0.080652	-0.146414
O130	O	0.959949	-0.021634	0.439020
C131	C	0.942930	-0.071041	0.309842
C132	C	0.960847	-0.021166	0.345164
H133	H	0.943633	-0.070676	0.233957
H134	H	0.993536	-0.100395	0.335185
H135	H	0.878291	-0.078966	0.334245
H136	H	1.025462	-0.013194	0.320776
H137	H	0.910190	0.008160	0.319829
O138	O	0.996006	-0.175998	-0.159192
C139	C	0.996041	-0.170649	-0.319304
C140	C	0.996525	-0.142955	-0.230474
H141	H	0.996443	-0.143944	-0.376958
H142	H	1.054435	-0.198678	-0.323422
H143	H	0.936821	-0.189829	-0.323289
H144	H	1.055706	-0.123746	-0.226429
H145	H	0.938092	-0.114953	-0.226393
H146	H	0.993567	-0.312571	-0.227154
O147	O	0.986782	-0.691852	-0.159238
C148	C	0.986762	-0.697183	-0.319351
C149	C	0.986284	-0.724889	-0.230528
H150	H	0.986377	-0.723883	-0.377013
H151	H	0.928358	-0.669162	-0.323454
H152	H	1.045972	-0.677994	-0.323339
H153	H	0.927113	-0.744107	-0.226481
H154	H	1.044727	-0.752883	-0.226463
O155	O	0.870683	0.134996	0.439140
C156	C	0.802373	0.173531	0.310060
C157	C	0.870987	0.134310	0.345284
H158	H	0.802607	0.172996	0.234173
H159	H	0.737879	0.165923	0.335436
H160	H	0.815878	0.210738	0.334503
H161	H	0.857562	0.097087	0.320856
H162	H	0.935459	0.141960	0.319915
H163	H	0.986702	-0.695760	0.146408
O164	O	0.984979	-0.791104	0.159156
C165	C	0.985098	-0.785780	0.319269
C166	C	0.985627	-0.758079	0.230446
H167	H	0.985640	-0.759093	0.376930
H168	H	0.925859	-0.804939	0.323366
H169	H	1.043472	-0.813828	0.323263
H170	H	0.927294	-0.730007	0.226393
H171	H	1.044905	-0.738954	0.226386
O172	O	0.993417	-0.308652	0.239883
C173	C	0.920825	-0.287718	0.377816
C174	C	0.920394	-0.315429	0.288998
H175	H	0.861783	-0.293179	0.417542
H176	H	0.979404	-0.302069	0.417691
H177	H	0.921584	-0.247358	0.363934
H178	H	0.919604	-0.355793	0.302799
H179	H	0.861820	-0.301038	0.249150
O180	O	0.995910	-0.176018	0.159215
C181	C	0.996031	-0.170702	0.319330
C182	C	0.996567	-0.142996	0.230511
H183	H	0.996580	-0.144018	0.376996
H184	H	0.936785	-0.189855	0.323423
H185	H	1.054398	-0.198755	0.323319
H186	H	0.938240	-0.114920	0.226462
H187	H	1.055851	-0.123877	0.226456
O188	O	0.989013	-0.559254	-0.239826
C189	C	0.915223	-0.610722	-0.333455
C190	C	0.915772	-0.582982	-0.244678
H191	H	0.856023	-0.629921	-0.337399
H192	H	0.915648	-0.584068	-0.391189
H193	H	0.973634	-0.638742	-0.337473
H194	H	0.857371	-0.554962	-0.240573
H195	H	0.915390	-0.609665	-0.186986
H196	H	0.991933	-0.404024	-0.227162
O197	O	0.988942	-0.559215	0.239827
C198	C	0.915850	-0.569112	0.377812
C199	C	0.916431	-0.541399	0.289005
H200	H	0.857240	-0.554711	0.417606
H201	H	0.915073	-0.609480	0.364018
H202	H	0.974850	-0.563639	0.417586
H203	H	0.857442	-0.546832	0.249187
H204	H	0.917252	-0.501041	0.302862
O205	O	0.990725	-0.459840	0.239786
C206	C	0.918970	-0.397421	0.333480
C207	C	0.918531	-0.425145	0.244678
H208	H	0.860617	-0.369357	0.337456
H209	H	0.918437	-0.424081	0.391190
H210	H	0.978227	-0.378276	0.337510
H211	H	0.859285	-0.444291	0.240562
H212	H	0.919109	-0.398461	0.187010
H213	H	0.997648	-0.080657	0.146458
