data_functionalizedCrystal
_audit_creation_method	'MofGen! by Chris Wilmer'
_symmetry_space_group_name_H-M	'P1'
_symmetry_Int_Tables_number	1
_symmetry_cell_setting	triclinic
loop_
_symmetry_equiv_pos_as_xyz
  x,y,z
_cell_length_a	20.016444
_cell_length_b	14.560438
_cell_length_c	20.016444
_cell_angle_alpha	59.997759
_cell_angle_beta	89.999974
_cell_angle_gamma	59.997166
loop_
_atom_site_label
_atom_site_type_symbol
_atom_site_fract_x
_atom_site_fract_y
_atom_site_fract_z
Zr1	Zr	0.643563	1.005299	-0.087656
O2	O	0.536880	1.196920	-0.194341
O3	O	0.676274	0.813685	-0.054950
O4	O	0.676267	1.005303	-0.194332
O5	O	0.536885	1.005296	0.054985
O6	O	0.786211	1.005297	-0.194326
O7	O	0.536886	1.005302	-0.054959
O8	O	0.786223	0.662528	0.055002
O9	O	0.536873	1.348065	-0.194343
O10	O	0.772267	0.892492	-0.040999
O11	O	0.690216	0.892491	0.041047
O12	O	0.690208	1.118096	-0.123057
O13	O	0.608157	1.118096	-0.041010
Zr14	Zr	0.818910	1.005281	0.087701
Zr15	Zr	0.818912	1.005290	-0.087648
Zr16	Zr	0.643561	1.005289	0.087693
Zr17	Zr	0.643553	1.246358	-0.087660
Zr18	Zr	0.818921	0.764221	0.087704
O19	O	0.786200	1.196895	0.054995
O20	O	0.786203	1.196908	-0.194329
O21	O	0.536877	1.196907	0.054983
O22	O	0.925594	0.813660	0.194386
O23	O	0.925597	0.813673	-0.054938
O24	O	0.676271	0.813672	0.194374
O25	O	0.925588	1.005283	-0.054940
O26	O	0.786206	1.005277	0.194376
O27	O	0.676262	1.005282	0.194371
O28	O	0.925587	1.005278	0.055004
O29	O	0.676252	1.348059	-0.194336
O30	O	0.786222	0.662521	0.194381
O31	O	0.925600	0.662514	0.194388
O32	O	0.925602	0.662522	0.055009
O33	O	0.536871	1.348058	-0.054964
O34	O	0.676250	1.348051	-0.054957
O35	O	0.772265	0.892483	0.123102
O36	O	0.854317	0.892483	0.041055
O37	O	0.772257	1.118088	-0.041002
O38	O	0.690206	1.118088	0.041044
C39	C	0.731250	0.703761	0.000026
C40	C	0.731255	0.601425	0.000028
C41	C	0.791801	0.373927	0.060595
C42	C	0.791821	0.470062	0.060599
C43	C	0.670669	0.636653	-0.060556
C44	C	0.670653	0.540518	-0.060563
C45	C	0.511902	1.005300	0.000012
C46	C	0.437462	1.005304	0.000008
C47	C	0.266207	1.005292	-0.060549
C48	C	0.196267	1.005284	-0.060544
C49	C	0.196273	1.005284	0.060600
C50	C	0.266215	1.005283	0.060597
C51	C	0.301178	1.005293	0.000018
C52	C	0.161295	1.005286	0.000027
C53	C	0.085463	1.005277	0.000033
C54	C	0.377016	1.005300	0.000012
C55	C	0.950571	1.005279	0.000033
C56	C	1.025011	1.005276	0.000037
C57	C	0.731240	1.005301	-0.219312
C58	C	0.731240	1.005305	-0.293753
C59	C	0.731223	1.306819	0.000018
C60	C	0.731219	1.409155	0.000017
C61	C	0.791809	1.005286	-0.465005
C62	C	0.791810	1.005277	-0.534945
C63	C	0.670661	1.005290	-0.534944
C64	C	0.670665	1.005289	-0.465002
C65	C	0.731238	1.005294	-0.430037
C66	C	0.731235	1.005286	-0.569919
C67	C	0.731235	1.005276	-0.645751
C68	C	0.731239	1.005301	-0.354199
C69	C	0.731234	1.005278	0.219357
C70	C	0.731233	1.005274	0.293797
C71	C	0.950585	0.703750	0.000037
C72	C	1.025029	0.601411	0.000042
C73	C	0.731247	0.703749	0.219361
C74	C	0.731251	0.601409	0.293803
C75	C	0.950582	0.703739	0.219372
C76	C	1.025025	0.601395	0.293817
C77	C	0.511892	1.306841	-0.219327
C78	C	0.437448	1.409185	-0.293773
C79	C	0.511889	1.306829	0.000008
C80	C	0.437444	1.409169	0.000003
C81	C	0.731226	1.306830	-0.219316
C82	C	0.731223	1.409170	-0.293758
C83	C	1.017160	0.553355	-0.042794
C84	C	1.087102	0.457209	-0.042806
C85	C	1.164912	0.409114	0.000024
C86	C	1.172780	0.457179	0.042862
C87	C	1.102838	0.553330	0.042868
C88	C	0.774081	0.553345	0.371600
C89	C	0.774082	0.457199	0.441553
C90	C	0.731256	0.409113	0.433706
C91	C	0.688420	0.457186	0.355900
C92	C	0.688415	0.553337	0.285950
C93	C	1.102822	0.553334	0.285950
C94	C	1.172777	0.457184	0.355893
C95	C	1.164933	0.409091	0.433702
C96	C	1.087127	0.457162	0.441567
C97	C	1.017175	0.553317	0.371625
C98	C	0.359651	1.457258	-0.285905
C99	C	0.289697	1.553437	-0.355848
C100	C	0.297541	1.601535	-0.433657
C101	C	0.375346	1.553458	-0.441522
C102	C	0.445299	1.457287	-0.371581
C103	C	0.445313	1.457235	0.042832
C104	C	0.375371	1.553407	0.042824
C105	C	0.297561	1.601505	-0.000009
C106	C	0.289694	1.553436	-0.042843
C107	C	0.359635	1.457272	-0.042840
C108	C	0.774057	1.457226	-0.285885
C109	C	0.774070	1.553373	-0.355824
C110	C	0.731243	1.601468	-0.433635
C111	C	0.688407	1.553403	-0.441507
C112	C	0.688400	1.457252	-0.371569
H113	H	0.621319	0.569214	-0.109897
Br114	Br	0.630254	1.392055	-0.382268
H115	H	0.841118	0.266968	0.109922
Br116	Br	1.259878	0.278595	0.528616
Br117	Br	0.874019	1.005258	-0.582398
Br118	Br	1.259825	0.278622	0.000007
Br119	Br	1.076496	0.391880	0.547171
Br120	Br	0.630303	0.391912	0.345265
H121	H	1.080681	0.418086	-0.077689
Br122	Br	0.911596	0.618526	0.382317
H123	H	0.353249	1.418102	-0.222556
H124	H	0.353217	1.418140	-0.077714
Br125	Br	0.313656	1.005303	-0.142762
Br126	Br	1.278358	0.391963	0.345199
H127	H	0.808950	1.592498	-0.349399
H128	H	0.167796	1.005280	-0.109862
H129	H	0.167798	1.005278	0.109922
Br130	Br	0.313686	1.005269	0.142807
H131	H	0.731255	1.679762	-0.490577
Br132	Br	0.874046	0.422244	0.142813
H133	H	0.653540	0.592458	0.222606
H134	H	0.841133	1.005287	-0.436537
Br135	Br	0.588456	1.005287	-0.582400
H136	H	0.621358	0.743617	-0.109877
H137	H	0.621340	1.005291	-0.436527
Br138	Br	0.386068	1.618620	0.100963
Br139	Br	0.911570	0.618609	-0.100931
H140	H	0.240617	1.679808	-0.000005
Br141	Br	0.832222	0.391975	0.547135
H142	H	0.240574	1.679843	-0.490601
H143	H	1.236142	0.418006	0.077733
H144	H	1.109257	0.592444	0.077756
Br145	Br	0.630280	1.618700	-0.547115
H146	H	0.808956	0.592486	0.378005
Br147	Br	1.113491	0.618588	0.180361
H148	H	0.508664	1.418080	0.077717
H149	H	0.226351	1.592565	-0.349428
H150	H	0.381723	1.592631	-0.504883
H151	H	0.731266	0.330821	0.490671
H152	H	0.508642	1.418146	-0.377996
Br153	Br	0.184088	1.618723	-0.100967
H154	H	0.808932	1.418082	-0.222533
