data_functionalizedCrystal
_audit_creation_method	'MofGen! by Chris Wilmer'
_symmetry_space_group_name_H-M	'P1'
_symmetry_Int_Tables_number	1
_symmetry_cell_setting	triclinic
loop_
_symmetry_equiv_pos_as_xyz
  x,y,z
_cell_length_a	25.639242
_cell_length_b	13.897448
_cell_length_c	13.897441
_cell_angle_alpha	90.029627
_cell_angle_beta	89.971480
_cell_angle_gamma	89.986780
loop_
_atom_site_label
_atom_site_type_symbol
_atom_site_fract_x
_atom_site_fract_y
_atom_site_fract_z
Zn1	Zn	0.799334	0.384108	-0.545637
Zn2	Zn	0.799280	0.545427	-0.384338
Zn3	Zn	0.711901	0.384135	-0.384327
Zn4	Zn	0.711888	0.545351	-0.545563
O5	O	0.755601	0.464755	-0.464966
O6	O	0.872492	0.405529	-0.524275
O7	O	0.787672	0.524075	-0.249355
O8	O	0.723527	0.249150	-0.405751
O9	O	0.872452	0.524049	-0.405770
O10	O	0.787764	0.249130	-0.524265
O11	O	0.723475	0.405575	-0.249347
O12	O	0.638734	0.405500	-0.405680
O13	O	0.723505	0.523918	-0.680554
O14	O	0.638724	0.523944	-0.524139
O15	O	0.787751	0.405454	-0.680608
O16	O	0.787659	0.680399	-0.405698
O17	O	0.723452	0.680342	-0.524149
C18	C	0.755562	0.715370	-0.464938
C19	C	0.755594	0.822584	-0.464958
C20	C	0.619758	0.464717	-0.464901
C21	C	0.561644	0.464724	-0.464896
C22	C	0.755633	0.464674	-0.716559
C23	C	0.755646	0.464640	-0.823773
C24	C	0.201285	0.526532	-0.526589
C25	C	0.146681	0.526538	-0.526604
O26	O	0.118447	0.579042	-0.579003
N27	N	0.119362	0.464782	-0.465029
C28	C	0.146650	0.403009	-0.403441
O29	O	0.118399	0.350480	-0.351068
C30	C	0.201253	0.402999	-0.403431
C31	C	0.228569	0.464766	-0.465004
C32	C	0.228601	0.588294	-0.588158
C33	C	0.283202	0.588289	-0.588141
C34	C	0.310486	0.526523	-0.526556
C35	C	0.283170	0.464761	-0.464987
C36	C	0.228540	0.341222	-0.341849
C37	C	0.283147	0.341216	-0.341845
C38	C	0.310463	0.402984	-0.403418
C39	C	0.365055	0.402990	-0.403385
N40	N	0.392374	0.464746	-0.464961
C41	C	0.365089	0.526513	-0.526546
C42	C	0.031979	0.403033	-0.403467
C43	C	-0.022623	0.403048	-0.403471
C44	C	-0.022589	0.526576	-0.526636
C45	C	0.032015	0.526566	-0.526626
C46	C	0.059298	0.464790	-0.465043
C47	C	0.479754	0.526498	-0.526506
C48	C	0.534360	0.526491	-0.526481
C49	C	0.534320	0.402959	-0.403320
C50	C	0.479720	0.402970	-0.403341
C51	C	0.452438	0.464743	-0.464942
O52	O	0.393323	0.350510	-0.351016
O53	O	0.393347	0.579023	-0.578919
C54	C	0.891974	0.464794	-0.465032
C55	C	0.950088	0.464811	-0.465060
C56	C	0.755653	0.213162	-0.465015
C57	C	0.755676	0.105948	-0.465036
C58	C	0.755649	1.018879	-0.465019
C59	C	0.755617	0.909646	-0.464988
C60	C	0.755657	0.464613	-0.910843
C61	C	0.755672	0.464569	-1.020076
C62	C	0.755599	0.464766	-0.214352
C63	C	0.755687	0.464529	-0.107138
H64	H	0.556598	0.576793	-0.576621
C65	C	-0.052665	0.335105	-0.335731
N66	N	-0.075290	0.283922	-0.284711
H67	H	0.457478	0.352676	-0.353201
H68	H	0.457548	0.576797	-0.576669
C69	C	0.313242	0.656234	-0.655881
N70	N	0.335865	0.707411	-0.706909
C71	C	0.198597	0.656258	-0.655902
N72	N	0.176001	0.707462	-0.706922
C73	C	0.062057	0.594508	-0.594366
N74	N	0.084683	0.645684	-0.645393
H75	H	0.206309	0.290927	-0.291708
C76	C	0.313156	0.273259	-0.274094
N77	N	0.335757	0.222076	-0.223060
C78	C	-0.052612	0.594514	-0.594389
N79	N	-0.075227	0.645680	-0.645417
H80	H	0.556545	0.352674	-0.353176
H81	H	0.054190	0.352729	-0.353311
