data_functionalizedCrystal
_audit_creation_method	'MofGen! by Chris Wilmer'
_symmetry_space_group_name_H-M	'P1'
_symmetry_Int_Tables_number	1
_symmetry_cell_setting	triclinic
loop_
_symmetry_equiv_pos_as_xyz
  x,y,z
_cell_length_a	14.519731
_cell_length_b	10.489716
_cell_length_c	13.596369
_cell_angle_alpha	89.998063
_cell_angle_beta	89.994584
_cell_angle_gamma	84.108994
loop_
_atom_site_label
_atom_site_type_symbol
_atom_site_fract_x
_atom_site_fract_y
_atom_site_fract_z
O1	O	1.224757	0.167335	-0.081784
O2	O	0.956389	0.186997	-0.081785
O3	O	1.096692	-0.008497	-0.081788
O4	O	1.084455	0.362829	-0.081781
O5	O	1.096678	-0.008507	0.081795
O6	O	0.956375	0.186987	0.081798
O7	O	1.224743	0.167324	0.081798
Zn8	Zn	1.090557	0.177154	0.107771
Zn9	Zn	1.090576	0.177168	-0.107757
O10	O	1.084441	0.362818	0.081802
C11	C	0.922018	0.186070	0.000006
C12	C	0.819623	0.183310	0.000006
C13	C	0.736466	0.181066	0.000002
C14	C	0.632142	0.178264	0.000001
C15	C	0.548991	0.176039	0.000001
C16	C	0.444661	0.173236	-0.000001
C17	C	1.095765	-0.056025	0.000000
C18	C	1.093014	-0.197628	-0.000009
C19	C	1.179052	-0.296189	0.000000
C20	C	1.133595	-0.373076	-0.080652
C21	C	1.133561	-0.373050	0.080628
C22	C	1.047593	-0.272649	-0.080728
C23	C	1.047572	-0.272618	0.080625
C24	C	1.002051	-0.349454	-0.000048
C25	C	1.259115	0.168251	0.000005
C26	C	1.361510	0.171012	-0.000001
C27	C	1.085367	0.410346	0.000011
C28	C	1.088118	0.551949	0.000014
N29	N	1.090551	0.177144	0.254862
N30	N	1.090589	0.177168	-0.254849
C31	C	1.090574	0.177169	0.656153
C32	C	1.090565	0.177166	0.544502
C33	C	1.090563	0.177157	0.455511
C34	C	1.090553	0.177153	0.343853
H35	H	1.169921	-0.416941	-0.148839
H36	H	1.011299	-0.228966	-0.148989
H37	H	1.253891	-0.272285	-0.000081
H38	H	1.011278	-0.228730	0.148814
C39	C	0.902174	-0.380938	-0.000303
C40	C	0.857567	-0.329669	-0.084901
C41	C	0.765565	-0.358663	-0.085180
H42	H	0.871289	-0.345024	0.056382
H43	H	0.900910	-0.471310	0.000192
H44	H	0.858825	-0.239315	-0.085386
H45	H	0.888424	-0.365575	-0.141599
H46	H	0.764301	-0.449035	-0.084686
H47	H	0.734689	-0.322747	-0.028492
H48	H	0.735290	-0.323892	-0.142583
C49	C	1.182150	-0.431365	0.171515
C50	C	1.274714	-0.404864	0.171131
C51	C	1.319505	-0.458547	0.254842
H52	H	1.179640	-0.521497	0.171265
H53	H	1.152259	-0.395603	0.228817
H54	H	1.304597	-0.440632	0.113845
H55	H	1.277250	-0.314744	0.171397
H56	H	1.289614	-0.422785	0.312143
H57	H	1.316989	-0.548676	0.254584
H58	H	1.382312	-0.440564	0.254597
