data_functionalizedCrystal
_audit_creation_method	'MofGen! by Chris Wilmer'
_symmetry_space_group_name_H-M	'P1'
_symmetry_Int_Tables_number	1
_symmetry_cell_setting	triclinic
loop_
_symmetry_equiv_pos_as_xyz
  x,y,z
_cell_length_a	16.109301
_cell_length_b	16.109301
_cell_length_c	15.186229
_cell_angle_alpha	90.005167
_cell_angle_beta	89.999362
_cell_angle_gamma	96.538519
loop_
_atom_site_label
_atom_site_type_symbol
_atom_site_fract_x
_atom_site_fract_y
_atom_site_fract_z
O1	O	1.103131	-0.106866	-0.073176
O2	O	1.603131	0.393134	0.426824
O3	O	0.861069	-0.120165	-0.073190
O4	O	1.361069	0.379835	0.426810
O5	O	0.988749	0.007515	-0.073174
O6	O	1.488749	0.507515	0.426826
O7	O	0.975450	-0.234547	-0.073192
O8	O	1.475450	0.265453	0.426808
O9	O	0.988741	0.007517	0.073284
O10	O	1.488741	0.507517	0.573284
O11	O	0.861060	-0.120164	0.073267
O12	O	1.361060	0.379836	0.573267
O13	O	1.103122	-0.106864	0.073282
O14	O	1.603122	0.393136	0.573282
Zn15	Zn	0.982090	-0.113514	0.096528
Zn16	Zn	1.482090	0.386486	0.596528
Zn17	Zn	0.982101	-0.113516	-0.096436
Zn18	Zn	1.482101	0.386484	0.403564
O19	O	0.975441	-0.234545	0.073265
O20	O	1.475441	0.265455	0.573265
C21	C	0.830090	-0.119626	0.000037
C22	C	1.330090	0.380374	0.500037
C23	C	0.737794	-0.118011	0.000032
C24	C	1.237794	0.381989	0.500032
N25	N	0.982088	-0.113511	0.228220
N26	N	1.482088	0.386489	0.728220
C27	C	0.988206	0.038491	0.000056
C28	C	1.488206	0.538491	0.500056
C29	C	0.986591	0.130786	0.000057
C30	C	1.486591	0.630786	0.500057
C31	C	0.515522	-0.190018	0.000036
C32	C	1.015522	0.309982	0.500036
C33	C	0.428801	-0.188494	0.000042
C34	C	0.928801	0.311506	0.500042
C35	C	0.448676	-0.037006	0.000050
C36	C	0.948676	0.462994	0.500050
C37	C	0.535394	-0.038530	0.000051
C38	C	1.035394	0.461470	0.500051
C39	C	0.568815	-0.115039	0.000039
C40	C	1.068815	0.384961	0.500039
C41	C	0.395376	-0.111990	0.000045
C42	C	0.895376	0.388010	0.500045
C43	C	0.301350	-0.110337	0.000051
C44	C	0.801350	0.389663	0.500051
C45	C	0.662847	-0.116693	0.000035
C46	C	1.162847	0.383307	0.500035
C47	C	1.134101	-0.107404	0.000053
C48	C	1.634101	0.392596	0.500053
C49	C	1.226397	-0.109019	0.000052
C50	C	1.726397	0.390981	0.500052
C51	C	0.975984	-0.265521	0.000034
C52	C	1.475984	0.234479	0.500034
C53	C	0.977600	-0.357816	0.000027
C54	C	1.477600	0.142184	0.500027
C55	C	1.058599	0.353059	0.000047
C56	C	1.558599	0.853059	0.500047
C57	C	1.057075	0.439779	0.000040
C58	C	1.557075	0.939779	0.500040
C59	C	0.905586	0.419905	0.000034
C60	C	1.405586	0.919905	0.500034
C61	C	0.907111	0.333186	0.000035
C62	C	1.407111	0.833186	0.500035
C63	C	0.983620	0.299766	0.000046
C64	C	1.483620	0.799766	0.500046
C65	C	0.980571	0.473205	0.000038
C66	C	1.480571	0.973205	0.500038
C67	C	0.978918	0.567231	0.000030
C68	C	1.478918	1.067231	0.500030
C69	C	0.985273	0.205734	0.000052
C70	C	1.485273	0.705734	0.500052
N71	N	0.982109	-0.113512	-0.228129
N72	N	1.482109	0.386488	0.271871
C73	C	1.038644	-0.056994	0.453950
C74	C	1.538644	0.443006	0.953950
C75	C	1.038647	-0.056992	0.546140
C76	C	1.538647	0.443008	1.046140
C77	C	0.925547	-0.170032	0.546135
C78	C	1.425547	0.329968	1.046135
C79	C	0.925541	-0.170030	0.453947
C80	C	1.425541	0.329970	0.953947
C81	C	0.982094	-0.113511	0.407857
C82	C	1.482094	0.386489	0.907857
C83	C	0.982103	-0.113512	0.592235
C84	C	1.482103	0.386488	1.092235
C85	C	0.982105	-0.113510	0.692191
C86	C	1.482105	0.386490	1.192191
C87	C	0.982091	-0.113512	0.307894
C88	C	1.482091	0.386488	0.807894
H89	H	0.542730	-0.252317	0.000034
H90	H	1.042730	0.247683	0.500034
H91	H	0.578788	0.022530	0.000056
H92	H	1.078788	0.522530	0.500056
N93	N	1.141116	0.317013	0.000058
N94	N	1.641116	0.817013	0.500058
H95	H	1.173966	0.336441	-0.054234
H96	H	1.673966	0.836441	0.445766
H97	H	1.130637	0.253996	0.000095
H98	H	1.630637	0.753996	0.500095
H99	H	1.084692	-0.010972	0.416426
H100	H	1.584692	0.489028	0.916426
H101	H	0.846050	0.289792	0.000032
H102	H	1.346050	0.789792	0.500032
H103	H	1.084694	-0.010969	0.583667
H104	H	1.584694	0.489031	1.083667
N105	N	0.371341	-0.269377	0.000074
N106	N	0.871341	0.230623	0.500074
H107	H	0.382082	-0.302774	-0.054210
H108	H	0.882082	0.197226	0.445790
H109	H	0.311350	-0.256758	0.000124
H110	H	0.811350	0.243242	0.500124
N111	N	0.864560	-0.231000	0.595842
N112	N	1.364560	0.269000	1.095842
H113	H	0.805557	-0.221408	0.579806
H114	H	1.305557	0.278592	1.079806
H115	H	0.873217	-0.222401	0.661222
H116	H	1.373217	0.277599	1.161222
H117	H	0.879487	-0.216053	0.416415
H118	H	1.379487	0.283947	0.916415
H119	H	1.118130	0.483168	0.000039
H120	H	1.618130	0.983168	0.500039
N121	N	0.412629	0.045511	0.000067
N122	N	0.912629	0.545511	0.500067
H123	H	0.349606	0.035102	0.000066
H124	H	0.849606	0.535102	0.500066
H125	H	0.432126	0.078322	-0.054223
H126	H	0.932126	0.578322	0.445777
H127	H	0.843295	0.447127	0.000027
H128	H	1.343295	0.947127	0.500027
