data_functionalizedCrystal
_audit_creation_method	'MofGen! by Chris Wilmer'
_symmetry_space_group_name_H-M	'P1'
_symmetry_Int_Tables_number	1
_symmetry_cell_setting	triclinic
loop_
_symmetry_equiv_pos_as_xyz
  x,y,z
_cell_length_a	12.827893
_cell_length_b	16.625546
_cell_length_c	12.827885
_cell_angle_alpha	90.035124
_cell_angle_beta	90.019272
_cell_angle_gamma	90.022439
loop_
_atom_site_label
_atom_site_type_symbol
_atom_site_fract_x
_atom_site_fract_y
_atom_site_fract_z
Zn1	Zn	1.597618	-0.320963	0.590810
Zn2	Zn	1.597491	-0.455817	0.416054
Zn3	Zn	1.422860	-0.321002	0.416084
Zn4	Zn	1.422823	-0.455757	0.590754
O5	O	1.510198	-0.388385	0.503425
O6	O	1.743837	-0.338861	0.567639
O7	O	1.574287	-0.437976	0.269822
O8	O	1.446110	-0.208165	0.439297
O9	O	1.743744	-0.437937	0.439247
O10	O	1.574505	-0.208136	0.567668
O11	O	1.445987	-0.338928	0.269843
O12	O	1.276619	-0.338869	0.439243
O13	O	1.446048	-0.437835	0.736997
O14	O	1.276592	-0.437873	0.567572
O15	O	1.574469	-0.338802	0.737039
O16	O	1.574252	-0.568642	0.439192
O17	O	1.445925	-0.568598	0.567544
C18	C	1.238688	-0.388370	0.503405
C19	C	1.122535	-0.388382	0.503422
C20	C	1.070765	-0.437449	0.566825
C21	C	0.950714	-0.437464	0.566844
C22	C	1.510099	-0.597876	0.503382
C23	C	1.510152	-0.687497	0.503398
C24	C	1.510335	-1.015673	0.503507
C25	C	1.510281	-0.924364	0.503479
C26	C	1.510243	-0.851588	0.503452
C27	C	1.510190	-0.760274	0.503425
C28	C	1.782768	-0.388401	0.503446
C29	C	1.898921	-0.388408	0.503455
C30	C	1.510269	-0.388308	0.775996
C31	C	1.510299	-0.388275	0.892149
C32	C	1.510326	-0.178076	0.503492
C33	C	1.510380	-0.088455	0.503521
C34	C	1.510187	-0.388404	0.231915
C35	C	1.510359	-0.388210	0.115763
C36	C	1.573853	-0.339261	0.943954
C37	C	1.573886	-0.339225	1.064004
H38	H	0.906193	-0.479474	0.621123
C39	C	1.646247	-0.283206	0.884649
C40	C	1.623557	-0.203399	0.911124
C41	C	1.690218	-0.151738	0.856505
H42	H	1.716512	-0.294887	0.902439
H43	H	1.636575	-0.290609	0.811841
H44	H	1.633238	-0.196000	0.983916
H45	H	1.553304	-0.191693	0.893332
H46	H	1.680546	-0.159141	0.783697
H47	H	1.760479	-0.163426	0.874299
H48	H	1.674826	-0.097584	0.874453
H49	H	0.943436	-0.346401	0.449166
H50	H	1.077981	-0.346382	0.449157
C51	C	1.646614	-0.283368	1.123345
C52	C	1.750017	-0.300931	1.096894
C53	C	1.817045	-0.249498	1.151551
H54	H	1.631501	-0.229156	1.105571
H55	H	1.637063	-0.290789	1.196148
H56	H	1.759564	-0.293504	1.024108
H57	H	1.765162	-0.355134	1.114671
H58	H	1.807493	-0.256919	1.224353
H59	H	1.801923	-0.195288	1.133772
H60	H	1.887211	-0.261412	1.133618
H61	H	1.115319	-0.479444	0.621098
C62	C	1.437974	-0.444216	1.056238
C63	C	1.497156	-0.495859	0.993546
C64	C	1.430512	-0.547454	0.938677
H65	H	1.398097	-0.475022	1.104160
H66	H	1.392506	-0.413374	1.013602
H67	H	1.542606	-0.526698	1.036178
H68	H	1.537031	-0.465075	0.945604
H69	H	1.385044	-0.516612	0.896042
H70	H	1.390638	-0.578255	0.986607
H71	H	1.470656	-0.582495	0.896128
H72	H	1.455906	-0.430206	0.936673
