data_functionalizedCrystal
_audit_creation_method	'MofGen! by Chris Wilmer'
_symmetry_space_group_name_H-M	'P1'
_symmetry_Int_Tables_number	1
_symmetry_cell_setting	triclinic
loop_
_symmetry_equiv_pos_as_xyz
  x,y,z
_cell_length_a	16.625548
_cell_length_b	12.759399
_cell_length_c	12.759386
_cell_angle_alpha	90.058757
_cell_angle_beta	89.955710
_cell_angle_gamma	89.984682
loop_
_atom_site_label
_atom_site_type_symbol
_atom_site_fract_x
_atom_site_fract_y
_atom_site_fract_z
Zn1	Zn	1.232915	0.417854	-0.594098
Zn2	Zn	1.232782	0.593668	-0.418429
Zn3	Zn	1.098021	0.418007	-0.418427
Zn4	Zn	1.098067	0.593495	-0.594061
O5	O	1.165446	0.505756	-0.506254
O6	O	1.345730	0.441185	-0.570811
O7	O	1.214831	0.570502	-0.271408
O8	O	1.115952	0.270965	-0.441745
O9	O	1.345632	0.570354	-0.441748
O10	O	1.215058	0.270853	-0.570809
O11	O	1.115823	0.441445	-0.271406
O12	O	0.985195	0.441277	-0.441709
O13	O	1.116030	0.570060	-0.741087
O14	O	0.985228	0.570208	-0.570747
O15	O	1.215102	0.441017	-0.741114
O16	O	1.214875	0.740666	-0.441712
O17	O	1.115900	0.740539	-0.570748
C18	C	1.165400	0.778723	-0.506249
C19	C	1.165454	0.895500	-0.506283
C20	C	0.955956	0.505741	-0.506224
C21	C	0.866334	0.505760	-0.506237
C22	C	1.217050	0.950393	-0.439174
C23	C	1.217103	1.060117	-0.439217
C24	C	1.113958	1.060045	-0.573481
C25	C	1.113909	0.950323	-0.573442
C26	C	1.312265	1.210014	-0.401844
C27	C	1.363854	1.264911	-0.334719
C28	C	1.376228	1.229428	-0.232207
C29	C	1.337002	1.139049	-0.196798
C30	C	1.285407	1.084158	-0.263918
C31	C	1.273048	1.119640	-0.366445
C32	C	1.018746	0.800424	-0.610804
C33	C	0.967147	0.745531	-0.677919
C34	C	0.954765	0.781012	-0.780433
C35	C	0.993976	0.871394	-0.815838
C36	C	1.045576	0.926287	-0.748723
C37	C	1.057959	0.890798	-0.646210
C38	C	0.538159	0.505767	-0.506282
C39	C	0.629467	0.505762	-0.506266
C40	C	0.702244	0.505764	-0.506258
C41	C	0.793558	0.505758	-0.506244
C42	C	1.375755	0.505772	-0.506284
C43	C	1.465376	0.505778	-0.506297
C44	C	1.165586	0.505502	-0.780288
C45	C	1.165645	0.505394	-0.897064
C46	C	1.165518	1.231722	-0.506299
C47	C	1.165556	1.114946	-0.506364
C48	C	1.165354	0.505933	-0.233286
C49	C	1.165451	0.505745	-0.116510
C50	C	1.113576	0.438957	-0.061697
C51	C	1.113676	0.438778	0.048027
C52	C	1.217525	0.572185	0.048115
C53	C	1.217430	0.572357	-0.061607
C54	C	1.084337	0.314912	0.197729
C55	C	1.032450	0.248133	0.252546
C56	C	0.953660	0.232799	0.217091
C57	C	0.926740	0.284260	0.126821
C58	C	0.978622	0.351046	0.072010
C59	C	1.057424	0.366360	0.107463
C60	C	1.246760	0.696225	-0.211311
C61	C	1.298639	0.763018	-0.266124
C62	C	1.377431	0.778362	-0.230671
C63	C	1.404348	0.726921	-0.140398
C64	C	1.352469	0.660128	-0.085585
C65	C	1.273678	0.644782	-0.121045
H66	H	1.259022	0.905758	-0.384490
Br67	Br	0.942097	0.420882	-0.050492
Br68	Br	0.977172	0.919555	-0.954967
H69	H	1.468506	0.739417	-0.111530
H70	H	1.071991	1.104695	-0.628158
Br71	Br	0.913897	0.622898	-0.629853
Br72	Br	1.447835	0.869025	-0.305053
Br73	Br	1.098792	1.048951	-0.796770
Br74	Br	0.884681	0.706563	-0.871490
Br75	Br	1.035555	0.752259	-0.471674
H76	H	1.071255	0.384713	-0.106396
H77	H	1.054376	0.206234	0.326044
H78	H	0.862577	0.271778	0.097968
H79	H	1.253472	1.010573	-0.235090
Br80	Br	1.191279	0.335692	0.245835
Br81	Br	0.883243	0.142172	0.291488
H82	H	1.418233	1.274132	-0.177553
H83	H	1.259843	0.626420	0.092830
H84	H	1.374392	0.618241	-0.012079
H85	H	1.347075	1.110172	-0.113318
Br86	Br	1.417085	1.387565	-0.382769
Br87	Br	1.295489	1.258164	-0.540982
H88	H	1.276716	0.804904	-0.339630
Br89	Br	1.139825	0.675394	-0.259438
