data_functionalizedCrystal
_audit_creation_method	'MofGen! by Chris Wilmer'
_symmetry_space_group_name_H-M	'P1'
_symmetry_Int_Tables_number	1
_symmetry_cell_setting	triclinic
loop_
_symmetry_equiv_pos_as_xyz
  x,y,z
_cell_length_a	14.044220
_cell_length_b	10.654550
_cell_length_c	9.730223
_cell_angle_alpha	89.999807
_cell_angle_beta	90.004504
_cell_angle_gamma	88.836890
loop_
_atom_site_label
_atom_site_type_symbol
_atom_site_fract_x
_atom_site_fract_y
_atom_site_fract_z
O1	O	1.259693	0.302980	-0.114137
O2	O	0.983652	0.292047	-0.114172
O3	O	1.128019	0.115412	-0.114149
O4	O	1.115326	0.479615	-0.114161
O5	O	1.128018	0.115417	0.114431
O6	O	0.983650	0.292052	0.114408
O7	O	1.259691	0.302985	0.114443
Zn8	Zn	1.121671	0.297519	0.150717
Zn9	Zn	1.121673	0.297513	-0.150447
O10	O	1.115324	0.479620	0.114419
C11	C	1.127086	0.068523	0.000139
C12	C	1.124298	-0.071201	0.000134
C13	C	0.948305	0.287263	0.000113
C14	C	0.842986	0.272988	0.000100
C15	C	1.209299	-0.142144	0.000149
C16	C	1.206673	-0.273429	0.000139
C17	C	1.034038	-0.262814	0.000105
C18	C	1.036664	-0.131532	0.000105
C19	C	1.308969	-0.148274	0.000175
C20	C	1.306343	-0.279559	0.000165
C21	C	0.650153	0.246889	0.000128
C22	C	0.593185	0.348137	0.000130
C23	C	0.485886	0.333615	0.000146
C24	C	0.757461	0.261409	0.000112
C25	C	1.295038	0.307769	0.000154
C26	C	1.400358	0.322044	0.000159
C27	C	1.116257	0.526509	0.000128
C28	C	1.119045	0.666233	0.000124
N29	N	1.121676	0.297523	0.356254
N30	N	1.121675	0.297500	-0.355983
C31	C	1.185618	0.219340	0.428190
C32	C	1.185616	0.219324	0.572073
C33	C	1.057725	0.375686	0.572070
C34	C	1.057724	0.375694	0.428190
C35	C	1.259458	0.129069	0.428193
C36	C	1.259455	0.129054	0.572076
H37	H	0.967448	-0.073774	0.000074
N38	N	1.346251	-0.336034	-0.130543
H39	H	1.402485	-0.392879	-0.107796
H40	H	1.295475	-0.386239	-0.177632
N41	N	1.228945	0.005156	0.631198
H42	H	1.281983	-0.031654	0.689638
H43	H	1.170194	0.018925	0.689566
N44	N	0.635314	0.477407	0.000117
H45	H	0.707105	0.469595	0.000104
H46	H	0.613451	0.524537	-0.084625
N47	N	1.350999	-0.096901	0.130942
H48	H	1.409384	-0.047104	0.108298
H49	H	1.302344	-0.040603	0.178024
H50	H	0.618342	0.149310	0.000139
N51	N	0.988742	0.459995	0.350598
H52	H	0.948230	0.509511	0.418006
H53	H	1.025403	0.519665	0.290902
H54	H	1.343897	-0.317543	0.095828
N55	N	0.988749	0.459992	0.649659
H56	H	0.998449	0.448122	0.751723
H57	H	1.000285	0.550388	0.624522
H58	H	0.962689	-0.311952	0.000080
N59	N	1.238009	-0.000947	0.376445
H60	H	1.228431	-0.058974	0.457131
H61	H	1.178238	0.002535	0.318734
N62	N	1.350679	0.178744	0.369068
H63	H	1.359550	0.267915	0.401099
H64	H	1.406203	0.124579	0.401111
N65	N	1.360608	-0.104184	-0.126513
H66	H	1.381753	-0.179200	-0.183056
H67	H	1.316458	-0.048752	-0.182960
N68	N	1.356005	0.167257	0.623831
H69	H	1.399091	0.184325	0.543148
H70	H	1.348790	0.245662	0.681542
