data_functionalizedCrystal
_audit_creation_method	'MofGen! by Chris Wilmer'
_symmetry_space_group_name_H-M	'P1'
_symmetry_Int_Tables_number	1
_symmetry_cell_setting	triclinic
loop_
_symmetry_equiv_pos_as_xyz
  x,y,z
_cell_length_a	14.044209
_cell_length_b	15.186229
_cell_length_c	16.109301
_cell_angle_alpha	89.995060
_cell_angle_beta	91.675283
_cell_angle_gamma	89.998028
loop_
_atom_site_label
_atom_site_type_symbol
_atom_site_fract_x
_atom_site_fract_y
_atom_site_fract_z
O1	O	-1.257645	-0.073128	0.200427
O2	O	-0.981678	-0.073153	0.193196
O3	O	-1.127242	-0.073130	0.076344
O4	O	-1.112080	-0.073150	0.317278
O5	O	-1.127232	0.073327	0.076342
O6	O	-0.981667	0.073305	0.193194
O7	O	-1.257635	0.073330	0.200425
Zn8	Zn	-1.119649	0.096570	0.196809
Zn9	Zn	-1.119663	-0.096393	0.196811
O10	O	-1.112070	0.073307	0.317276
C11	C	-0.946359	0.000073	0.190029
C12	C	-0.841136	0.000064	0.180586
N13	N	-1.119647	0.228263	0.196807
C14	C	-0.648480	0.000081	0.163322
C15	C	-0.590826	0.000078	0.230302
C16	C	-0.483625	0.000088	0.220696
C17	C	-0.755690	0.000071	0.172927
C18	C	-1.184124	0.453996	0.145087
C19	C	-1.184127	0.546185	0.145085
C20	C	-1.055185	0.546175	0.248533
C21	C	-1.055179	0.453987	0.248530
C22	C	-1.119654	0.407900	0.196808
C23	C	-1.119663	0.592277	0.196810
C24	C	-1.119665	0.692233	0.196809
C25	C	-1.119650	0.307937	0.196808
C26	C	-0.292953	0.000100	0.203593
C27	C	-0.398175	0.000095	0.213041
C28	C	-1.126623	0.000099	0.045323
C29	C	-1.124782	0.000100	-0.047110
N30	N	-1.119669	0.771914	0.196811
C31	C	-1.206875	0.000093	-0.263275
C32	C	-1.205138	0.000086	-0.350125
C33	C	-1.032430	0.000074	-0.343099
C34	C	-1.034169	0.000075	-0.256251
C35	C	-1.121394	0.000089	-0.216341
C36	C	-1.117918	0.000080	-0.390039
C37	C	-1.116034	0.000072	-0.484205
C38	C	-1.123279	0.000095	-0.122169
C39	C	-1.112689	0.000077	0.348298
C40	C	-1.114531	0.000070	0.440730
H41	H	-0.621977	0.000069	0.294859
H42	H	-0.617330	0.000090	0.098770
H43	H	-1.002692	0.583708	0.290646
H44	H	-1.274745	0.000087	-0.388335
H45	H	-1.277900	0.000103	-0.230783
H46	H	-0.961414	0.000064	-0.375604
H47	H	-1.236622	0.416474	0.102970
H48	H	-0.964555	0.000069	-0.218035
H49	H	-1.002674	0.416453	0.290648
O50	O	-1.246847	0.590826	0.094821
C51	C	-1.303731	0.530376	0.049156
H52	H	-1.304786	0.464658	0.083323
H53	H	-1.379430	0.557011	0.042123
H54	H	-1.272978	0.520577	-0.014904
