data_functionalizedCrystal
_audit_creation_method	'MofGen! by Chris Wilmer'
_symmetry_space_group_name_H-M	'P1'
_symmetry_Int_Tables_number	1
_symmetry_cell_setting	triclinic
loop_
_symmetry_equiv_pos_as_xyz
  x,y,z
_cell_length_a	10.723024
_cell_length_b	15.995350
_cell_length_c	9.198806
_cell_angle_alpha	89.999047
_cell_angle_beta	89.996352
_cell_angle_gamma	83.980122
loop_
_atom_site_label
_atom_site_type_symbol
_atom_site_fract_x
_atom_site_fract_y
_atom_site_fract_z
O1	O	1.655690	0.117435	-0.120875
O2	O	1.292394	0.128675	-0.120879
O3	O	1.483973	0.001224	-0.120876
O4	O	1.464111	0.244886	-0.120879
O5	O	1.483957	0.001224	0.120909
O6	O	1.292379	0.128675	0.120906
O7	O	1.655674	0.117434	0.120910
Cu8	Cu	1.474025	0.123055	0.142985
Cu9	Cu	1.474043	0.123055	-0.142954
O10	O	1.464096	0.244885	0.120906
C11	C	1.245897	0.127857	0.000013
C12	C	1.107374	0.125410	0.000011
C13	C	1.031482	0.196725	0.000009
C14	C	0.888310	0.194197	0.000007
C15	C	1.483144	-0.029975	0.000014
C16	C	1.480682	-0.122940	0.000006
C17	C	1.471842	-0.460738	0.000011
C18	C	1.335403	-0.414088	-0.000533
C19	C	1.337865	-0.317383	0.000012
C20	C	1.476227	-0.293152	0.000007
C21	C	1.543515	-0.333843	0.138077
C22	C	1.540087	-0.430499	0.138192
C23	C	1.542923	-0.430840	-0.136763
C24	C	1.542891	-0.333895	-0.138587
C25	C	1.478712	-0.198441	0.000010
C26	C	1.469360	-0.555450	0.000017
C27	C	1.702171	0.118252	0.000015
C28	C	1.840694	0.120700	0.000007
C29	C	1.464924	0.276085	0.000013
C30	C	1.467386	0.369049	0.000012
N31	N	1.474022	0.123054	0.344099
N32	N	1.474056	0.123049	-0.344068
C33	C	1.554463	0.069305	0.416297
C34	C	1.554482	0.069302	0.583709
H35	H	0.823099	0.255248	-0.000000
C36	C	1.051965	0.040395	0.000012
N37	N	1.010234	-0.023640	0.000010
C38	C	1.266398	-0.279394	-0.133691
N39	N	1.212560	-0.250783	-0.234396
H40	H	0.905898	0.059646	-0.000001
H41	H	1.280876	-0.432932	-0.099545
C42	C	1.381010	0.185220	0.572066
N43	N	1.310926	0.232046	0.508888
H44	H	1.405162	0.169065	0.406225
C45	C	1.262062	-0.440953	0.132511
N46	N	1.206830	-0.461181	0.232733
C47	C	1.265915	-0.280149	0.133951
N48	N	1.211722	-0.252106	0.234842
H49	H	1.072501	0.259651	0.000016
H50	H	1.491008	-0.449082	0.241404
C51	C	1.647524	0.007133	0.667585
N52	N	1.717605	-0.039696	0.730763
H53	H	1.640258	-0.462172	0.144454
H54	H	1.645165	-0.319134	0.143208
H55	H	1.496767	-0.305731	0.240826
C56	C	1.476492	-0.297417	-0.276580
N57	N	1.426468	-0.269944	-0.380513
H58	H	1.643790	-0.317954	-0.146927
C59	C	1.482663	-0.458930	-0.278139
N60	N	1.437261	-0.480086	-0.384616
H61	H	1.643519	-0.462023	-0.137694
H62	H	1.623314	0.023287	0.354172
