data_functionalizedCrystal
_audit_creation_method	'MofGen! by Chris Wilmer'
_symmetry_space_group_name_H-M	'P1'
_symmetry_Int_Tables_number	1
_symmetry_cell_setting	triclinic
loop_
_symmetry_equiv_pos_as_xyz
  x,y,z
_cell_length_a	17.699083
_cell_length_b	17.699083
_cell_length_c	16.176319
_cell_angle_alpha	89.992304
_cell_angle_beta	89.998611
_cell_angle_gamma	83.283015
loop_
_atom_site_label
_atom_site_type_symbol
_atom_site_fract_x
_atom_site_fract_y
_atom_site_fract_z
O1	O	1.004079	0.095713	-0.068632
O2	O	0.783700	0.108166	-0.068660
O3	O	0.900116	-0.008250	-0.068638
O4	O	0.887663	0.212129	-0.068654
O5	O	0.900100	-0.008257	0.068855
O6	O	0.783684	0.108158	0.068834
O7	O	1.004063	0.095706	0.068861
Cu8	Cu	0.893872	0.101931	0.081401
Cu9	Cu	0.893891	0.101940	-0.081200
O10	O	0.887647	0.212121	0.068839
C11	C	0.755495	0.107716	0.000084
C12	C	0.671477	0.106377	0.000073
C13	C	0.622856	0.174710	0.000069
C14	C	0.543913	0.173448	0.000079
C15	C	0.513592	0.103852	0.000089
C16	C	0.562219	0.035513	0.000096
C17	C	0.641161	0.036776	0.000091
C18	C	0.243856	0.030418	0.000117
C19	C	0.164908	0.029160	0.000120
C20	C	0.146608	0.167090	0.000105
C21	C	0.225550	0.168353	0.000100
C22	C	0.274170	0.100015	0.000112
C23	C	0.359769	0.101384	0.000102
C24	C	0.427995	0.102481	0.000093
C25	C	0.899662	-0.036451	0.000109
C26	C	0.898323	-0.120469	0.000109
C27	C	0.966656	-0.169090	0.000119
C28	C	0.965394	-0.248033	0.000111
C29	C	0.895798	-0.278354	0.000100
C30	C	0.827459	-0.229727	0.000088
C31	C	0.828722	-0.150785	0.000089
C32	C	0.822364	-0.548090	0.000080
C33	C	0.821106	-0.627038	0.000081
C34	C	0.959036	-0.645338	0.000102
C35	C	0.960299	-0.566396	0.000104
C36	C	0.891961	-0.517776	0.000087
C37	C	0.893330	-0.432177	0.000094
C38	C	0.894427	-0.363951	0.000099
C39	C	1.032268	0.096156	0.000116
C40	C	1.116286	0.097494	0.000121
C41	C	0.888102	0.240322	0.000091
C42	C	0.889440	0.324340	0.000085
N43	N	0.893864	0.101925	0.195767
N44	N	0.893905	0.101941	-0.195565
C45	C	0.945429	0.050397	0.239040
C46	C	0.945432	0.050396	0.325588
C47	C	0.893875	0.101927	0.368859
C48	C	0.842305	0.153457	0.325579
C49	C	0.842299	0.153454	0.239034
C50	C	0.842331	0.153472	0.674608
C51	C	0.842344	0.153473	0.761159
C52	C	0.945465	0.050414	0.761161
C53	C	0.945458	0.050410	0.674616
C54	C	0.893886	0.101937	0.631344
C55	C	0.893882	0.101937	0.537499
C56	C	0.893883	0.101932	0.462702
H57	H	0.504328	0.229092	0.000075
H58	H	0.250232	0.225025	0.000089
H59	H	1.023330	-0.144409	0.000133
H60	H	0.283434	-0.025228	0.000127
H61	H	0.647537	0.231384	0.000060
C62	C	0.528869	-0.041045	0.000106
C63	C	0.442037	-0.042439	0.000105
C64	C	0.408689	-0.118999	0.000111
C65	C	0.462174	-0.194165	0.000117
C66	C	0.549011	-0.192774	0.000118
C67	C	0.582359	-0.116214	0.000112
H68	H	0.402440	0.013206	0.000100
H69	H	0.344406	-0.120028	0.000110
H70	H	0.437488	-0.250839	0.000121
H71	H	0.588608	-0.248419	0.000123
H72	H	0.646642	-0.115185	0.000113
C73	C	0.785611	0.210154	0.627011
C74	C	0.728922	0.266862	0.674604
C75	C	0.672201	0.323548	0.627001
C76	C	0.672169	0.323525	0.531804
C77	C	0.728860	0.266815	0.484206
C78	C	0.785581	0.210129	0.531809
H79	H	0.728944	0.266881	0.745079
H80	H	0.630235	0.365529	0.662237
H81	H	0.630181	0.365488	0.496566
H82	H	0.728838	0.266797	0.413731
H83	H	0.827548	0.168149	0.496573
C84	C	0.785578	0.210137	0.191430
C85	C	0.728892	0.266847	0.239024
C86	C	0.672167	0.323530	0.191422
C87	C	0.672128	0.323502	0.096225
C88	C	0.728816	0.266790	0.048626
C89	C	0.785541	0.210107	0.096228
H90	H	0.728919	0.266870	0.309499
H91	H	0.630202	0.365512	0.226659
H92	H	0.630136	0.365461	0.060987
H93	H	0.728789	0.266767	-0.021849
H94	H	0.827506	0.168125	0.060991
H95	H	0.680748	-0.018868	0.000095
H96	H	1.021038	-0.287618	0.000121
C97	C	1.036856	-0.533044	0.000112
C98	C	1.112024	-0.586526	0.000114
C99	C	1.188582	-0.553175	0.000117
C100	C	1.189973	-0.466343	0.000117
C101	C	1.114802	-0.412855	0.000114
C102	C	1.038244	-0.446206	0.000111
H103	H	1.110997	-0.650809	0.000115
H104	H	1.244229	-0.592771	0.000119
H105	H	1.246646	-0.441654	0.000119
H106	H	1.115829	-0.348572	0.000114
H107	H	0.982598	-0.406611	0.000109
H108	H	0.107012	0.222734	0.000100
C109	C	0.747194	-0.494614	0.000080
C110	C	0.670641	-0.527969	0.000082
C111	C	0.595467	-0.474489	0.000087
C112	C	0.596845	-0.387655	0.000092
C113	C	0.673401	-0.354296	0.000090
C114	C	0.748575	-0.407775	0.000084
H115	H	0.669618	-0.592253	0.000079
H116	H	0.538796	-0.499184	0.000088
H117	H	0.541197	-0.348066	0.000096
H118	H	0.674423	-0.290012	0.000093
H119	H	0.805246	-0.383080	0.000083
H120	H	0.140225	-0.027517	0.000128
H121	H	0.987419	0.008438	0.360821
C122	C	1.002144	-0.006290	0.191446
C123	C	1.058860	-0.062972	0.239051
C124	C	1.115575	-0.119662	0.191460
C125	C	1.115574	-0.119670	0.096263
C126	C	1.058856	-0.062986	0.048653
C127	C	1.002141	-0.006295	0.096244
H128	H	1.058862	-0.062968	0.309526
H129	H	1.157561	-0.161624	0.226705
H130	H	1.157558	-0.161636	0.061033
H131	H	1.058853	-0.062989	-0.021822
H132	H	0.960154	0.035666	0.060999
H133	H	1.014680	-0.684934	0.000111
C134	C	1.002170	-0.006275	0.627017
C135	C	1.058889	-0.062961	0.674615
C136	C	1.115600	-0.119650	0.627016
C137	C	1.115592	-0.119653	0.531819
C138	C	1.058871	-0.062966	0.484216
C139	C	1.002160	-0.006277	0.531815
H140	H	1.058897	-0.062960	0.745090
H141	H	1.157588	-0.161614	0.662256
H142	H	1.157572	-0.161618	0.496584
H143	H	1.058863	-0.062966	0.413741
H144	H	0.960172	0.035687	0.496575
H145	H	0.764429	-0.651721	0.000074
H146	H	0.770792	-0.254420	0.000073
H147	H	0.987456	0.008455	0.796403
H148	H	0.773078	-0.111198	0.000081
H149	H	0.800357	0.195437	0.796390
H150	H	0.800323	0.195413	0.360816
