data_functionalizedCrystal
_audit_creation_method	'MofGen! by Chris Wilmer'
_symmetry_space_group_name_H-M	'P1'
_symmetry_Int_Tables_number	1
_symmetry_cell_setting	triclinic
loop_
_symmetry_equiv_pos_as_xyz
  x,y,z
_cell_length_a	15.995350
_cell_length_b	22.010155
_cell_length_c	15.995292
_cell_angle_alpha	89.992556
_cell_angle_beta	83.480495
_cell_angle_gamma	90.004816
loop_
_atom_site_label
_atom_site_type_symbol
_atom_site_fract_x
_atom_site_fract_y
_atom_site_fract_z
O1	O	1.110969	0.050469	0.107918
O2	O	0.867191	0.050481	0.121246
O3	O	0.995769	0.050476	-0.007309
O4	O	0.982391	0.050475	0.236473
O5	O	0.995746	-0.050574	-0.007290
O6	O	0.867168	-0.050569	0.121265
O7	O	1.110946	-0.050581	0.107937
Cu8	Cu	0.989055	-0.059802	0.114603
Cu9	Cu	0.989082	0.059702	0.114580
O10	O	0.982368	-0.050576	0.236492
C11	C	0.835985	-0.000042	0.120704
C12	C	0.743035	-0.000038	0.119053
N13	N	0.989041	-0.143854	0.114618
C14	C	0.405288	-0.000050	0.113120
C15	C	0.452742	-0.000275	0.021566
C16	C	0.549431	-0.000043	0.023218
C17	C	0.572848	-0.000044	0.116063
C18	C	0.531765	0.057658	0.161210
C19	C	0.435130	0.057702	0.158910
C20	C	0.434764	-0.057211	0.160823
C21	C	0.531709	-0.057970	0.160802
C22	C	0.667546	-0.000039	0.117731
C23	C	0.310591	-0.000051	0.111455
C24	C	1.046020	-0.563636	0.057664
C25	C	1.046024	-0.627244	0.057658
O26	O	1.094436	-0.660137	0.009244
N27	N	0.989082	-0.659061	0.114563
C28	C	0.932126	-0.627268	0.171471
O29	O	0.883692	-0.660172	0.219871
C30	C	0.932119	-0.563662	0.171472
C31	C	0.989071	-0.531847	0.114569
C32	C	1.102966	-0.531822	0.000766
C33	C	1.102963	-0.468218	0.000773
C34	C	1.046014	-0.436430	0.057678
C35	C	0.989068	-0.468244	0.114576
C36	C	0.875160	-0.531870	0.228375
C37	C	0.875158	-0.468259	0.228371
C38	C	0.932109	-0.436445	0.171468
C39	C	0.932115	-0.372852	0.171489
N40	N	0.989057	-0.341034	0.114584
C41	C	1.046007	-0.372823	0.057679
C42	C	0.932145	-0.760846	0.171463
C43	C	0.932155	-0.824451	0.171467
C44	C	1.046052	-0.824422	0.057653
C45	C	1.046045	-0.760816	0.057654
C46	C	0.989087	-0.729028	0.114559
C47	C	1.045996	-0.239252	0.057699
C48	C	1.045991	-0.175643	0.057713
C49	C	0.932091	-0.175677	0.171523
C50	C	0.932100	-0.239281	0.171512
C51	C	0.989055	-0.271066	0.114593
O52	O	0.883726	-0.339918	0.219876
O53	O	1.094425	-0.339911	0.009280
C54	C	1.142152	-0.000056	0.108479
C55	C	1.235102	-0.000057	0.110130
C56	C	0.995213	-0.000048	-0.038495
C57	C	0.993581	-0.000043	-0.131448
N58	N	0.989102	0.143754	0.114558
C59	C	0.987580	-0.000048	-0.469186
C60	C	1.080384	-0.000279	-0.445874
C61	C	1.082148	-0.000049	-0.349199
C62	C	0.990557	-0.000046	-0.301631
C63	C	0.944173	0.057659	-0.330743
C64	C	0.943056	0.057705	-0.427533
C65	C	0.941134	-0.057208	-0.427368
C66	C	0.944573	-0.057968	-0.330876
C67	C	0.992235	-0.000043	-0.206934
C68	C	0.985899	-0.000048	-0.563882
C69	C	0.982924	-0.000051	0.267678
C70	C	0.984556	-0.000051	0.360631
H71	H	0.577858	-0.041407	-0.012271
H72	H	1.149336	-0.442319	-0.045564
H73	H	0.970350	-0.100948	-0.455449
F74	F	0.871486	-0.141836	0.232085
H75	H	1.118709	0.041385	-0.330802
F76	F	1.106610	-0.141787	-0.002851
F77	F	0.857190	-0.062522	-0.287784
F78	F	0.392959	0.061124	0.246765
F79	F	0.567327	-0.113765	0.117657
H80	H	0.545876	0.059803	0.229420
F81	F	1.106661	-0.858266	-0.002912
H82	H	0.414225	-0.100948	0.130900
H83	H	0.547060	-0.061456	0.228508
H84	H	0.978348	-0.100658	-0.312302
H85	H	1.092374	-0.265124	0.011349
F86	F	0.871493	-0.273139	0.232084
F87	F	1.129614	-0.054123	-0.324316
F88	F	0.985074	0.114082	-0.462598
H89	H	0.885789	-0.850350	0.217810
F90	F	0.851847	-0.057715	-0.445655
F91	F	0.814531	-0.434433	0.288937
F92	F	0.854119	0.061134	-0.446555
F93	F	1.127130	-0.054370	-0.482457
F94	F	1.126895	0.053503	-0.483811
F95	F	0.428526	-0.054363	-0.026258
H96	H	1.149341	-0.557698	-0.045577
H97	H	0.876775	0.059806	-0.298875
H98	H	1.092419	-0.734916	0.011319
F99	F	0.871524	-0.727020	0.232038
H100	H	0.976403	0.100601	-0.310690
H101	H	0.433165	0.040877	-0.014870
H102	H	0.577306	0.041392	-0.012526
H103	H	0.828785	-0.557764	0.274709
F104	F	0.568871	0.113790	0.120204
H105	H	0.402988	-0.057602	0.228326
F106	F	0.411219	0.114081	0.115855
