data_functionalizedCrystal
_audit_creation_method	'MofGen! by Chris Wilmer'
_symmetry_space_group_name_H-M	'P1'
_symmetry_Int_Tables_number	1
_symmetry_cell_setting	triclinic
loop_
_symmetry_equiv_pos_as_xyz
  x,y,z
_cell_length_a	11.792254
_cell_length_b	11.792254
_cell_length_c	11.892095
_cell_angle_alpha	93.915908
_cell_angle_beta	86.074116
_cell_angle_gamma	84.198598
loop_
_atom_site_label
_atom_site_type_symbol
_atom_site_fract_x
_atom_site_fract_y
_atom_site_fract_z
O1	O	1.514119	0.148424	-0.094003
O2	O	1.183781	0.164442	-0.094005
O3	O	1.356959	-0.008735	-0.093996
O4	O	1.340942	0.321602	-0.094012
O5	O	1.342519	0.005681	0.094011
O6	O	1.169342	0.178859	0.094001
O7	O	1.499680	0.162841	0.094004
Zn8	Zn	1.332218	0.173139	0.123853
Zn9	Zn	1.351243	0.154144	-0.123854
O10	O	1.326503	0.336019	0.093994
C11	C	1.134271	0.170641	-0.000002
C12	C	1.008258	0.167621	-0.000003
C13	C	0.905921	0.165167	-0.000008
C14	C	0.777535	0.162098	-0.000008
C15	C	1.348730	-0.043818	0.000007
C16	C	1.345710	-0.169831	0.000006
C17	C	1.343256	-0.272168	0.000002
C18	C	1.340189	-0.400556	-0.000009
C19	C	1.549191	0.156642	-0.000002
C20	C	1.675204	0.159661	-0.000008
C21	C	1.334731	0.371101	-0.000011
C22	C	1.337752	0.497113	-0.000017
N23	N	1.319243	0.186102	0.292906
N24	N	1.364227	0.141172	-0.292908
C25	C	1.454516	0.050906	0.529561
C26	C	1.445454	0.059975	0.647903
C27	C	1.292054	0.213303	0.647932
C28	C	1.301115	0.204234	0.529591
C29	C	1.382350	0.123034	0.470410
C30	C	1.391416	0.113971	0.352066
C31	C	1.238011	0.267293	0.352098
C32	C	1.228950	0.276362	0.470439
H33	H	1.520667	-0.015202	0.481375
H34	H	1.225907	0.279407	0.696133
O35	O	1.149988	0.355089	0.528060
C36	C	1.074329	0.299078	0.596507
H37	H	1.117620	0.211921	0.614224
H38	H	0.993889	0.287316	0.550918
C39	C	0.988694	0.478568	0.687166
C40	C	1.041869	0.371523	0.708934
H41	H	0.968666	0.523256	0.756514
H42	H	1.039664	0.516304	0.641049
H43	H	0.921667	0.468750	0.649172
H44	H	1.108901	0.381341	0.746914
H45	H	0.990910	0.333790	0.755060
H46	H	1.179252	0.326027	0.303923
O47	O	1.515517	-0.010253	0.705240
C48	C	1.498559	-0.124948	0.676351
H49	H	1.461392	-0.131685	0.590436
H50	H	1.436743	-0.155319	0.742968
C51	C	1.659397	-0.191832	0.776384
C52	C	1.613756	-0.200108	0.670857
H53	H	1.730454	-0.238197	0.773000
H54	H	1.670820	-0.114561	0.795851
H55	H	1.607873	-0.217140	0.831887
H56	H	1.665274	-0.174787	0.615360
H57	H	1.602345	-0.277378	0.651380
H58	H	1.457564	0.047857	0.303881
