data_functionalizedCrystal
_audit_creation_method	'MofGen! by Chris Wilmer'
_symmetry_space_group_name_H-M	'P1'
_symmetry_Int_Tables_number	1
_symmetry_cell_setting	triclinic
loop_
_symmetry_equiv_pos_as_xyz
  x,y,z
_cell_length_a	10.489746
_cell_length_b	10.489716
_cell_length_c	9.730217
_cell_angle_alpha	89.998864
_cell_angle_beta	90.000324
_cell_angle_gamma	84.535218
loop_
_atom_site_label
_atom_site_type_symbol
_atom_site_fract_x
_atom_site_fract_y
_atom_site_fract_z
O1	O	1.694032	0.179998	0.114184
O2	O	1.322836	0.196884	0.114206
O3	O	1.516897	0.002842	0.114199
O4	O	1.499971	0.374041	0.114190
O5	O	1.516884	0.002842	-0.114381
O6	O	1.322823	0.196885	-0.114374
O7	O	1.694019	0.179998	-0.114396
Zn8	Zn	1.508419	0.188442	-0.150677
Zn9	Zn	1.508436	0.188441	0.150487
O10	O	1.499958	0.374041	-0.114390
C11	C	1.275298	0.195608	-0.000081
C12	C	1.133669	0.191788	-0.000072
C13	C	0.980822	0.066063	-0.000089
C14	C	1.058204	0.128920	-0.112788
C15	C	1.058172	0.128950	0.112574
C16	C	0.958702	0.247903	-0.112898
C17	C	0.958665	0.247915	0.112565
C18	C	1.035998	0.310860	-0.000162
C19	C	1.515618	-0.044690	-0.000086
C20	C	1.511814	-0.186322	-0.000074
C21	C	1.630818	-0.283993	-0.000093
C22	C	1.567940	-0.361355	0.112609
C23	C	1.567899	-0.361319	-0.112753
C24	C	1.448985	-0.261818	0.112721
C25	C	1.448962	-0.261776	-0.112742
C26	C	1.385997	-0.339089	-0.000012
C27	C	1.741557	0.181275	-0.000106
C28	C	1.883186	0.185095	-0.000106
C29	C	1.501236	0.421573	-0.000101
C30	C	1.505041	0.563204	-0.000104
N31	N	1.508416	0.188441	-0.356214
C32	C	1.680360	0.016658	-0.643944
C33	C	1.766304	-0.069233	-0.571988
C34	C	1.766287	-0.069237	-0.428108
C35	C	1.680320	0.016663	-0.356181
C36	C	1.594377	0.102554	-0.428137
C37	C	1.594400	0.102545	-0.572020
C38	C	1.422473	0.274332	-0.428170
C39	C	1.422481	0.274331	-0.572050
C40	C	1.336506	0.360231	-0.356243
C41	C	1.250554	0.446118	-0.428199
C42	C	1.250574	0.446117	-0.572088
C43	C	1.336538	0.360222	-0.644006
N44	N	1.508448	0.188432	0.356023
H45	H	1.101625	0.078678	0.207855
N46	N	1.157870	0.538749	-0.649697
H47	H	1.207124	0.595710	-0.709390
H48	H	1.103435	0.593072	-0.582210
N49	N	0.901021	0.314405	0.238774
H50	H	0.838930	0.389172	0.210057
H51	H	0.971371	0.346368	0.296537
H52	H	1.618156	-0.404790	-0.208032
N53	N	1.382495	-0.204118	-0.238959
H54	H	1.384881	-0.108099	-0.237523
H55	H	1.290551	-0.225235	-0.239807
N56	N	1.859011	-0.161878	-0.649577
H57	H	1.843500	-0.252558	-0.624537
H58	H	1.949631	-0.146191	-0.624498
H59	H	1.680372	0.016641	-0.761098
N60	N	0.948064	-0.071027	-0.000265
H61	H	0.851948	-0.072620	0.000590
H62	H	0.985909	-0.116398	0.083978
H63	H	1.836274	-0.139172	-0.369521
H64	H	1.680322	0.016665	-0.239027
H65	H	1.101680	0.078672	-0.208068
H66	H	1.336501	0.360230	-0.239089
N67	N	1.157848	0.538763	-0.350626
H68	H	1.170885	0.525734	-0.248561
H69	H	1.067231	0.523134	-0.375779
N70	N	1.634488	-0.418987	0.238805
H71	H	1.571801	-0.464347	0.295256
H72	H	1.668045	-0.348817	0.295559
H73	H	1.336557	0.360209	-0.761160
H74	H	1.060465	0.414440	-0.000227
N75	N	0.901376	0.314421	-0.239255
H76	H	0.805429	0.311404	-0.238510
H77	H	0.938594	0.269786	-0.324202
N78	N	1.767930	-0.251302	0.000032
H79	H	1.812743	-0.287716	0.085243
H80	H	1.769466	-0.155183	-0.000888
H81	H	1.398782	-0.218515	0.208108
H82	H	1.282406	-0.363522	0.000054
