data_functionalizedCrystal
_audit_creation_method	'MofGen! by Chris Wilmer'
_symmetry_space_group_name_H-M	'P1'
_symmetry_Int_Tables_number	1
_symmetry_cell_setting	triclinic
loop_
_symmetry_equiv_pos_as_xyz
  x,y,z
_cell_length_a	13.635800
_cell_length_b	9.582889
_cell_length_c	9.582880
_cell_angle_alpha	89.899755
_cell_angle_beta	111.207034
_cell_angle_gamma	111.207298
loop_
_atom_site_label
_atom_site_type_symbol
_atom_site_fract_x
_atom_site_fract_y
_atom_site_fract_z
V1	V	-2.078177	-0.206425	-0.466328
O2	O	-2.050176	0.010569	-0.457733
O3	O	-2.073232	-0.409930	-0.462868
O4	O	-2.073231	-0.202964	-0.669834
O5	O	-2.050177	-0.197829	-0.249334
V6	V	-2.315001	-0.180503	-0.440407
O7	O	-2.219637	-0.263285	-0.523189
O8	O	-2.398640	-0.123643	-0.383546
O9	O	-2.208343	0.023002	-0.443867
O10	O	-2.401701	-0.397497	-0.449002
O11	O	-2.401700	-0.189099	-0.657401
O12	O	-2.208344	-0.183964	-0.236901
V13	V	-1.578177	-0.206425	-0.466328
O14	O	-1.550176	0.010569	-0.457733
O15	O	-1.573232	-0.409930	-0.462868
O16	O	-1.573231	-0.202964	-0.669834
O17	O	-1.550177	-0.197829	-0.249334
V18	V	-1.815001	-0.180503	-0.440407
O19	O	-1.719637	-0.263285	-0.523189
O20	O	-1.898640	-0.123643	-0.383546
O21	O	-1.708343	0.023002	-0.443867
O22	O	-1.901701	-0.397497	-0.449002
O23	O	-1.901700	-0.189099	-0.657401
O24	O	-1.708344	-0.183964	-0.236901
C25	C	-1.999793	-0.459550	-0.455441
C26	C	-2.036522	-0.625916	-0.453968
C27	C	-1.999792	-0.195542	-0.719445
C28	C	-2.036517	-0.194059	-0.885810
C29	C	-2.113453	0.072614	-0.451290
C30	C	-2.066345	0.238979	-0.452772
C31	C	-1.499793	-0.459550	-0.455441
C32	C	-1.536522	-0.625916	-0.453968
C33	C	-2.113454	-0.191391	-0.187282
C34	C	-2.066348	-0.192866	-0.020916
C35	C	-1.499792	-0.195542	-0.719445
C36	C	-1.536517	-0.194059	-0.885810
C37	C	-1.613453	0.072614	-0.451290
C38	C	-1.566345	0.238979	-0.452772
C39	C	-1.613454	-0.191391	-0.187282
C40	C	-1.566348	-0.192866	-0.020916
