data_functionalizedCrystal
_audit_creation_method	'MofGen! by Chris Wilmer'
_symmetry_space_group_name_H-M	'P1'
_symmetry_Int_Tables_number	1
_symmetry_cell_setting	triclinic
loop_
_symmetry_equiv_pos_as_xyz
  x,y,z
_cell_length_a	6.817900
_cell_length_b	11.102288
_cell_length_c	11.102193
_cell_angle_alpha	91.949012
_cell_angle_beta	108.604059
_cell_angle_gamma	108.605689
loop_
_atom_site_label
_atom_site_type_symbol
_atom_site_fract_x
_atom_site_fract_y
_atom_site_fract_z
V1	V	-4.111515	-0.175848	-0.396258
O2	O	-4.070547	0.008441	-0.388714
O3	O	-4.088292	-0.348668	-0.393548
O4	O	-4.088289	-0.173147	-0.569079
O5	O	-4.070550	-0.168295	-0.211968
V6	V	-4.588618	-0.153805	-0.374215
O7	O	-4.386855	-0.224203	-0.444610
O8	O	-4.763476	-0.105450	-0.325863
O9	O	-4.388634	0.019016	-0.376925
O10	O	-4.746982	-0.338094	-0.381758
O11	O	-4.746979	-0.161358	-0.558505
O12	O	-4.388637	-0.156505	-0.201393
C13	C	-3.938603	-0.390798	-0.387297
C14	C	-4.001070	-0.532081	-0.386233
C15	C	-4.214425	-0.604929	-0.392074
C16	C	-4.273113	-0.737681	-0.391084
C17	C	-3.905067	-0.724722	-0.378407
C18	C	-3.846387	-0.591975	-0.379406
C19	C	-3.938598	-0.166902	-0.611203
C20	C	-4.001058	-0.165837	-0.752485
C21	C	-4.121387	-0.398616	-0.788813
C22	C	-4.210887	-0.514499	-0.873349
C23	C	-4.269573	-0.513492	-1.006095
C24	C	-4.238760	-0.396588	-1.054306
C25	C	-4.149261	-0.280704	-0.969770
C26	C	-4.090574	-0.281724	-0.837022
C27	C	-4.028948	-0.047930	-0.933443
C28	C	-3.970246	-0.048934	-0.800696
C29	C	-3.998135	0.068974	-0.981654
C30	C	-3.908620	0.184861	-0.897117
C31	C	-3.849930	0.183849	-0.764364
C32	C	-3.880746	0.066950	-0.716160
C33	C	-4.201666	0.061139	-0.383173
C34	C	-4.118438	0.202420	-0.384245
C35	C	-4.201670	-0.162755	-0.159263
C36	C	-4.118447	-0.163813	-0.017979
H37	H	-4.446843	-0.796989	-0.395843
H38	H	-3.777066	0.278216	-0.695541
H39	H	-3.779137	-0.773504	-0.372846
H40	H	-3.672645	-0.532660	-0.374654
C41	C	-3.874735	0.313442	-0.950152
C42	C	-3.641740	0.415376	-0.910768
C43	C	-3.607853	0.543959	-0.963808
C44	C	-3.806961	0.570607	-1.056232
C45	C	-4.039972	0.468670	-1.095621
C46	C	-4.073859	0.340087	-1.042581
H47	H	-3.494334	0.395652	-0.842346
H48	H	-3.435362	0.619419	-0.934650
H49	H	-3.781876	0.665792	-1.095496
H50	H	-4.187378	0.488394	-1.164043
H51	H	-4.246350	0.264627	-1.071739
C52	C	-4.244769	-0.643089	-0.820315
C53	C	-4.180210	-0.644211	-0.674301
C54	C	-4.214098	-0.772800	-0.621273
C55	C	-4.312544	-0.900267	-0.714260
C56	C	-4.377108	-0.899150	-0.860283
C57	C	-4.343221	-0.770561	-0.913311
H58	H	-4.107329	-0.549847	-0.605459
H59	H	-4.166302	-0.773626	-0.513177
H60	H	-4.337629	-0.995457	-0.675005
H61	H	-4.449990	-0.993514	-0.929125
H62	H	-4.391017	-0.769735	-1.021407
C63	C	-4.303335	-0.395481	-1.200328
C64	C	-4.193418	-0.452889	-1.277171
C65	C	-4.257994	-0.451781	-1.423195
C66	C	-4.432487	-0.393265	-1.492374
C67	C	-4.542415	-0.335853	-1.415530
C68	C	-4.477839	-0.336961	-1.269507
H69	H	-4.064238	-0.496209	-1.225961
H70	H	-4.176618	-0.494281	-1.480079
H71	H	-4.480291	-0.392445	-1.600469
H72	H	-4.671595	-0.292533	-1.466740
H73	H	-4.559215	-0.294461	-1.212622
H74	H	-4.045941	0.069786	-1.089745
C75	C	-3.816192	0.065835	-0.570140
C76	C	-3.926136	0.123231	-0.493306
C77	C	-3.861591	0.122111	-0.347285
C78	C	-3.687102	0.063595	-0.278099
C79	C	-3.577147	0.006196	-0.354934
C80	C	-3.641692	0.007316	-0.500954
H81	H	-4.055313	0.166551	-0.544522
H82	H	-3.942988	0.164602	-0.290408
H83	H	-3.639322	0.062766	-0.170006
H84	H	-3.447970	-0.037125	-0.303718
H85	H	-3.560296	-0.035176	-0.557832
H86	H	-4.342453	-0.607855	-1.074925
H87	H	-4.073576	-0.399447	-0.680725
H88	H	-4.340381	-0.556168	-0.397631
