data_functionalizedCrystal
_audit_creation_method	'MofGen! by Chris Wilmer'
_symmetry_space_group_name_H-M	'P1'
_symmetry_Int_Tables_number	1
_symmetry_cell_setting	triclinic
loop_
_symmetry_equiv_pos_as_xyz
  x,y,z
_cell_length_a	23.532361
_cell_length_b	14.519709
_cell_length_c	22.010155
_cell_angle_alpha	89.999101
_cell_angle_beta	89.989902
_cell_angle_gamma	96.745093
loop_
_atom_site_label
_atom_site_type_symbol
_atom_site_fract_x
_atom_site_fract_y
_atom_site_fract_z
O1	O	0.755790	-0.111734	-0.050466
O2	O	1.005790	0.138266	0.199534
O3	O	1.255790	0.388266	0.449534
O4	O	1.505790	0.638266	0.699534
O5	O	0.589996	-0.127977	-0.050480
O6	O	0.839996	0.122023	0.199520
O7	O	1.089996	0.372023	0.449520
O8	O	1.339996	0.622023	0.699520
O9	O	0.677289	0.014436	-0.050467
O10	O	0.927289	0.264436	0.199533
O11	O	1.177289	0.514436	0.449533
O12	O	1.427289	0.764436	0.699533
O13	O	0.668497	-0.254147	-0.050479
O14	O	0.918497	-0.004147	0.199521
O15	O	1.168497	0.245853	0.449521
O16	O	1.418497	0.495853	0.699521
O17	O	0.677263	0.014419	0.050583
O18	O	0.927263	0.264419	0.300583
O19	O	1.177263	0.514419	0.550583
O20	O	1.427263	0.764419	0.800583
O21	O	0.589971	-0.127994	0.050570
O22	O	0.839971	0.122006	0.300570
O23	O	1.089971	0.372006	0.550570
O24	O	1.339971	0.622006	0.800570
O25	O	0.755764	-0.111751	0.050585
O26	O	1.005764	0.138249	0.300585
O27	O	1.255764	0.388249	0.550585
O28	O	1.505764	0.638249	0.800585
Cu29	Cu	0.672865	-0.119874	0.059804
Cu30	Cu	0.922865	0.130126	0.309804
Cu31	Cu	1.172865	0.380126	0.559804
Cu32	Cu	1.422865	0.630126	0.809804
Cu33	Cu	0.672895	-0.119854	-0.059700
Cu34	Cu	0.922895	0.130146	0.190300
Cu35	Cu	1.172895	0.380146	0.440300
Cu36	Cu	1.422895	0.630146	0.690300
O37	O	0.668472	-0.254164	0.050572
O38	O	0.918472	-0.004164	0.300572
O39	O	1.168472	0.245836	0.550572
O40	O	1.418472	0.495836	0.800572
C41	C	0.568765	-0.127579	0.000043
C42	C	0.818765	0.122421	0.250043
C43	C	1.068765	0.372421	0.500043
C44	C	1.318765	0.622421	0.750043
C45	C	0.505541	-0.126356	0.000038
C46	C	0.755541	0.123644	0.250038
C47	C	1.005541	0.373644	0.500038
C48	C	1.255541	0.623644	0.750038
C49	C	0.232287	-0.120997	-0.055041
C50	C	0.482287	0.129003	0.194959
C51	C	0.732287	0.379003	0.444959
C52	C	0.982287	0.629003	0.694959
C53	C	0.291692	-0.122155	-0.055043
C54	C	0.541692	0.127845	0.194957
C55	C	0.791692	0.377845	0.444957
C56	C	1.041692	0.627845	0.694957
O57	O	0.322432	-0.122714	-0.101887
O58	O	0.572432	0.127286	0.148113
O59	O	0.822432	0.377286	0.398113
O60	O	1.072432	0.627286	0.648113
N61	N	0.321386	-0.122749	0.000040
N62	N	0.571386	0.127251	0.250040
N63	N	0.821386	0.377251	0.500040
N64	N	1.071386	0.627251	0.750040
C65	C	0.291673	-0.122176	0.055128
C66	C	0.541673	0.127824	0.305128
C67	C	0.791673	0.377824	0.555128
C68	C	1.041673	0.627824	0.805128
O69	O	0.322386	-0.122786	0.101980
O70	O	0.572386	0.127214	0.351980
O71	O	0.822386	0.377214	0.601980
O72	O	1.072386	0.627214	0.851980
C73	C	0.232270	-0.121011	0.055129
C74	C	0.482270	0.128989	0.305129
C75	C	0.732270	0.378989	0.555129
C76	C	0.982270	0.628989	0.805129
C77	C	0.202578	-0.120427	0.000043
C78	C	0.452578	0.129573	0.250043
C79	C	0.702578	0.379573	0.500043
C80	C	0.952578	0.629573	0.750043
C81	C	0.202595	-0.120412	-0.110123
C82	C	0.452595	0.129588	0.139877
C83	C	0.702595	0.379588	0.389877
C84	C	0.952595	0.629588	0.639877
C85	C	0.143194	-0.119256	-0.110121
C86	C	0.393194	0.130744	0.139879
C87	C	0.643194	0.380744	0.389879
C88	C	0.893194	0.630744	0.639879
C89	C	0.113485	-0.118686	-0.055038
C90	C	0.363485	0.131314	0.194962
C91	C	0.613485	0.381314	0.444962
C92	C	0.863485	0.631314	0.694962
C93	C	0.143177	-0.119271	0.000044
C94	C	0.393177	0.130729	0.250044
C95	C	0.643177	0.380729	0.500044
C96	C	0.893177	0.630729	0.750044
C97	C	0.202559	-0.120432	0.110216
C98	C	0.452559	0.129568	0.360216
C99	C	0.702559	0.379568	0.610216
C100	C	0.952559	0.629568	0.860216
C101	C	0.143152	-0.119267	0.110212
C102	C	0.393152	0.130733	0.360212
C103	C	0.643152	0.380733	0.610212
C104	C	0.893152	0.630733	0.860212
C105	C	0.113459	-0.118682	0.055126
C106	C	0.363459	0.131318	0.305126
C107	C	0.613459	0.381318	0.555126
C108	C	0.863459	0.631318	0.805126
C109	C	0.054067	-0.117545	0.055130
C110	C	0.304067	0.132455	0.305130
C111	C	0.554067	0.382455	0.555130
C112	C	0.804067	0.632455	0.805130
N113	N	0.024373	-0.116951	0.000047
N114	N	0.274373	0.133049	0.250047
N115	N	0.524373	0.383049	0.500047
N116	N	0.774373	0.633049	0.750047
C117	C	0.054081	-0.117521	-0.055037
C118	C	0.304081	0.132479	0.194963
C119	C	0.554081	0.382479	0.444963
C120	C	0.804081	0.632479	0.694963
C121	C	0.416425	-0.124619	0.055122
C122	C	0.666425	0.125381	0.305122
C123	C	0.916425	0.375381	0.555122
C124	C	1.166425	0.625381	0.805122
C125	C	0.475826	-0.125790	0.055122
C126	C	0.725826	0.124210	0.305122
C127	C	0.975826	0.374210	0.555122
C128	C	1.225826	0.624210	0.805122
C129	C	0.475841	-0.125768	-0.055049
C130	C	0.725841	0.124232	0.194951
C131	C	0.975841	0.374232	0.444951
C132	C	1.225841	0.624232	0.694951
C133	C	0.416437	-0.124603	-0.055048
C134	C	0.666437	0.125397	0.194952
C135	C	0.916437	0.375397	0.444952
C136	C	1.166437	0.625397	0.694952
C137	C	0.386730	-0.124025	0.000039
C138	C	0.636730	0.125975	0.250039
C139	C	0.886730	0.375975	0.500039
C140	C	1.136730	0.625975	0.750039
C141	C	-0.070665	-0.115095	-0.055029
C142	C	0.179335	0.134905	0.194971
C143	C	0.429335	0.384905	0.444971
C144	C	0.679335	0.634905	0.694971
C145	C	-0.130072	-0.113943	-0.055022
C146	C	0.119928	0.136057	0.194978
C147	C	0.369928	0.386057	0.444978
C148	C	0.619928	0.636057	0.694978
C149	C	-0.130080	-0.113960	0.055148
C150	C	0.119920	0.136040	0.305148
C151	C	0.369920	0.386040	0.555148
C152	C	0.619920	0.636040	0.805148
C153	C	-0.070679	-0.115117	0.055142
C154	C	0.179321	0.134883	0.305142
C155	C	0.429321	0.384883	0.555142
C156	C	0.679321	0.634883	0.805142
C157	C	-0.040973	-0.115681	0.000049
C158	C	0.209027	0.134319	0.250049
C159	C	0.459027	0.384319	0.500049
C160	C	0.709027	0.634319	0.750049
O161	O	0.023289	-0.116981	0.101950
O162	O	0.273289	0.133019	0.351950
O163	O	0.523289	0.383019	0.601950
O164	O	0.773289	0.633019	0.851950
O165	O	0.023363	-0.116898	-0.101881
O166	O	0.273363	0.133102	0.148119
O167	O	0.523363	0.383102	0.398119
O168	O	0.773363	0.633102	0.648119
C169	C	0.676866	0.048782	0.000058
C170	C	0.926866	0.298782	0.250058
C171	C	1.176866	0.548782	0.500058
C172	C	1.426866	0.798782	0.750058
C173	C	0.675638	0.151149	0.000058
C174	C	0.925638	0.401149	0.250058
C175	C	1.175638	0.651149	0.500058
C176	C	1.425638	0.901149	0.750058
C177	C	0.776995	-0.112149	0.000060
C178	C	1.026995	0.137851	0.250060
C179	C	1.276995	0.387851	0.500060
C180	C	1.526995	0.637851	0.750060
C181	C	0.840219	-0.113372	0.000062
C182	C	1.090219	0.136628	0.250062
C183	C	1.340219	0.386628	0.500062
C184	C	1.590219	0.636628	0.750062
C185	C	0.668894	-0.288510	0.000045
C186	C	0.918894	-0.038510	0.250045
C187	C	1.168894	0.211490	0.500045
C188	C	1.418894	0.461490	0.750045
C189	C	0.670122	-0.390877	0.000041
C190	C	0.920122	-0.140877	0.250041
C191	C	1.170122	0.109123	0.500041
C192	C	1.420122	0.359123	0.750041
N193	N	0.672848	-0.119887	0.143857
N194	N	0.922848	0.130113	0.393857
N195	N	1.172848	0.380113	0.643857
N196	N	1.422848	0.630113	0.893857
C197	C	0.671118	0.525990	0.000042
C198	C	0.921118	0.775990	0.250042
C199	C	1.171118	1.025990	0.500042
C200	C	1.421118	1.275990	0.750042
C201	C	0.672374	0.421697	0.000047
C202	C	0.922374	0.671697	0.250047
C203	C	1.172374	0.921697	0.500047
C204	C	1.422374	1.171697	0.750047
C205	C	0.673378	0.338573	0.000051
C206	C	0.923378	0.588573	0.250051
C207	C	1.173378	0.838573	0.500051
C208	C	1.423378	1.088573	0.750051
C209	C	0.674634	0.234273	0.000054
C210	C	0.924634	0.484273	0.250054
C211	C	1.174634	0.734273	0.500054
C212	C	1.424634	0.984273	0.750054
N213	N	0.672917	-0.119833	-0.143752
N214	N	0.922917	0.130167	0.106248
N215	N	1.172917	0.380167	0.356248
N216	N	1.422917	0.630167	0.606248
C217	C	0.638287	-0.064207	0.436461
C218	C	0.888287	0.185793	0.686461
C219	C	1.138287	0.435793	0.936461
C220	C	1.388287	0.685793	1.186461
C221	C	0.638282	-0.064211	0.372853
C222	C	0.888282	0.185789	0.622853
C223	C	1.138282	0.435789	0.872853
C224	C	1.388282	0.685789	1.122853
O225	O	0.608875	-0.016871	0.339955
O226	O	0.858875	0.233129	0.589955
O227	O	1.108875	0.483129	0.839955
O228	O	1.358875	0.733129	1.089955
N229	N	0.672871	-0.119858	0.341041
N230	N	0.922871	0.130142	0.591041
N231	N	1.172871	0.380142	0.841041
N232	N	1.422871	0.630142	1.091041
C233	C	0.707471	-0.175498	0.372839
C234	C	0.957471	0.074502	0.622839
C235	C	1.207471	0.324502	0.872839
C236	C	1.457471	0.574502	1.122839
O237	O	0.736891	-0.222831	0.339940
O238	O	0.986891	0.027169	0.589940
O239	O	1.236891	0.277169	0.839940
O240	O	1.486891	0.527169	1.089940
C241	C	0.707479	-0.175489	0.436446
C242	C	0.957479	0.074511	0.686446
C243	C	1.207479	0.324511	0.936446
C244	C	1.457479	0.574511	1.186446
C245	C	0.672883	-0.119844	0.468255
C246	C	0.922883	0.130156	0.718255
C247	C	1.172883	0.380156	0.968255
C248	C	1.422883	0.630156	1.218255
C249	C	0.603695	-0.008566	0.468270
C250	C	0.853695	0.241434	0.718270
C251	C	1.103695	0.491434	0.968270
C252	C	1.353695	0.741434	1.218270
C253	C	0.603699	-0.008564	0.531873
C254	C	0.853699	0.241436	0.781873
C255	C	1.103699	0.491436	1.031873
C256	C	1.353699	0.741436	1.281873
C257	C	0.638296	-0.064201	0.563667
C258	C	0.888296	0.185799	0.813667
C259	C	1.138296	0.435799	1.063667
C260	C	1.388296	0.685799	1.313667
C261	C	0.672888	-0.119842	0.531858
C262	C	0.922888	0.130158	0.781858
C263	C	1.172888	0.380158	1.031858
C264	C	1.422888	0.630158	1.281858
C265	C	0.742082	-0.231123	0.468243
C266	C	0.992082	0.018877	0.718243
C267	C	1.242082	0.268877	0.968243
C268	C	1.492082	0.518877	1.218243
C269	C	0.742087	-0.231108	0.531854
C270	C	0.992087	0.018892	0.781854
C271	C	1.242087	0.268892	1.031854
C272	C	1.492087	0.518892	1.281854
C273	C	0.707491	-0.175464	0.563663
C274	C	0.957491	0.074536	0.813663
C275	C	1.207491	0.324536	1.063663
C276	C	1.457491	0.574536	1.313663
C277	C	0.707488	-0.175477	0.627255
C278	C	0.957488	0.074523	0.877255
C279	C	1.207488	0.324523	1.127255
C280	C	1.457488	0.574523	1.377255
N281	N	0.672900	-0.119829	0.659068
N282	N	0.922900	0.130171	0.909068
N283	N	1.172900	0.380171	1.159068
N284	N	1.422900	0.630171	1.409068
C285	C	0.638303	-0.064191	0.627274
C286	C	0.888303	0.185809	0.877274
C287	C	1.138303	0.435809	1.127274
C288	C	1.388303	0.685809	1.377274
C289	C	0.707453	-0.175514	0.239261
C290	C	0.957453	0.074486	0.489261
C291	C	1.207453	0.324486	0.739261
C292	C	1.457453	0.574486	0.989261
C293	C	0.707443	-0.175529	0.175656
C294	C	0.957443	0.074471	0.425656
C295	C	1.207443	0.324471	0.675656
C296	C	1.457443	0.574471	0.925656
C297	C	0.638254	-0.064240	0.175675
C298	C	0.888254	0.185760	0.425675
C299	C	1.138254	0.435760	0.675675
C300	C	1.388254	0.685760	0.925675
C301	C	0.638262	-0.064230	0.239281
C302	C	0.888262	0.185770	0.489281
C303	C	1.138262	0.435770	0.739281
C304	C	1.388262	0.685770	0.989281
C305	C	0.672864	-0.119866	0.271074
C306	C	0.922864	0.130134	0.521074
C307	C	1.172864	0.380134	0.771074
C308	C	1.422864	0.630134	1.021074
C309	C	0.638315	-0.064191	0.760845
C310	C	0.888315	0.185809	1.010845
C311	C	1.138315	0.435809	1.260845
C312	C	1.388315	0.685809	1.510845
C313	C	0.638320	-0.064196	0.824454
C314	C	0.888320	0.185804	1.074454
C315	C	1.138320	0.435804	1.324454
C316	C	1.388320	0.685804	1.574454
C317	C	0.707511	-0.175481	0.824430
C318	C	0.957511	0.074519	1.074430
C319	C	1.207511	0.324519	1.324430
C320	C	1.457511	0.574519	1.574430
C321	C	0.707503	-0.175480	0.760827
C322	C	0.957503	0.074520	1.010827
C323	C	1.207503	0.324520	1.260827
C324	C	1.457503	0.574520	1.510827
C325	C	0.672903	-0.119827	0.729036
C326	C	0.922903	0.130173	0.979036
C327	C	1.172903	0.380173	1.229036
C328	C	1.422903	0.630173	1.479036
O329	O	0.736882	-0.222789	0.660194
O330	O	0.986882	0.027211	0.910194
O331	O	1.236882	0.277211	1.160194
O332	O	1.486882	0.527211	1.410194
O333	O	0.608893	-0.016858	0.660181
O334	O	0.858893	0.233142	0.910181
O335	O	1.108893	0.483142	1.160181
O336	O	1.358893	0.733142	1.410181
H337	H	-0.154245	-0.113469	-0.099882
H338	H	0.095755	0.136531	0.150118
H339	H	0.345755	0.386531	0.400118
H340	H	0.595755	0.636531	0.650118
H341	H	-0.154280	-0.113500	0.099996
H342	H	0.095720	0.136500	0.349996
H343	H	0.345720	0.386500	0.599996
H344	H	0.595720	0.636500	0.849996
H345	H	0.575522	0.036745	0.442390
H346	H	0.825522	0.286745	0.692390
H347	H	1.075522	0.536745	0.942390
H348	H	1.325522	0.786745	1.192390
H349	H	-0.046485	-0.115555	-0.099891
H350	H	0.203515	0.134445	0.150109
H351	H	0.453515	0.384445	0.400109
H352	H	0.703515	0.634445	0.650109
H353	H	0.770266	-0.276413	0.557736
H354	H	1.020266	-0.026413	0.807736
H355	H	1.270266	0.223587	1.057736
H356	H	1.520266	0.473587	1.307736
H357	H	0.392266	-0.124127	-0.099905
H358	H	0.642266	0.125873	0.150095
H359	H	0.892266	0.375873	0.400095
H360	H	1.142266	0.625873	0.650095
H361	H	0.500041	-0.126231	-0.099901
H362	H	0.750041	0.123769	0.150099
H363	H	1.000041	0.373769	0.400099
H364	H	1.250041	0.623769	0.650099
H365	H	0.735665	-0.220803	0.734926
H366	H	0.985665	0.029197	0.984926
H367	H	1.235665	0.279197	1.234926
H368	H	1.485665	0.529197	1.484926
H369	H	0.226724	-0.120905	0.155073
H370	H	0.476724	0.129095	0.405073
H371	H	0.726724	0.379095	0.655073
H372	H	0.976724	0.629095	0.905073
H373	H	0.499996	-0.126281	0.099978
H374	H	0.749996	0.123719	0.349978
H375	H	0.999996	0.373719	0.599978
H376	H	1.249996	0.623719	0.849978
H377	H	0.735677	-0.220782	0.850328
H378	H	0.985677	0.029218	1.100328
H379	H	1.235677	0.279218	1.350328
H380	H	1.485677	0.529218	1.600328
H381	H	0.770254	-0.276433	0.442355
H382	H	1.020254	-0.026433	0.692355
H383	H	1.270254	0.223567	0.942355
H384	H	1.520254	0.473567	1.192355
H385	H	0.610146	-0.018884	0.850350
H386	H	0.860146	0.231116	1.100350
H387	H	1.110146	0.481116	1.350350
H388	H	1.360146	0.731116	1.600350
H389	H	0.118966	-0.118804	0.155072
H390	H	0.368966	0.131196	0.405072
H391	H	0.618966	0.381196	0.655072
H392	H	0.868966	0.631196	0.905072
H393	H	0.119024	-0.118776	-0.154978
H394	H	0.369024	0.131224	0.095022
H395	H	0.619024	0.381224	0.345022
H396	H	0.869024	0.631224	0.595022
H397	H	0.392240	-0.124161	0.099984
H398	H	0.642240	0.125839	0.349984
H399	H	0.892240	0.375839	0.599984
H400	H	1.142240	0.625839	0.849984
H401	H	0.226778	-0.120873	-0.154981
H402	H	0.476778	0.129127	0.095019
H403	H	0.726778	0.379127	0.345019
H404	H	0.976778	0.629127	0.595019
H405	H	-0.046504	-0.115612	0.099998
H406	H	0.203496	0.134388	0.349998
H407	H	0.453496	0.384388	0.599998
H408	H	0.703496	0.634388	0.849998
H409	H	0.610140	-0.018873	0.734968
H410	H	0.860140	0.231127	0.984968
H411	H	1.110140	0.481127	1.234968
H412	H	1.360140	0.731127	1.484968
H413	H	0.575530	0.036751	0.557767
H414	H	0.825530	0.286751	0.807767
H415	H	1.075530	0.536751	1.057767
H416	H	1.325530	0.786751	1.307767
H417	H	0.610091	-0.018920	0.265176
H418	H	0.860091	0.231080	0.515176
H419	H	1.110091	0.481080	0.765176
H420	H	1.360091	0.731080	1.015176
H421	H	0.610084	-0.018937	0.149776
H422	H	0.860084	0.231063	0.399776
H423	H	1.110084	0.481063	0.649776
H424	H	1.360084	0.731063	0.899776
H425	H	0.735607	-0.220851	0.149762
H426	H	0.985607	0.029149	0.399762
H427	H	1.235607	0.279149	0.649762
H428	H	1.485607	0.529149	0.899762
H429	H	0.735629	-0.220828	0.265143
H430	H	0.985629	0.029172	0.515143
H431	H	1.235629	0.279172	0.765143
H432	H	1.485629	0.529172	1.015143
