data_functionalizedCrystal
_audit_creation_method	'MofGen! by Chris Wilmer'
_symmetry_space_group_name_H-M	'P1'
_symmetry_Int_Tables_number	1
_symmetry_cell_setting	triclinic
loop_
_symmetry_equiv_pos_as_xyz
  x,y,z
_cell_length_a	18.215407
_cell_length_b	10.686285
_cell_length_c	18.215398
_cell_angle_alpha	94.388306
_cell_angle_beta	90.019464
_cell_angle_gamma	85.632014
loop_
_atom_site_label
_atom_site_type_symbol
_atom_site_fract_x
_atom_site_fract_y
_atom_site_fract_z
Zn1	Zn	1.147638	-0.502373	0.393703
Zn2	Zn	1.647638	-0.002373	0.893703
Zn3	Zn	1.157026	-0.713379	0.261222
Zn4	Zn	1.657026	-0.213379	0.761222
Zn5	Zn	1.024573	-0.502405	0.270649
Zn6	Zn	1.524573	-0.002405	0.770649
Zn7	Zn	1.034013	-0.713318	0.384250
Zn8	Zn	1.534013	-0.213318	0.884250
O9	O	1.090812	-0.607869	0.327456
O10	O	1.590812	-0.107869	0.827456
O11	O	1.251868	-0.530376	0.376140
O12	O	1.751868	-0.030376	0.876140
O13	O	1.139434	-0.685432	0.159487
O14	O	1.639434	-0.185432	0.659487
O15	O	1.033018	-0.325827	0.294873
O16	O	1.533018	0.174173	0.794873
O17	O	1.258766	-0.685401	0.278807
O18	O	1.758766	-0.185401	0.778807
O19	O	1.123433	-0.325803	0.385280
O20	O	1.623433	0.174197	0.885280
O21	O	1.042121	-0.530430	0.166412
O22	O	1.542121	-0.030430	0.666412
O23	O	0.922840	-0.530371	0.285707
O24	O	1.422840	-0.030371	0.785707
O25	O	1.049107	-0.685297	0.488490
O26	O	1.549107	-0.185297	0.988490
O27	O	0.929776	-0.685328	0.369169
O28	O	1.429776	-0.185328	0.869169
O29	O	1.132587	-0.530317	0.495435
O30	O	1.632587	-0.030317	0.995435
O31	O	1.148588	-0.889945	0.269641
O32	O	1.648588	-0.389945	0.769641
O33	O	1.058211	-0.889901	0.360029
O34	O	1.558211	-0.389901	0.860029
C35	C	0.899605	-0.607847	0.327436
C36	C	1.399605	-0.107847	0.827436
C37	C	0.817807	-0.607869	0.327443
C38	C	1.317807	-0.107869	0.827443
C39	C	0.633250	-0.688681	0.370837
C40	C	1.133250	-0.188681	0.870837
C41	C	0.556391	-0.688685	0.370846
C42	C	1.056391	-0.188685	0.870846
C43	C	0.549128	-0.527079	0.284089
C44	C	1.049128	-0.027079	0.784089
C45	C	0.625985	-0.527070	0.284085
C46	C	1.125985	-0.027070	0.784085
C47	C	0.668044	-0.607878	0.327458
C48	C	1.168044	-0.107878	0.827458
C49	C	0.514329	-0.607891	0.327471
C50	C	1.014329	-0.107891	0.827471
C51	C	0.430995	-0.607895	0.327480
C52	C	0.930995	-0.107895	0.827480
C53	C	0.751383	-0.607873	0.327449
C54	C	1.251383	-0.107873	0.827449
C55	C	1.105463	-0.935707	0.312803
C56	C	1.605463	-0.435707	0.812803
C57	C	1.111797	-1.075957	0.306559
C58	C	1.611797	-0.575957	0.806559
C59	C	1.282766	-0.607892	0.327477
C60	C	1.782766	-0.107892	0.827477
C61	C	1.364566	-0.607901	0.327485
C62	C	1.864566	-0.107901	0.827485
C63	C	1.090853	-0.607796	0.519412
C64	C	1.590853	-0.107796	1.019412
C65	C	1.090870	-0.607766	0.601212
C66	C	1.590870	-0.107766	1.101212
C67	C	1.076125	-0.278751	0.342182
C68	C	1.576125	0.221249	0.842182
C69	C	1.069866	-0.138500	0.348458
C70	C	1.569866	0.361500	0.848458
C71	C	1.090811	-0.607850	0.136250
C72	C	1.590811	-0.107850	0.636250
C73	C	1.090920	-0.607526	0.054466
C74	C	1.590920	-0.107526	0.554466
C75	C	1.141567	-0.688319	0.862675
C76	C	1.641567	-0.188319	1.362675
C77	C	1.141558	-0.688363	0.785815
C78	C	1.641558	-0.188363	1.285815
C79	C	1.040217	-0.526968	0.793009
C80	C	1.540217	-0.026968	1.293009
C81	C	1.040223	-0.526932	0.869868
C82	C	1.540223	-0.026932	1.369868
C83	C	1.090903	-0.607605	0.904699
C84	C	1.590903	-0.107605	1.404699
C85	C	1.090887	-0.607686	0.750980
C86	C	1.590887	-0.107686	1.250980
C87	C	1.090877	-0.607733	0.667644
C88	C	1.590877	-0.107733	1.167644
C89	C	1.090913	-0.607561	0.988040
C90	C	1.590913	-0.107561	1.488040
H91	H	0.528065	-0.754482	0.406172
H92	H	1.028065	-0.254482	0.906172
Cl93	Cl	0.496249	-0.425501	0.229565
Cl94	Cl	0.996249	0.074499	0.729565
H95	H	0.998962	-0.461204	0.904085
H96	H	1.498962	0.038796	1.404085
Cl97	Cl	1.174700	-1.158944	0.243785
Cl98	Cl	1.674700	-0.658944	0.743785
Cl99	Cl	1.006958	-1.055519	0.411220
Cl100	Cl	1.506958	-0.555519	0.911220
Cl101	Cl	1.205253	-0.789838	0.732988
Cl102	Cl	1.705253	-0.289838	1.232988
H103	H	0.998957	-0.461285	0.764640
H104	H	1.498957	0.038715	1.264640
H105	H	1.182833	-0.754010	0.891033
H106	H	1.682833	-0.254010	1.391033
H107	H	0.667492	-0.754477	0.406156
H108	H	1.167492	-0.254477	0.906156
Cl109	Cl	0.669730	-0.425472	0.229551
Cl110	Cl	1.169730	0.074528	0.729551
