data_functionalizedCrystal
_audit_creation_method	'MofGen! by Chris Wilmer'
_symmetry_space_group_name_H-M	'P1'
_symmetry_Int_Tables_number	1
_symmetry_cell_setting	triclinic
loop_
_symmetry_equiv_pos_as_xyz
  x,y,z
_cell_length_a	15.995350
_cell_length_b	23.532407
_cell_length_c	15.072220
_cell_angle_alpha	89.994175
_cell_angle_beta	89.991149
_cell_angle_gamma	83.170526
loop_
_atom_site_label
_atom_site_type_symbol
_atom_site_fract_x
_atom_site_fract_y
_atom_site_fract_z
O1	O	1.110385	0.073404	-0.073717
O2	O	0.866535	0.082469	-0.073736
O3	O	0.995813	-0.004967	-0.073710
O4	O	0.981107	0.160840	-0.073743
O5	O	0.995781	-0.004962	0.073856
O6	O	0.866503	0.082474	0.073829
O7	O	1.110354	0.073409	0.073848
Zn8	Zn	0.988423	0.077942	0.097268
Zn9	Zn	0.988465	0.077935	-0.097155
O10	O	0.981075	0.160845	0.073822
C11	C	0.835327	0.082096	0.000044
C12	C	0.742386	0.080973	0.000038
C13	C	0.404672	0.076938	0.000057
C14	C	0.452624	0.014668	0.000399
C15	C	0.549305	0.015792	0.000060
C16	C	0.572216	0.078939	0.000048
C17	C	0.530892	0.109650	-0.084222
C18	C	0.434269	0.108086	-0.084286
C19	C	0.433883	0.109378	0.083523
C20	C	0.530828	0.109363	0.084631
C21	C	0.666904	0.080074	0.000040
C22	C	0.309984	0.075805	0.000059
C23	C	0.995423	-0.026182	0.000075
C24	C	0.994297	-0.089404	0.000082
C25	C	1.063739	-0.488239	0.000039
C26	C	1.062693	-0.547644	0.000032
O27	O	1.127067	-0.584141	0.000004
N28	N	0.985837	-0.570566	0.000027
C29	C	0.910022	-0.534080	0.000019
O30	O	0.844554	-0.559031	0.000013
C31	C	0.911069	-0.474677	0.000019
C32	C	0.987930	-0.451758	0.000034
C33	C	1.140594	-0.465320	0.000052
C34	C	1.141640	-0.405920	0.000061
C35	C	1.065830	-0.369439	0.000056
C36	C	0.988975	-0.392358	0.000042
C37	C	0.835255	-0.438192	0.000005
C38	C	0.836308	-0.378785	0.000005
C39	C	0.913169	-0.355867	0.000020
C40	C	0.914212	-0.296477	0.000046
N41	N	0.991068	-0.273555	0.000051
C42	C	1.066877	-0.310036	0.000056
C43	C	0.907829	-0.658831	0.000016
C44	C	0.906781	-0.718233	0.000022
C45	C	1.059453	-0.731793	0.000034
C46	C	1.060500	-0.672389	0.000034
C47	C	0.984685	-0.635909	0.000022
C48	C	1.069067	-0.185291	0.000075
C49	C	1.070106	-0.125885	0.000087
C50	C	0.917435	-0.112330	0.000071
C51	C	0.916396	-0.171731	0.000063
C52	C	0.992219	-0.208210	0.000062
O53	O	0.849872	-0.259945	0.000070
O54	O	1.132335	-0.285076	0.000051
C55	C	1.141561	0.073781	0.000066
C56	C	1.234502	0.074905	0.000067
C57	C	0.981465	0.182060	0.000035
C58	C	0.982591	0.245281	0.000023
N59	N	0.988401	0.077946	0.229957
N60	N	0.988494	0.077927	-0.229844
C61	C	0.988463	0.077933	0.589158
C62	C	0.919059	0.124562	0.551537
C63	C	0.919216	0.124732	0.448711
C64	C	0.988431	0.077940	0.410954
C65	C	1.075688	0.090918	0.448249
C66	C	1.075299	0.091250	0.551107
C67	C	0.971391	0.018188	0.551269
C68	C	0.969383	0.018587	0.448405
C69	C	0.988419	0.077942	0.310241
C70	C	0.988482	0.077932	0.689872
H71	H	0.544631	0.156043	-0.087364
H72	H	1.123087	-0.653734	0.000045
C73	C	0.506064	0.059868	-0.218950
C74	C	0.569446	0.080859	-0.168884
H75	H	0.529867	0.042097	-0.271218
H76	H	0.480562	0.032664	-0.184862
H77	H	0.464784	0.090612	-0.234735
H78	H	0.610723	0.050114	-0.153093
H79	H	0.594962	0.108065	-0.202978
C80	C	0.766419	-0.104879	0.000045
C81	C	0.834107	-0.072223	0.000059
H82	H	0.714977	-0.080116	0.000038
H83	H	0.769200	-0.128327	-0.051410
H84	H	0.769169	-0.128333	0.051509
H85	H	0.831361	-0.048771	-0.051408
H86	H	0.831325	-0.048765	0.051520
H87	H	1.022010	-0.016511	0.575598
C88	C	0.363011	0.035333	0.149008
C89	C	0.406526	0.081828	0.169756
H90	H	0.346170	0.018299	0.202243
H91	H	0.314641	0.048249	0.114724
H92	H	0.398717	0.007915	0.115997
H93	H	0.370818	0.109249	0.202762
H94	H	0.454903	0.068913	0.204054
C95	C	1.159876	-0.066942	-0.075753
C96	C	1.154596	-0.100692	0.000098
H97	H	1.212033	-0.051389	-0.075743
H98	H	1.156306	-0.089829	-0.127205
H99	H	1.114874	-0.036713	-0.075742
H100	H	1.199595	-0.130924	0.000084
H101	H	1.158174	-0.077804	0.051564
C102	C	0.817044	-0.777156	-0.075846
C103	C	0.822295	-0.743422	0.000015
H104	H	0.764885	-0.792707	-0.075849
H105	H	0.820637	-0.754258	-0.127291
H106	H	0.862043	-0.807387	-0.075835
H107	H	0.777299	-0.713188	0.000001
H108	H	0.818693	-0.766321	0.051474
H109	H	1.016688	-0.017738	0.422708
H110	H	0.772666	-0.456841	-0.000012
C111	C	1.113412	0.006475	0.360810
C112	C	1.147053	0.046297	0.415228
H113	H	1.157470	-0.021070	0.340420
H114	H	1.073930	-0.012165	0.393662
H115	H	1.086032	0.025654	0.311432
H116	H	1.174427	0.027118	0.464610
H117	H	1.186550	0.064938	0.382375
C118	C	0.416881	0.199924	0.158845
C119	C	0.390492	0.171357	0.084289
H120	H	0.390093	0.238186	0.159308
H121	H	0.402250	0.180831	0.211114
H122	H	0.476196	0.200137	0.156668
H123	H	0.331177	0.171140	0.086469
H124	H	0.405117	0.190455	0.032007
C125	C	0.685292	-0.371353	-0.000016
C126	C	0.752968	-0.338686	-0.000005
H127	H	0.633843	-0.346598	-0.000016
H128	H	0.688075	-0.394799	-0.051475
H129	H	0.688054	-0.394811	0.051444
H130	H	0.750209	-0.315231	-0.051469
H131	H	0.750183	-0.315231	0.051459
C132	C	0.756814	-0.651403	0.000020
C133	C	0.824486	-0.618733	0.000020
H134	H	0.705363	-0.626650	0.000027
H135	H	0.759593	-0.674849	-0.051438
H136	H	0.759585	-0.674861	0.051481
H137	H	0.821718	-0.595278	-0.051445
H138	H	0.821705	-0.595278	0.051483
C139	C	0.450898	0.208018	-0.092524
C140	C	0.390216	0.169800	-0.089481
H141	H	0.423703	0.246115	-0.095744
H142	H	0.484653	0.203710	-0.040566
H143	H	0.485484	0.200151	-0.143337
H144	H	0.355634	0.177663	-0.038665
H145	H	0.356447	0.174110	-0.141444
C146	C	0.674591	-0.016167	-0.082334
C147	C	0.587211	-0.017015	-0.081623
H148	H	0.697991	-0.036423	-0.132763
H149	H	0.686835	0.022319	-0.084810
H150	H	0.698209	-0.033830	-0.029914
H151	H	0.563592	0.000652	-0.134040
H152	H	0.574960	-0.055509	-0.079155
H153	H	0.434296	-0.010221	0.060832
H154	H	0.577922	-0.008349	0.060468
H155	H	1.202331	-0.495018	0.000053
H156	H	0.433249	-0.010110	-0.059692
H157	H	1.091182	0.133993	0.422473
H158	H	1.204228	-0.387266	0.000069
C159	C	0.929431	0.184338	0.679202
C160	C	0.933503	0.184078	0.586399
H161	H	0.938357	0.221080	0.700722
H162	H	0.875560	0.175702	0.697587
H163	H	0.971627	0.156414	0.702234
H164	H	0.891304	0.212000	0.563366
H165	H	0.987382	0.192721	0.568005
C166	C	0.530649	0.106515	0.243872
C167	C	0.567922	0.079096	0.168796
H168	H	0.553550	0.087825	0.295829
H169	H	0.541531	0.145323	0.244397
H170	H	0.471589	0.104984	0.242310
H171	H	0.626982	0.080630	0.170354
H172	H	0.557047	0.040278	0.168271
H173	H	0.853809	-0.190392	0.000076
C174	C	0.601297	0.183719	0.019489
C175	C	0.551037	0.171533	0.091488
H176	H	0.613765	0.222103	0.023716
H177	H	0.652214	0.158436	0.020208
H178	H	0.571990	0.178890	-0.034286
H179	H	0.580347	0.176357	0.145264
H180	H	0.500112	0.196823	0.090778
H181	H	1.130810	-0.214986	0.000071
H182	H	1.121181	-0.761507	0.000034
H183	H	0.854341	0.116999	0.423497
C184	C	0.849836	0.044461	0.642445
C185	C	0.887378	0.001351	0.586313
H186	H	0.797965	0.034071	0.664075
H187	H	0.886305	0.049183	0.690928
H188	H	0.839766	0.079363	0.610394
H189	H	0.897453	-0.033551	0.618367
H190	H	0.850901	-0.003378	0.537824
H191	H	0.905198	0.008737	0.424031
H192	H	0.853973	0.116956	0.576295
H193	H	1.090419	0.134821	0.575081
C194	C	0.865123	0.207382	0.363906
C195	C	0.933864	0.184583	0.415468
H196	H	0.874168	0.244334	0.343390
H197	H	0.859246	0.183063	0.314570
H198	H	0.815337	0.210217	0.398796
H199	H	0.983650	0.181744	0.380576
H200	H	0.939751	0.208908	0.464811
C201	C	1.147441	0.047013	0.677611
C202	C	1.147079	0.047151	0.584710
H203	H	1.191754	0.019788	0.698351
H204	H	1.155709	0.083972	0.698676
H205	H	1.095107	0.037174	0.698808
H206	H	1.199410	0.056994	0.563512
H207	H	1.138817	0.010184	0.563636
H208	H	0.416160	0.085686	-0.147271
