data_functionalizedCrystal
_audit_creation_method	'MofGen! by Chris Wilmer'
_symmetry_space_group_name_H-M	'P1'
_symmetry_Int_Tables_number	1
_symmetry_cell_setting	triclinic
loop_
_symmetry_equiv_pos_as_xyz
  x,y,z
_cell_length_a	10.686220
_cell_length_b	10.685194
_cell_length_c	18.215399
_cell_angle_alpha	94.396576
_cell_angle_beta	85.649066
_cell_angle_gamma	99.069920
loop_
_atom_site_label
_atom_site_type_symbol
_atom_site_fract_x
_atom_site_fract_y
_atom_site_fract_z
Zn1	Zn	1.901832	-0.356306	0.315202
Zn2	Zn	1.885466	-0.568606	0.183377
Zn3	Zn	1.689574	-0.372653	0.200904
Zn4	Zn	1.673315	-0.584833	0.315157
O5	O	1.787547	-0.470600	0.253660
O6	O	2.077278	-0.370835	0.290399
O7	O	1.859435	-0.542662	0.082718
O8	O	1.731384	-0.192838	0.223419
O9	O	2.065253	-0.526811	0.193548
O10	O	1.887330	-0.180828	0.307394
O11	O	1.715514	-0.398697	0.095594
O12	O	1.509800	-0.414432	0.223376
O13	O	1.703673	-0.554468	0.418148
O14	O	1.497855	-0.570320	0.307318
O15	O	1.871564	-0.386570	0.418181
O16	O	1.843669	-0.748405	0.193505
O17	O	1.687803	-0.760327	0.290323
C18	C	1.457774	-0.495912	0.267244
C19	C	1.316693	-0.506771	0.273072
C20	C	1.762231	-0.800425	0.240022
C21	C	1.751516	-0.941517	0.234207
C22	C	2.118607	-0.445190	0.240023
C23	C	2.259686	-0.434361	0.234212
C24	C	1.787631	-0.470506	0.445614
C25	C	1.787666	-0.470466	0.527413
C26	C	1.812996	-0.139484	0.267367
C27	C	1.823841	0.001618	0.273207
C28	C	1.787543	-0.470595	0.062454
C29	C	1.787780	-0.470259	-0.019340
C30	C	1.875122	-0.382964	0.715627
C31	C	1.875140	-0.382925	0.792487
C32	C	1.700316	-0.557766	0.792441
C33	C	1.700293	-0.557797	0.715583
C34	C	1.787703	-0.470397	0.677178
C35	C	1.787744	-0.470328	0.830895
C36	C	1.787763	-0.470287	0.914230
C37	C	1.787683	-0.470436	0.593838
H38	H	1.318816	-0.364063	0.196478
H39	H	1.629152	-0.628926	0.823720
H40	H	1.946294	-0.311794	0.684360
H41	H	1.893960	-0.939128	0.311050
H42	H	1.946324	-0.311726	0.823789
Cl43	Cl	1.590379	-0.667716	0.667244
H44	H	1.681382	-1.000779	0.196369
H45	H	1.257569	-0.577073	0.310798
