data_functionalizedCrystal
_audit_creation_method	'MofGen! by Chris Wilmer'
_symmetry_space_group_name_H-M	'P1'
_symmetry_Int_Tables_number	1
_symmetry_cell_setting	triclinic
loop_
_symmetry_equiv_pos_as_xyz
  x,y,z
_cell_length_a	10.540535
_cell_length_b	10.540539
_cell_length_c	7.540329
_cell_angle_alpha	89.998539
_cell_angle_beta	89.999421
_cell_angle_gamma	84.524567
loop_
_atom_site_label
_atom_site_type_symbol
_atom_site_fract_x
_atom_site_fract_y
_atom_site_fract_z
O1	O	1.685888	0.178871	-0.147376
O2	O	1.316474	0.195733	-0.147400
O3	O	1.509609	0.002596	-0.147386
O4	O	1.492753	0.372009	-0.147391
O5	O	1.509597	0.002593	0.147580
O6	O	1.316463	0.195731	0.147565
O7	O	1.685876	0.178869	0.147589
Cu8	Cu	1.501168	0.187300	0.174509
Cu9	Cu	1.501182	0.187302	-0.174321
O10	O	1.492742	0.372006	0.147574
C11	C	1.269165	0.194469	0.000079
C12	C	1.128217	0.190689	0.000070
C13	C	1.091546	0.049675	0.000079
C14	C	0.944946	0.045698	0.000766
C15	C	0.918874	0.255058	0.168202
C16	C	1.065640	0.258058	0.168325
C17	C	1.065537	0.260113	-0.167117
C18	C	0.919191	0.253591	-0.169309
C19	C	1.508339	-0.044709	0.000094
C20	C	1.504557	-0.185657	0.000084
C21	C	1.359640	-0.369081	-0.000587
C22	C	1.363474	-0.222463	0.000077
C23	C	1.572446	-0.247317	0.168528
C24	C	1.567631	-0.393861	0.168669
C25	C	1.570514	-0.394377	-0.166761
C26	C	1.571814	-0.247395	-0.168988
C27	C	1.733185	0.180133	0.000105
C28	C	1.874134	0.183913	0.000103
C29	C	1.494011	0.419311	0.000091
C30	C	1.497793	0.560259	0.000089
N31	N	1.501168	0.187297	0.419858
N32	N	1.501193	0.187295	-0.419669
H33	H	1.087722	0.363864	-0.168745
H34	H	0.887967	0.206245	0.293784
H35	H	1.669097	-0.441831	0.176318
H36	H	1.133520	-0.004475	-0.120450
C37	C	1.712407	-0.217117	0.177018
H38	H	1.730723	-0.166509	0.077676
H39	H	1.766747	-0.294377	0.175462
H40	H	1.726089	-0.171806	0.283150
H41	H	1.310054	-0.179858	-0.120671
C42	C	1.096767	0.397699	0.178017
H43	H	1.186591	0.400477	0.178150
H44	H	1.061841	0.435685	0.283668
H45	H	1.061084	0.443079	0.078190
H46	H	1.108001	0.216112	-0.294574
C47	C	0.880002	0.184031	-0.337339
H48	H	0.907359	0.226743	-0.439377
H49	H	0.789922	0.183790	-0.339908
H50	H	0.918404	0.098749	-0.336409
C51	C	0.906491	-0.029086	0.164523
H52	H	0.980507	-0.057141	0.230896
H53	H	0.865153	-0.100773	0.127314
H54	H	0.850101	0.024536	0.236414
C55	C	0.852930	0.389860	-0.183756
H56	H	0.881924	0.429637	-0.287247
H57	H	0.872641	0.437507	-0.082145
H58	H	0.763327	0.386498	-0.190826
C59	C	0.905315	-0.029485	-0.161964
H60	H	0.978873	-0.057870	-0.229085
H61	H	0.848541	0.023992	-0.233493
H62	H	0.864102	-0.100989	-0.123694
H63	H	1.524857	-0.425928	-0.294430
H64	H	1.105806	0.210009	0.294465
C65	C	0.854897	0.392530	0.176024
H66	H	0.800196	0.407792	0.076608
H67	H	0.918469	0.450617	0.174185
H68	H	0.806531	0.403982	0.282102
H69	H	1.303913	-0.397679	-0.121382
H70	H	1.304130	-0.399289	0.119523
C71	C	1.504826	-0.192080	-0.337340
H72	H	1.545947	-0.229799	-0.439165
H73	H	1.509054	-0.102488	-0.340434
H74	H	1.418147	-0.209843	-0.336294
C75	C	1.290810	-0.166047	0.163470
H76	H	1.258841	-0.232752	0.229709
H77	H	1.221876	-0.107590	0.125915
H78	H	1.346903	-0.123012	0.235619
C79	C	1.499824	-0.431962	0.338743
H80	H	1.475469	-0.357909	0.407093
H81	H	1.556011	-0.489018	0.406095
H82	H	1.426135	-0.472443	0.307956
H83	H	1.525277	-0.204718	0.293872
C84	C	1.710773	-0.214688	-0.182723
H85	H	1.729678	-0.162728	-0.085083
H86	H	1.721935	-0.170099	-0.290228
H87	H	1.766443	-0.291071	-0.181288
H88	H	1.134999	-0.003570	0.120450
C89	C	1.708170	-0.458185	-0.168301
H90	H	1.721314	-0.512216	-0.067816
H91	H	1.766095	-0.394501	-0.164604
H92	H	1.722013	-0.507232	-0.273424
