data_functionalizedCrystal
_audit_creation_method	'MofGen! by Chris Wilmer'
_symmetry_space_group_name_H-M	'P1'
_symmetry_Int_Tables_number	1
_symmetry_cell_setting	triclinic
loop_
_symmetry_equiv_pos_as_xyz
  x,y,z
_cell_length_a	18.215407
_cell_length_b	19.805405
_cell_length_c	18.215399
_cell_angle_alpha	89.969390
_cell_angle_beta	89.980167
_cell_angle_gamma	90.026858
loop_
_atom_site_label
_atom_site_type_symbol
_atom_site_fract_x
_atom_site_fract_y
_atom_site_fract_z
Zn1	Zn	1.125064	-0.269462	-0.416102
Zn2	Zn	1.124969	-0.382653	-0.293030
Zn3	Zn	1.001997	-0.269484	-0.293050
Zn4	Zn	1.001959	-0.382615	-0.416055
O5	O	1.063497	-0.326054	-0.354559
O6	O	1.228036	-0.284484	-0.399788
O7	O	1.108633	-0.367666	-0.190049
O8	O	1.018377	-0.174765	-0.309401
O9	O	1.227966	-0.367644	-0.309368
O10	O	1.108794	-0.174748	-0.399807
O11	O	1.018285	-0.284521	-0.190063
O12	O	0.899008	-0.284485	-0.309355
O13	O	1.018313	-0.367580	-0.519046
O14	O	0.898980	-0.367602	-0.399727
O15	O	1.108758	-0.284447	-0.519080
O16	O	1.108596	-0.477365	-0.309322
O17	O	1.018221	-0.477337	-0.399708
C18	C	0.872291	-0.326042	-0.354538
C19	C	0.790492	-0.326053	-0.354547
C20	C	0.602303	-0.369400	-0.401544
C21	C	0.525444	-0.369403	-0.401553
C22	C	0.525444	-0.282719	-0.307591
C23	C	0.602301	-0.282714	-0.307586
C24	C	0.640729	-0.326059	-0.354561
C25	C	0.487013	-0.326066	-0.354575
C26	C	0.403679	-0.326068	-0.354585
C27	C	0.724068	-0.326056	-0.354553
C28	C	1.063415	-0.501910	-0.354524
C29	C	1.063446	-0.577142	-0.354533
C30	C	1.110550	-0.612478	-0.307518
C31	C	1.110582	-0.683166	-0.307535
C32	C	1.063505	-0.718517	-0.354562
C33	C	1.016399	-0.683176	-0.401582
C34	C	1.016372	-0.612489	-0.401569
C35	C	1.016507	-0.968249	-0.401637
C36	C	1.016536	-1.038941	-0.401645
C37	C	1.110717	-1.038927	-0.307602
C38	C	1.110690	-0.968239	-0.307589
C39	C	1.063587	-0.932905	-0.354611
C40	C	1.063555	-0.856256	-0.354594
C41	C	1.063533	-0.795164	-0.354577
C42	C	1.255450	-0.326066	-0.354581
C43	C	1.337249	-0.326071	-0.354590
C44	C	1.063542	-0.326007	-0.546512
C45	C	1.063561	-0.325987	-0.628311
C46	C	1.063601	-0.149511	-0.354611
C47	C	1.063645	-0.074279	-0.354633
C48	C	1.110673	-0.282659	-0.816524
C49	C	1.110682	-0.282639	-0.893383
C50	C	1.016502	-0.369210	-0.893336
C51	C	1.016490	-0.369226	-0.816479
C52	C	1.063580	-0.325952	-0.778075
C53	C	1.063600	-0.325916	-0.931791
C54	C	1.063609	-0.325895	-1.015125
C55	C	1.063570	-0.325972	-0.694736
C56	C	1.063495	-0.326051	-0.163353
C57	C	1.063619	-0.325880	-0.081555
H58	H	0.494146	-0.247431	-0.269344
H59	H	0.978153	-0.939485	-0.439923
H60	H	1.149073	-1.067705	-0.269317
H61	H	0.978016	-0.583719	-0.439854
C62	C	0.964616	-0.722060	-0.453317
C63	C	0.964641	-0.799813	-0.453333
C64	C	0.912856	-0.838695	-0.505069
C65	C	0.861046	-0.799824	-0.556788
C66	C	0.861018	-0.722067	-0.556774
C67	C	0.912803	-0.683185	-0.505038
H68	H	1.002996	-0.828592	-0.415046
H69	H	0.912877	-0.896257	-0.505079
H70	H	0.822712	-0.828607	-0.595086
H71	H	0.822663	-0.693288	-0.595061
H72	H	0.912783	-0.625623	-0.505028
H73	H	0.494162	-0.404695	-0.439812
C74	C	1.162397	-0.722032	-0.255814
C75	C	1.130563	-0.770691	-0.198015
C76	C	1.182382	-0.809554	-0.146292
C77	C	1.266036	-0.799758	-0.152367
C78	C	1.297874	-0.751097	-0.210168
C79	C	1.246055	-0.712234	-0.261891
H80	H	1.068633	-0.777944	-0.193516
H81	H	1.158812	-0.845576	-0.103504
H82	H	1.304395	-0.828527	-0.114078
H83	H	1.359803	-0.743843	-0.214667
H84	H	1.269624	-0.676211	-0.304679
H85	H	1.149014	-0.247420	-0.785258
C86	C	0.644574	-0.417072	-0.453222
C87	C	0.697449	-0.387805	-0.511052
C88	C	0.739717	-0.435477	-0.562734
C89	C	0.729111	-0.512416	-0.556585
C90	C	0.676234	-0.541687	-0.498753
C91	C	0.633966	-0.494015	-0.447071
H92	H	0.705302	-0.330846	-0.515606
H93	H	0.778860	-0.413807	-0.605545
H94	H	0.760401	-0.547705	-0.594843
H95	H	0.668381	-0.598646	-0.494199
H96	H	0.594823	-0.515685	-0.404260
H97	H	0.978136	-0.404480	-0.785172
C98	C	1.162486	-0.235018	-0.935678
C99	C	1.214279	-0.187418	-0.893432
C100	C	1.266084	-0.139793	-0.935727
C101	C	1.266097	-0.139768	-1.020267
C102	C	1.214303	-0.187369	-1.062517
C103	C	1.162497	-0.234994	-1.020223
H104	H	1.214271	-0.187436	-0.830846
H105	H	1.304426	-0.104556	-0.904449
H106	H	1.304447	-0.104513	-1.051575
H107	H	1.214311	-0.187351	-1.125103
H108	H	1.124155	-0.270231	-1.051500
H109	H	0.633588	-0.247416	-0.269327
H110	H	0.978165	-0.404444	-0.924614
H111	H	1.149022	-0.939459	-0.269292
C112	C	1.162337	-0.573594	-0.255787
C113	C	1.130466	-0.525061	-0.197968
C114	C	1.182257	-0.486180	-0.146237
C115	C	1.265919	-0.495832	-0.152326
C116	C	1.297794	-0.544367	-0.210148
C117	C	1.246003	-0.583248	-0.261878
H118	H	1.068531	-0.517914	-0.193458
H119	H	1.158660	-0.450251	-0.103434
H120	H	1.304257	-0.467049	-0.114032
H121	H	1.359729	-0.551514	-0.214657
H122	H	1.269600	-0.619177	-0.304682
C123	C	0.964753	-1.077829	-0.453383
C124	C	0.912944	-1.038965	-0.505109
C125	C	0.861163	-1.077853	-0.556844
C126	C	0.861192	-1.155606	-0.556852
C127	C	0.913003	-1.194475	-0.505124
C128	C	0.964784	-1.155587	-0.453390
H129	H	0.912920	-0.981403	-0.505104
H130	H	0.822809	-1.049079	-0.595136
H131	H	0.822861	-1.184394	-0.595149
H132	H	0.913026	-1.252037	-0.505129
H133	H	1.003138	-1.184361	-0.415098
