data_functionalizedCrystal
_audit_creation_method	'MofGen! by Chris Wilmer'
_symmetry_space_group_name_H-M	'P1'
_symmetry_Int_Tables_number	1
_symmetry_cell_setting	triclinic
loop_
_symmetry_equiv_pos_as_xyz
  x,y,z
_cell_length_a	14.519709
_cell_length_b	14.519731
_cell_length_c	10.868271
_cell_angle_alpha	89.993226
_cell_angle_beta	89.998733
_cell_angle_gamma	96.315500
loop_
_atom_site_label
_atom_site_type_symbol
_atom_site_fract_x
_atom_site_fract_y
_atom_site_fract_z
O1	O	1.223877	-0.120886	0.102177
O2	O	1.557210	0.212448	0.435510
O3	O	1.890544	0.545781	0.768844
O4	O	0.955401	-0.135122	0.102217
O5	O	1.288735	0.198211	0.435550
O6	O	1.622068	0.531545	0.768883
O7	O	1.096747	0.006233	0.102171
O8	O	1.430080	0.339567	0.435504
O9	O	1.763414	0.672900	0.768838
O10	O	1.082531	-0.262241	0.102223
O11	O	1.415864	0.071092	0.435556
O12	O	1.749198	0.404426	0.768889
O13	O	1.096734	0.006229	-0.102474
O14	O	1.430068	0.339562	0.230860
O15	O	1.763401	0.672895	0.564193
O16	O	0.955388	-0.135127	-0.102428
O17	O	1.288722	0.198207	0.230905
O18	O	1.622055	0.531540	0.564239
O19	O	1.223864	-0.120890	-0.102468
O20	O	1.557198	0.212443	0.230866
O21	O	1.890531	0.545777	0.564199
Zn22	Zn	1.089624	-0.128009	-0.134940
Zn23	Zn	1.422958	0.205324	0.198394
Zn24	Zn	1.756291	0.538658	0.531727
Zn25	Zn	1.089641	-0.128003	0.134689
Zn26	Zn	1.422974	0.205330	0.468022
Zn27	Zn	1.756308	0.538664	0.801355
O28	O	1.082518	-0.262245	-0.102422
O29	O	1.415852	0.071088	0.230911
O30	O	1.749185	0.404421	0.564245
C31	C	0.921035	-0.134461	-0.000101
C32	C	1.254368	0.198873	0.333232
C33	C	1.587702	0.532206	0.666566
C34	C	0.818654	-0.132473	-0.000087
C35	C	1.151987	0.200861	0.333246
C36	C	1.485320	0.534194	0.666579
C37	C	0.443757	-0.125153	-0.000145
C38	C	0.777091	0.208180	0.333189
C39	C	1.110424	0.541514	0.666522
C40	C	0.548065	-0.127186	-0.000128
C41	C	0.881399	0.206148	0.333205
C42	C	1.214732	0.539481	0.666538
C43	C	0.631202	-0.128813	-0.000115
C44	C	0.964535	0.204521	0.333219
C45	C	1.297869	0.537854	0.666552
C46	C	0.735517	-0.130846	-0.000101
C47	C	1.068850	0.202488	0.333233
C48	C	1.402183	0.535821	0.666566
C49	C	1.096075	0.040591	-0.000155
C50	C	1.429408	0.373924	0.333178
C51	C	1.762741	0.707257	0.666512
C52	C	1.094079	0.142971	-0.000166
C53	C	1.427412	0.476304	0.333167
C54	C	1.760745	0.809637	0.666501
C55	C	1.258230	-0.121551	-0.000147
C56	C	1.591564	0.211782	0.333186
C57	C	1.924897	0.545115	0.666520
C58	C	1.360612	-0.123539	-0.000153
C59	C	1.693945	0.209794	0.333180
C60	C	2.027279	0.543127	0.666514
N61	N	1.089619	-0.128013	-0.318954
N62	N	1.422953	0.205321	0.014380
N63	N	1.756286	0.538654	0.347713
C64	C	1.092457	0.226115	-0.000171
C65	C	1.425790	0.559448	0.333162
C66	C	1.759123	0.892782	0.666495
C67	C	1.090430	0.330424	-0.000172
C68	C	1.423763	0.663757	0.333161
C69	C	1.757097	0.997090	0.666494
C70	C	1.088822	0.413563	-0.000173
C71	C	1.422155	0.746896	0.333161
C72	C	1.755488	1.080229	0.666494
C73	C	1.086795	0.517878	-0.000176
C74	C	1.420129	0.851211	0.333157
C75	C	1.753462	1.184545	0.666491
C76	C	1.083191	0.703397	-0.000119
C77	C	1.416524	1.036731	0.333215
C78	C	1.749858	1.370064	0.666548
C79	C	1.085187	0.601017	-0.000176
C80	C	1.418520	0.934351	0.333157
C81	C	1.751854	1.267684	0.666490
C82	C	1.089627	-0.128013	-0.430291
C83	C	1.422960	0.205320	-0.096958
C84	C	1.756293	0.538654	0.236375
C85	C	1.089639	-0.128004	-0.569969
C86	C	1.422972	0.205329	-0.236635
C87	C	1.756305	0.538662	0.096698
N88	N	1.089653	-0.127992	0.318703
N89	N	1.422987	0.205341	0.652036
N90	N	1.756320	0.538675	0.985369
