data_functionalizedCrystal
_audit_creation_method	'MofGen! by Chris Wilmer'
_symmetry_space_group_name_H-M	'P1'
_symmetry_Int_Tables_number	1
_symmetry_cell_setting	triclinic
loop_
_symmetry_equiv_pos_as_xyz
  x,y,z
_cell_length_a	19.805407
_cell_length_b	14.908520
_cell_length_c	19.805399
_cell_angle_alpha	93.270609
_cell_angle_beta	89.980427
_cell_angle_gamma	93.320773
loop_
_atom_site_label
_atom_site_type_symbol
_atom_site_fract_x
_atom_site_fract_y
_atom_site_fract_z
Zn1	Zn	1.019204	-0.359181	-0.398269
Zn2	Zn	1.012594	-0.510047	-0.291612
Zn3	Zn	0.906017	-0.359206	-0.285095
Zn4	Zn	0.899460	-0.509999	-0.404757
O5	O	0.959319	-0.434608	-0.344934
O6	O	1.113043	-0.379203	-0.384134
O7	O	0.998435	-0.490068	-0.196033
O8	O	0.926542	-0.232958	-0.294665
O9	O	1.108187	-0.490044	-0.305773
O10	O	1.009699	-0.232939	-0.377814
O11	O	0.920133	-0.379246	-0.191244
O12	O	0.810431	-0.379199	-0.300956
O13	O	0.915366	-0.489962	-0.498612
O14	O	0.805614	-0.489986	-0.388871
O15	O	1.003341	-0.379157	-0.493845
O16	O	0.992077	-0.636286	-0.312064
O17	O	0.908957	-0.636250	-0.395191
C18	C	0.783463	-0.434591	-0.344911
C19	C	0.708231	-0.434605	-0.344918
C20	C	0.670392	-0.492379	-0.390629
C21	C	0.599704	-0.492380	-0.390639
C22	C	0.566855	-0.434612	-0.344934
C23	C	0.604699	-0.376832	-0.299220
C24	C	0.675386	-0.376827	-0.299214
C25	C	0.319625	-0.376852	-0.299244
C26	C	0.248932	-0.376864	-0.299252
C27	C	0.243942	-0.492406	-0.390668
C28	C	0.314629	-0.492400	-0.390662
C29	C	0.352467	-0.434618	-0.344952
C30	C	0.429116	-0.434615	-0.344943
C31	C	0.490208	-0.434618	-0.344939
C32	C	0.949107	-0.669002	-0.355053
C33	C	0.944800	-0.769277	-0.359405
C34	C	1.023348	-0.957679	-0.281093
C35	C	1.019304	-1.051896	-0.285180
C36	C	0.932671	-1.051929	-0.371669
C37	C	0.936715	-0.957712	-0.367582
C38	C	0.982055	-0.910590	-0.322292
C39	C	0.986095	-0.816372	-0.318202
C40	C	0.899466	-0.816407	-0.404694
C41	C	0.895421	-0.910624	-0.408781
C42	C	1.135861	-0.434626	-0.344957
C43	C	1.211092	-0.434634	-0.344967
C44	C	0.959359	-0.434551	-0.521474
C45	C	0.959376	-0.434527	-0.596705
C46	C	0.969589	-0.199299	-0.334789
C47	C	0.973966	-0.099024	-0.330466
C48	C	1.005186	-0.376828	-0.629568
C49	C	1.005194	-0.376802	-0.700255
C50	C	0.959395	-0.434480	-0.738078
C51	C	0.913581	-0.492182	-0.705210
C52	C	0.913570	-0.492203	-0.634524
C53	C	0.913622	-0.492098	-0.990280
C54	C	0.913638	-0.492074	-1.060971
C55	C	1.005247	-0.376697	-1.056011
C56	C	1.005236	-0.376718	-0.985325
C57	C	0.959419	-0.434416	-0.952463
C58	C	0.959410	-0.434442	-0.875816
C59	C	0.959407	-0.434459	-0.814725
C60	C	0.959320	-0.434600	-0.169077
C61	C	0.959445	-0.434370	-0.093836
H62	H	0.577948	-0.329793	-0.262009
H63	H	0.858509	-0.949003	-0.445657
H64	H	1.042499	-0.329820	-0.727009
H65	H	0.876340	-0.539044	-1.091765
H66	H	0.876288	-0.539141	-0.736011
H67	H	0.876260	-0.539178	-0.607768
H68	H	0.697132	-0.539423	-0.427846
H69	H	0.568898	-0.539426	-0.427861
C70	C	0.717013	-0.313275	-0.248933
C71	C	0.711760	-0.210728	-0.250159
C72	C	0.753387	-0.147170	-0.199879
C73	C	0.800267	-0.186158	-0.148373
C74	C	0.805523	-0.288711	-0.147145
C75	C	0.763896	-0.352269	-0.197425
H76	H	0.677054	-0.181861	-0.288289
H77	H	0.749496	-0.071253	-0.200789
H78	H	0.831082	-0.139109	-0.111153
H79	H	0.840228	-0.317578	-0.109015
H80	H	0.767786	-0.428185	-0.196515
C81	C	0.350763	-0.555945	-0.440939
C82	C	0.401081	-0.516938	-0.492435
C83	C	0.437215	-0.580481	-0.542714
C84	C	0.423030	-0.683031	-0.541497
C85	C	0.372709	-0.722043	-0.489999
C86	C	0.336576	-0.658500	-0.439720
H87	H	0.411584	-0.441019	-0.493338
H88	H	0.474465	-0.551601	-0.580837
H89	H	0.449778	-0.730069	-0.578717
H90	H	0.362207	-0.797962	-0.489096
H91	H	0.299325	-0.687380	-0.401597
H92	H	1.023011	-0.778006	-0.281323
H93	H	1.060261	-0.919312	-0.244211
C94	C	0.361239	-0.313319	-0.248945
C95	C	0.325104	-0.249797	-0.198657
C96	C	0.366721	-0.186271	-0.148348
C97	C	0.444475	-0.186267	-0.148326
C98	C	0.480615	-0.249791	-0.198616
C99	C	0.438997	-0.313317	-0.248925
H100	H	0.267542	-0.249798	-0.198672
H101	H	0.339968	-0.139246	-0.111121
H102	H	0.475283	-0.139241	-0.111085
H103	H	0.538176	-0.249790	-0.198601
H104	H	0.465750	-0.360342	-0.286152
H105	H	1.042533	-0.329753	-0.954533
C106	C	0.863231	-0.555571	-0.954138
C107	C	0.812859	-0.619020	-0.995745
C108	C	0.762466	-0.682499	-0.959599
C109	C	0.762445	-0.682529	-0.881848
C110	C	0.812819	-0.619078	-0.840237
C111	C	0.863212	-0.555599	-0.876382
H112	H	0.812873	-0.619000	-1.053305
H113	H	0.725176	-0.729470	-0.990403
H114	H	0.725141	-0.729520	-0.855091
H115	H	0.812805	-0.619098	-0.782676
H116	H	0.900502	-0.508628	-0.845578
C117	C	1.064725	-1.103694	-0.239859
C118	C	1.114595	-1.051858	-0.190044
C119	C	1.160019	-1.103657	-0.144721
C120	C	1.155574	-1.207292	-0.149214
C121	C	1.105703	-1.259134	-0.199031
C122	C	1.060278	-1.207335	-0.244354
H123	H	1.117887	-0.975136	-0.186716
H124	H	1.196938	-1.065279	-0.107843
H125	H	1.189200	-1.245636	-0.115664
H126	H	1.102411	-1.335856	-0.202359
H127	H	1.023360	-1.245713	-0.281232
H128	H	0.865840	-0.778057	-0.438239
C129	C	0.202319	-0.555962	-0.440958
C130	C	0.124566	-0.555971	-0.440974
C131	C	0.082945	-0.619526	-0.491260
C132	C	0.119078	-0.683073	-0.541531
C133	C	0.196836	-0.683066	-0.541517
C134	C	0.238456	-0.619511	-0.491231
H135	H	0.097814	-0.508927	-0.403758
H136	H	0.025384	-0.619531	-0.491270
H137	H	0.088268	-0.730121	-0.578757
H138	H	0.223587	-0.730110	-0.578733
H139	H	0.296018	-0.619506	-0.491221
H140	H	0.222189	-0.329817	-0.262033
H141	H	0.895762	-1.090312	-0.408547
H142	H	1.042483	-0.329862	-0.598777
H143	H	1.042551	-0.329713	-1.082776
