data_functionalizedCrystal
_audit_creation_method	'MofGen! by Chris Wilmer'
_symmetry_space_group_name_H-M	'P1'
_symmetry_Int_Tables_number	1
_symmetry_cell_setting	triclinic
loop_
_symmetry_equiv_pos_as_xyz
  x,y,z
_cell_length_a	13.033748
_cell_length_b	13.032781
_cell_length_c	10.686551
_cell_angle_alpha	93.334999
_cell_angle_beta	93.340551
_cell_angle_gamma	103.361407
loop_
_atom_site_label
_atom_site_type_symbol
_atom_site_fract_x
_atom_site_fract_y
_atom_site_fract_z
Zn1	Zn	1.606167	-0.180233	-0.495121
Zn2	Zn	1.570637	-0.370741	-0.318757
Zn3	Zn	1.415693	-0.215721	-0.318744
Zn4	Zn	1.410330	-0.376029	-0.555067
O5	O	1.500707	-0.285681	-0.421922
O6	O	1.748257	-0.188439	-0.446644
O7	O	1.537459	-0.362817	-0.146044
O8	O	1.458073	-0.064196	-0.317047
O9	O	1.722154	-0.328405	-0.317070
O10	O	1.598013	-0.038123	-0.446631
O11	O	1.423622	-0.248924	-0.146035
O12	O	1.268178	-0.254051	-0.375174
O13	O	1.448933	-0.337417	-0.719826
O14	O	1.264238	-0.371829	-0.548800
O15	O	1.592813	-0.193566	-0.675784
O16	O	1.532259	-0.518261	-0.375197
O17	O	1.414482	-0.522145	-0.548813
C18	C	1.228144	-0.317366	-0.468491
C19	C	1.111540	-0.330943	-0.488447
C20	C	1.061495	-0.278619	-0.411542
C21	C	0.940979	-0.292651	-0.432166
C22	C	1.468963	-0.558266	-0.468534
C23	C	1.455482	-0.674865	-0.488499
C24	C	1.493876	-0.845392	-0.432172
C25	C	1.507812	-0.724881	-0.411536
C26	C	1.774334	-0.253874	-0.375172
C27	C	1.890937	-0.240319	-0.355250
C28	C	1.524238	-0.262123	-0.743839
C29	C	1.534266	-0.252084	-0.881021
C30	C	1.532605	-0.012027	-0.375151
C31	C	1.546198	0.104589	-0.355220
C32	C	1.477336	-0.309065	-0.101234
C33	C	1.467546	-0.318785	0.036032
H34	H	1.107872	-0.223438	-0.330429
H35	H	1.562932	-0.678490	-0.330375
H36	H	1.599068	-0.187297	-0.914959
C37	C	1.380024	-0.406322	-0.918142
H38	H	1.339520	-0.446830	-0.988572
H39	H	1.335354	-0.375156	-0.868783
H40	H	1.411215	-0.451004	-0.868807
H41	H	0.937309	-0.185133	-0.274131
C42	C	1.048908	-0.405468	-0.598050
H43	H	1.095934	-0.436473	-0.643629
H44	H	1.014785	-0.366381	-0.652295
H45	H	0.997377	-0.459536	-0.565845
C46	C	0.878341	-0.367205	-0.541748
H47	H	0.805559	-0.366850	-0.541240
H48	H	0.886714	-0.436934	-0.532562
H49	H	0.904099	-0.343807	-0.619053
C50	C	1.419420	-0.908057	-0.541811
H51	H	1.419815	-0.980835	-0.541291
H52	H	1.442833	-0.882266	-0.619088
H53	H	1.349665	-0.899743	-0.532677
C54	C	1.381025	-0.737518	-0.598150
H55	H	1.350013	-0.690506	-0.643757
H56	H	1.326981	-0.789087	-0.565979
H57	H	1.420159	-0.771601	-0.652377
C58	C	1.620639	-0.832749	-0.245568
H59	H	1.620229	-0.759974	-0.246074
H60	H	1.690393	-0.841060	-0.254673
H61	H	1.597201	-0.858548	-0.168296
