data_functionalizedCrystal
_audit_creation_method	'MofGen! by Chris Wilmer'
_symmetry_space_group_name_H-M	'P1'
_symmetry_Int_Tables_number	1
_symmetry_cell_setting	triclinic
loop_
_symmetry_equiv_pos_as_xyz
  x,y,z
_cell_length_a	14.519709
_cell_length_b	16.992695
_cell_length_c	16.053802
_cell_angle_alpha	87.258926
_cell_angle_beta	92.580376
_cell_angle_gamma	87.174184
loop_
_atom_site_label
_atom_site_type_symbol
_atom_site_fract_x
_atom_site_fract_y
_atom_site_fract_z
O1	O	-1.234886	-0.099504	-0.069320
O2	O	-0.967279	-0.111608	-0.069346
O3	O	-1.100010	0.008588	-0.069327
O4	O	-1.102156	-0.219700	-0.069340
O5	O	-1.092702	0.001999	0.069531
O6	O	-0.959971	-0.118197	0.069512
O7	O	-1.227578	-0.106092	0.069537
Zn8	Zn	-1.092615	-0.113191	0.091571
Zn9	Zn	-1.102243	-0.104510	-0.091380
O10	O	-1.094848	-0.226288	0.069518
C11	C	-1.093596	0.034510	0.000102
C12	C	-1.085360	0.121566	0.000101
C13	C	-0.929225	-0.114338	0.000080
C14	C	-0.826723	-0.112647	0.000070
C15	C	-1.265632	-0.103362	0.000110
C16	C	-1.368135	-0.105053	0.000114
C17	C	-0.451379	-0.106425	0.000108
C18	C	-0.555811	-0.108153	0.000097
C19	C	-0.639048	-0.109536	0.000088
C20	C	-0.743487	-0.111264	0.000079
C21	C	-1.101262	-0.252210	0.000088
C22	C	-1.109498	-0.339266	0.000083
N23	N	-1.086050	-0.119115	0.216431
C24	C	-1.164820	0.171694	0.000109
C25	C	-1.157077	0.253492	0.000101
C26	C	-1.069873	0.285160	0.000089
C27	C	-0.990408	0.235025	0.000079
C28	C	-0.998152	0.153229	0.000081
C29	C	-1.037777	0.528803	0.000075
C30	C	-1.030038	0.610605	0.000075
C31	C	-1.196708	0.629067	0.000095
C32	C	-1.204444	0.547269	0.000103
C33	C	-1.124979	0.497141	0.000088
N34	N	-1.061956	0.368770	0.000083
N35	N	-1.132897	0.413533	0.000088
N36	N	-1.108814	-0.098580	-0.216239
C37	C	-1.142550	-0.067989	0.260133
C38	C	-1.137968	-0.072141	0.347539
C39	C	-1.076889	-0.127422	0.391241
C40	C	-1.020382	-0.178549	0.347533
C41	C	-1.024961	-0.174393	0.260128
C42	C	-1.056886	-0.145552	0.652648
C43	C	-1.052314	-0.149705	0.740059
C44	C	-1.169899	-0.043295	0.740058
C45	C	-1.174476	-0.039147	0.652652
C46	C	-1.117966	-0.090272	0.608952
N47	N	-1.072205	-0.131668	0.480584
N48	N	-1.122646	-0.086022	0.519610
H49	H	-1.221781	0.294304	0.000109
O50	O	-1.240346	0.020483	0.605515
H51	H	-1.278858	0.055343	0.650589
H52	H	-1.275455	0.521492	0.000112
H53	H	-1.261404	0.669890	0.000106
H54	H	-0.959022	0.636384	0.000079
O55	O	-0.952071	0.474740	0.000080
H56	H	-0.890135	0.510505	0.000086
O57	O	-1.258877	0.137541	0.000123
H58	H	-1.269365	0.103393	-0.056468
O59	O	-1.198906	-0.017002	0.394681
H60	H	-1.244064	-0.051997	0.434499
O61	O	-0.954506	-0.238179	0.394663
H62	H	-0.960821	-0.232488	0.462783
H63	H	-1.002574	-0.194725	0.775637
O64	O	-0.964023	-0.229529	0.212978
H65	H	-0.979397	-0.291484	0.229726
O66	O	-0.896351	0.269179	0.000076
H67	H	-0.891814	0.308694	-0.056515
O68	O	-0.912451	0.099155	0.000081
H69	H	-0.850510	0.134915	0.000083
H70	H	-1.010876	-0.187181	0.617074
O71	O	-1.208425	-0.008361	0.212997
H72	H	-1.246935	0.026497	0.258074
H73	H	-1.215905	-0.001671	0.775647
