data_functionalizedCrystal
_audit_creation_method	'MofGen! by Chris Wilmer'
_symmetry_space_group_name_H-M	'P1'
_symmetry_Int_Tables_number	1
_symmetry_cell_setting	triclinic
loop_
_symmetry_equiv_pos_as_xyz
  x,y,z
_cell_length_a	6.817900
_cell_length_b	15.185511
_cell_length_c	17.110486
_cell_angle_alpha	96.140700
_cell_angle_beta	99.060439
_cell_angle_gamma	104.265286
loop_
_atom_site_label
_atom_site_type_symbol
_atom_site_fract_x
_atom_site_fract_y
_atom_site_fract_z
V1	V	-3.980766	-0.125485	-0.246953
O2	O	-3.965179	0.006309	-0.242012
O3	O	-3.936422	-0.249084	-0.245495
O4	O	-3.910561	-0.123433	-0.354553
O5	O	-3.991219	-0.120212	-0.132200
V6	V	-4.466694	-0.109736	-0.233200
O7	O	-4.236749	-0.160033	-0.277123
O8	O	-4.660908	-0.075188	-0.203030
O9	O	-4.287832	0.013863	-0.234658
O10	O	-4.599678	-0.241530	-0.238141
O11	O	-4.573638	-0.115008	-0.347953
O12	O	-4.313693	-0.111788	-0.125600
C13	C	-3.783115	-0.279219	-0.241659
C14	C	-3.828000	-0.380261	-0.241185
C15	C	-3.823093	-0.414834	-0.168472
C16	C	-3.875072	-0.440633	-0.313454
C17	C	-3.917240	-0.535569	-0.313013
C18	C	-3.912334	-0.570141	-0.240300
C19	C	-3.865259	-0.509778	-0.168028
C20	C	-3.964298	-0.595938	-0.385283
C21	C	-4.006468	-0.690880	-0.384845
C22	C	-4.001576	-0.725455	-0.312131
C23	C	-3.954500	-0.665085	-0.239856
C24	C	-3.949593	-0.699658	-0.167143
C25	C	-3.902532	-0.639291	-0.094868
C26	C	-3.860367	-0.544353	-0.095314
C27	C	-4.043740	-0.820392	-0.311684
C28	C	-3.991759	-0.794602	-0.166699
C29	C	-3.750126	-0.118937	-0.380772
C30	C	-3.774035	-0.118077	-0.468736
C31	C	-3.966704	-0.122209	-0.514102
C32	C	-3.989157	-0.121400	-0.596753
C33	C	-3.818943	-0.116465	-0.634039
C34	C	-3.626258	-0.112330	-0.588667
C35	C	-3.603803	-0.113132	-0.506016
C36	C	-3.877660	-0.113810	-0.883389
C37	C	-3.900132	-0.113011	-0.966046
C38	C	-4.263030	-0.122079	-0.974127
C39	C	-4.240561	-0.122886	-0.891475
C40	C	-4.047876	-0.118746	-0.846109
C41	C	-3.841891	-0.115641	-0.718523
C42	C	-4.024928	-0.119564	-0.761626
C43	C	-4.104482	0.043993	-0.238491
C44	C	-4.038834	0.145035	-0.238971
C45	C	-4.137471	-0.116287	-0.099377
C46	C	-4.092800	-0.117143	-0.011412
H47	H	-4.105318	-0.126233	-0.483751
H48	H	-3.898528	-0.667452	-0.035664
H49	H	-3.784782	-0.365679	-0.109627
H50	H	-3.822046	-0.495194	-0.036472
H51	H	-3.487665	-0.108307	-0.619031
H52	H	-3.879048	-0.412477	-0.372654
N53	N	-3.669843	-0.109360	-0.834478
H54	H	-3.679959	-0.166088	-0.807794
H55	H	-3.624997	-0.052858	-0.792261
H56	H	-4.082040	-0.869539	-0.370530
N57	N	-3.969545	-0.558651	-0.463704
H58	H	-3.935694	-0.489348	-0.453016
H59	H	-4.111659	-0.584023	-0.497987
N60	N	-4.057258	-0.755990	-0.462792
H61	H	-3.952517	-0.792812	-0.463149
H62	H	-4.054004	-0.719620	-0.508880
H63	H	-4.146043	-0.124760	-0.633686
H64	H	-4.379171	-0.126903	-0.861123
H65	H	-4.419906	-0.125448	-1.011072
N66	N	-3.716523	-0.107661	-1.006261
H67	H	-3.591044	-0.105149	-0.964980
H68	H	-3.690465	-0.050526	-1.032583
N69	N	-3.395994	-0.108669	-0.457081
H70	H	-3.291569	-0.105422	-0.493241
H71	H	-3.406289	-0.165401	-0.430397
N72	N	-3.658311	-0.110320	-0.758741
H73	H	-3.602595	-0.165075	-0.750383
H74	H	-3.547693	-0.051847	-0.734781
H75	H	-4.163512	-0.123578	-0.731264
H76	H	-3.987766	-0.822743	-0.107487
