data_functionalizedCrystal
_audit_creation_method	'MofGen! by Chris Wilmer'
_symmetry_space_group_name_H-M	'P1'
_symmetry_Int_Tables_number	1
_symmetry_cell_setting	triclinic
loop_
_symmetry_equiv_pos_as_xyz
  x,y,z
_cell_length_a	12.759401
_cell_length_b	12.759399
_cell_length_c	12.759393
_cell_angle_alpha	90.027929
_cell_angle_beta	89.983494
_cell_angle_gamma	89.981477
loop_
_atom_site_label
_atom_site_type_symbol
_atom_site_fract_x
_atom_site_fract_y
_atom_site_fract_z
Zn1	Zn	1.606258	0.418084	-0.593954
Zn2	Zn	1.606154	0.593803	-0.418285
Zn3	Zn	1.430560	0.418152	-0.418299
Zn4	Zn	1.430550	0.593735	-0.593933
O5	O	1.518381	0.505943	-0.506118
O6	O	1.753265	0.441394	-0.570654
O7	O	1.582822	0.570560	-0.271266
O8	O	1.453915	0.271122	-0.441615
O9	O	1.753189	0.570494	-0.441591
O10	O	1.582999	0.271072	-0.570667
O11	O	1.453814	0.441509	-0.271276
O12	O	1.283538	0.441443	-0.441594
O13	O	1.453898	0.570377	-0.740956
O14	O	1.283531	0.570443	-0.570631
O15	O	1.582990	0.441327	-0.740972
O16	O	1.582812	0.740815	-0.441570
O17	O	1.453797	0.740765	-0.570618
C18	C	1.245413	0.505944	-0.506113
C19	C	1.128637	0.505969	-0.506135
C20	C	1.518320	0.778911	-0.506113
C21	C	1.518391	0.895687	-0.506147
C22	C	1.518454	0.505837	-0.780151
C23	C	1.518485	0.505792	-0.896928
C24	C	1.792414	0.505944	-0.506123
C25	C	1.909191	0.505944	-0.506126
C26	C	1.964094	0.438733	-0.573321
C27	C	2.073818	0.438748	-0.573329
C28	C	2.073726	0.573188	-0.438937
C29	C	1.964004	0.573177	-0.438935
C30	C	2.223818	0.401173	-0.697240
C31	C	2.278725	0.333946	-0.764426
C32	C	2.243161	0.231421	-0.780564
C33	C	2.152692	0.196104	-0.729501
C34	C	2.097790	0.263326	-0.662307
C35	C	2.133352	0.365865	-0.646189
C36	C	1.814002	0.610741	-0.315023
C37	C	1.759099	0.677958	-0.247823
C38	C	1.794660	0.780484	-0.231674
C39	C	1.885133	0.815798	-0.282719
C40	C	1.940037	0.748581	-0.349919
C41	C	1.904467	0.646056	-0.366069
C42	C	1.585647	0.950541	-0.439032
C43	C	1.585716	1.060265	-0.439075
C44	C	1.451264	1.060273	-0.573350
C45	C	1.451201	0.950551	-0.573312
C46	C	1.709727	1.210135	-0.401691
C47	C	1.776974	1.264992	-0.334560
C48	C	1.793138	1.229452	-0.232046
C49	C	1.742040	1.139058	-0.196643
C50	C	1.674786	1.084207	-0.263768
C51	C	1.658642	1.119744	-0.366297
C52	C	1.327188	0.800678	-0.610685
C53	C	1.259928	0.745825	-0.677806
C54	C	1.243753	0.781362	-0.780321
C55	C	1.294832	0.871760	-0.815721
C56	C	1.362093	0.926614	-0.748600
C57	C	1.378269	0.891069	-0.646086
C58	C	1.518474	1.231910	-0.506163
C59	C	1.518523	1.115133	-0.506228
C60	C	1.451335	0.438583	-0.951795
C61	C	1.451360	0.438551	-1.061519
C62	C	1.585694	0.572939	-1.061500
C63	C	1.585663	0.572976	-0.951777
C64	C	1.327509	0.400960	-1.211474
C65	C	1.260368	0.333735	-1.266344
C66	C	1.244263	0.231232	-1.230749
C67	C	1.295314	0.195934	-1.140284
C68	C	1.362463	0.263153	-1.085419
C69	C	1.378548	0.365670	-1.121013
C70	C	1.709515	0.610556	-0.801821
C71	C	1.776670	0.677771	-0.746954
C72	C	1.792786	0.780275	-0.782547
C73	C	1.741753	0.815570	-0.873015
C74	C	1.674598	0.748355	-0.927882
C75	C	1.658481	0.645852	-0.892281
C76	C	1.518368	0.505973	-0.233150
C77	C	1.518540	0.505723	-0.116374
H78	H	1.919469	0.383987	-0.628031
H79	H	1.685200	0.649328	-0.206581
H80	H	1.640388	0.627637	-1.106172
Cl81	Cl	1.689239	0.481695	-0.757053
Cl82	Cl	1.984065	0.218936	-0.598116
Cl83	Cl	1.275079	0.067059	-1.095552
H84	H	1.785037	0.527256	-0.328170
H85	H	1.218802	0.362484	-1.340001
Cl86	Cl	2.107998	0.067202	-0.749779
H87	H	1.340603	0.484430	-1.240456
H88	H	1.189594	0.176497	-1.275432
Cl89	Cl	2.312190	0.146910	-0.865026
Cl90	Cl	2.053777	0.792976	-0.414089
H91	H	1.749951	0.835209	-0.176947
H92	H	1.847893	1.274124	-0.177388
H93	H	1.403688	1.000218	-0.777433
H94	H	1.640358	0.905874	-0.384343
H95	H	1.396559	1.104955	-0.628032
H96	H	2.352385	0.362711	-0.806001
H97	H	2.252776	0.484659	-0.684116
Cl98	Cl	2.142641	0.657700	-0.354470
Cl99	Cl	1.610546	0.970579	-0.219269
H100	H	1.755198	1.110135	-0.113161
H101	H	1.818578	1.338591	-0.363395
Cl102	Cl	1.366879	0.354128	-0.882845
H103	H	1.696583	1.239073	-0.485169
Cl104	Cl	1.274500	0.916441	-0.944602
Cl105	Cl	1.159133	0.712445	-0.864676
H106	H	1.914091	0.899282	-0.269567
Cl107	Cl	1.195677	0.632206	-0.633287
H108	H	1.404032	0.234412	-1.011769
Cl109	Cl	1.347524	0.755992	-0.481804
Cl110	Cl	1.610440	0.792727	-1.041614
H111	H	1.754880	0.899036	-0.901999
H112	H	1.847480	0.834997	-0.737870
Cl113	Cl	1.840833	0.633396	-0.633225
