data_functionalizedCrystal
_audit_creation_method	'MofGen! by Chris Wilmer'
_symmetry_space_group_name_H-M	'P1'
_symmetry_Int_Tables_number	1
_symmetry_cell_setting	triclinic
loop_
_symmetry_equiv_pos_as_xyz
  x,y,z
_cell_length_a	16.120490
_cell_length_b	16.120256
_cell_length_c	16.120484
_cell_angle_alpha	84.383827
_cell_angle_beta	89.835900
_cell_angle_gamma	90.129807
loop_
_atom_site_label
_atom_site_type_symbol
_atom_site_fract_x
_atom_site_fract_y
_atom_site_fract_z
Zn1	Zn	1.224989	-0.554790	0.422348
Zn2	Zn	1.558322	-0.221457	0.755681
Zn3	Zn	1.891656	0.111877	1.089014
Zn4	Zn	1.224885	-0.422094	0.555028
Zn5	Zn	1.558218	-0.088761	0.888361
Zn6	Zn	1.891551	0.244573	1.221694
Zn7	Zn	1.093728	-0.408035	0.408252
Zn8	Zn	1.427061	-0.074701	0.741585
Zn9	Zn	1.760395	0.258632	1.074918
Zn10	Zn	1.078881	-0.554030	0.554256
Zn11	Zn	1.412215	-0.220697	0.887590
Zn12	Zn	1.745548	0.112636	1.220923
O13	O	1.155621	-0.484737	0.484971
O14	O	1.488954	-0.151404	0.818304
O15	O	1.822287	0.181929	1.151638
O16	O	1.341011	-0.543389	0.446170
O17	O	1.674344	-0.210056	0.779503
O18	O	2.007678	0.123277	1.112837
O19	O	1.213656	-0.303596	0.529981
O20	O	1.546990	0.029738	0.863315
O21	O	1.880323	0.363071	1.196648
O22	O	1.117397	-0.421936	0.293491
O23	O	1.450731	-0.088602	0.626825
O24	O	1.784064	0.244731	0.960158
O25	O	1.340935	-0.445898	0.543649
O26	O	1.674268	-0.112565	0.876983
O27	O	2.007601	0.220768	1.210316
O28	O	1.213834	-0.529756	0.303847
O29	O	1.547167	-0.196423	0.637181
O30	O	1.880501	0.136910	0.970514
O31	O	1.117296	-0.293266	0.422146
O32	O	1.450630	0.040067	0.755479
O33	O	1.783963	0.373401	1.088812
O34	O	0.975723	-0.421199	0.421398
O35	O	1.309056	-0.087866	0.754731
O36	O	1.642389	0.245467	1.088064
O37	O	1.092093	-0.670765	0.542335
O38	O	1.425426	-0.337431	0.875668
O39	O	1.758760	-0.004098	1.209001
O40	O	0.964815	-0.528462	0.528666
O41	O	1.298148	-0.195129	0.862000
O42	O	1.631481	0.138205	1.195333
O43	O	1.199438	-0.671323	0.445422
O44	O	1.532771	-0.337989	0.778755
O45	O	1.866104	-0.004656	1.112089
O46	O	1.199260	-0.445162	0.671556
O47	O	1.532593	-0.111829	1.004889
O48	O	1.865927	0.221505	1.338222
O49	O	1.091992	-0.542095	0.670989
O50	O	1.425325	-0.208762	1.004322
O51	O	1.758658	0.124572	1.337656
C52	C	0.940182	-0.473223	0.473419
C53	C	1.273515	-0.139890	0.806753
C54	C	1.606848	0.193444	1.140086
C55	C	0.848014	-0.468318	0.468499
C56	C	1.181347	-0.134985	0.801832
C57	C	1.514681	0.198349	1.135165
C58	C	0.632819	-0.510182	0.510489
C59	C	0.966152	-0.176848	0.843823
C60	C	1.299486	0.156485	1.177156
C61	C	0.679266	-0.459362	0.459522
C62	C	1.012600	-0.126029	0.792855
C63	C	1.345933	0.207305	1.126189
C64	C	0.773166	-0.464347	0.464518
C65	C	1.106499	-0.131013	0.797851
C66	C	1.439833	0.202320	1.131185
C67	C	0.538911	-0.505198	0.505494
C68	C	0.872244	-0.171865	0.838828
C69	C	1.205577	0.161469	1.172161
C70	C	1.144121	-0.702131	0.495365
C71	C	1.477454	-0.368798	0.828698
C72	C	1.810787	-0.035464	1.162031
C73	C	1.139220	-0.794771	0.499794
C74	C	1.472553	-0.461438	0.833127
C75	C	1.805887	-0.128105	1.166460
C76	C	1.181177	-1.005935	0.461852
C77	C	1.514510	-0.672601	0.795185
C78	C	1.847843	-0.339268	1.128518
C79	C	1.130247	-0.964378	0.507844
C80	C	1.463580	-0.631044	0.841178
C81	C	1.796913	-0.297711	1.174511
C82	C	1.135241	-0.870000	0.503364
C83	C	1.468574	-0.536667	0.836697
C84	C	1.801908	-0.203333	1.170030
C85	C	1.176183	-1.100321	0.466331
C86	C	1.509517	-0.766988	0.799665
C87	C	1.842850	-0.433654	1.132998
C88	C	1.371901	-0.496297	0.496568
C89	C	1.705234	-0.162963	0.829901
C90	C	2.038568	0.170370	1.163235
C91	C	1.464067	-0.501223	0.501510
C92	C	1.797400	-0.167889	0.834844
C93	C	2.130733	0.165444	1.168177
C94	C	1.144025	-0.495091	0.701515
C95	C	1.477358	-0.161758	1.034849
C96	C	1.810692	0.171576	1.368182
C97	C	1.139139	-0.499552	0.794160
C98	C	1.472472	-0.166219	1.127493
C99	C	1.805805	0.167114	1.460826
C100	C	1.167127	-0.268189	0.474560
C101	C	1.500460	0.065144	0.807893
C102	C	1.833794	0.398478	1.141227
C103	C	1.172201	-0.175546	0.469905
C104	C	1.505534	0.157787	0.803238
C105	C	1.838867	0.491120	1.136571
C106	C	1.167283	-0.474362	0.267583
C107	C	1.500617	-0.141029	0.600916
C108	C	1.833950	0.192304	0.934249
C109	C	1.172253	-0.469941	0.174945
C110	C	1.505587	-0.136608	0.508278
C111	C	1.838920	0.196725	0.841612
C112	C	1.130221	-0.507715	0.963782
C113	C	1.463555	-0.174382	1.297116
C114	C	1.796888	0.158952	1.630449
C115	C	1.181168	-0.461781	1.005327
C116	C	1.514501	-0.128448	1.338661
C117	C	1.847834	0.204885	1.671994
C118	C	1.176206	-0.466323	1.099711
C119	C	1.509540	-0.132990	1.433045
C120	C	1.842873	0.200344	1.766378
C121	C	1.135182	-0.503174	0.869390
C122	C	1.468515	-0.169841	1.202723
C123	C	1.801849	0.163492	1.536057
H124	H	0.663573	-0.557429	0.557873
H125	H	0.996907	-0.224096	0.891206
H126	H	1.330240	0.109238	1.224539
H127	H	1.082882	-0.550447	0.999097
H128	H	1.416215	-0.217113	1.332430
H129	H	1.749549	0.116220	1.665764
H130	H	0.648510	-0.412110	0.412135
H131	H	0.981844	-0.078777	0.745469
H132	H	1.315177	0.254556	1.078802
H133	H	1.228526	-0.970635	0.419115
H134	H	1.561860	-0.637302	0.752449
H135	H	1.895193	-0.303969	1.085782
H136	H	1.082889	-0.999679	0.550580
H137	H	1.416223	-0.666346	0.883913
H138	H	1.749556	-0.333012	1.217247
H139	H	1.228510	-0.419045	0.970010
H140	H	1.561843	-0.085711	1.303344
H141	H	1.895177	0.247622	1.636677
