data_functionalizedCrystal
_audit_creation_method	'MofGen! by Chris Wilmer'
_symmetry_space_group_name_H-M	'P1'
_symmetry_Int_Tables_number	1
_symmetry_cell_setting	triclinic
loop_
_symmetry_equiv_pos_as_xyz
  x,y,z
_cell_length_a	14.971482
_cell_length_b	14.971486
_cell_length_c	14.048226
_cell_angle_alpha	90.006640
_cell_angle_beta	89.994098
_cell_angle_gamma	96.386632
loop_
_atom_site_label
_atom_site_type_symbol
_atom_site_fract_x
_atom_site_fract_y
_atom_site_fract_z
O1	O	1.186949	-0.116549	-0.079149
O2	O	1.686949	0.383451	0.420851
O3	O	0.926548	-0.130511	-0.079153
O4	O	1.426548	0.369489	0.420847
O5	O	1.063728	0.006670	-0.079144
O6	O	1.563728	0.506670	0.420856
O7	O	1.049769	-0.253730	-0.079158
O8	O	1.549769	0.246270	0.420842
O9	O	1.063712	0.006678	0.079177
O10	O	1.563712	0.506678	0.579177
O11	O	0.926532	-0.130503	0.079168
O12	O	1.426532	0.369497	0.579168
O13	O	1.186933	-0.116541	0.079173
O14	O	1.686933	0.383459	0.579173
Zn15	Zn	1.056730	-0.123521	0.104307
Zn16	Zn	1.556730	0.376479	0.604307
Zn17	Zn	1.056751	-0.123531	-0.104288
Zn18	Zn	1.556751	0.376469	0.395712
O19	O	1.049753	-0.253722	0.079163
O20	O	1.549753	0.246278	0.579163
C21	C	0.893215	-0.129883	0.000007
C22	C	1.393215	0.370117	0.500007
C23	C	0.793918	-0.128014	0.000005
C24	C	1.293918	0.371986	0.500005
C25	C	0.747265	-0.127129	0.086307
C26	C	1.247265	0.372871	0.586307
C27	C	0.653966	-0.125358	0.086308
C28	C	1.153966	0.374642	0.586308
C29	C	0.607322	-0.124479	0.000006
C30	C	1.107322	0.375521	0.500006
C31	C	0.653983	-0.125361	-0.086302
C32	C	1.153983	0.374639	0.413698
C33	C	0.747280	-0.127125	-0.086303
C34	C	1.247280	0.372875	0.413697
C35	C	0.459521	-0.121686	-0.086296
C36	C	0.959521	0.378314	0.413704
C37	C	0.366216	-0.119923	-0.086296
C38	C	0.866216	0.380077	0.413704
C39	C	0.366207	-0.119918	0.086315
C40	C	0.866207	0.380082	0.586315
C41	C	0.459504	-0.121683	0.086315
C42	C	0.959504	0.378317	0.586315
C43	C	0.506158	-0.122567	0.000005
C44	C	1.006158	0.377433	0.500005
C45	C	1.220266	-0.117168	0.000010
C46	C	1.720266	0.382832	0.500010
C47	C	1.319563	-0.119038	0.000006
C48	C	1.819563	0.380962	0.500006
C49	C	1.063096	0.039999	0.000016
C50	C	1.563096	0.539999	0.500016
C51	C	1.061225	0.139296	0.000015
C52	C	1.561225	0.639296	0.500015
C53	C	1.050385	-0.287051	0.000001
C54	C	1.550385	0.212949	0.500001
C55	C	1.052256	-0.386348	-0.000005
C56	C	1.552256	0.113652	0.499995
N57	N	1.056721	-0.123513	0.246668
N58	N	1.556721	0.376487	0.746668
C59	C	1.141814	0.196522	0.000017
C60	C	1.641814	0.696522	0.500017
C61	C	1.140051	0.289822	0.000008
C62	C	1.640051	0.789822	0.500008
C63	C	1.057698	0.325893	0.000003
C64	C	1.557698	0.825893	0.500003
C65	C	0.977102	0.268659	-0.000002
C66	C	1.477102	0.768659	0.499998
C67	C	0.978866	0.175362	0.000001
C68	C	1.478866	0.675362	0.500001
C69	C	0.973431	0.463122	-0.000006
C70	C	1.473431	0.963122	0.499994
C71	C	0.971667	0.556426	-0.000007
C72	C	1.471667	1.056426	0.499993
C73	C	1.134616	0.577582	0.000001
C74	C	1.634616	1.077582	0.500001
C75	C	1.136380	0.484284	0.000004
C76	C	1.636380	0.984284	0.500004
C77	C	1.055784	0.427057	0.000001
C78	C	1.555784	0.927057	0.500001
N79	N	1.056767	-0.123532	-0.246649
N80	N	1.556767	0.376468	0.253351
C81	C	1.117484	-0.062794	0.296490
C82	C	1.617484	0.437206	0.796490
C83	C	1.117490	-0.062793	0.396148
C84	C	1.617490	0.437207	0.896148
C85	C	1.056737	-0.123517	0.445981
C86	C	1.556737	0.376483	0.945981
C87	C	0.995968	-0.184238	0.396152
C88	C	1.495968	0.315762	0.896152
C89	C	0.995959	-0.184234	0.296496
C90	C	1.495959	0.315766	0.796496
C91	C	0.995994	-0.184245	0.603866
C92	C	1.495994	0.315755	1.103866
C93	C	0.996005	-0.184251	0.703529
C94	C	1.496005	0.315749	1.203529
C95	C	1.117525	-0.062804	0.703518
C96	C	1.617525	0.437196	1.203518
C97	C	1.117515	-0.062800	0.603862
C98	C	1.617515	0.437200	1.103862
C99	C	1.056748	-0.123523	0.554040
C100	C	1.556748	0.376477	1.054040
H101	H	0.328217	-0.119199	0.156591
H102	H	0.828217	0.380801	0.656591
H103	H	0.946498	-0.233677	0.436733
H104	H	1.446498	0.266323	0.936733
Br105	Br	0.810598	-0.128318	-0.203431
Br106	Br	1.310598	0.371682	0.296569
Br107	Br	0.913517	-0.266652	0.536254
Br108	Br	1.413517	0.233348	1.036254
Br109	Br	0.302914	-0.118730	-0.203421
Br110	Br	0.802914	0.381270	0.296579
H111	H	0.913242	0.128768	-0.000001
H112	H	1.413242	0.628768	0.499999
Br113	Br	0.865335	0.317612	-0.000025
Br114	Br	1.365335	0.817612	0.499975
Br115	Br	1.243997	0.655246	0.000004
Br116	Br	1.743997	1.155246	0.500004
H117	H	0.615999	-0.124638	-0.156571
H118	H	1.115999	0.375362	0.343429
Br119	Br	0.522837	-0.122880	-0.203431
Br120	Br	1.022837	0.377120	0.296569
H121	H	0.946532	-0.233697	0.744099
H122	H	1.446532	0.266303	1.244099
Br123	Br	0.522805	-0.122890	0.203440
Br124	Br	1.022805	0.377110	0.703440
Br125	Br	1.199951	0.019615	0.463767
Br126	Br	1.699951	0.519615	0.963767
H127	H	1.166959	-0.013350	0.255922
H128	H	1.666959	0.486650	0.755922
H129	H	1.167004	-0.013362	0.744089
H130	H	1.667004	0.486638	1.244089
Br131	Br	1.199973	0.019602	0.536227
Br132	Br	1.699973	0.519602	1.036227
H133	H	0.946479	-0.233676	0.255932
H134	H	1.446479	0.266324	0.755932
Br135	Br	1.249427	0.367484	0.000010
Br136	Br	1.749427	0.867484	0.500010
Br137	Br	0.810557	-0.128332	0.203438
Br138	Br	1.310557	0.371668	0.703438
Br139	Br	1.248147	0.435331	0.000009
Br140	Br	1.748147	0.935331	0.500009
Br141	Br	1.253586	0.147578	0.000038
Br142	Br	1.753586	0.647578	0.500038
Br143	Br	0.590652	-0.124172	0.203438
Br144	Br	1.090652	0.375828	0.703438
Br145	Br	0.859900	0.605380	-0.000009
Br146	Br	1.359900	1.105380	0.499991
H147	H	0.907801	0.416529	-0.000011
H148	H	1.407801	0.916529	0.499989
