data_functionalizedCrystal
_audit_creation_method	'MofGen! by Chris Wilmer'
_symmetry_space_group_name_H-M	'P1'
_symmetry_Int_Tables_number	1
_symmetry_cell_setting	triclinic
loop_
_symmetry_equiv_pos_as_xyz
  x,y,z
_cell_length_a	16.974867
_cell_length_b	15.455313
_cell_length_c	16.974885
_cell_angle_alpha	83.689367
_cell_angle_beta	96.840199
_cell_angle_gamma	90.968196
loop_
_atom_site_label
_atom_site_type_symbol
_atom_site_fract_x
_atom_site_fract_y
_atom_site_fract_z
O1	O	-1.048617	-0.008490	0.101146
O2	O	-0.548617	0.491510	0.601146
O3	O	-0.819133	0.006752	0.113259
O4	O	-0.319133	0.506752	0.613259
O5	O	-0.940660	0.006752	-0.008272
O6	O	-0.440660	0.506752	0.491728
O7	O	-0.927090	-0.008490	0.222678
O8	O	-0.427090	0.491510	0.722678
O9	O	-0.933710	-0.137508	-0.001351
O10	O	-0.433710	0.362492	0.498649
O11	O	-0.812183	-0.137508	0.120180
O12	O	-0.312183	0.362492	0.620180
O13	O	-1.041668	-0.152750	0.108067
O14	O	-0.541668	0.347250	0.608067
Cu15	Cu	-0.926291	-0.158301	0.114756
Cu16	Cu	-0.426291	0.341699	0.614756
Cu17	Cu	-0.934510	0.012303	0.106571
Cu18	Cu	-0.434510	0.512303	0.606571
O19	O	-0.920141	-0.152750	0.229599
O20	O	-0.420141	0.347250	0.729599
C21	C	-0.786301	-0.063278	0.116132
C22	C	-0.286301	0.436722	0.616132
C23	C	-0.698828	-0.057021	0.114370
C24	C	-0.198828	0.442979	0.614370
N25	N	-0.920516	-0.278295	0.120512
N26	N	-0.420516	0.221705	0.620512
C27	C	-0.206860	-0.013296	0.104020
C28	C	0.293140	0.486704	0.604020
C29	C	-0.289050	-0.019187	0.105676
C30	C	0.210950	0.480813	0.605676
C31	C	-0.326348	-0.100770	0.110282
C32	C	0.173652	0.399230	0.610282
C33	C	-0.281453	-0.176466	0.113225
C34	C	0.218547	0.323534	0.613225
C35	C	-0.199265	-0.170574	0.111564
C36	C	0.300735	0.329426	0.611564
C37	C	-0.571746	-0.126825	0.115651
C38	C	-0.071746	0.373175	0.615651
C39	C	-0.653939	-0.132711	0.117315
C40	C	-0.153939	0.367289	0.617315
C41	C	-0.661530	0.024568	0.109764
C42	C	-0.161530	0.524568	0.609764
C43	C	-0.579340	0.030453	0.108108
C44	C	-0.079340	0.530453	0.608108
C45	C	-0.534453	-0.045243	0.111046
C46	C	-0.034453	0.454757	0.611046
N47	N	-0.410359	-0.106794	0.111977
N48	N	0.089641	0.393206	0.611977
N49	N	-0.450445	-0.039218	0.109346
N50	N	0.049555	0.460782	0.609346
C51	C	-0.972163	-0.323692	0.068900
C52	C	-0.472163	0.176308	0.568900
C53	C	-0.967803	-0.414500	0.073261
C54	C	-0.467803	0.085500	0.573261
C55	C	-0.911800	-0.459910	0.129238
C56	C	-0.411800	0.040090	0.629238
C57	C	-0.860148	-0.414507	0.180851
C58	C	-0.360148	0.085493	0.680851
C59	C	-0.864504	-0.323700	0.176487
C60	C	-0.364504	0.176300	0.676487
C61	C	-0.892995	-0.731492	0.148057
C62	C	-0.392995	-0.231492	0.648057
C63	C	-0.888644	-0.822306	0.152420
C64	C	-0.388644	-0.322306	0.652420
C65	C	-0.996299	-0.822293	0.044828
C66	C	-0.496299	-0.322293	0.544828
C67	C	-1.000654	-0.731485	0.040471
C68	C	-0.500654	-0.231485	0.540471
C69	C	-0.948999	-0.686089	0.092082
C70	C	-0.448999	-0.186089	0.592082
N71	N	-0.907344	-0.552731	0.133698
N72	N	-0.407344	-0.052731	0.633698
N73	N	-0.953452	-0.593269	0.087617
N74	N	-0.453452	-0.093269	0.587617
C75	C	-0.074499	-0.082722	0.105197
C76	C	0.425501	0.417278	0.605197
C77	C	-0.161971	-0.088987	0.106965
C78	C	0.338029	0.411013	0.606965
C79	C	-0.936798	-0.063276	-0.034370
C80	C	-0.436798	0.436724	0.465630
C81	C	-0.935635	-0.057014	-0.122444
C82	C	-0.435635	0.442986	0.377556
N83	N	-0.940290	0.132297	0.100808
N84	N	-0.440290	0.632297	0.600808
C85	C	-0.931299	-0.132704	-0.160057
C86	C	-0.431299	0.367296	0.339943
C87	C	-0.930212	-0.126812	-0.242813
C88	C	-0.430212	0.373188	0.257187
C89	C	-0.933455	-0.045230	-0.287955
C90	C	-0.433455	0.454770	0.212045
C91	C	-0.937794	0.030466	-0.250338
C92	C	-0.437794	0.530466	0.249662
C93	C	-0.938887	0.024573	-0.167583
C94	C	-0.438887	0.524573	0.332417
C95	C	-0.930598	-0.019174	-0.535858
C96	C	-0.430598	0.480826	-0.035858
C97	C	-0.929502	-0.013286	-0.618617
C98	C	-0.429502	0.486714	-0.118617
C99	C	-0.921922	-0.170566	-0.611087
C100	C	-0.421922	0.329434	-0.111087
C101	C	-0.923010	-0.176451	-0.528331
C102	C	-0.423010	0.323549	-0.028331
C103	C	-0.927353	-0.100756	-0.490721
C104	C	-0.427353	0.399244	0.009279
N105	N	-0.932341	-0.039205	-0.372545
N106	N	-0.432341	0.460795	0.127455
N107	N	-0.928472	-0.106781	-0.406134
N108	N	-0.428472	0.393219	0.093866
C109	C	-0.924003	-0.082720	0.255696
C110	C	-0.424003	0.417280	0.755696
C111	C	-0.925166	-0.088976	0.343771
C112	C	-0.425166	0.411024	0.843771
H113	H	-0.176498	0.053137	0.100275
H114	H	0.323502	0.553137	0.600275
H115	H	-0.325597	0.042448	0.103273
H116	H	0.174403	0.542448	0.603273
H117	H	-0.942418	0.086208	-0.136961
H118	H	-0.442418	0.586208	0.363039
O119	O	-0.935262	0.062466	-0.495294
O120	O	-0.435262	0.562466	0.004706
H121	H	-0.937319	0.120183	-0.540588
H122	H	-0.437319	0.620183	-0.040588
O123	O	-0.941287	0.118463	-0.299020
O124	O	-0.441287	0.618463	0.200980
H125	H	-0.939788	0.109847	-0.362882
H126	H	-0.439788	0.609847	0.137118
O127	O	-0.539137	0.118459	0.103099
O128	O	-0.039137	0.618459	0.603099
H129	H	-0.549470	0.151788	0.155613
H130	H	-0.049470	0.651788	0.655613
O131	O	-0.927807	-0.220698	-0.111369
O132	O	-0.427807	0.279302	0.388631
H133	H	-0.924620	-0.272340	-0.151431
H134	H	-0.424620	0.227660	0.348569
H135	H	-1.038353	-0.859262	0.002808
H136	H	-0.538353	-0.359262	0.502808
H137	H	-1.017770	-0.286726	0.023322
H138	H	-0.517770	0.213274	0.523322
O139	O	-0.321675	-0.264463	0.118199
O140	O	0.178325	0.235537	0.618199
H141	H	-0.386365	-0.255847	0.118870
H142	H	0.113635	0.244153	0.618870
H143	H	-0.535209	-0.188461	0.118032
H144	H	-0.035209	0.311539	0.618032
H145	H	-0.698087	0.086196	0.107371
H146	H	-0.198087	0.586196	0.607371
O147	O	-0.694174	-0.220707	0.122272
O148	O	-0.194174	0.279293	0.622272
H149	H	-0.649155	-0.272354	0.124026
H150	H	-0.149155	0.227646	0.624026
H151	H	-0.920386	-0.242885	-0.491584
H152	H	-0.420386	0.257115	0.008416
H153	H	-0.162716	-0.232210	0.113970
H154	H	0.337284	0.267790	0.613970
H155	H	-1.009858	-0.451462	0.031234
H156	H	-0.509858	0.048538	0.531234
O157	O	-1.061057	-0.682517	-0.019912
O158	O	-0.561057	-0.182517	0.480088
H159	H	-1.121601	-0.704966	-0.008793
H160	H	-0.621601	-0.204966	0.491207
O161	O	-0.925530	-0.208448	-0.283383
O162	O	-0.425530	0.291552	0.216617
H163	H	-0.923447	-0.266166	-0.238089
H164	H	-0.423447	0.233834	0.261911
H165	H	-0.843036	-0.859275	0.198006
H166	H	-0.343036	-0.359275	0.698006
H167	H	-0.850937	-0.694539	0.190082
H168	H	-0.350937	-0.194539	0.690082
H169	H	-0.814544	-0.451484	0.226426
H170	H	-0.314544	0.048516	0.726426
O171	O	-0.808804	-0.274730	0.232156
O172	O	-0.308804	0.225270	0.732156
H173	H	-0.769135	-0.321561	0.271820
H174	H	-0.269135	0.178439	0.771820
H175	H	-0.918387	-0.232192	-0.641718
H176	H	-0.418387	0.267808	-0.141718
O177	O	-0.933013	0.074709	-0.667313
O178	O	-0.433013	0.574709	-0.167313
H179	H	-0.936227	0.126355	-0.627260
H180	H	-0.436227	0.626355	-0.127260
