data_functionalizedCrystal
_audit_creation_method	'MofGen! by Chris Wilmer'
_symmetry_space_group_name_H-M	'P1'
_symmetry_Int_Tables_number	1
_symmetry_cell_setting	triclinic
loop_
_symmetry_equiv_pos_as_xyz
  x,y,z
_cell_length_a	14.044220
_cell_length_b	14.044209
_cell_length_c	12.503552
_cell_angle_alpha	93.839236
_cell_angle_beta	93.839943
_cell_angle_gamma	86.811585
loop_
_atom_site_label
_atom_site_type_symbol
_atom_site_fract_x
_atom_site_fract_y
_atom_site_fract_z
O1	O	0.225112	-1.282206	-0.089195
O2	O	0.216806	-1.005537	-0.089225
O3	O	0.082624	-1.139718	-0.089200
O4	O	0.359294	-1.148025	-0.089220
O5	O	0.092724	-1.129615	0.089441
O6	O	0.226906	-0.995433	0.089416
O7	O	0.235211	-1.272103	0.089446
Cu8	Cu	0.231981	-1.132846	0.105742
Cu9	Cu	0.220037	-1.144794	-0.105521
O10	O	0.369394	-1.137922	0.089421
C11	C	0.052052	-1.131031	0.000121
C12	C	-0.054091	-1.120186	0.000121
C13	C	0.218221	-0.964863	0.000092
C14	C	0.207376	-0.858721	0.000080
N15	N	0.240382	-1.124449	0.254333
C16	C	-0.248429	-1.100361	0.000103
C17	C	-0.299559	-1.177275	0.000108
C18	C	-0.407696	-1.166244	0.000099
C19	C	-0.140283	-1.111391	0.000113
C20	C	0.399966	-1.146609	0.000098
C21	C	0.506108	-1.157454	0.000091
C22	C	0.187553	-0.664382	0.000101
C23	C	0.264468	-0.613252	0.000099
C24	C	0.253437	-0.505116	0.000110
C25	C	0.198581	-0.772529	0.000089
C26	C	0.233799	-0.312777	0.000124
C27	C	0.244648	-0.418919	0.000119
N28	N	0.211629	-1.153198	-0.254112
C29	C	0.199267	-1.165544	0.526774
C30	C	0.252741	-1.112105	0.473440
C31	C	0.245863	-1.118975	0.351518
C32	C	0.206144	-1.158676	0.648708
H33	H	-0.285866	-1.026234	0.000093
H34	H	0.338600	-0.650692	0.000089
H35	H	0.113426	-0.626945	0.000111
N36	N	0.131769	-1.232961	0.465979
H37	H	0.136357	-1.228366	0.386238
H38	H	0.149596	-1.300548	0.485552
N39	N	0.320227	-1.044667	0.534236
H40	H	0.315641	-1.049255	0.613978
H41	H	0.387796	-1.062555	0.514642
N42	N	-0.249966	-1.275470	0.000139
H43	H	-0.265291	-1.307578	0.066368
H44	H	-0.272775	-1.315013	-0.066120
