data_functionalizedCrystal
_audit_creation_method	'MofGen! by Chris Wilmer'
_symmetry_space_group_name_H-M	'P1'
_symmetry_Int_Tables_number	1
_symmetry_cell_setting	triclinic
loop_
_symmetry_equiv_pos_as_xyz
  x,y,z
_cell_length_a	18.215405
_cell_length_b	25.639242
_cell_length_c	25.639234
_cell_angle_alpha	89.969217
_cell_angle_beta	90.024291
_cell_angle_gamma	89.981154
loop_
_atom_site_label
_atom_site_type_symbol
_atom_site_fract_x
_atom_site_fract_y
_atom_site_fract_z
Zn1	Zn	-0.293127	-0.799316	0.295764
Zn2	Zn	0.040207	-0.465983	0.629098
Zn3	Zn	0.373540	-0.132650	0.962431
Zn4	Zn	-0.416187	-0.799251	0.208330
Zn5	Zn	-0.082854	-0.465918	0.541663
Zn6	Zn	0.250480	-0.132585	0.874996
Zn7	Zn	-0.293128	-0.711882	0.208326
Zn8	Zn	0.040205	-0.378548	0.541660
Zn9	Zn	0.373539	-0.045215	0.874993
Zn10	Zn	-0.416145	-0.711860	0.295717
Zn11	Zn	-0.082812	-0.378527	0.629051
Zn12	Zn	0.250521	-0.045194	0.962384
O13	O	-0.354647	-0.755577	0.252035
O14	O	-0.021313	-0.422244	0.585368
O15	O	0.312020	-0.088911	0.918701
O16	O	-0.309468	-0.872473	0.284187
O17	O	0.023866	-0.539139	0.617520
O18	O	0.357199	-0.205806	0.950854
O19	O	-0.399881	-0.787643	0.135164
O20	O	-0.066548	-0.454310	0.468497
O21	O	0.266786	-0.120977	0.801831
O22	O	-0.190144	-0.723516	0.219943
O23	O	0.143190	-0.390183	0.553277
O24	O	0.476523	-0.056849	0.886610
O25	O	-0.399879	-0.872425	0.219949
O26	O	-0.066546	-0.539092	0.553283
O27	O	0.266787	-0.205759	0.886616
O28	O	-0.190143	-0.787754	0.284184
O29	O	0.143191	-0.454420	0.617517
O30	O	0.476524	-0.121087	0.950851
O31	O	-0.309470	-0.723453	0.135162
O32	O	0.023863	-0.390120	0.468495
O33	O	0.357197	-0.056786	0.801828
O34	O	-0.309430	-0.638714	0.219898
O35	O	0.023904	-0.305380	0.553231
O36	O	0.357237	0.027953	0.886565
O37	O	-0.399809	-0.723480	0.368889
O38	O	-0.066475	-0.390146	0.702222
O39	O	0.266858	-0.056813	1.035556
O40	O	-0.399810	-0.638698	0.284104
O41	O	-0.066477	-0.305365	0.617437
O42	O	0.266857	0.027969	0.950770
O43	O	-0.309427	-0.787733	0.368923
O44	O	0.023906	-0.454400	0.702257
O45	O	0.357239	-0.121067	1.035590
O46	O	-0.519166	-0.787623	0.219904
O47	O	-0.185832	-0.454289	0.553237
O48	O	0.147501	-0.120956	0.886570
O49	O	-0.519135	-0.723417	0.284107
O50	O	-0.185802	-0.390084	0.617440
O51	O	0.147532	-0.056750	0.950774
C52	C	-0.354616	-0.619735	0.251996
C53	C	-0.021283	-0.286401	0.585329
C54	C	0.312051	0.046932	0.918662
C55	C	-0.354621	-0.561621	0.251991
C56	C	-0.021287	-0.228287	0.585325
C57	C	0.312046	0.105046	0.918658
C58	C	-0.545853	-0.755525	0.252012
C59	C	-0.212520	-0.422191	0.585345
C60	C	0.120814	-0.088858	0.918679
C61	C	-0.627652	-0.755550	0.252020
C62	C	-0.294319	-0.422217	0.585353
C63	C	0.039015	-0.088883	0.918687
C64	C	-0.892701	-0.789080	0.218660
C65	C	-0.559368	-0.455747	0.551993
C66	C	-0.226034	-0.122413	0.885326
C67	C	-0.815842	-0.789058	0.218648
C68	C	-0.482509	-0.455725	0.551981
C69	C	-0.149176	-0.122392	0.885314
C70	C	-0.815851	-0.722140	0.285445
C71	C	-0.482518	-0.388806	0.618778
C72	C	-0.149185	-0.055473	0.952111
C73	C	-0.892709	-0.722159	0.285454
C74	C	-0.559375	-0.388825	0.618787
C75	C	-0.226042	-0.055492	0.952120
C76	C	-0.931131	-0.755632	0.252062
C77	C	-0.597798	-0.422299	0.585395
C78	C	-0.264465	-0.088965	0.918729
C79	C	-0.777415	-0.755591	0.252041
C80	C	-0.444082	-0.422258	0.585374
C81	C	-0.110749	-0.088924	0.918708
C82	C	-0.694082	-0.755568	0.252028
C83	C	-0.360748	-0.422234	0.585362
C84	C	-0.027415	-0.088901	0.918695
C85	C	-1.014470	-0.755655	0.252074
C86	C	-0.681137	-0.422322	0.585407
C87	C	-0.347804	-0.088988	0.918740
C88	C	-0.354613	-0.755611	0.388408
C89	C	-0.021280	-0.422278	0.721741
C90	C	0.312053	-0.088945	1.055074
C91	C	-0.354599	-0.755626	0.446522
C92	C	-0.021266	-0.422292	0.779855
C93	C	0.312068	-0.088959	1.113188
C94	C	-0.162694	-0.755644	0.252069
C95	C	0.170640	-0.422311	0.585402
C96	C	0.503973	-0.088978	0.918735
C97	C	-0.080895	-0.755673	0.252083
C98	C	0.252438	-0.422340	0.585416
C99	C	0.585772	-0.089006	0.918750
C100	C	-0.401780	-0.201258	0.285421
C101	C	-0.068446	0.132075	0.618754
C102	C	0.264887	0.465408	0.952088
C103	C	-0.401783	-0.146654	0.285428
C104	C	-0.068450	0.186679	0.618761
C105	C	0.264883	0.520013	0.952095
O106	O	-0.441847	-0.118418	0.313828
O107	O	-0.108514	0.214915	0.647161
O108	O	0.224820	0.548249	0.980494
N109	N	-0.354659	-0.119338	0.252053
N110	N	-0.021326	0.213995	0.585386
N111	N	0.312007	0.547328	0.918719
C112	C	-0.307523	-0.146630	0.218672
C113	C	0.025811	0.186704	0.552006
C114	C	0.359144	0.520037	0.885339
O115	O	-0.267440	-0.118381	0.190285
O116	O	0.065893	0.214952	0.523618
O117	O	0.399227	0.548285	0.856952
C118	C	-0.307516	-0.201233	0.218668
C119	C	0.025818	0.132100	0.552002
C120	C	0.359151	0.465434	0.885335
C121	C	-0.354648	-0.228546	0.252042
C122	C	-0.021315	0.104787	0.585375
C123	C	0.312018	0.438121	0.918709
C124	C	-0.448908	-0.228572	0.318792
C125	C	-0.115574	0.104762	0.652126
C126	C	0.217759	0.438095	0.985459
C127	C	-0.448905	-0.283172	0.318785
C128	C	-0.115571	0.050161	0.652118
C129	C	0.217762	0.383495	0.985451
C130	C	-0.401773	-0.310460	0.285406
C131	C	-0.068440	0.022874	0.618739
C132	C	0.264893	0.356207	0.952072
C133	C	-0.354645	-0.283146	0.252034
C134	C	-0.021312	0.050187	0.585368
C135	C	0.312021	0.383520	0.918701
C136	C	-0.260376	-0.228523	0.185291
C137	C	0.072957	0.104810	0.518624
C138	C	0.406290	0.438144	0.851958
C139	C	-0.260373	-0.283130	0.185290
C140	C	0.072960	0.050203	0.518624
C141	C	0.406294	0.383536	0.851957
C142	C	-0.307506	-0.310443	0.218664
C143	C	0.025828	0.022890	0.551997
C144	C	0.359161	0.356223	0.885331
C145	C	-0.307511	-0.365034	0.218648
C146	C	0.025822	-0.031701	0.551981
C147	C	0.359156	0.301632	0.885314
N148	N	-0.354635	-0.392350	0.252023
N149	N	-0.021302	-0.059017	0.585356
N150	N	0.312031	0.274316	0.918689
C151	C	-0.401766	-0.365063	0.285402
C152	C	-0.068433	-0.031730	0.618735
C153	C	0.264900	0.301604	0.952068
C154	C	-0.307540	-0.031959	0.218684
C155	C	0.025793	0.301374	0.552017
C156	C	0.359126	0.634708	0.885350
C157	C	-0.307550	0.022643	0.218684
C158	C	0.025783	0.355977	0.552018
C159	C	0.359116	0.689310	0.885351
C160	C	-0.401810	0.022615	0.285441
C161	C	-0.068477	0.355948	0.618774
C162	C	0.264857	0.689282	0.952107
C163	C	-0.401803	-0.031988	0.285437
C164	C	-0.068470	0.301345	0.618770
C165	C	0.264864	0.634678	0.952104
C166	C	-0.354664	-0.059275	0.252059
C167	C	-0.021331	0.274059	0.585392
C168	C	0.312002	0.607392	0.918725
C169	C	-0.401757	-0.479728	0.285383
C170	C	-0.068424	-0.146395	0.618716
C171	C	0.264910	0.186939	0.952049
C172	C	-0.401752	-0.534333	0.285370
C173	C	-0.068419	-0.201000	0.618704
C174	C	0.264915	0.132333	0.952037
C175	C	-0.307490	-0.534300	0.218616
C176	C	0.025844	-0.200967	0.551950
C177	C	0.359177	0.132366	0.885283
C178	C	-0.307497	-0.479700	0.218626
C179	C	0.025836	-0.146366	0.551960
C180	C	0.359170	0.186967	0.885293
C181	C	-0.354633	-0.452415	0.252014
C182	C	-0.021300	-0.119081	0.585347
C183	C	0.312033	0.214252	0.918680
O184	O	-0.267466	-0.393305	0.190264
O185	O	0.065867	-0.059972	0.523597
O186	O	0.399201	0.273361	0.856930
O187	O	-0.441836	-0.393318	0.313789
O188	O	-0.108503	-0.059984	0.647122
O189	O	0.224831	0.273349	0.980456
C190	C	-0.354675	0.108050	0.252068
C191	C	-0.021342	0.441383	0.585401
C192	C	0.311992	0.774716	0.918734
C193	C	-0.354679	0.049936	0.252066
C194	C	-0.021346	0.383269	0.585399
C195	C	0.311988	0.716602	0.918732
C196	C	-0.354627	-0.755574	0.116192
C197	C	-0.021294	-0.422240	0.449525
C198	C	0.312040	-0.088907	0.782859
C199	C	-0.354434	-0.755660	0.058078
C200	C	-0.021101	-0.422327	0.391412
C201	C	0.312233	-0.088994	0.724745
C202	C	-0.307434	-0.722217	0.806889
C203	C	0.025899	-0.388883	1.140222
C204	C	0.359232	-0.055550	1.473556
C205	C	-0.307421	-0.722219	0.861493
C206	C	0.025912	-0.388886	1.194827
C207	C	0.359246	-0.055553	1.528160
O208	O	-0.267401	-0.693787	0.889734
O209	O	0.065932	-0.360454	1.223067
O210	O	0.399266	-0.027121	1.556400
N211	N	-0.354483	-0.755643	0.888804
N212	N	-0.021150	-0.422310	1.222138
N213	N	0.312183	-0.088977	1.555471
C214	C	-0.401568	-0.789063	0.861508
C215	C	-0.068234	-0.455729	1.194841
C216	C	0.265099	-0.122396	1.528175
O217	O	-0.441597	-0.817492	0.889752
O218	O	-0.108264	-0.484159	1.223085
O219	O	0.225070	-0.150825	1.556419
C220	C	-0.401584	-0.789057	0.806905
C221	C	-0.068251	-0.455723	1.140238
C222	C	0.265083	-0.122390	1.473571
C223	C	-0.354513	-0.755634	0.779597
C224	C	-0.021180	-0.422301	1.112930
C225	C	0.312153	-0.088968	1.446263
C226	C	-0.260368	-0.688797	0.779581
C227	C	0.072965	-0.355463	1.112914
C228	C	0.406299	-0.022130	1.446248
C229	C	-0.260380	-0.688795	0.724980
C230	C	0.072953	-0.355461	1.058314
C231	C	0.406286	-0.022128	1.391647
C232	C	-0.307459	-0.722213	0.697688
C233	C	0.025874	-0.388879	1.031021
C234	C	0.359207	-0.055546	1.364355
C235	C	-0.354526	-0.755632	0.724996
C236	C	-0.021192	-0.422299	1.058329
C237	C	0.312141	-0.088966	1.391663
C238	C	-0.448671	-0.822473	0.779609
C239	C	-0.115338	-0.489140	1.112943
C240	C	0.217995	-0.155806	1.446276
C241	C	-0.448684	-0.822464	0.725002
C242	C	-0.115351	-0.489131	1.058336
C243	C	0.217982	-0.155797	1.391669
C244	C	-0.401613	-0.789042	0.697694
C245	C	-0.068280	-0.455708	1.031028
C246	C	0.265053	-0.122375	1.364361
C247	C	-0.401617	-0.789048	0.643103
C248	C	-0.068284	-0.455715	0.976436
C249	C	0.265049	-0.122382	1.309770
N250	N	-0.354555	-0.755625	0.615792
N251	N	-0.021222	-0.422291	0.949125
N252	N	0.312112	-0.088958	1.282459
C253	C	-0.307476	-0.722207	0.643085
C254	C	0.025857	-0.388873	0.976418
C255	C	0.359191	-0.055540	1.309751
C256	C	-0.401530	-0.789072	0.976179
C257	C	-0.068197	-0.455738	1.309512
C258	C	0.265136	-0.122405	1.642845
C259	C	-0.401511	-0.789080	1.030781
C260	C	-0.068177	-0.455747	1.364114
C261	C	0.265156	-0.122414	1.697448
C262	C	-0.307365	-0.722237	1.030763
C263	C	0.025969	-0.388903	1.364096
C264	C	0.359302	-0.055570	1.697429
C265	C	-0.307381	-0.722231	0.976159
C266	C	0.025952	-0.388897	1.309493
C267	C	0.359285	-0.055564	1.642826
C268	C	-0.354468	-0.755648	0.948868
C269	C	-0.021134	-0.422315	1.282201
C270	C	0.312199	-0.088981	1.615534
C271	C	-0.307505	-0.722205	0.528419
C272	C	0.025828	-0.388872	0.861753
C273	C	0.359161	-0.055539	1.195086
C274	C	-0.307520	-0.722208	0.473814
C275	C	0.025813	-0.388875	0.807147
C276	C	0.359147	-0.055541	1.140481
C277	C	-0.401668	-0.789050	0.473837
C278	C	-0.068335	-0.455716	0.807171
C279	C	0.264999	-0.122383	1.140504
C280	C	-0.401651	-0.789049	0.528438
C281	C	-0.068318	-0.455716	0.861771
C282	C	0.265015	-0.122383	1.195105
C283	C	-0.354567	-0.755623	0.555728
C284	C	-0.021234	-0.422290	0.889061
C285	C	0.312099	-0.088956	1.222394
O286	O	-0.441619	-0.817464	0.614828
O287	O	-0.108286	-0.484131	0.948161
O288	O	0.225048	-0.150798	1.281495
O289	O	-0.267460	-0.693777	0.614834
O290	O	0.065873	-0.360444	0.948167
O291	O	0.399207	-0.027111	1.281501
H292	H	-0.923983	-0.816336	0.191470
H293	H	-0.590649	-0.483002	0.524803
H294	H	-0.257316	-0.149669	0.858137
H295	H	-0.924000	-0.694919	0.312655
H296	H	-0.590666	-0.361586	0.645988
H297	H	-0.257333	-0.028253	0.979321
H298	H	-0.269155	-0.054172	0.191499
H299	H	0.064179	0.279161	0.524833
H300	H	0.397512	0.612494	0.858166
H301	H	-0.222030	-0.661581	0.801797
H302	H	0.111303	-0.328248	1.135130
H303	H	0.444637	0.005085	1.468463
H304	H	-0.439869	-0.816290	0.953961
H305	H	-0.106536	-0.482957	1.287295
H306	H	0.226797	-0.149624	1.620628
H307	H	-0.269119	-0.556527	0.191438
H308	H	0.064214	-0.223194	0.524772
H309	H	0.397548	0.110139	0.858105
Cl310	Cl	-0.460847	-0.831061	0.439517
Cl311	Cl	-0.127513	-0.497728	0.772850
Cl312	Cl	0.205820	-0.164394	1.106183
H313	H	-0.221998	-0.206294	0.158113
H314	H	0.111336	0.127039	0.491447
H315	H	0.444669	0.460372	0.824780
Cl316	Cl	-0.461056	-0.066319	0.327395
Cl317	Cl	-0.127722	0.267014	0.660728
Cl318	Cl	0.205611	0.600348	0.994062
H319	H	-0.784560	-0.694887	0.312632
H320	H	-0.451226	-0.361554	0.645965
H321	H	-0.117893	-0.028220	0.979299
H322	H	-0.269178	0.044877	0.191503
H323	H	0.064156	0.378210	0.524836
H324	H	0.397489	0.711544	0.858170
Cl325	Cl	-0.767533	-0.831110	0.176655
Cl326	Cl	-0.434199	-0.497776	0.509988
Cl327	Cl	-0.100866	-0.164443	0.843322
Cl328	Cl	-0.461010	-0.568666	0.327328
Cl329	Cl	-0.127677	-0.235333	0.660661
Cl330	Cl	0.205657	0.098000	0.993995
Cl331	Cl	-0.460814	-0.831075	0.562769
Cl332	Cl	-0.127481	-0.497742	0.896102
Cl333	Cl	0.205853	-0.164408	1.229436
H334	H	-0.269052	-0.695016	0.953929
H335	H	0.064282	-0.361682	1.287262
H336	H	0.397615	-0.028349	1.620595
Cl337	Cl	-0.201108	-0.317430	0.143327
Cl338	Cl	0.132225	0.015904	0.476660
Cl339	Cl	0.465558	0.349237	0.809993
H340	H	-0.269119	-0.457460	0.191450
H341	H	0.064214	-0.124127	0.524783
H342	H	0.397547	0.209207	0.858116
Cl343	Cl	-0.461016	-0.445436	0.327355
Cl344	Cl	-0.127682	-0.112102	0.660689
Cl345	Cl	0.205651	0.221231	0.994022
Cl346	Cl	-0.508156	-0.317500	0.360746
Cl347	Cl	-0.174823	0.015833	0.694079
Cl348	Cl	0.158511	0.349166	1.027412
Cl349	Cl	-0.508167	-0.194277	0.360760
Cl350	Cl	-0.174834	0.139056	0.694093
Cl351	Cl	0.158499	0.472390	1.027427
H352	H	-0.440185	0.044842	0.312622
H353	H	-0.106851	0.378176	0.645955
H354	H	0.226482	0.711509	0.979288
Cl355	Cl	-0.248339	-0.680189	0.439487
Cl356	Cl	0.084994	-0.346856	0.772821
Cl357	Cl	0.418327	-0.013523	1.106154
Cl358	Cl	-0.507856	-0.864488	0.813926
Cl359	Cl	-0.174523	-0.531155	1.147260
Cl360	Cl	0.158810	-0.197821	1.480593
Cl361	Cl	-0.248308	-0.680187	0.562718
Cl362	Cl	0.085025	-0.346854	0.896051
Cl363	Cl	0.418359	-0.013520	1.229385
Cl364	Cl	-0.507884	-0.864476	0.690697
Cl365	Cl	-0.174551	-0.531142	1.024030
Cl366	Cl	0.158782	-0.197809	1.357363
H367	H	-0.222053	-0.661577	0.702751
H368	H	0.111280	-0.328244	1.036084
H369	H	0.444613	0.005090	1.369418
H370	H	-0.269031	-0.695026	1.052994
H371	H	0.064303	-0.361692	1.386327
H372	H	0.397636	-0.028359	1.719661
Cl373	Cl	-0.460679	-0.831105	1.065105
Cl374	Cl	-0.127345	-0.497772	1.398438
Cl375	Cl	0.205988	-0.164439	1.731771
