data_functionalizedCrystal
_audit_creation_method	'MofGen! by Chris Wilmer'
_symmetry_space_group_name_H-M	'P1'
_symmetry_Int_Tables_number	1
_symmetry_cell_setting	triclinic
loop_
_symmetry_equiv_pos_as_xyz
  x,y,z
_cell_length_a	18.050589
_cell_length_b	19.077241
_cell_length_c	19.077174
_cell_angle_alpha	94.706947
_cell_angle_beta	92.276796
_cell_angle_gamma	87.679727
loop_
_atom_site_label
_atom_site_type_symbol
_atom_site_fract_x
_atom_site_fract_y
_atom_site_fract_z
Zn1	Zn	-0.268160	-1.093724	-0.442013
Zn2	Zn	-0.387560	-1.088902	-0.324132
Zn3	Zn	-0.268169	-0.971105	-0.319394
Zn4	Zn	-0.397097	-0.975791	-0.437235
O5	O	-0.330246	-1.032380	-0.380694
O6	O	-0.280004	-1.191737	-0.430359
O7	O	-0.367736	-1.069296	-0.224853
O8	O	-0.164241	-0.987427	-0.335676
O9	O	-0.367727	-1.188195	-0.343752
O10	O	-0.164235	-1.077515	-0.425764
O11	O	-0.280019	-0.982752	-0.221372
O12	O	-0.289266	-0.873073	-0.331043
O13	O	-0.383980	-0.995415	-0.536519
O14	O	-0.383989	-0.876516	-0.417620
O15	O	-0.289250	-1.082059	-0.540030
O16	O	-0.492752	-1.073841	-0.339119
O17	O	-0.499758	-0.990739	-0.422215
C18	C	-0.337664	-0.849215	-0.373299
C19	C	-0.340856	-0.770857	-0.370152
C20	C	-0.296761	-0.735892	-0.413834
C21	C	-0.299756	-0.662266	-0.410871
C22	C	-0.346851	-0.623606	-0.364230
C23	C	-0.390947	-0.658576	-0.320543
C24	C	-0.387948	-0.732201	-0.323503
C25	C	-0.360707	-0.403213	-0.350532
C26	C	-0.363705	-0.329584	-0.347577
C27	C	-0.272512	-0.333279	-0.437905
C28	C	-0.269520	-0.406905	-0.440863
C29	C	-0.313614	-0.441868	-0.397174
N30	N	-0.349915	-0.548348	-0.361202
N31	N	-0.310545	-0.517124	-0.400199
C32	C	-0.523201	-1.032295	-0.380678
C33	C	-0.605747	-1.032324	-0.380698
C34	C	-0.809032	-0.987179	-0.425871
C35	C	-0.856551	-0.967414	-0.360852
C36	C	-0.756875	-1.032393	-0.380710
C37	C	-0.856436	-1.052193	-0.445738
C38	C	-0.902858	-1.032459	-0.380727
C39	C	-0.803307	-1.012593	-0.315655
C40	C	-0.803188	-1.097404	-0.400587
C41	C	-0.850682	-1.077662	-0.335524
C42	C	-0.672778	-1.032353	-0.380701
C43	C	-0.986953	-1.032499	-0.380729
C44	C	-0.136538	-1.032486	-0.380725
C45	C	-0.053990	-1.032531	-0.380738
C46	C	-0.337678	-1.039798	-0.564569
C47	C	-0.340845	-1.042958	-0.642925
C48	C	-0.322796	-0.216261	-0.388112
C49	C	-0.319610	-0.294619	-0.391259
C50	C	-0.296664	-0.999386	-0.677925
C51	C	-0.299646	-1.002353	-0.751549
C52	C	-0.346805	-1.048897	-0.790173
C53	C	-0.390991	-1.092471	-0.755169
C54	C	-0.388012	-1.089500	-0.681546
C55	C	-0.360614	-1.062611	-1.010557
C56	C	-0.363587	-1.065581	-1.084185
C57	C	-0.272243	-0.975462	-1.080560
C58	C	-0.269266	-0.972498	-1.006936
C59	C	-0.313454	-1.016069	-0.971938
N60	N	-0.349853	-1.051932	-0.865429
N61	N	-0.310410	-1.013030	-0.896683
C62	C	-0.322788	-1.025033	-0.197535
C63	C	-0.319407	-1.022009	-0.119184
H64	H	-0.258413	-0.767364	-0.451817
O65	O	-0.218714	-0.448602	-0.491159
H66	H	-0.188546	-0.411919	-0.521030
O67	O	-0.224944	-0.295570	-0.485016
H68	H	-0.234933	-0.237879	-0.475118
H69	H	-0.429393	-1.130364	-0.786622
O70	O	-0.887264	-1.074348	-0.518573
H71	H	-0.870692	-1.036699	-0.555943
O72	O	-0.414494	-0.287885	-0.297259
H73	H	-0.454976	-0.255609	-0.327398
H74	H	-0.263850	-0.633801	-0.446443
H75	H	-0.879944	-0.912467	-0.344055
O76	O	-0.435504	-0.769916	-0.276384
H77	H	-0.473242	-0.804730	-0.309219
O78	O	-0.784625	-0.936453	-0.476377
H79	H	-0.834214	-0.910861	-0.501160
H80	H	-0.263672	-0.966869	-0.780042
O81	O	-0.408266	-0.440913	-0.303409
H82	H	-0.446008	-0.475727	-0.336242
H83	H	-0.423983	-1.124986	-0.653051
H84	H	-0.258258	-0.961489	-0.646482
O85	O	-0.441742	-0.616884	-0.270232
H86	H	-0.436426	-0.559813	-0.275516
O87	O	-0.772203	-1.170172	-0.422875
H88	H	-0.735747	-1.189460	-0.379761
O89	O	-0.772609	-0.990356	-0.242793
H90	H	-0.711140	-0.990474	-0.243365
O91	O	-0.874896	-1.128350	-0.284892
H92	H	-0.853465	-1.111779	-0.230989
O93	O	-0.218388	-0.922310	-0.965277
H94	H	-0.188164	-0.892511	-1.001984
O95	O	-0.224576	-0.928475	-1.118306
H96	H	-0.234567	-0.938359	-1.175990
H97	H	-0.401991	-1.103485	-1.115631
H98	H	-0.396604	-1.098083	-0.982070
