data_functionalizedCrystal
_audit_creation_method	'MofGen! by Chris Wilmer'
_symmetry_space_group_name_H-M	'P1'
_symmetry_Int_Tables_number	1
_symmetry_cell_setting	triclinic
loop_
_symmetry_equiv_pos_as_xyz
  x,y,z
_cell_length_a	21.295420
_cell_length_b	21.295417
_cell_length_c	21.295412
_cell_angle_alpha	89.968813
_cell_angle_beta	89.983421
_cell_angle_gamma	90.028757
loop_
_atom_site_label
_atom_site_type_symbol
_atom_site_fract_x
_atom_site_fract_y
_atom_site_fract_z
Zn1	Zn	0.962305	-0.250651	-0.355914
Zn2	Zn	1.462305	0.249349	0.144086
Zn3	Zn	0.962222	-0.355920	-0.250639
Zn4	Zn	1.462222	0.144080	0.249361
Zn5	Zn	0.857043	-0.250666	-0.250658
Zn6	Zn	1.357043	0.249334	0.249342
Zn7	Zn	0.856998	-0.355883	-0.355870
Zn8	Zn	1.356998	0.144117	0.144130
O9	O	0.909642	-0.303280	-0.303270
O10	O	1.409642	0.196720	0.196730
O11	O	1.050383	-0.264625	-0.341959
O12	O	1.550383	0.235375	0.158041
O13	O	0.948254	-0.341980	-0.162552
O14	O	1.448254	0.158020	0.337448
O15	O	0.871060	-0.162574	-0.264647
O16	O	1.371060	0.337426	0.235353
O17	O	1.050323	-0.341966	-0.264614
O18	O	1.550323	0.158034	0.235386
O19	O	0.948395	-0.162564	-0.341977
O20	O	1.448395	0.337436	0.158023
O21	O	0.870980	-0.264650	-0.162566
O22	O	1.370980	0.235350	0.337434
O23	O	0.768948	-0.264614	-0.264605
O24	O	1.268948	0.235386	0.235395
O25	O	0.870982	-0.341902	-0.443966
O26	O	1.370982	0.158098	0.056034
O27	O	0.768914	-0.341916	-0.341904
O28	O	1.268914	0.158084	0.158096
O29	O	0.948351	-0.264589	-0.443997
O30	O	1.448351	0.235411	0.056003
O31	O	0.948210	-0.444005	-0.264572
O32	O	1.448210	0.055995	0.235428
O33	O	0.870902	-0.443977	-0.341885
O34	O	1.370902	0.056023	0.158115
C35	C	0.746090	-0.303263	-0.303252
C36	C	1.246090	0.196737	0.196748
C37	C	0.676122	-0.303271	-0.303260
C38	C	1.176122	0.196729	0.196740
C39	C	0.176663	-0.343606	-0.343481
C40	C	0.676663	0.156394	0.156519
C41	C	0.242406	-0.343606	-0.343474
C42	C	0.742406	0.156394	0.156526
C43	C	0.275283	-0.303294	-0.303290
C44	C	0.775283	0.196706	0.196710
C45	C	0.242412	-0.262991	-0.263098
C46	C	0.742412	0.237009	0.236902
C47	C	0.176671	-0.262996	-0.263102
C48	C	0.676671	0.237004	0.236898
N49	N	0.378524	-0.248178	-0.298558
N50	N	0.878524	0.251822	0.201442
N51	N	0.440976	-0.248174	-0.298558
N52	N	0.940976	0.251826	0.201442
C53	C	0.473358	-0.303277	-0.303277
C54	C	0.973358	0.196723	0.196723
N55	N	0.440929	-0.358384	-0.308007
N56	N	0.940929	0.141616	0.191993
N57	N	0.378471	-0.358386	-0.308010
N58	N	0.878471	0.141614	0.191990
C59	C	0.346568	-0.303284	-0.303282
C60	C	0.846568	0.196716	0.196718
C61	C	0.577506	-0.343581	-0.343456
C62	C	1.077506	0.156419	0.156544
C63	C	0.643250	-0.343582	-0.343445
C64	C	1.143250	0.156418	0.156555
C65	C	0.643255	-0.262962	-0.263072
C66	C	1.143255	0.237038	0.236928
C67	C	0.577512	-0.262966	-0.263080
C68	C	1.077512	0.237034	0.236920
C69	C	0.544642	-0.303275	-0.303275
C70	C	1.044642	0.196725	0.196725
C71	C	0.909559	-0.466832	-0.303236
C72	C	1.409559	0.033168	0.196764
C73	C	0.909582	-0.536800	-0.303242
C74	C	1.409582	-0.036800	0.196758
C75	C	0.949872	-0.569660	-0.263026
C76	C	1.449872	-0.069660	0.236974
C77	C	0.949901	-0.635402	-0.263040
C78	C	1.449901	-0.135402	0.236960
C79	C	0.909629	-0.668282	-0.303263
C80	C	1.409629	-0.168282	0.196737
C81	C	0.869337	-0.635414	-0.343487
C82	C	1.369337	-0.135414	0.156513
C83	C	0.869313	-0.569673	-0.343476
C84	C	1.369313	-0.069673	0.156524
N85	N	0.854562	-0.771546	-0.308056
N86	N	1.354562	-0.271546	0.191944
N87	N	0.854586	-0.833998	-0.308063
N88	N	1.354586	-0.333998	0.191937
C89	C	0.909700	-0.866357	-0.303299
C90	C	1.409700	-0.366357	0.196701
N91	N	0.964790	-0.833905	-0.298517
N92	N	1.464790	-0.333905	0.201483
N93	N	0.964764	-0.771448	-0.298507
N94	N	1.464764	-0.271448	0.201493
C95	C	0.909651	-0.739568	-0.303280
C96	C	1.409651	-0.239568	0.196720
C97	C	0.950025	-0.970503	-0.263097
C98	C	1.450025	-0.470503	0.236903
C99	C	0.950056	-1.036246	-0.263116
C100	C	1.450056	-0.536246	0.236884
C101	C	0.869486	-1.036257	-0.343559
C102	C	1.369486	-0.536257	0.156441
C103	C	0.869461	-0.970515	-0.343544
C104	C	1.369461	-0.470515	0.156456
C105	C	0.909730	-0.937641	-0.303309
C106	C	1.409730	-0.437641	0.196691
C107	C	1.073832	-0.303298	-0.303289
C108	C	1.573832	0.196702	0.196711
C109	C	1.143800	-0.303305	-0.303297
C110	C	1.643800	0.196695	0.196703
C111	C	0.909671	-0.303239	-0.467461
C112	C	1.409671	0.196761	0.032539
C113	C	0.909683	-0.303222	-0.537429
C114	C	1.409683	0.196778	-0.037429
C115	C	0.909742	-0.139090	-0.303319
C116	C	1.409742	0.360910	0.196681
C117	C	0.909785	-0.069122	-0.303340
C118	C	1.409785	0.430878	0.196660
C119	C	0.950029	-0.262865	-1.036905
C120	C	1.450029	0.237135	-0.536905
C121	C	0.950024	-0.262881	-0.971162
C122	C	1.450024	0.237119	-0.471162
C123	C	0.909738	-0.303139	-0.938269
C124	C	1.409738	0.196861	-0.438269
C125	C	0.869465	-0.343397	-0.971123
C126	C	1.369465	0.156603	-0.471123
C127	C	0.869476	-0.343385	-1.036864
C128	C	1.369476	0.156615	-0.536864
N129	N	0.854617	-0.307981	-0.835040
N130	N	1.354617	0.192019	-0.335040
N131	N	0.854608	-0.307989	-0.772588
N132	N	1.354608	0.192011	-0.272588
C133	C	0.909705	-0.303178	-0.740194
C134	C	1.409705	0.196822	-0.240194
N135	N	0.964811	-0.298348	-0.772610
N136	N	1.464811	0.201652	-0.272610
N137	N	0.964818	-0.298337	-0.835067
N138	N	1.464818	0.201663	-0.335067
C139	C	0.909722	-0.303157	-0.866983
C140	C	1.409722	0.196843	-0.366983
C141	C	0.949973	-0.262943	-0.636062
C142	C	1.449973	0.237057	-0.136062
C143	C	0.949969	-0.262963	-0.570318
C144	C	1.449969	0.237037	-0.070318
C145	C	0.869404	-0.343475	-0.570280
C146	C	1.369404	0.156525	-0.070280
C147	C	0.869414	-0.343459	-0.636023
C148	C	1.369414	0.156541	-0.136023
C149	C	0.909697	-0.303189	-0.668909
C150	C	1.409697	0.196811	-0.168909
C151	C	0.909649	-0.303275	-0.139719
C152	C	1.409649	0.196725	0.360281
C153	C	0.909759	-0.303115	-0.069751
C154	C	1.409759	0.196885	0.430249
H155	H	0.550742	-0.376403	-0.376184
H156	H	1.050742	0.123597	0.123816
H157	H	0.982766	-0.230188	-0.543575
H158	H	1.482766	0.269812	-0.043575
O159	O	0.830345	-1.068091	-0.382692
O160	O	1.330345	-0.568091	0.117308
C161	C	0.794763	-1.024986	-0.418172
C162	C	1.294763	-0.524986	0.081828
H163	H	0.820527	-0.978099	-0.420366
H164	H	1.320527	-0.478099	0.079634
H165	H	0.788023	-1.043950	-0.467766
H166	H	1.288023	-0.543950	0.032234
H167	H	0.746966	-1.018054	-0.395074
H168	H	1.246966	-0.518054	0.104926
O169	O	0.989133	-0.223664	-1.068777
O170	O	1.489133	0.276336	-0.568777
C171	C	0.975395	-0.160927	-1.052742
C172	C	1.475395	0.339073	-0.552742
H173	H	0.951184	-0.159634	-1.005009
H174	H	1.451184	0.340366	-0.505009
H175	H	1.020840	-0.132703	-1.050501
H176	H	1.520840	0.367297	-0.550501
H177	H	0.943052	-0.139714	-1.089747
H178	H	1.443052	0.360286	-0.589747
H179	H	0.836650	-0.943758	-0.376288
H180	H	1.336650	-0.443758	0.123712
O181	O	0.830357	-0.382615	-0.538267
O182	O	1.330357	0.117385	-0.038267
C183	C	0.866167	-0.423294	-0.500243
C184	C	1.366167	0.076706	-0.000243
H185	H	0.913883	-0.401098	-0.490407
H186	H	1.413883	0.098902	0.009593
H187	H	0.840514	-0.431739	-0.454008
H188	H	1.340514	0.068261	0.045992
H189	H	0.873061	-0.469938	-0.525566
H190	H	1.373061	0.030062	-0.025566
H191	H	0.836503	-0.542918	-0.376225
H192	H	1.336503	-0.042918	0.123775
O193	O	0.675252	-0.223890	-0.224005
O194	O	1.175252	0.276110	0.275995
C195	C	0.713236	-0.259677	-0.183269
C196	C	1.213236	0.240323	0.316731
H197	H	0.723073	-0.307408	-0.205384
H198	H	1.223073	0.192592	0.294616
H199	H	0.759473	-0.234022	-0.174874
H200	H	1.259473	0.265978	0.325126
H201	H	0.687879	-0.266537	-0.136609
H202	H	1.187879	0.233463	0.363391
H203	H	0.836619	-0.376232	-0.662766
H204	H	1.336619	0.123768	-0.162766
H205	H	0.149904	-0.376431	-0.376209
H206	H	0.649904	0.123569	0.123791
O207	O	0.830383	-0.382571	-1.068703
O208	O	1.330383	0.117429	-0.568703
C209	C	0.844115	-0.445315	-1.052632
C210	C	1.344115	0.054685	-0.552632
H211	H	0.868308	-0.446631	-1.004903
H212	H	1.368308	0.053369	-0.504903
H213	H	0.798669	-0.473541	-1.050365
H214	H	1.298669	0.026459	-0.550365
H215	H	0.876472	-0.466511	-1.089631
H216	H	1.376472	0.033489	-0.589631
H217	H	0.836665	-0.376176	-0.944337
H218	H	1.336665	0.123824	-0.444337
H219	H	0.269168	-0.376423	-0.376199
H220	H	0.769168	0.123577	0.123801
H221	H	0.982817	-0.230102	-0.944413
H222	H	1.482817	0.269898	-0.444413
H223	H	0.982869	-1.063000	-0.230368
H224	H	1.482869	-0.563000	0.269632
O225	O	0.274416	-0.223920	-0.224033
O226	O	0.774416	0.276080	0.275967
C227	C	0.312404	-0.259707	-0.183302
C228	C	0.812404	0.240293	0.316698
H229	H	0.322239	-0.307438	-0.205419
H230	H	0.822239	0.192562	0.294581
H231	H	0.358642	-0.234052	-0.174911
H232	H	0.858642	0.265948	0.325089
H233	H	0.287051	-0.266568	-0.136640
H234	H	0.787051	0.233432	0.363360
O235	O	0.144842	-0.223784	-0.224048
O236	O	0.644842	0.276216	0.275952
C237	C	0.187953	-0.188216	-0.188563
C238	C	0.687953	0.311784	0.311437
H239	H	0.234827	-0.186066	-0.214345
H240	H	0.734827	0.313934	0.285655
H241	H	0.168978	-0.138612	-0.181939
H242	H	0.668978	0.361388	0.318061
H243	H	0.194915	-0.211208	-0.140712
H244	H	0.694915	0.288792	0.359288
H245	H	0.550755	-0.230147	-0.230360
H246	H	1.050755	0.269853	0.269640
H247	H	0.670006	-0.376404	-0.376166
H248	H	1.170006	0.123596	0.123834
O249	O	0.989054	-0.537825	-0.223930
O250	O	1.489054	-0.037825	0.276070
C251	C	1.024612	-0.580932	-0.188427
C252	C	1.524612	-0.080932	0.311573
H253	H	1.026787	-0.627775	-0.214220
H254	H	1.526787	-0.127775	0.285780
H255	H	1.074208	-0.561902	-0.181758
H256	H	1.574208	-0.061902	0.318242
H257	H	1.001594	-0.587974	-0.140597
H258	H	1.501594	-0.087974	0.359403
O259	O	0.989092	-0.667367	-0.224053
O260	O	1.489092	-0.167367	0.275947
C261	C	1.029733	-0.705359	-0.259918
C262	C	1.529733	-0.205359	0.240082
H263	H	1.033612	-0.685508	-0.309495
H264	H	1.533612	-0.185508	0.190505
H265	H	1.078182	-0.706096	-0.237174
H266	H	1.578182	-0.206096	0.262826
H267	H	1.010270	-0.755191	-0.262087
H268	H	1.510270	-0.255191	0.237913
H269	H	0.836548	-0.662189	-0.376238
H270	H	1.336548	-0.162189	0.123762
H271	H	0.982817	-0.943736	-0.230338
H272	H	1.482817	-0.443736	0.269662
H273	H	0.982774	-0.230153	-0.662839
H274	H	1.482774	0.269847	-0.162839
