data_functionalizedCrystal
_audit_creation_method	'MofGen! by Chris Wilmer'
_symmetry_space_group_name_H-M	'P1'
_symmetry_Int_Tables_number	1
_symmetry_cell_setting	triclinic
loop_
_symmetry_equiv_pos_as_xyz
  x,y,z
_cell_length_a	12.645330
_cell_length_b	12.827893
_cell_length_c	12.827885
_cell_angle_alpha	89.980728
_cell_angle_beta	89.971022
_cell_angle_gamma	90.017662
loop_
_atom_site_label
_atom_site_type_symbol
_atom_site_fract_x
_atom_site_fract_y
_atom_site_fract_z
Zn1	Zn	-0.421989	1.597653	-0.590855
Zn2	Zn	0.078011	2.097653	-0.090855
Zn3	Zn	-0.599290	1.597540	-0.416117
Zn4	Zn	-0.099290	2.097540	0.083883
Zn5	Zn	-0.422040	1.422894	-0.416128
Zn6	Zn	0.077960	1.922894	0.083872
Zn7	Zn	-0.599211	1.422873	-0.590817
Zn8	Zn	-0.099211	1.922873	-0.090817
O9	O	-0.510632	1.510240	-0.503479
O10	O	-0.010632	2.010240	-0.003479
O11	O	-0.445520	1.743874	-0.567686
O12	O	0.054480	2.243874	-0.067686
O13	O	-0.575832	1.574335	-0.269883
O14	O	-0.075832	2.074335	0.230117
O15	O	-0.273686	1.446133	-0.439326
O16	O	0.226314	1.946133	0.060674
O17	O	-0.575782	1.743791	-0.439308
O18	O	-0.075782	2.243791	0.060692
O19	O	-0.273648	1.574527	-0.567697
O20	O	0.226352	2.074527	-0.067697
O21	O	-0.445608	1.446023	-0.269891
O22	O	0.054392	1.946023	0.230109
O23	O	-0.445531	1.276655	-0.439290
O24	O	0.054469	1.776655	0.060710
O25	O	-0.575647	1.446096	-0.737058
O26	O	-0.075647	1.946096	-0.237058
O27	O	-0.575697	1.276639	-0.567633
O28	O	-0.075697	1.776639	-0.067633
O29	O	-0.445443	1.574506	-0.737086
O30	O	0.054557	2.074506	-0.237086
O31	O	-0.747626	1.574314	-0.439271
O32	O	-0.247626	2.074314	0.060729
O33	O	-0.747568	1.445986	-0.567623
O34	O	-0.247568	1.945986	-0.067623
C35	C	-0.510612	1.238730	-0.503459
C36	C	-0.010612	1.738730	-0.003459
C37	C	-0.510629	1.122577	-0.503476
C38	C	-0.010629	1.622577	-0.003476
C39	C	-0.786062	1.510164	-0.503465
C40	C	-0.286062	2.010164	-0.003465
C41	C	-0.903892	1.510227	-0.503493
C42	C	-0.403892	2.010227	-0.003493
C43	C	-0.446152	0.950728	-0.440098
C44	C	0.053848	1.450728	0.059902
C45	C	-0.446133	1.070779	-0.440080
C46	C	0.053867	1.570779	0.059920
C47	C	-1.071464	1.429829	-0.584488
C48	C	-0.571464	1.929829	-0.084488
C49	C	-0.948904	1.429418	-0.584228
C50	C	-0.448904	1.929418	-0.084228
C51	C	-0.948494	1.480414	-0.393362
C52	C	-0.448494	1.980414	0.106638
C53	C	-1.071093	1.479923	-0.393854
C54	C	-0.571093	1.979923	0.106146
C55	C	-1.070979	1.620929	-0.531736
C56	C	-0.570979	2.120929	-0.031736
C57	C	-0.948372	1.620251	-0.534144
C58	C	-0.448372	2.120251	-0.034144
C59	C	-0.234127	1.510345	-0.503517
C60	C	0.265873	2.010345	-0.003517
C61	C	-0.116297	1.510390	-0.503533
C62	C	0.383703	2.010390	-0.003533
C63	C	-0.510531	1.510311	-0.776050
C64	C	-0.010531	2.010311	-0.276050
C65	C	-0.510487	1.510341	-0.892203
C66	C	-0.010487	2.010341	-0.392203
C67	C	-0.510654	1.782810	-0.503500
C68	C	-0.010654	2.282810	-0.003500
C69	C	-0.510663	1.898963	-0.503509
C70	C	-0.010663	2.398963	-0.003509
C71	C	-0.574844	1.446853	-1.064018
C72	C	-0.074844	1.946853	-0.564018
C73	C	-0.574890	1.446820	-0.943968
C74	C	-0.074890	1.946820	-0.443968
C75	C	-0.510657	1.510229	-0.231969
C76	C	-0.010657	2.010229	0.268031
C77	C	-0.510402	1.510401	-0.115817
C78	C	-0.010402	2.010401	0.384183
H79	H	-0.390932	0.906169	-0.385828
H80	H	0.109068	1.406169	0.114172
Br81	Br	-1.122377	1.666259	-0.663312
Br82	Br	-0.622377	2.166259	-0.163312
H83	H	-1.102366	1.348392	-0.566042
H84	H	-0.602366	1.848392	-0.066042
Br85	Br	-0.899781	1.657728	-0.669236
Br86	Br	-0.399781	2.157728	-0.169236
H87	H	-0.917885	1.400452	-0.369038
H88	H	-0.417885	1.900452	0.130962
H89	H	-0.390906	1.115295	-0.385788
H90	H	0.109094	1.615295	0.114212
Br91	Br	-0.897284	1.725568	-0.443034
Br92	Br	-0.397284	2.225568	0.056966
H93	H	-0.565865	1.078067	-0.557763
H94	H	-0.065865	1.578067	-0.057763
Br95	Br	-0.602690	0.973220	-0.593984
Br96	Br	-0.102690	1.473220	-0.093984
Br97	Br	-0.418489	1.601038	-1.041608
Br98	Br	0.081511	2.101038	-0.541608
H99	H	-0.918744	1.448070	-0.665889
H100	H	-0.418744	1.948070	-0.165889
H101	H	-0.919671	1.347469	-0.565543
H102	H	-0.419671	1.847469	-0.065543
Br103	Br	-1.120477	1.460624	-0.721049
Br104	Br	-0.620477	1.960624	-0.221049
H105	H	-1.099786	1.399118	-0.369962
H106	H	-0.599786	1.899118	0.130038
H107	H	-1.100754	1.536054	-0.331479
H108	H	-0.600754	2.036054	0.168521
Br109	Br	-1.119323	1.720972	-0.433479
Br110	Br	-0.619323	2.220972	0.066521
Br111	Br	-0.899910	1.575110	-0.290076
Br112	Br	-0.399910	2.075110	0.209924
H113	H	-0.629977	1.392468	-1.108549
H114	H	-0.129977	1.892468	-0.608549
H115	H	-0.630065	1.392418	-0.899423
H116	H	-0.130065	1.892418	-0.399423
H117	H	-0.455317	1.564754	-0.936741
H118	H	0.044683	2.064754	-0.436741
