data_functionalizedCrystal
_audit_creation_method	'MofGen! by Chris Wilmer'
_symmetry_space_group_name_H-M	'P1'
_symmetry_Int_Tables_number	1
_symmetry_cell_setting	triclinic
loop_
_symmetry_equiv_pos_as_xyz
  x,y,z
_cell_length_a	19.805407
_cell_length_b	19.805405
_cell_length_c	19.805399
_cell_angle_alpha	89.973385
_cell_angle_beta	89.980427
_cell_angle_gamma	90.026726
loop_
_atom_site_label
_atom_site_type_symbol
_atom_site_fract_x
_atom_site_fract_y
_atom_site_fract_z
Zn1	Zn	1.034734	-0.269479	-0.382724
Zn2	Zn	1.534734	0.230521	0.117276
Zn3	Zn	1.034648	-0.382667	-0.269538
Zn4	Zn	1.534648	0.117333	0.230462
Zn5	Zn	0.921549	-0.269498	-0.269549
Zn6	Zn	1.421549	0.230502	0.230451
Zn7	Zn	0.921512	-0.382631	-0.382685
Zn8	Zn	1.421512	0.117369	0.117315
O9	O	0.978111	-0.326069	-0.326124
O10	O	1.478111	0.173931	0.173876
O11	O	1.129439	-0.284501	-0.367722
O12	O	1.629439	0.215499	0.132278
O13	O	1.019625	-0.367678	-0.174823
O14	O	1.519625	0.132322	0.325177
O15	O	0.936615	-0.174778	-0.284583
O16	O	1.436615	0.325222	0.215417
O17	O	1.129376	-0.367660	-0.284564
O18	O	1.629376	0.132340	0.215436
O19	O	1.019771	-0.174765	-0.367732
O20	O	1.519771	0.325235	0.132268
O21	O	0.936531	-0.284533	-0.174831
O22	O	1.436531	0.215467	0.325169
O23	O	0.826827	-0.284498	-0.284544
O24	O	1.326827	0.215502	0.215456
O25	O	0.936551	-0.367598	-0.477406
O26	O	1.436551	0.132402	0.022594
O27	O	0.826800	-0.367617	-0.367665
O28	O	1.326800	0.132383	0.132335
O29	O	1.019735	-0.284466	-0.477436
O30	O	1.519735	0.215534	0.022564
O31	O	1.019589	-0.477379	-0.284526
O32	O	1.519589	0.022621	0.215474
O33	O	0.936468	-0.477353	-0.367654
O34	O	1.436468	0.022647	0.132346
C35	C	0.802255	-0.326056	-0.326102
C36	C	1.302255	0.173944	0.173898
C37	C	0.727023	-0.326067	-0.326109
C38	C	1.227023	0.173933	0.173891
C39	C	0.691682	-0.369412	-0.369319
C40	C	1.191682	0.130588	0.130681
C41	C	0.620994	-0.369413	-0.369329
C42	C	1.120994	0.130587	0.130671
C43	C	0.585647	-0.326072	-0.326124
C44	C	1.085647	0.173928	0.173876
C45	C	0.620993	-0.282722	-0.282911
C46	C	1.120993	0.217278	0.217089
C47	C	0.691680	-0.282718	-0.282906
C48	C	1.191680	0.217282	0.217094
C49	C	0.335920	-0.282737	-0.282934
C50	C	0.835920	0.217263	0.217066
C51	C	0.265227	-0.282746	-0.282941
C52	C	0.765227	0.217254	0.217059
C53	C	0.265233	-0.369432	-0.369357
C54	C	0.765233	0.130568	0.130643
C55	C	0.335920	-0.369428	-0.369351
C56	C	0.835920	0.130572	0.130649
C57	C	0.371260	-0.326076	-0.326142
C58	C	0.871260	0.173924	0.173858
C59	C	0.447908	-0.326074	-0.326133
C60	C	0.947908	0.173926	0.173867
C61	C	0.509000	-0.326076	-0.326129
C62	C	1.009000	0.173924	0.173871
C63	C	0.978034	-0.501925	-0.326099
C64	C	1.478034	-0.001925	0.173901
C65	C	0.978063	-0.577157	-0.326112
C66	C	1.478063	-0.077157	0.173888
C67	C	1.021337	-0.612436	-0.369441
C68	C	1.521337	-0.112436	0.130559
C69	C	1.021361	-0.683124	-0.369454
C70	C	1.521361	-0.183124	0.130546
C71	C	0.978114	-0.718532	-0.326133
C72	C	1.478114	-0.218532	0.173867
C73	C	0.934835	-0.683249	-0.282801
C74	C	1.434835	-0.183249	0.217199
C75	C	0.934808	-0.612561	-0.282792
C76	C	1.434808	-0.112561	0.217208
C77	C	0.934944	-0.968322	-0.282836
C78	C	1.434944	-0.468322	0.217164
C79	C	0.934976	-1.039014	-0.282846
C80	C	1.434976	-0.539014	0.217154
C81	C	1.021497	-1.038884	-0.369497
C82	C	1.521497	-0.538884	0.130503
C83	C	1.021470	-0.968197	-0.369489
C84	C	1.521470	-0.468197	0.130511
C85	C	0.978189	-0.932920	-0.326160
C86	C	1.478189	-0.432920	0.173840
C87	C	0.978162	-0.856271	-0.326147
C88	C	1.478162	-0.356271	0.173853
C89	C	0.978144	-0.795179	-0.326141
C90	C	1.478144	-0.295179	0.173859
C91	C	1.154653	-0.326082	-0.326146
C92	C	1.654653	0.173918	0.173854
C93	C	1.229885	-0.326088	-0.326156
C94	C	1.729885	0.173912	0.173844
C95	C	0.978149	-0.326026	-0.502667
C96	C	1.478149	0.173974	-0.002667
C97	C	0.978165	-0.326008	-0.577899
C98	C	1.478165	0.173992	-0.077899
C99	C	0.978207	-0.149526	-0.326163
C100	C	1.478207	0.350474	0.173837
C101	C	0.978248	-0.074294	-0.326180
C102	C	1.478248	0.425706	0.173820
C103	C	1.021480	-0.282719	-0.613259
C104	C	1.521480	0.217281	-0.113259
C105	C	1.021487	-0.282699	-0.683948
C106	C	1.521487	0.217301	-0.183948
C107	C	0.978182	-0.325973	-0.719274
C108	C	1.478182	0.174027	-0.219274
C109	C	0.934862	-0.369264	-0.683909
C110	C	1.434862	0.130736	-0.183909
C111	C	0.934852	-0.369279	-0.613222
C112	C	1.434852	0.130721	-0.113222
C113	C	0.934900	-0.369201	-0.968982
C114	C	1.434900	0.130799	-0.468982
C115	C	0.934915	-0.369183	-1.039675
C116	C	1.434915	0.130817	-0.539675
C117	C	1.021535	-0.282620	-1.039708
C118	C	1.521535	0.217380	-0.539708
C119	C	1.021525	-0.282636	-0.969021
C120	C	1.521525	0.217364	-0.469021
C121	C	0.978203	-0.325924	-0.933662
C122	C	1.478203	0.174076	-0.433662
C123	C	0.978195	-0.325944	-0.857013
C124	C	1.478195	0.174056	-0.357013
C125	C	0.978193	-0.325957	-0.795922
C126	C	1.478193	0.174043	-0.295922
C127	C	0.978112	-0.326062	-0.150268
C128	C	1.478112	0.173938	0.349732
C129	C	0.978227	-0.325890	-0.075036
C130	C	1.478227	0.174110	0.424964
H131	H	0.592222	-0.404709	-0.404515
H132	H	1.092222	0.095291	0.095485
H133	H	1.056556	-0.583611	-0.404715
H134	H	1.556556	-0.083611	0.095285
H135	H	1.056605	-0.711845	-0.404732
H136	H	1.556605	-0.211845	0.095268
C137	C	1.136171	-0.249655	-1.061506
C138	C	1.636171	0.250345	-0.561506
C139	C	1.069151	-0.235030	-1.078578
C140	C	1.569151	0.264970	-0.578578
H141	H	1.165565	-0.220279	-1.085505
H142	H	1.665565	0.279721	-0.585505
H143	H	1.142358	-0.243471	-1.014357
H144	H	1.642358	0.256529	-0.514357
H145	H	1.146042	-0.295131	-1.073087
H146	H	1.646042	0.204869	-0.573087
H147	H	1.059277	-0.189555	-1.066992
H148	H	1.559277	0.310445	-0.566992
H149	H	1.062960	-0.241208	-1.125737
H150	H	1.562960	0.258792	-0.625737
C151	C	0.328803	-0.197049	-0.197516
C152	C	0.828803	0.302951	0.302484
C153	C	0.374759	-0.235086	-0.235437
C154	C	0.874759	0.264914	0.264563
H155	H	0.352785	-0.167633	-0.168190
H156	H	0.852785	0.332367	0.331810
H157	H	0.301255	-0.171206	-0.227056
H158	H	0.801255	0.328794	0.272944
H159	H	0.301212	-0.226516	-0.171574
H160	H	0.801212	0.273484	0.328426
H161	H	0.402347	-0.205620	-0.261382
H162	H	0.902347	0.294380	0.238618
H163	H	0.402319	-0.260931	-0.205893
H164	H	0.902319	0.239069	0.294107
C165	C	0.820345	-0.946696	-0.249740
C166	C	1.320345	-0.446696	0.250260
C167	C	0.887377	-0.929555	-0.235198
C168	C	1.387377	-0.429555	0.264802
H169	H	0.790980	-0.922765	-0.220324
H170	H	1.290980	-0.422765	0.279676
H171	H	0.810406	-0.935085	-0.295198
H172	H	1.310406	-0.435085	0.204802
H173	H	0.814186	-0.993865	-0.243550
H174	H	1.314186	-0.493865	0.256450
H175	H	0.893537	-0.882387	-0.241394
H176	H	1.393537	-0.382387	0.258606
H177	H	0.897320	-0.941163	-0.189730
H178	H	1.397320	-0.441163	0.310270
H179	H	0.899635	-0.404459	-0.940201
H180	H	1.399635	0.095541	-0.440201
C181	C	0.896465	-0.791663	-0.244331
C182	C	1.396465	-0.291663	0.255669
C183	C	0.887299	-0.722168	-0.235179
C184	C	1.387299	-0.222168	0.264821
H185	H	0.867121	-0.815688	-0.214925
H186	H	1.367121	-0.315688	0.285075
H187	H	0.886533	-0.803228	-0.289794
H188	H	1.386533	-0.303228	0.210206
H189	H	0.941955	-0.803205	-0.234470
H190	H	1.441955	-0.303205	0.265530
H191	H	0.841810	-0.710625	-0.245045
H192	H	1.341810	-0.210625	0.254955
H193	H	0.897226	-0.710599	-0.189705
H194	H	1.397226	-0.210599	0.310295
H195	H	1.056746	-0.247482	-0.584501
H196	H	1.556746	0.252518	-0.084501
H197	H	1.056737	-1.067616	-0.404780
H198	H	1.556737	-0.567616	0.095220
C199	C	0.849274	-0.454744	-1.032545
C200	C	1.349274	0.045256	-0.532545
C201	C	0.887305	-0.416748	-1.078507
C202	C	1.387305	0.083252	-0.578507
H203	H	0.819882	-0.484103	-1.056521
H204	H	1.319882	0.015897	-0.556521
H205	H	0.878740	-0.480647	-1.004975
H206	H	1.378740	0.019353	-0.504975
H207	H	0.823399	-0.425249	-1.004976
H208	H	1.323399	0.074751	-0.504976
H209	H	0.913184	-0.446243	-1.106074
H210	H	1.413184	0.053757	-0.606074
H211	H	0.857835	-0.390843	-1.106089
H212	H	1.357835	0.109157	-0.606089
C213	C	0.156877	-0.407930	-0.407752
C214	C	0.656877	0.092070	0.092248
C215	C	0.226386	-0.417080	-0.416863
C216	C	0.726386	0.082920	0.083137
H217	H	0.132897	-0.437344	-0.437081
H218	H	0.632897	0.062656	0.062919
H219	H	0.145270	-0.417778	-0.362264
H220	H	0.645270	0.082222	0.137736
H221	H	0.145323	-0.362465	-0.417742
H222	H	0.645323	0.137535	0.082258
H223	H	0.237941	-0.462544	-0.406867
H224	H	0.737941	0.037456	0.093133
H225	H	0.237998	-0.407237	-0.462361
H226	H	0.737998	0.092763	0.037639
C227	C	0.684579	-0.197040	-0.197475
C228	C	1.184579	0.302960	0.302525
C229	C	0.730529	-0.235077	-0.235401
C230	C	1.230529	0.264923	0.264599
H231	H	0.708564	-0.167631	-0.168145
H232	H	1.208564	0.332369	0.331855
H233	H	0.657034	-0.171188	-0.227012
H234	H	1.157034	0.328812	0.272988
H235	H	0.656983	-0.226506	-0.171538
H236	H	1.156983	0.273494	0.328462
H237	H	0.758122	-0.205611	-0.261341
H238	H	1.258122	0.294389	0.238659
H239	H	0.758085	-0.260931	-0.205860
H240	H	1.258085	0.239069	0.294140
C241	C	1.106992	-0.975171	-0.455150
C242	C	1.606992	-0.475171	0.044850
C243	C	1.069006	-0.929277	-0.417111
C244	C	1.569006	-0.429277	0.082889
H245	H	1.136334	-0.951143	-0.484554
H246	H	1.636334	-0.451143	0.015446
H247	H	1.132913	-1.002734	-0.425689
H248	H	1.632913	-0.502734	0.074311
H249	H	1.077490	-1.002754	-0.481013
H250	H	1.577490	-0.502754	0.018987
H251	H	1.098508	-0.901697	-0.391244
H252	H	1.598508	-0.401697	0.108756
H253	H	1.043083	-0.901703	-0.446575
H254	H	1.543083	-0.401703	0.053425
C255	C	0.800041	-0.407902	-0.407682
C256	C	1.300041	0.092098	0.092318
C257	C	0.730533	-0.417055	-0.416812
C258	C	1.230533	0.082945	0.083188
H259	H	0.824023	-0.437318	-0.437001
H260	H	1.324023	0.062682	0.062999
H261	H	0.811645	-0.362443	-0.417668
H262	H	1.311645	0.137557	0.082332
H263	H	0.811596	-0.417750	-0.362184
H264	H	1.311596	0.082250	0.137816
H265	H	0.718977	-0.407202	-0.462308
H266	H	1.218977	0.092798	0.037692
H267	H	0.718924	-0.462524	-0.406830
H268	H	1.218924	0.037476	0.093170
C269	C	0.328824	-0.455111	-0.454780
C270	C	0.828824	0.044889	0.045220
C271	C	0.374772	-0.417067	-0.416846
C272	C	0.874772	0.082933	0.083154
H273	H	0.352811	-0.484517	-0.484105
H274	H	0.852811	0.015483	0.015895
H275	H	0.301234	-0.480966	-0.425247
H276	H	0.801234	0.019034	0.074753
H277	H	0.301274	-0.425649	-0.480721
H278	H	0.801274	0.074351	0.019279
H279	H	0.402320	-0.446529	-0.390900
H280	H	0.902320	0.053471	0.109100
H281	H	0.402375	-0.391210	-0.446382
H282	H	0.902375	0.108790	0.053618
C283	C	0.185711	-0.273231	-0.191907
C284	C	0.685711	0.226769	0.308093
C285	C	0.226379	-0.235103	-0.235440
C286	C	0.726379	0.264897	0.264560
H287	H	0.161733	-0.243822	-0.162578
H288	H	0.661733	0.256178	0.337422
H289	H	0.154547	-0.299040	-0.217641
H290	H	0.654547	0.200960	0.282359
H291	H	0.213277	-0.302683	-0.165970
H292	H	0.713277	0.197317	0.334030
H293	H	0.198812	-0.205655	-0.261380
H294	H	0.698812	0.294345	0.238620
H295	H	0.257546	-0.209284	-0.209703
H296	H	0.757546	0.290716	0.290297
H297	H	0.592208	-0.247430	-0.247736
H298	H	1.092208	0.252570	0.252264
H299	H	1.056760	-0.247450	-0.712735
H300	H	1.556760	0.252550	-0.212735
H301	H	0.899756	-1.067841	-0.247568
H302	H	1.399756	-0.567841	0.252432
C303	C	0.849287	-0.619785	-0.197138
C304	C	1.349287	-0.119785	0.302862
C305	C	0.887240	-0.573780	-0.235163
C306	C	1.387240	-0.073780	0.264837
H307	H	0.819920	-0.595842	-0.167733
H308	H	1.319920	-0.095842	0.332267
H309	H	0.823394	-0.647361	-0.226608
H310	H	1.323394	-0.147361	0.273392
H311	H	0.878809	-0.647345	-0.171277
H312	H	1.378809	-0.147345	0.328723
H313	H	0.857717	-0.546224	-0.261028
H314	H	1.357717	-0.046224	0.238972
H315	H	0.913134	-0.546193	-0.205689
H316	H	1.413134	-0.046193	0.294311
H317	H	1.056791	-0.247400	-0.940261
H318	H	1.556791	0.252600	-0.440261
H319	H	0.899600	-0.404495	-0.712678
H320	H	1.399600	0.095505	-0.212678
C321	C	0.849249	-0.454863	-0.620284
C322	C	1.349249	0.045137	-0.120284
C323	C	0.887251	-0.416876	-0.574351
C324	C	1.387251	0.083124	-0.074351
H325	H	0.819865	-0.484251	-0.596286
H326	H	1.319865	0.015749	-0.096286
H327	H	0.823371	-0.425368	-0.647851
H328	H	1.323371	0.074632	-0.147851
H329	H	0.878739	-0.480740	-0.647860
H330	H	1.378739	0.019260	-0.147860
H331	H	0.857761	-0.390995	-0.546778
H332	H	1.357761	0.109005	-0.046778
H333	H	0.913130	-0.446375	-0.546773
H334	H	1.413130	0.053625	-0.046773
