data_functionalizedCrystal
_audit_creation_method	'MofGen! by Chris Wilmer'
_symmetry_space_group_name_H-M	'P1'
_symmetry_Int_Tables_number	1
_symmetry_cell_setting	triclinic
loop_
_symmetry_equiv_pos_as_xyz
  x,y,z
_cell_length_a	25.639239
_cell_length_b	12.827893
_cell_length_c	12.827885
_cell_angle_alpha	90.021189
_cell_angle_beta	89.964018
_cell_angle_gamma	89.963105
loop_
_atom_site_label
_atom_site_type_symbol
_atom_site_fract_x
_atom_site_fract_y
_atom_site_fract_z
Zn1	Zn	-0.208150	-1.597500	-0.590857
Zn2	Zn	-0.295596	-1.597323	-0.416098
Zn3	Zn	-0.208173	-1.422742	-0.416125
Zn4	Zn	-0.295554	-1.422656	-0.590793
O5	O	-0.251868	-1.510055	-0.503468
O6	O	-0.219758	-1.743713	-0.567691
O7	O	-0.284026	-1.574127	-0.269866
O8	O	-0.135005	-1.446034	-0.439341
O9	O	-0.284004	-1.743583	-0.439296
O10	O	-0.134988	-1.574428	-0.567716
O11	O	-0.219797	-1.445862	-0.269885
O12	O	-0.219757	-1.276494	-0.439279
O13	O	-0.283933	-1.445888	-0.737037
O14	O	-0.283955	-1.276431	-0.567607
O15	O	-0.219718	-1.574345	-0.737085
O16	O	-0.368755	-1.574044	-0.439234
O17	O	-0.368725	-1.445716	-0.567581
C18	C	-0.251854	-1.238546	-0.503439
C19	C	-0.251861	-1.122392	-0.503452
C20	C	-0.220125	-1.070672	-0.567083
C21	C	-0.220131	-0.950621	-0.567097
C22	C	-0.387711	-1.509880	-0.503420
C23	C	-0.445825	-1.509900	-0.503435
C24	C	-0.806191	-1.577050	-0.436752
C25	C	-0.860796	-1.577090	-0.436766
O26	O	-0.889035	-1.634001	-0.380017
N27	N	-0.888107	-1.510239	-0.503537
C28	C	-0.860812	-1.443350	-0.570307
O29	O	-0.889057	-1.386493	-0.627104
C30	C	-0.806209	-1.443316	-0.570298
C31	C	-0.778900	-1.510164	-0.503514
C32	C	-0.778882	-1.643893	-0.369975
C33	C	-0.724282	-1.643851	-0.369959
C34	C	-0.696990	-1.576966	-0.436722
C35	C	-0.724299	-1.510122	-0.503499
C36	C	-0.778914	-1.376433	-0.637072
C37	C	-0.724307	-1.376405	-0.637057
C38	C	-0.696998	-1.443253	-0.570273
C39	C	-0.642407	-1.443194	-0.570246
N40	N	-0.615095	-1.510045	-0.503474
C41	C	-0.642387	-1.576931	-0.436712
C42	C	-0.975483	-1.443429	-0.570323
C43	C	-1.030085	-1.443458	-0.570328
C44	C	-1.030065	-1.577199	-0.436788
C45	C	-0.975461	-1.577165	-0.436779
C46	C	-0.948171	-1.510280	-0.503551
C47	C	-0.527722	-1.576837	-0.436685
C48	C	-0.473116	-1.576786	-0.436673
C49	C	-0.473141	-1.443049	-0.570216
C50	C	-0.527742	-1.443095	-0.570225
C51	C	-0.555031	-1.509998	-0.503456
O52	O	-0.614133	-1.386315	-0.626969
O53	O	-0.614135	-1.633789	-0.379935
C54	C	-0.115495	-1.510260	-0.503539
C55	C	-0.057381	-1.510348	-0.503569
C56	C	-0.251818	-1.510127	-0.776039
C57	C	-0.251797	-1.510157	-0.892192
C58	C	-0.251879	-0.782626	-0.503490
C59	C	-0.251872	-0.898779	-0.503477
C60	C	-0.220015	-1.573729	-0.944000
C61	C	-0.219992	-1.573761	-1.064050
C62	C	-0.251881	-1.510045	-0.231958
C63	C	-0.251755	-1.510217	-0.115806
H64	H	-0.279034	-1.077796	-0.448983
H65	H	-0.279046	-0.943251	-0.449003
H66	H	-0.450883	-1.631221	-0.382286
H67	H	-0.549934	-1.631318	-0.382317
H68	H	-0.192963	-0.906143	-0.621577
H69	H	-0.702050	-1.698288	-0.315582
H70	H	-1.052315	-1.389013	-0.624700
H71	H	-0.278986	-1.455748	-0.936714
H72	H	-0.192949	-1.115269	-0.621545
H73	H	-0.801097	-1.698366	-0.315608
H74	H	-0.278968	-1.455792	-1.071259
H75	H	-0.953230	-1.631599	-0.382398
H76	H	-0.549978	-1.388665	-0.624609
H77	H	-1.052295	-1.631665	-0.382430
H78	H	-0.953265	-1.388955	-0.624695
H79	H	-0.801140	-1.321993	-0.691449
H80	H	-0.702090	-1.321941	-0.691435
H81	H	-0.450912	-1.388588	-0.624570
H82	H	-0.192820	-1.628127	-0.899478
H83	H	-0.192784	-1.628191	-1.108604
