data_functionalizedCrystal
_audit_creation_method	'MofGen! by Chris Wilmer'
_symmetry_space_group_name_H-M	'P1'
_symmetry_Int_Tables_number	1
_symmetry_cell_setting	triclinic
loop_
_symmetry_equiv_pos_as_xyz
  x,y,z
_cell_length_a	14.519709
_cell_length_b	7.681187
_cell_length_c	14.519709
_cell_angle_alpha	84.259711
_cell_angle_beta	83.680145
_cell_angle_gamma	95.736717
loop_
_atom_site_label
_atom_site_type_symbol
_atom_site_fract_x
_atom_site_fract_y
_atom_site_fract_z
O1	O	1.232558	0.146207	0.112191
O2	O	1.482558	0.396207	0.362191
O3	O	1.732558	0.646207	0.612191
O4	O	1.982558	0.896207	0.862191
O5	O	0.964084	0.146261	0.126424
O6	O	1.214084	0.396261	0.376424
O7	O	1.464084	0.646261	0.626424
O8	O	1.714084	0.896261	0.876424
O9	O	1.105438	0.146217	-0.014930
O10	O	1.355438	0.396217	0.235070
O11	O	1.605438	0.646217	0.485070
O12	O	1.855438	0.896217	0.735070
O13	O	1.091204	0.146251	0.253545
O14	O	1.341204	0.396251	0.503545
O15	O	1.591204	0.646251	0.753545
O16	O	1.841204	0.896251	1.003545
O17	O	1.088018	-0.146648	0.002493
O18	O	1.338018	0.103352	0.252493
O19	O	1.588018	0.353352	0.502493
O20	O	1.838018	0.603352	0.752493
O21	O	0.946664	-0.146604	0.143847
O22	O	1.196664	0.103396	0.393847
O23	O	1.446664	0.353396	0.643847
O24	O	1.696664	0.603396	0.893847
O25	O	1.215138	-0.146658	0.129614
O26	O	1.465138	0.103342	0.379614
O27	O	1.715138	0.353342	0.629614
O28	O	1.965138	0.603342	0.879614
Zn29	Zn	1.078135	-0.193129	0.139497
Zn30	Zn	1.328135	0.056871	0.389497
Zn31	Zn	1.578135	0.306871	0.639497
Zn32	Zn	1.828135	0.556871	0.889497
Zn33	Zn	1.101087	0.192733	0.116541
Zn34	Zn	1.351087	0.442733	0.366541
Zn35	Zn	1.601087	0.692733	0.616541
Zn36	Zn	1.851087	0.942733	0.866541
O37	O	1.073784	-0.146614	0.270968
O38	O	1.323784	0.103386	0.520968
O39	O	1.573784	0.353386	0.770968
O40	O	1.823784	0.603386	1.020968
C41	C	0.921015	-0.000164	0.134472
C42	C	1.171015	0.249836	0.384472
C43	C	1.421015	0.499836	0.634472
C44	C	1.671015	0.749836	0.884472
C45	C	0.818635	-0.000144	0.132482
C46	C	1.068635	0.249856	0.382482
C47	C	1.318635	0.499856	0.632482
C48	C	1.568635	0.749856	0.882482
N49	N	1.062478	-0.456470	0.155163
N50	N	1.312478	-0.206470	0.405163
N51	N	1.562478	0.043530	0.655163
N52	N	1.812478	0.293530	0.905163
C53	C	1.096065	-0.000216	-0.040578
C54	C	1.346065	0.249784	0.209422
C55	C	1.596065	0.499784	0.459422
C56	C	1.846065	0.749784	0.709422
C57	C	1.094077	-0.000216	-0.142959
C58	C	1.344077	0.249784	0.107041
C59	C	1.594077	0.499784	0.357041
C60	C	1.844077	0.749784	0.607041
C61	C	0.443734	-0.000225	0.125168
C62	C	0.693734	0.249775	0.375168
C63	C	0.943734	0.499775	0.625168
C64	C	1.193734	0.749775	0.875168
C65	C	0.548044	-0.000202	0.127199
C66	C	0.798044	0.249798	0.377199
C67	C	1.048044	0.499798	0.627199
C68	C	1.298044	0.749798	0.877199
C69	C	0.631181	-0.000183	0.128825
C70	C	0.881181	0.249817	0.378825
C71	C	1.131181	0.499817	0.628825
C72	C	1.381181	0.749817	0.878825
C73	C	0.735497	-0.000163	0.130857
C74	C	0.985497	0.249837	0.380857
C75	C	1.235497	0.499837	0.630857
C76	C	1.485497	0.749837	0.880857
C77	C	1.258208	-0.000228	0.121566
C78	C	1.508208	0.249772	0.371566
C79	C	1.758208	0.499772	0.621566
C80	C	2.008208	0.749772	0.871566
C81	C	1.360588	-0.000237	0.123555
C82	C	1.610588	0.249763	0.373555
C83	C	1.860588	0.499763	0.623555
C84	C	2.110588	0.749763	0.873555
N85	N	1.116752	0.456073	0.100868
N86	N	1.366752	0.706073	0.350868
N87	N	1.616752	0.956073	0.600868
N88	N	1.866752	1.206073	0.850868
C89	C	1.086760	-0.000169	-0.517858
C90	C	1.336760	0.249831	-0.267858
C91	C	1.586760	0.499831	-0.017858
C92	C	1.836760	0.749831	0.232142
C93	C	1.088792	-0.000183	-0.413549
C94	C	1.338792	0.249817	-0.163549
C95	C	1.588792	0.499817	0.086451
C96	C	1.838792	0.749817	0.336451
C97	C	1.090418	-0.000194	-0.330412
C98	C	1.340418	0.249806	-0.080412
C99	C	1.590418	0.499806	0.169588
C100	C	1.840418	0.749806	0.419588
C101	C	1.092450	-0.000205	-0.226097
C102	C	1.342450	0.249795	0.023903
C103	C	1.592450	0.499795	0.273903
C104	C	1.842450	0.749795	0.523903
C105	C	1.083158	-0.000177	0.296616
C106	C	1.333158	0.249823	0.546616
C107	C	1.583158	0.499823	0.796616
C108	C	1.833158	0.749823	1.046616
C109	C	1.085147	-0.000165	0.398997
C110	C	1.335147	0.249835	0.648997
C111	C	1.585147	0.499835	0.898997
C112	C	1.835147	0.749835	1.148997
H113	H	1.172129	-0.468698	0.045450
H114	H	1.422129	-0.218698	0.295450
H115	H	1.672129	0.031302	0.545450
H116	H	1.922129	0.281302	0.795450
H117	H	1.007098	-0.531689	0.210571
H118	H	1.257098	-0.281689	0.460571
H119	H	1.507098	-0.031689	0.710571
H120	H	1.757098	0.218311	0.960571
