data_functionalizedCrystal
_audit_creation_method	'MofGen! by Chris Wilmer'
_symmetry_space_group_name_H-M	'P1'
_symmetry_Int_Tables_number	1
_symmetry_cell_setting	triclinic
loop_
_symmetry_equiv_pos_as_xyz
  x,y,z
_cell_length_a	19.121275
_cell_length_b	25.639240
_cell_length_c	19.121605
_cell_angle_alpha	92.475404
_cell_angle_beta	90.117648
_cell_angle_gamma	87.594745
loop_
_atom_site_label
_atom_site_type_symbol
_atom_site_fract_x
_atom_site_fract_y
_atom_site_fract_z
Zn1	Zn	1.088573	-0.231583	0.350600
Zn2	Zn	1.588573	0.268417	0.850600
Zn3	Zn	1.083476	-0.322579	0.233347
Zn4	Zn	1.583476	0.177421	0.733347
Zn5	Zn	0.966348	-0.231281	0.238381
Zn6	Zn	1.466348	0.268719	0.738381
Zn7	Zn	0.971290	-0.315108	0.355550
Zn8	Zn	1.471290	0.184892	0.855550
O9	O	1.027422	-0.275138	0.294470
O10	O	1.527422	0.224862	0.794470
O11	O	1.185999	-0.246906	0.330868
O12	O	1.685999	0.253094	0.830868
O13	O	1.063737	-0.313469	0.135909
O14	O	1.563737	0.186531	0.635909
O15	O	0.982627	-0.158157	0.253302
O16	O	1.482627	0.341843	0.753302
O17	O	1.182254	-0.313761	0.244723
O18	O	1.682254	0.186239	0.744723
O19	O	1.072425	-0.158378	0.335749
O20	O	1.572425	0.341622	0.835749
O21	O	0.977683	-0.246393	0.139607
O22	O	1.477683	0.253607	0.639607
O23	O	0.868901	-0.239149	0.258102
O24	O	1.368901	0.260851	0.758102
O25	O	0.991049	-0.301028	0.453000
O26	O	1.491049	0.198972	0.953000
O27	O	0.872532	-0.300736	0.344186
O28	O	1.372532	0.199264	0.844186
O29	O	1.077217	-0.239662	0.449363
O30	O	1.577217	0.260338	0.949363
O31	O	1.068529	-0.394752	0.249523
O32	O	1.568529	0.105248	0.749523
O33	O	0.986106	-0.389264	0.339305
O34	O	1.486106	0.110736	0.839305
C35	C	0.845280	-0.269100	0.302228
C36	C	1.345280	0.230900	0.802228
C37	C	0.767360	-0.266528	0.305563
C38	C	1.267360	0.233472	0.805563
C39	C	1.027320	-0.410979	0.294419
C40	C	1.527320	0.089021	0.794419
C41	C	1.027342	-0.469094	0.294418
C42	C	1.527342	0.030906	0.794418
C43	C	0.728797	-0.300076	0.262212
C44	C	1.228797	0.199924	0.762212
C45	C	0.655583	-0.297660	0.265356
C46	C	1.155583	0.202340	0.765356
C47	C	0.620933	-0.261694	0.311847
C48	C	1.120933	0.238306	0.811847
C49	C	0.659501	-0.228145	0.355202
C50	C	1.159501	0.271855	0.855202
C51	C	0.732714	-0.230564	0.352062
C52	C	1.232714	0.269436	0.852062
C53	C	0.399976	-0.252654	0.323579
C54	C	0.899976	0.247346	0.823579
C55	C	0.326758	-0.250236	0.326714
C56	C	0.826758	0.249764	0.826714
C57	C	0.322845	-0.319752	0.236868
C58	C	0.822845	0.180248	0.736868
C59	C	0.396059	-0.322166	0.233729
C60	C	0.896059	0.177834	0.733729
C61	C	0.434621	-0.288619	0.277087
C62	C	0.934621	0.211381	0.777087
C63	C	0.546097	-0.259222	0.315059
C64	C	1.046097	0.240778	0.815059
C65	C	0.509456	-0.291093	0.273878
C66	C	1.009456	0.208907	0.773878
C67	C	1.074205	-0.829532	0.337480
C68	C	1.574205	-0.329532	0.837480
C69	C	1.074227	-0.884137	0.337493
C70	C	1.574227	-0.384137	0.837493
O71	O	1.113952	-0.912436	0.374054
O72	O	1.613952	-0.412436	0.874054
N73	N	1.027522	-0.911378	0.294533
N74	N	1.527522	-0.411378	0.794533
C75	C	0.980788	-0.884011	0.251563
C76	C	1.480788	-0.384011	0.751563
O77	O	0.941063	-0.912196	0.215024
O78	O	1.441063	-0.412196	0.715024
C79	C	0.980764	-0.829408	0.251553
C80	C	1.480764	-0.329408	0.751553
C81	C	1.027476	-0.802170	0.294511
C82	C	1.527476	-0.302170	0.794511
C83	C	1.120914	-0.802295	0.380434
C84	C	1.620914	-0.302295	0.880434
C85	C	1.120893	-0.747694	0.380420
C86	C	1.620893	-0.247694	0.880420
C87	C	1.074164	-0.720331	0.337451
C88	C	1.574164	-0.220331	0.837451
C89	C	1.027456	-0.747569	0.294496
C90	C	1.527456	-0.247569	0.794496
C91	C	0.934027	-0.802042	0.208587
C92	C	1.434027	-0.302042	0.708587
C93	C	0.934006	-0.747434	0.208582
C94	C	1.434006	-0.247434	0.708582
C95	C	0.980719	-0.720196	0.251539
C96	C	1.480719	-0.220196	0.751539
C97	C	0.980706	-0.665605	0.251513
C98	C	1.480706	-0.165605	0.751513
N99	N	1.027411	-0.638364	0.294473
N100	N	1.527411	-0.138364	0.794473
C101	C	1.074140	-0.665727	0.337442
C102	C	1.574140	-0.165727	0.837442
C103	C	0.980841	-0.998683	0.251586
C104	C	1.480841	-0.498683	0.751586
C105	C	0.980868	-1.053286	0.251591
C106	C	1.480868	-0.553286	0.751591
C107	C	1.074306	-1.053408	0.337523
C108	C	1.574306	-0.553408	0.837523
C109	C	1.074282	-0.998804	0.337514
C110	C	1.574282	-0.498804	0.837514
C111	C	1.027546	-0.971442	0.294546
C112	C	1.527546	-0.471442	0.794546
C113	C	1.074094	-0.551062	0.337407
C114	C	1.574094	-0.051062	0.837407
C115	C	1.074071	-0.496456	0.337387
C116	C	1.574071	0.003544	0.837387
C117	C	0.980631	-0.496339	0.251458
C118	C	1.480631	0.003661	0.751458
C119	C	0.980655	-0.550940	0.251476
C120	C	1.480655	-0.050940	0.751476
C121	C	1.027390	-0.578300	0.294456
C122	C	1.527390	-0.078300	0.794456
O123	O	0.941000	-0.637272	0.214972
O124	O	1.441000	-0.137272	0.714972
O125	O	1.113852	-0.637536	0.373981
O126	O	1.613852	-0.137536	0.873981
C127	C	1.210274	-0.281200	0.286682
C128	C	1.710274	0.218800	0.786682
C129	C	1.288195	-0.283783	0.283363
C130	C	1.788195	0.216217	0.783363
C131	C	1.035253	-0.269545	0.477331
C132	C	1.535253	0.230455	0.977331
C133	C	1.038591	-0.267162	0.555255
C134	C	1.538591	0.232838	1.055255
C135	C	1.027543	-0.138767	0.294535
C136	C	1.527543	0.361233	0.794535
C137	C	1.027595	-0.080653	0.294563
C138	C	1.527595	0.419347	0.794563
C139	C	1.019661	-0.280672	0.112318
C140	C	1.519661	0.219328	0.612318
C141	C	1.016459	-0.282913	0.034389
C142	C	1.516459	0.217087	0.534389
C143	C	1.059752	-0.252084	0.995884
C144	C	1.559752	0.247916	1.495884
C145	C	1.056612	-0.254326	0.922666
C146	C	1.556612	0.245674	1.422666
C147	C	1.010175	-0.287393	0.887954
C148	C	1.510175	0.212607	1.387954
C149	C	0.966881	-0.318225	0.926464
C150	C	1.466881	0.181775	1.426464
C151	C	0.970025	-0.315986	0.999680
C152	C	1.470025	0.184014	1.499680
C153	C	0.998441	-0.295755	0.666982
C154	C	1.498441	0.204245	1.166982
C155	C	0.995298	-0.297991	0.593760
C156	C	1.495298	0.202009	1.093760
C157	C	1.085030	-0.234091	0.589967
C158	C	1.585030	0.265909	1.089967
C159	C	1.088167	-0.231853	0.663185
C160	C	1.588167	0.268147	1.163185
C161	C	1.044876	-0.262687	0.701689
C162	C	1.544876	0.237313	1.201689
C163	C	1.006963	-0.289684	0.813113
C164	C	1.506963	0.210316	1.313113
C165	C	1.048092	-0.260398	0.776528
C166	C	1.548092	0.239602	1.276528
H167	H	0.757003	-0.329362	0.224351
H168	H	1.257003	0.170638	0.724351
H169	H	0.631284	-0.198862	0.393059
H170	H	1.131284	0.301138	0.893059
H171	H	0.969153	-0.316607	0.784843
H172	H	1.469153	0.183393	1.284843
H173	H	1.158929	-0.725520	0.415401
H174	H	1.658929	-0.225520	0.915401
Cl175	Cl	0.908505	-0.359798	0.882825
Cl176	Cl	1.408505	0.140202	1.382825
H177	H	0.291440	-0.347065	0.201569
H178	H	0.791440	0.152935	0.701569
Cl179	Cl	0.944020	-0.334521	0.715376
Cl180	Cl	1.444020	0.165479	1.215376
Cl181	Cl	0.915600	-0.354745	1.048086
Cl182	Cl	1.415600	0.145255	1.548086
Cl183	Cl	1.132848	-0.585449	0.391438
Cl184	Cl	1.632848	-0.085449	0.891438
Cl185	Cl	0.936918	-0.339566	0.550123
Cl186	Cl	1.436918	0.160434	1.050123
Cl187	Cl	1.106470	-0.218831	0.820167
Cl188	Cl	1.606470	0.281169	1.320167
Cl189	Cl	1.146586	-0.190311	0.706816
Cl190	Cl	1.646586	0.309689	1.206816
Cl191	Cl	1.118125	-0.210505	1.039515
Cl192	Cl	1.618125	0.289495	1.539515
H193	H	0.624188	-0.324978	0.230054
H194	H	1.124188	0.175022	0.730054
Cl195	Cl	1.111039	-0.215568	0.874263
Cl196	Cl	1.611039	0.284432	1.374263
Cl197	Cl	0.439613	-0.367367	0.175259
Cl198	Cl	0.939613	0.132633	0.675259
H199	H	0.764111	-0.203245	0.387362
H200	H	1.264111	0.296755	0.887362
Cl201	Cl	0.283199	-0.205015	0.385161
Cl202	Cl	0.783199	0.294985	0.885161
H203	H	0.537671	-0.320379	0.236028
H204	H	1.037671	0.179621	0.736028
H205	H	0.431365	-0.225338	0.358885
H206	H	0.931365	0.274662	0.858885
Cl207	Cl	0.502531	-0.214009	0.373505
Cl208	Cl	1.002531	0.285991	0.873505
Cl209	Cl	1.132801	-0.462218	0.391394
Cl210	Cl	1.632801	0.037782	0.891394
Cl211	Cl	1.139446	-0.195328	0.541559
Cl212	Cl	1.639446	0.304672	1.041559
Cl213	Cl	1.133051	-1.087817	0.391543
Cl214	Cl	1.633051	-0.587817	0.891543
Cl215	Cl	1.133008	-0.964568	0.391521
Cl216	Cl	1.633008	-0.464568	0.891521
Cl217	Cl	1.179665	-0.836684	0.434462
Cl218	Cl	1.679665	-0.336684	0.934462
Cl219	Cl	0.922150	-1.087522	0.197575
Cl220	Cl	1.422150	-0.587522	0.697575
Cl221	Cl	0.875248	-0.713039	0.154561
Cl222	Cl	1.375248	-0.213039	0.654561
Cl223	Cl	0.922086	-0.964291	0.197559
Cl224	Cl	1.422086	-0.464291	0.697559
H225	H	0.895988	-0.824209	0.173606
H226	H	1.395988	-0.324209	0.673606
H227	H	0.942623	-0.573118	0.216491
H228	H	1.442623	-0.073118	0.716491
Cl229	Cl	0.921888	-0.461930	0.197443
Cl230	Cl	1.421888	0.038070	0.697443
