data_functionalizedCrystal
_audit_creation_method	'MofGen! by Chris Wilmer'
_symmetry_space_group_name_H-M	'P1'
_symmetry_Int_Tables_number	1
_symmetry_cell_setting	triclinic
loop_
_symmetry_equiv_pos_as_xyz
  x,y,z
_cell_length_a	10.654559
_cell_length_b	15.944551
_cell_length_c	14.421503
_cell_angle_alpha	89.996660
_cell_angle_beta	90.008180
_cell_angle_gamma	83.993697
loop_
_atom_site_label
_atom_site_type_symbol
_atom_site_fract_x
_atom_site_fract_y
_atom_site_fract_z
O1	O	1.666315	0.118002	0.077125
O2	O	1.300693	0.129234	0.077124
O3	O	1.493488	0.001401	0.077116
O4	O	1.473520	0.245834	0.077133
O5	O	1.493456	0.001420	-0.077107
O6	O	1.300661	0.129253	-0.077099
O7	O	1.666283	0.118021	-0.077099
Cu8	Cu	1.483469	0.123638	-0.091181
Cu9	Cu	1.483507	0.123616	0.091206
O10	O	1.473488	0.245853	-0.077091
C11	C	1.492643	-0.029889	0.000004
C12	C	1.490158	-0.123149	0.000004
C13	C	1.253890	0.128417	0.000012
C14	C	1.114479	0.125944	0.000012
C15	C	1.063943	0.048355	0.000006
C16	C	0.932951	0.046037	0.000014
C17	C	0.903041	0.198905	0.000030
C18	C	1.034031	0.201222	0.000029
C19	C	0.771915	-0.048963	0.054040
C20	C	0.721376	-0.126557	0.054018
C21	C	0.777080	-0.193280	-0.000031
C22	C	0.883322	-0.182412	-0.054081
C23	C	0.933855	-0.104817	-0.054067
C24	C	0.878153	-0.038097	0.000004
C25	C	1.195070	0.296217	-0.054005
C26	C	1.245605	0.373813	-0.053998
C27	C	1.189902	0.440543	0.000046
C28	C	1.083654	0.429684	0.054082
C29	C	1.033119	0.352088	0.054075
C30	C	1.088831	0.285357	0.000033
C31	C	1.364714	-0.338735	0.000016
C32	C	1.422950	-0.399404	-0.076025
C33	C	1.485662	-0.293901	0.000011
C34	C	1.423010	-0.399406	0.076027
C35	C	1.481310	-0.458839	0.000022
C36	C	1.543932	-0.353342	-0.076093
C37	C	1.543975	-0.353338	0.076027
C38	C	1.602299	-0.413989	-0.000033
C39	C	1.488166	-0.198884	0.000004
C40	C	1.478816	-0.553855	0.000022
C41	C	1.713086	0.118837	0.000015
C42	C	1.852497	0.121310	0.000021
C43	C	1.474333	0.277143	0.000023
C44	C	1.476818	0.370403	0.000030
N45	N	1.483452	0.123654	-0.219462
C46	C	1.394287	0.182737	-0.469112
C47	C	1.507764	0.199703	-0.530913
C48	C	1.483482	0.123634	-0.408624
C49	C	1.370035	0.106687	-0.530916
C50	C	1.483502	0.123616	-0.591345
C51	C	1.597017	0.140638	-0.469064
C52	C	1.459212	0.047589	-0.469061
C53	C	1.572771	0.064524	-0.530835
C54	C	1.483469	0.123646	-0.303362
C55	C	1.483528	0.123604	-0.696604
N56	N	1.483534	0.123594	0.219487
H57	H	1.129442	-0.012941	-0.000004
C58	C	0.814551	0.281706	0.000045
H59	H	0.863412	0.328248	0.000059
H60	H	0.762814	0.283991	-0.053733
H61	H	0.762847	0.283968	0.053835
H62	H	1.274086	0.092361	-0.558087
C63	C	1.353902	-0.426951	0.162873
H64	H	1.269513	-0.400924	0.162773
H65	H	1.353486	-0.486498	0.162555
H66	H	1.396061	-0.410404	0.216870
H67	H	0.946600	0.343251	0.098073
C68	C	1.726659	0.160105	-0.432523
H69	H	1.725846	0.160024	-0.366650
H70	H	1.790055	0.118368	-0.454148
H71	H	1.744042	0.213949	-0.454216
H72	H	1.648291	0.014532	-0.557766
H73	H	1.371781	-0.419802	-0.140312
H74	H	1.318935	0.232759	-0.442011
H75	H	1.595031	-0.333047	-0.140451
C76	C	1.738030	-0.458004	-0.000090
H77	H	1.780774	-0.442237	-0.054154
H78	H	1.781324	-0.441536	0.053414
H79	H	1.735724	-0.517403	0.000415
H80	H	1.528311	0.264005	-0.558081
C81	C	1.612994	-0.325691	0.162871
H82	H	1.684460	-0.298726	0.144609
H83	H	1.557427	-0.287527	0.198013
H84	H	1.639674	-0.373755	0.199566
C85	C	1.050709	-0.092859	-0.113512
H86	H	1.076651	-0.143711	-0.145707
H87	H	1.030306	-0.048737	-0.156942
H88	H	1.117278	-0.078766	-0.074550
C89	C	0.944593	-0.255811	-0.113535
H90	H	0.899291	-0.303582	-0.105795
H91	H	0.942666	-0.239568	-0.176936
H92	H	1.029633	-0.269577	-0.094534
H93	H	0.735921	-0.256458	-0.000050
H94	H	0.634871	-0.135399	0.098031
H95	H	1.231051	0.503728	0.000039
H96	H	1.038292	0.484023	0.098084
H97	H	1.438631	-0.016693	-0.441872
C98	C	1.362461	0.385764	-0.113451
H99	H	1.388408	0.334907	-0.145635
H100	H	1.342045	0.429876	-0.156891
H101	H	1.429031	0.399870	-0.074499
C102	C	0.710655	0.024428	0.113509
H103	H	0.755976	0.072194	0.105791
H104	H	0.625618	0.038203	0.094525
H105	H	0.712599	0.008167	0.176910
H106	H	1.240443	0.241880	-0.098009
C107	C	1.229101	-0.294520	-0.000084
H108	H	1.186319	-0.310184	-0.054181
H109	H	1.185714	-0.310950	0.053386
H110	H	1.231613	-0.235139	0.000462
