data_functionalizedCrystal
_audit_creation_method	'MofGen! by Chris Wilmer'
_symmetry_space_group_name_H-M	'P1'
_symmetry_Int_Tables_number	1
_symmetry_cell_setting	triclinic
loop_
_symmetry_equiv_pos_as_xyz
  x,y,z
_cell_length_a	12.594516
_cell_length_b	16.625548
_cell_length_c	16.625539
_cell_angle_alpha	89.977655
_cell_angle_beta	90.024195
_cell_angle_gamma	89.981969
loop_
_atom_site_label
_atom_site_type_symbol
_atom_site_fract_x
_atom_site_fract_y
_atom_site_fract_z
Zn1	Zn	-0.423744	-1.232705	0.455971
Zn2	Zn	0.076256	-0.732705	0.955971
Zn3	Zn	-0.601746	-1.232618	0.321147
Zn4	Zn	-0.101746	-0.732618	0.821147
Zn5	Zn	-0.423781	-1.097866	0.321147
Zn6	Zn	0.076219	-0.597866	0.821147
Zn7	Zn	-0.601681	-1.097847	0.455933
Zn8	Zn	-0.101681	-0.597847	0.955933
O9	O	-0.512738	-1.165259	0.388550
O10	O	-0.012738	-0.665259	0.888550
O11	O	-0.447368	-1.345525	0.438102
O12	O	0.052632	-0.845525	0.938102
O13	O	-0.578181	-1.214715	0.208315
O14	O	-0.078181	-0.714715	0.708315
O15	O	-0.274830	-1.115797	0.339047
O16	O	0.225170	-0.615797	0.839047
O17	O	-0.578145	-1.345462	0.339048
O18	O	-0.078145	-0.845462	0.839048
O19	O	-0.274803	-1.214862	0.438101
O20	O	0.225197	-0.714862	0.938101
O21	O	-0.447431	-1.115713	0.208315
O22	O	0.052569	-0.615713	0.708315
O23	O	-0.447368	-0.985031	0.339011
O24	O	0.052632	-0.485031	0.839011
O25	O	-0.578034	-1.115764	0.568771
O26	O	-0.078034	-0.615764	1.068771
O27	O	-0.578070	-0.985017	0.438038
O28	O	-0.078070	-0.485017	0.938038
O29	O	-0.447305	-1.214844	0.568798
O30	O	0.052695	-0.714844	1.068798
O31	O	-0.750683	-1.214696	0.339012
O32	O	-0.250683	-0.714696	0.839012
O33	O	-0.750635	-1.115680	0.438038
O34	O	-0.250635	-0.615680	0.938038
C35	C	-0.512717	-0.955768	0.388521
C36	C	-0.012717	-0.455768	0.888521
C37	C	-0.512733	-0.866147	0.388527
C38	C	-0.012733	-0.366147	0.888527
C39	C	-0.512731	-0.537971	0.388552
C40	C	-0.012731	-0.037971	0.888552
C41	C	-0.512729	-0.629280	0.388542
C42	C	-0.012729	-0.129280	0.888542
C43	C	-0.512733	-0.702056	0.388539
C44	C	-0.012733	-0.202056	0.888539
C45	C	-0.512729	-0.793371	0.388531
C46	C	-0.012729	-0.293371	0.888531
C47	C	-0.789279	-1.165198	0.388538
C48	C	-0.289279	-0.665198	0.888538
C49	C	-0.907584	-1.165246	0.388561
C50	C	-0.407584	-0.665246	0.888561
C51	C	-1.047614	-1.111435	0.442394
C52	C	-0.547614	-0.611435	0.942394
C53	C	-0.976704	-1.184943	0.462178
C54	C	-0.476704	-0.684943	0.962178
C55	C	-0.976922	-1.091746	0.368812
C56	C	-0.476922	-0.591746	0.868812
C57	C	-1.047460	-1.238924	0.408413
C58	C	-0.547460	-0.738924	0.908413
C59	C	-1.047685	-1.145678	0.315013
C60	C	-0.547685	-0.645678	0.815013
C61	C	-0.976807	-1.219236	0.334769
C62	C	-0.476807	-0.719236	0.834769
C63	C	-0.235117	-1.165342	0.388578
C64	C	0.264883	-0.665342	0.888578
C65	C	-0.116811	-1.165377	0.388591
C66	C	0.383189	-0.665377	0.888591
C67	C	-0.512659	-1.165311	0.598859
C68	C	-0.012659	-0.665311	1.098859
C69	C	-0.512625	-1.165334	0.688480
C70	C	-0.012625	-0.665334	1.188480
C71	C	-0.512753	-0.375568	0.388571
C72	C	-0.012753	0.124432	0.888571
C73	C	-0.512741	-0.465189	0.388561
C74	C	-0.012741	0.034811	0.888561
C75	C	-0.512740	-1.165253	0.179059
C76	C	-0.012740	-0.665253	0.679059
C77	C	-0.512474	-1.165387	0.089438
C78	C	-0.012474	-0.665387	0.589438
C79	C	-0.512506	-1.165371	1.016656
C80	C	-0.012506	-0.665371	1.516656
C81	C	-0.512542	-1.165358	0.925347
C82	C	-0.012542	-0.665358	1.425347
C83	C	-0.512566	-1.165353	0.852571
C84	C	-0.012566	-0.665353	1.352571
C85	C	-0.512601	-1.165339	0.761256
C86	C	-0.012601	-0.665339	1.261256
H87	H	-1.078700	-1.065931	0.487941
H88	H	-0.578700	-0.565931	0.987941
H89	H	-1.078884	-1.129044	0.252820
H90	H	-0.578884	-0.629044	0.752820
Cl91	Cl	-1.095095	-1.335007	0.434333
Cl92	Cl	-0.595095	-0.835007	0.934333
Cl93	Cl	-0.929076	-0.995693	0.343002
Cl94	Cl	-0.429076	-0.495693	0.843002
H95	H	-0.945529	-1.201555	0.524389
H96	H	-0.445529	-0.701555	1.024389
H97	H	-0.945914	-1.264849	0.289257
H98	H	-0.445914	-0.764849	0.789257
