data_functionalizedCrystal
_audit_creation_method	'MofGen! by Chris Wilmer'
_symmetry_space_group_name_H-M	'P1'
_symmetry_Int_Tables_number	1
_symmetry_cell_setting	triclinic
loop_
_symmetry_equiv_pos_as_xyz
  x,y,z
_cell_length_a	18.050591
_cell_length_b	18.050590
_cell_length_c	18.050571
_cell_angle_alpha	89.911758
_cell_angle_beta	89.930298
_cell_angle_gamma	90.014558
loop_
_atom_site_label
_atom_site_type_symbol
_atom_site_fract_x
_atom_site_fract_y
_atom_site_fract_z
Zn1	Zn	1.135700	-0.295310	-0.420028
Zn2	Zn	1.135526	-0.419634	-0.295837
Zn3	Zn	1.011414	-0.295453	-0.295839
Zn4	Zn	1.011488	-0.419454	-0.419972
O5	O	1.073532	-0.357463	-0.357919
O6	O	1.239602	-0.311817	-0.403577
O7	O	1.118958	-0.403296	-0.191912
O8	O	1.027942	-0.191510	-0.312338
O9	O	1.239474	-0.403157	-0.312333
O10	O	1.119255	-0.191404	-0.403579
O11	O	1.027773	-0.312062	-0.191914
O12	O	0.907499	-0.311887	-0.312283
O13	O	1.028069	-0.402850	-0.523905
O14	O	0.907554	-0.402990	-0.403483
O15	O	1.119327	-0.311642	-0.523946
O16	O	1.119031	-0.523535	-0.312279
O17	O	1.027900	-0.523402	-0.403481
C18	C	0.880580	-0.357435	-0.357878
C19	C	0.798034	-0.357441	-0.357878
C20	C	0.598532	-0.307842	-0.308398
C21	C	0.549108	-0.375599	-0.290121
C22	C	0.646904	-0.357464	-0.357912
C23	C	0.549246	-0.289731	-0.376187
C24	C	0.500919	-0.357479	-0.357943
C25	C	0.598567	-0.425256	-0.339599
C26	C	0.598709	-0.339342	-0.425697
C27	C	0.549308	-0.407146	-0.407446
C28	C	0.731002	-0.357454	-0.357892
C29	C	0.416822	-0.357497	-0.357963
C30	C	1.073475	-0.550415	-0.357890
C31	C	1.073518	-0.632961	-0.357902
C32	C	1.123178	-0.832456	-0.308375
C33	C	1.141371	-0.881719	-0.376158
C34	C	1.073561	-0.784091	-0.357931
C35	C	1.055443	-0.881910	-0.290180
C36	C	1.073603	-0.930076	-0.357954
C37	C	1.091789	-0.832267	-0.425749
C38	C	1.005829	-0.832453	-0.339726
C39	C	1.023996	-0.881694	-0.407555
C40	C	1.073538	-0.699993	-0.357917
C41	C	1.073625	-1.014173	-0.357976
C42	C	1.267238	-0.357491	-0.357961
C43	C	1.349783	-0.357503	-0.357979
C44	C	1.073726	-0.357210	-0.551625
C45	C	1.073809	-0.357103	-0.634171
C46	C	1.073610	-0.163757	-0.357965
C47	C	1.073643	-0.081211	-0.357985
C48	C	1.073381	-0.357661	-0.164967
C49	C	1.073443	-0.357559	-0.082421
C50	C	1.023652	-0.308097	0.116990
C51	C	1.091320	-0.289398	0.166195
C52	C	1.073568	-0.357405	0.068709
C53	C	1.006022	-0.375919	0.166586
C54	C	1.073683	-0.357255	0.214694
C55	C	1.141271	-0.338672	0.116826
C56	C	1.055927	-0.425225	0.117213
C57	C	1.123643	-0.406552	0.166395
C58	C	1.073501	-0.357490	-0.015389
C59	C	1.073757	-0.357170	0.298790
H60	H	0.527829	-0.449164	-0.449331
H61	H	1.165152	-0.810834	-0.266511
H62	H	0.620511	-0.323982	-0.482991
C63	C	0.876398	-0.829153	-0.370076
C64	C	0.928502	-0.803209	-0.318892
H65	H	0.828659	-0.811102	-0.357204
H66	H	0.889219	-0.812179	-0.418247
H67	H	0.875971	-0.881776	-0.369479
H68	H	0.928932	-0.750586	-0.319494
H69	H	0.915676	-0.820180	-0.270709
C70	C	1.086742	-0.886482	-0.161012
C71	C	1.034725	-0.911339	-0.212820
H72	H	1.073952	-0.904646	-0.113253
H73	H	1.134525	-0.904078	-0.174293
H74	H	1.087016	-0.833861	-0.160348
H75	H	1.034455	-0.963961	-0.213488
H76	H	0.986929	-0.893747	-0.199535
H77	H	0.527324	-0.390938	-0.232809
H78	H	0.948851	-0.391645	0.188432
H79	H	0.620147	-0.265924	-0.266480
H80	H	0.981464	-0.266425	0.095267
H81	H	0.620142	-0.482561	-0.324092
H82	H	1.106295	-0.231979	0.187717
C83	C	1.183315	-0.828447	-0.522313
C84	C	1.112594	-0.802968	-0.503134
H85	H	1.196158	-0.810361	-0.570088
H86	H	1.218318	-0.811191	-0.487081
H87	H	1.183427	-0.881071	-0.522790
H88	H	1.112484	-0.750343	-0.502653
H89	H	1.077583	-0.820220	-0.538376
C90	C	1.217700	-0.317594	0.009889
C91	C	1.218470	-0.317352	0.087457
H92	H	1.265358	-0.304426	-0.008241
H93	H	1.205052	-0.365670	-0.007282
H94	H	1.182175	-0.282839	-0.007413
H95	H	1.253992	-0.352111	0.104760
H96	H	1.231127	-0.269269	0.104635
H97	H	1.040933	-0.482627	0.095674
C98	C	0.476153	-0.184973	-0.339215
C99	C	0.519999	-0.212395	-0.397040
H100	H	0.458103	-0.137226	-0.352084
H101	H	0.435573	-0.217471	-0.330947
H102	H	0.505051	-0.181611	-0.295401
H103	H	0.491099	-0.215762	-0.440853
H104	H	0.560584	-0.179889	-0.405318
C105	C	1.270571	-0.886099	-0.344988
C106	C	1.218717	-0.910945	-0.396965
H107	H	1.318320	-0.904145	-0.357829
H108	H	1.271227	-0.833484	-0.344692
H109	H	1.257336	-0.903830	-0.297194
H110	H	1.231949	-0.893209	-0.444759
H111	H	1.218063	-0.963571	-0.397269
C112	C	0.986548	-0.885505	-0.535083
C113	C	0.967377	-0.910706	-0.464203
H114	H	0.951598	-0.903421	-0.570055
H115	H	0.986512	-0.832887	-0.535661
H116	H	1.034534	-0.903126	-0.547606
H117	H	0.919394	-0.893080	-0.451677
H118	H	0.967405	-0.963334	-0.463623
C119	C	1.251466	-0.443110	0.170241
C120	C	1.180755	-0.462754	0.195504
H121	H	1.286725	-0.477803	0.188218
H122	H	1.252012	-0.443182	0.117624
H123	H	1.263621	-0.395027	0.187762
H124	H	1.168598	-0.510836	0.177979
H125	H	1.180208	-0.462690	0.248132
