data_functionalizedCrystal
_audit_creation_method	'MofGen! by Chris Wilmer'
_symmetry_space_group_name_H-M	'P1'
_symmetry_Int_Tables_number	1
_symmetry_cell_setting	triclinic
loop_
_symmetry_equiv_pos_as_xyz
  x,y,z
_cell_length_a	14.519709
_cell_length_b	16.109301
_cell_length_c	15.186229
_cell_angle_alpha	90.000638
_cell_angle_beta	89.995307
_cell_angle_gamma	96.429187
loop_
_atom_site_label
_atom_site_type_symbol
_atom_site_fract_x
_atom_site_fract_y
_atom_site_fract_z
O1	O	0.118540	-1.103336	-0.073175
O2	O	0.133292	-0.861299	-0.073189
O3	O	-0.008336	-0.988735	-0.073174
O4	O	0.260168	-0.975900	-0.073190
O5	O	-0.008338	-0.988726	0.073284
O6	O	0.133290	-0.861291	0.073268
O7	O	0.118538	-1.103327	0.073282
Zn8	Zn	0.125914	-0.982308	0.096529
Zn9	Zn	0.125916	-0.982319	-0.096435
O10	O	0.260166	-0.975892	0.073267
C11	C	0.132693	-0.830319	0.000038
C12	C	0.130902	-0.738021	0.000033
C13	C	-0.042696	-0.988132	0.000055
C14	C	-0.145073	-0.986340	0.000056
C15	C	0.119136	-1.134307	0.000054
C16	C	0.120928	-1.226606	0.000053
C17	C	-0.519955	-0.979741	0.000032
C18	C	-0.415651	-0.981574	0.000039
C19	C	-0.332517	-0.983041	0.000045
C20	C	-0.228207	-0.984873	0.000050
C21	C	0.294526	-0.976494	0.000036
C22	C	0.396903	-0.978287	0.000030
N23	N	0.125911	-0.982306	0.228221
C24	C	0.210775	-0.515887	0.000038
C25	C	0.209085	-0.429163	0.000044
C26	C	0.041048	-0.448747	0.000050
C27	C	0.042739	-0.535468	0.000051
C28	C	0.127606	-0.569036	0.000040
C29	C	0.124224	-0.395591	0.000045
C30	C	0.122390	-0.301562	0.000052
C31	C	0.129440	-0.663071	0.000036
N32	N	0.125911	-0.982327	-0.228128
C33	C	0.063219	-1.038754	0.453951
C34	C	0.063217	-1.038756	0.546141
C35	C	0.188606	-0.925873	0.546136
C36	C	0.188603	-0.925867	0.453948
C37	C	0.125911	-0.982312	0.407858
C38	C	0.125912	-0.982321	0.592236
C39	C	0.125910	-0.982323	0.692192
C40	C	0.125911	-0.982309	0.307895
H41	H	0.279879	-0.543214	0.000036
C42	C	-0.005747	-1.100835	0.403251
C43	C	-0.076289	-1.068242	0.339884
C44	C	-0.145260	-1.130323	0.289188
C45	C	-0.143690	-1.224998	0.301858
C46	C	-0.073146	-1.257596	0.365228
C47	C	-0.004175	-1.195514	0.415925
H48	H	-0.077453	-0.998154	0.330502
H49	H	-0.197481	-1.106191	0.242277
H50	H	-0.194746	-1.270954	0.264330
H51	H	-0.071981	-1.327684	0.374610
H52	H	0.048047	-1.219646	0.462835
C53	C	0.257573	-0.863792	0.596836
C54	C	0.257635	-0.863840	0.698239
C55	C	0.326606	-0.801758	0.748935
C56	C	0.395515	-0.739630	0.698229
C57	C	0.395456	-0.739580	0.596820
C58	C	0.326485	-0.801661	0.546123
H59	H	0.206621	-0.909833	0.735780
H60	H	0.326649	-0.801796	0.824005
H61	H	0.446572	-0.693673	0.735757
H62	H	0.446469	-0.693586	0.559278
H63	H	0.326441	-0.801624	0.471054
H64	H	-0.024991	-0.578745	0.000055
C65	C	0.300574	-0.370700	0.000037
C66	C	0.322521	-0.308385	-0.076012
C67	C	0.414015	-0.249922	-0.076017
C68	C	0.483561	-0.253774	0.000027
C69	C	0.461616	-0.316091	0.076083
C70	C	0.370122	-0.374554	0.076088
H71	H	0.271037	-0.305532	-0.132310
H72	H	0.430260	-0.203791	-0.132319
H73	H	0.551290	-0.210496	0.000024
H74	H	0.513100	-0.318944	0.132380
H75	H	0.353877	-0.420685	0.132389
C76	C	-0.005742	-1.100845	0.596844
C77	C	-0.074690	-1.162937	0.546145
C78	C	-0.143653	-1.225028	0.596848
C79	C	-0.143667	-1.225026	0.698251
C80	C	-0.074716	-1.162932	0.748957
C81	C	-0.005753	-1.100842	0.698253
H82	H	-0.074682	-1.162940	0.471075
H83	H	-0.194695	-1.270994	0.559312
H84	H	-0.194718	-1.270989	0.735785
H85	H	-0.074724	-1.162929	0.824026
H86	H	0.045289	-1.054875	0.735789
H87	H	-0.028048	-0.421405	0.000064
H88	H	0.239654	-0.879902	0.416417
