data_functionalizedCrystal
_audit_creation_method	'MofGen! by Chris Wilmer'
_symmetry_space_group_name_H-M	'P1'
_symmetry_Int_Tables_number	1
_symmetry_cell_setting	triclinic
loop_
_symmetry_equiv_pos_as_xyz
  x,y,z
_cell_length_a	19.805407
_cell_length_b	14.908520
_cell_length_c	14.908294
_cell_angle_alpha	96.360837
_cell_angle_beta	93.277430
_cell_angle_gamma	93.320773
loop_
_atom_site_label
_atom_site_type_symbol
_atom_site_fract_x
_atom_site_fract_y
_atom_site_fract_z
Zn1	Zn	0.994809	-0.389878	-0.532597
Zn2	Zn	1.494809	0.110122	-0.032597
Zn3	Zn	0.994733	-0.532523	-0.389967
Zn4	Zn	1.494733	-0.032523	0.110033
Zn5	Zn	0.888555	-0.381180	-0.381251
Zn6	Zn	1.388555	0.118820	0.118749
Zn7	Zn	0.874668	-0.541196	-0.541272
Zn8	Zn	1.374668	-0.041196	-0.041272
O9	O	0.938191	-0.461194	-0.461272
O10	O	1.438191	0.038806	0.038728
O11	O	1.089514	-0.408811	-0.513693
O12	O	1.589514	0.091189	-0.013693
O13	O	0.986428	-0.505177	-0.262150
O14	O	1.486428	-0.005177	0.237850
O15	O	0.908493	-0.255669	-0.394049
O16	O	1.408493	0.244331	0.105951
O17	O	1.089458	-0.513612	-0.408903
O18	O	1.589458	-0.013612	0.091097
O19	O	0.986558	-0.262060	-0.505242
O20	O	1.486558	0.237940	-0.005242
O21	O	0.908419	-0.393986	-0.255747
O22	O	1.408419	0.106014	0.244253
O23	O	0.791997	-0.402396	-0.402462
O24	O	1.291997	0.097604	0.097538
O25	O	0.884825	-0.528393	-0.666782
O26	O	1.384825	-0.028393	-0.166782
O27	O	0.781795	-0.519959	-0.520029
O28	O	1.281795	-0.019959	-0.020029
O29	O	0.973092	-0.417221	-0.660408
O30	O	1.473092	0.082779	-0.160408
O31	O	0.972962	-0.660338	-0.417316
O32	O	1.472962	-0.160338	0.082684
O33	O	0.884751	-0.666710	-0.528480
O34	O	1.384751	-0.166710	-0.028480
C35	C	0.762337	-0.461175	-0.461241
C36	C	1.262337	0.038825	0.038759
C37	C	0.687104	-0.461190	-0.461251
C38	C	1.187104	0.038810	0.038749
C39	C	0.646465	-0.522487	-0.522380
C40	C	1.146465	-0.022487	-0.022380
C41	C	0.575776	-0.522489	-0.522392
C42	C	1.075776	-0.022489	-0.022392
C43	C	0.545727	-0.461199	-0.461272
C44	C	1.045727	0.038801	0.038728
C45	C	0.586371	-0.399895	-0.400140
C46	C	1.086371	0.100105	0.099860
C47	C	0.657059	-0.399889	-0.400133
C48	C	1.157059	0.100111	0.099867
C49	C	0.301296	-0.399917	-0.400172
C50	C	0.801296	0.100083	0.099828
C51	C	0.230603	-0.399929	-0.400182
C52	C	0.730603	0.100071	0.099818
C53	C	0.220013	-0.522517	-0.522431
C54	C	0.720013	-0.022517	-0.022431
C55	C	0.290701	-0.522511	-0.522424
C56	C	0.790701	-0.022511	-0.022424
C57	C	0.331339	-0.461205	-0.461296
C58	C	0.831339	0.038795	0.038704
C59	C	0.407988	-0.461202	-0.461284
C60	C	0.907988	0.038798	0.038716
C61	C	0.469080	-0.461205	-0.461279
C62	C	0.969080	0.038795	0.038721
C63	C	0.927359	-0.696368	-0.474805
C64	C	1.427359	-0.196368	0.025195
C65	C	0.922786	-0.796978	-0.480625
C66	C	1.422786	-0.296978	0.019375
C67	C	1.006131	-0.979345	-0.375899
C68	C	1.506131	-0.479345	0.124101
C69	C	1.001836	-1.073877	-0.381365
C70	C	1.501836	-0.573877	0.118635
C71	C	0.909905	-1.080576	-0.497025
C72	C	1.409905	-0.580576	0.002975
C73	C	0.914200	-0.986044	-0.491559
C74	C	1.414200	-0.486044	0.008441
C75	C	0.962314	-0.935432	-0.430994
C76	C	1.462314	-0.435432	0.069006
C77	C	0.966605	-0.840898	-0.425524
C78	C	1.466605	-0.340898	0.074476
C79	C	0.874677	-0.847599	-0.541188
C80	C	1.374677	-0.347599	-0.041188
C81	C	0.870383	-0.942131	-0.546654
C82	C	1.370383	-0.442131	-0.046654
C83	C	1.114731	-0.461214	-0.461303
C84	C	1.614731	0.038786	0.038697
C85	C	1.189963	-0.461223	-0.461316
C86	C	1.689963	0.038777	0.038684
C87	C	0.927418	-0.474745	-0.697355
C88	C	1.427418	0.025255	-0.197355
C89	C	0.922827	-0.480519	-0.797960
C90	C	1.422827	0.019481	-0.297960
C91	C	0.949083	-0.225103	-0.447705
C92	C	1.449083	0.274897	0.052295
C93	C	0.953724	-0.124496	-0.441924
C94	C	1.453724	0.375504	0.058076
C95	C	0.870403	-0.546528	-0.943077
C96	C	1.370403	-0.046528	-0.443077
C97	C	0.874715	-0.541109	-0.848550
C98	C	1.374715	-0.041109	-0.348550
C99	C	0.966630	-0.425342	-0.841902
C100	C	1.466630	0.074658	-0.341902
C101	C	0.962318	-0.430761	-0.936429
C102	C	1.462318	0.069239	-0.436429
C103	C	0.914203	-0.491357	-0.987013
C104	C	1.414203	0.008643	-0.487013
C105	C	0.909895	-0.496780	-1.081542
C106	C	1.409895	0.003220	-0.581542
C107	C	1.001806	-0.381008	-1.074892
C108	C	1.501806	0.118992	-0.574892
C109	C	1.006118	-0.375589	-0.980365
C110	C	1.506118	0.124411	-0.480365
C111	C	0.948964	-0.447632	-0.226103
C112	C	1.448964	0.052368	0.273897
C113	C	0.953698	-0.441602	-0.125484
C114	C	1.453698	0.058398	0.374516
H115	H	0.542691	-0.572404	-0.572169
H116	H	1.042691	-0.072404	-0.072169
N117	N	0.345110	-0.333783	-0.334245
N118	N	0.845110	0.166217	0.165755
H119	H	0.335108	-0.344022	-0.270355
H120	H	0.835108	0.155978	0.229645
H121	H	0.394436	-0.343091	-0.343585
H122	H	0.894436	0.156909	0.156415
N123	N	0.827409	-0.800237	-0.600611
N124	N	1.327409	-0.300237	-0.100611
H125	H	0.837428	-0.732671	-0.587959
H126	H	1.337428	-0.232671	-0.087959
H127	H	0.834200	-0.820433	-0.666223
H128	H	1.334200	-0.320433	-0.166223
N129	N	1.058020	-0.924744	-0.310583
N130	N	1.558020	-0.424744	0.189417
H131	H	1.034234	-0.883161	-0.266340
H132	H	1.534234	-0.383161	0.233660
H133	H	1.085113	-0.966966	-0.276569
H134	H	1.585113	-0.466966	0.223431
N135	N	1.049097	-1.121242	-0.321945
N136	N	1.549097	-0.621242	0.178055
H137	H	1.080227	-1.074832	-0.282750
H138	H	1.580227	-0.574832	0.217250
H139	H	1.021702	-1.158105	-0.282290
H140	H	1.521702	-0.658105	0.217710
N141	N	1.018495	-0.786304	-0.360203
N142	N	1.518495	-0.286304	0.139797
H143	H	1.045603	-0.828472	-0.326134
H144	H	1.545603	-0.328472	0.173866
H145	H	1.049893	-0.749150	-0.394821
H146	H	1.549893	-0.249150	0.105179
N147	N	1.049048	-0.321480	-1.122269
N148	N	1.549048	0.178520	-0.622269
H149	H	1.097510	-0.334594	-1.106631
H150	H	1.597510	0.165406	-0.606631
H151	H	1.038963	-0.334125	-1.189814
H152	H	1.538963	0.165875	-0.689814
N153	N	0.323111	-0.588622	-0.588340
N154	N	0.823111	-0.088622	-0.088340
H155	H	0.286640	-0.627455	-0.627069
H156	H	0.786640	-0.127455	-0.127069
H157	H	0.352226	-0.554247	-0.628167
H158	H	0.852226	-0.054247	-0.128167
H159	H	0.870738	-1.121801	-0.546340
H160	H	1.370738	-0.621801	-0.046340
N161	N	0.198193	-0.333817	-0.334256
N162	N	0.698193	0.166183	0.165744
H163	H	0.147246	-0.343131	-0.343534
H164	H	0.647246	0.156869	0.156466
H165	H	0.212848	-0.344092	-0.270395
H166	H	0.712848	0.155908	0.229605
N167	N	0.818492	-0.996722	-0.611976
N168	N	1.318492	-0.496722	-0.111976
H169	H	0.822419	-1.063272	-0.607079
H170	H	1.322419	-0.563272	-0.107079
H171	H	0.771556	-0.979448	-0.596866
H172	H	1.271556	-0.479448	-0.096866
H173	H	0.870719	-0.546122	-1.122726
H174	H	1.370719	-0.046122	-0.622726
H175	H	1.045290	-0.326251	-0.939167
H176	H	1.545290	0.173749	-0.439167
H177	H	1.005799	-0.376003	-0.800700
H178	H	1.505799	0.123997	-0.300700
H179	H	0.186917	-0.572432	-0.572208
H180	H	0.686917	-0.072432	-0.072208
H181	H	0.561900	-0.349987	-0.350379
H182	H	1.061900	0.150013	0.149621
H183	H	0.831230	-0.595874	-0.984263
H184	H	1.331230	-0.095874	-0.484263
N185	N	0.827465	-0.600602	-0.801158
N186	N	1.327465	-0.100602	-0.301158
H187	H	0.796330	-0.639806	-0.847550
H188	H	1.296330	-0.139806	-0.347550
H189	H	0.854865	-0.640250	-0.764347
H190	H	1.354865	-0.140250	-0.264347
H191	H	0.670926	-0.572400	-0.572148
H192	H	1.170926	-0.072400	-0.072148
H193	H	0.690147	-0.349971	-0.350360
H194	H	1.190147	0.150029	0.149640
