data_functionalizedCrystal
_audit_creation_method	'MofGen! by Chris Wilmer'
_symmetry_space_group_name_H-M	'P1'
_symmetry_Int_Tables_number	1
_symmetry_cell_setting	triclinic
loop_
_symmetry_equiv_pos_as_xyz
  x,y,z
_cell_length_a	6.817900
_cell_length_b	11.168121
_cell_length_c	10.992410
_cell_angle_alpha	91.928971
_cell_angle_beta	108.764651
_cell_angle_gamma	108.508496
loop_
_atom_site_label
_atom_site_type_symbol
_atom_site_fract_x
_atom_site_fract_y
_atom_site_fract_z
V1	V	-4.112913	-0.174705	-0.400604
O2	O	-4.072440	0.008395	-0.392967
O3	O	-4.089180	-0.346410	-0.397874
O4	O	-4.090526	-0.172017	-0.575316
O5	O	-4.071085	-0.167205	-0.214297
V6	V	-4.589974	-0.152804	-0.378319
O7	O	-4.388347	-0.222746	-0.449488
O8	O	-4.764738	-0.104762	-0.329435
O9	O	-4.390501	0.018902	-0.381048
O10	O	-4.747844	-0.335904	-0.385956
O11	O	-4.749199	-0.160304	-0.564625
O12	O	-4.389155	-0.155491	-0.203606
C13	C	-3.939340	-0.388268	-0.391557
C14	C	-4.001396	-0.528639	-0.390491
C15	C	-3.941055	-0.165811	-0.617900
C16	C	-4.004198	-0.164750	-0.760729
C17	C	-4.203947	-0.597332	-0.396109
C18	C	-4.268089	-0.742413	-0.395006
C19	C	-3.871395	-0.155083	-0.955851
C20	C	-3.805832	-0.156709	-0.807368
C21	C	-4.201263	-0.289253	-0.837840
C22	C	-4.265585	-0.288151	-0.986407
C23	C	-4.145193	-0.047070	-0.948360
C24	C	-4.074488	-0.046480	-0.799347
C25	C	-4.203683	0.060753	-0.387361
C26	C	-4.120867	0.201123	-0.388437
C27	C	-4.201968	-0.161701	-0.161015
C28	C	-4.118062	-0.162756	-0.018186
H29	H	-4.329877	-0.548735	-0.401742
H30	H	-4.441600	-0.801461	-0.399801
H31	H	-4.154830	-0.377063	-0.812240
Br32	Br	-3.974877	0.110512	-0.982287
H33	H	-3.947342	-0.739834	-0.383623
H34	H	-3.875474	-0.577238	-0.384872
H35	H	-3.658061	-0.067187	-0.754022
H36	H	-3.754880	-0.064945	-0.974675
Br37	Br	-3.828757	-0.293624	-1.035841
H38	H	-4.351559	-0.299632	-0.809038
Br39	Br	-3.709469	-0.297182	-0.766007
Br40	Br	-4.238540	-0.434150	-1.063544
H41	H	-4.447504	-0.298978	-1.029039
H42	H	-3.931938	0.045622	-0.746984
Br43	Br	-4.311358	-0.044028	-0.745147
H44	H	-4.324142	-0.051595	-0.989201
