data_functionalizedCrystal
_audit_creation_method	'MofGen! by Chris Wilmer'
_symmetry_space_group_name_H-M	'P1'
_symmetry_Int_Tables_number	1
_symmetry_cell_setting	triclinic
loop_
_symmetry_equiv_pos_as_xyz
  x,y,z
_cell_length_a	6.817900
_cell_length_b	10.773972
_cell_length_c	16.306216
_cell_angle_alpha	96.332834
_cell_angle_beta	103.467292
_cell_angle_gamma	96.646171
loop_
_atom_site_label
_atom_site_type_symbol
_atom_site_fract_x
_atom_site_fract_y
_atom_site_fract_z
V1	V	-3.991778	-0.173564	-0.261645
O2	O	-4.015403	0.007336	-0.258077
O3	O	-3.909443	-0.343183	-0.258497
O4	O	-3.943672	-0.171335	-0.376378
O5	O	-3.980937	-0.165701	-0.139381
V6	V	-4.479764	-0.151874	-0.247187
O7	O	-4.243244	-0.221143	-0.293362
O8	O	-4.678495	-0.104296	-0.215470
O9	O	-4.338892	0.017744	-0.250335
O10	O	-4.573536	-0.332775	-0.250755
O11	O	-4.608002	-0.159737	-0.369451
O12	O	-4.304663	-0.154104	-0.132454
C13	C	-3.746179	-0.384519	-0.254019
C14	C	-3.760150	-0.523187	-0.252210
C15	C	-3.952684	-0.734382	-0.253481
C16	C	-3.938250	-0.591062	-0.255355
C17	C	-3.789841	-0.165308	-0.404386
C18	C	-3.831569	-0.164608	-0.498172
C19	C	-3.983028	-0.162094	-0.838944
C20	C	-4.185795	-0.170370	-0.808430
C21	C	-4.142475	-0.170619	-0.710836
C22	C	-3.907889	-0.163342	-0.669883
C23	C	-3.796886	-0.039619	-0.691074
C24	C	-3.841667	-0.038849	-0.788678
C25	C	-3.873476	-0.277103	-0.811912
C26	C	-3.834423	-0.279544	-0.714576
C27	C	-3.865411	-0.164043	-0.574336
C28	C	-4.025498	-0.161385	-0.934490
C29	C	-4.165497	0.059074	-0.254810
C30	C	-4.130764	0.197741	-0.256625
C31	C	-4.121836	-0.160135	-0.104441
C32	C	-4.059348	-0.160829	-0.010655
H33	H	-4.295083	-0.259006	-0.842286
C34	C	-3.638104	-0.023780	-0.814773
C35	C	-3.435541	-0.014819	-0.747049
C36	C	-3.231977	0.000261	-0.773137
C37	C	-3.230976	0.006380	-0.866947
C38	C	-3.433546	-0.002581	-0.934677
C39	C	-3.637110	-0.017661	-0.908590
H40	H	-3.436275	-0.019349	-0.677599
H41	H	-3.082021	0.006895	-0.722998
H42	H	-3.080285	0.017544	-0.886259
H43	H	-3.432812	0.001949	-1.004127
H44	H	-3.787066	-0.024294	-0.958728
H45	H	-3.625120	-0.029794	-0.663663
H46	H	-3.810911	-0.782375	-0.249406
H47	H	-4.080041	-0.543077	-0.259439
H48	H	-3.618362	-0.571173	-0.248136
C49	C	-4.001401	-0.402706	-0.859325
C50	C	-3.923754	-0.528565	-0.842858
C51	C	-4.051704	-0.654161	-0.890271
C52	C	-4.257299	-0.653897	-0.954153
C53	C	-4.334957	-0.528033	-0.970623
C54	C	-4.207007	-0.402437	-0.923210
H55	H	-3.771551	-0.528765	-0.795567
H56	H	-3.994216	-0.747334	-0.878079
H57	H	-4.352015	-0.746870	-0.989251
H58	H	-4.487160	-0.527833	-1.017914
H59	H	-4.264495	-0.309264	-0.935402
H60	H	-3.847853	0.046693	-0.659723
H61	H	-4.269082	-0.087761	-0.826638
H62	H	-4.272542	-0.754269	-0.260708
C63	C	-4.260762	-0.290759	-0.692489
C64	C	-4.395393	-0.387145	-0.766747
C65	C	-4.513690	-0.507289	-0.748406
C66	C	-4.497354	-0.531048	-0.655807
C67	C	-4.362717	-0.434660	-0.581543
C68	C	-4.244421	-0.314516	-0.599884
H69	H	-4.407491	-0.369559	-0.835300
H70	H	-4.613357	-0.578642	-0.803382
H71	H	-4.584924	-0.619987	-0.642230
H72	H	-4.350619	-0.452246	-0.512990
H73	H	-4.144753	-0.243163	-0.544908
C74	C	-3.945618	-0.403113	-0.697481
C75	C	-4.078588	-0.498944	-0.772464
C76	C	-4.189786	-0.622509	-0.755362
C77	C	-4.168013	-0.650243	-0.663277
C78	C	-4.035037	-0.554409	-0.588289
C79	C	-3.923839	-0.430844	-0.605391
H80	H	-4.094711	-0.478416	-0.840636
H81	H	-4.288223	-0.693451	-0.810874
H82	H	-4.250328	-0.741713	-0.650617
H83	H	-4.018914	-0.574937	-0.520117
H84	H	-3.825401	-0.359902	-0.549879
H85	H	-4.204722	-0.087782	-0.681129
H86	H	-3.915325	0.048147	-0.804530
H87	H	-3.665156	-0.281455	-0.687150
H88	H	-3.722623	-0.272023	-0.831113
