data_functionalizedCrystal
_audit_creation_method	'MofGen! by Chris Wilmer'
_symmetry_space_group_name_H-M	'P1'
_symmetry_Int_Tables_number	1
_symmetry_cell_setting	triclinic
loop_
_symmetry_equiv_pos_as_xyz
  x,y,z
_cell_length_a	6.817900
_cell_length_b	12.200875
_cell_length_c	12.200863
_cell_angle_alpha	93.006308
_cell_angle_beta	107.143441
_cell_angle_gamma	107.143593
loop_
_atom_site_label
_atom_site_type_symbol
_atom_site_fract_x
_atom_site_fract_y
_atom_site_fract_z
V1	V	-4.086881	-0.357778	-0.158973
V2	V	-3.586881	0.142222	0.341027
O3	O	-4.054179	-0.350847	0.007371
O4	O	-3.554179	0.149153	0.507371
O5	O	-4.056329	-0.355446	-0.314959
O6	O	-3.556329	0.144554	0.185041
O7	O	-4.056333	-0.513764	-0.156645
O8	O	-3.556333	-0.013764	0.343355
O9	O	-4.054175	-0.191433	-0.152038
O10	O	-3.554175	0.308567	0.347962
V11	V	-4.565883	-0.337868	-0.139062
V12	V	-4.065883	0.162132	0.360938
O13	O	-4.358057	-0.401452	-0.202649
O14	O	-3.858057	0.098548	0.297351
O15	O	-4.744905	-0.294193	-0.095387
O16	O	-4.244905	0.205807	0.404613
O17	O	-4.373229	-0.340199	0.016923
O18	O	-3.873229	0.159801	0.516923
O19	O	-4.715983	-0.344798	-0.305407
O20	O	-4.215983	0.155202	0.194593
O21	O	-4.715986	-0.504212	-0.145997
O22	O	-4.215986	-0.004212	0.354003
O23	O	-4.373226	-0.181881	-0.141390
O24	O	-3.873226	0.318119	0.358610
C25	C	-3.905095	-0.349832	-0.352981
C26	C	-3.405095	0.150168	0.147019
C27	C	-3.961521	-0.348965	-0.480503
C28	C	-3.461521	0.151035	0.019497
C29	C	-4.064793	-0.347388	-0.713978
C30	C	-3.564793	0.152612	-0.213978
C31	C	-4.007317	-0.348266	-0.584056
C32	C	-3.507317	0.151734	-0.084056
C33	C	-3.905097	-0.551781	-0.151035
C34	C	-3.405097	-0.051781	0.348965
C35	C	-3.961522	-0.679301	-0.150164
C36	C	-3.461522	-0.179301	0.349836
C37	C	-4.064787	-0.912775	-0.148571
C38	C	-3.564787	-0.412775	0.351429
C39	C	-4.007315	-0.782853	-0.149457
C40	C	-3.507315	-0.282853	0.350543
C41	C	-4.187806	-0.345810	0.054940
C42	C	-3.687806	0.154190	0.554940
C43	C	-4.110619	-0.346684	0.182460
C44	C	-3.610619	0.153316	0.682460
C45	C	-4.187803	-0.143858	-0.147004
C46	C	-3.687803	0.356142	0.352996
C47	C	-4.110616	-0.016337	-0.147869
C48	C	-3.610616	0.483663	0.352131
