data_functionalizedCrystal
_audit_creation_method	'MofGen! by Chris Wilmer'
_symmetry_space_group_name_H-M	'P1'
_symmetry_Int_Tables_number	1
_symmetry_cell_setting	triclinic
loop_
_symmetry_equiv_pos_as_xyz
  x,y,z
_cell_length_a	10.968094
_cell_length_b	14.971486
_cell_length_c	14.048226
_cell_angle_alpha	90.006640
_cell_angle_beta	102.121009
_cell_angle_gamma	95.826066
loop_
_atom_site_label
_atom_site_type_symbol
_atom_site_fract_x
_atom_site_fract_y
_atom_site_fract_z
O1	O	1.655801	-0.125418	0.192430
O2	O	2.155801	0.374582	0.692430
O3	O	1.292541	-0.137434	0.132845
O4	O	1.792541	0.362566	0.632845
O5	O	1.483907	-0.001278	0.164241
O6	O	1.983907	0.498722	0.664241
O7	O	1.464435	-0.261574	0.161034
O8	O	1.964435	0.238426	0.661034
O9	O	1.483884	-0.001270	0.322559
O10	O	1.983884	0.498730	0.822559
O11	O	1.292518	-0.137426	0.291162
O12	O	1.792518	0.362574	0.791162
O13	O	1.655778	-0.125410	0.350748
O14	O	2.155778	0.374590	0.850748
Zn15	Zn	1.474144	-0.131416	0.346092
Zn16	Zn	1.974144	0.368584	0.846092
Zn17	Zn	1.474175	-0.131427	0.137501
Zn18	Zn	1.974175	0.368573	0.637501
O19	O	1.464411	-0.261566	0.319351
O20	O	1.964411	0.238434	0.819351
C21	C	1.246041	-0.136557	0.204378
C22	C	1.746041	0.363443	0.704378
C23	C	1.107521	-0.133946	0.181657
C24	C	1.607521	0.366054	0.681657
C25	C	0.902578	-0.130069	0.230051
C26	C	1.402578	0.369931	0.730051
C27	C	1.045744	-0.132775	0.253544
C28	C	1.545744	0.367225	0.753544
C29	C	1.483025	0.032055	0.243257
C30	C	1.983025	0.532055	0.743257
C31	C	1.480415	0.131367	0.242828
C32	C	1.980415	0.631367	0.742828
C33	C	1.702278	-0.126286	0.279212
C34	C	2.202278	0.373714	0.779212
C35	C	1.840798	-0.128898	0.301927
C36	C	2.340798	0.371102	0.801927
C37	C	1.465294	-0.294899	0.240334
C38	C	1.965294	0.205101	0.740334
C39	C	1.467904	-0.394210	0.240756
C40	C	1.967904	0.105790	0.740756
N41	N	1.474133	-0.131409	0.488450
N42	N	1.974133	0.368591	0.988450
C43	C	1.592838	0.187991	0.261270
C44	C	2.092838	0.687991	0.761270
C45	C	1.590378	0.281303	0.260857
C46	C	2.090378	0.781303	0.760857
C47	C	1.475495	0.317990	0.242009
C48	C	1.975495	0.817990	0.742009
C49	C	1.363064	0.261358	0.223563
C50	C	1.863064	0.761358	0.723563
C51	C	1.365524	0.168048	0.223970
C52	C	1.865524	0.668048	0.723970
C53	C	1.357942	0.455848	0.222720
C54	C	1.857942	0.955848	0.722720
C55	C	1.355481	0.549165	0.222315
C56	C	1.855481	1.049165	0.722315
C57	C	1.582796	0.569104	0.259607
C58	C	2.082796	1.069104	0.759607
C59	C	1.585257	0.475793	0.260013
C60	C	2.085257	0.975793	0.760013
C61	C	1.472825	0.419168	0.241569
C62	C	1.972825	0.919168	0.741569
N63	N	1.474196	-0.131428	-0.004856
N64	N	1.974196	0.368572	0.495144
C65	C	1.558896	-0.071144	0.552175
C66	C	2.058896	0.428856	1.052175
C67	C	1.558905	-0.071143	0.651834
C68	C	2.058905	0.428857	1.151834
C69	C	1.474154	-0.131413	0.687767
C70	C	1.974154	0.368587	1.187767
C71	C	1.389382	-0.191680	0.624034
C72	C	1.889382	0.308320	1.124034
C73	C	1.389368	-0.191676	0.524376
C74	C	1.889368	0.308324	1.024376
C75	C	1.389418	-0.191687	0.831754
C76	C	1.889418	0.308313	1.331754
C77	C	1.389432	-0.191693	0.931419
C78	C	1.889432	0.308307	1.431419
C79	C	1.558954	-0.071155	0.959212
C80	C	2.058954	0.428845	1.459212
C81	C	1.558941	-0.071150	0.859554
C82	C	2.058941	0.428850	1.359554
C83	C	1.474169	-0.131419	0.795828
C84	C	1.974169	0.368581	1.295828
H85	H	1.686389	0.158128	0.276623
H86	H	2.186389	0.658128	0.776623
Br87	Br	1.212945	0.091199	0.198933
Br88	Br	1.712945	0.591199	0.698933
H89	H	1.627925	-0.022071	0.703719
H90	H	2.127925	0.477929	1.203719
H91	H	0.893898	-0.129894	0.380856
H92	H	1.393898	0.370106	0.880856
H93	H	1.320383	-0.240762	0.779870
H94	H	1.820383	0.259238	1.279870
Br95	Br	1.673931	0.010649	0.503422
Br96	Br	2.173931	0.510649	1.003422
H97	H	1.261933	0.579032	0.206983
H98	H	1.761933	1.079032	0.706983
Br99	Br	1.742959	0.358148	0.285885
Br100	Br	2.242959	0.858148	0.785885
H101	H	1.266388	0.409746	0.207698
H102	H	1.766388	0.909746	0.707698
Br103	Br	1.741172	0.426004	0.285590
Br104	Br	2.241172	0.926004	0.785590
H105	H	1.269523	0.291236	0.208211
H106	H	1.769523	0.791236	0.708211
Br107	Br	1.019037	-0.132300	0.050092
Br108	Br	1.519037	0.367700	0.550092
H109	H	1.627977	-0.022082	1.011104
H110	H	2.127977	0.477918	1.511104
Br111	Br	1.673969	0.010636	0.810786
Br112	Br	2.173969	0.510636	1.310786
H113	H	0.849480	-0.129064	0.151122
H114	H	1.349480	0.370936	0.651122
Br115	Br	1.134230	-0.134430	0.385108
Br116	Br	1.634230	0.365570	0.885108
Br117	Br	1.274409	-0.273491	0.980178
Br118	Br	1.774409	0.226509	1.480178
Br119	Br	1.274351	-0.273470	0.672795
Br120	Br	1.774351	0.226530	1.172795
Br121	Br	1.735383	0.645951	0.284636
Br122	Br	2.235383	1.145951	0.784636
Br123	Br	1.274318	-0.273461	0.437890
Br124	Br	1.774318	0.226539	0.937890
