data_functionalizedCrystal
_audit_creation_method	'MofGen! by Chris Wilmer'
_symmetry_space_group_name_H-M	'P1'
_symmetry_Int_Tables_number	1
_symmetry_cell_setting	triclinic
loop_
_symmetry_equiv_pos_as_xyz
  x,y,z
_cell_length_a	12.759401
_cell_length_b	12.759387
_cell_length_c	12.759400
_cell_angle_alpha	90.032087
_cell_angle_beta	89.986201
_cell_angle_gamma	89.980799
loop_
_atom_site_label
_atom_site_type_symbol
_atom_site_fract_x
_atom_site_fract_y
_atom_site_fract_z
Zn1	Zn	1.606250	-0.594015	0.418224
Zn2	Zn	1.606146	-0.418335	0.593944
Zn3	Zn	1.430554	-0.418351	0.418277
Zn4	Zn	1.430541	-0.593973	0.593859
O5	O	1.518373	-0.506168	0.506076
O6	O	1.753258	-0.570722	0.441547
O7	O	1.582815	-0.271316	0.570700
O8	O	1.453909	-0.441677	0.271249
O9	O	1.753181	-0.441650	0.570648
O10	O	1.582993	-0.570737	0.271210
O11	O	1.453808	-0.271327	0.441638
O12	O	1.283531	-0.441636	0.441555
O13	O	1.453888	-0.741000	0.570502
O14	O	1.283522	-0.570665	0.570554
O15	O	1.582981	-0.741031	0.441464
O16	O	1.582803	-0.441610	0.740954
O17	O	1.453787	-0.570650	0.740891
C18	C	1.245406	-0.506148	0.506052
C19	C	1.128629	-0.506165	0.506066
C20	C	1.073741	-0.439103	0.438808
C21	C	0.964017	-0.439116	0.438833
C22	C	0.964079	-0.573262	0.573377
C23	C	1.073801	-0.573243	0.573357
C24	C	1.073705	-0.361658	0.361127
C25	C	0.963981	-0.361671	0.361152
C26	C	1.518444	-0.780202	0.505967
C27	C	1.518475	-0.896979	0.505921
C28	C	1.384148	-0.897010	0.371520
C29	C	1.317005	-0.951886	0.304299
C30	C	1.317036	-1.061608	0.304261
C31	C	1.384216	-1.116455	0.371454
C32	C	1.451360	-1.061579	0.438675
C33	C	1.451324	-0.951855	0.438703
C34	C	1.585680	-1.061548	0.573080
C35	C	1.585655	-0.951827	0.573114
C36	C	1.652860	-1.116396	0.640273
C37	C	1.720011	-1.061520	0.707491
C38	C	1.719977	-0.951792	0.707525
C39	C	1.652799	-0.896950	0.640336
C40	C	1.792406	-0.506189	0.506101
C41	C	1.909183	-0.506198	0.506112
C42	C	1.518311	-0.506146	0.779043
C43	C	1.518380	-0.506172	0.895820
C44	C	1.518362	-0.233201	0.506108
C45	C	1.518536	-0.116425	0.505858
C46	C	1.518464	-0.506213	0.232043
C47	C	1.518503	-0.506232	0.115266
C48	C	1.585633	-0.439055	0.950680
C49	C	1.585698	-0.439088	1.060404
C50	C	1.451247	-0.573357	1.060398
C51	C	1.451188	-0.573329	0.950676
C52	C	1.663255	-0.361532	0.950684
C53	C	1.663319	-0.361565	1.060408
H54	H	0.934217	-0.383608	0.279812
C55	C	1.384114	-0.776313	0.371549
N56	N	1.384086	-0.685402	0.371569
C57	C	1.767752	-0.401026	1.106273
N58	N	1.846410	-0.430746	1.140819
C59	C	0.917947	-0.257181	0.400393
N60	N	0.883274	-0.178479	0.429947
H61	H	1.262305	-0.907217	0.249594
C62	C	1.243175	-1.121973	0.230314
N63	N	1.187545	-1.167440	0.174615
H64	H	1.384227	-1.205797	0.371426
C65	C	1.652887	-1.237093	0.640235
N66	N	1.652910	-1.328004	0.640206
C67	C	0.903757	-0.647049	0.647389
N68	N	0.858324	-0.702628	0.703133
C69	C	1.793722	-1.121859	0.781573
N70	N	1.849181	-1.167311	0.837434
H71	H	1.118486	-0.627841	0.628135
C72	C	1.377255	-0.647213	0.890334
N73	N	1.321579	-0.702880	0.844885
C74	C	1.113877	-0.251676	0.390434
N75	N	1.144135	-0.168839	0.412510
C76	C	1.377333	-0.647219	1.120751
N77	N	1.321656	-0.702850	1.166207
C78	C	1.793849	-0.891437	0.781469
N79	N	1.849495	-0.845981	0.837161
C80	C	1.652755	-0.776253	0.640368
N81	N	1.652715	-0.685343	0.640393
C82	C	1.119712	-0.401202	0.256745
N83	N	1.154366	-0.430987	0.178124
C84	C	1.773143	-0.391057	0.910344
N85	N	1.855908	-0.413296	0.879960
H86	H	1.634130	-0.284206	0.916737
C87	C	1.633948	-0.251627	1.100756
N88	N	1.611823	-0.168826	1.131145
