data_functionalizedCrystal
_audit_creation_method	'MofGen! by Chris Wilmer'
_symmetry_space_group_name_H-M	'P1'
_symmetry_Int_Tables_number	1
_symmetry_cell_setting	triclinic
loop_
_symmetry_equiv_pos_as_xyz
  x,y,z
_cell_length_a	18.101398
_cell_length_b	18.101395
_cell_length_c	12.759393
_cell_angle_alpha	89.966555
_cell_angle_beta	89.987570
_cell_angle_gamma	90.026661
loop_
_atom_site_label
_atom_site_type_symbol
_atom_site_fract_x
_atom_site_fract_y
_atom_site_fract_z
Zn1	Zn	1.132141	-0.294874	-0.593797
Zn2	Zn	1.632141	0.205126	-0.093797
Zn3	Zn	1.132031	-0.418735	-0.418112
Zn4	Zn	1.632031	0.081265	0.081888
Zn5	Zn	1.008294	-0.294903	-0.418155
Zn6	Zn	1.508294	0.205097	0.081845
Zn7	Zn	1.008250	-0.418668	-0.593772
Zn8	Zn	1.508250	0.081332	-0.093772
O9	O	1.070179	-0.356795	-0.505959
O10	O	1.570179	0.143205	-0.005959
O11	O	1.235759	-0.311320	-0.570485
O12	O	1.735759	0.188680	-0.070485
O13	O	1.115589	-0.402349	-0.271096
O14	O	1.615589	0.097651	0.228904
O15	O	1.024786	-0.191266	-0.441484
O16	O	1.524786	0.308734	0.058516
O17	O	1.235678	-0.402321	-0.441409
O18	O	1.735678	0.097679	0.058591
O19	O	1.115776	-0.191245	-0.570527
O20	O	1.615776	0.308755	-0.070527
O21	O	1.024680	-0.311369	-0.271129
O22	O	1.524680	0.188631	0.228871
O23	O	0.904655	-0.311304	-0.441459
O24	O	1.404655	0.188696	0.058541
O25	O	1.024712	-0.402207	-0.740796
O26	O	1.524712	0.097793	-0.240796
O27	O	0.904623	-0.402235	-0.570484
O28	O	1.404623	0.097765	-0.070484
O29	O	1.115734	-0.311255	-0.740815
O30	O	1.615734	0.188745	-0.240815
O31	O	1.115547	-0.522359	-0.441385
O32	O	1.615547	-0.022359	0.058615
O33	O	1.024606	-0.522310	-0.570441
O34	O	1.524606	-0.022310	-0.070441
C35	C	0.877768	-0.356766	-0.505974
C36	C	1.377768	0.143234	-0.005974
C37	C	0.795454	-0.356771	-0.506005
C38	C	1.295454	0.143229	-0.006005
C39	C	0.496363	-0.356815	-0.505961
C40	C	0.996363	0.143185	-0.005961
C41	C	0.527693	-0.414302	-0.586739
C42	C	1.027693	0.085698	-0.086739
C43	C	0.613311	-0.414122	-0.587071
C44	C	1.113311	0.085878	-0.087071
C45	C	0.644746	-0.356794	-0.505983
C46	C	1.144746	0.143206	-0.005983
C47	C	0.613692	-0.278789	-0.536237
C48	C	1.113692	0.221211	-0.036237
C49	C	0.528047	-0.279134	-0.536811
C50	C	1.028047	0.220866	-0.036811
C51	C	0.527907	-0.376645	-0.394734
C52	C	1.027907	0.123355	0.105266
C53	C	0.613557	-0.378356	-0.395329
C54	C	1.113557	0.121644	0.104671
C55	C	0.728605	-0.356777	-0.505993
C56	C	1.228605	0.143223	-0.005993
C57	C	0.412504	-0.356826	-0.505953
C58	C	0.912504	0.143174	-0.005953
C59	C	1.070080	-0.549206	-0.505928
C60	C	1.570080	-0.049206	-0.005928
C61	C	1.070105	-0.631520	-0.505950
C62	C	1.570105	-0.131520	-0.005950
C63	C	1.070268	-0.930611	-0.506007
C64	C	1.570268	-0.430611	-0.006007
C65	C	1.013183	-0.899285	-0.587407
C66	C	1.513183	-0.399285	-0.087407
C67	C	1.012911	-0.813667	-0.587153
C68	C	1.512911	-0.313667	-0.087153
C69	C	1.070187	-0.782228	-0.505980
C70	C	1.570187	-0.282228	-0.005980
C71	C	1.049054	-0.813386	-0.395258
C72	C	1.549054	-0.313386	0.104742
C73	C	1.048686	-0.899031	-0.395745
C74	C	1.548686	-0.399031	0.104255
C75	C	1.148610	-0.898958	-0.534353
C76	C	1.648610	-0.398958	-0.034353
C77	C	1.148150	-0.813307	-0.536782
C78	C	1.648150	-0.313307	-0.036782
C79	C	1.070143	-0.698369	-0.505957
C80	C	1.570143	-0.198369	-0.005957
C81	C	1.070310	-1.014470	-0.506021
C82	C	1.570310	-0.514470	-0.006021
C83	C	1.263341	-0.356825	-0.505945
C84	C	1.763341	0.143175	-0.005945
C85	C	1.345655	-0.356838	-0.505939
C86	C	1.845655	0.143162	-0.005939
C87	C	1.070231	-0.356720	-0.779993
C88	C	1.570231	0.143280	-0.279993
C89	C	1.070253	-0.356689	-0.896769
C90	C	1.570253	0.143311	-0.396769
C91	C	1.070298	-0.163633	-0.506013
C92	C	1.570298	0.336367	-0.006013
C93	C	1.070349	-0.081319	-0.506036
C94	C	1.570349	0.418681	-0.006036
C95	C	1.117654	-0.309326	-0.951643
C96	C	1.617654	0.190674	-0.451643
C97	C	1.117672	-0.309299	-1.061367
C98	C	1.617672	0.190701	-0.561367
C99	C	1.022884	-0.404004	-1.061334
C100	C	1.522884	0.095996	-0.561334
C101	C	1.022864	-0.404027	-0.951612
C102	C	1.522864	0.095973	-0.451612
C103	C	1.165043	-0.261987	-0.896800
C104	C	1.665043	0.238013	-0.396800
C105	C	1.212449	-0.214621	-0.951674
C106	C	1.712449	0.285379	-0.451674
C107	C	1.212467	-0.214594	-1.061398
C108	C	1.712467	0.285406	-0.561398
C109	C	1.165079	-0.261934	-1.116248
C110	C	1.665079	0.238066	-0.616248
C111	C	1.070170	-0.356816	-0.232992
C112	C	1.570170	0.143184	0.267008
C113	C	1.070291	-0.356639	-0.116216
C114	C	1.570291	0.143361	0.383784
H115	H	0.634955	-0.339526	-0.331911
H116	H	1.134955	0.160474	0.168089
Cl117	Cl	0.496624	-0.311999	-0.301808
Cl118	Cl	0.996624	0.188001	0.198192
H119	H	0.507324	-0.234767	-0.480674
H120	H	1.007324	0.265233	0.019326
Cl121	Cl	1.272064	-0.155052	-1.130379
Cl122	Cl	1.772064	0.344948	-0.630379
Cl123	Cl	0.963318	-0.463515	-1.130290
Cl124	Cl	1.463318	0.036485	-0.630290
Cl125	Cl	1.178356	-0.932217	-0.656883
Cl126	Cl	1.678356	-0.432217	-0.156883
H127	H	0.633817	-0.401001	-0.669483
H128	H	1.133817	0.098999	-0.169483
H129	H	1.026133	-0.792598	-0.669252
H130	H	1.526133	-0.292598	-0.169252
H131	H	1.165036	-0.262005	-0.807457
H132	H	1.665036	0.237995	-0.307457
H133	H	1.165088	-0.261900	-1.205593
H134	H	1.665088	0.238100	-0.705593
H135	H	0.508089	-0.262316	-0.618123
H136	H	1.008089	0.237684	-0.118123
H137	H	1.251027	-0.176075	-0.907007
H138	H	1.751027	0.323925	-0.407007
H139	H	0.634306	-0.471967	-0.568110
H140	H	1.134306	0.028033	-0.068110
Cl141	Cl	0.495858	-0.503904	-0.557803
Cl142	Cl	0.995858	-0.003904	-0.057803
Cl143	Cl	0.644891	-0.466984	-0.360104
Cl144	Cl	1.144891	0.033016	0.139896
Cl145	Cl	0.645132	-0.210862	-0.448241
Cl146	Cl	1.145132	0.289138	0.051759
H147	H	1.191140	-0.919216	-0.475066
H148	H	1.691140	-0.419216	0.024934
H149	H	0.992392	-0.791999	-0.370813
H150	H	1.492392	-0.291999	0.129187
H151	H	0.635160	-0.261668	-0.616665
H152	H	1.135160	0.238332	-0.116665
H153	H	0.984254	-0.442582	-0.906933
H154	H	1.484254	0.057418	-0.406933
Cl155	Cl	0.494525	-0.462957	-0.352274
Cl156	Cl	0.994525	0.037043	0.147726
H157	H	1.026274	-0.919828	-0.669773
H158	H	1.526274	-0.419828	-0.169773
Cl159	Cl	0.924075	-0.932624	-0.558808
Cl160	Cl	1.424075	-0.432624	-0.058808
Cl161	Cl	0.494472	-0.394319	-0.713239
Cl162	Cl	0.994472	0.105681	-0.213239
H163	H	0.954842	-0.793241	-0.568377
H164	H	1.454842	-0.293241	-0.068377
H165	H	0.991418	-0.919072	-0.371730
H166	H	1.491418	-0.419072	0.128270
Cl167	Cl	1.110085	-0.931033	-0.298908
Cl168	Cl	1.610085	-0.431033	0.201092
Cl169	Cl	1.111225	-0.781951	-0.299062
Cl170	Cl	1.611225	-0.281951	0.200938
H171	H	1.164086	-0.792939	-0.618267
H172	H	1.664086	-0.292939	-0.118267
H173	H	1.192931	-0.791902	-0.481814
H174	H	1.692931	-0.291902	0.018186
