data_functionalizedCrystal
_audit_creation_method	'MofGen! by Chris Wilmer'
_symmetry_space_group_name_H-M	'P1'
_symmetry_Int_Tables_number	1
_symmetry_cell_setting	triclinic
loop_
_symmetry_equiv_pos_as_xyz
  x,y,z
_cell_length_a	18.215407
_cell_length_b	12.759400
_cell_length_c	18.215399
_cell_angle_alpha	90.023429
_cell_angle_beta	90.017813
_cell_angle_gamma	90.007678
loop_
_atom_site_label
_atom_site_type_symbol
_atom_site_fract_x
_atom_site_fract_y
_atom_site_fract_z
Zn1	Zn	1.125132	-0.418431	0.416099
Zn2	Zn	1.125065	-0.594128	0.293043
Zn3	Zn	1.002064	-0.418447	0.293051
Zn4	Zn	1.002055	-0.594052	0.416072
O5	O	1.063579	-0.506264	0.354566
O6	O	1.228107	-0.441763	0.399784
O7	O	1.108725	-0.570863	0.190060
O8	O	1.018421	-0.271424	0.309389
O9	O	1.228059	-0.570847	0.309374
O10	O	1.108838	-0.271412	0.399792
O11	O	1.018357	-0.441790	0.190066
O12	O	0.899079	-0.441716	0.309362
O13	O	1.018406	-0.570716	0.519060
O14	O	0.899072	-0.570732	0.399745
O15	O	1.108830	-0.441689	0.519080
O16	O	1.108716	-0.741139	0.309348
O17	O	1.018341	-0.741083	0.399737
C18	C	0.872373	-0.506218	0.354552
C19	C	0.790574	-0.506224	0.354563
C20	C	0.525536	-0.439180	0.401717
C21	C	0.602395	-0.439163	0.401715
C22	C	0.602363	-0.573383	0.307431
C23	C	0.525506	-0.573405	0.307438
C24	C	0.487095	-0.506297	0.354580
C25	C	0.640811	-0.506258	0.354571
C26	C	0.724144	-0.506241	0.354568
C27	C	0.403756	-0.506316	0.354584
C28	C	1.063541	-0.779232	0.354555
C29	C	1.063592	-0.896008	0.354574
C30	C	1.110648	-0.950785	0.401686
C31	C	1.110682	-1.060509	0.401704
C32	C	1.016601	-1.060671	0.307492
C33	C	1.016564	-0.950949	0.307479
C34	C	1.157676	-0.895844	0.448781
C35	C	1.204737	-0.950621	0.495896
C36	C	1.204771	-1.060345	0.495914
C37	C	1.157744	-1.115292	0.448817
C38	C	1.255532	-0.506312	0.354581
C39	C	1.337331	-0.506332	0.354587
C40	C	1.063624	-0.506192	0.546519
C41	C	1.063643	-0.506161	0.628318
C42	C	1.063638	-0.232231	0.354594
C43	C	1.063663	-0.115455	0.354606
C44	C	1.063577	-0.506261	0.163360
C45	C	1.063700	-0.505996	0.081562
C46	C	1.110744	-0.438914	0.816524
C47	C	1.110753	-0.438883	0.893383
C48	C	1.016595	-0.573246	0.893350
C49	C	1.016583	-0.573271	0.816493
C50	C	1.063661	-0.506106	0.778082
C51	C	1.063682	-0.506051	0.931798
C52	C	1.063691	-0.506018	1.015132
C53	C	1.063652	-0.506137	0.694743
H54	H	0.494206	-0.628065	0.269052
H55	H	0.978245	-0.906350	0.269117
H56	H	0.633648	-0.628018	0.269049
C57	C	1.157637	-0.775152	0.448767
H58	H	1.192379	-0.750275	0.483565
H59	H	1.170376	-0.750360	0.401283
H60	H	1.110129	-0.750363	0.461457
C61	C	1.256461	-0.890183	0.547699
H62	H	1.249707	-0.816991	0.540937
H63	H	1.245671	-0.908128	0.597139
H64	H	1.305921	-0.908135	0.536968
C65	C	1.256534	-1.120596	0.547737
H66	H	1.284538	-1.072158	0.575777
H67	H	1.228383	-1.163396	0.579786
H68	H	1.288630	-1.163393	0.519612
H69	H	1.149076	-0.384221	0.785252
C70	C	1.157750	-1.235986	0.448869
H71	H	1.192504	-1.260742	0.483681
H72	H	1.110251	-1.260792	0.461565
H73	H	1.170508	-1.260883	0.401400
C74	C	0.964883	-1.121111	0.255686
H75	H	0.971650	-1.194302	0.262436
H76	H	0.915423	-1.103167	0.266407
H77	H	0.975682	-1.103160	0.206244
C78	C	0.964817	-0.647131	0.935602
H79	H	0.936770	-0.687146	0.901697
H80	H	0.992965	-0.692904	0.965582
H81	H	0.932761	-0.606921	0.965584
C82	C	1.162547	-0.364976	0.935666
H83	H	1.190585	-0.324988	0.901779
H84	H	1.134411	-0.319181	0.965649
H85	H	1.194610	-0.405171	0.965647
H86	H	0.633691	-0.384510	0.440100
C87	C	0.964791	-0.647184	0.774200
H88	H	0.971522	-0.637569	0.722926
H89	H	0.975546	-0.717774	0.786785
H90	H	0.915346	-0.631785	0.786790
C91	C	0.483286	-0.365378	0.453580
H92	H	0.517191	-0.325412	0.481658
H93	H	0.453288	-0.319557	0.425489
H94	H	0.453321	-0.405644	0.485603
