data_functionalizedCrystal
_audit_creation_method	'MofGen! by Chris Wilmer'
_symmetry_space_group_name_H-M	'P1'
_symmetry_Int_Tables_number	1
_symmetry_cell_setting	triclinic
loop_
_symmetry_equiv_pos_as_xyz
  x,y,z
_cell_length_a	17.019292
_cell_length_b	15.500215
_cell_length_c	14.044220
_cell_angle_alpha	87.067564
_cell_angle_beta	88.278650
_cell_angle_gamma	90.690427
loop_
_atom_site_label
_atom_site_type_symbol
_atom_site_fract_x
_atom_site_fract_y
_atom_site_fract_z
O1	O	-1.054843	-0.006675	-0.120339
O2	O	-0.721509	0.326659	0.212995
O3	O	-0.388176	0.659992	0.546328
O4	O	-0.827099	0.010302	-0.136672
O5	O	-0.493766	0.343635	0.196661
O6	O	-0.160432	0.676969	0.529994
O7	O	-0.937552	0.002060	0.009461
O8	O	-0.604219	0.335393	0.342794
O9	O	-0.270885	0.668727	0.676128
O10	O	-0.944390	0.001567	-0.266472
O11	O	-0.611056	0.334901	0.066862
O12	O	-0.277723	0.668234	0.400195
O13	O	-0.930472	-0.141302	0.017287
O14	O	-0.597139	0.192031	0.350620
O15	O	-0.263806	0.525365	0.683954
O16	O	-0.820020	-0.133060	-0.128846
O17	O	-0.486686	0.200273	0.204487
O18	O	-0.153353	0.533607	0.537820
O19	O	-1.047763	-0.150037	-0.112513
O20	O	-0.714430	0.183297	0.220821
O21	O	-0.381096	0.516630	0.554154
Cu22	Cu	-0.933245	-0.154638	-0.119965
Cu23	Cu	-0.599912	0.178695	0.213368
Cu24	Cu	-0.266578	0.512028	0.546702
Cu25	Cu	-0.941617	0.014904	-0.129220
Cu26	Cu	-0.608284	0.348237	0.204113
Cu27	Cu	-0.274951	0.681570	0.537447
O28	O	-0.937310	-0.141795	-0.258646
O29	O	-0.603977	0.191539	0.074688
O30	O	-0.270643	0.524872	0.408021
C31	C	-0.794237	-0.059193	-0.132296
C32	C	-0.460904	0.274140	0.201037
C33	C	-0.127570	0.607473	0.534371
C34	C	-0.706865	-0.052681	-0.130904
C35	C	-0.373532	0.280653	0.202429
C36	C	-0.040198	0.613986	0.535763
N37	N	-0.927362	-0.273886	-0.113455
N38	N	-0.594028	0.059448	0.219879
N39	N	-0.260695	0.392781	0.553212
C40	C	-0.661963	-0.127769	-0.125982
C41	C	-0.328630	0.205564	0.207352
C42	C	0.004704	0.538897	0.540685
C43	C	-0.579868	-0.121653	-0.124659
C44	C	-0.246535	0.211681	0.208675
C45	C	0.086799	0.545014	0.542008
C46	C	-0.542677	-0.040446	-0.128265
C47	C	-0.209343	0.292887	0.205069
C48	C	0.123990	0.626221	0.538402
C49	C	-0.587585	0.034649	-0.133185
C50	C	-0.254252	0.367982	0.200149
C51	C	0.079082	0.701315	0.533482
C52	C	-0.669679	0.028531	-0.134501
C53	C	-0.336345	0.361864	0.198832
C54	C	-0.003012	0.695198	0.532166
C55	C	-0.295000	-0.018065	-0.124498
C56	C	0.038333	0.315269	0.208836
C57	C	0.371666	0.648602	0.542169
C58	C	-0.212901	-0.011952	-0.123184
C59	C	0.120433	0.321381	0.210149
C60	C	0.453766	0.654714	0.543483
C61	C	-0.205190	-0.168254	-0.114656
C62	C	0.128144	0.165079	0.218677
C63	C	0.461477	0.498412	0.552010
C64	C	-0.287285	-0.174365	-0.115979
C65	C	0.046049	0.158968	0.217355
C66	C	0.379382	0.492302	0.550688
C67	C	-0.332186	-0.099270	-0.120893
C68	C	0.001147	0.234063	0.212440
C69	C	0.334481	0.567396	0.545773
C70	C	-0.458763	-0.034191	-0.126915
C71	C	-0.125429	0.299142	0.206418
C72	C	0.207904	0.632475	0.539751
C73	C	-0.416099	-0.105526	-0.122236
C74	C	-0.082766	0.227808	0.211098
C75	C	0.250568	0.561141	0.544431
C76	C	-0.976830	-0.322843	-0.168235
C77	C	-0.643497	0.010491	0.165098
C78	C	-0.310163	0.343824	0.498431
C79	C	-0.972391	-0.413085	-0.163306
C80	C	-0.639057	-0.079752	0.170028
C81	C	-0.305724	0.253582	0.503361
C82	C	-0.918479	-0.454369	-0.103600
C83	C	-0.585146	-0.121035	0.229733
C84	C	-0.251812	0.212298	0.563067
C85	C	-0.869009	-0.405405	-0.048813
C86	C	-0.535675	-0.072072	0.284520
C87	C	-0.202342	0.261261	0.617854
C88	C	-0.873452	-0.315165	-0.053738
C89	C	-0.540119	0.018169	0.279595
C90	C	-0.206786	0.351502	0.612929
C91	C	-0.902480	-0.726645	-0.085861
C92	C	-0.569146	-0.393312	0.247472
C93	C	-0.235813	-0.059979	0.580806
C94	C	-0.898038	-0.816893	-0.080942
C95	C	-0.564705	-0.483559	0.252391
C96	C	-0.231371	-0.150226	0.585725
C97	C	-1.001422	-0.824566	-0.195434
C98	C	-0.668088	-0.491233	0.137899
C99	C	-0.334755	-0.157899	0.471233
C100	C	-1.005857	-0.734323	-0.200358
C101	C	-0.672524	-0.400990	0.132975
C102	C	-0.339190	-0.067657	0.466309
C103	C	-0.956390	-0.685368	-0.145567
C104	C	-0.623056	-0.352035	0.187766
C105	C	-0.289723	-0.018701	0.521099
C106	C	-0.913938	-0.546611	-0.098562
C107	C	-0.580605	-0.213278	0.234771
C108	C	-0.247272	0.120056	0.568105
C109	C	-0.960935	-0.593128	-0.150601
C110	C	-0.627601	-0.259794	0.182732
C111	C	-0.294268	0.073539	0.516066
C112	C	-0.080626	-0.080538	-0.116884
C113	C	0.252708	0.252795	0.216449
C114	C	0.586041	0.586128	0.549783
C115	C	-0.167999	-0.087041	-0.118262
C116	C	0.165335	0.246292	0.215072
C117	C	0.498668	0.579625	0.548405
C118	C	-0.931020	-0.069398	0.048672
C119	C	-0.597686	0.263935	0.382005
C120	C	-0.264353	0.597268	0.715339
C121	C	-0.922093	-0.068734	0.153849
C122	C	-0.588759	0.264599	0.487182
C123	C	-0.255426	0.597933	0.820516
N124	N	-0.947506	0.134151	-0.135723
N125	N	-0.614173	0.467484	0.197611
N126	N	-0.280839	0.800817	0.530944
C127	C	-0.943843	-0.070334	-0.297857
C128	C	-0.610509	0.262999	0.035476
C129	C	-0.277176	0.596332	0.368810
C130	C	-0.952770	-0.070993	-0.403034
C131	C	-0.619437	0.262340	-0.069701
C132	C	-0.286103	0.595673	0.263632
C133	C	-0.905773	-0.067505	0.346420
C134	C	-0.572440	0.265828	0.679754
C135	C	-0.239107	0.599162	1.013087
C136	C	-0.969086	-0.072222	0.404400
C137	C	-0.635753	0.261111	0.737733
C138	C	-0.302419	0.594445	1.071067
C139	C	-0.960005	-0.071538	0.511553
C140	C	-0.626672	0.261795	0.844887
C141	C	-0.293339	0.595129	1.178220
C142	C	-0.914852	-0.068189	0.239257
C143	C	-0.581519	0.265145	0.572590
C144	C	-0.248186	0.598478	0.905924
H145	H	-0.692237	-0.193897	-0.123053
H146	H	-0.358904	0.139437	0.210280
H147	H	-0.025571	0.472770	0.543614
Br148	Br	-1.068552	-0.891009	-0.269788
Br149	Br	-0.735219	-0.557676	0.063545
Br150	Br	-0.401885	-0.224343	0.396878
Br151	Br	-0.355928	0.083850	-0.131166
Br152	Br	-0.022594	0.417184	0.202167
Br153	Br	0.310739	0.750517	0.535500
Br154	Br	-1.070797	-0.079811	0.353009
Br155	Br	-0.737463	0.253522	0.686342
Br156	Br	-0.404130	0.586856	1.019675
Br157	Br	-0.730619	0.130441	-0.141173
Br158	Br	-0.397286	0.463775	0.192160
Br159	Br	-0.063952	0.797108	0.525494
H160	H	-0.844755	-0.062954	0.377256
H161	H	-0.511422	0.270379	0.710589
H162	H	-0.178088	0.603712	1.043922
Br163	Br	-1.078990	-0.678299	-0.281438
Br164	Br	-0.745656	-0.344966	0.051895
Br165	Br	-0.412323	-0.011632	0.385228
H166	H	-0.862200	-0.686797	-0.041246
H167	H	-0.528866	-0.353463	0.292088
H168	H	-0.195533	-0.020130	0.625421
H169	H	-0.317560	-0.240492	-0.113038
H170	H	0.015773	0.092841	0.220296
H171	H	0.349106	0.426175	0.553629
Br172	Br	-0.518931	-0.223564	-0.117994
Br173	Br	-0.185598	0.109769	0.215340
Br174	Br	0.147735	0.443103	0.548673
H175	H	-0.833170	-0.275305	-0.009130
H176	H	-0.499837	0.058029	0.324203
H177	H	-0.166503	0.391362	0.657537
Br178	Br	-0.824866	-0.872920	0.000091
Br179	Br	-0.491533	-0.539587	0.333425
Br180	Br	-0.158200	-0.206253	0.666758
H181	H	-0.182622	0.054179	-0.126123
H182	H	0.150711	0.387513	0.207210
H183	H	0.484044	0.720846	0.540543
H184	H	-0.168622	-0.229392	-0.110653
H185	H	0.164711	0.103941	0.222680
H186	H	0.498044	0.437275	0.556013
H187	H	-0.557298	0.100769	-0.136114
H188	H	-0.223964	0.434102	0.197219
H189	H	0.109369	0.767436	0.530553
Br190	Br	-1.049997	-0.266824	-0.249272
Br191	Br	-0.716664	0.066510	0.084061
Br192	Br	-0.383330	0.399843	0.417395
Br193	Br	-1.039530	-0.479524	-0.237654
Br194	Br	-0.706196	-0.146191	0.095679
Br195	Br	-0.372863	0.187143	0.429012
Br196	Br	-0.840770	-0.602646	-0.017540
Br197	Br	-0.507436	-0.269312	0.315793
Br198	Br	-0.174103	0.064021	0.649126
Br199	Br	-0.795845	-0.461432	0.032221
Br200	Br	-0.462511	-0.128099	0.365555
Br201	Br	-0.129178	0.205234	0.698888
H202	H	-0.446384	-0.171644	-0.119295
H203	H	-0.113051	0.161689	0.214038
H204	H	0.220283	0.495023	0.547371
H205	H	-0.428472	0.031927	-0.129851
H206	H	-0.095139	0.365261	0.203482
H207	H	0.238194	0.698594	0.536816
H208	H	-1.004832	-0.559511	-0.199210
H209	H	-0.671499	-0.226178	0.134124
H210	H	-0.338165	0.107156	0.467457
