data_functionalizedCrystal
_audit_creation_method	'MofGen! by Chris Wilmer'
_symmetry_space_group_name_H-M	'P1'
_symmetry_Int_Tables_number	1
_symmetry_cell_setting	triclinic
loop_
_symmetry_equiv_pos_as_xyz
  x,y,z
_cell_length_a	18.101397
_cell_length_b	21.395362
_cell_length_c	18.101390
_cell_angle_alpha	89.957156
_cell_angle_beta	90.035542
_cell_angle_gamma	89.961273
loop_
_atom_site_label
_atom_site_type_symbol
_atom_site_fract_x
_atom_site_fract_y
_atom_site_fract_z
Zn1	Zn	-0.294440	-0.957872	0.419184
Zn2	Zn	-0.044440	-0.707872	0.669184
Zn3	Zn	0.205560	-0.457872	0.919184
Zn4	Zn	0.455560	-0.207872	1.169184
Zn5	Zn	-0.418297	-0.957803	0.295337
Zn6	Zn	-0.168297	-0.707803	0.545337
Zn7	Zn	0.081703	-0.457803	0.795337
Zn8	Zn	0.331703	-0.207803	1.045337
Zn9	Zn	-0.294514	-0.853096	0.295306
Zn10	Zn	-0.044514	-0.603096	0.545306
Zn11	Zn	0.205486	-0.353096	0.795306
Zn12	Zn	0.455486	-0.103096	1.045306
Zn13	Zn	-0.418284	-0.853075	0.419086
Zn14	Zn	-0.168284	-0.603075	0.669086
Zn15	Zn	0.081716	-0.353075	0.919086
Zn16	Zn	0.331716	-0.103075	1.169086
O17	O	-0.356384	-0.905462	0.357229
O18	O	-0.106384	-0.655462	0.607229
O19	O	0.143616	-0.405462	0.857229
O20	O	0.393616	-0.155462	1.107229
O21	O	-0.310845	-1.045541	0.402810
O22	O	-0.060845	-0.795541	0.652810
O23	O	0.189155	-0.545541	0.902810
O24	O	0.439155	-0.295541	1.152810
O25	O	-0.401913	-0.943893	0.191700
O26	O	-0.151913	-0.693893	0.441700
O27	O	0.098087	-0.443893	0.691700
O28	O	0.348087	-0.193893	0.941700
O29	O	-0.190871	-0.867033	0.311767
O30	O	0.059129	-0.617033	0.561767
O31	O	0.309129	-0.367033	0.811767
O32	O	0.559129	-0.117033	1.061767
O33	O	-0.401842	-1.045490	0.311820
O34	O	-0.151842	-0.795490	0.561820
O35	O	0.098158	-0.545490	0.811820
O36	O	0.348158	-0.295490	1.061820
O37	O	-0.190817	-0.944011	0.402780
O38	O	0.059183	-0.694011	0.652780
O39	O	0.309183	-0.444011	0.902780
O40	O	0.559183	-0.194011	1.152780
O41	O	-0.310970	-0.866966	0.191677
O42	O	-0.060970	-0.616966	0.441677
O43	O	0.189030	-0.366966	0.691677
O44	O	0.439030	-0.116966	0.941677
O45	O	-0.310957	-0.765416	0.311672
O46	O	-0.060957	-0.515416	0.561672
O47	O	0.189043	-0.265416	0.811672
O48	O	0.439043	-0.015416	1.061672
O49	O	-0.401819	-0.866996	0.522732
O50	O	-0.151819	-0.616996	0.772732
O51	O	0.098181	-0.366996	1.022732
O52	O	0.348181	-0.116996	1.272732
O53	O	-0.401891	-0.765400	0.402613
O54	O	-0.151891	-0.515400	0.652613
O55	O	0.098109	-0.265400	0.902613
O56	O	0.348109	-0.015400	1.152613
O57	O	-0.310832	-0.943990	0.522804
O58	O	-0.060832	-0.693990	0.772804
O59	O	0.189168	-0.443990	1.022804
O60	O	0.439168	-0.193990	1.272804
O61	O	-0.521928	-0.943872	0.311725
O62	O	-0.271928	-0.693872	0.561725
O63	O	-0.021928	-0.443872	0.811725
O64	O	0.228072	-0.193872	1.061725
O65	O	-0.521919	-0.866929	0.402643
O66	O	-0.271919	-0.616929	0.652643
O67	O	-0.021919	-0.366929	0.902643
O68	O	0.228081	-0.116929	1.152643
C69	C	-0.356431	-0.742674	0.357129
C70	C	-0.106431	-0.492674	0.607129
C71	C	0.143569	-0.242674	0.857129
C72	C	0.393569	0.007326	1.107129
C73	C	-0.356469	-0.673033	0.357104
C74	C	-0.106469	-0.423033	0.607104
C75	C	0.143531	-0.173033	0.857104
C76	C	0.393531	0.076967	1.107104
C77	C	-0.403882	-0.640328	0.404383
C78	C	-0.153882	-0.390328	0.654383
C79	C	0.096118	-0.140328	0.904383
C80	C	0.346118	0.109672	1.154383
C81	C	-0.403867	-0.574892	0.404410
C82	C	-0.153867	-0.324892	0.654410
C83	C	0.096133	-0.074892	0.904410
C84	C	0.346133	0.175108	1.154410
C85	C	-0.356447	-0.542164	0.357146
C86	C	-0.106447	-0.292164	0.607146
C87	C	0.143553	-0.042164	0.857146
C88	C	0.393553	0.207836	1.107146
C89	C	-0.309024	-0.574877	0.309863
C90	C	-0.059024	-0.324877	0.559863
C91	C	0.190976	-0.074877	0.809863
C92	C	0.440976	0.175123	1.059863
C93	C	-0.309035	-0.640311	0.309842
C94	C	-0.059035	-0.390311	0.559842
C95	C	0.190965	-0.140311	0.809842
C96	C	0.440965	0.109689	1.059842
C97	C	-0.350504	-0.438444	0.290467
C98	C	-0.100504	-0.188444	0.540467
C99	C	0.149496	0.061556	0.790467
C100	C	0.399496	0.311556	1.040467
C101	C	-0.350498	-0.373011	0.290487
C102	C	-0.100498	-0.123011	0.540487
C103	C	0.149502	0.126989	0.790487
C104	C	0.399502	0.376989	1.040487
C105	C	-0.356408	-0.340344	0.357210
C106	C	-0.106408	-0.090344	0.607210
C107	C	0.143592	0.159656	0.857210
C108	C	0.393592	0.409656	1.107210
C109	C	-0.362340	-0.373117	0.423916
C110	C	-0.112340	-0.123117	0.673916
C111	C	0.137660	0.126883	0.923916
C112	C	0.387660	0.376883	1.173916
C113	C	-0.362351	-0.438551	0.423895
C114	C	-0.112351	-0.188551	0.673895
C115	C	0.137649	0.061449	0.923895
C116	C	0.387649	0.311449	1.173895
C117	C	-0.356429	-0.471212	0.357163
C118	C	-0.106429	-0.221212	0.607163
C119	C	0.143571	0.028788	0.857163
C120	C	0.393571	0.278788	1.107163
C121	C	-0.403808	-0.236686	0.404523
C122	C	-0.153808	0.013314	0.654523
C123	C	0.096192	0.263314	0.904523
C124	C	0.346192	0.513314	1.154523
C125	C	-0.403788	-0.171249	0.404552
C126	C	-0.153788	0.078751	0.654552
C127	C	0.096212	0.328751	0.904552
C128	C	0.346212	0.578751	1.154552
C129	C	-0.308949	-0.171236	0.309998
C130	C	-0.058949	0.078764	0.559998
C131	C	0.191051	0.328764	0.809998
C132	C	0.441051	0.578764	1.059998
C133	C	-0.308965	-0.236671	0.309976
C134	C	-0.058965	0.013329	0.559976
C135	C	0.191035	0.263329	0.809976
C136	C	0.441035	0.513329	1.059976
C137	C	-0.356399	-0.269392	0.357237
C138	C	-0.106399	-0.019392	0.607237
C139	C	0.143601	0.230608	0.857237
C140	C	0.393601	0.480608	1.107237
C141	C	-0.548794	-0.905408	0.357193
C142	C	-0.298794	-0.655408	0.607193
C143	C	-0.048794	-0.405408	0.857193
C144	C	0.201206	-0.155408	1.107193
C145	C	-0.631108	-0.905442	0.357202
C146	C	-0.381108	-0.655442	0.607202
C147	C	-0.131108	-0.405442	0.857202
C148	C	0.118892	-0.155442	1.107202
C149	C	-0.930199	-0.905522	0.357270
C150	C	-0.680199	-0.655522	0.607270
C151	C	-0.430199	-0.405522	0.857270
C152	C	-0.180199	-0.155522	1.107270
C153	C	-0.898849	-0.953798	0.299913
C154	C	-0.648849	-0.703798	0.549913
C155	C	-0.398849	-0.453798	0.799913
C156	C	-0.148849	-0.203798	1.049913
C157	C	-0.813231	-0.953965	0.300062
C158	C	-0.563231	-0.703965	0.550062
C159	C	-0.313231	-0.453965	0.800062
C160	C	-0.063231	-0.203965	1.050062
C161	C	-0.781817	-0.905483	0.357236
C162	C	-0.531817	-0.655483	0.607236
C163	C	-0.281817	-0.405483	0.857236
C164	C	-0.031817	-0.155483	1.107236
C165	C	-0.812810	-0.923382	0.435305
C166	C	-0.562810	-0.673382	0.685305
C167	C	-0.312810	-0.423382	0.935305
C168	C	-0.062810	-0.173382	1.185305
C169	C	-0.898455	-0.923755	0.434993
C170	C	-0.648455	-0.673755	0.684993
C171	C	-0.398455	-0.423755	0.934993
C172	C	-0.148455	-0.173755	1.184993
C173	C	-0.898735	-0.839219	0.337232
C174	C	-0.648735	-0.589219	0.587232
C175	C	-0.398735	-0.339219	0.837232
C176	C	-0.148735	-0.089219	1.087232
C177	C	-0.813085	-0.839546	0.335490
C178	C	-0.563085	-0.589546	0.585490
C179	C	-0.313085	-0.339546	0.835490
C180	C	-0.063085	-0.089546	1.085490
C181	C	-0.697957	-0.905459	0.357221
C182	C	-0.447957	-0.655459	0.607221
C183	C	-0.197957	-0.405459	0.857221
C184	C	0.052043	-0.155459	1.107221
C185	C	-1.014059	-0.905547	0.357289
C186	C	-0.764059	-0.655547	0.607289
C187	C	-0.514059	-0.405547	0.857289
C188	C	-0.264059	-0.155547	1.107289
C189	C	-0.163222	-0.905532	0.357281
C190	C	0.086778	-0.655532	0.607281
C191	C	0.336778	-0.405532	0.857281
C192	C	0.586778	-0.155532	1.107281
C193	C	-0.080908	-0.905563	0.357303
C194	C	0.169092	-0.655563	0.607303
C195	C	0.419092	-0.405563	0.857303
C196	C	0.669092	-0.155563	1.107303
C197	C	-0.356316	-0.905499	0.550391
C198	C	-0.106316	-0.655499	0.800391
C199	C	0.143684	-0.405499	1.050391
C200	C	0.393684	-0.155499	1.300391
C201	C	-0.356287	-0.905515	0.632705
C202	C	-0.106287	-0.655515	0.882705
C203	C	0.143713	-0.405515	1.132705
C204	C	0.393713	-0.155515	1.382705
C205	C	-0.356349	-0.068885	0.357308
C206	C	-0.106349	0.181115	0.607308
C207	C	0.143651	0.431115	0.857308
C208	C	0.393651	0.681115	1.107308
C209	C	-0.356366	-0.138526	0.357287
C210	C	-0.106366	0.111474	0.607287
C211	C	0.143634	0.361474	0.857287
C212	C	0.393634	0.611474	1.107287
C213	C	-0.356398	-0.905460	0.164818
C214	C	-0.106398	-0.655460	0.414818
C215	C	0.143602	-0.405460	0.664818
C216	C	0.393602	-0.155460	0.914818
C217	C	-0.356218	-0.905566	0.082504
C218	C	-0.106218	-0.655566	0.332504
C219	C	0.143782	-0.405566	0.582504
C220	C	0.393782	-0.155566	0.832504
C221	C	-0.356241	-0.905548	0.931796
C222	C	-0.106241	-0.655548	1.181796
C223	C	0.143759	-0.405548	1.431796
C224	C	0.393759	-0.155548	1.681796
C225	C	-0.299196	-0.954150	0.900516
C226	C	-0.049196	-0.704150	1.150516
C227	C	0.200804	-0.454150	1.400516
C228	C	0.450804	-0.204150	1.650516
C229	C	-0.298984	-0.953999	0.814898
C230	C	-0.048984	-0.703999	1.064898
C231	C	0.201016	-0.453999	1.314898
C232	C	0.451016	-0.203999	1.564898
C233	C	-0.356264	-0.905532	0.783413
C234	C	-0.106264	-0.655532	1.033413
C235	C	0.143736	-0.405532	1.283413
C236	C	0.393736	-0.155532	1.533413
C237	C	-0.335086	-0.839523	0.814456
C238	C	-0.085086	-0.589523	1.064456
C239	C	0.164914	-0.339523	1.314456
C240	C	0.414914	-0.089523	1.564456
C241	C	-0.334658	-0.839814	0.900101
C242	C	-0.084658	-0.589814	1.150101
C243	C	0.165342	-0.339814	1.400101
C244	C	0.415342	-0.089814	1.650101
C245	C	-0.434612	-0.922374	0.900213
C246	C	-0.184612	-0.672374	1.150213
C247	C	0.065388	-0.422374	1.400213
C248	C	0.315388	-0.172374	1.650213
C249	C	-0.434212	-0.923822	0.814563
C250	C	-0.184212	-0.673822	1.064563
C251	C	0.065788	-0.423822	1.314563
C252	C	0.315788	-0.173822	1.564563
C253	C	-0.356278	-0.905519	0.699554
C254	C	-0.106278	-0.655519	0.949554
C255	C	0.143722	-0.405519	1.199554
C256	C	0.393722	-0.155519	1.449554
C257	C	-0.356225	-0.905557	1.015655
C258	C	-0.106225	-0.655557	1.265655
C259	C	0.143775	-0.405557	1.515655
C260	C	0.393775	-0.155557	1.765655
H261	H	-0.270413	-0.548226	0.271381
H262	H	-0.020413	-0.298226	0.521381
H263	H	0.229587	-0.048226	0.771381
H264	H	0.479587	0.201774	1.021381
H265	H	-0.442396	-0.144622	0.443057
H266	H	-0.192396	0.105378	0.693057
H267	H	0.057604	0.355378	0.943057
H268	H	0.307604	0.605378	1.193057
H269	H	-0.278435	-0.825002	0.793013
H270	H	-0.028435	-0.575002	1.043013
H271	H	0.221565	-0.325002	1.293013
H272	H	0.471565	-0.075002	1.543013
H273	H	-0.375357	-0.802328	0.794057
H274	H	-0.125357	-0.552328	1.044057
H275	H	0.124643	-0.302328	1.294057
H276	H	0.374643	-0.052328	1.544057
H277	H	-0.453901	-0.969664	0.921879
H278	H	-0.203901	-0.719664	1.171879
H279	H	0.046099	-0.469664	1.421879
H280	H	0.296099	-0.219664	1.671879
H281	H	-0.345688	-0.465036	0.236130
H282	H	-0.095688	-0.215036	0.486130
H283	H	0.154312	0.034964	0.736130
H284	H	0.404312	0.284964	0.986130
H285	H	-0.919011	-0.803250	0.379007
H286	H	-0.669011	-0.553250	0.629007
H287	H	-0.419011	-0.303250	0.879007
H288	H	-0.169011	-0.053250	1.129007
O289	O	-0.785988	-1.019021	0.317629
O290	O	-0.535988	-0.769021	0.567629
O291	O	-0.285988	-0.519021	0.817629
O292	O	-0.035988	-0.269021	1.067629
H293	H	-0.724671	-1.019370	0.317789
H294	H	-0.474671	-0.769370	0.567789
H295	H	-0.224671	-0.519370	0.817789
H296	H	0.025329	-0.269370	1.067789
O297	O	-0.786264	-0.821659	0.259390
O298	O	-0.536264	-0.571659	0.509390
O299	O	-0.286264	-0.321659	0.759390
O300	O	-0.036264	-0.071659	1.009390
H301	H	-0.724979	-0.820005	0.259234
H302	H	-0.474979	-0.570005	0.509234
H303	H	-0.224979	-0.320005	0.759234
H304	H	0.025021	-0.070005	1.009234
H305	H	-0.270423	-0.666939	0.271342
H306	H	-0.020423	-0.416939	0.521342
H307	H	0.229577	-0.166939	0.771342
H308	H	0.479577	0.083061	1.021342
H309	H	-0.270359	-0.263300	0.271472
H310	H	-0.020359	-0.013300	0.521472
H311	H	0.229641	0.236700	0.771472
H312	H	0.479641	0.486700	1.021472
H313	H	-0.442477	-0.548259	0.442914
H314	H	-0.192477	-0.298259	0.692914
H315	H	0.057523	-0.048259	0.942914
H316	H	0.307523	0.201741	1.192914
O317	O	-0.927425	-0.817651	0.263123
O318	O	-0.677425	-0.567651	0.513123
O319	O	-0.427425	-0.317651	0.763123
O320	O	-0.177425	-0.067651	1.013123
H321	H	-0.988635	-0.814958	0.264906
H322	H	-0.738635	-0.564958	0.514906
H323	H	-0.488635	-0.314958	0.764906
H324	H	-0.238635	-0.064958	1.014906
H325	H	-0.374401	-0.802370	0.920789
H326	H	-0.124401	-0.552370	1.170789
H327	H	0.125599	-0.302370	1.420789
H328	H	0.375599	-0.052370	1.670789
O329	O	-0.926524	-0.939036	0.223148
O330	O	-0.676524	-0.689036	0.473148
O331	O	-0.426524	-0.439036	0.723148
O332	O	-0.176524	-0.189036	0.973148
H333	H	-0.878873	-0.929580	0.186242
H334	H	-0.628873	-0.679580	0.436242
H335	H	-0.378873	-0.429580	0.686242
H336	H	-0.128873	-0.179580	0.936242
H337	H	-0.792460	-0.889295	0.479191
H338	H	-0.542460	-0.639295	0.729191
H339	H	-0.292460	-0.389295	0.979191
H340	H	-0.042460	-0.139295	1.229191
H341	H	-0.367151	-0.346521	0.478248
H342	H	-0.117151	-0.096521	0.728248
H343	H	0.132849	0.153479	0.978248
H344	H	0.382849	0.403479	1.228248
O345	O	-0.344097	-0.337663	0.218546
O346	O	-0.094097	-0.087663	0.468546
O347	O	0.155903	0.162337	0.718546
O348	O	0.405903	0.412337	0.968546
H349	H	-0.339972	-0.371369	0.172147
H350	H	-0.089972	-0.121369	0.422147
H351	H	0.160028	0.128631	0.672147
H352	H	0.410028	0.378631	0.922147
O353	O	-0.784771	-0.789333	0.386764
O354	O	-0.534771	-0.539333	0.636764
O355	O	-0.284771	-0.289333	0.886764
O356	O	-0.034771	-0.039333	1.136764
H357	H	-0.802105	-0.800077	0.444190
H358	H	-0.552105	-0.550077	0.694190
H359	H	-0.302105	-0.300077	0.944190
H360	H	-0.052105	-0.050077	1.194190
O361	O	-0.927243	-1.018505	0.317276
O362	O	-0.677243	-0.768505	0.567276
O363	O	-0.427243	-0.518505	0.817276
O364	O	-0.177243	-0.268505	1.067276
H365	H	-0.963585	-1.016432	0.366580
H366	H	-0.713585	-0.766432	0.616580
H367	H	-0.463585	-0.516432	0.866580
H368	H	-0.213585	-0.266432	1.116580
O369	O	-0.924824	-0.987952	0.457460
O370	O	-0.674824	-0.737952	0.707460
O371	O	-0.424824	-0.487952	0.957460
O372	O	-0.174824	-0.237952	1.207460
H373	H	-0.876405	-1.018439	0.468443
H374	H	-0.626405	-0.768439	0.718443
H375	H	-0.376405	-0.518439	0.968443
H376	H	-0.126405	-0.268439	1.218443
H377	H	-0.792278	-0.942767	0.242176
H378	H	-0.542278	-0.692767	0.492176
H379	H	-0.292278	-0.442767	0.742176
H380	H	-0.042278	-0.192767	0.992176
H381	H	-0.241460	-0.943153	0.922051
H382	H	0.008540	-0.693153	1.172051
H383	H	0.258540	-0.443153	1.422051
H384	H	0.508540	-0.193153	1.672051
H385	H	-0.919191	-0.890134	0.479202
H386	H	-0.669191	-0.640134	0.729202
H387	H	-0.419191	-0.390134	0.979202
H388	H	-0.169191	-0.140134	1.229202
O389	O	-0.454939	-0.271990	0.455517
O390	O	-0.204939	-0.021990	0.705517
O391	O	0.045061	0.228010	0.955517
O392	O	0.295061	0.478010	1.205517
H393	H	-0.492591	-0.301750	0.422307
H394	H	-0.242591	-0.051750	0.672307
H395	H	0.007409	0.198250	0.922307
H396	H	0.257409	0.448250	1.172307
O397	O	-0.455373	-0.988169	0.787700
O398	O	-0.205373	-0.738169	1.037700
O399	O	0.044627	-0.488169	1.287700
O400	O	0.294627	-0.238169	1.537700
H401	H	-0.410570	-1.007049	0.752305
H402	H	-0.160570	-0.757049	1.002305
H403	H	0.089430	-0.507049	1.252305
H404	H	0.339430	-0.257049	1.502305
H405	H	-0.791283	-0.971304	0.452560
H406	H	-0.541283	-0.721304	0.702560
H407	H	-0.291283	-0.471304	0.952560
H408	H	-0.041283	-0.221304	1.202560
O409	O	-0.222079	-0.939254	0.787765
O410	O	0.027921	-0.689254	1.037765
O411	O	0.277921	-0.439254	1.287765
O412	O	0.527921	-0.189254	1.537765
H413	H	-0.184896	-0.932196	0.835816
H414	H	0.065104	-0.682196	1.085816
H415	H	0.315104	-0.432196	1.335816
H416	H	0.565104	-0.182196	1.585816
H417	H	-0.312244	-1.002946	0.793913
H418	H	-0.062244	-0.752946	1.043913
H419	H	0.187756	-0.502946	1.293913
H420	H	0.437756	-0.252946	1.543913
O421	O	-0.257806	-0.135947	0.259010
O422	O	-0.007806	0.114053	0.509010
O423	O	0.242194	0.364053	0.759010
O424	O	0.492194	0.614053	1.009010
H425	H	-0.265768	-0.084951	0.266962
H426	H	-0.015768	0.165049	0.516962
H427	H	0.234232	0.415049	0.766962
H428	H	0.484232	0.665049	1.016962
O429	O	-0.493541	-0.880342	0.786183
O430	O	-0.243541	-0.630342	1.036183
O431	O	0.006459	-0.380342	1.286183
O432	O	0.256459	-0.130342	1.536183
H433	H	-0.468284	-0.844855	0.749273
H434	H	-0.218284	-0.594855	0.999273
H435	H	0.031716	-0.344855	1.249273
H436	H	0.281716	-0.094855	1.499273
H437	H	-0.367179	-0.465233	0.478209
H438	H	-0.117179	-0.215233	0.728209
H439	H	0.132821	0.034767	0.978209
H440	H	0.382821	0.284767	1.228209
O441	O	-0.490920	-0.875491	0.927004
O442	O	-0.240920	-0.625491	1.177004
O443	O	0.009080	-0.375491	1.427004
O444	O	0.259080	-0.125491	1.677004
H445	H	-0.463270	-0.840373	0.962641
H446	H	-0.213270	-0.590373	1.212641
H447	H	0.036730	-0.340373	1.462641
H448	H	0.286730	-0.090373	1.712641
H449	H	-0.277370	-0.825552	0.920088
H450	H	-0.027370	-0.575552	1.170088
H451	H	0.222630	-0.325552	1.420088
H452	H	0.472630	-0.075552	1.670088
O453	O	-0.455030	-0.675622	0.455366
O454	O	-0.205030	-0.425622	0.705366
O455	O	0.044970	-0.175622	0.955366
O456	O	0.294970	0.074378	1.205366
H457	H	-0.487992	-0.641882	0.488253
H458	H	-0.237992	-0.391882	0.738253
H459	H	0.012008	-0.141882	0.988253
H460	H	0.262008	0.108118	1.238253
O461	O	-0.316520	-1.019199	0.927850
O462	O	-0.066520	-0.769199	1.177850
O463	O	0.183480	-0.519199	1.427850
O464	O	0.433480	-0.269199	1.677850
H465	H	-0.365972	-1.017587	0.964025
H466	H	-0.115972	-0.767587	1.214025
H467	H	0.134028	-0.517587	1.464025
H468	H	0.384028	-0.267587	1.714025
