data_functionalizedCrystal
_audit_creation_method	'MofGen! by Chris Wilmer'
_symmetry_space_group_name_H-M	'P1'
_symmetry_Int_Tables_number	1
_symmetry_cell_setting	triclinic
loop_
_symmetry_equiv_pos_as_xyz
  x,y,z
_cell_length_a	23.532407
_cell_length_b	19.288865
_cell_length_c	22.610064
_cell_angle_alpha	89.981152
_cell_angle_beta	90.003678
_cell_angle_gamma	82.992463
loop_
_atom_site_label
_atom_site_type_symbol
_atom_site_fract_x
_atom_site_fract_y
_atom_site_fract_z
O1	O	-0.755431	-0.084328	0.049117
O2	O	-0.589593	-0.096528	0.049136
O3	O	-0.677304	0.010718	0.049114
O4	O	-0.667720	-0.191573	0.049139
O5	O	-0.677303	0.010740	-0.049255
O6	O	-0.589592	-0.096506	-0.049233
O7	O	-0.755430	-0.084305	-0.049252
Zn8	Zn	-0.672511	-0.090402	-0.064861
Zn9	Zn	-0.672512	-0.090431	0.064745
O10	O	-0.667719	-0.191551	-0.049230
C11	C	-0.568376	-0.096206	-0.000047
C12	C	-0.505157	-0.095272	-0.000040
C13	C	-0.676995	0.036604	-0.000072
C14	C	-0.676069	0.113705	-0.000077
C15	C	-0.776647	-0.084627	-0.000068
C16	C	-0.839866	-0.085561	-0.000071
C17	C	-0.106173	-0.152879	-0.000060
C18	C	-0.046771	-0.152011	-0.000064
O19	O	-0.010137	-0.205413	-0.000079
N20	N	-0.024013	-0.088254	-0.000070
C21	C	-0.060660	-0.025360	-0.000080
O22	O	-0.035848	0.028950	-0.000086
C23	C	-0.120061	-0.026229	-0.000080
C24	C	-0.142816	-0.089990	-0.000067
C25	C	-0.128929	-0.216635	-0.000048
C26	C	-0.188327	-0.217502	-0.000043
C27	C	-0.224969	-0.154614	-0.000050
C28	C	-0.202214	-0.090857	-0.000062
C29	C	-0.156707	0.036664	-0.000093
C30	C	-0.216111	0.035790	-0.000094
C31	C	-0.238866	-0.027971	-0.000082
C32	C	-0.298254	-0.028836	-0.000065
N33	N	-0.321012	-0.092593	-0.000058
C34	C	-0.284370	-0.155482	-0.000051
C35	C	0.064086	-0.023541	-0.000079
C36	C	0.123486	-0.022672	-0.000075
C37	C	0.137371	-0.149323	-0.000060
C38	C	0.077970	-0.150192	-0.000061
C39	C	0.041328	-0.087298	-0.000073
C40	C	-0.409110	-0.157299	-0.000040
C41	C	-0.468514	-0.158161	-0.000033
C42	C	-0.482394	-0.031510	-0.000051
C43	C	-0.422995	-0.030648	-0.000055
C44	C	-0.386354	-0.093548	-0.000052
O45	O	-0.334923	0.024538	-0.000052
O46	O	-0.309190	-0.209783	-0.000052
C47	C	-0.668028	-0.217437	-0.000043
C48	C	-0.668954	-0.294538	-0.000034
N49	N	-0.672514	-0.090382	-0.153313
C50	C	-0.727534	0.158560	-0.000086
C51	C	-0.726664	0.231004	-0.000076
C52	C	-0.674327	0.258590	-0.000070
C53	C	-0.622855	0.213725	-0.000058
C54	C	-0.623727	0.141283	-0.000062
C55	C	-0.633183	0.366759	-0.034522
C56	C	-0.632314	0.439200	-0.034522
C57	C	-0.671638	0.482028	-0.000057
C58	C	-0.711840	0.452406	0.034402
C59	C	-0.712711	0.379963	0.034398
C60	C	-0.673377	0.337141	-0.000066
C61	C	-0.722163	0.605436	-0.000054
C62	C	-0.721292	0.677881	-0.000041
C63	C	-0.617481	0.660601	-0.000029
C64	C	-0.618354	0.588157	-0.000036
C65	C	-0.670697	0.560579	-0.000051
N66	N	-0.672513	-0.090446	0.153197
C67	C	-0.706880	-0.132418	0.438043
C68	C	-0.706881	-0.132422	0.376123
O69	O	-0.736112	-0.168127	0.344102
N70	N	-0.672522	-0.090424	0.345150
C71	C	-0.638165	-0.048413	0.376100
O72	O	-0.608941	-0.012690	0.344069
C73	C	-0.638169	-0.048405	0.438018
C74	C	-0.672525	-0.090412	0.468988
C75	C	-0.741235	-0.174421	0.469013
C76	C	-0.741233	-0.174417	0.530928
C77	C	-0.706878	-0.132411	0.561874
C78	C	-0.672524	-0.090408	0.530904
C79	C	-0.603815	-0.006391	0.468967
C80	C	-0.603822	-0.006387	0.530890
C81	C	-0.638178	-0.048393	0.561860
C82	C	-0.638167	-0.048399	0.623765
N83	N	-0.672526	-0.090397	0.654738
C84	C	-0.706881	-0.132403	0.623793
C85	C	-0.638162	-0.048431	0.246066
C86	C	-0.638156	-0.048442	0.184148
C87	C	-0.706872	-0.132451	0.184176
C88	C	-0.706875	-0.132443	0.246094
C89	C	-0.672521	-0.090430	0.277039
C90	C	-0.706876	-0.132393	0.753820
C91	C	-0.706869	-0.132388	0.815741
C92	C	-0.638156	-0.048377	0.815708
C93	C	-0.638159	-0.048384	0.753793
C94	C	-0.672524	-0.090394	0.722850
O95	O	-0.608952	-0.012710	0.655826
O96	O	-0.736106	-0.168113	0.655831
H97	H	-0.487037	-0.210085	-0.000022
O98	O	-0.093282	-0.277686	0.000042
C99	C	-0.058517	-0.280995	0.050999
H100	H	-0.055636	-0.225888	0.067972
H101	H	-0.013811	-0.307197	0.039551
H102	H	-0.077990	-0.312575	0.086679
O103	O	-0.566690	0.687505	-0.000046
C104	C	-0.576955	0.761064	-0.000026
H105	H	-0.621441	0.778392	-0.018656
H106	H	-0.543474	0.783093	-0.028576
H107	H	-0.574251	0.781188	0.047169
H108	H	-0.734851	-0.166649	0.271306
H109	H	-0.610181	-0.014221	0.271257
O110	O	0.055800	-0.212084	-0.000129
C111	C	0.021865	-0.216379	-0.051083
H112	H	0.006932	-0.161528	-0.068078
H113	H	-0.016964	-0.243797	-0.039621
H114	H	0.048184	-0.247286	-0.086752
O115	O	-0.772993	0.578610	-0.000166
C116	C	-0.776601	0.537235	-0.051108
H117	H	-0.746885	0.554180	-0.086713
H118	H	-0.822517	0.544065	-0.068212
H119	H	-0.763318	0.480005	-0.039594
O120	O	-0.573746	0.097678	0.000048
C121	C	-0.571153	0.055220	0.050983
H122	H	-0.600345	0.081936	0.086590
H123	H	-0.525258	0.046747	0.068091
H124	H	-0.585758	0.002644	0.039458
H125	H	-0.576446	0.551635	-0.000032
H126	H	-0.512239	0.019692	-0.000054
O127	O	-0.134707	0.098664	-0.000137
C128	C	-0.179797	0.153975	-0.000134
H129	H	-0.220103	0.134781	-0.018748
H130	H	-0.167504	0.198520	-0.028708
H131	H	-0.188246	0.173352	0.047053
O132	O	0.173053	-0.210352	-0.000082
C133	C	0.230359	-0.195906	-0.000071
H134	H	0.232496	-0.141359	-0.018700
H135	H	0.257370	-0.236007	-0.028626
H136	H	0.247550	-0.198669	0.047122
O137	O	-0.570361	0.034344	0.560922
C138	C	-0.512493	0.014882	0.545786
H139	H	-0.506755	-0.041170	0.528786
H140	H	-0.484496	0.018827	0.586504
H141	H	-0.499432	0.051249	0.509831
H142	H	-0.734845	-0.166656	0.158968
H143	H	-0.763202	0.714402	-0.000045
H144	H	-0.580242	0.236191	-0.000052
H145	H	-0.743861	0.487275	0.062467
H146	H	-0.610172	-0.014245	0.158938
H147	H	-0.769212	-0.208620	0.556138
H148	H	-0.610183	-0.014178	0.840915
H149	H	-0.610176	-0.014188	0.728576
H150	H	-0.599577	0.463312	-0.062577
H151	H	-0.379284	-0.208518	-0.000039
O152	O	-0.740299	-0.173212	0.845733
C153	C	-0.770612	-0.210298	0.805137
H154	H	-0.774052	-0.181524	0.760990
H155	H	-0.815365	-0.214433	0.823024
H156	H	-0.746930	-0.264924	0.798569
H157	H	-0.601160	0.331894	-0.062591
H158	H	-0.769214	-0.208627	0.443823
H159	H	-0.734859	-0.166601	0.728634
H160	H	-0.575839	0.027816	0.443762
H161	H	-0.404468	0.021272	-0.000057
O162	O	-0.210331	-0.279502	-0.000064
C163	C	-0.165243	-0.334815	-0.000046
H164	H	-0.124941	-0.315616	-0.018669
H165	H	-0.177544	-0.379348	-0.028604
H166	H	-0.156784	-0.354208	0.047148
H167	H	0.142007	0.029249	-0.000076
H168	H	-0.768575	0.267532	-0.000081
O169	O	0.028575	0.037622	-0.000056
C170	C	0.061406	0.094075	-0.000075
H171	H	0.105786	0.076116	0.018548
H172	H	0.039395	0.138107	0.028482
H173	H	0.065585	0.113652	-0.047269
H174	H	-0.245943	0.087007	-0.000105
H175	H	-0.745444	0.355848	0.062456
O176	O	-0.778428	0.131887	-0.000071
C177	C	-0.823666	0.187019	-0.000092
H178	H	-0.807829	0.236117	0.018537
H179	H	-0.860221	0.172119	0.028460
H180	H	-0.839529	0.197400	-0.047287
