data_functionalizedCrystal
_audit_creation_method	'MofGen! by Chris Wilmer'
_symmetry_space_group_name_H-M	'P1'
_symmetry_Int_Tables_number	1
_symmetry_cell_setting	triclinic
loop_
_symmetry_equiv_pos_as_xyz
  x,y,z
_cell_length_a	10.868271
_cell_length_b	14.853567
_cell_length_c	14.853567
_cell_angle_alpha	96.365070
_cell_angle_beta	90.001341
_cell_angle_gamma	89.998656
loop_
_atom_site_label
_atom_site_type_symbol
_atom_site_fract_x
_atom_site_fract_y
_atom_site_fract_z
O1	O	0.102227	-1.196364	0.117705
O2	O	0.352227	-0.946364	0.367705
O3	O	0.602227	-0.696364	0.617705
O4	O	0.852227	-0.446364	0.867705
O5	O	0.102247	-0.933905	0.131726
O6	O	0.352247	-0.683905	0.381726
O7	O	0.602247	-0.433905	0.631726
O8	O	0.852247	-0.183905	0.881726
O9	O	0.102240	-1.072145	-0.006514
O10	O	0.352240	-0.822145	0.243486
O11	O	0.602240	-0.572145	0.493486
O12	O	0.852240	-0.322145	0.743486
O13	O	0.102233	-1.058124	0.255945
O14	O	0.352233	-0.808124	0.505945
O15	O	0.602233	-0.558124	0.755945
O16	O	0.852233	-0.308124	1.005945
O17	O	-0.102405	-1.072134	-0.006520
O18	O	0.147595	-0.822134	0.243480
O19	O	0.397595	-0.572134	0.493480
O20	O	0.647595	-0.322134	0.743480
O21	O	-0.102398	-0.933894	0.131721
O22	O	0.147602	-0.683894	0.381721
O23	O	0.397602	-0.433894	0.631721
O24	O	0.647602	-0.183894	0.881721
O25	O	-0.102418	-1.196353	0.117699
O26	O	0.147582	-0.946353	0.367699
O27	O	0.397582	-0.696353	0.617699
O28	O	0.647582	-0.446353	0.867699
Zn29	Zn	-0.134900	-1.065122	0.124709
Zn30	Zn	0.115100	-0.815122	0.374709
Zn31	Zn	0.365100	-0.565122	0.624709
Zn32	Zn	0.615100	-0.315122	0.874709
Zn33	Zn	0.134728	-1.065137	0.124716
Zn34	Zn	0.384728	-0.815137	0.374716
Zn35	Zn	0.634728	-0.565137	0.624716
Zn36	Zn	0.884728	-0.315137	0.874716
O37	O	-0.102411	-1.058113	0.255940
O38	O	0.147589	-0.808113	0.505940
O39	O	0.397589	-0.558113	0.755940
O40	O	0.647589	-0.308113	1.005940
C41	C	-0.000073	-0.900311	0.131088
C42	C	0.249927	-0.650311	0.381088
C43	C	0.499927	-0.400311	0.631088
C44	C	0.749927	-0.150311	0.881088
C45	C	-0.000065	-0.800227	0.129184
C46	C	0.249935	-0.550227	0.379184
C47	C	0.499935	-0.300227	0.629184
C48	C	0.749935	-0.050227	0.879184
N49	N	-0.318914	-1.065118	0.124704
N50	N	-0.068914	-0.815118	0.374704
N51	N	0.181086	-0.565118	0.624704
N52	N	0.431086	-0.315118	0.874704
C53	C	-0.000079	-1.071504	-0.040106
C54	C	0.249921	-0.821504	0.209894
C55	C	0.499921	-0.571504	0.459894
C56	C	0.749921	-0.321504	0.709894
C57	C	-0.000068	-1.069601	-0.140189
C58	C	0.249932	-0.819601	0.109811
C59	C	0.499932	-0.569601	0.359811
C60	C	0.749932	-0.319601	0.609811
C61	C	-0.569920	-1.065132	0.124714
C62	C	-0.319920	-0.815132	0.374714
C63	C	-0.069920	-0.565132	0.624714
C64	C	0.180080	-0.315132	0.874714
C65	C	-0.430242	-1.065121	0.124711
C66	C	-0.180242	-0.815121	0.374711
C67	C	0.069758	-0.565121	0.624711
C68	C	0.319758	-0.315121	0.874711
N69	N	0.318743	-1.065147	0.124715
N70	N	0.568743	-0.815147	0.374715
N71	N	0.818743	-0.565147	0.624715
N72	N	1.068743	-0.315147	0.874715
C73	C	-0.000096	-1.229947	0.118337
C74	C	0.249904	-0.979947	0.368337
C75	C	0.499904	-0.729947	0.618337
C76	C	0.749904	-0.479947	0.868337
C77	C	-0.000095	-1.330031	0.120241
C78	C	0.249905	-1.080031	0.370241
C79	C	0.499905	-0.830031	0.620241
C80	C	0.749905	-0.580031	0.870241
C81	C	-0.000090	-0.387693	0.039019
C82	C	0.249910	-0.137693	0.289019
C83	C	0.499910	0.112307	0.539019
C84	C	0.749910	0.362307	0.789019
C85	C	-0.000093	-0.366412	0.203251
C86	C	0.249907	-0.116412	0.453251
C87	C	0.499907	0.133588	0.703251
C88	C	0.749907	0.383588	0.953251
C89	C	-0.000089	-0.460446	0.205041
C90	C	0.249911	-0.210446	0.455041
C91	C	0.499911	0.039554	0.705041
C92	C	0.749911	0.289554	0.955041
C93	C	-0.000084	-0.518108	0.123819
C94	C	0.249916	-0.268108	0.373819
C95	C	0.499916	-0.018108	0.623819
C96	C	0.749916	0.231892	0.873819
C97	C	-0.000083	-0.481736	0.040806
C98	C	0.249917	-0.231736	0.290806
C99	C	0.499917	0.018264	0.540806
C100	C	0.749917	0.268264	0.790806
C101	C	-0.000078	-0.496825	0.288053
C102	C	0.249922	-0.246825	0.538053
C103	C	0.499922	0.003175	0.788053
C104	C	0.749922	0.253175	1.038053
C105	C	-0.000073	-0.590864	0.289846
C106	C	0.249927	-0.340864	0.539846
C107	C	0.499927	-0.090864	0.789846
C108	C	0.749927	0.159136	1.039846
C109	C	-0.000076	-0.648528	0.208623
C110	C	0.249924	-0.398528	0.458623
C111	C	0.499924	-0.148528	0.708623
C112	C	0.749924	0.101472	0.958623
C113	C	-0.000076	-0.612150	0.125607
C114	C	0.249924	-0.362150	0.375607
C115	C	0.499924	-0.112150	0.625607
C116	C	0.749924	0.137850	0.875607
C117	C	-0.000071	-0.669812	0.044384
C118	C	0.249929	-0.419812	0.294384
C119	C	0.499929	-0.169812	0.544384
C120	C	0.749929	0.080188	0.794384
C121	C	-0.000080	-0.633437	-0.038633
C122	C	0.249920	-0.383437	0.211367
C123	C	0.499920	-0.133437	0.461367
C124	C	0.749920	0.116563	0.711367
C125	C	-0.000086	-0.539399	-0.040417
C126	C	0.249914	-0.289399	0.209583
C127	C	0.499914	-0.039399	0.459583
C128	C	0.749914	0.210601	0.709583
C129	C	-0.000070	-0.742565	0.210407
C130	C	0.249930	-0.492565	0.460407
C131	C	0.499930	-0.242565	0.710407
C132	C	0.749930	0.007435	0.960407
C133	C	-0.000064	-0.763855	0.046172
C134	C	0.249936	-0.513855	0.296172
C135	C	0.499936	-0.263855	0.546172
C136	C	0.749936	-0.013855	0.796172
C137	C	-0.000085	-0.979435	-0.552723
C138	C	0.249915	-0.729435	-0.302723
C139	C	0.499915	-0.479435	-0.052723
C140	C	0.749915	-0.229435	0.197277
C141	C	-0.000097	-1.143668	-0.574004
C142	C	0.249903	-0.893668	-0.324004
C143	C	0.499903	-0.643668	-0.074004
C144	C	0.749903	-0.393668	0.175996
C145	C	-0.000090	-1.145458	-0.479971
C146	C	0.249910	-0.895458	-0.229971
C147	C	0.499910	-0.645458	0.020029
C148	C	0.749910	-0.395458	0.270029
C149	C	-0.000082	-1.064235	-0.422309
C150	C	0.249918	-0.814235	-0.172309
C151	C	0.499918	-0.564235	0.077691
C152	C	0.749918	-0.314235	0.327691
C153	C	-0.000081	-0.981223	-0.458680
C154	C	0.249919	-0.731223	-0.208680
C155	C	0.499919	-0.481223	0.041320
C156	C	0.749919	-0.231223	0.291320
C157	C	-0.000103	-1.228469	-0.443591
C158	C	0.249897	-0.978469	-0.193591
C159	C	0.499897	-0.728469	0.056409
C160	C	0.749897	-0.478469	0.306409
C161	C	-0.000097	-1.230262	-0.349552
C162	C	0.249903	-0.980262	-0.099552
C163	C	0.499903	-0.730262	0.150448
C164	C	0.749903	-0.480262	0.400448
C165	C	-0.000081	-1.149039	-0.291889
C166	C	0.249919	-0.899039	-0.041889
C167	C	0.499919	-0.649039	0.208111
C168	C	0.749919	-0.399039	0.458111
C169	C	-0.000079	-1.066023	-0.328266
C170	C	0.249921	-0.816023	-0.078266
C171	C	0.499921	-0.566023	0.171734
C172	C	0.749921	-0.316023	0.421734
C173	C	-0.000071	-0.984800	-0.270604
C174	C	0.249929	-0.734800	-0.020604
C175	C	0.499929	-0.484800	0.229396
C176	C	0.749929	-0.234800	0.479396
C177	C	-0.000060	-0.901783	-0.306979
C178	C	0.249940	-0.651783	-0.056979
C179	C	0.499940	-0.401783	0.193021
C180	C	0.749940	-0.151783	0.443021
C181	C	-0.000065	-0.899999	-0.401017
C182	C	0.249935	-0.649999	-0.151017
C183	C	0.499935	-0.399999	0.098983
C184	C	0.749935	-0.149999	0.348983
C185	C	-0.000076	-1.150823	-0.197851
C186	C	0.249924	-0.900823	0.052149
C187	C	0.499924	-0.650823	0.302149
C188	C	0.749924	-0.400823	0.552149
C189	C	-0.000067	-0.986588	-0.176561
C190	C	0.249933	-0.736588	0.073439
C191	C	0.499933	-0.486588	0.323439
C192	C	0.749933	-0.236588	0.573439
C193	C	-0.000090	-1.058754	0.289531
C194	C	0.249910	-0.808754	0.539531
C195	C	0.499910	-0.558754	0.789531
C196	C	0.749910	-0.308754	1.039531
C197	C	-0.000092	-1.060657	0.389615
C198	C	0.249908	-0.810657	0.639615
C199	C	0.499908	-0.560657	0.889615
C200	C	0.749908	-0.310657	1.139615
H201	H	-0.000064	-0.810798	-0.019971
H202	H	0.249936	-0.560798	0.230029
H203	H	0.499936	-0.310798	0.480029
H204	H	0.749936	-0.060798	0.730029
H205	H	-0.000087	-0.319459	0.269379
H206	H	0.249913	-0.069459	0.519379
H207	H	0.499913	0.180541	0.769379
H208	H	0.749913	0.430541	1.019379
H209	H	-0.000071	-0.911844	-0.582344
H210	H	0.249929	-0.661844	-0.332344
H211	H	0.499929	-0.411844	-0.082344
H212	H	0.749929	-0.161844	0.167656
H213	H	-0.000113	-1.209795	-0.620958
H214	H	0.249887	-0.959795	-0.370958
H215	H	0.499887	-0.709795	-0.120958
H216	H	0.749887	-0.459795	0.129042
F217	F	-0.000066	-0.435454	0.374489
F218	F	0.249934	-0.185454	0.624489
F219	F	0.499934	0.064546	0.874489
F220	F	0.749934	0.314546	1.124489
H221	H	-0.000065	-0.620472	0.357443
H222	H	0.249935	-0.370472	0.607443
H223	H	0.499935	-0.120472	0.857443
H224	H	0.749935	0.129528	1.107443
H225	H	-0.000068	-0.680397	-0.104764
H226	H	0.249932	-0.430397	0.145236
H227	H	0.499932	-0.180397	0.395236
H228	H	0.749932	0.069603	0.645236
H229	H	-0.000065	-0.772178	0.277998
H230	H	0.249935	-0.522178	0.527998
H231	H	0.499935	-0.272178	0.777998
H232	H	0.749935	-0.022178	1.027998
H233	H	-0.000057	-0.832411	-0.430643
H234	H	0.249943	-0.582411	-0.180643
H235	H	0.499943	-0.332411	0.069357
H236	H	0.749943	-0.082411	0.319357
F237	F	-0.000134	-1.314905	-0.504963
F238	F	0.249866	-1.064905	-0.254963
F239	F	0.499866	-0.814905	-0.004963
F240	F	0.749866	-0.564905	0.245037
F241	F	-0.000094	-1.318615	-0.310847
F242	F	0.249906	-1.068615	-0.060847
F243	F	0.499906	-0.818615	0.189153
F244	F	0.749906	-0.568615	0.439153
H245	H	-0.000056	-0.920445	-0.129618
H246	H	0.249944	-0.670445	0.120382
H247	H	0.499944	-0.420445	0.370382
H248	H	0.749944	-0.170445	0.620382
H249	H	-0.000062	-0.835652	-0.260019
H250	H	0.249938	-0.585652	-0.010019
H251	H	0.499938	-0.335652	0.239981
H252	H	0.749938	-0.085652	0.489981
F253	F	-0.000091	-0.500679	-0.128762
F254	F	0.249909	-0.250679	0.121238
F255	F	0.499909	-0.000679	0.371238
F256	F	0.749909	0.249321	0.621238
F257	F	-0.000106	-0.348980	-0.049330
F258	F	0.249894	-0.098980	0.200670
F259	F	0.499894	0.151020	0.450670
F260	F	0.749894	0.401020	0.700670
F261	F	-0.000107	-1.239169	-0.159141
F262	F	0.249893	-0.989169	0.090859
F263	F	0.499893	-0.739169	0.340859
F264	F	0.749893	-0.489169	0.590859
