data_functionalizedCrystal
_audit_creation_method	'MofGen! by Chris Wilmer'
_symmetry_space_group_name_H-M	'P1'
_symmetry_Int_Tables_number	1
_symmetry_cell_setting	triclinic
loop_
_symmetry_equiv_pos_as_xyz
  x,y,z
_cell_length_a	18.050590
_cell_length_b	12.759400
_cell_length_c	18.050565
_cell_angle_alpha	89.900886
_cell_angle_beta	89.951792
_cell_angle_gamma	90.003738
loop_
_atom_site_label
_atom_site_type_symbol
_atom_site_fract_x
_atom_site_fract_y
_atom_site_fract_z
Zn1	Zn	1.135722	-0.417808	-0.419621
Zn2	Zn	1.135556	-0.593734	-0.295438
Zn3	Zn	1.011435	-0.418036	-0.295478
Zn4	Zn	1.011518	-0.593412	-0.419621
O5	O	1.073558	-0.505748	-0.357539
O6	O	1.239624	-0.441184	-0.403131
O7	O	1.118986	-0.570658	-0.191518
O8	O	1.027956	-0.270985	-0.311963
O9	O	1.239502	-0.570436	-0.311894
O10	O	1.119269	-0.270817	-0.403170
O11	O	1.027795	-0.441573	-0.191548
O12	O	0.907521	-0.441261	-0.311963
O13	O	1.028099	-0.569888	-0.523546
O14	O	0.907583	-0.570109	-0.403170
O15	O	1.119350	-0.440872	-0.523546
O16	O	1.119068	-0.740712	-0.311894
O17	O	1.027938	-0.740476	-0.403131
C18	C	0.880606	-0.505676	-0.357571
C19	C	0.798060	-0.505670	-0.357603
C20	C	1.073514	-0.778715	-0.357524
C21	C	1.073563	-0.895492	-0.357542
C22	C	1.121112	-1.060173	-0.310112
C23	C	1.121068	-0.950449	-0.310088
C24	C	1.026095	-0.950264	-0.405017
C25	C	1.026136	-1.059986	-0.405036
C26	C	1.147528	-0.800721	-0.222494
C27	C	1.195003	-0.745952	-0.175028
C28	C	1.267478	-0.781533	-0.163678
C29	C	1.292493	-0.871882	-0.199806
C30	C	1.245022	-0.926644	-0.247277
C31	C	1.172537	-0.891065	-0.258613
C32	C	0.999683	-1.209716	-0.492631
C33	C	0.952216	-1.264481	-0.540108
C34	C	0.879739	-1.228902	-0.551465
C35	C	0.854727	-1.138550	-0.515351
C36	C	0.902194	-1.083785	-0.467874
C37	C	0.974670	-1.119372	-0.456516
C38	C	0.598664	-0.575939	-0.407083
C39	C	0.549270	-0.480107	-0.425354
C40	C	0.646929	-0.505729	-0.357566
C41	C	0.549241	-0.601616	-0.339295
C42	C	0.500944	-0.505794	-0.357533
C43	C	0.598623	-0.409846	-0.375873
C44	C	0.598598	-0.531420	-0.289782
C45	C	0.549227	-0.435522	-0.308027
C46	C	0.731028	-0.505693	-0.357588
C47	C	0.416848	-0.505820	-0.357511
C48	C	1.267263	-0.505821	-0.357508
C49	C	1.349809	-0.505852	-0.357494
C50	C	1.073752	-0.505318	-0.551246
C51	C	1.073835	-0.505135	-0.633792
C52	C	1.073622	-0.231714	-0.357571
C53	C	1.073649	-0.114938	-0.357585
C54	C	1.073406	-0.506099	-0.164587
C55	C	1.073467	-0.505986	-0.082041
C56	C	1.123588	-0.575303	0.117463
C57	C	1.056002	-0.601580	0.167022
C58	C	1.073590	-0.505700	0.069089
C59	C	1.141294	-0.479193	0.166611
C60	C	1.073714	-0.505425	0.215074
C61	C	1.005967	-0.532029	0.117561
C62	C	1.091304	-0.409597	0.117145
C63	C	1.023671	-0.435838	0.166682
C64	C	1.073519	-0.505861	-0.015009
C65	C	1.073777	-0.505264	0.299170
H66	H	1.265390	-1.000202	-0.276694
H67	H	0.527658	-0.376107	-0.266138
C68	C	1.217591	-0.449657	0.195393
C69	C	1.245283	-0.531336	0.239243
C70	C	1.315571	-0.504179	0.265759
H71	H	1.214051	-0.387685	0.224265
H72	H	1.250033	-0.437818	0.154758
H73	H	1.212849	-0.543161	0.279871
H74	H	1.248841	-0.593315	0.210387
H75	H	1.348013	-0.492341	0.225125
H76	H	1.312023	-0.442207	0.294628
H77	H	1.334371	-0.559598	0.295508
C78	C	1.172797	-1.119879	-0.258720
C79	C	1.220444	-1.182678	-0.300821
C80	C	1.268079	-1.237675	-0.253506
H81	H	1.144499	-1.162890	-0.226330
H82	H	1.201100	-1.071568	-0.230464
H83	H	1.192145	-1.230984	-0.329065
H84	H	1.248760	-1.139693	-0.333209
H85	H	1.296382	-1.189363	-0.225249
H86	H	1.239774	-1.280680	-0.221117
H87	H	1.300418	-1.280283	-0.282064
H88	H	0.972589	-1.338045	-0.569520
C89	C	0.776094	-1.099731	-0.527765
C90	C	0.778169	-0.998358	-0.557514
C91	C	0.705749	-0.962565	-0.568972
H92	H	0.750273	-1.098719	-0.481897
H93	H	0.751386	-1.145224	-0.561240
H94	H	0.802867	-0.952877	-0.524040
H95	H	0.803976	-0.999342	-0.603387
H96	H	0.681040	-1.008058	-0.602447
H97	H	0.679933	-0.961560	-0.523101
H98	H	0.707147	-0.893785	-0.589164
H99	H	0.948746	-0.554422	0.096101
C100	C	0.828317	-1.288364	-0.603127
C101	C	0.859104	-1.290726	-0.674325
C102	C	0.811758	-1.345497	-0.721931
H103	H	0.781554	-1.254305	-0.604809
H104	H	0.822089	-1.357986	-0.585444
H105	H	0.865322	-1.221116	-0.692003
H106	H	0.905861	-1.324792	-0.672666
H107	H	0.805531	-1.415120	-0.704248
H108	H	0.764999	-1.311434	-0.723607
H109	H	0.832644	-1.347116	-0.770242
H110	H	1.351514	-0.900837	-0.190568
C111	C	0.520362	-0.709669	-0.318553
C112	C	0.546411	-0.736978	-0.248076
C113	C	0.519817	-0.836504	-0.228949
H114	H	0.537274	-0.759544	-0.353723
H115	H	0.467734	-0.708774	-0.318203
H116	H	0.599028	-0.737880	-0.248432
H117	H	0.529500	-0.687130	-0.212891
H118	H	0.467189	-0.835610	-0.228599
H119	H	0.536731	-0.886371	-0.264123
H120	H	0.537481	-0.855042	-0.181127
C121	C	1.179728	-0.654167	0.088677
C122	C	1.160893	-0.754506	0.113944
C123	C	1.212582	-0.827185	0.087431
H124	H	1.227691	-0.636246	0.106177
H125	H	1.179594	-0.653338	0.036046
H126	H	1.161035	-0.755333	0.166563
H127	H	1.112939	-0.772461	0.096446
H128	H	1.212448	-0.826356	0.034800
H129	H	1.260541	-0.809254	0.104933
H130	H	1.199806	-0.895274	0.104565
H131	H	1.041067	-0.682734	0.188924
C132	C	0.627666	-0.560330	-0.213431
C133	C	0.705223	-0.560842	-0.214672
C134	C	0.732028	-0.587469	-0.144349
H135	H	0.610102	-0.627951	-0.200062
H136	H	0.610812	-0.510407	-0.178253
H137	H	0.722070	-0.610763	-0.249838
H138	H	0.722808	-0.493231	-0.228027
H139	H	0.715174	-0.537545	-0.109171
H140	H	0.714458	-0.655088	-0.130986
H141	H	0.784652	-0.587810	-0.145180
C142	C	0.967358	-0.357045	0.195225
C143	C	0.985396	-0.256994	0.168826
C144	C	0.933530	-0.184392	0.195098
H145	H	0.967950	-0.356828	0.247844
H146	H	0.919345	-0.375875	0.178320
H147	H	1.033396	-0.238168	0.185734
H148	H	0.984799	-0.257177	0.116209
H149	H	0.885517	-0.203222	0.178194
H150	H	0.934126	-0.184184	0.247717
H151	H	0.945757	-0.116501	0.177185
C152	C	1.111395	-0.301454	0.087953
C153	C	1.182303	-0.274250	0.112742
C154	C	1.200848	-0.174642	0.085855
H155	H	1.076485	-0.251624	0.105520
H156	H	1.110798	-0.302177	0.035327
H157	H	1.182894	-0.273519	0.165356
H158	H	1.217229	-0.324053	0.095177
H159	H	1.200251	-0.175365	0.033229
H160	H	1.165933	-0.124821	0.103423
H161	H	1.248963	-0.156175	0.102664
H162	H	1.174629	-0.672390	-0.145613
C163	C	1.318941	-0.722153	-0.112015
C164	C	1.288177	-0.719827	-0.040806
C165	C	1.335563	-0.665146	0.006811
H166	H	1.325207	-0.652525	-0.129645
H167	H	1.365690	-0.756283	-0.110378
H168	H	1.241442	-0.685695	-0.042445
H169	H	1.281914	-0.789440	-0.023153
H170	H	1.382311	-0.699276	0.008448
H171	H	1.341825	-0.595522	-0.010826
H172	H	1.314700	-0.663569	0.055133
C173	C	1.068784	-0.762259	-0.234746
C174	C	1.018752	-0.840076	-0.212517
C175	C	0.946209	-0.804669	-0.223796
H176	H	1.061655	-0.747088	-0.285783
H177	H	1.060639	-0.700628	-0.206425
H178	H	1.026893	-0.901688	-0.240839
H179	H	1.025858	-0.855255	-0.161482
H180	H	0.938064	-0.743039	-0.195475
H181	H	0.939088	-0.789500	-0.274833
H182	H	0.912254	-0.857458	-0.208709
C183	C	0.974598	-0.890410	-0.456512
C184	C	0.984734	-0.782598	-0.446351
C185	C	0.937316	-0.727431	-0.493785
H186	H	0.924673	-0.908336	-0.445662
H187	H	0.985492	-0.908185	-0.506436
H188	H	0.973835	-0.764830	-0.396438
H189	H	1.034649	-0.764641	-0.457206
H190	H	0.948210	-0.745206	-0.543709
H191	H	0.887394	-0.745365	-0.482931
H192	H	0.944192	-0.654275	-0.486902
C193	C	0.874953	-0.985826	-0.428549
C194	C	0.814090	-1.011253	-0.383863
C195	C	0.788984	-0.921049	-0.347613
H196	H	0.860587	-0.934909	-0.464200
H197	H	0.913575	-0.958315	-0.398606
H198	H	0.775476	-1.038749	-0.413803
H199	H	0.828438	-1.062156	-0.348199
H200	H	0.827606	-0.893537	-0.317671
H201	H	0.774622	-0.870138	-0.383269
H202	H	0.747691	-0.938290	-0.317285
H203	H	1.058699	-1.238696	-0.483385
C204	C	0.627575	-0.654831	-0.463094
C205	C	0.602596	-0.627469	-0.533948
C206	C	0.629225	-0.700105	-0.585566
H207	H	0.609961	-0.722794	-0.450700
H208	H	0.680204	-0.654687	-0.462449
H209	H	0.549979	-0.627625	-0.534591
H210	H	0.620209	-0.559519	-0.546366
H211	H	0.681853	-0.699961	-0.584921
H212	H	0.611608	-0.768063	-0.573164
H213	H	0.612286	-0.681545	-0.633647
C214	C	0.520475	-0.450993	-0.501775
C215	C	0.546584	-0.351332	-0.521217
C216	C	0.520084	-0.324493	-0.591615
H217	H	0.467855	-0.450512	-0.501178
H218	H	0.537421	-0.500867	-0.536943
H219	H	0.529633	-0.301471	-0.486058
H220	H	0.599201	-0.351787	-0.521830
H221	H	0.537030	-0.374367	-0.626783
H222	H	0.467465	-0.324017	-0.591012
H223	H	0.537801	-0.256876	-0.604818
H224	H	0.620224	-0.328760	-0.391378
