data_functionalizedCrystal
_audit_creation_method	'MofGen! by Chris Wilmer'
_symmetry_space_group_name_H-M	'P1'
_symmetry_Int_Tables_number	1
_symmetry_cell_setting	triclinic
loop_
_symmetry_equiv_pos_as_xyz
  x,y,z
_cell_length_a	16.625548
_cell_length_b	18.050590
_cell_length_c	18.050582
_cell_angle_alpha	89.976663
_cell_angle_beta	89.985107
_cell_angle_gamma	90.019620
loop_
_atom_site_label
_atom_site_type_symbol
_atom_site_fract_x
_atom_site_fract_y
_atom_site_fract_z
Zn1	Zn	1.232657	-0.295685	-0.419908
Zn2	Zn	1.482657	-0.045685	-0.169908
Zn3	Zn	1.732657	0.204315	0.080092
Zn4	Zn	1.982657	0.454315	0.330092
Zn5	Zn	1.232583	-0.419869	-0.295716
Zn6	Zn	1.482583	-0.169869	-0.045716
Zn7	Zn	1.732583	0.080131	0.204284
Zn8	Zn	1.982583	0.330131	0.454284
Zn9	Zn	1.097832	-0.295699	-0.295732
Zn10	Zn	1.347832	-0.045699	-0.045732
Zn11	Zn	1.597832	0.204301	0.204268
Zn12	Zn	1.847832	0.454301	0.454268
Zn13	Zn	1.097799	-0.419840	-0.419865
Zn14	Zn	1.347799	-0.169840	-0.169865
Zn15	Zn	1.597799	0.080160	0.080135
Zn16	Zn	1.847799	0.330160	0.330135
O17	O	1.165218	-0.357774	-0.357805
O18	O	1.415218	-0.107774	-0.107805
O19	O	1.665218	0.142226	0.142195
O20	O	1.915218	0.392226	0.392195
O21	O	1.345480	-0.312165	-0.403445
O22	O	1.595480	-0.062165	-0.153445
O23	O	1.845480	0.187835	0.096555
O24	O	2.095480	0.437835	0.346555
O25	O	1.214691	-0.403415	-0.191794
O26	O	1.464691	-0.153415	0.058206
O27	O	1.714691	0.096585	0.308206
O28	O	1.964691	0.346585	0.558206
O29	O	1.115762	-0.191773	-0.312229
O30	O	1.365762	0.058227	-0.062229
O31	O	1.615762	0.308227	0.187771
O32	O	1.865762	0.558227	0.437771
O33	O	1.345425	-0.403402	-0.312202
O34	O	1.595425	-0.153402	-0.062202
O35	O	1.845425	0.096598	0.187798
O36	O	2.095425	0.346598	0.437798
O37	O	1.214818	-0.191763	-0.403461
O38	O	1.464818	0.058237	-0.153461
O39	O	1.714818	0.308237	0.096539
O40	O	1.964818	0.558237	0.346539
O41	O	1.115690	-0.312188	-0.191805
O42	O	1.365690	-0.062188	0.058195
O43	O	1.615690	0.187812	0.308195
O44	O	1.865690	0.437812	0.558195
O45	O	0.984996	-0.312161	-0.312187
O46	O	1.234996	-0.062161	-0.062187
O47	O	1.484996	0.187839	0.187813
O48	O	1.734996	0.437839	0.437813
O49	O	1.115705	-0.403353	-0.523795
O50	O	1.365705	-0.153353	-0.273795
O51	O	1.615705	0.096647	-0.023795
O52	O	1.865705	0.346647	0.226205
O53	O	0.984971	-0.403367	-0.403387
O54	O	1.234971	-0.153367	-0.153387
O55	O	1.484971	0.096633	0.096613
O56	O	1.734971	0.346633	0.346613
O57	O	1.214785	-0.312137	-0.523827
O58	O	1.464785	-0.062137	-0.273827
O59	O	1.714785	0.187863	-0.023827
O60	O	1.964785	0.437863	0.226173
O61	O	1.214658	-0.523790	-0.312160
O62	O	1.464658	-0.273790	-0.062160
O63	O	1.714658	-0.023790	0.187840
O64	O	1.964658	0.226210	0.437840
O65	O	1.115633	-0.523769	-0.403372
O66	O	1.365633	-0.273769	-0.153372
O67	O	1.615633	-0.023769	0.096628
O68	O	1.865633	0.226231	0.346628
C69	C	0.955727	-0.357763	-0.357785
C70	C	1.205727	-0.107763	-0.107785
C71	C	1.455727	0.142237	0.142215
C72	C	1.705727	0.392237	0.392215
C73	C	0.866106	-0.357776	-0.357793
C74	C	1.116106	-0.107776	-0.107793
C75	C	1.366106	0.142224	0.142207
C76	C	1.616106	0.392224	0.392207
C77	C	0.537930	-0.357781	-0.357825
C78	C	0.787930	-0.107781	-0.107825
C79	C	1.037930	0.142219	0.142175
C80	C	1.287930	0.392219	0.392175
C81	C	0.629239	-0.357778	-0.357814
C82	C	0.879239	-0.107778	-0.107814
C83	C	1.129239	0.142222	0.142186
C84	C	1.379239	0.392222	0.392186
C85	C	0.702015	-0.357779	-0.357809
C86	C	0.952015	-0.107779	-0.107809
C87	C	1.202015	0.142221	0.142191
C88	C	1.452015	0.392221	0.392191
C89	C	0.793329	-0.357775	-0.357799
C90	C	1.043329	-0.107775	-0.107799
C91	C	1.293329	0.142225	0.142201
C92	C	1.543329	0.392225	0.392201
C93	C	1.165156	-0.550726	-0.357776
C94	C	1.415156	-0.300726	-0.107776
C95	C	1.665156	-0.050726	0.142224
C96	C	1.915156	0.199274	0.392224
C97	C	1.165203	-0.633271	-0.357788
C98	C	1.415203	-0.383271	-0.107788
C99	C	1.665203	-0.133271	0.142212
C100	C	1.915203	0.116729	0.392212
C101	C	1.219165	-0.832706	-0.308256
C102	C	1.469165	-0.582706	-0.058256
C103	C	1.719165	-0.332706	0.191744
C104	C	1.969165	-0.082706	0.441744
C105	C	1.238855	-0.882045	-0.376037
C106	C	1.488855	-0.632045	-0.126037
C107	C	1.738855	-0.382045	0.123963
C108	C	1.988855	-0.132045	0.373963
C109	C	1.165249	-0.784402	-0.357818
C110	C	1.415249	-0.534402	-0.107818
C111	C	1.665249	-0.284402	0.142182
C112	C	1.915249	-0.034402	0.392182
C113	C	1.145641	-0.882145	-0.290068
C114	C	1.395641	-0.632145	-0.040068
C115	C	1.645641	-0.382145	0.209932
C116	C	1.895641	-0.132145	0.459932
C117	C	1.165295	-0.930387	-0.357840
C118	C	1.415295	-0.680387	-0.107840
C119	C	1.665295	-0.430387	0.142160
C120	C	1.915295	-0.180387	0.392160
C121	C	1.184977	-0.832653	-0.425633
C122	C	1.434977	-0.582653	-0.175633
C123	C	1.684977	-0.332653	0.074367
C124	C	1.934977	-0.082653	0.324367
C125	C	1.091728	-0.832749	-0.339619
C126	C	1.341728	-0.582749	-0.089619
C127	C	1.591728	-0.332749	0.160381
C128	C	1.841728	-0.082749	0.410381
C129	C	1.111390	-0.882065	-0.407446
C130	C	1.361390	-0.632065	-0.157446
C131	C	1.611390	-0.382065	0.092554
C132	C	1.861390	-0.132065	0.342554
C133	C	1.165225	-0.700303	-0.357804
C134	C	1.415225	-0.450303	-0.107804
C135	C	1.665225	-0.200303	0.142196
C136	C	1.915225	0.049697	0.392196
C137	C	1.165319	-1.014483	-0.357862
C138	C	1.415319	-0.764483	-0.107862
C139	C	1.665319	-0.514483	0.142138
C140	C	1.915319	-0.264483	0.392138
C141	C	1.375527	-0.357785	-0.357827
C142	C	1.625527	-0.107785	-0.107827
C143	C	1.875527	0.142215	0.142173
C144	C	2.125527	0.392215	0.392173
C145	C	1.465148	-0.357789	-0.357836
C146	C	1.715148	-0.107789	-0.107836
C147	C	1.965148	0.142211	0.142164
C148	C	2.215148	0.392211	0.392164
C149	C	1.165249	-0.357741	-0.551511
C150	C	1.415249	-0.107741	-0.301511
C151	C	1.665249	0.142259	-0.051511
C152	C	1.915249	0.392259	0.198489
C153	C	1.165263	-0.357727	-0.634057
C154	C	1.415263	-0.107727	-0.384057
C155	C	1.665263	0.142273	-0.134057
C156	C	1.915263	0.392273	0.115943
C157	C	1.165302	-0.164068	-0.357851
C158	C	1.415302	0.085932	-0.107851
C159	C	1.665302	0.335932	0.142149
C160	C	1.915302	0.585932	0.392149
C161	C	1.165338	-0.081522	-0.357871
C162	C	1.415338	0.168478	-0.107871
C163	C	1.665338	0.418478	0.142129
C164	C	1.915338	0.668478	0.392129
C165	C	1.111424	-0.407262	-0.833490
C166	C	1.361424	-0.157262	-0.583490
C167	C	1.611424	0.092738	-0.333490
C168	C	1.861424	0.342738	-0.083490
C169	C	1.184991	-0.425414	-0.882882
C170	C	1.434991	-0.175414	-0.632882
C171	C	1.684991	0.074586	-0.382882
C172	C	1.934991	0.324586	-0.132882
C173	C	1.165303	-0.357670	-0.785187
C174	C	1.415303	-0.107670	-0.535187
C175	C	1.665303	0.142330	-0.285187
C176	C	1.915303	0.392330	-0.035187
C177	C	1.091777	-0.339497	-0.882878
C178	C	1.341777	-0.089497	-0.632878
C179	C	1.591777	0.160503	-0.382878
C180	C	1.841777	0.410503	-0.132878
C181	C	1.165335	-0.357617	-0.931173
C182	C	1.415335	-0.107617	-0.681173
C183	C	1.665335	0.142383	-0.431173
C184	C	1.915335	0.392383	-0.181173
C185	C	1.238907	-0.375858	-0.833491
C186	C	1.488907	-0.125858	-0.583491
C187	C	1.738907	0.124142	-0.333491
C188	C	1.988907	0.374142	-0.083491
C189	C	1.145644	-0.289909	-0.833483
C190	C	1.395644	-0.039909	-0.583483
C191	C	1.645644	0.210091	-0.333483
C192	C	1.895644	0.460091	-0.083483
C193	C	1.219261	-0.308035	-0.882852
C194	C	1.469261	-0.058035	-0.632852
C195	C	1.719261	0.191965	-0.382852
C196	C	1.969261	0.441965	-0.132852
C197	C	1.165283	-0.357702	-0.701089
C198	C	1.415283	-0.107702	-0.451089
C199	C	1.665283	0.142298	-0.201089
C200	C	1.915283	0.392298	0.048911
C201	C	1.165362	-0.357584	-1.015269
C202	C	1.415362	-0.107584	-0.765269
C203	C	1.665362	0.142416	-0.515269
C204	C	1.915362	0.392416	-0.265269
C205	C	1.165233	-0.357753	-0.164853
C206	C	1.415233	-0.107753	0.085147
C207	C	1.665233	0.142247	0.335147
C208	C	1.915233	0.392247	0.585147
C209	C	1.165376	-0.357558	-0.082308
C210	C	1.415376	-0.107558	0.167692
C211	C	1.665376	0.142442	0.417692
C212	C	1.915376	0.392442	0.667692
H213	H	1.264776	-0.811033	-0.266387
H214	H	1.514776	-0.561033	-0.016387
H215	H	1.764776	-0.311033	0.233613
H216	H	2.014776	-0.061033	0.483613
H217	H	1.029584	-0.324149	-0.904572
H218	H	1.279584	-0.074149	-0.654572
H219	H	1.529584	0.175851	-0.404572
H220	H	1.779584	0.425851	-0.154572
H221	H	1.301050	-0.903700	-0.391444
H222	H	1.551050	-0.653700	-0.141444
H223	H	1.801050	-0.403700	0.108556
H224	H	2.051050	-0.153700	0.358556
H225	H	1.065904	-0.449256	-0.811817
H226	H	1.315904	-0.199256	-0.561817
H227	H	1.565904	0.050744	-0.311817
H228	H	1.815904	0.300744	-0.061817
N229	N	1.123568	-0.214059	-0.804707
N230	N	1.373568	0.035941	-0.554707
N231	N	1.623568	0.285941	-0.304707
N232	N	1.873568	0.535941	-0.054707
H233	H	1.067974	-0.200396	-0.822637
H234	H	1.317974	0.049604	-0.572637
H235	H	1.567974	0.299604	-0.322637
H236	H	1.817974	0.549604	-0.072637
H237	H	1.124288	-0.214591	-0.748762
H238	H	1.374288	0.035409	-0.498762
H239	H	1.624288	0.285409	-0.248762
H240	H	1.874288	0.535409	0.001238
H241	H	1.201518	-0.811005	-0.482987
H242	H	1.451518	-0.561005	-0.232987
H243	H	1.701518	-0.311005	0.017013
H244	H	1.951518	-0.061005	0.267013
H245	H	1.301119	-0.391271	-0.811888
H246	H	1.551119	-0.141271	-0.561888
H247	H	1.801119	0.108729	-0.311888
H248	H	2.051119	0.358729	-0.061888
N249	N	1.279696	-0.252456	-0.911395
N250	N	1.529696	-0.002456	-0.661395
N251	N	1.779696	0.247544	-0.411395
N252	N	2.029696	0.497544	-0.161395
H253	H	1.279041	-0.252438	-0.967346
H254	H	1.529041	-0.002438	-0.717346
H255	H	1.779041	0.247562	-0.467346
H256	H	2.029041	0.497562	-0.217346
H257	H	1.265298	-0.201470	-0.892580
H258	H	1.515298	0.048530	-0.642580
H259	H	1.765298	0.298530	-0.392580
H260	H	2.015298	0.548530	-0.142580
N261	N	1.009373	-0.804034	-0.319178
N262	N	1.259373	-0.554034	-0.069178
N263	N	1.509373	-0.304034	0.180822
N264	N	1.759373	-0.054034	0.430822
H265	H	1.009848	-0.748085	-0.319800
H266	H	1.259848	-0.498085	-0.069800
H267	H	1.509848	-0.248085	0.180200
H268	H	1.759848	0.001915	0.430200
H269	H	0.968545	-0.822822	-0.356093
H270	H	1.218545	-0.572822	-0.106093
H271	H	1.468545	-0.322822	0.143907
H272	H	1.718545	-0.072822	0.393907
N273	N	1.051007	-0.910583	-0.463031
N274	N	1.301007	-0.660583	-0.213031
N275	N	1.551007	-0.410583	0.036969
N276	N	1.801007	-0.160583	0.286969
H277	H	1.065935	-0.892476	-0.514170
H278	H	1.315935	-0.642476	-0.264170
H279	H	1.565935	-0.392476	-0.014170
H280	H	1.815935	-0.142476	0.235830
H281	H	1.051034	-0.966531	-0.462377
H282	H	1.301034	-0.716531	-0.212377
H283	H	1.551034	-0.466531	0.037623
H284	H	1.801034	-0.216531	0.287623
N285	N	1.123643	-0.910945	-0.214166
N286	N	1.373643	-0.660945	0.035834
N287	N	1.623643	-0.410945	0.285834
N288	N	1.873643	-0.160945	0.535834
H289	H	1.164393	-0.892990	-0.176765
H290	H	1.414393	-0.642990	0.073235
H291	H	1.664393	-0.392990	0.323235
H292	H	1.914393	-0.142990	0.573235
H293	H	1.068474	-0.892237	-0.200091
H294	H	1.318474	-0.642237	0.049909
H295	H	1.568474	-0.392237	0.299909
H296	H	1.818474	-0.142237	0.549909
N297	N	1.207049	-0.501286	-0.911625
N298	N	1.457049	-0.251286	-0.661625
N299	N	1.707049	-0.001286	-0.411625
N300	N	1.957049	0.248714	-0.161625
H301	H	1.166308	-0.538734	-0.893674
H302	H	1.416308	-0.288734	-0.643674
H303	H	1.666308	-0.038734	-0.393674
H304	H	1.916308	0.211266	-0.143674
H305	H	1.207424	-0.500514	-0.967571
H306	H	1.457424	-0.250514	-0.717571
H307	H	1.707424	-0.000514	-0.467571
H308	H	1.957424	0.249486	-0.217571
