data_functionalizedCrystal
_audit_creation_method	'MofGen! by Chris Wilmer'
_symmetry_space_group_name_H-M	'P1'
_symmetry_Int_Tables_number	1
_symmetry_cell_setting	triclinic
loop_
_symmetry_equiv_pos_as_xyz
  x,y,z
_cell_length_a	15.297475
_cell_length_b	21.295417
_cell_length_c	15.296720
_cell_angle_alpha	99.638166
_cell_angle_beta	91.617114
_cell_angle_gamma	80.332118
loop_
_atom_site_label
_atom_site_type_symbol
_atom_site_fract_x
_atom_site_fract_y
_atom_site_fract_z
Zn1	Zn	1.253315	-0.489896	-0.726513
Zn2	Zn	1.753315	0.010104	-0.226513
Zn3	Zn	1.278561	-0.580536	-0.580012
Zn4	Zn	1.778561	-0.080536	-0.080012
Zn5	Zn	1.132199	-0.454534	-0.554760
Zn6	Zn	1.632199	0.045466	-0.054760
Zn7	Zn	1.106789	-0.574348	-0.701142
Zn8	Zn	1.606789	-0.074348	-0.201142
O9	O	1.192716	-0.524829	-0.640607
O10	O	1.692716	-0.024829	-0.140607
O11	O	1.379239	-0.519309	-0.728265
O12	O	1.879239	-0.019309	-0.228265
O13	O	1.280346	-0.551612	-0.454090
O14	O	1.780346	-0.051612	0.045910
O15	O	1.148333	-0.371150	-0.577592
O16	O	1.648333	0.128850	-0.077592
O17	O	1.397787	-0.585901	-0.620632
O18	O	1.897787	-0.085901	-0.120632
O19	O	1.237317	-0.397130	-0.703779
O20	O	1.737317	0.102870	-0.203779
O21	O	1.172814	-0.459039	-0.435537
O22	O	1.672814	0.040961	0.064463
O23	O	1.006253	-0.453039	-0.552991
O24	O	1.506253	0.046961	-0.052991
O25	O	1.105026	-0.575355	-0.827080
O26	O	1.605026	-0.075355	-0.327080
O27	O	0.987585	-0.541066	-0.660538
O28	O	1.487585	-0.041066	-0.160538
O29	O	1.212678	-0.513309	-0.845720
O30	O	1.712678	-0.013309	-0.345720
O31	O	1.255707	-0.667790	-0.596031
O32	O	1.755707	-0.167790	-0.096031
O33	O	1.129506	-0.663244	-0.685025
O34	O	1.629506	-0.163244	-0.185025
C35	C	0.965136	-0.492545	-0.601272
C36	C	1.465136	0.007455	-0.101272
C37	C	0.867773	-0.478750	-0.584465
C38	C	1.367773	0.021250	-0.084465
C39	C	0.554602	-0.623422	-0.760730
C40	C	1.054602	-0.123422	-0.260730
C41	C	0.646080	-0.636386	-0.776518
C42	C	1.146080	-0.136386	-0.276518
C43	C	0.701507	-0.596978	-0.728507
C44	C	1.201507	-0.096978	-0.228507
C45	C	0.665449	-0.544604	-0.664703
C46	C	1.165449	-0.044604	-0.164703
C47	C	0.573963	-0.531641	-0.648908
C48	C	1.073963	-0.031641	-0.148908
C49	C	0.720868	-0.505198	-0.616685
C50	C	1.220868	-0.005198	-0.116685
C51	C	0.684809	-0.452823	-0.552882
C52	C	1.184809	0.047177	-0.052882
C53	C	0.593332	-0.439862	-0.537090
C54	C	1.093332	0.060138	-0.037090
C55	C	0.537904	-0.479270	-0.585102
C56	C	1.037904	0.020730	-0.085102
C57	C	0.812354	-0.518160	-0.632480
C58	C	1.312354	-0.018160	-0.132480
C59	C	0.831715	-0.426380	-0.520659
C60	C	1.331715	0.073620	-0.020659
C61	C	0.740237	-0.413415	-0.504870
C62	C	1.240237	0.086585	-0.004870
C63	C	1.192609	-0.688359	-0.640538
C64	C	1.692609	-0.188359	-0.140538
C65	C	1.192639	-0.758333	-0.640552
C66	C	1.692639	-0.258333	-0.140552
C67	C	1.258392	-0.793558	-0.594279
C68	C	1.758392	-0.293558	-0.094279
C69	C	1.258429	-0.859308	-0.594306
C70	C	1.758429	-0.359308	-0.094306
C71	C	1.192700	-0.889827	-0.640594
C72	C	1.692700	-0.389827	-0.140594
C73	C	1.126942	-0.854594	-0.686877
C74	C	1.626942	-0.354594	-0.186877
C75	C	1.126911	-0.788847	-0.686856
C76	C	1.626911	-0.288847	-0.186856
N77	N	1.114918	-0.982893	-0.634027
N78	N	1.614918	-0.482893	-0.134027
N79	N	1.114951	-1.045351	-0.634042
N80	N	1.614951	-0.545351	-0.134042
C81	C	1.192790	-1.087921	-0.640661
C82	C	1.692790	-0.587921	-0.140661
N83	N	1.270600	-1.065673	-0.647247
N84	N	1.770600	-0.565673	-0.147247
N85	N	1.270567	-1.003210	-0.647228
N86	N	1.770567	-0.503210	-0.147228
C87	C	1.192726	-0.961119	-0.640622
C88	C	1.692726	-0.461119	-0.140622
C89	C	1.258588	-1.194441	-0.594415
C90	C	1.758588	-0.694441	-0.094415
C91	C	1.258626	-1.260193	-0.594448
C92	C	1.758626	-0.760193	-0.094448
C93	C	1.127132	-1.255477	-0.687013
C94	C	1.627132	-0.755477	-0.187013
C95	C	1.127101	-1.189727	-0.686986
C96	C	1.627101	-0.689727	-0.186986
C97	C	1.192829	-1.159213	-0.640682
C98	C	1.692829	-0.659213	-0.140682
C99	C	1.421184	-0.557239	-0.680096
C100	C	1.921184	-0.057239	-0.180096
C101	C	1.518543	-0.571051	-0.696923
C102	C	2.018543	-0.071051	-0.196923
C103	C	1.153201	-0.547586	-0.869070
C104	C	1.653201	-0.047586	-0.369070
C105	C	1.136362	-0.557284	-0.966428
C106	C	1.636362	-0.057284	-0.466428
C107	C	1.192843	-0.360665	-0.640699
C108	C	1.692843	0.139335	-0.140699
C109	C	1.192898	-0.290708	-0.640738
C110	C	1.692898	0.209292	-0.140738
C111	C	1.313098	-0.455410	-1.279682
C112	C	1.813098	0.044590	-0.779682
C113	C	1.328925	-0.446300	-1.188211
C114	C	1.828925	0.053700	-0.688211
C115	C	1.280785	-0.474045	-1.132761
C116	C	1.780785	0.025955	-0.632761
C117	C	1.216817	-0.510902	-1.168791
C118	C	1.716817	-0.010902	-0.668791
C119	C	1.200994	-0.520017	-1.260272
C120	C	1.700994	-0.020017	-0.760272
C121	C	1.168681	-0.538652	-1.113350
C122	C	1.668681	-0.038652	-0.613350
C123	C	1.104713	-0.575509	-1.149380
C124	C	1.604713	-0.075509	-0.649380
C125	C	1.088892	-0.584622	-1.240852
C126	C	1.588892	-0.084622	-0.740852
C127	C	1.137031	-0.556877	-1.296302
C128	C	1.637031	-0.056877	-0.796302
C129	C	1.184504	-0.529537	-1.021869
C130	C	1.684504	-0.029537	-0.521869
C131	C	1.072400	-0.594144	-1.002458
C132	C	1.572400	-0.094144	-0.502458
C133	C	1.056573	-0.603254	-1.093930
C134	C	1.556573	-0.103254	-0.593930
C135	C	1.232127	-0.502121	-0.413041
C136	C	1.732127	-0.002121	0.086959
C137	C	1.249136	-0.492270	-0.315713
C138	C	1.749136	0.007730	0.184287
H139	H	0.563978	-0.397221	-0.485129
H140	H	1.063978	0.102779	0.014871
Br141	Br	1.347878	-1.308004	-0.531654
Br142	Br	1.847878	-0.808004	-0.031654
H143	H	0.775992	-0.607537	-0.741366
H144	H	1.275992	-0.107537	-0.241366
H145	H	1.124149	-0.564292	-1.370787
H146	H	1.624149	-0.064292	-0.870787
Br147	Br	0.695012	-0.707465	-0.863101
Br148	Br	1.195012	-0.207465	-0.363101
Br149	Br	1.002096	-0.634657	-1.289752
Br150	Br	1.502096	-0.134657	-0.789752
H151	H	1.073556	-1.161043	-0.724661
H152	H	1.573556	-0.661043	-0.224661
H153	H	1.004489	-0.633263	-1.123278
H154	H	1.504489	-0.133263	-0.623278
H155	H	1.033202	-0.616738	-0.957311
H156	H	1.533202	-0.116738	-0.457311
H157	H	1.312110	-1.169596	-0.556715
H158	H	1.812110	-0.669596	-0.056715
H159	H	1.311913	-0.768716	-0.556579
H160	H	1.811913	-0.268716	-0.056579
H161	H	0.841704	-0.560804	-0.684430
H162	H	1.341704	-0.060804	-0.184430
H163	H	0.509466	-0.655505	-0.799809
H164	H	1.009466	-0.155505	-0.299809
Br165	Br	0.413748	-0.461672	-0.563685
Br166	Br	0.913748	0.038328	-0.063685
Br167	Br	0.906932	-0.372898	-0.455489
Br168	Br	1.406932	0.127102	0.044511
Br169	Br	1.347671	-0.907125	-0.531503
Br170	Br	1.847671	-0.407125	-0.031503
Br171	Br	0.691289	-0.342336	-0.418285
Br172	Br	1.191289	0.157664	0.081715
Br173	Br	1.037743	-0.896013	-0.749705
Br174	Br	1.537743	-0.396013	-0.249705
Br175	Br	1.037934	-1.296890	-0.749844
Br176	Br	1.537934	-0.796890	-0.249844
Br177	Br	1.037670	-0.741038	-0.749662
Br178	Br	1.537670	-0.241038	-0.249662
Br179	Br	1.271317	-0.479520	-0.972983
Br180	Br	1.771317	0.020480	-0.472983
H181	H	1.293675	-0.466626	-1.058281
H182	H	1.793675	0.033374	-0.558281
H183	H	1.381010	-0.416293	-1.158883
H184	H	1.881010	0.083707	-0.658883
H185	H	1.352292	-0.432829	-1.324838
H186	H	1.852292	0.067171	-0.824838
