data_functionalizedCrystal
_audit_creation_method	'MofGen! by Chris Wilmer'
_symmetry_space_group_name_H-M	'P1'
_symmetry_Int_Tables_number	1
_symmetry_cell_setting	triclinic
loop_
_symmetry_equiv_pos_as_xyz
  x,y,z
_cell_length_a	16.109301
_cell_length_b	16.992695
_cell_length_c	15.186229
_cell_angle_alpha	89.995943
_cell_angle_beta	89.999362
_cell_angle_gamma	87.064852
loop_
_atom_site_label
_atom_site_type_symbol
_atom_site_fract_x
_atom_site_fract_y
_atom_site_fract_z
O1	O	1.109856	0.100784	-0.073174
O2	O	1.609856	0.600784	0.426826
O3	O	0.868631	0.113326	-0.073188
O4	O	1.368631	0.613326	0.426812
O5	O	0.988276	-0.007088	-0.073174
O6	O	1.488276	0.492912	0.426826
O7	O	0.990210	0.221197	-0.073188
O8	O	1.490210	0.721197	0.426812
O9	O	0.988268	-0.007089	0.073284
O10	O	1.488268	0.492911	0.573284
O11	O	0.868622	0.113324	0.073270
O12	O	1.368622	0.613324	0.573270
O13	O	1.109847	0.100782	0.073284
O14	O	1.609847	0.600782	0.573284
Zn15	Zn	0.989233	0.107053	0.096530
Zn16	Zn	1.489233	0.607053	0.596530
Zn17	Zn	0.989245	0.107055	-0.096434
Zn18	Zn	1.489245	0.607055	0.403566
O19	O	0.990202	0.221196	0.073270
O20	O	1.490202	0.721196	0.573270
C21	C	0.837618	0.112817	0.000039
C22	C	1.337618	0.612817	0.500039
C23	C	0.745221	0.111294	0.000034
C24	C	1.245221	0.611294	0.500034
C25	C	0.527480	0.179203	0.000040
C26	C	1.027480	0.679203	0.500040
C27	C	0.440664	0.177766	0.000046
C28	C	0.940664	0.677766	0.500046
C29	C	0.451005	0.034899	0.000051
C30	C	0.951005	0.534899	0.500051
C31	C	0.537819	0.036337	0.000051
C32	C	1.037819	0.536337	0.500051
C33	C	0.576055	0.108492	0.000042
C34	C	1.076055	0.608492	0.500042
C35	C	0.402424	0.105616	0.000047
C36	C	0.902424	0.605616	0.500047
C37	C	0.308294	0.104057	0.000053
C38	C	0.808294	0.604057	0.500053
C39	C	0.670191	0.110051	0.000037
C40	C	1.170191	0.610051	0.500037
C41	C	0.985784	-0.036300	0.000055
C42	C	1.485784	0.463700	0.500055
C43	C	0.978361	-0.123343	0.000054
C44	C	1.478361	0.376657	0.500054
C45	C	1.049987	-0.173601	0.000059
C46	C	1.549987	0.326399	0.500059
C47	C	1.043007	-0.255386	0.000050
C48	C	1.543007	0.244614	0.500050
C49	C	0.964400	-0.286911	0.000043
C50	C	1.464400	0.213089	0.500043
C51	C	0.892768	-0.236645	0.000035
C52	C	1.392768	0.263355	0.500035
C53	C	0.899749	-0.154862	0.000038
C54	C	1.399749	0.345138	0.500038
C55	C	0.935467	-0.530501	0.000029
C56	C	1.435467	-0.030501	0.500029
C57	C	0.928491	-0.612291	0.000029
C58	C	1.428491	-0.112291	0.500029
C59	C	1.078731	-0.631026	0.000043
C60	C	1.578731	-0.131026	0.500043
C61	C	1.085704	-0.549240	0.000051
C62	C	1.585704	-0.049240	0.500051
C63	C	1.014073	-0.498982	0.000038
C64	C	1.514073	0.001018	0.500038
N65	N	0.957263	-0.370508	0.000037
N66	N	1.457263	0.129492	0.500037
N67	N	1.021210	-0.415387	0.000038
N68	N	1.521210	0.084613	0.500038
C69	C	1.140860	0.101291	0.000055
C70	C	1.640860	0.601291	0.500055
C71	C	1.233257	0.102814	0.000054
C72	C	1.733257	0.602814	0.500054
C73	C	0.992694	0.250408	0.000039
C74	C	1.492694	0.750408	0.500039
C75	C	1.000118	0.337451	0.000034
C76	C	1.500118	0.837451	0.500034
N77	N	0.989232	0.107051	0.228223
N78	N	1.489232	0.607051	0.728223
N79	N	0.989253	0.107051	-0.228127
N80	N	1.489253	0.607051	0.271873
C81	C	1.042231	0.053750	0.453952
C82	C	1.542231	0.553750	0.953952
C83	C	1.042234	0.053748	0.546141
C84	C	1.542234	0.553748	1.046141
C85	C	0.936247	0.160355	0.546138
C86	C	1.436247	0.660355	1.046138
C87	C	0.936241	0.160352	0.453950
C88	C	1.436241	0.660352	0.953950
C89	C	0.989238	0.107051	0.407859
C90	C	1.489238	0.607051	0.907859
C91	C	0.989246	0.107051	0.592237
C92	C	1.489246	0.607051	1.092237
C93	C	0.989249	0.107050	0.692193
C94	C	1.489249	0.607050	1.192193
C95	C	0.989235	0.107051	0.307897
C96	C	1.489235	0.607051	0.807897
H97	H	0.419863	-0.023846	0.000064
H98	H	0.919863	0.476154	0.500064
H99	H	1.101332	-0.296304	0.000056
H100	H	1.601332	0.203696	0.500056
N101	N	1.134770	-0.139603	0.000076
N102	N	1.634770	0.360397	0.500076
H103	H	1.179085	-0.183855	0.000076
H104	H	1.679085	0.316145	0.500076
H105	H	1.140944	-0.106073	-0.054216
H106	H	1.640944	0.393927	0.445784
H107	H	0.828765	-0.262319	0.000023
H108	H	1.328765	0.237681	0.500023
N109	N	0.843702	-0.646289	0.000016
N110	N	1.343702	-0.146289	0.500016
H111	H	0.837468	-0.679804	-0.054275
H112	H	1.337468	-0.179804	0.445725
H113	H	0.837506	-0.679766	0.054345
H114	H	1.337506	-0.179766	0.554345
N115	N	0.568722	0.257023	0.000029
N116	N	1.068722	0.757023	0.500029
H117	H	0.524773	0.301599	0.000029
H118	H	1.024773	0.801599	0.500029
H119	H	0.604518	0.260730	0.054321
H120	H	1.104518	0.760730	0.554321
N121	N	0.388272	0.254033	0.000093
N122	N	0.888272	0.754033	0.500093
H123	H	0.425670	0.299957	0.000103
H124	H	0.925670	0.799957	0.500103
H125	H	0.352005	0.256579	-0.054183
H126	H	0.852005	0.756579	0.445817
N127	N	1.099402	-0.003730	0.595856
N128	N	1.599402	0.496270	1.095856
H129	H	1.132976	-0.037490	0.552666
H130	H	1.632976	0.462510	1.052666
H131	H	1.138146	0.026313	0.634093
H132	H	1.638146	0.526313	1.134093
N133	N	0.858211	-0.476300	0.000019
N134	N	1.358211	0.023700	0.500019
H135	H	0.807357	-0.508684	0.000019
H136	H	1.307357	-0.008684	0.500019
H137	H	0.857830	-0.441963	0.054313
H138	H	1.357830	0.058037	0.554313
H139	H	1.137048	-0.671954	0.000051
H140	H	1.637048	-0.171954	0.500051
H141	H	0.577371	-0.021248	0.000055
H142	H	1.077371	0.478752	0.500055
H143	H	1.149714	-0.523580	0.000057
H144	H	1.649714	-0.023580	0.500057
N145	N	0.879087	0.217845	0.404223
N146	N	1.379087	0.717845	0.904223
H147	H	0.840286	0.187867	0.365983
H148	H	1.340286	0.687867	0.865983
H149	H	0.845573	0.251604	0.447460
H150	H	1.345573	0.751604	0.947460
N151	N	0.822496	-0.100650	0.000027
N152	N	1.322496	0.399350	0.500027
H153	H	0.771639	-0.133029	0.000023
H154	H	1.271639	0.366971	0.500023
H155	H	0.822114	-0.066311	0.054319
H156	H	1.322114	0.433689	0.554319
N157	N	1.099387	-0.003738	0.404237
N158	N	1.599387	0.496262	0.904237
H159	H	1.132957	-0.037505	0.447429
H160	H	1.632957	0.462495	0.947429
H161	H	1.065254	-0.038411	0.365994
H162	H	1.565254	0.461589	0.865994
H163	H	0.893100	0.203753	0.583674
H164	H	1.393100	0.703753	1.083674
