data_functionalizedCrystal
_audit_creation_method	'MofGen! by Chris Wilmer'
_symmetry_space_group_name_H-M	'P1'
_symmetry_Int_Tables_number	1
_symmetry_cell_setting	triclinic
loop_
_symmetry_equiv_pos_as_xyz
  x,y,z
_cell_length_a	23.532407
_cell_length_b	23.532407
_cell_length_c	22.010155
_cell_angle_alpha	89.999577
_cell_angle_beta	90.003069
_cell_angle_gamma	97.151322
loop_
_atom_site_label
_atom_site_type_symbol
_atom_site_fract_x
_atom_site_fract_y
_atom_site_fract_z
O1	O	0.755264	-0.069127	0.050455
O2	O	1.255264	0.430873	0.550455
O3	O	0.589400	-0.079130	0.050474
O4	O	1.089400	0.420870	0.550474
O5	O	0.677334	0.008803	0.050453
O6	O	1.177334	0.508803	0.550453
O7	O	0.667330	-0.157060	0.050476
O8	O	1.167330	0.342940	0.550476
O9	O	0.677318	0.008790	-0.050597
O10	O	1.177318	0.508790	0.449403
O11	O	0.589384	-0.079143	-0.050576
O12	O	1.089384	0.420857	0.449424
O13	O	0.755248	-0.069140	-0.050595
O14	O	1.255248	0.430860	0.449405
Cu15	Cu	0.672315	-0.074143	-0.059812
Cu16	Cu	1.172315	0.425857	0.440188
Cu17	Cu	0.672333	-0.074127	0.059691
Cu18	Cu	1.172333	0.425873	0.559691
O19	O	0.667314	-0.157073	-0.050574
O20	O	1.167314	0.342927	0.449426
C21	C	0.568176	-0.078882	-0.000049
C22	C	1.068176	0.421118	0.499951
C23	C	0.504959	-0.078116	-0.000042
C24	C	1.004959	0.421884	0.499958
C25	C	0.105856	-0.125350	-0.000063
C26	C	0.605856	0.374650	0.499937
C27	C	0.046456	-0.124638	-0.000067
C28	C	0.546456	0.375362	0.499933
O29	O	0.009711	-0.168424	-0.000083
O30	O	0.509711	0.331576	0.499917
N31	N	0.023830	-0.072362	-0.000073
N32	N	0.523830	0.427638	0.499927
C33	C	0.060607	-0.020794	-0.000082
C34	C	0.560607	0.479206	0.499918
O35	O	0.035908	0.023737	-0.000088
O36	O	0.535908	0.523737	0.499912
C37	C	0.120006	-0.021506	-0.000082
C38	C	0.620006	0.478494	0.499918
C39	C	0.142629	-0.073785	-0.000070
C40	C	0.642629	0.426215	0.499930
C41	C	0.128479	-0.177625	-0.000051
C42	C	0.628479	0.322375	0.499949
C43	C	0.187876	-0.178336	-0.000046
C44	C	0.687876	0.321664	0.499954
C45	C	0.224649	-0.126772	-0.000053
C46	C	0.724649	0.373228	0.499947
C47	C	0.202025	-0.074497	-0.000065
C48	C	0.702025	0.425503	0.499935
C49	C	0.156783	0.030062	-0.000096
C50	C	0.656783	0.530062	0.499904
C51	C	0.216185	0.029345	-0.000097
C52	C	0.716185	0.529345	0.499903
C53	C	0.238808	-0.022934	-0.000084
C54	C	0.738808	0.477066	0.499916
C55	C	0.298194	-0.023643	-0.000067
C56	C	0.798194	0.476357	0.499933
N57	N	0.320820	-0.075920	-0.000061
N58	N	0.820820	0.424080	0.499939
C59	C	0.284048	-0.127484	-0.000054
C60	C	0.784048	0.372516	0.499946
C61	C	-0.064135	-0.019302	-0.000082
C62	C	0.435865	0.480698	0.499918
C63	C	-0.123533	-0.018589	-0.000077
C64	C	0.376467	0.481411	0.499923
C65	C	-0.137680	-0.122434	-0.000063
C66	C	0.362320	0.377566	0.499937
C67	C	-0.078281	-0.123146	-0.000064
C68	C	0.421719	0.376854	0.499936
C69	C	-0.041509	-0.071578	-0.000076
C70	C	0.458491	0.428422	0.499924
C71	C	0.408784	-0.128974	-0.000043
C72	C	0.908784	0.371026	0.499957
C73	C	0.468186	-0.129680	-0.000035
C74	C	0.968186	0.370320	0.499965
C75	C	0.482329	-0.025836	-0.000052
C76	C	0.982329	0.474164	0.499948
C77	C	0.422932	-0.025129	-0.000057
C78	C	0.922932	0.474871	0.499943
C79	C	0.386160	-0.076702	-0.000054
C80	C	0.886160	0.423298	0.499946
O81	O	0.334974	0.020119	-0.000054
O82	O	0.834974	0.520119	0.499946
O83	O	0.308755	-0.172007	-0.000055
O84	O	0.808755	0.327993	0.499945
C85	C	0.677071	0.030013	-0.000074
C86	C	1.177071	0.530013	0.499926
C87	C	0.676305	0.093230	-0.000078
C88	C	1.176305	0.593230	0.499922
C89	C	0.776472	-0.069388	-0.000071
C90	C	1.276472	0.430612	0.499929
C91	C	0.839689	-0.070154	-0.000073
C92	C	1.339689	0.429846	0.499927
C93	C	0.667577	-0.178283	-0.000046
C94	C	1.167577	0.321717	0.499954
C95	C	0.668343	-0.241500	-0.000037
C96	C	1.168343	0.258500	0.499963
N97	N	0.672305	-0.074153	-0.143865
N98	N	1.172305	0.425847	0.356135
C99	C	0.723539	0.492333	-0.000050
C100	C	1.223539	0.992333	0.499950
C101	C	0.722827	0.551733	-0.000046
C102	C	1.222827	1.051733	0.499954
O103	O	0.766613	0.588478	-0.000028
O104	O	1.266613	1.088478	0.499972
N105	N	0.670551	0.574359	-0.000040
N106	N	1.170551	1.074359	0.499960
C107	C	0.618983	0.537582	-0.000033
C108	C	1.118983	1.037582	0.499967
O109	O	0.574452	0.562281	-0.000027
O110	O	1.074452	1.062281	0.499973
C111	C	0.619695	0.478182	-0.000033
C112	C	1.119695	0.978182	0.499967
C113	C	0.671974	0.455560	-0.000045
C114	C	1.171974	0.955560	0.499955
C115	C	0.775814	0.469710	-0.000061
C116	C	1.275814	0.969710	0.499939
C117	C	0.776525	0.410313	-0.000067
C118	C	1.276525	0.910313	0.499933
C119	C	0.724961	0.373540	-0.000062
C120	C	1.224961	0.873540	0.499938
C121	C	0.672685	0.396164	-0.000051
C122	C	1.172685	0.896164	0.499949
C123	C	0.568127	0.441406	-0.000022
C124	C	1.068127	0.941406	0.499978
C125	C	0.568844	0.382004	-0.000022
C126	C	1.068844	0.882004	0.499978
C127	C	0.621123	0.359381	-0.000034
C128	C	1.121123	0.859381	0.499966
C129	C	0.621832	0.299995	-0.000052
C130	C	1.121832	0.799995	0.499948
N131	N	0.674109	0.277368	-0.000057
N132	N	1.174109	0.777368	0.499943
C133	C	0.725673	0.314141	-0.000062
C134	C	1.225673	0.814141	0.499938
C135	C	0.617491	0.662324	-0.000031
C136	C	1.117491	1.162324	0.499969
C137	C	0.616778	0.721722	-0.000035
C138	C	1.116778	1.221722	0.499965
C139	C	0.720623	0.735869	-0.000047
C140	C	1.220623	1.235869	0.499953
C141	C	0.721335	0.676470	-0.000047
C142	C	1.221335	1.176470	0.499953
C143	C	0.669767	0.639698	-0.000037
C144	C	1.169767	1.139698	0.499963
C145	C	0.727163	0.189405	-0.000075
C146	C	1.227163	0.689405	0.499925
C147	C	0.727869	0.130003	-0.000083
C148	C	1.227869	0.630003	0.499917
C149	C	0.624025	0.115860	-0.000069
C150	C	1.124025	0.615860	0.499931
C151	C	0.623318	0.175257	-0.000064
C152	C	1.123318	0.675257	0.499936
C153	C	0.674891	0.212029	-0.000065
C154	C	1.174891	0.712029	0.499935
O155	O	0.578070	0.263215	-0.000067
O156	O	1.078070	0.763215	0.499933
O157	O	0.770196	0.289433	-0.000060
O158	O	1.270196	0.789433	0.499940
C159	C	0.711273	-0.035196	-0.563653
C160	C	1.211273	0.464804	-0.063653
C161	C	0.711275	-0.035192	-0.627261
C162	C	1.211275	0.464808	-0.127261
O163	O	0.744384	-0.002076	-0.660160
O164	O	1.244384	0.497924	-0.160160
N165	N	0.672333	-0.074115	-0.659072
N166	N	1.172333	0.425885	-0.159072
C167	C	0.633382	-0.113041	-0.627272
C168	C	1.133382	0.386959	-0.127272
O169	O	0.600259	-0.146148	-0.660170
O170	O	1.100259	0.353852	-0.160170
C171	C	0.633377	-0.113042	-0.563665
C172	C	1.133377	0.386958	-0.063665
C173	C	0.672326	-0.074120	-0.531858
C174	C	1.172326	0.425880	-0.031858
C175	C	0.750217	0.003723	-0.531846
C176	C	1.250217	0.503723	-0.031846
C177	C	0.750215	0.003719	-0.468243
C178	C	1.250215	0.503719	0.031757
C179	C	0.711268	-0.035205	-0.436447
C180	C	1.211268	0.464795	0.063553
C181	C	0.672324	-0.074125	-0.468255
C182	C	1.172324	0.425875	0.031745
C183	C	0.594424	-0.151965	-0.531866
C184	C	1.094424	0.348035	-0.031866
C185	C	0.594422	-0.151962	-0.468256
C186	C	1.094422	0.348038	0.031744
C187	C	0.633370	-0.113040	-0.436448
C188	C	1.133370	0.386960	0.063552
C189	C	0.633374	-0.113054	-0.372856
C190	C	1.133374	0.386946	0.127144
N191	N	0.672317	-0.074130	-0.341045
N192	N	1.172317	0.425870	0.158955
C193	C	0.711263	-0.035206	-0.372841
C194	C	1.211263	0.464794	0.127159
C195	C	0.633395	-0.113036	-0.760850
C196	C	1.133395	0.386964	-0.260850
C197	C	0.633402	-0.113039	-0.824455
C198	C	1.133402	0.386961	-0.324455
C199	C	0.711294	-0.035188	-0.824440
C200	C	1.211294	0.464812	-0.324440
C201	C	0.711290	-0.035189	-0.760833
C202	C	1.211290	0.464811	-0.260833
C203	C	0.672337	-0.074113	-0.729039
C204	C	1.172337	0.425887	-0.229039
C205	C	0.711256	-0.035220	-0.239269
C206	C	1.211256	0.464780	0.260731
C207	C	0.711252	-0.035229	-0.175660
C208	C	1.211252	0.464771	0.324340
C209	C	0.633358	-0.113077	-0.175681
C210	C	1.133358	0.386923	0.324319
C211	C	0.633364	-0.113070	-0.239284
C212	C	1.133364	0.386930	0.260716
C213	C	0.672315	-0.074136	-0.271077
C214	C	1.172315	0.425864	0.228923
O215	O	0.600282	-0.146151	-0.339916
O216	O	1.100282	0.353849	0.160084
O217	O	0.744376	-0.002100	-0.339935
O218	O	1.244376	0.497900	0.160065
N219	N	0.672347	-0.074112	0.143744
N220	N	1.172347	0.425888	0.643744
H221	H	0.246123	0.071339	-0.000107
H222	H	0.746123	0.571339	0.499893
F223	F	0.552969	-0.193390	-0.565707
F224	F	1.052969	0.306610	-0.065707
F225	F	0.791673	0.045156	-0.565676
F226	F	1.291673	0.545156	-0.065676
H227	H	0.580748	0.193677	-0.000071
H228	H	1.080748	0.693677	0.499929
H229	H	-0.034198	0.022693	-0.000086
H230	H	0.465802	0.522693	0.499914
H231	H	-0.167632	-0.164421	-0.000060
H232	H	0.332368	0.335579	0.499940
H233	H	0.404512	0.017441	-0.000058
H234	H	0.904512	0.517441	0.499942
F235	F	-0.147603	0.037054	-0.000077
F236	F	0.352397	0.537054	0.499923
F237	F	0.782053	0.228531	-0.000076
F238	F	1.282053	0.728531	0.499924
F239	F	0.513956	0.342871	-0.000010
F240	F	1.013956	0.842871	0.499990
F241	F	0.832169	0.386245	-0.000066
F242	F	1.332169	0.886245	0.499934
F243	F	0.132720	0.085706	-0.000100
F244	F	0.632720	0.585706	0.499900
F245	F	0.521475	0.029040	-0.000061
F246	F	1.021475	0.529040	0.499939
H247	H	0.206289	-0.220908	-0.000036
H248	H	0.706289	0.279092	0.499964
H249	H	0.762610	0.765821	-0.000048
H250	H	1.262610	1.265821	0.499952
H251	H	0.770443	0.111587	-0.000094
H252	H	1.270443	0.611587	0.499906
F253	F	0.591916	-0.154502	-0.273135
F254	F	1.091916	0.345498	0.226865
F255	F	0.830701	0.508838	-0.000066
F256	F	1.330701	1.008838	0.499934
H257	H	0.763906	0.658056	-0.000056
H258	H	1.263906	1.158056	0.499944
H259	H	0.525555	0.459814	-0.000009
H260	H	1.025555	0.959814	0.499991
F261	F	0.752713	0.006218	-0.273096
F262	F	1.252713	0.506218	0.226904
F263	F	0.561135	0.745792	-0.000034
F264	F	1.061135	1.245792	0.499966
H265	H	0.742971	-0.003534	-0.149765
H266	H	1.242971	0.496466	0.350235
F267	F	0.562602	0.623192	-0.000026
F268	F	1.062602	1.123192	0.499974
F269	F	0.791667	0.045147	-0.434397
F270	F	1.291667	0.545147	0.065603
H271	H	0.582043	0.085909	-0.000067
H272	H	1.082043	0.585909	0.499933
F273	F	0.752743	0.006237	-0.726987
F274	F	1.252743	0.506237	-0.226987
F275	F	0.752744	0.006239	-0.858291
F276	F	1.252744	0.506239	-0.358291
H277	H	0.601692	-0.144738	-0.850348
H278	H	1.101692	0.355262	-0.350348
H279	H	0.601676	-0.144737	-0.734966
H280	H	1.101676	0.355263	-0.234966
F281	F	0.591911	-0.154503	-0.141832
F282	F	1.091911	0.345497	0.358168
F283	F	0.492259	-0.185326	-0.000020
F284	F	0.992259	0.314674	0.499980
F285	F	0.369658	-0.183864	-0.000040
F286	F	0.869658	0.316136	0.499960
H287	H	0.562700	-0.183658	-0.442372
H288	H	1.062700	0.316342	0.057628
H289	H	-0.059867	-0.165717	-0.000057
H290	H	0.440133	0.334283	0.499943
F291	F	0.089351	-0.232512	-0.000044
F292	F	0.589351	0.267488	0.499956
