data_functionalizedCrystal
_audit_creation_method	'MofGen! by Chris Wilmer'
_symmetry_space_group_name_H-M	'P1'
_symmetry_Int_Tables_number	1
_symmetry_cell_setting	triclinic
loop_
_symmetry_equiv_pos_as_xyz
  x,y,z
_cell_length_a	25.639243
_cell_length_b	12.594517
_cell_length_c	12.594509
_cell_angle_alpha	89.976945
_cell_angle_beta	89.976423
_cell_angle_gamma	90.009358
loop_
_atom_site_label
_atom_site_type_symbol
_atom_site_fract_x
_atom_site_fract_y
_atom_site_fract_z
Zn1	Zn	0.799381	-0.423633	-0.601962
Zn2	Zn	0.799342	-0.601643	-0.424000
Zn3	Zn	0.711946	-0.423687	-0.423984
Zn4	Zn	0.711951	-0.601578	-0.601923
O5	O	0.755655	-0.512635	-0.512967
O6	O	0.872541	-0.447250	-0.578378
O7	O	0.787730	-0.578087	-0.275052
O8	O	0.723558	-0.274734	-0.447603
O9	O	0.872512	-0.578034	-0.447630
O10	O	0.787796	-0.274694	-0.578363
O11	O	0.723520	-0.447343	-0.275040
O12	O	0.638781	-0.447280	-0.447565
O13	O	0.723568	-0.577923	-0.750874
O14	O	0.638785	-0.577976	-0.578296
O15	O	0.787802	-0.447187	-0.750903
O16	O	0.787735	-0.750580	-0.447592
O17	O	0.723530	-0.750532	-0.578311
C18	C	0.619812	-0.512628	-0.512925
C19	C	0.561698	-0.512650	-0.512932
C20	C	0.201345	-0.444643	-0.581161
C21	C	0.146740	-0.444642	-0.581168
O22	O	0.118512	-0.386800	-0.639126
N23	N	0.119416	-0.512632	-0.512997
C24	C	0.146698	-0.580619	-0.444806
O25	O	0.118443	-0.638449	-0.386821
C26	C	0.201302	-0.580614	-0.444795
C27	C	0.228623	-0.512628	-0.512979
C28	C	0.228666	-0.376661	-0.649339
C29	C	0.283267	-0.376664	-0.649333
C30	C	0.310546	-0.444648	-0.581150
C31	C	0.283224	-0.512630	-0.512973
C32	C	0.228583	-0.648595	-0.376600
C33	C	0.283190	-0.648584	-0.376595
C34	C	0.310512	-0.580597	-0.444778
C35	C	0.365103	-0.580617	-0.444785
N36	N	0.392428	-0.512627	-0.512957
C37	C	0.365149	-0.444643	-0.581139
C38	C	0.032028	-0.580624	-0.444834
C39	C	-0.022575	-0.580635	-0.444849
C40	C	-0.022529	-0.444657	-0.581210
C41	C	0.032074	-0.444651	-0.581199
C42	C	0.059352	-0.512634	-0.513005
C43	C	0.479814	-0.444654	-0.581123
C44	C	0.534419	-0.444666	-0.581115
C45	C	0.534369	-0.580640	-0.444751
C46	C	0.479768	-0.580633	-0.444763
C47	C	0.452492	-0.512631	-0.512953
O48	O	0.393367	-0.638427	-0.386853
O49	O	0.393411	-0.386813	-0.639105
C50	C	0.755643	-0.789176	-0.512972
C51	C	0.755686	-0.907481	-0.513010
C52	C	0.755690	-0.512542	-0.790588
C53	C	0.755705	-0.512502	-0.908894
C54	C	0.892028	-0.512643	-0.513010
C55	C	0.950142	-0.512647	-0.513029
C56	C	0.755681	-0.235014	-0.512986
C57	C	0.755692	-0.116709	-0.512994
C58	C	0.790627	-0.047434	-0.584118
C59	C	0.803403	0.023324	-0.487019
C60	C	0.742934	0.023333	-0.610098
C61	C	0.768492	-0.047510	-0.415844
C62	C	0.708001	-0.047507	-0.538987
C63	C	0.720758	0.023219	-0.441821
C64	C	0.720779	-0.583569	-0.978131
C65	C	0.768488	-0.609570	-1.048928
C66	C	0.708032	-0.486436	-1.048896
C67	C	0.803439	-0.538555	-0.978132
C68	C	0.742951	-0.415376	-0.978094
C69	C	0.790694	-0.441340	-1.048859
C70	C	0.755650	-0.512651	-0.236426
C71	C	0.755736	-0.512391	-0.118121
H72	H	0.206347	-0.703956	-0.321077
H73	H	0.305397	-0.703943	-0.321060
H74	H	0.054316	-0.389288	-0.636718
C75	C	0.313314	-0.301864	-0.724321
H76	H	0.289241	-0.261371	-0.764915
H77	H	0.334626	-0.342619	-0.770637
H78	H	0.334604	-0.255431	-0.683666
C79	C	0.680845	0.064877	-0.360489
H80	H	0.689992	0.040488	-0.291578
H81	H	0.647071	0.039552	-0.378359
H82	H	0.680860	0.140302	-0.361339
H83	H	0.779330	-0.078497	-0.333709
H84	H	0.457522	-0.636006	-0.389254
C85	C	0.653553	-0.456709	-1.090886
H86	H	0.628772	-0.507313	-1.066656
H87	H	0.654031	-0.456245	-1.166303
H88	H	0.644242	-0.388236	-1.065582
C89	C	-0.052543	-0.369867	-0.656204
H90	H	-0.088975	-0.379605	-0.646432
H91	H	-0.043581	-0.385523	-0.727695
H92	H	-0.043594	-0.298329	-0.640731
H93	H	0.732146	0.054452	-0.692210
C94	C	0.728337	-0.304514	-0.936022
H95	H	0.694425	-0.286137	-0.960207
H96	H	0.752812	-0.253813	-0.961292
H97	H	0.728745	-0.305207	-0.860600
H98	H	-0.044815	-0.636009	-0.389339
C99	C	0.830567	-0.089357	-0.665262
H100	H	0.813125	-0.130851	-0.717268
H101	H	0.855726	-0.131899	-0.629837
H102	H	0.847486	-0.031176	-0.698752
H103	H	0.779293	-0.691661	-1.080041
C104	C	0.564470	-0.369874	-0.656115
H105	H	0.540401	-0.329378	-0.696713
H106	H	0.585779	-0.410641	-0.702426
H107	H	0.585765	-0.323443	-0.615466
H108	H	0.820277	-0.381194	-1.079718
C109	C	0.857880	0.065363	-0.457319
H110	H	0.882665	0.041180	-0.507916
H111	H	0.867182	0.040066	-0.388832
H112	H	0.857403	0.140785	-0.456911
H113	H	0.556589	-0.635994	-0.389241
C114	C	0.062029	-0.655427	-0.369833
H115	H	0.037931	-0.695923	-0.329247
H116	H	0.083323	-0.614667	-0.323511
H117	H	0.083334	-0.701857	-0.410479
H118	H	0.667684	-0.078640	-0.561001
C119	C	0.680911	-0.664876	-0.936169
H120	H	0.690071	-0.733815	-0.960425
H121	H	0.647121	-0.647075	-0.961439
H122	H	0.680956	-0.663913	-0.860746
C123	C	0.857943	-0.568354	-0.936325
H124	H	0.857596	-0.568231	-0.860896
H125	H	0.882765	-0.518122	-0.961123
H126	H	0.867089	-0.637094	-0.961152
C127	C	0.198668	-0.301878	-0.724353
H128	H	0.222768	-0.261403	-0.764954
H129	H	0.177357	-0.255445	-0.683733
H130	H	0.177380	-0.342661	-0.770676
C131	C	0.449818	-0.369865	-0.656140
H132	H	0.473916	-0.329391	-0.696746
H133	H	0.428509	-0.323430	-0.615518
H134	H	0.428528	-0.410647	-0.702459
