data_functionalizedCrystal
_audit_creation_method	'MofGen! by Chris Wilmer'
_symmetry_space_group_name_H-M	'P1'
_symmetry_Int_Tables_number	1
_symmetry_cell_setting	triclinic
loop_
_symmetry_equiv_pos_as_xyz
  x,y,z
_cell_length_a	27.435584
_cell_length_b	27.434948
_cell_length_c	27.431174
_cell_angle_alpha	60.005483
_cell_angle_beta	60.011353
_cell_angle_gamma	59.993028
loop_
_atom_site_label
_atom_site_type_symbol
_atom_site_fract_x
_atom_site_fract_y
_atom_site_fract_z
O1	O	0.067437	-0.712144	0.595551
O2	O	0.025356	-0.554453	0.479848
O3	O	0.125206	-0.654236	0.479781
O4	O	-0.032412	-0.612361	0.595618
O5	O	0.158328	-0.621117	0.512835
O6	O	0.058479	-0.521333	0.512902
O7	O	0.100560	-0.679025	0.628605
Zn8	Zn	0.084778	-0.594921	0.576001
Zn9	Zn	0.041138	-0.638557	0.532452
O10	O	0.000710	-0.579241	0.628672
N11	N	0.114563	-0.565144	0.605726
N12	N	0.011358	-0.668338	0.502727
C13	C	0.156385	-0.523520	0.904506
C14	C	0.413419	-0.523497	0.647322
C15	C	0.156253	-0.523488	0.647384
C16	C	0.156238	-0.266354	0.647407
C17	C	0.197637	-0.390463	0.688753
C18	C	0.197646	-0.482126	0.688741
C19	C	0.220575	-0.459215	0.711654
C20	C	0.320555	-0.441991	0.659023
C21	C	0.383051	-0.462825	0.638179
C22	C	0.383069	-0.563942	0.676737
C23	C	0.320575	-0.543107	0.697583
C24	C	0.212704	-0.359206	0.627313
C25	C	0.191849	-0.296705	0.606496
C26	C	0.140866	-0.296722	0.708562
C27	C	0.161721	-0.359223	0.729379
C28	C	0.136200	-0.467030	0.703858
C29	C	0.115361	-0.487857	0.683021
C30	C	0.217408	-0.538877	0.631968
C31	C	0.238249	-0.518050	0.652796
C32	C	0.136259	-0.467047	0.811668
C33	C	0.115461	-0.487892	0.874167
C34	C	0.217537	-0.538923	0.874131
C35	C	0.238333	-0.518080	0.811631
C36	C	0.197693	-0.482140	0.780401
C37	C	0.289320	-0.482131	0.688723
C38	C	0.132699	-0.546027	0.973247
C39	C	0.482158	-0.545613	0.624075
C40	C	0.132521	-0.546006	0.624886
C41	C	0.132917	-0.197607	0.625310
C42	C	-0.098217	-0.686189	0.484419
C43	C	-0.006438	-0.686322	0.392891
C44	C	-0.006621	-0.777944	0.484592
C45	C	-0.006606	-0.686315	0.484649
C46	C	-0.029470	-0.709193	0.461638
N47	N	0.538410	-0.565162	0.605628
O48	O	0.742647	-0.575135	0.458625
O49	O	0.742821	-0.691181	0.616169
O50	O	0.742757	-0.690917	0.516248
O51	O	0.742711	-0.575399	0.558546
O52	O	0.643472	-0.657878	0.549405
O53	O	0.643536	-0.658142	0.649326
O54	O	0.643362	-0.542096	0.491782
Zn55	Zn	0.627685	-0.594873	0.575818
Zn56	Zn	0.758498	-0.638404	0.532133
O57	O	0.643426	-0.542360	0.591702
N58	N	0.847774	-0.668115	0.502317
N59	N	0.114542	-0.141354	0.605766
O60	O	-0.032397	0.062987	0.595660
O61	O	0.125155	0.062987	0.479633
O62	O	0.025219	0.062974	0.479910
O63	O	0.067539	0.063001	0.595383
O64	O	0.058343	-0.036320	0.513009
O65	O	0.158279	-0.036306	0.512732
O66	O	0.000728	-0.036306	0.628759
Zn67	Zn	0.084763	-0.052071	0.576000
Zn68	Zn	0.041120	0.078752	0.532392
O69	O	0.100664	-0.036292	0.628482
N70	N	0.011333	0.168036	0.502628
N71	N	0.114782	-0.565197	1.029501
O72	O	0.104681	-0.712124	1.233827
O73	O	-0.011334	-0.554523	1.233839
O74	O	-0.011066	-0.654443	1.233797
O75	O	0.104414	-0.612204	1.233869
O76	O	0.022028	-0.621336	1.134509
O77	O	0.021760	-0.521417	1.134551
O78	O	0.137775	-0.679018	1.134539
Zn79	Zn	0.085022	-0.594961	1.118780
Zn80	Zn	0.041420	-0.638580	1.249597
O81	O	0.137508	-0.579098	1.134580
N82	N	0.011658	-0.668350	1.338876
C83	C	0.037974	-0.518023	0.480435
C84	C	0.161625	-0.641592	0.480351
C85	C	0.087941	-0.715455	0.628017
C86	C	-0.035710	-0.591885	0.628101
C87	C	0.693199	-0.690642	0.652596
C88	C	0.693122	-0.690315	0.528855
C89	C	0.692981	-0.542634	0.455356
C90	C	0.693062	-0.542961	0.579095
C91	C	0.161524	0.013463	0.480164
C92	C	0.037807	0.013324	0.480547
C93	C	-0.035683	0.013341	0.628188
C94	C	0.088076	0.013357	0.627845
C95	C	-0.010764	-0.518114	1.184196
C96	C	-0.010426	-0.641846	1.184125
C97	C	0.137205	-0.715426	1.184182
C98	C	0.136875	-0.591687	1.184231
H99	H	0.065433	-0.475593	0.899616
C100	C	0.221759	0.013864	0.431533
C101	C	0.258577	0.014001	0.452877
C102	C	0.314066	0.014379	0.408092
H103	H	0.239837	-0.020676	0.420495
H104	H	0.216345	0.048578	0.397713
H105	H	0.263992	-0.020710	0.486686
H106	H	0.240517	0.048539	0.463910
H107	H	0.308652	0.049093	0.374273
H108	H	0.332138	-0.020163	0.397058
H109	H	0.339051	0.014477	0.422566
H110	H	-0.046689	-0.650868	1.184063
C111	C	0.025718	0.013432	0.432117
C112	C	0.032280	0.064518	0.382152
C113	C	0.021138	0.064639	0.337534
H114	H	0.053241	-0.021157	0.421175
H115	H	-0.013822	0.013460	0.446686
H116	H	0.071814	0.064484	0.367586
H117	H	0.004759	0.099115	0.393076
H118	H	-0.018402	0.064668	0.352102
H119	H	0.048662	0.030048	0.326597
H120	H	0.025583	0.099303	0.303630
H121	H	0.206895	-0.650521	0.443974
H122	H	0.097136	0.013366	0.664120
H123	H	0.096930	-0.760753	0.664356
C124	C	0.185840	-0.775725	1.184055
C125	C	0.235756	-0.767859	1.132977
C126	C	0.280567	-0.823394	1.132836
H127	H	0.196759	-0.793642	1.218646
H128	H	0.171457	-0.800814	1.184005
H129	H	0.250137	-0.742781	1.133033
H130	H	0.224856	-0.749952	1.098378
H131	H	0.266184	-0.848482	1.132785
H132	H	0.291481	-0.841306	1.167429
H133	H	0.314438	-0.818065	1.098177
H134	H	0.173154	-0.582650	1.184245
H135	H	-0.080930	0.013340	0.664614
C136	C	-0.059267	-0.457733	1.184229
C137	C	-0.037882	-0.420897	1.184269
C138	C	-0.082548	-0.365273	1.184307
H139	H	-0.070144	-0.439790	1.149607
H140	H	-0.093195	-0.462932	1.218860
H141	H	-0.003964	-0.415697	1.149641
H142	H	-0.027009	-0.438822	1.218888
H143	H	-0.116477	-0.370472	1.218938
H144	H	-0.093422	-0.347335	1.149685
H145	H	-0.068046	-0.340275	1.184339
C146	C	-0.096100	-0.579862	0.676543
C147	C	-0.132886	-0.521593	0.655058
C148	C	-0.188518	-0.510493	0.699669
H149	H	-0.114072	-0.607395	0.687450
H150	H	-0.090912	-0.584316	0.710469
H151	H	-0.138076	-0.517144	0.621142
H152	H	-0.114933	-0.494047	0.644155
H153	H	-0.183330	-0.514947	0.733595
H154	H	-0.206484	-0.538029	0.710573
H155	H	-0.213482	-0.470955	0.685100
C156	C	0.693291	-0.739156	0.712955
C157	C	0.693314	-0.717762	0.749803
C158	C	0.693407	-0.762439	0.805407
H159	H	0.658695	-0.750057	0.730902
H160	H	0.727946	-0.773075	0.707730
H161	H	0.658663	-0.683855	0.755029
H162	H	0.727907	-0.706866	0.731875
H163	H	0.728061	-0.796357	0.800183
H164	H	0.658810	-0.773336	0.823348
H165	H	0.693428	-0.747931	0.830413
H166	H	0.103160	-0.437777	0.786243
H167	H	0.250633	-0.568176	0.899553
C168	C	0.692879	-0.493963	0.395078
C169	C	0.692832	-0.442949	0.395166
C170	C	0.692729	-0.398100	0.339652
H171	H	0.727481	-0.507548	0.364635
H172	H	0.658230	-0.484551	0.387808
H173	H	0.727477	-0.452360	0.402429
H174	H	0.658233	-0.429346	0.425597
H175	H	0.658081	-0.388688	0.332382
H176	H	0.727331	-0.411691	0.309213
H177	H	0.692692	-0.363480	0.339706
C178	C	0.305061	-0.534510	0.777794
C179	C	0.336197	-0.570429	0.818523
C180	C	0.397666	-0.585570	0.787375
H181	H	0.315379	-0.555742	0.753408
H182	H	0.315321	-0.499179	0.753429
H183	H	0.325941	-0.605755	0.842878
H184	H	0.325898	-0.549209	0.842910
H185	H	0.407926	-0.550239	0.763010
H186	H	0.407977	-0.606800	0.762990
H187	H	0.418799	-0.609938	0.815005
C188	C	0.693112	-0.738619	0.516686
C189	C	0.693046	-0.716964	0.458414
C190	C	0.693028	-0.761442	0.447185
H191	H	0.727748	-0.772585	0.521066
H192	H	0.658498	-0.749507	0.544213
H193	H	0.727656	-0.706085	0.430895
H194	H	0.658412	-0.683004	0.454020
H195	H	0.658414	-0.772329	0.474713
H196	H	0.727665	-0.795404	0.451569
H197	H	0.692978	-0.746753	0.407650
H198	H	0.103135	-0.437780	0.733124
H199	H	0.065328	-0.475552	0.695316
H200	H	0.250475	-0.568133	0.602707
H201	H	0.028987	-0.472723	0.444098
C202	C	0.693013	-0.494638	0.591285
C203	C	0.693051	-0.516284	0.649566
C204	C	0.692997	-0.471783	0.660818
H205	H	0.727602	-0.483711	0.563786
H206	H	0.658352	-0.460695	0.586893
H207	H	0.727708	-0.550216	0.653953
H208	H	0.658464	-0.527206	0.677077
H209	H	0.658336	-0.437840	0.656426
H210	H	0.727587	-0.460859	0.633316
H211	H	0.693017	-0.486461	0.700364
H212	H	0.288283	-0.530335	0.640482
H213	H	0.408519	-0.613593	0.683941
C214	C	0.286692	-0.586702	0.729716
C215	C	0.301866	-0.615719	0.691682
C216	C	0.270660	-0.655877	0.721260
H217	H	0.296929	-0.615376	0.764441
H218	H	0.244990	-0.565579	0.740847
H219	H	0.343559	-0.636840	0.680559
H220	H	0.291628	-0.587059	0.656957
H221	H	0.228958	-0.634754	0.732391
H222	H	0.280899	-0.684547	0.755984
H223	H	0.280947	-0.675566	0.695457
C224	C	0.416932	-0.419199	0.605826
C225	C	0.401714	-0.377103	0.554669
C226	C	0.432919	-0.336909	0.524846
H227	H	0.406726	-0.399377	0.631471
H228	H	0.458634	-0.440314	0.594641
H229	H	0.360020	-0.355991	0.565855
H230	H	0.411921	-0.396908	0.529010
H231	H	0.474622	-0.358024	0.513661
H232	H	0.422711	-0.317092	0.550495
H233	H	0.422602	-0.308346	0.490130
C234	C	0.251663	-0.393017	0.583113
C235	C	0.260374	-0.352264	0.524849
C236	C	0.296252	-0.383388	0.484114
H237	H	0.289165	-0.417401	0.589022
H238	H	0.232581	-0.417385	0.589089
H239	H	0.279457	-0.327906	0.518876
H240	H	0.222882	-0.327880	0.518921
H241	H	0.277170	-0.407756	0.490090
H242	H	0.333752	-0.407771	0.490029
H243	H	0.302163	-0.355742	0.444578
C244	C	0.286547	-0.375816	0.649527
C245	C	0.250679	-0.367438	0.704953
C246	C	0.219335	-0.306485	0.696228
H247	H	0.314035	-0.354830	0.628884
H248	H	0.262118	-0.361140	0.626661
H249	H	0.275106	-0.382106	0.727810
H250	H	0.223180	-0.388409	0.725605
H251	H	0.194906	-0.291809	0.673362
H252	H	0.246828	-0.285505	0.675584
H253	H	0.194991	-0.300793	0.733832
H254	H	0.111630	-0.271286	0.741644
C255	C	0.208116	-0.262657	0.539809
C256	C	0.182155	-0.201235	0.530273
C257	C	0.197121	-0.169852	0.468850
H258	H	0.250269	-0.272824	0.522180
H259	H	0.193713	-0.272860	0.522240
H260	H	0.196560	-0.191037	0.547834
H261	H	0.140002	-0.191050	0.547888
H262	H	0.182719	-0.180055	0.451281
H263	H	0.239275	-0.180024	0.451227
H264	H	0.179505	-0.128175	0.462372
C265	C	0.145324	-0.393056	0.796112
C266	C	0.109416	-0.352320	0.827235
C267	C	0.094305	-0.383464	0.888708
H268	H	0.124095	-0.417440	0.806439
H269	H	0.180663	-0.417424	0.806375
H270	H	0.074083	-0.327962	0.816976
H271	H	0.130633	-0.327934	0.816925
H272	H	0.129645	-0.407832	0.898972
H273	H	0.073079	-0.407847	0.899030
H274	H	0.069946	-0.355829	0.909833
