data_functionalizedCrystal
_audit_creation_method	'MofGen! by Chris Wilmer'
_symmetry_space_group_name_H-M	'P1'
_symmetry_Int_Tables_number	1
_symmetry_cell_setting	triclinic
loop_
_symmetry_equiv_pos_as_xyz
  x,y,z
_cell_length_a	18.101398
_cell_length_b	19.120786
_cell_length_c	18.101389
_cell_angle_alpha	87.539356
_cell_angle_beta	89.975673
_cell_angle_gamma	92.460164
loop_
_atom_site_label
_atom_site_type_symbol
_atom_site_fract_x
_atom_site_fract_y
_atom_site_fract_z
Zn1	Zn	1.119565	-0.279790	-0.406239
Zn2	Zn	1.114191	-0.397230	-0.277109
Zn3	Zn	0.995724	-0.279782	-0.282401
Zn4	Zn	0.990406	-0.397200	-0.400899
O5	O	1.054972	-0.338501	-0.341662
O6	O	1.222484	-0.295384	-0.389130
O7	O	1.098453	-0.381660	-0.174178
O8	O	1.016627	-0.181494	-0.303278
O9	O	1.218536	-0.381667	-0.294259
O10	O	1.107612	-0.181499	-0.394261
O11	O	1.011416	-0.295372	-0.178066
O12	O	0.891387	-0.295342	-0.298100
O13	O	1.007563	-0.381616	-0.505241
O14	O	0.887479	-0.381609	-0.385160
O15	O	1.102455	-0.295355	-0.509164
O16	O	1.093295	-0.495516	-0.289081
O17	O	1.002351	-0.495494	-0.380029
C18	C	0.862562	-0.338472	-0.341625
C19	C	0.780248	-0.338477	-0.341626
C20	C	0.481155	-0.338521	-0.341686
C21	C	0.514926	-0.283973	-0.287201
C22	C	0.600538	-0.284119	-0.286952
C23	C	0.629539	-0.338498	-0.341656
C24	C	0.595100	-0.412484	-0.317000
C25	C	0.509469	-0.412181	-0.316618
C26	C	0.513613	-0.319726	-0.420932
C27	C	0.599338	-0.318078	-0.420578
C28	C	0.713398	-0.338490	-0.341640
C29	C	0.397295	-0.338534	-0.341700
C30	C	1.046683	-0.520990	-0.333418
C31	C	1.043205	-0.599060	-0.329915
C32	C	1.088907	-0.635679	-0.375679
C33	C	1.085636	-0.709034	-0.372389
C34	C	1.036666	-0.745768	-0.323332
C35	C	0.990959	-0.709143	-0.277567
C36	C	0.994227	-0.635790	-0.280860
C37	C	1.024428	-0.967251	-0.311018
C38	C	1.021165	-1.040609	-0.307726
C39	C	1.115841	-1.040495	-0.402550
C40	C	1.119108	-0.967141	-0.405836
C41	C	1.073398	-0.930522	-0.360074
C42	C	1.033323	-0.820748	-0.319966
C43	C	1.076738	-0.855543	-0.363443
C44	C	1.248132	-0.338530	-0.341700
C45	C	1.330446	-0.338542	-0.341716
C46	C	1.055015	-0.338483	-0.534825
C47	C	1.055034	-0.338475	-0.617140
C48	C	1.063313	-0.155299	-0.349956
C49	C	1.066867	-0.077229	-0.353490
C50	C	1.055083	-0.338344	-0.916237
C51	C	0.995189	-0.392444	-0.882451
C52	C	0.995333	-0.392695	-0.796821
C53	C	1.055058	-0.338409	-0.767851
C54	C	1.132181	-0.358507	-0.798052
C55	C	1.131845	-0.358862	-0.883681
C56	C	1.038537	-0.264025	-0.888008
C57	C	1.036781	-0.264454	-0.802337
C58	C	1.055049	-0.338445	-0.683990
C59	C	1.055097	-0.338310	-1.000098
C60	C	1.054973	-0.338468	-0.149253
C61	C	1.055107	-0.338277	-0.066948
H62	H	0.622125	-0.263633	-0.439109
H63	H	0.938039	-0.380118	-0.776355
H64	H	1.158983	-0.937233	-0.445783
H65	H	1.122857	-0.738847	-0.409649
H66	H	1.146262	-0.413190	-0.901218
Br67	Br	0.478075	-0.304428	-0.190019
H68	H	0.983451	-0.245715	-0.910418
Br69	Br	1.156743	-0.448095	-0.758281
Br70	Br	0.942205	-0.239195	-0.769600
H71	H	0.624040	-0.229255	-0.302789
H72	H	1.128786	-0.605776	-0.415623
H73	H	0.987211	-0.937442	-0.273755
Br74	Br	0.481627	-0.231370	-0.457225
Br75	Br	1.177870	-1.090195	-0.464654
H76	H	0.981285	-1.070516	-0.267777
Br77	Br	0.625907	-0.482040	-0.380834
H78	H	0.620434	-0.296543	-0.228299
H79	H	0.951084	-0.739058	-0.237626
H80	H	0.488742	-0.428121	-0.258586
H81	H	0.486861	-0.454199	-0.354390
Br82	Br	1.143189	-0.805689	-0.430025
H83	H	1.077487	-0.222006	-0.782865
Br84	Br	0.484760	-0.192245	-0.313362
H85	H	1.082201	-0.223717	-0.910099
H86	H	0.491574	-0.359457	-0.461569
Br87	Br	0.629576	-0.439517	-0.221287
H88	H	1.177804	-0.321168	-0.906119
H89	H	0.957011	-0.605975	-0.243596
Br90	Br	1.208320	-0.294895	-0.767011
H91	H	0.937715	-0.379996	-0.903597
Br92	Br	0.632253	-0.379476	-0.492318
Br93	Br	1.012703	-0.483690	-0.914280
Br94	Br	0.966859	-0.870607	-0.253397
H95	H	1.005987	-0.447783	-0.773858
