data_functionalizedCrystal
_audit_creation_method	'MofGen! by Chris Wilmer'
_symmetry_space_group_name_H-M	'P1'
_symmetry_Int_Tables_number	1
_symmetry_cell_setting	triclinic
loop_
_symmetry_equiv_pos_as_xyz
  x,y,z
_cell_length_a	16.109302
_cell_length_b	14.586319
_cell_length_c	10.654550
_cell_angle_alpha	90.002626
_cell_angle_beta	83.973342
_cell_angle_gamma	90.005448
loop_
_atom_site_label
_atom_site_type_symbol
_atom_site_fract_x
_atom_site_fract_y
_atom_site_fract_z
O1	O	1.104090	0.076279	0.161423
O2	O	0.862148	0.076272	0.181511
O3	O	0.988682	0.076272	-0.011348
O4	O	0.977556	0.076279	0.354282
O5	O	0.988673	-0.076209	-0.011350
O6	O	0.862139	-0.076209	0.181508
O7	O	1.104081	-0.076202	0.161420
Cu8	Cu	0.983109	-0.090128	0.171464
Cu9	Cu	0.983120	0.090198	0.171467
O10	O	0.977547	-0.076202	0.354279
C11	C	0.831164	0.000030	0.180695
C12	C	0.738854	0.000028	0.178255
N13	N	0.983108	-0.216960	0.171461
C14	C	0.526474	-0.083081	0.172612
C15	C	0.439741	-0.083078	0.170306
C16	C	0.439761	0.083165	0.170316
C17	C	0.526494	0.083161	0.172613
C18	C	0.569848	0.000035	0.173767
C19	C	0.396381	0.000043	0.169164
C20	C	0.302341	0.000047	0.166664
C21	C	0.663895	0.000031	0.176265
C22	C	1.039156	-0.451966	0.086092
C23	C	1.039158	-0.547947	0.086089
C24	C	0.927073	-0.547957	0.256834
C25	C	0.927068	-0.451978	0.256830
C26	C	0.983114	-0.403985	0.171460
C27	C	0.983122	-0.595945	0.171461
C28	C	0.983124	-0.700012	0.171458
C29	C	0.983111	-0.299911	0.171461
C30	C	1.135065	0.000042	0.162236
C31	C	1.227375	0.000051	0.164676
C32	C	0.987860	0.000033	-0.058136
C33	C	0.985416	0.000036	-0.197546
N34	N	0.983128	0.217030	0.171460
C35	C	1.059918	0.000036	-0.278042
C36	C	1.057616	0.000042	-0.409032
C37	C	0.906306	0.000045	-0.379016
C38	C	0.908608	0.000046	-0.248029
C39	C	1.147275	0.000030	-0.295373
C40	C	1.144974	0.000036	-0.426362
C41	C	0.978369	0.000039	0.401067
C42	C	0.980813	0.000042	0.540477
H43	H	0.404430	-0.150759	0.169366
H44	H	0.881427	-0.412909	0.326348
C45	C	0.392754	0.173442	0.168824
C46	C	0.422572	0.223585	0.061396
C47	C	0.379285	0.306749	0.059978
H48	H	0.401029	0.207698	0.242308
H49	H	0.334883	0.161583	0.167228
H50	H	0.480429	0.235446	0.063003
H51	H	0.414297	0.189357	-0.012106
H52	H	0.321414	0.294890	0.058383
H53	H	0.387563	0.340996	0.133467
H54	H	0.399505	0.340777	-0.012916
C55	C	1.188979	-0.085017	-0.482513
C56	C	1.272076	-0.084820	-0.454993
C57	C	1.312631	-0.163159	-0.506686
H58	H	1.187510	-0.085091	-0.571406
H59	H	1.161595	-0.138221	-0.447332
H60	H	1.299453	-0.031630	-0.490179
H61	H	1.273570	-0.084760	-0.366110
H62	H	1.285247	-0.216363	-0.471505
H63	H	1.311156	-0.163227	-0.595577
H64	H	1.369014	-0.163040	-0.488012
C65	C	0.573681	0.173340	0.174069
C66	C	0.614761	0.178180	0.283348
C67	C	0.658248	0.261229	0.284720
H68	H	0.535530	0.222924	0.173129
H69	H	0.613480	0.176800	0.101814
H70	H	0.574967	0.174729	0.355584
H71	H	0.652926	0.128615	0.284312
H72	H	0.698047	0.264689	0.212465
H73	H	0.620091	0.310806	0.283776
H74	H	0.686132	0.264520	0.358859
C75	C	0.573402	-0.173424	0.173781
C76	C	0.516852	-0.246212	0.172239
C77	C	0.560050	-0.329452	0.173293
H78	H	0.601323	-0.177018	0.247845
H79	H	0.613139	-0.176927	0.101457
H80	H	0.477130	-0.242711	0.244557
H81	H	0.488929	-0.242649	0.098181
H82	H	0.599787	-0.332955	0.100968
H83	H	0.587969	-0.333036	0.247358
H84	H	0.521689	-0.378848	0.172235
C85	C	1.192701	0.085146	-0.256629
C86	C	1.138910	0.137212	-0.172950
C87	C	1.180727	0.215620	-0.137221
H88	H	1.210126	0.120705	-0.329338
H89	H	1.240127	0.067453	-0.216421
H90	H	1.091499	0.154906	-0.213160
H91	H	1.121482	0.101681	-0.100223
H92	H	1.228153	0.197927	-0.097012
H93	H	1.198150	0.251171	-0.209936
H94	H	1.144239	0.250951	-0.080432
H95	H	1.084791	-0.412892	0.016577
H96	H	0.881443	-0.587043	0.326341
H97	H	1.175089	-0.065808	-0.260124
H98	H	1.084792	-0.587011	0.016573
H99	H	0.847942	0.000059	-0.182493
H100	H	0.843771	0.000054	-0.420136
C101	C	1.180090	0.087923	-0.487516
C102	C	1.133266	0.162738	-0.437416
C103	C	1.165595	0.243713	-0.493708
H104	H	1.177293	0.085035	-0.576039
H105	H	1.236583	0.094999	-0.471142
H106	H	1.076787	0.155664	-0.453800
H107	H	1.136058	0.165656	-0.348899
H108	H	1.222088	0.250788	-0.477333
H109	H	1.162797	0.240815	-0.582228
H110	H	1.133835	0.294485	-0.459714
