data_functionalizedCrystal
_audit_creation_method	'MofGen! by Chris Wilmer'
_symmetry_space_group_name_H-M	'P1'
_symmetry_Int_Tables_number	1
_symmetry_cell_setting	triclinic
loop_
_symmetry_equiv_pos_as_xyz
  x,y,z
_cell_length_a	18.101398
_cell_length_b	19.121063
_cell_length_c	18.101389
_cell_angle_alpha	92.419391
_cell_angle_beta	89.975673
_cell_angle_gamma	92.464489
loop_
_atom_site_label
_atom_site_type_symbol
_atom_site_fract_x
_atom_site_fract_y
_atom_site_fract_z
Zn1	Zn	1.119554	-0.279777	-0.431404
Zn2	Zn	1.619554	0.220223	0.068596
Zn3	Zn	1.114175	-0.397213	-0.312837
Zn4	Zn	1.614175	0.102787	0.187163
Zn5	Zn	0.995713	-0.279770	-0.307565
Zn6	Zn	1.495713	0.220230	0.192435
Zn7	Zn	0.990390	-0.397183	-0.436624
Zn8	Zn	1.490390	0.102817	0.063376
O9	O	1.054958	-0.338486	-0.372107
O10	O	1.554958	0.161514	0.127893
O11	O	1.222473	-0.295371	-0.415698
O12	O	1.722473	0.204629	0.084302
O13	O	1.098437	-0.381644	-0.208505
O14	O	1.598437	0.118356	0.291495
O15	O	1.016620	-0.181486	-0.319601
O16	O	1.516620	0.318514	0.180399
O17	O	1.218521	-0.381651	-0.328587
O18	O	1.718521	0.118349	0.171413
O19	O	1.107605	-0.181491	-0.410586
O20	O	1.607605	0.318509	0.089414
O21	O	1.011404	-0.295359	-0.204632
O22	O	1.511404	0.204641	0.295368
O23	O	0.891375	-0.295330	-0.324663
O24	O	1.391375	0.204670	0.175337
O25	O	1.007547	-0.381599	-0.539564
O26	O	1.507547	0.118401	-0.039564
O27	O	0.887464	-0.381592	-0.419482
O28	O	1.387464	0.118408	0.080518
O29	O	1.102443	-0.295342	-0.535729
O30	O	1.602443	0.204658	-0.035729
O31	O	1.093276	-0.495494	-0.333648
O32	O	1.593276	0.004506	0.166352
O33	O	1.002331	-0.495472	-0.424594
O34	O	1.502331	0.004528	0.075406
C35	C	0.862549	-0.338457	-0.372067
C36	C	1.362549	0.161543	0.127933
C37	C	0.780234	-0.338462	-0.372069
C38	C	1.280234	0.161538	0.127931
C39	C	0.481141	-0.338506	-0.372133
C40	C	0.981141	0.161494	0.127867
C41	C	0.514915	-0.283961	-0.312742
C42	C	1.014915	0.216039	0.187258
C43	C	0.600526	-0.284107	-0.312506
C44	C	1.100526	0.215893	0.187494
C45	C	0.629525	-0.338484	-0.372101
C46	C	1.129525	0.161516	0.127899
C47	C	0.595084	-0.412466	-0.354099
C48	C	1.095084	0.087534	0.145901
C49	C	0.509452	-0.412163	-0.353690
C50	C	1.009452	0.087837	0.146310
C51	C	0.513600	-0.319712	-0.449688
C52	C	1.013600	0.180288	0.050312
C53	C	0.599325	-0.318065	-0.449186
C54	C	1.099325	0.181935	0.050814
C55	C	0.713385	-0.338476	-0.372084
C56	C	1.213385	0.161524	0.127916
C57	C	0.397281	-0.338519	-0.372148
C58	C	0.897281	0.161481	0.127852
C59	C	1.046662	-0.520967	-0.380276
C60	C	1.546662	-0.020967	0.119724
C61	C	1.043181	-0.599034	-0.383795
C62	C	1.543181	-0.099034	0.116205
C63	C	1.088932	-0.635698	-0.338137
C64	C	1.588932	-0.135698	0.161863
C65	C	1.085662	-0.709049	-0.341451
C66	C	1.585662	-0.209049	0.158549
C67	C	1.036637	-0.745735	-0.390420
C68	C	1.536637	-0.245735	0.109580
C69	C	0.990884	-0.709066	-0.436083
C70	C	1.490884	-0.209066	0.063917
C71	C	0.994158	-0.635716	-0.432772
C72	C	1.494158	-0.135716	0.067228
C73	C	1.024385	-0.967206	-0.402788
C74	C	1.524385	-0.467206	0.097212
C75	C	1.021113	-1.040562	-0.406094
C76	C	1.521113	-0.540562	0.093906
C77	C	1.115892	-1.040539	-0.311462
C78	C	1.615892	-0.540539	0.188538
C79	C	1.119159	-0.967188	-0.308152
C80	C	1.619159	-0.467188	0.191848
C81	C	1.073408	-0.930525	-0.353818
C82	C	1.573408	-0.430525	0.146182
C83	C	1.033292	-0.820713	-0.393807
C84	C	1.533292	-0.320713	0.106193
C85	C	1.076758	-0.855549	-0.350434
C86	C	1.576758	-0.355549	0.149566
C87	C	1.248119	-0.338515	-0.372148
C88	C	1.748119	0.161485	0.127852
C89	C	1.330432	-0.338528	-0.372165
C90	C	1.830432	0.161472	0.127835
C91	C	1.055002	-0.338468	-0.565269
C92	C	1.555002	0.161532	-0.065269
C93	C	1.055020	-0.338461	-0.647582
C94	C	1.555020	0.161539	-0.147582
C95	C	1.063306	-0.155292	-0.363923
C96	C	1.563306	0.344708	0.136077
C97	C	1.066864	-0.077226	-0.360436
C98	C	1.566864	0.422774	0.139564
C99	C	1.055069	-0.338329	-0.946668
C100	C	1.555069	0.161671	-0.446668
C101	C	0.995174	-0.392427	-0.917747
C102	C	1.495174	0.107573	-0.417747
C103	C	0.995318	-0.392678	-0.832140
C104	C	1.495318	0.107322	-0.332140
C105	C	1.055044	-0.338394	-0.798288
C106	C	1.555044	0.161606	-0.298288
C107	C	1.132167	-0.358491	-0.830296
C108	C	1.632167	0.141509	-0.330296
C109	C	1.131831	-0.358846	-0.915957
C110	C	1.631831	0.141154	-0.415957
C111	C	1.038526	-0.264013	-0.911754
C112	C	1.538526	0.235987	-0.411754
C113	C	1.036771	-0.264443	-0.826122
C114	C	1.536771	0.235557	-0.326122
C115	C	1.055035	-0.338430	-0.714430
C116	C	1.555035	0.161570	-0.214430
C117	C	1.055084	-0.338295	-1.030526
C118	C	1.555084	0.161705	-0.530526
C119	C	1.054959	-0.338453	-0.179695
C120	C	1.554959	0.161547	0.320305
C121	C	1.055093	-0.338263	-0.097373
C122	C	1.555093	0.161737	0.402627
H123	H	0.624031	-0.229245	-0.323408
H124	H	1.124031	0.270755	0.176592
N125	N	0.485382	-0.300031	-0.237015
N126	N	0.985382	0.199969	0.262985
H127	H	0.450251	-0.342512	-0.241007
H128	H	0.950251	0.157488	0.258993
H129	H	0.527792	-0.309688	-0.203209
H130	H	1.027792	0.190312	0.296791
N131	N	1.172046	-0.927620	-0.255347
N132	N	1.672046	-0.427620	0.244653
H133	H	1.200539	-0.961978	-0.226929
H134	H	1.700539	-0.461978	0.273071
H135	H	1.207655	-0.897153	-0.284164
H136	H	1.707655	-0.397153	0.215836
H137	H	0.496816	-0.228932	-0.323490
H138	H	0.996816	0.271068	0.176510
N139	N	0.626880	-0.300561	-0.236293
N140	N	1.126880	0.199439	0.263707
H141	H	0.605857	-0.348137	-0.222882
H142	H	1.105857	0.151863	0.277118
H143	H	0.682667	-0.300684	-0.235869
H144	H	1.182667	0.199316	0.264131
N145	N	0.622464	-0.433951	-0.279960
N146	N	1.122464	0.066049	0.220040
H147	H	0.649524	-0.478892	-0.286560
H148	H	1.149524	0.021108	0.213440
H149	H	0.657140	-0.395834	-0.257968
H150	H	1.157140	0.104166	0.242032
N151	N	0.625476	-0.366855	-0.510592
N152	N	1.125476	0.133145	-0.010592
H153	H	0.681295	-0.364398	-0.512316
H154	H	1.181295	0.135602	-0.012316
H155	H	0.607384	-0.416379	-0.501166
H156	H	1.107384	0.083621	-0.001166
N157	N	0.484410	-0.372335	-0.508254
N158	N	0.984410	0.127665	-0.008254
H159	H	0.450328	-0.408177	-0.484706
H160	H	0.950328	0.091823	0.015294
H161	H	0.456287	-0.347388	-0.546692
H162	H	0.956287	0.152612	-0.046692
N163	N	1.090691	-0.208212	-0.795280
N164	N	1.590691	0.291788	-0.295280
H165	H	1.088175	-0.206492	-0.739495
H166	H	1.588175	0.293508	-0.239495
H167	H	1.142428	-0.219176	-0.811631
H168	H	1.642428	0.280824	-0.311631
H169	H	0.981200	-1.070430	-0.445983
H170	H	1.481200	-0.570430	0.054017
H171	H	1.122917	-0.738898	-0.304271
H172	H	1.622917	-0.238898	0.195729
N173	N	1.192688	-0.307952	-0.801079
N174	N	1.692688	0.192048	-0.301079
H175	H	1.217806	-0.284221	-0.843726
H176	H	1.717806	0.215779	-0.343726
H177	H	1.170594	-0.271491	-0.766719
H178	H	1.670594	0.228509	-0.266719
N179	N	0.481988	-0.433275	-0.278722
N180	N	0.981988	0.066725	0.221278
H181	H	0.525512	-0.442690	-0.246251
H182	H	1.025512	0.057310	0.253749
H183	H	0.453115	-0.394186	-0.255172
H184	H	0.953115	0.105814	0.244828
N185	N	1.009141	-0.464949	-0.949506
N186	N	1.509141	0.035051	-0.449506
H187	H	0.964741	-0.483298	-0.979303
H188	H	1.464741	0.016702	-0.479303
H189	H	1.054114	-0.462848	-0.982510
H190	H	1.554114	0.037152	-0.482510
H191	H	0.494409	-0.266704	-0.466696
H192	H	0.994409	0.233296	0.033304
H193	H	0.613574	-0.454195	-0.396148
H194	H	1.113574	0.045805	0.103852
H195	H	0.486843	-0.454179	-0.395241
H196	H	0.986843	0.045821	0.104759
N197	N	1.151686	-0.429689	-0.805103
N198	N	1.651686	0.070311	-0.305103
H199	H	1.199266	-0.425274	-0.775827
H200	H	1.699266	0.074726	-0.275827
H201	H	1.110645	-0.448988	-0.772996
H202	H	1.610645	0.051012	-0.272996
H203	H	1.116677	-0.825677	-0.310566
H204	H	1.616677	-0.325677	0.189434
H205	H	1.082192	-0.223708	-0.930220
H206	H	1.582192	0.276292	-0.430220
H207	H	0.983441	-0.245705	-0.932518
H208	H	1.483441	0.254295	-0.432518
N209	N	0.944804	-0.596170	-0.482011
N210	N	1.444804	-0.096170	0.017989
H211	H	0.954317	-0.544137	-0.472484
H212	H	1.454317	-0.044137	0.027516
H213	H	0.955726	-0.608956	-0.535491
H214	H	1.455726	-0.108956	-0.035491
H215	H	0.993375	-0.850591	-0.433677
H216	H	1.493375	-0.350591	0.066323
H217	H	0.987132	-0.937361	-0.439969
H218	H	1.487132	-0.437361	0.060031
N219	N	0.938009	-0.748631	-0.488904
N220	N	1.438009	-0.248631	0.011096
H221	H	0.942874	-0.800662	-0.484072
H222	H	1.442874	-0.300662	0.015928
H223	H	0.885696	-0.735850	-0.476746
H224	H	1.385696	-0.235850	0.023254
N225	N	0.629500	-0.245946	-0.467249
N226	N	1.129500	0.254054	0.032751
H227	H	0.662597	-0.226576	-0.425679
H228	H	1.162597	0.273424	0.074321
H229	H	0.658885	-0.249058	-0.514628
H230	H	1.158885	0.250942	-0.014628
N231	N	1.141807	-0.596131	-0.285317
N232	N	1.641807	-0.096131	0.214683
H233	H	1.170295	-0.630491	-0.256898
H234	H	1.670295	-0.130491	0.243102
H235	H	1.177420	-0.565659	-0.314123
H236	H	1.677420	-0.065659	0.185877
H237	H	1.153140	-1.070398	-0.274285
H238	H	1.653140	-0.570398	0.225715
N239	N	0.961617	-0.244359	-0.798289
N240	N	1.461617	0.255641	-0.298289
H241	H	0.939494	-0.282996	-0.767775
H242	H	1.439494	0.217004	-0.267775
H243	H	0.966881	-0.199560	-0.766775
H244	H	1.466881	0.300440	-0.266775
N245	N	1.009469	-0.465634	-0.808280
N246	N	1.509469	0.034366	-0.308280
H247	H	1.009621	-0.466101	-0.752506
H248	H	1.509621	0.033899	-0.252506
H249	H	0.969269	-0.499348	-0.828580
H250	H	1.469269	0.000652	-0.328580
N251	N	1.150923	-0.430804	-0.945667
N252	N	1.650923	0.069196	-0.445667
H253	H	1.159477	-0.461995	-0.903105
H254	H	1.659477	0.038005	-0.403105
H255	H	1.108795	-0.451530	-0.977217
H256	H	1.608795	0.048470	-0.477217
H257	H	0.938024	-0.380101	-0.810543
H258	H	1.438024	0.119899	-0.310543
H259	H	1.177791	-0.321154	-0.935005
H260	H	1.677791	0.178846	-0.435005
N261	N	0.919036	-0.375932	-0.944253
N262	N	1.419036	0.124068	-0.444253
H263	H	0.922627	-0.333234	-0.975268
H264	H	1.422627	0.166766	-0.475268
H265	H	0.897428	-0.417157	-0.974962
H266	H	1.397428	0.082843	-0.474962
