data_functionalizedCrystal
_audit_creation_method	'MofGen! by Chris Wilmer'
_symmetry_space_group_name_H-M	'P1'
_symmetry_Int_Tables_number	1
_symmetry_cell_setting	triclinic
loop_
_symmetry_equiv_pos_as_xyz
  x,y,z
_cell_length_a	17.077404
_cell_length_b	19.120786
_cell_length_c	17.077396
_cell_angle_alpha	87.528765
_cell_angle_beta	89.981638
_cell_angle_gamma	92.463145
loop_
_atom_site_label
_atom_site_type_symbol
_atom_site_fract_x
_atom_site_fract_y
_atom_site_fract_z
Zn1	Zn	1.186707	-0.279668	-0.430468
Zn2	Zn	1.181008	-0.397132	-0.293595
Zn3	Zn	1.055438	-0.279688	-0.299218
Zn4	Zn	1.049802	-0.397086	-0.424823
O5	O	1.118239	-0.338393	-0.362026
O6	O	1.295797	-0.295261	-0.412321
O7	O	1.164324	-0.381580	-0.184493
O8	O	1.077594	-0.181395	-0.321344
O9	O	1.291610	-0.381561	-0.311761
O10	O	1.174037	-0.181381	-0.417773
O11	O	1.072068	-0.295295	-0.188624
O12	O	0.944844	-0.295250	-0.315871
O13	O	1.067990	-0.381482	-0.535421
O14	O	0.940704	-0.381502	-0.408152
O15	O	1.168573	-0.295216	-0.539568
O16	O	1.158859	-0.495416	-0.306287
O17	O	1.062464	-0.495382	-0.402700
C18	C	0.914292	-0.338374	-0.362010
C19	C	0.827041	-0.338382	-0.362020
C20	C	0.788229	-0.293525	-0.414455
C21	C	0.706248	-0.293530	-0.414458
C22	C	0.663081	-0.338395	-0.362030
C23	C	0.701900	-0.383254	-0.309590
C24	C	0.783879	-0.383245	-0.309583
C25	C	0.531029	-0.383270	-0.309609
C26	C	0.449044	-0.383279	-0.309616
C27	C	0.453398	-0.293554	-0.414484
C28	C	0.535377	-0.293546	-0.414477
C29	C	0.574190	-0.338405	-0.362037
C30	C	1.109453	-0.520885	-0.353288
C31	C	1.105766	-0.598955	-0.349576
C32	C	1.154209	-0.635565	-0.398078
C33	C	1.150742	-0.708920	-0.394592
C34	C	1.098835	-0.745665	-0.342599
C35	C	1.050387	-0.709050	-0.294094
C36	C	1.053850	-0.635696	-0.297585
C37	C	1.085863	-0.967150	-0.329548
C38	C	1.082404	-1.040510	-0.326059
C39	C	1.182759	-1.040375	-0.426558
C40	C	1.186222	-0.967019	-0.430041
C41	C	1.137770	-0.930411	-0.381540
C42	C	1.095292	-0.820646	-0.339032
C43	C	1.141311	-0.855431	-0.385111
C44	C	1.322982	-0.338414	-0.362043
C45	C	1.410231	-0.338423	-0.362051
C46	C	1.118289	-0.338342	-0.566773
C47	C	1.118310	-0.338320	-0.654024
C48	C	1.127080	-0.155190	-0.370816
C49	C	1.130848	-0.077119	-0.374561
C50	C	1.170685	-0.293397	-0.697175
C51	C	1.170696	-0.293374	-0.779157
C52	C	1.118334	-0.338277	-0.817985
C53	C	1.065953	-0.383201	-0.774829
C54	C	1.065939	-0.383221	-0.692849
C55	C	1.065987	-0.383159	-0.945701
C56	C	1.066001	-0.383141	-1.027686
C57	C	1.170743	-0.293312	-1.032009
C58	C	1.170730	-0.293332	-0.950029
C59	C	1.118349	-0.338257	-0.906877
C60	C	1.118236	-0.338394	-0.158078
C61	C	1.118377	-0.338218	-0.070837
H62	H	0.413900	-0.419813	-0.266925
H63	H	1.228489	-0.937103	-0.472378
C64	C	1.235438	-1.079995	-0.479265
C65	C	1.281645	-1.032115	-0.525536
C66	C	1.330185	-1.068586	-0.574099
H67	H	1.204118	-1.108611	-0.512144
H68	H	1.268354	-1.108591	-0.447935
H69	H	1.248732	-1.003530	-0.556863
H70	H	1.312981	-1.003497	-0.492677
H71	H	1.363102	-1.097183	-0.542770
H72	H	1.298858	-1.097201	-0.606974
H73	H	1.361547	-1.036105	-0.605495
C74	C	0.664251	-0.244801	-0.471476
C75	C	0.719600	-0.205525	-0.517405
C76	C	0.680942	-0.160632	-0.569945
H77	H	0.633732	-0.214102	-0.443065
H78	H	0.631008	-0.271696	-0.504384
H79	H	0.752829	-0.178632	-0.484500
H80	H	0.750121	-0.236206	-0.545832
H81	H	0.647699	-0.187527	-0.602854
H82	H	0.650424	-0.129938	-0.541528
H83	H	0.718489	-0.133983	-0.601119
H84	H	1.213392	-0.256731	-1.067147
H85	H	1.023321	-0.419731	-0.910570
C86	C	1.009097	-0.431770	-1.069945
C87	C	0.960736	-0.391970	-1.118923
C88	C	0.908309	-0.436741	-1.157869
H89	H	0.977820	-0.458536	-1.032591
H90	H	1.037620	-0.462365	-1.100510
H91	H	0.932215	-0.361387	-1.088360
H92	H	0.991991	-0.365205	-1.156291
H93	H	0.936832	-0.467336	-1.188434
H94	H	0.877037	-0.463505	-1.120509
H95	H	0.875494	-0.409744	-1.191110
C96	C	1.038861	-0.860416	-0.282554
C97	C	0.997162	-0.812658	-0.240830
C98	C	0.945163	-0.849270	-0.188806
H99	H	1.067473	-0.889033	-0.246953
H100	H	1.003248	-0.889023	-0.311175
H101	H	1.032770	-0.784063	-0.212211
H102	H	0.968534	-0.784039	-0.276411
H103	H	0.909550	-0.877877	-0.217426
H104	H	0.973781	-0.877886	-0.153210
H105	H	0.916859	-0.816873	-0.160495
C106	C	1.210588	-0.595800	-0.454612
C107	C	1.252253	-0.643566	-0.496358
C108	C	1.304186	-0.606964	-0.548456
H109	H	1.246231	-0.567173	-0.426070
H110	H	1.181905	-0.567204	-0.490190
H111	H	1.280935	-0.672150	-0.460786
H112	H	1.216630	-0.672195	-0.524917
H113	H	1.275503	-0.578367	-0.584033
H114	H	1.339824	-0.578337	-0.519907
H115	H	1.332457	-0.639367	-0.576792
H116	H	1.046413	-0.937350	-0.290055
C117	C	0.411119	-0.244875	-0.471332
C118	C	0.330087	-0.254468	-0.460104
C119	C	0.291112	-0.209636	-0.512453
H120	H	0.423987	-0.255174	-0.523591
H121	H	0.426773	-0.197651	-0.462188
H122	H	0.314439	-0.301681	-0.469254
H123	H	0.317197	-0.244164	-0.407855
H124	H	0.306766	-0.162412	-0.503309
H125	H	0.303986	-0.219939	-0.564709
H126	H	0.236129	-0.216134	-0.504837
H127	H	1.040132	-1.070425	-0.283719
H128	H	1.213347	-0.256795	-0.814287
H129	H	1.023316	-0.419760	-0.806450
C130	C	1.227613	-0.244504	-0.908015
C131	C	1.273474	-0.205142	-0.963350
C132	C	1.325876	-0.160147	-0.924676
H133	H	1.260584	-0.271307	-0.874750
H134	H	1.199074	-0.213868	-0.877517
H135	H	1.302011	-0.235774	-0.993834
H136	H	1.240525	-0.178325	-0.996617
H137	H	1.297337	-0.129511	-0.894179
H138	H	1.358841	-0.186956	-0.891413
H139	H	1.356994	-0.133430	-0.962215
C140	C	0.573025	-0.432055	-0.252645
C141	C	0.517677	-0.471365	-0.206749
C142	C	0.556334	-0.516322	-0.154280
H143	H	0.606285	-0.405227	-0.219703
H144	H	0.603526	-0.462726	-0.281134
H145	H	0.487190	-0.440698	-0.178263
H146	H	0.484415	-0.498207	-0.239671
H147	H	0.586835	-0.546993	-0.182768
H148	H	0.589593	-0.489489	-0.121342
H149	H	0.518786	-0.543004	-0.123138
H150	H	1.014402	-0.605889	-0.258090
C151	C	0.835128	-0.244931	-0.471470
C152	C	0.880285	-0.284754	-0.519814
C153	C	0.923488	-0.240011	-0.572352
H154	H	0.868632	-0.214276	-0.443055
H155	H	0.800293	-0.218228	-0.502743
H156	H	0.915116	-0.311445	-0.488544
H157	H	0.846800	-0.315407	-0.548246
H158	H	0.888653	-0.213308	-0.603625
H159	H	0.956988	-0.209358	-0.543931
H160	H	0.954126	-0.267024	-0.605164
C161	C	0.825977	-0.432067	-0.252749
C162	C	0.802722	-0.501585	-0.266401
C163	C	0.841493	-0.546578	-0.214063
H164	H	0.813046	-0.421823	-0.200489
H165	H	0.880987	-0.425683	-0.260257
H166	H	0.747724	-0.507966	-0.258886
H167	H	0.815654	-0.511851	-0.318650
H168	H	0.896504	-0.540194	-0.221572
H169	H	0.828559	-0.536328	-0.161807
H170	H	0.825726	-0.593751	-0.223324
C171	C	1.009176	-0.432118	-0.646025
C172	C	1.022939	-0.501610	-0.662618
C173	C	0.970672	-0.546674	-0.619490
H174	H	0.956897	-0.421930	-0.659901
H175	H	1.016676	-0.425744	-0.591632
H176	H	1.015433	-0.507981	-0.716999
H177	H	1.075208	-0.511820	-0.648739
H178	H	0.978172	-0.540300	-0.565097
H179	H	0.918396	-0.536480	-0.633369
H180	H	0.980007	-0.593829	-0.630737
C181	C	1.203382	-0.748764	-0.447112
C182	C	1.251709	-0.790879	-0.400698
C183	C	1.300205	-0.827602	-0.449053
H184	H	1.234870	-0.716460	-0.478591
H185	H	1.172004	-0.777423	-0.479913
H186	H	1.283084	-0.762223	-0.367911
H187	H	1.220242	-0.823196	-0.369221
H188	H	1.268827	-0.856261	-0.481853
H189	H	1.331688	-0.795293	-0.480529
H190	H	1.332995	-0.856186	-0.417568
C191	C	1.227445	-0.244525	-0.655071
C192	C	1.213693	-0.175024	-0.678333
C193	C	1.265957	-0.129979	-0.639558
H194	H	1.279726	-0.254712	-0.667993
H195	H	1.219935	-0.250920	-0.600060
H196	H	1.221209	-0.168631	-0.733331
H197	H	1.161422	-0.164815	-0.665409
H198	H	1.258447	-0.136375	-0.584548
H199	H	1.318235	-0.140173	-0.652484
H200	H	1.256629	-0.082818	-0.655331
H201	H	0.666748	-0.419780	-0.266899
H202	H	0.570521	-0.257017	-0.457173
H203	H	1.008120	-0.738973	-0.251763
H204	H	1.183570	-0.825511	-0.427447
