data_functionalizedCrystal
_audit_creation_method	'MofGen! by Chris Wilmer'
_symmetry_space_group_name_H-M	'P1'
_symmetry_Int_Tables_number	1
_symmetry_cell_setting	triclinic
loop_
_symmetry_equiv_pos_as_xyz
  x,y,z
_cell_length_a	16.992694
_cell_length_b	14.519709
_cell_length_c	16.053802
_cell_angle_alpha	92.569364
_cell_angle_beta	87.249047
_cell_angle_gamma	87.174184
loop_
_atom_site_label
_atom_site_type_symbol
_atom_site_fract_x
_atom_site_fract_y
_atom_site_fract_z
O1	O	1.043963	0.191936	-0.069327
O2	O	0.815676	0.189789	-0.069352
O3	O	0.935872	0.057059	-0.069332
O4	O	0.923768	0.324666	-0.069348
O5	O	0.929256	0.064333	0.069526
O6	O	0.809060	0.197063	0.069506
O7	O	1.037348	0.199210	0.069530
Zn8	Zn	0.922154	0.199291	0.091565
Zn9	Zn	0.930870	0.189708	-0.091386
O10	O	0.917152	0.331940	0.069510
C11	C	0.783152	0.190666	0.000074
C12	C	0.696097	0.182430	0.000065
C13	C	0.645968	0.261890	0.000061
C14	C	0.564170	0.254147	0.000073
C15	C	0.532503	0.166943	0.000083
C16	C	0.582638	0.087478	0.000089
C17	C	0.664434	0.095222	0.000083
C18	C	0.288859	0.134847	0.000107
C19	C	0.207056	0.127109	0.000111
C20	C	0.188594	0.293779	0.000095
C21	C	0.270393	0.301515	0.000084
C22	C	0.320520	0.222050	0.000095
N23	N	0.448892	0.159027	0.000092
N24	N	0.404129	0.229968	0.000092
C25	C	0.932000	0.026296	0.000097
C26	C	0.930309	-0.076207	0.000098
C27	C	0.924087	-0.451551	0.000075
C28	C	0.925815	-0.347118	0.000082
C29	C	0.927198	-0.263882	0.000087
C30	C	0.928926	-0.159443	0.000092
C31	C	1.069872	0.198333	0.000103
C32	C	1.156927	0.206569	0.000106
C33	C	0.921024	0.362703	0.000079
C34	C	0.922715	0.465206	0.000073
N35	N	0.916210	0.205832	0.216424
N36	N	0.936820	0.183161	-0.216246
C37	C	0.967373	0.149377	0.260127
C38	C	0.963222	0.153962	0.347533
C39	C	0.907913	0.215006	0.391235
C40	C	0.856746	0.271462	0.347526
C41	C	0.860893	0.266872	0.260121
C42	C	0.889799	0.235027	0.652641
C43	C	0.885658	0.239615	0.740052
C44	C	0.992134	0.122113	0.740053
C45	C	0.996279	0.117533	0.652646
C46	C	0.945109	0.173985	0.608945
N47	N	0.903672	0.219695	0.480578
N48	N	0.949347	0.169291	0.519604
H49	H	0.671745	0.332900	0.000052
O50	O	0.840030	0.289739	0.610155
C51	C	0.793994	0.234103	0.559592
H52	H	0.791310	0.162649	0.585943
H53	H	0.731770	0.267057	0.558600
H54	H	0.821674	0.227613	0.493349
H55	H	1.033794	0.076151	0.775642
O56	O	1.020981	0.089991	0.217605
C57	C	0.981277	0.027300	0.167105
H58	H	0.920606	0.058817	0.153993
H59	H	1.016902	0.011856	0.105648
H60	H	0.974217	-0.039466	0.200836
O61	O	0.831849	0.298928	0.782376
C62	C	0.787583	0.347783	0.725063
H63	H	0.789606	0.306636	0.662762
H64	H	0.723781	0.358504	0.750326
H65	H	0.813564	0.417714	0.715756
O66	O	0.802910	0.330655	0.389940
C67	C	0.726281	0.308776	0.368581
H68	H	0.726940	0.233642	0.344565
H69	H	0.684216	0.319471	0.426067
H70	H	0.705722	0.355521	0.317843
H71	H	0.147771	0.358475	0.000088
H72	H	0.819230	0.312842	0.224539
O73	O	0.551911	0.002754	0.000246
C74	C	0.574114	-0.042293	0.072152
H75	H	0.588806	0.011228	0.122415
H76	H	0.523364	-0.083924	0.096294
H77	H	0.628125	-0.090608	0.055895
H78	H	0.523358	0.318852	0.000068
O79	O	1.012903	0.098996	0.389889
C80	C	1.001045	0.005620	0.368561
H81	H	0.973824	0.000150	0.305107
H82	H	1.060074	-0.035561	0.365561
H83	H	0.959652	-0.023235	0.417767
O84	O	0.301020	0.386299	0.000116
C85	C	0.239234	0.454773	0.000095
H86	H	0.182384	0.426202	0.026389
H87	H	0.254497	0.517405	0.040403
H88	H	0.230860	0.476082	-0.066524
O89	O	0.176165	0.042463	0.000091
C90	C	0.093220	0.052674	0.000113
H91	H	0.075367	0.121855	-0.026189
H92	H	0.069941	-0.005604	-0.040190
H93	H	0.067278	0.050029	0.066732
O94	O	0.337518	0.057620	-0.000036
C95	C	0.326545	0.001255	-0.071937
H96	H	0.301051	0.045256	-0.122205
H97	H	0.385669	-0.032727	-0.096075
H98	H	0.284043	-0.054341	-0.055672
O99	O	0.713107	0.018000	-0.000065
C100	C	0.702140	-0.038368	-0.071965
H101	H	0.676639	0.005627	-0.122232
H102	H	0.761269	-0.072339	-0.096105
H103	H	0.659648	-0.093973	-0.055699
H104	H	1.041316	0.067826	0.617066
