data_functionalizedCrystal
_audit_creation_method	'MofGen! by Chris Wilmer'
_symmetry_space_group_name_H-M	'P1'
_symmetry_Int_Tables_number	1
_symmetry_cell_setting	triclinic
loop_
_symmetry_equiv_pos_as_xyz
  x,y,z
_cell_length_a	17.917559
_cell_length_b	14.628931
_cell_length_c	14.628931
_cell_angle_alpha	60.000028
_cell_angle_beta	89.999740
_cell_angle_gamma	57.010195
loop_
_atom_site_label
_atom_site_type_symbol
_atom_site_fract_x
_atom_site_fract_y
_atom_site_fract_z
Zr1	Zr	0.754919	0.916395	-0.077874
O2	O	0.629792	1.121054	-0.230811
O3	O	0.793277	0.721412	-0.030991
O4	O	0.793277	0.912117	-0.221696
O5	O	0.629792	0.930349	0.110326
O6	O	0.922236	0.897736	-0.214507
O7	O	0.629792	0.930349	-0.040106
O8	O	0.922237	0.556599	0.126631
O9	O	0.629792	1.271486	-0.230812
O10	O	0.905877	0.787295	-0.005630
O11	O	0.809636	0.798028	0.101270
O12	O	0.809636	1.022559	-0.123262
O13	O	0.713395	1.033292	-0.016362
Zr14	Zr	0.960594	0.893460	0.173514
Zr15	Zr	0.960594	0.893459	-0.066407
Zr16	Zr	0.754918	0.916396	0.162047
Zr17	Zr	0.754918	1.156317	-0.077875
Zr18	Zr	0.960594	0.653538	0.173514
O19	O	0.922236	1.088443	0.126630
O20	O	0.922236	1.088442	-0.214507
O21	O	0.629791	1.121055	0.110326
O22	O	1.085721	0.688801	0.326451
O23	O	1.085721	0.688800	-0.014686
O24	O	0.793277	0.721413	0.310146
O25	O	1.085721	0.879506	-0.014687
O26	O	0.922236	0.897738	0.317336
O27	O	0.793276	0.912119	0.310146
O28	O	1.085721	0.879506	0.135745
O29	O	0.793276	1.253255	-0.221697
O30	O	0.922236	0.556600	0.317336
O31	O	1.085721	0.538368	0.326451
O32	O	1.085721	0.538368	0.135746
O33	O	0.629791	1.271487	-0.040106
O34	O	0.793276	1.253256	-0.030992
O35	O	0.905877	0.787296	0.218901
O36	O	1.002118	0.776563	0.112001
O37	O	0.905877	1.011827	-0.005630
O38	O	0.809635	1.022560	0.101269
C39	C	0.857757	0.604822	0.047820
C40	C	0.857757	0.502968	0.047821
C41	C	0.790240	0.543848	-0.034703
C42	C	0.790238	0.438579	-0.034705
C43	C	0.600487	0.933617	0.033476
C44	C	0.513173	0.943354	0.028608
C45	C	0.362181	0.848731	0.075918
C46	C	0.353339	0.961118	0.019725
C47	C	0.442280	0.951231	0.024669
C48	C	0.273233	0.858616	0.070974
C49	C	1.115025	0.876238	0.062163
C50	C	1.202340	0.866501	0.067031
C51	C	0.857757	0.904927	-0.252285
C52	C	0.857757	0.904926	-0.354138
C53	C	0.857756	1.205033	0.047819
C54	C	0.857756	1.306887	0.047819
C55	C	0.810015	1.021633	-0.457900
C56	C	0.810014	1.021635	-0.563172
C57	C	0.857756	0.904928	0.347924
C58	C	0.857756	0.904929	0.449777
C59	C	1.115026	0.576132	0.062164
C60	C	1.202341	0.464542	0.067032
C61	C	0.857756	0.604822	0.347925
C62	C	0.857757	0.502970	0.449778
C63	C	1.115025	0.576133	0.362268
C64	C	1.202340	0.464543	0.468989
C65	C	0.600487	1.233722	-0.266629
C66	C	0.513173	1.345312	-0.373350
C67	C	0.600487	1.233723	0.033476
C68	C	0.513172	1.345313	0.028608
C69	C	0.857756	1.205032	-0.252286
C70	C	0.857756	1.306885	-0.354139
C71	C	1.193108	0.417740	0.007906
C72	C	1.275142	0.312903	0.012457
C73	C	1.366407	0.254864	0.076142
C74	C	1.375638	0.301676	0.135269
C75	C	1.293605	0.406517	0.130711
C76	C	1.293590	0.406536	0.463307
C77	C	1.375639	0.301698	0.563574
C78	C	1.366437	0.254863	0.669522
C79	C	1.275178	0.312880	0.675202
C80	C	1.193130	0.417723	0.574936
C81	C	0.421923	1.403330	-0.367667
C82	C	0.339874	1.508198	-0.467934
C83	C	0.349076	1.555039	-0.573883
C84	C	0.440335	1.497015	-0.579563
C85	C	0.522382	1.392156	-0.479297
C86	C	0.522405	1.392125	0.087724
C87	C	0.440371	1.496988	0.083146
C88	C	0.349105	1.555031	0.019458
C89	C	0.339875	1.508215	-0.039665
C90	C	0.421907	1.403360	-0.035094
C91	C	0.905499	0.452237	0.553540
C92	C	0.905500	0.346966	0.658812
H93	H	0.915559	0.272053	0.118478
H94	H	1.301136	0.444609	0.178866
O95	O	0.906538	0.785599	-0.444126
C96	C	0.950949	0.677085	-0.452533
H97	H	0.911600	0.715711	-0.540095
H98	H	0.948226	0.595463	-0.383999
H99	H	1.028933	0.632334	-0.440302
O100	O	0.721218	0.480014	-0.118840
C101	C	0.669286	0.435366	-0.070912
H102	H	0.715102	0.344009	0.022166
H103	H	0.649969	0.405212	-0.119507
H104	H	0.600792	0.520771	-0.076638
O105	O	0.269271	1.656864	-0.671166
C106	C	0.186763	1.698039	-0.643417
H107	H	0.205612	1.611992	-0.554028
H108	H	0.128816	1.724383	-0.707097
H109	H	0.159143	1.791034	-0.646688
O110	O	0.450961	0.725199	0.137636
C111	C	0.521271	0.742717	0.128898
H112	H	0.489179	0.847062	0.047951
H113	H	0.584571	0.660900	0.125659
H114	H	0.546919	0.734355	0.206018
O115	O	1.302371	0.452145	0.360303
C116	C	1.210395	0.557148	0.273008
H117	H	1.156015	0.547491	0.307264
H118	H	1.211309	0.549280	0.199259
H119	H	1.189488	0.659579	0.241911
H120	H	0.769146	1.121547	-0.468799
H121	H	1.449939	0.254470	0.558928
H122	H	0.946375	0.303356	0.747821
H123	H	1.118802	0.464994	-0.043967
H124	H	0.769134	1.121553	-0.652181
O125	O	1.446060	0.152855	0.080698
C126	C	1.445877	0.042191	0.127249
H127	H	1.399492	0.047483	0.180741
H128	H	1.522405	-0.056812	0.183187
H129	H	1.415589	0.046413	0.055467
H130	H	0.447816	1.535166	-0.665838
O131	O	0.269522	1.656829	0.015190
C132	C	0.297254	1.685709	0.081009
H133	H	0.372984	1.593320	0.147188
H134	H	0.245434	1.711367	0.125836
H135	H	0.295768	1.775792	0.023230
O136	O	0.610949	1.335900	-0.485030
C137	C	0.601464	1.399758	-0.600047
H138	H	0.528243	1.447371	-0.655149
H139	H	0.660286	1.321420	-0.610129
H140	H	0.608194	1.482119	-0.627867
O141	O	1.265991	0.267556	-0.045001
C142	C	1.167845	0.341281	-0.102192
H143	H	1.124113	0.385582	-0.058649
H144	H	1.156403	0.270771	-0.099671
H145	H	1.143657	0.427104	-0.194501
H146	H	1.267699	0.274731	0.761479
O147	O	1.464368	0.245093	0.197122
C148	C	1.534781	0.142543	0.188439
H149	H	1.502787	0.104288	0.165058
H150	H	1.598049	0.054953	0.273529
H151	H	1.560447	0.185460	0.119710
H152	H	1.118834	0.464940	0.579579
O153	O	0.412799	1.358056	-0.264850
C154	C	0.314659	1.431754	-0.281359
H155	H	0.270913	1.533628	-0.369203
H156	H	0.303229	1.449535	-0.213368
H157	H	0.290475	1.371697	-0.274855
O158	O	0.610982	1.335943	0.149609
C159	C	0.601520	1.399743	0.200818
H160	H	0.528312	1.504910	0.150765
H161	H	0.660361	1.409669	0.200946
H162	H	0.608237	1.336241	0.292152
O163	O	0.251145	1.564708	-0.101429
C164	C	0.180731	1.667307	-0.092794
H165	H	0.212726	1.648014	-0.011866
H166	H	0.117464	1.666602	-0.089589
H167	H	0.155066	1.770267	-0.169943
O168	O	1.446241	0.152960	0.766806
C169	C	1.528750	0.111835	0.739056
H170	H	1.509900	0.140319	0.649667
H171	H	1.586696	-0.002790	0.802735
H172	H	1.556371	0.164718	0.742329
O173	O	0.926695	0.368290	0.132255
C174	C	0.922194	0.341656	0.238129
H175	H	0.886156	0.438666	0.231207
H176	H	0.997927	0.260562	0.305654
H177	H	0.878860	0.304204	0.263139
O178	O	0.413102	1.357756	-0.092479
C179	C	0.505069	1.252730	-0.074769
H180	H	0.559465	1.262364	-0.050174
H181	H	0.504146	1.260592	-0.156384
H182	H	0.525960	1.150312	-0.003431
O183	O	0.954268	0.493296	0.566755
C184	C	0.998675	0.425665	0.683673
H185	H	0.959333	0.390570	0.732613
H186	H	0.995935	0.497844	0.696756
H187	H	1.076663	0.333895	0.716194
H188	H	0.278973	1.064761	-0.032104
H189	H	0.447906	1.535087	0.131296
O190	O	0.809131	0.358860	0.539632
C191	C	0.873674	0.328252	0.484423
H192	H	0.939809	0.308870	0.524759
H193	H	0.837283	0.417359	0.390310
H194	H	0.896121	0.233780	0.493553
O195	O	0.808910	0.461870	0.436891
C196	C	0.738427	0.493156	0.484838
H197	H	0.759563	0.502791	0.551162
H198	H	0.732379	0.408796	0.527092
H199	H	0.666345	0.593176	0.415034
H200	H	0.265575	1.555424	-0.463287
H201	H	0.732439	0.656779	-0.105357
H202	H	0.898633	0.805011	-0.343239
