data_functionalizedCrystal
_audit_creation_method	'MofGen! by Chris Wilmer'
_symmetry_space_group_name_H-M	'P1'
_symmetry_Int_Tables_number	1
_symmetry_cell_setting	triclinic
loop_
_symmetry_equiv_pos_as_xyz
  x,y,z
_cell_length_a	14.628931
_cell_length_b	23.196402
_cell_length_c	23.196402
_cell_angle_alpha	90.003744
_cell_angle_beta	59.999712
_cell_angle_gamma	60.003473
loop_
_atom_site_label
_atom_site_type_symbol
_atom_site_fract_x
_atom_site_fract_y
_atom_site_fract_z
Zr1	Zr	1.000590	-0.075674	0.555356
O2	O	1.191291	-0.167721	0.463298
O3	O	0.809886	-0.047456	0.583577
O4	O	1.000589	-0.167725	0.583567
O5	O	1.000591	0.047418	0.463317
O6	O	1.000591	-0.167728	0.678437
O7	O	1.000589	-0.047452	0.463309
O8	O	0.659459	0.047411	0.678455
O9	O	1.341723	-0.167721	0.463299
O10	O	0.888328	-0.035424	0.666413
O11	O	0.888328	0.035379	0.595619
O12	O	1.112856	-0.106222	0.595607
O13	O	1.112856	-0.035419	0.524813
Zr14	Zr	1.000598	0.075628	0.706676
Zr15	Zr	1.000594	-0.075679	0.706663
Zr16	Zr	1.000594	0.075633	0.555369
Zr17	Zr	1.240512	-0.075674	0.555357
Zr18	Zr	0.760676	0.075628	0.706676
O19	O	1.191302	0.047410	0.678455
O20	O	1.191297	-0.167728	0.678437
O21	O	1.191297	0.047418	0.463317
O22	O	0.809897	0.167675	0.798734
O23	O	0.809891	-0.047464	0.798715
O24	O	0.809891	0.167682	0.583595
O25	O	1.000597	-0.047464	0.798716
O26	O	1.000599	0.167679	0.678465
O27	O	1.000597	0.167682	0.583595
O28	O	1.000599	0.047406	0.798724
O29	O	1.341726	-0.167725	0.583567
O30	O	0.659462	0.167679	0.678465
O31	O	0.659465	0.167675	0.798733
O32	O	0.659462	0.047407	0.798723
O33	O	1.341726	-0.047452	0.463309
O34	O	1.341729	-0.047457	0.583577
O35	O	0.888332	0.106177	0.666425
O36	O	0.888332	0.035374	0.737219
O37	O	1.112860	-0.035424	0.666413
O38	O	1.112860	0.035378	0.595619
C39	C	0.700489	-0.000023	0.631016
C40	C	0.598636	-0.000023	0.631016
C41	C	1.000589	-0.000016	0.441755
C42	C	1.000588	-0.000014	0.377521
C43	C	1.000599	0.189239	0.631032
C44	C	1.000600	0.253472	0.631037
C45	C	0.553227	-0.035145	0.666134
C46	C	0.447956	-0.035146	0.666135
C47	C	1.300699	-0.000023	0.631016
C48	C	1.402552	-0.000023	0.631016
C49	C	1.000589	-0.189284	0.631000
C50	C	1.000588	-0.253518	0.630995
C51	C	1.117798	0.246692	0.594080
C52	C	1.117800	0.307046	0.594070
C53	C	1.000597	0.374181	0.631031
C54	C	0.883384	0.380959	0.667989
C55	C	0.883385	0.320605	0.667993
C56	C	0.910804	0.498116	0.692932
C57	C	0.910808	0.558467	0.692931
C58	C	1.000587	0.560334	0.631019
C59	C	1.090385	0.501836	0.569109
C60	C	1.090387	0.441482	0.569112
C61	C	1.000582	0.439629	0.631031
C62	C	1.117795	0.618994	0.594047
C63	C	1.117792	0.679351	0.594035
C64	C	0.883372	0.753264	0.667961
C65	C	0.883379	0.692907	0.667966
C66	C	1.000594	0.625775	0.631011
C67	C	0.883390	0.036935	0.384306
C68	C	0.883388	0.036938	0.323952
C69	C	1.000591	-0.000022	0.256813
C70	C	1.117804	-0.036973	0.250030
C71	C	1.117802	-0.036969	0.310384
C72	C	1.090383	-0.061932	0.132878
C73	C	1.090380	-0.061938	0.072527
C74	C	1.000601	-0.000033	0.070659
C75	C	0.910803	0.061877	0.129156
C76	C	0.910801	0.061881	0.189511
C77	C	1.000606	-0.000030	0.191365
C78	C	0.883393	0.036923	0.012003
C79	C	0.883396	0.036928	-0.048354
C80	C	1.117815	-0.036990	-0.122275
C81	C	1.117809	-0.036988	-0.061918
C82	C	1.000594	-0.000033	0.005218
C83	C	1.000599	-0.000029	0.820277
C84	C	1.000600	-0.000032	0.884511
C85	C	0.700493	-0.000029	0.820277
C86	C	0.598642	-0.000031	0.884511
C87	C	0.700493	0.189239	0.631032
C88	C	0.598642	0.253473	0.631037
C89	C	0.700498	0.189232	0.820293
C90	C	0.598648	0.253464	0.884532
C91	C	1.300690	-0.189278	0.441739
C92	C	1.402540	-0.253509	0.377500
C93	C	1.300695	-0.000017	0.441755
C94	C	1.402546	-0.000014	0.377521
C95	C	1.300695	-0.189285	0.631000
C96	C	1.402546	-0.253518	0.630995
C97	C	0.550810	-0.036994	0.877715
C98	C	0.455123	-0.037011	0.938064
C99	C	0.407263	-0.000059	1.005207
C100	C	0.455105	0.036905	1.012001
C101	C	0.550797	0.036917	0.951653
C102	C	0.550813	0.320599	0.668000
C103	C	0.455127	0.380960	0.668002
C104	C	0.407264	0.374191	0.631046
C105	C	0.455102	0.307057	0.594078
C106	C	0.550793	0.246699	0.594072
C107	C	0.550818	0.246669	0.951660
C108	C	0.455133	0.307016	1.012025
C109	C	0.407273	0.374156	1.005261
C110	C	0.455112	0.380949	0.938126
C111	C	0.550802	0.320603	0.877763
C112	C	1.450381	-0.246715	0.310372
C113	C	1.546096	-0.307061	0.250007
C114	C	1.593962	-0.374202	0.256771
C115	C	1.546116	-0.380995	0.323906
C116	C	1.450410	-0.320649	0.384269
C117	C	1.450388	0.036942	0.384317
C118	C	1.546102	0.036942	0.323968
C119	C	1.593964	-0.000012	0.256825
C120	C	1.546118	-0.036973	0.250031
C121	C	1.450413	-0.036976	0.310379
C122	C	1.450379	-0.246727	0.667959
C123	C	1.546066	-0.307076	0.667968
C124	C	1.593926	-0.374215	0.631008
C125	C	1.546084	-0.381004	0.594043
C126	C	1.450391	-0.320656	0.594039
H127	H	0.592278	-0.065212	0.696204
H128	H	1.585042	0.067043	0.329514
H129	H	0.416188	0.435617	0.698108
H130	H	0.559575	0.030049	0.600951
H131	H	0.787946	0.326131	0.698088
H132	H	1.411426	-0.192065	0.698056
H133	H	0.589730	0.067021	0.957196
H134	H	0.441602	0.030045	0.600945
H135	H	1.163501	0.393854	0.518703
H136	H	1.671892	-0.423334	0.207614
H137	H	1.671894	-0.000003	0.207692
H138	H	1.585101	-0.435668	0.329405
H139	H	1.213232	0.673824	0.563935
H140	H	0.787944	0.807925	0.698050
H141	H	0.589772	0.192005	0.957181
H142	H	1.213244	-0.067084	-0.176940
H143	H	0.416124	0.066990	1.066677
H144	H	0.329345	0.423345	0.631056
H145	H	1.585103	-0.067060	0.195355
H146	H	0.787945	0.067022	0.438968
H147	H	0.589776	-0.067093	0.823049
H148	H	0.329355	0.423288	1.054419
H149	H	0.416117	0.301557	0.563989
H150	H	1.411463	-0.067069	0.304836
H151	H	1.411457	-0.326196	0.563935
H152	H	0.837690	0.112292	0.237136
H153	H	0.589773	0.326124	0.698095
H154	H	1.411426	0.067039	0.438983
H155	H	1.585009	-0.301534	0.698068
H156	H	0.837682	0.496608	0.743350
H157	H	0.416130	0.435623	0.932629
H158	H	0.787949	0.067027	0.329476
H159	H	0.787944	0.698432	0.698064
H160	H	1.671845	-0.423348	0.631017
H161	H	1.585066	-0.435677	0.563951
H162	H	0.787950	0.067028	0.066669
H163	H	1.213243	0.192033	0.563987
H164	H	1.411414	-0.192051	0.304851
H165	H	0.589723	0.192043	0.563975
H166	H	0.416192	0.301472	1.066683
H167	H	0.408911	-0.065220	0.696199
H168	H	1.213239	0.301524	0.563972
H169	H	1.163492	0.503352	0.518694
H170	H	0.837676	0.112282	0.127646
H171	H	0.416182	-0.067111	0.932518
H172	H	0.589733	0.326146	0.823107
H173	H	1.213238	0.564331	0.563952
H174	H	1.585036	-0.301516	0.195349
H175	H	0.837695	0.606092	0.743342
H176	H	0.787957	0.435624	0.698081
H177	H	1.213242	-0.067055	0.304854
H178	H	0.787956	0.067021	-0.042823
H179	H	1.411458	-0.326190	0.438926
H180	H	1.213244	-0.067081	-0.067446
H181	H	1.163495	-0.112350	0.024902
H182	H	1.163512	-0.112343	0.134385
H183	H	1.213231	-0.067065	0.195362
H184	H	0.329344	-0.000074	1.054340
