data_functionalizedCrystal
_audit_creation_method	'MofGen! by Chris Wilmer'
_symmetry_space_group_name_H-M	'P1'
_symmetry_Int_Tables_number	1
_symmetry_cell_setting	triclinic
loop_
_symmetry_equiv_pos_as_xyz
  x,y,z
_cell_length_a	21.295417
_cell_length_b	21.295418
_cell_length_c	21.295411
_cell_angle_alpha	89.952143
_cell_angle_beta	90.021644
_cell_angle_gamma	89.951286
loop_
_atom_site_label
_atom_site_type_symbol
_atom_site_fract_x
_atom_site_fract_y
_atom_site_fract_z
Zn1	Zn	-0.250375	-0.962356	0.356303
Zn2	Zn	-0.355627	-0.962258	0.251028
Zn3	Zn	-0.250409	-0.857079	0.251005
Zn4	Zn	-0.355644	-0.857048	0.356217
O5	O	-0.303014	-0.909685	0.303638
O6	O	-0.264316	-1.050432	0.342383
O7	O	-0.341677	-0.948278	0.162936
O8	O	-0.162315	-0.871098	0.264999
O9	O	-0.341644	-1.050361	0.265039
O10	O	-0.162290	-0.948444	0.342361
O11	O	-0.264373	-0.871003	0.162919
O12	O	-0.264390	-0.768986	0.264916
O13	O	-0.341672	-0.871046	0.444318
O14	O	-0.341705	-0.768963	0.342215
O15	O	-0.264332	-0.948415	0.444381
O16	O	-0.443718	-0.948248	0.264956
O17	O	-0.443731	-0.870951	0.342237
C18	C	-0.303054	-0.746134	0.303554
C19	C	-0.303086	-0.676166	0.303533
C20	C	-0.343399	-0.643304	0.343720
C21	C	-0.343386	-0.577561	0.343743
C22	C	-0.303067	-0.544683	0.303569
C23	C	-0.262746	-0.577553	0.263379
C24	C	-0.262756	-0.643294	0.263361
N25	N	-0.298144	-0.441407	0.248504
N26	N	-0.298139	-0.378956	0.248523
C27	C	-0.303035	-0.346608	0.303621
N28	N	-0.307949	-0.379072	0.358702
N29	N	-0.307958	-0.441529	0.358682
C30	C	-0.303052	-0.473398	0.303584
C31	C	-0.343336	-0.242461	0.343837
C32	C	-0.343319	-0.176717	0.343862
C33	C	-0.262683	-0.176710	0.263492
C34	C	-0.262696	-0.242453	0.263473
C35	C	-0.303027	-0.275324	0.303645
C36	C	-0.466565	-0.909603	0.303603
C37	C	-0.536533	-0.909625	0.303610
C38	C	-0.569373	-0.949910	0.263410
C39	C	-0.635115	-0.949939	0.263424
C40	C	-0.668016	-0.909673	0.303631
C41	C	-0.635169	-0.869386	0.343838
C42	C	-0.569427	-0.869362	0.343828
N43	N	-0.771300	-0.854606	0.308402
N44	N	-0.833751	-0.854630	0.308408
C45	C	-0.866090	-0.909743	0.303667
N46	N	-0.833619	-0.964832	0.298907
N47	N	-0.771162	-0.964807	0.298897
C48	C	-0.739301	-0.909695	0.303648
C49	C	-0.970215	-0.950063	0.263481
C50	C	-1.035959	-0.950094	0.263500
C51	C	-1.036011	-0.869535	0.343911
C52	C	-0.970269	-0.869510	0.343895
C53	C	-0.937375	-0.909773	0.303677
C54	C	-0.138823	-0.909785	0.303687
C55	C	-0.068855	-0.909828	0.303708
C56	C	-0.303000	-0.909738	0.467829
C57	C	-0.302995	-0.909760	0.537797
C58	C	-0.302984	-0.073876	0.303705
C59	C	-0.302999	-0.143844	0.303687
C60	C	-0.302981	-0.909670	0.140087
C61	C	-0.302810	-0.909769	0.070119
C62	C	-0.262722	-0.950044	0.570697
C63	C	-0.262694	-0.950043	0.636440
C64	C	-0.302951	-0.909765	0.669279
C65	C	-0.343227	-0.869473	0.636371
C66	C	-0.343249	-0.869470	0.570630
N67	N	-0.358021	-0.904908	0.772493
N68	N	-0.357998	-0.904914	0.834944
C69	C	-0.302887	-0.909769	0.867354
N70	N	-0.247799	-0.914630	0.834953
N71	N	-0.247822	-0.914627	0.772496
C72	C	-0.302932	-0.909763	0.740565
C73	C	-0.262581	-0.950054	0.971540
C74	C	-0.262553	-0.950049	1.037284
C75	C	-0.343092	-0.869482	1.037214
C76	C	-0.343114	-0.869484	0.971471
C77	C	-0.302860	-0.909773	0.938639
H78	H	-0.376213	-0.550800	0.376471
O79	O	-0.382542	-0.144890	0.382921
C80	C	-0.462507	-0.151838	0.462648
C81	C	-0.418128	-0.187961	0.418437
H82	H	-0.491281	-0.186645	0.491384
H83	H	-0.495412	-0.121011	0.433721
H84	H	-0.433643	-0.121109	0.495603
H85	H	-0.446941	-0.218724	0.385473
H86	H	-0.385221	-0.218749	0.447403
O87	O	-0.223673	-0.545592	0.224282
C88	C	-0.215073	-0.471260	0.139348
C89	C	-0.259398	-0.507426	0.183576
H90	H	-0.243938	-0.440385	0.106435
H91	H	-0.186273	-0.506017	0.110574
H92	H	-0.182183	-0.440571	0.168327
H93	H	-0.292326	-0.538116	0.154646
H94	H	-0.288153	-0.472635	0.212352
O95	O	-0.382267	-0.830258	0.668241
C96	C	-0.412869	-0.723165	0.688244
C97	C	-0.368609	-0.767507	0.652125
H98	H	-0.401851	-0.672423	0.675218
H99	H	-0.405935	-0.730034	0.740890
H100	H	-0.463625	-0.734220	0.675330
H101	H	-0.317836	-0.756480	0.664986
H102	H	-0.375597	-0.760631	0.599487
H103	H	-0.943432	-0.982850	0.230735
H104	H	-0.229926	-0.670050	0.230636
O105	O	-0.223487	-0.989149	0.668340
C106	C	-0.116400	-1.019761	0.688526
C107	C	-0.160729	-0.975445	0.652351
H108	H	-0.065651	-1.008689	0.675622
H109	H	-0.127401	-1.070522	0.675628
H110	H	-0.123335	-1.012852	0.741149
H111	H	-0.153819	-0.982298	0.599719
H112	H	-0.149718	-0.924701	0.665301
O113	O	-1.067895	-0.830333	0.382938
C114	C	-1.088156	-0.723248	0.413333
C115	C	-1.051994	-0.767571	0.369102
H116	H	-1.075324	-0.672494	0.402154
H117	H	-1.075176	-0.734221	0.464114
H118	H	-1.140782	-0.730219	0.406448
H119	H	-0.999361	-0.760624	0.375931
H120	H	-1.065027	-0.756586	0.318337
O121	O	-0.938435	-0.830401	0.383027
C122	C	-0.918270	-0.799804	0.490061
C123	C	-0.954370	-0.844125	0.445812
H124	H	-0.931130	-0.810892	0.540832
H125	H	-0.931277	-0.749046	0.478991
H126	H	-0.865635	-0.806691	0.483115
H127	H	-1.007013	-0.837293	0.452733
H128	H	-0.941311	-0.894866	0.456893
H129	H	-0.375913	-0.836684	0.944684
O130	O	-0.223514	-0.989209	1.069317
C131	C	-0.214999	-1.074221	1.143592
C132	C	-0.259283	-1.029905	1.107362
H133	H	-0.243901	-1.107143	1.174350
H134	H	-0.182090	-1.045372	1.174386
H135	H	-0.186218	-1.102986	1.108821
H136	H	-0.288105	-1.001130	1.142088
H137	H	-0.292151	-1.058790	1.076558
H138	H	-1.062696	-0.982902	0.230766
O139	O	-0.382466	-0.830408	0.538694
C140	C	-0.489557	-0.799765	0.518578
C141	C	-0.445214	-0.844049	0.554775
H142	H	-0.540298	-0.810769	0.531575
H143	H	-0.482714	-0.806688	0.465944
H144	H	-0.478479	-0.749016	0.531451
H145	H	-0.456264	-0.894815	0.541954
H146	H	-0.452066	-0.837071	0.607400
H147	H	-0.376172	-0.269226	0.376551
H148	H	-0.542592	-0.982696	0.230664
H149	H	-0.229851	-0.149942	0.230784
H150	H	-0.229801	-0.982857	0.944806
H151	H	-0.229943	-0.982850	0.543969
H152	H	-0.229872	-0.269209	0.230745
H153	H	-0.375863	-0.836680	1.063951
H154	H	-0.661858	-0.982746	0.230689
H155	H	-0.661961	-0.836602	0.376576
H156	H	-0.542689	-0.836557	0.376564
O157	O	-0.382590	-0.675136	0.382805
C158	C	-0.462598	-0.668202	0.462491
C159	C	-0.418236	-0.632072	0.418270
H160	H	-0.491438	-0.633401	0.491167
H161	H	-0.433781	-0.699027	0.495496
H162	H	-0.495447	-0.698934	0.433511
H163	H	-0.385378	-0.601306	0.447199
H164	H	-0.447092	-0.601287	0.385263
