data_functionalizedCrystal
_audit_creation_method	'MofGen! by Chris Wilmer'
_symmetry_space_group_name_H-M	'P1'
_symmetry_Int_Tables_number	1
_symmetry_cell_setting	triclinic
loop_
_symmetry_equiv_pos_as_xyz
  x,y,z
_cell_length_a	17.699097
_cell_length_b	9.130313
_cell_length_c	17.699083
_cell_angle_alpha	90.002131
_cell_angle_beta	83.285722
_cell_angle_gamma	90.003824
loop_
_atom_site_label
_atom_site_type_symbol
_atom_site_fract_x
_atom_site_fract_y
_atom_site_fract_z
O1	O	1.004065	0.121924	0.095756
O2	O	1.504065	0.621924	0.595756
O3	O	0.783688	0.121900	0.108198
O4	O	1.283688	0.621900	0.608198
O5	O	0.900103	0.121900	-0.008212
O6	O	1.400103	0.621900	0.491788
O7	O	0.887650	0.121924	0.212166
O8	O	1.387650	0.621924	0.712166
O9	O	0.900101	-0.121699	-0.008209
O10	O	1.400101	0.378301	0.491791
O11	O	0.783687	-0.121698	0.108201
O12	O	1.283687	0.378302	0.608201
O13	O	1.004064	-0.121675	0.095759
O14	O	1.504064	0.378325	0.595759
Cu15	Cu	0.893875	-0.143929	0.101980
Cu16	Cu	1.393875	0.356071	0.601980
Cu17	Cu	0.893877	0.144155	0.101976
Cu18	Cu	1.393877	0.644155	0.601976
O19	O	0.887649	-0.121674	0.212169
O20	O	1.387649	0.378326	0.712169
C21	C	0.755491	0.000098	0.107752
C22	C	1.255491	0.500098	0.607752
C23	C	0.671473	0.000089	0.106409
C24	C	1.171473	0.500089	0.606409
N25	N	0.893879	-0.346552	0.101982
N26	N	1.393879	0.153448	0.601982
C27	C	0.155756	0.132933	0.098178
C28	C	0.655756	0.632933	0.598178
C29	C	0.234700	0.132925	0.099434
C30	C	0.734700	0.632925	0.599434
C31	C	0.274165	0.000134	0.100065
C32	C	0.774165	0.500134	0.600065
C33	C	0.234683	-0.132659	0.099432
C34	C	0.734683	0.367341	0.599432
C35	C	0.155741	-0.132651	0.098171
C36	C	0.655741	0.367349	0.598171
C37	C	0.553047	-0.132697	0.104520
C38	C	1.053047	0.367303	0.604520
C39	C	0.631994	-0.132696	0.105784
C40	C	1.131994	0.367304	0.605784
C41	C	0.632006	0.132879	0.105783
C42	C	1.132006	0.632879	0.605783
C43	C	0.553064	0.132887	0.104522
C44	C	1.053064	0.632887	0.604522
C45	C	0.513589	0.000095	0.103885
C46	C	1.013589	0.500095	0.603885
C47	C	0.427989	0.000105	0.102521
C48	C	0.927989	0.500105	0.602521
C49	C	0.359763	0.000123	0.101434
C50	C	0.859763	0.500123	0.601434
C51	C	0.945441	-0.423204	0.050453
C52	C	1.445441	0.076796	0.550453
C53	C	0.945439	-0.576541	0.050444
C54	C	1.445439	-0.076541	0.550444
C55	C	0.842312	-0.576560	0.153500
C56	C	1.342312	-0.076560	0.653500
C57	C	0.842311	-0.423226	0.153504
C58	C	1.342311	0.076774	0.653504
C59	C	0.997010	-0.346530	-0.001069
C60	C	1.497010	0.153470	0.498931
C61	C	1.048576	-0.423183	-0.052602
C62	C	1.548576	0.076817	0.447398
C63	C	1.048574	-0.576519	-0.052611
C64	C	1.548574	-0.076519	0.447389
C65	C	0.997006	-0.653204	-0.001087
C66	C	1.497006	-0.153204	0.498913
C67	C	1.032261	0.000131	0.096205
C68	C	1.532261	0.500131	0.596205
C69	C	1.116279	0.000150	0.097547
C70	C	1.616279	0.500150	0.597547
C71	C	0.899656	0.000100	-0.036408
C72	C	1.399656	0.500100	0.463592
C73	C	0.898317	0.000099	-0.120426
C74	C	1.398317	0.500099	0.379574
N75	N	0.893878	0.346777	0.101968
N76	N	1.393878	0.846777	0.601968
C77	C	0.966650	0.000105	-0.169044
C78	C	1.466650	0.500105	0.330956
C79	C	0.965388	0.000117	-0.247987
C80	C	1.465388	0.500117	0.252013
C81	C	0.895792	0.000115	-0.278311
C82	C	1.395792	0.500115	0.221689
C83	C	0.827454	0.000114	-0.229687
C84	C	1.327454	0.500114	0.270313
C85	C	0.828717	0.000112	-0.150745
C86	C	1.328717	0.500112	0.349255
C87	C	0.822359	0.000125	-0.548050
C88	C	1.322359	0.500125	-0.048050
C89	C	0.821101	0.000123	-0.626998
C90	C	1.321101	0.500123	-0.126998
C91	C	0.959030	0.000131	-0.645292
C92	C	1.459030	0.500131	-0.145292
C93	C	0.960293	0.000129	-0.566350
C94	C	1.460293	0.500129	-0.066350
C95	C	0.891955	0.000136	-0.517733
C96	C	1.391955	0.500136	-0.017733
C97	C	0.893325	0.000125	-0.432134
C98	C	1.393325	0.500125	0.067866
C99	C	0.894422	0.000115	-0.363909
C100	C	1.394422	0.500115	0.136091
C101	C	0.888096	0.000128	0.240364
C102	C	1.388096	0.500128	0.740364
C103	C	0.889435	0.000139	0.324382
C104	C	1.389435	0.500139	0.824382
H105	H	0.123628	0.241067	0.097669
H106	H	0.623628	0.741067	0.597669
H107	H	0.770787	0.000121	-0.254383
H108	H	1.270787	0.500121	0.245617
Br109	Br	1.118549	-0.319118	-0.122532
Br110	Br	1.618549	0.180882	0.377468
Br111	Br	1.118546	-0.680548	-0.122553
Br112	Br	1.618546	-0.180548	0.377447
Br113	Br	0.288274	0.313139	0.100283
Br114	Br	0.788274	0.813139	0.600283
Br115	Br	1.061107	0.000087	-0.127898
Br116	Br	1.561107	0.500087	0.372102
H117	H	0.997004	-0.778061	-0.001104
H118	H	1.497004	-0.278061	0.498896
H119	H	0.766714	0.000130	-0.508475
H120	H	1.266714	0.500130	-0.008475
H121	H	1.021032	0.000119	-0.287569
H122	H	1.521032	0.500119	0.212431
Br123	Br	0.685583	0.313101	0.106645
Br124	Br	1.185583	0.813101	0.606645
H125	H	1.016965	0.000124	-0.541665
H126	H	1.516965	0.500124	-0.041665
H127	H	0.520918	-0.240825	0.103990
H128	H	1.020918	0.259175	0.603990
H129	H	1.014674	0.000133	-0.684886
H130	H	1.514674	0.500133	-0.184886
H131	H	0.266822	-0.240781	0.099941
H132	H	0.766822	0.259219	0.599941
H133	H	0.764424	0.000118	-0.651685
H134	H	1.264424	0.500118	-0.151685
H135	H	0.800327	-0.639006	0.195449
H136	H	1.300327	-0.139006	0.695449
H137	H	0.773073	0.000108	-0.111161
H138	H	1.273073	0.500108	0.388839
Br139	Br	0.772328	-0.319193	0.223434
Br140	Br	1.272328	0.180807	0.723434
H141	H	0.520935	0.241020	0.104012
H142	H	1.020935	0.741020	0.604012
H143	H	0.123599	-0.240776	0.097665
H144	H	0.623599	0.259224	0.597665
Br145	Br	0.685554	-0.312926	0.106642
Br146	Br	1.185554	0.187074	0.606642
H147	H	0.997018	-0.221676	-0.001065
H148	H	1.497018	0.278324	0.498935
