data_functionalizedCrystal
_audit_creation_method	'MofGen! by Chris Wilmer'
_symmetry_space_group_name_H-M	'P1'
_symmetry_Int_Tables_number	1
_symmetry_cell_setting	triclinic
loop_
_symmetry_equiv_pos_as_xyz
  x,y,z
_cell_length_a	14.971482
_cell_length_b	10.654551
_cell_length_c	14.048226
_cell_angle_alpha	89.995355
_cell_angle_beta	89.994098
_cell_angle_gamma	84.049018
loop_
_atom_site_label
_atom_site_type_symbol
_atom_site_fract_x
_atom_site_fract_y
_atom_site_fract_z
O1	O	1.187840	0.163637	-0.079145
O2	O	0.927546	0.183240	-0.079149
O3	O	1.063677	-0.009365	-0.079144
O4	O	1.051709	0.356242	-0.079149
O5	O	1.063661	-0.009377	0.079177
O6	O	0.927530	0.183229	0.079173
O7	O	1.187823	0.163625	0.079177
Zn8	Zn	1.057674	0.173425	0.104312
Zn9	Zn	1.057696	0.173440	-0.104284
O10	O	1.051692	0.356230	0.079173
C11	C	0.894208	0.182358	0.000011
C12	C	0.794897	0.179734	0.000010
C13	C	0.748236	0.178491	0.086312
C14	C	0.654924	0.176005	0.086313
C15	C	0.608274	0.174770	0.000011
C16	C	0.654941	0.176009	-0.086298
C17	C	0.748252	0.178486	-0.086298
C18	C	0.460451	0.170849	-0.086292
C19	C	0.367133	0.168374	-0.086292
C20	C	0.367123	0.168368	0.086319
C21	C	0.460434	0.170845	0.086319
C22	C	0.507095	0.172086	0.000010
C23	C	1.062790	-0.056159	0.000015
C24	C	1.060160	-0.195574	0.000010
C25	C	1.058935	-0.261059	-0.086292
C26	C	1.056456	-0.392052	-0.086293
C27	C	1.056432	-0.392067	0.086318
C28	C	1.058904	-0.261074	0.086318
C29	C	1.000779	-0.561519	-0.189979
C30	C	0.999569	-0.627010	-0.276285
C31	C	1.052703	-0.594035	-0.352481
C32	C	1.107067	-0.495575	-0.342374
C33	C	1.108285	-0.430091	-0.256066
C34	C	1.055131	-0.463061	-0.179874
C35	C	1.114589	-0.091607	0.189998
C36	C	1.115813	-0.026122	0.276307
C37	C	1.062685	-0.059096	0.352511
C38	C	1.008334	-0.157563	0.342413
C39	C	1.007110	-0.223047	0.256104
C40	C	1.060236	-0.190065	0.179900
C41	C	1.221161	0.164507	0.000015
C42	C	1.320473	0.167131	0.000010
C43	C	1.052580	0.403025	0.000011
C44	C	1.055210	0.542439	0.000010
N45	N	1.057666	0.173414	0.246672
N46	N	1.057711	0.173441	-0.246644
C47	C	1.117964	0.088164	0.296492
C48	C	1.117970	0.088163	0.396150
C49	C	1.057681	0.173420	0.445986
C50	C	0.997377	0.258674	0.396159
C51	C	0.997367	0.258668	0.296503
C52	C	0.997403	0.258683	0.603873
C53	C	0.997413	0.258691	0.703536
C54	C	1.118005	0.088179	0.703520
C55	C	1.117996	0.088172	0.603864
C56	C	1.057692	0.173429	0.554044
H57	H	0.616951	0.174995	-0.156566
H58	H	0.957501	-0.588366	-0.127944
Br59	Br	0.915548	0.374374	0.463789
Br60	Br	1.199848	-0.027519	0.771136
H61	H	0.329128	0.167357	0.156595
Br62	Br	1.051074	-0.682937	-0.469603
Br63	Br	0.936237	-0.202331	0.445838
H64	H	1.167068	0.018745	0.436713
Br65	Br	1.054725	-0.480966	0.203444
Br66	Br	1.199823	-0.027521	0.536226
H67	H	1.157845	-0.064739	0.127946
H68	H	0.948294	0.328104	0.563313
H69	H	0.786242	0.179500	-0.156574
H70	H	1.059955	-0.207732	-0.156569
H71	H	0.616939	0.174972	0.156589
Br72	Br	0.303821	0.166699	-0.203417
Br73	Br	0.915524	0.374362	0.228890
Br74	Br	0.925791	-0.760630	-0.290002
Br75	Br	1.182060	-0.296477	-0.242342
Br76	Br	0.811538	0.180180	0.203443
Br77	Br	1.064361	0.029762	0.469653
Br78	Br	0.523744	0.172540	0.203444
Br79	Br	1.199795	-0.027540	0.228868
H80	H	1.150339	-0.468745	-0.404420
Br81	Br	0.523776	0.172526	-0.203426
Br82	Br	1.189590	0.107499	0.290018
Br83	Br	0.915589	0.374402	0.771163
Br84	Br	0.933351	-0.356690	0.242401
