data_functionalizedCrystal
_audit_creation_method	'MofGen! by Chris Wilmer'
_symmetry_space_group_name_H-M	'P1'
_symmetry_Int_Tables_number	1
_symmetry_cell_setting	triclinic
loop_
_symmetry_equiv_pos_as_xyz
  x,y,z
_cell_length_a	16.120484
_cell_length_b	16.120566
_cell_length_c	16.120297
_cell_angle_alpha	89.874982
_cell_angle_beta	95.614431
_cell_angle_gamma	89.831930
loop_
_atom_site_label
_atom_site_type_symbol
_atom_site_fract_x
_atom_site_fract_y
_atom_site_fract_z
Zn1	Zn	-0.422255	-1.224984	-0.554879
Zn2	Zn	-0.088922	-0.891651	-0.221546
Zn3	Zn	0.244412	-0.558318	0.111788
Zn4	Zn	-0.554939	-1.224880	-0.422184
Zn5	Zn	-0.221606	-0.891546	-0.088851
Zn6	Zn	0.111728	-0.558213	0.244483
Zn7	Zn	-0.408172	-1.093724	-0.408115
Zn8	Zn	-0.074838	-0.760391	-0.074781
Zn9	Zn	0.258495	-0.427057	0.258552
Zn10	Zn	-0.554173	-1.078877	-0.554109
Zn11	Zn	-0.220839	-0.745544	-0.220775
Zn12	Zn	0.112494	-0.412211	0.112558
O13	O	-0.484885	-1.155616	-0.484822
O14	O	-0.151551	-0.822283	-0.151488
O15	O	0.181782	-0.488950	0.181845
O16	O	-0.446070	-1.341006	-0.543487
O17	O	-0.112737	-1.007673	-0.210154
O18	O	0.220596	-0.674339	0.123179
O19	O	-0.529897	-1.213651	-0.303685
O20	O	-0.196563	-0.880318	0.029648
O21	O	0.136770	-0.546985	0.362981
O22	O	-0.293409	-1.117393	-0.422018
O23	O	0.039924	-0.784060	-0.088684
O24	O	0.373258	-0.450726	0.244649
O25	O	-0.543553	-1.340929	-0.445997
O26	O	-0.210219	-1.007596	-0.112663
O27	O	0.123114	-0.674263	0.220670
O28	O	-0.303756	-1.213829	-0.529845
O29	O	0.029577	-0.880496	-0.196512
O30	O	0.362911	-0.547163	0.136822
O31	O	-0.422067	-1.117292	-0.293349
O32	O	-0.088734	-0.783958	0.039985
O33	O	0.244599	-0.450625	0.373318
O34	O	-0.421324	-0.975719	-0.421271
O35	O	-0.087991	-0.642386	-0.087937
O36	O	0.245342	-0.309052	0.245396
O37	O	-0.542247	-1.092089	-0.670843
O38	O	-0.208913	-0.758756	-0.337510
O39	O	0.124420	-0.425423	-0.004177
O40	O	-0.528591	-0.964811	-0.528532
O41	O	-0.195257	-0.631478	-0.195198
O42	O	0.138076	-0.298145	0.138135
O43	O	-0.445327	-1.199433	-0.671409
O44	O	-0.111994	-0.866100	-0.338076
O45	O	0.221339	-0.532767	-0.004743
O46	O	-0.671468	-1.199255	-0.445250
O47	O	-0.338135	-0.865922	-0.111916
O48	O	-0.004801	-0.532589	0.221417
O49	O	-0.670905	-1.091988	-0.542174
O50	O	-0.337572	-0.758655	-0.208841
O51	O	-0.004238	-0.425321	0.124492
C52	C	-0.473347	-0.940178	-0.473291
C53	C	-0.140013	-0.606845	-0.139958
C54	C	0.193320	-0.273512	0.193375
C55	C	-0.468432	-0.848011	-0.468379
C56	C	-0.135098	-0.514678	-0.135046
C57	C	0.198235	-0.181344	0.198287
C58	C	-0.459439	-0.679260	-0.459418
C59	C	-0.126106	-0.345927	-0.126084
C60	C	0.207227	-0.012593	0.207249
C61	C	-0.510402	-0.632809	-0.510236
C62	C	-0.177068	-0.299476	-0.176902
C63	C	0.156265	0.033858	0.156431
C64	C	-0.505398	-0.538910	-0.505249
C65	C	-0.172065	-0.205577	-0.171916
C66	C	0.161268	0.127756	0.161417
C67	C	-0.464442	-0.773167	-0.464403
C68	C	-0.131108	-0.439834	-0.131070
C69	C	0.202225	-0.106501	0.202264
C70	C	-0.701429	-1.144021	-0.495174
C71	C	-0.368096	-0.810687	-0.161841
C72	C	-0.034763	-0.477354	0.171492
C73	C	-0.794074	-1.139134	-0.499635
C74	C	-0.460740	-0.805801	-0.166302
C75	C	-0.127407	-0.472468	0.167031
C76	C	-0.963697	-1.130217	-0.507797
C77	C	-0.630364	-0.796884	-0.174464
C78	C	-0.297030	-0.463551	0.158869
C79	C	-1.005240	-1.181163	-0.461868
C80	C	-0.671907	-0.847830	-0.128534
C81	C	-0.338573	-0.514497	0.204799
C82	C	-1.099624	-1.176202	-0.466409
C83	C	-0.766291	-0.842868	-0.133076
C84	C	-0.432958	-0.509535	0.200258
C85	C	-0.869304	-1.135178	-0.503257
C86	C	-0.535971	-0.801844	-0.169924
C87	C	-0.202638	-0.468511	0.163410
C88	C	-0.267496	-1.167279	-0.474448
C89	C	0.065837	-0.833946	-0.141114
C90	C	0.399171	-0.500612	0.192219
C91	C	-0.174858	-1.172249	-0.470027
C92	C	0.158475	-0.838915	-0.136694
C93	C	0.491809	-0.505582	0.196640
C94	C	-0.495272	-1.144117	-0.702213
C95	C	-0.161939	-0.810784	-0.368880
C96	C	0.171394	-0.477450	-0.035547
C97	C	-0.499699	-1.139216	-0.794853
C98	C	-0.166366	-0.805883	-0.461519
C99	C	0.166968	-0.472550	-0.128186
C100	C	-0.496470	-0.371896	-0.496384
C101	C	-0.163137	-0.038563	-0.163051
C102	C	0.170197	0.294771	0.170283
C103	C	-0.501412	-0.464063	-0.501277
C104	C	-0.168079	-0.130730	-0.167943
C105	C	0.165255	0.202604	0.165390
C106	C	-0.507761	-1.130240	-0.964463
C107	C	-0.174427	-0.796907	-0.631130
C108	C	0.158906	-0.463573	-0.297797
C109	C	-0.461767	-1.181169	-1.006028
C110	C	-0.128434	-0.847836	-0.672695
C111	C	0.204899	-0.514503	-0.339362
C112	C	-0.466253	-1.176175	-1.100406
C113	C	-0.132920	-0.842841	-0.767072
C114	C	0.200414	-0.509508	-0.433739
C115	C	-0.503276	-1.135233	-0.870078
C116	C	-0.169943	-0.801900	-0.536744
C117	C	0.163390	-0.468567	-0.203411
C118	C	-0.474480	-1.167122	-0.268275
C119	C	-0.141146	-0.833789	0.065058
C120	C	0.192187	-0.500455	0.398391
C121	C	-0.469827	-1.172196	-0.175634
C122	C	-0.136493	-0.838862	0.157700
C123	C	0.196840	-0.505529	0.491033
H124	H	-0.412055	-0.648509	-0.412169
H125	H	-0.078722	-0.315176	-0.078836
H126	H	0.254611	0.018157	0.254497
C127	C	-0.573625	-0.673651	-0.573321
C128	C	-0.240292	-0.340318	-0.239988
C129	C	0.093041	-0.006984	0.093346
C130	C	-0.619650	-0.612338	-0.619237
C131	C	-0.286317	-0.279004	-0.285904
C132	C	0.047016	0.054329	0.047429
C133	C	-0.677892	-0.649934	-0.677361
C134	C	-0.344558	-0.316600	-0.344027
C135	C	-0.011225	0.016733	-0.010694
H136	H	-0.610204	-0.707175	-0.544962
H137	H	-0.276870	-0.373841	-0.211628
H138	H	0.056463	-0.040508	0.121705
H139	H	-0.545328	-0.707213	-0.609974
H140	H	-0.211995	-0.373879	-0.276641
H141	H	0.121339	-0.040546	0.056693
H142	H	-0.647946	-0.578790	-0.582590
H143	H	-0.314613	-0.245457	-0.249256
H144	H	0.018720	0.087877	0.084077
H145	H	-0.583095	-0.578810	-0.647615
H146	H	-0.249761	-0.245477	-0.314281
H147	H	0.083572	0.087856	0.019052
H148	H	-0.649594	-0.683495	-0.714014
H149	H	-0.316261	-0.350162	-0.380680
H150	H	0.017073	-0.016829	-0.047347
H151	H	-0.714464	-0.683456	-0.648994
H152	H	-0.381131	-0.350123	-0.315661
H153	H	-0.047797	-0.016790	0.017673
H154	H	-0.709121	-0.608339	-0.708527
H155	H	-0.375788	-0.275006	-0.375194
H156	H	-0.042455	0.058328	-0.041860
H157	H	-0.969921	-1.228505	-0.419135
H158	H	-0.636588	-0.895172	-0.085802
H159	H	-0.303255	-0.561838	0.247532
H160	H	-0.999013	-1.082878	-0.550525
H161	H	-0.665680	-0.749545	-0.217192
H162	H	-0.332346	-0.416211	0.116141
H163	H	-0.419021	-1.228521	-0.970734
H164	H	-0.085688	-0.895188	-0.637400
H165	H	0.247645	-0.561855	-0.304067
H166	H	-0.550503	-1.082892	-0.999756
H167	H	-0.217170	-0.749558	-0.666423
H168	H	0.116163	-0.416225	-0.333089
