data_functionalizedCrystal
_audit_creation_method	'MofGen! by Chris Wilmer'
_symmetry_space_group_name_H-M	'P1'
_symmetry_Int_Tables_number	1
_symmetry_cell_setting	triclinic
loop_
_symmetry_equiv_pos_as_xyz
  x,y,z
_cell_length_a	18.760490
_cell_length_b	12.970454
_cell_length_c	12.970454
_cell_angle_alpha	60.000396
_cell_angle_beta	90.018247
_cell_angle_gamma	60.024409
loop_
_atom_site_label
_atom_site_type_symbol
_atom_site_fract_x
_atom_site_fract_y
_atom_site_fract_z
Zr1	Zr	0.686544	1.128922	-0.135175
O2	O	0.572752	1.343942	-0.299816
O3	O	0.721426	0.913854	-0.084705
O4	O	0.721428	1.128942	-0.299793
O5	O	0.572750	1.128855	0.084939
O6	O	0.838707	1.129012	-0.299773
O7	O	0.572751	1.128854	-0.084728
O8	O	0.838704	0.744259	0.084980
O9	O	0.572753	1.513608	-0.299814
O10	O	0.823828	1.002385	-0.063164
O11	O	0.736303	1.002333	0.063442
O12	O	0.736305	1.255571	-0.189796
O13	O	0.648781	1.255519	-0.063191
Zr14	Zr	0.873588	1.129035	0.135455
Zr15	Zr	0.873589	1.129034	-0.135143
Zr16	Zr	0.686542	1.128923	0.135424
Zr17	Zr	0.686544	1.399519	-0.135172
Zr18	Zr	0.873587	0.858438	0.135453
O19	O	0.838705	1.344103	0.084985
O20	O	0.838707	1.344101	-0.299771
O21	O	0.572750	1.343944	0.084941
O22	O	0.987380	0.914015	0.300096
O23	O	0.987381	0.914013	-0.084660
O24	O	0.721425	0.913856	0.300052
O25	O	0.987382	1.129102	-0.084658
O26	O	0.838704	1.129015	0.300073
O27	O	0.721425	1.128945	0.300053
O28	O	0.987381	1.129103	0.085008
O29	O	0.721429	1.513697	-0.299789
O30	O	0.838703	0.744260	0.300070
O31	O	0.987379	0.744349	0.300095
O32	O	0.987380	0.744348	0.085005
O33	O	0.572752	1.513609	-0.084724
O34	O	0.721428	1.513698	-0.084700
O35	O	0.823826	1.002386	0.190077
O36	O	0.911351	1.002438	0.063471
O37	O	0.823828	1.255624	-0.063161
O38	O	0.736304	1.255572	0.063444
C39	C	0.780065	0.790502	0.000137
C40	C	0.780065	0.675626	0.000136
C41	C	0.546100	1.128838	0.000101
C42	C	0.466694	1.128791	0.000088
C43	C	0.130707	1.129127	-0.093293
C44	C	0.130822	1.129128	0.093657
C45	C	0.205469	1.129056	0.093637
C46	C	0.242738	1.129017	0.000151
C47	C	0.205362	1.129050	-0.093314
C48	C	0.242856	1.129007	0.187108
C49	C	0.317507	1.128933	0.187092
C50	C	0.354775	1.128905	0.093599
C51	C	0.317393	1.128940	0.000130
C52	C	0.354663	1.128901	-0.093356
C53	C	0.317279	1.128947	-0.186832
C54	C	0.242630	1.129022	-0.186807
C55	C	0.429425	1.128830	0.093574
C56	C	0.429318	1.128824	-0.093377
C57	C	1.014032	1.129119	0.000179
C58	C	1.093437	1.129166	0.000193
C59	C	0.780068	1.128977	-0.338337
C60	C	0.780068	1.128976	-0.453213
C61	C	0.780067	1.467455	0.000143
C62	C	0.780067	1.582331	0.000144
C63	C	0.780064	1.128980	0.338618
C64	C	0.780064	1.128981	0.453494
C65	C	1.014031	0.790642	0.000177
C66	C	1.093436	0.675814	0.000189
C67	C	0.780063	0.790504	0.338615
C68	C	0.780063	0.675629	0.453490
C69	C	1.014029	0.790644	0.338654
C70	C	1.093434	0.675816	0.453543
C71	C	0.546103	1.467313	-0.338374
C72	C	0.466698	1.582141	-0.453262
C73	C	0.546101	1.467315	0.000104
C74	C	0.466696	1.582143	0.000092
C75	C	0.780068	1.467453	-0.338334
C76	C	0.780069	1.582328	-0.453210
C77	C	1.085040	0.621862	-0.065919
C78	C	1.159643	0.513983	-0.065932
C79	C	1.242641	0.460052	0.000170
C80	C	1.251036	0.514015	0.066279
C81	C	1.176434	0.621899	0.066285
C82	C	1.176418	0.621919	0.441409
C83	C	1.251035	0.514041	0.549348
C84	C	1.242665	0.460056	0.669421
C85	C	1.159672	0.513963	0.681552
C86	C	1.085058	0.621847	0.573614
C87	C	0.383714	1.636051	-0.441128
C88	C	0.309097	1.743962	-0.549068
C89	C	0.317466	1.797954	-0.669140
C90	C	0.400459	1.744039	-0.681271
C91	C	0.475074	1.636137	-0.573333
C92	C	0.475092	1.636106	0.066188
C93	C	0.400489	1.744015	0.066172
C94	C	0.317491	1.797950	0.000066
C95	C	0.309096	1.743982	-0.066039
C96	C	0.383698	1.636083	-0.066029
H97	H	0.347636	1.128906	-0.262945
H98	H	1.017491	0.665716	0.583511
O99	O	0.219590	1.802076	-0.535970
H100	H	0.226313	1.746372	-0.434340
O101	O	0.564604	1.577974	0.137475
H102	H	0.572194	1.528830	0.239059
H103	H	0.212188	1.129057	-0.262910
H104	H	0.542641	1.592244	-0.583228
H105	H	0.376849	1.592149	-0.119849
H106	H	0.256752	1.885808	0.000069
H107	H	1.017465	0.665772	-0.119762
H108	H	1.318623	0.470088	0.120097
H109	H	1.152871	0.469992	0.779329
H110	H	0.459656	1.128801	-0.169509
H111	H	1.303428	0.372210	0.757301
H112	H	0.256703	1.885814	-0.757020
H113	H	0.407263	1.788013	-0.779047
H114	H	0.241509	1.787913	-0.119860
O115	O	0.090388	1.129194	-0.194121
H116	H	0.032216	1.129256	-0.178409
O117	O	0.090630	1.129169	0.194487
H118	H	0.032439	1.129234	0.178796
H119	H	0.212512	1.129028	0.263227
O120	O	1.150571	0.455797	-0.137239
H121	H	1.216385	0.371732	-0.126162
H122	H	0.347940	1.128898	0.263203
O123	O	0.409552	1.802194	0.137491
H124	H	0.479801	1.746532	0.183479
H125	H	0.376882	1.592097	-0.343369
H126	H	0.459862	1.128783	0.169685
H127	H	1.303380	0.372205	0.000156
H128	H	1.183283	0.665813	0.120125
H129	H	1.318604	0.470161	0.539448
O130	O	1.185456	0.680153	0.311908
H131	H	1.255701	0.624553	0.321626
