data_functionalizedCrystal
_audit_creation_method	'MofGen! by Chris Wilmer'
_symmetry_space_group_name_H-M	'P1'
_symmetry_Int_Tables_number	1
_symmetry_cell_setting	triclinic
loop_
_symmetry_equiv_pos_as_xyz
  x,y,z
_cell_length_a	18.215407
_cell_length_b	12.759400
_cell_length_c	18.215398
_cell_angle_alpha	89.979097
_cell_angle_beta	89.983001
_cell_angle_gamma	90.010609
loop_
_atom_site_label
_atom_site_type_symbol
_atom_site_fract_x
_atom_site_fract_y
_atom_site_fract_z
Zn1	Zn	1.125129	-0.418375	-0.416091
Zn2	Zn	1.125064	-0.594065	-0.293034
Zn3	Zn	1.002063	-0.418392	-0.293043
Zn4	Zn	1.002053	-0.594005	-0.416064
O5	O	1.063577	-0.506209	-0.354558
O6	O	1.228105	-0.441698	-0.399774
O7	O	1.108724	-0.570794	-0.190051
O8	O	1.018419	-0.271369	-0.309381
O9	O	1.228057	-0.570777	-0.309365
O10	O	1.108836	-0.271356	-0.399783
O11	O	1.018356	-0.441728	-0.190058
O12	O	0.899077	-0.441670	-0.309355
O13	O	1.018403	-0.570675	-0.519052
O14	O	0.899070	-0.570691	-0.399738
O15	O	1.108826	-0.441640	-0.519071
O16	O	1.108714	-0.741078	-0.309339
O17	O	1.018339	-0.741034	-0.399729
C18	C	0.872371	-0.506177	-0.354545
C19	C	0.790572	-0.506188	-0.354557
C20	C	0.602402	-0.439116	-0.401707
C21	C	0.525543	-0.439125	-0.401710
C22	C	0.525504	-0.573332	-0.307421
C23	C	0.602361	-0.573317	-0.307416
C24	C	0.640808	-0.506210	-0.354563
C25	C	0.487092	-0.506234	-0.354571
C26	C	0.403759	-0.506245	-0.354573
C27	C	0.724147	-0.506198	-0.354560
C28	C	1.063538	-0.779176	-0.354546
C29	C	1.063589	-0.895953	-0.354566
C30	C	1.110646	-0.950729	-0.401677
C31	C	1.110680	-1.060453	-0.401695
C32	C	1.016599	-1.060616	-0.307484
C33	C	1.016562	-0.950894	-0.307471
C34	C	1.157673	-0.895788	-0.448772
C35	C	1.204734	-0.950564	-0.495887
C36	C	1.204768	-1.060288	-0.495905
C37	C	1.157741	-1.115236	-0.448808
C38	C	1.255530	-0.506242	-0.354571
C39	C	1.337329	-0.506256	-0.354577
C40	C	1.063621	-0.506149	-0.546511
C41	C	1.063639	-0.506123	-0.628310
C42	C	1.063636	-0.232176	-0.354586
C43	C	1.063661	-0.115399	-0.354598
C44	C	1.110728	-0.573198	-0.893369
C45	C	1.110716	-0.573234	-0.816510
C46	C	1.016606	-0.438845	-0.816500
C47	C	1.016614	-0.438815	-0.893357
C48	C	1.063679	-0.505990	-0.931790
C49	C	1.063660	-0.506057	-0.778074
C50	C	1.063647	-0.506096	-0.694740
C51	C	1.063691	-0.505952	-1.015129
C52	C	1.063576	-0.506193	-0.163352
C53	C	1.063700	-0.505923	-0.081553
H54	H	1.157652	-0.806445	-0.448761
H55	H	1.149028	-0.627962	-0.785231
O56	O	0.970889	-1.114105	-0.261836
C57	C	0.923343	-1.177568	-0.303702
H58	H	0.949271	-1.193936	-0.359499
H59	H	0.868785	-1.135330	-0.311734
C60	C	0.878234	-1.261734	-0.194682
C61	C	0.910083	-1.281845	-0.263210
H62	H	0.870051	-1.326056	-0.169704
H63	H	0.910264	-1.218976	-0.166476
H64	H	0.832772	-1.226534	-0.201385
H65	H	0.955547	-1.317033	-0.256506
H66	H	0.878059	-1.324612	-0.291415
H67	H	0.978244	-0.906295	-0.269109
O68	O	0.970859	-0.373736	-0.779083
C69	C	0.923301	-0.433565	-0.734625
H70	H	0.949242	-0.513192	-0.723112
H71	H	0.868763	-0.445091	-0.764231
C72	C	0.878122	-0.277988	-0.675758
C73	C	0.909985	-0.375784	-0.661613
H74	H	0.869904	-0.242345	-0.630723
H75	H	0.910160	-0.237679	-0.705713
H76	H	0.832677	-0.287607	-0.700432
H77	H	0.955433	-0.366164	-0.636948
H78	H	0.877954	-0.416091	-0.631653
O79	O	1.156463	-0.638554	-0.930588
C80	C	1.197998	-0.697863	-0.880192
H81	H	1.167847	-0.701517	-0.825400
H82	H	1.253897	-0.659399	-0.872030
C83	C	1.245620	-0.805181	-0.977478
C84	C	1.208585	-0.809678	-0.910183
H85	H	1.252154	-0.874153	-0.995978
H86	H	1.217640	-0.765222	-1.011432
H87	H	1.292199	-0.773124	-0.970667
H88	H	1.162004	-0.841723	-0.916996
H89	H	1.236558	-0.849645	-0.876231
O90	O	0.970886	-0.373425	-0.930571
C91	C	0.929335	-0.314154	-0.880171
H92	H	0.959472	-0.310534	-0.825389
H93	H	0.873435	-0.352628	-0.871984
C94	C	0.881734	-0.206773	-0.977460
C95	C	0.918752	-0.202319	-0.910178
H96	H	0.875202	-0.137789	-0.995970
H97	H	0.909725	-0.246707	-1.011416
H98	H	0.835155	-0.238839	-0.970628
H99	H	0.965333	-0.170266	-0.917012
H100	H	0.890768	-0.162377	-0.876224
H101	H	1.243017	-0.905819	-0.534235
H102	H	1.243081	-1.104883	-0.534273
O103	O	0.488122	-0.373987	-0.447440
C104	C	0.412041	-0.388403	-0.437351
H105	H	0.401520	-0.422702	-0.380515
H106	H	0.390243	-0.444440	-0.480936
C107	C	0.385511	-0.239994	-0.514033
C108	C	0.372589	-0.282112	-0.444225
H109	H	0.361175	-0.174430	-0.518277
H110	H	0.436768	-0.230283	-0.520834
H111	H	0.367347	-0.286701	-0.550347
H112	H	0.390762	-0.235411	-0.407913
H113	H	0.321334	-0.291812	-0.437419
H114	H	0.494191	-0.627969	-0.269037
O115	O	0.639636	-0.373828	-0.447525
C116	C	0.589253	-0.314630	-0.489149
H117	H	0.534456	-0.310946	-0.459011
H118	H	0.581096	-0.353208	-0.544997
C119	C	0.686558	-0.207350	-0.536900
C120	C	0.619258	-0.202819	-0.499882
H121	H	0.705067	-0.138381	-0.543524
H122	H	0.720503	-0.247235	-0.508860
H123	H	0.679751	-0.239503	-0.583436
H124	H	0.626067	-0.170678	-0.453343
H125	H	0.585314	-0.162925	-0.527915
O126	O	0.639560	-0.638597	-0.261594
C127	C	0.589147	-0.697818	-0.219973
H128	H	0.534371	-0.701528	-0.250115
H129	H	0.580954	-0.659242	-0.164126
C130	C	0.686417	-0.805051	-0.172213
C131	C	0.619142	-0.809615	-0.209237
H132	H	0.704920	-0.874011	-0.165587
H133	H	0.720383	-0.765151	-0.200252
H134	H	0.679581	-0.772900	-0.125678
H135	H	0.625981	-0.841754	-0.255774
H136	H	0.585178	-0.849524	-0.181206
H137	H	1.157764	-1.204581	-0.448835
