data_functionalizedCrystal
_audit_creation_method	'MofGen! by Chris Wilmer'
_symmetry_space_group_name_H-M	'P1'
_symmetry_Int_Tables_number	1
_symmetry_cell_setting	triclinic
loop_
_symmetry_equiv_pos_as_xyz
  x,y,z
_cell_length_a	27.440280
_cell_length_b	20.919309
_cell_length_c	20.919309
_cell_angle_alpha	60.101124
_cell_angle_beta	89.996752
_cell_angle_gamma	62.585805
loop_
_atom_site_label
_atom_site_type_symbol
_atom_site_fract_x
_atom_site_fract_y
_atom_site_fract_z
Zr1	Zr	0.493209	0.692373	-0.106854
O2	O	0.422173	0.817908	-0.209950
O3	O	0.512143	0.561541	-0.071786
O4	O	0.519747	0.684722	-0.204960
O5	O	0.411805	0.702608	0.024333
O6	O	0.599948	0.684712	-0.204963
O7	O	0.414569	0.694727	-0.076777
O8	O	0.586347	0.464363	0.033260
O9	O	0.425407	0.922957	-0.213890
O10	O	0.583506	0.617307	-0.061017
O11	O	0.521590	0.623197	0.014442
O12	O	0.530542	0.768227	-0.142352
O13	O	0.468626	0.774117	-0.066893
Zr14	Zr	0.616714	0.704926	0.054399
Zr15	Zr	0.621122	0.692356	-0.106859
Zr16	Zr	0.488801	0.704942	0.054404
Zr17	Zr	0.498367	0.859913	-0.113138
Zr18	Zr	0.611556	0.537385	0.060683
O19	O	0.597780	0.835757	0.019331
O20	O	0.604048	0.817884	-0.209958
O21	O	0.415905	0.835781	0.019338
O22	O	0.687751	0.579390	0.157495
O23	O	0.694018	0.561517	-0.071794
O24	O	0.505875	0.579414	0.157502
O25	O	0.698118	0.694690	-0.076788
O26	O	0.590177	0.712576	0.152504
O27	O	0.509975	0.712586	0.152508
O28	O	0.695354	0.702571	0.024321
O29	O	0.527080	0.922944	-0.213894
O30	O	0.582843	0.474354	0.161439
O31	O	0.684517	0.474341	0.161435
O32	O	0.688020	0.464350	0.033256
O33	O	0.421903	0.932948	-0.085711
O34	O	0.523576	0.932935	-0.085715
O35	O	0.579381	0.629071	0.089897
O36	O	0.641297	0.623181	0.014437
O37	O	0.588333	0.774101	-0.066898
O38	O	0.526417	0.779991	0.008562
C39	C	0.548510	0.489081	-0.018368
C40	C	0.546321	0.417956	-0.015700
C41	C	0.394963	0.698670	-0.026221
C42	C	0.340660	0.698677	-0.026219
C43	C	0.577610	0.381466	-0.053836
C44	C	0.575554	0.314632	-0.051322
C45	C	0.542205	0.284293	-0.010677
C46	C	0.510914	0.320785	0.027464
C47	C	0.512974	0.387614	0.024954
C48	C	0.534372	0.082663	-0.001124
C49	C	0.532313	0.015832	0.001381
C50	C	0.596954	0.009682	-0.077405
C51	C	0.599008	0.076516	-0.079915
C52	C	0.567720	0.112999	-0.041771
C53	C	0.540101	0.215980	-0.008108
C54	C	0.569827	0.181307	-0.044335
C55	C	0.005484	0.694287	-0.081930
C56	C	-0.045534	0.694280	-0.081930
O57	O	-0.070615	0.690555	-0.129286
N58	N	-0.072574	0.698624	-0.026229
C59	C	-0.048591	0.702965	0.029481
O60	O	-0.076275	0.706658	0.076859
C61	C	0.002428	0.702966	0.029483
C62	C	0.029463	0.698631	-0.026226
C63	C	0.032519	0.689951	-0.137635
C64	C	0.083533	0.689959	-0.137635
C65	C	0.107512	0.694303	-0.081931
C66	C	0.080477	0.698639	-0.026227
C67	C	0.026413	0.707301	0.085196
C68	C	0.077436	0.707300	0.085194
C69	C	0.104471	0.702965	0.029485
C70	C	0.155470	0.702990	0.029477
N71	N	0.182511	0.698647	-0.026224
C72	C	0.158532	0.694303	-0.081928
C73	C	-0.155734	0.702963	0.029471
C74	C	-0.206755	0.702969	0.029466
C75	C	-0.203694	0.694283	-0.081945
C76	C	-0.152675	0.694283	-0.081942
C77	C	-0.128694	0.698620	-0.026230
C78	C	0.265664	0.694321	-0.081925
C79	C	0.316681	0.694333	-0.081923
C80	C	0.313617	0.703015	0.029489
C81	C	0.262603	0.703008	0.029485
C82	C	0.238629	0.698658	-0.026226
O83	O	0.180586	0.706710	0.076810
O84	O	0.186226	0.690599	-0.129293
C85	C	0.714961	0.698628	-0.026234
C86	C	0.769263	0.698621	-0.026236
C87	C	0.560476	0.682926	-0.227937
C88	C	0.562347	0.677590	-0.296395
C89	C	0.561413	0.908217	-0.034088
C90	C	0.563603	0.979342	-0.036755
C91	C	0.535580	0.753859	-0.371013
C92	C	0.537346	0.748840	-0.435334
C93	C	0.565875	0.667551	-0.425036
C94	C	0.592646	0.591276	-0.350410
C95	C	0.590883	0.596296	-0.286091
C96	C	0.572584	0.648453	-0.617115
C97	C	0.574343	0.643439	-0.681442
C98	C	0.519044	0.801004	-0.766362
C99	C	0.517281	0.806017	-0.702037
C100	C	0.544054	0.729742	-0.627418
C101	C	0.567680	0.662419	-0.490781
C102	C	0.542253	0.734875	-0.561674
C103	C	0.549448	0.714372	0.175482
C104	C	0.547576	0.719708	0.243940
C105	C	0.708509	0.489060	-0.018374
C106	C	0.760622	0.417927	-0.015709
C107	C	0.542996	0.504804	0.183342
C108	C	0.538935	0.439015	0.254468
C109	C	0.702995	0.504783	0.183335
C110	C	0.753237	0.438987	0.254459
C111	C	0.406928	0.892515	-0.235790
C112	C	0.356687	0.958312	-0.306914
C113	C	0.401414	0.908238	-0.034081
C114	C	0.349301	0.979371	-0.036746
C115	C	0.566927	0.892494	-0.235797
C116	C	0.570988	0.958283	-0.306923
C117	C	0.754929	0.381456	-0.053850
C118	C	0.803890	0.314628	-0.051361
C119	C	0.858544	0.284267	-0.010726
C120	C	0.864236	0.320745	0.027417
C121	C	0.815276	0.387577	0.024923
C122	C	0.567194	0.411186	0.327262
C123	C	0.563377	0.349380	0.394099
C124	C	0.531303	0.315399	0.388138
C125	C	0.503040	0.343234	0.315336
C126	C	0.506855	0.405043	0.248501
C127	C	0.809156	0.405014	0.248470
C128	C	0.856368	0.343200	0.315292
C129	C	0.847660	0.315355	0.388102
C130	C	0.791735	0.349335	0.394089
C131	C	0.744524	0.411152	0.327267
C132	C	0.300768	0.992293	-0.300926
C133	C	0.253556	1.054127	-0.367748
C134	C	0.262264	1.081975	-0.440558
C135	C	0.318189	1.047991	-0.446545
C136	C	0.365399	0.986162	-0.379723
C137	C	0.354995	1.015848	0.001388
C138	C	0.306035	1.082694	-0.001119
C139	C	0.251381	1.113056	-0.041757
C140	C	0.245689	1.076575	-0.079896
C141	C	0.294649	1.009735	-0.077393
C142	C	0.603067	0.992245	-0.300938
C143	C	0.606894	1.054053	-0.367762
C144	C	0.578638	1.081902	-0.440570
C145	C	0.546558	1.047934	-0.446553
C146	C	0.542735	0.986123	-0.379730
H147	H	0.604764	0.406168	-0.086938
C148	C	0.899600	0.247347	0.461600
N149	N	0.938723	0.196120	0.516957
H150	H	0.590908	0.596233	-0.482404
C151	C	0.821548	0.427680	0.066893
N152	N	0.826276	0.457882	0.098509
H153	H	0.211520	1.167482	-0.043789
C154	C	0.694814	0.414844	-0.098560
N155	N	0.649537	0.439992	-0.132243
H156	H	0.201183	1.101307	-0.112983
C157	C	0.912396	0.210744	-0.007984
N158	N	0.952955	0.155363	-0.005918
C159	C	0.478553	0.427752	0.066907
N160	N	0.452627	0.457982	0.098508
H161	H	0.246151	0.690777	-0.127289
H162	H	0.508897	0.112357	0.029938
H163	H	0.586394	0.326724	0.453371
H164	H	0.594384	0.586344	-0.556365
H165	H	0.240586	0.706550	0.074842
H166	H	0.593312	0.438847	0.332130
C167	C	0.426909	0.948779	-0.386323
N168	N	0.473238	0.920623	-0.391300
C169	C	0.288375	0.969607	-0.119337
N170	N	0.283645	0.939384	-0.150930
C171	C	0.582848	1.149898	-0.514071
N172	N	0.586021	1.201115	-0.569429
C173	C	0.635697	0.109882	-0.124625
N174	N	0.663331	0.135013	-0.158302
C175	C	0.917880	0.305825	0.308689
N176	N	0.964209	0.277674	0.303714
C177	C	-0.230077	0.689496	-0.143216
N178	N	-0.249951	0.685889	-0.189362
C179	C	0.507875	0.832743	-0.517415
N180	N	0.485667	0.895943	-0.579239
H181	H	0.615878	0.525088	-0.342030
C182	C	0.782166	0.318690	0.474187
N183	N	0.774960	0.295600	0.534520
H184	H	0.908742	0.296016	0.060501
C185	C	0.634157	0.961618	-0.220855
N186	N	0.657579	0.938549	-0.160538
H187	H	0.698994	0.438805	0.332154
H188	H	0.523554	1.070619	-0.505843
C189	C	0.797615	0.274507	-0.093315
N190	N	0.792886	0.244287	-0.124913
H191	H	0.516611	0.958478	-0.384614
C192	C	0.192044	1.091497	-0.361145
N193	N	0.145715	1.119642	-0.356170
C194	C	0.642181	1.091411	-0.361163
N195	N	0.668759	1.119548	-0.356191
H196	H	0.223817	1.132320	-0.494963
H197	H	0.512345	0.820054	-0.379408
H198	H	0.528201	0.265070	0.442566
H199	H	0.601033	0.284922	-0.082375
C200	C	0.327758	1.078625	-0.526643
N201	N	0.334964	1.101694	-0.586975
H202	H	0.512948	0.191270	0.024986
C203	C	0.495603	-0.017511	0.046065
N204	N	0.467945	-0.042613	0.079706
H205	H	0.399493	0.991133	0.034485
H206	H	0.004408	0.710830	0.130560
H207	H	0.622428	-0.020029	-0.108459
C208	C	0.312310	1.122804	0.040846
N209	N	0.317037	1.153012	0.072457
H210	H	0.483845	0.427692	0.189231
H211	H	0.476926	0.315557	0.310495
H212	H	0.596983	0.206008	-0.077425
C213	C	0.474230	0.287409	0.072174
N214	N	0.446596	0.262274	0.105848
C215	C	0.346418	0.689560	-0.143208
N216	N	0.368816	0.685961	-0.189365
H217	H	0.105543	0.686426	-0.182997
H218	H	0.013001	0.686411	-0.182996
H219	H	-0.130665	0.690752	-0.127305
C220	C	0.485901	0.895441	-0.713374
N221	N	0.462265	0.962798	-0.721914
H222	H	-0.136215	0.706502	0.074837
C223	C	-0.236491	0.707747	0.090745
N224	N	-0.258884	0.711340	0.136907
C225	C	0.605735	0.554010	-0.670107
N226	N	0.629379	0.486656	-0.661571
H227	H	0.816257	0.427675	0.189191
H228	H	0.096959	0.710829	0.130564
H229	H	0.333148	0.706556	0.074841
H230	H	0.612679	0.534189	-0.225333
H231	H	0.497248	0.863103	-0.827122
H232	H	0.519027	0.801060	-0.570056
H233	H	0.293667	0.969622	-0.241646
