data_functionalizedCrystal
_audit_creation_method	'MofGen! by Chris Wilmer'
_symmetry_space_group_name_H-M	'P1'
_symmetry_Int_Tables_number	1
_symmetry_cell_setting	triclinic
loop_
_symmetry_equiv_pos_as_xyz
  x,y,z
_cell_length_a	23.532407
_cell_length_b	23.532407
_cell_length_c	12.376897
_cell_angle_alpha	77.272789
_cell_angle_beta	77.276354
_cell_angle_gamma	82.848712
loop_
_atom_site_label
_atom_site_type_symbol
_atom_site_fract_x
_atom_site_fract_y
_atom_site_fract_z
O1	O	0.745582	0.059447	0.093938
O2	O	1.078916	0.392781	0.427271
O3	O	1.412249	0.726114	0.760604
O4	O	0.579717	0.069449	0.093957
O5	O	0.913050	0.402782	0.427291
O6	O	1.246384	0.736115	0.760624
O7	O	0.667653	-0.018481	0.093926
O8	O	1.000987	0.314852	0.427260
O9	O	1.334320	0.648185	0.760593
O10	O	0.657646	0.147377	0.093969
O11	O	0.990979	0.480711	0.427302
O12	O	1.324312	0.814044	0.760636
O13	O	0.687013	0.000904	-0.094069
O14	O	1.020346	0.334237	0.239264
O15	O	1.353679	0.667570	0.572597
O16	O	0.599076	0.088834	-0.094038
O17	O	0.932409	0.422167	0.239295
O18	O	1.265743	0.755501	0.572628
O19	O	0.764942	0.078833	-0.094058
O20	O	1.098275	0.412166	0.239275
O21	O	1.431608	0.745499	0.572609
Zn22	Zn	0.685083	0.086911	-0.123896
Zn23	Zn	1.018416	0.420244	0.209437
Zn24	Zn	1.351749	0.753578	0.542770
Zn25	Zn	0.659576	0.061370	0.123796
Zn26	Zn	0.992909	0.394704	0.457129
Zn27	Zn	1.326242	0.728037	0.790463
O28	O	0.677005	0.166763	-0.094027
O29	O	1.010338	0.500096	0.239307
O30	O	1.343672	0.833429	0.572640
C31	C	0.568180	0.078886	-0.000038
C32	C	0.901514	0.412220	0.333295
C33	C	1.234847	0.745553	0.666628
C34	C	0.504963	0.078120	-0.000032
C35	C	0.838296	0.411453	0.333302
C36	C	1.171629	0.744786	0.666635
C37	C	0.238800	0.022929	-0.000077
C38	C	0.572133	0.356262	0.333257
C39	C	0.905466	0.689596	0.666590
C40	C	0.298200	0.023640	-0.000076
C41	C	0.631533	0.356974	0.333257
C42	C	0.964867	0.690307	0.666590
O43	O	0.334950	-0.020140	-0.000127
O44	O	0.668283	0.313193	0.333207
O45	O	1.001616	0.646526	0.666540
N46	N	0.320824	0.075914	-0.000055
N47	N	0.654157	0.409248	0.333278
N48	N	0.987491	0.742581	0.666612
C49	C	0.284045	0.127482	-0.000046
C50	C	0.617379	0.460815	0.333287
C51	C	0.950712	0.794148	0.666621
O52	O	0.308743	0.172010	-0.000029
O53	O	0.642077	0.505344	0.333304
O54	O	0.975410	0.838677	0.666638
C55	C	0.224647	0.126771	-0.000055
C56	C	0.557981	0.460104	0.333279
C57	C	0.891314	0.793437	0.666612
C58	C	0.202026	0.074492	-0.000064
C59	C	0.535359	0.407825	0.333269
C60	C	0.868692	0.741159	0.666602
C61	C	0.216178	-0.029345	-0.000088
C62	C	0.549511	0.303988	0.333246
C63	C	0.882844	0.637321	0.666579
C64	C	0.156781	-0.030057	-0.000086
C65	C	0.490115	0.303277	0.333247
C66	C	0.823448	0.636610	0.666581
C67	C	0.120007	0.021506	-0.000073
C68	C	0.453340	0.354840	0.333260
C69	C	0.786674	0.688173	0.666593
C70	C	0.142629	0.073781	-0.000063
C71	C	0.475963	0.407114	0.333271
C72	C	0.809296	0.740447	0.666604
C73	C	0.187871	0.178338	-0.000054
C74	C	0.521204	0.511671	0.333280
C75	C	0.854537	0.845005	0.666613
C76	C	0.128469	0.177622	-0.000063
C77	C	0.461803	0.510956	0.333270
C78	C	0.795136	0.844289	0.666604
C79	C	0.105848	0.125344	-0.000073
C80	C	0.439181	0.458677	0.333261
C81	C	0.772514	0.792010	0.666594
C82	C	0.046459	0.124632	-0.000048
C83	C	0.379792	0.457965	0.333285
C84	C	0.713125	0.791299	0.666618
N85	N	0.023835	0.072358	-0.000070
N86	N	0.357168	0.405691	0.333264
N87	N	0.690501	0.739025	0.666597
C88	C	0.060609	0.020795	-0.000082
C89	C	0.393942	0.354128	0.333251
C90	C	0.727276	0.687462	0.666585
C91	C	0.408786	0.128971	-0.000030
C92	C	0.742120	0.462305	0.333303
C93	C	1.075453	0.795638	0.666637
C94	C	0.468183	0.129682	-0.000013
C95	C	0.801516	0.463016	0.333320
C96	C	1.134849	0.796349	0.666653
C97	C	0.482333	0.025841	-0.000046
C98	C	0.815666	0.359174	0.333288
C99	C	1.149000	0.692508	0.666621
C100	C	0.422935	0.025130	-0.000054
C101	C	0.756268	0.358463	0.333279
C102	C	1.089602	0.691796	0.666612
C103	C	0.386162	0.076697	-0.000051
C104	C	0.719496	0.410031	0.333282
C105	C	1.052829	0.743364	0.666616
C106	C	-0.064128	0.019305	-0.000078
C107	C	0.269205	0.352638	0.333256
C108	C	0.602538	0.685972	0.666589
C109	C	-0.123531	0.018598	-0.000071
C110	C	0.209802	0.351931	0.333262
C111	C	0.543136	0.685264	0.666595
C112	C	-0.137676	0.122439	-0.000045
C113	C	0.195658	0.455773	0.333288
C114	C	0.528991	0.789106	0.666622
C115	C	-0.078279	0.123146	-0.000045
C116	C	0.255054	0.456480	0.333288
C117	C	0.588388	0.789813	0.666621
C118	C	-0.041506	0.071575	-0.000065
C119	C	0.291828	0.404908	0.333268
C120	C	0.625161	0.738242	0.666601
O121	O	0.009675	0.168390	-0.000003
O122	O	0.343008	0.501724	0.333331
O123	O	0.676342	0.835057	0.666664
O124	O	0.035904	-0.023725	-0.000114
O125	O	0.369238	0.309609	0.333219
O126	O	0.702571	0.642942	0.666553
C127	C	0.677079	-0.030005	-0.000074
C128	C	1.010412	0.303329	0.333259
C129	C	1.343745	0.636662	0.666592
C130	C	0.676314	-0.093221	-0.000083
C131	C	1.009647	0.240113	0.333250
C132	C	1.342980	0.573446	0.666584
C133	C	0.723541	-0.492330	-0.000027
C134	C	1.056875	-0.158996	0.333307
C135	C	1.390208	0.174337	0.666640
C136	C	0.722829	-0.551731	-0.000018
C137	C	1.056162	-0.218397	0.333315
C138	C	1.389496	0.114936	0.666649
O139	O	0.766611	-0.588479	0.000019
O140	O	1.099944	-0.255146	0.333352
O141	O	1.433278	0.078188	0.666685
N142	N	0.670552	-0.574357	-0.000013
N143	N	1.003885	-0.241024	0.333321
N144	N	1.337219	0.092309	0.666654
C145	C	0.618983	-0.537581	-0.000004
C146	C	0.952316	-0.204247	0.333329
C147	C	1.285650	0.129086	0.666662
O148	O	0.574452	-0.562281	0.000002
O149	O	0.907785	-0.228948	0.333335
O150	O	1.241119	0.104386	0.666669
C151	C	0.619695	-0.478182	-0.000005
C152	C	0.953028	-0.144848	0.333328
C153	C	1.286362	0.188485	0.666662
C154	C	0.671976	-0.455557	-0.000022
C155	C	1.005310	-0.122224	0.333311
C156	C	1.338643	0.211109	0.666645
C157	C	0.775818	-0.469705	-0.000042
C158	C	1.109152	-0.136371	0.333291
C159	C	1.442485	0.196962	0.666625
C160	C	0.776531	-0.410307	-0.000053
C161	C	1.109864	-0.076974	0.333280
C162	C	1.443197	0.256359	0.666614
C163	C	0.724966	-0.373535	-0.000048
C164	C	1.058299	-0.040202	0.333285
C165	C	1.391633	0.293132	0.666619
C166	C	0.672689	-0.396160	-0.000033
C167	C	1.006022	-0.062827	0.333301
C168	C	1.339355	0.270507	0.666634
C169	C	0.568126	-0.441407	0.000011
C170	C	0.901459	-0.108074	0.333345
C171	C	1.234792	0.225260	0.666678
C172	C	0.568842	-0.382004	0.000011
C173	C	0.902176	-0.048671	0.333345
C174	C	1.235509	0.284662	0.666678
C175	C	0.621124	-0.359380	-0.000005
C176	C	0.954457	-0.026047	0.333328
C177	C	1.287790	0.307287	0.666661
C178	C	0.621836	-0.299990	-0.000039
C179	C	0.955170	0.033343	0.333295
C180	C	1.288503	0.366676	0.666628
N181	N	0.674113	-0.277364	-0.000044
N182	N	1.007447	0.055970	0.333289
N183	N	1.340780	0.389303	0.666623
C184	C	0.725678	-0.314136	-0.000049
C185	C	1.059011	0.019197	0.333285
C186	C	1.392345	0.352531	0.666618
C187	C	0.617491	-0.662324	-0.000001
C188	C	0.950825	-0.328990	0.333332
C189	C	1.284158	0.004343	0.666665
C190	C	0.616779	-0.721721	-0.000009
C191	C	0.950113	-0.388387	0.333325
C192	C	1.283446	-0.055054	0.666658
C193	C	0.720625	-0.735867	-0.000020
C194	C	1.053959	-0.402534	0.333313
C195	C	1.387292	-0.069200	0.666647
C196	C	0.721337	-0.676468	-0.000021
C197	C	1.054671	-0.343134	0.333313
C198	C	1.388004	-0.009801	0.666646
C199	C	0.669768	-0.639697	-0.000007
C200	C	1.003101	-0.306364	0.333327
C201	C	1.336435	0.026970	0.666660
C202	C	0.727170	-0.189397	-0.000072
C203	C	1.060503	0.143937	0.333261
C204	C	1.393837	0.477270	0.666594
C205	C	0.727878	-0.129993	-0.000088
C206	C	1.061212	0.203340	0.333246
C207	C	1.394545	0.536674	0.666579
C208	C	0.624032	-0.115853	-0.000070
C209	C	0.957365	0.217481	0.333263
C210	C	1.290699	0.550814	0.666596
C211	C	0.623324	-0.175251	-0.000061
C212	C	0.956657	0.158083	0.333272
C213	C	1.289991	0.491416	0.666606
C214	C	0.674897	-0.212022	-0.000058
C215	C	1.008231	0.121311	0.333275
C216	C	1.341564	0.454645	0.666609
O217	O	0.578077	-0.263208	-0.000071
O218	O	0.911410	0.070126	0.333263
O219	O	1.244743	0.403459	0.666596
O220	O	0.770200	-0.289429	-0.000040
O221	O	1.103534	0.043904	0.333293
O222	O	1.436867	0.377238	0.666626
C223	C	0.776478	0.069395	-0.000060
C224	C	1.109811	0.402728	0.333274
C225	C	1.443145	0.736061	0.666607
C226	C	0.839695	0.070161	-0.000059
C227	C	1.173028	0.403494	0.333275
C228	C	1.506361	0.736827	0.666608
C229	C	0.667580	0.178286	-0.000024
C230	C	1.000913	0.511619	0.333310
C231	C	1.334246	0.844952	0.666643
C232	C	0.668344	0.241501	-0.000008
C233	C	1.001677	0.574834	0.333326
C234	C	1.335010	0.908168	0.666659
N235	N	0.702494	0.104342	-0.292940
N236	N	1.035828	0.437675	0.040393
N237	N	1.369161	0.771008	0.373727
C238	C	0.601729	0.003468	-0.648011
C239	C	0.935063	0.336802	-0.314677
C240	C	1.268396	0.670135	0.018656
C241	C	0.589534	-0.008733	-0.529681
C242	C	0.922867	0.324601	-0.196348
C243	C	1.256200	0.657934	0.136985
C244	C	0.617773	0.019535	-0.470490
C245	C	0.951106	0.352868	-0.137157
C246	C	1.284439	0.686202	0.196177
C247	C	0.658210	0.060006	-0.529640
C248	C	0.991543	0.393339	-0.196307
C249	C	1.324876	0.726672	0.137027
C250	C	0.670410	0.072205	-0.647981
C251	C	1.003743	0.405538	-0.314648
C252	C	1.337077	0.738871	0.018686
C253	C	0.686453	0.088271	-0.470460
C254	C	1.019787	0.421605	-0.137127
C255	C	1.353120	0.754938	0.196206
C256	C	0.726890	0.128742	-0.529610
C257	C	1.060224	0.462075	-0.196277
C258	C	1.393557	0.795408	0.137056
C259	C	0.739088	0.140939	-0.647940
C260	C	1.072422	0.474272	-0.314607
C261	C	1.405755	0.807606	0.018727
C262	C	0.710849	0.112671	-0.707131
C263	C	1.044183	0.446005	-0.373798
C264	C	1.377516	0.779338	-0.040464
C265	C	0.674253	0.076072	-0.352119
C266	C	1.007586	0.409406	-0.018786
C267	C	1.340920	0.742739	0.314547
C268	C	0.742934	0.144809	-0.352090
C269	C	1.076267	0.478142	-0.018757
C270	C	1.409600	0.811475	0.314577
C271	C	0.755129	0.157010	-0.470419
C272	C	1.088463	0.490343	-0.137086
C273	C	1.421796	0.823676	0.196247
N274	N	0.642169	0.043935	0.292839
N275	N	0.975502	0.377268	0.626173
N276	N	1.308835	0.710602	0.959506
H277	H	-0.034194	-0.022690	-0.000094
H278	H	0.299139	0.310644	0.333240
H279	H	0.632473	0.643977	0.666573
H280	H	0.788054	0.189962	-0.518596
H281	H	1.121387	0.523295	-0.185263
H282	H	1.454721	0.856628	0.148071
H283	H	0.762612	-0.765819	-0.000020
H284	H	1.095945	-0.432485	0.333314
H285	H	1.429278	-0.099152	0.666647
H286	H	0.526847	-0.352068	0.000025
H287	H	0.860180	-0.018734	0.333358
H288	H	1.193514	0.314599	0.666691
H289	H	0.607840	0.009599	-0.374141
H290	H	0.941173	0.342932	-0.040808
H291	H	1.274507	0.676265	0.292526
H292	H	0.556611	-0.041685	-0.481530
H293	H	0.889945	0.291648	-0.148196
H294	H	1.223278	0.624981	0.185137
C295	C	0.212745	0.235844	-0.000045
C296	C	0.546078	0.569178	0.333288
C297	C	0.879411	0.902511	0.666622
H298	H	0.253387	0.228891	-0.000035
H299	H	0.586720	0.562225	0.333298
H300	H	0.920053	0.895558	0.666632
H301	H	0.206852	0.263817	-0.065600
H302	H	0.540185	0.597151	0.267733
H303	H	0.873519	0.930484	0.601067
H304	H	0.193344	0.250299	0.065525
H305	H	0.526677	0.583632	0.398858
H306	H	0.860011	0.916965	0.732191
H307	H	-0.167628	0.164420	-0.000029
H308	H	0.165705	0.497753	0.333304
H309	H	0.499038	0.831087	0.666638
H310	H	0.578745	-0.019547	-0.696215
H311	H	0.912079	0.313787	-0.362882
H312	H	1.245412	0.647120	-0.029548
C313	C	0.724269	0.126086	-0.837295
C314	C	1.057603	0.459419	-0.503961
C315	C	1.390936	0.792752	-0.170628
H316	H	0.701661	0.103451	-0.864070
H317	H	1.034995	0.436785	-0.530736
H318	H	1.368328	0.770118	-0.197403
H319	H	0.714801	0.166438	-0.864071
H320	H	1.048134	0.499771	-0.530737
H321	H	1.381468	0.833105	-0.197404
H322	H	0.764629	0.116630	-0.864047
H323	H	1.097962	0.449963	-0.530714
H324	H	1.431296	0.783297	-0.197380
C325	C	0.559271	-0.746600	0.000000
C326	C	0.892604	-0.413267	0.333334
C327	C	1.225938	-0.079934	0.666667
H328	H	0.528665	-0.716189	0.000010
H329	H	0.861998	-0.382855	0.333344
H330	H	1.195332	-0.049522	0.666677
H331	H	0.563580	-0.762726	-0.065551
H332	H	0.896914	-0.429393	0.267782
H333	H	1.230247	-0.096059	0.601115
H334	H	0.550081	-0.776230	0.065573
H335	H	0.883415	-0.442897	0.398907
H336	H	1.216748	-0.109563	0.732240
H337	H	0.138369	-0.072627	-0.000099
H338	H	0.471702	0.260706	0.333235
H339	H	0.805036	0.594040	0.666568
C340	C	0.256620	-0.086071	-0.000091
C341	C	0.589953	0.247262	0.333242
C342	C	0.923286	0.580596	0.666575
H343	H	0.234630	-0.117301	-0.000090
H344	H	0.567963	0.216032	0.333243
H345	H	0.901297	0.549366	0.666576
H346	H	0.286844	-0.081202	-0.065642
H347	H	0.620177	0.252131	0.267691
H348	H	0.953510	0.585464	0.601025
H349	H	0.273325	-0.094714	0.065483
H350	H	0.606658	0.238619	0.398816
H351	H	0.939991	0.571953	0.732149
C352	C	0.785389	-0.105110	-0.000100
C353	C	1.118723	0.228223	0.333234
C354	C	1.452056	0.561556	0.666567
H355	H	0.815995	-0.135523	-0.000089
H356	H	1.149328	0.197811	0.333245
H357	H	1.482661	0.531144	0.666578
H358	H	0.794580	-0.075479	-0.065660
H359	H	1.127913	0.257854	0.267673
H360	H	1.461247	0.591188	0.601006
H361	H	0.781074	-0.088988	0.065464
H362	H	1.114407	0.244345	0.398798
H363	H	1.447740	0.577678	0.732131
H364	H	0.772020	0.173888	-0.696097
H365	H	1.105353	0.507221	-0.362763
H366	H	1.438686	0.840554	-0.029430
C367	C	0.088021	0.234347	-0.000048
C368	C	0.421355	0.567681	0.333285
C369	C	0.754688	0.901014	0.666618
H370	H	0.110004	0.265579	-0.000031
H371	H	0.443337	0.598913	0.333302
H372	H	0.776671	0.932246	0.666635
H373	H	0.071305	0.242991	-0.065603
H374	H	0.404639	0.576325	0.267731
H375	H	0.737972	0.909658	0.601064
H376	H	0.057804	0.229467	0.065522
H377	H	0.391138	0.562800	0.398855
H378	H	0.724471	0.896134	0.732189
H379	H	0.769166	-0.219330	-0.000066
H380	H	1.102499	0.114003	0.333268
H381	H	1.435832	0.447336	0.666601
C382	C	0.560763	-0.621878	-0.000007
C383	C	0.894097	-0.288545	0.333326
C384	C	1.227430	0.044789	0.666660
H385	H	0.529532	-0.643864	-0.000014
H386	H	0.862865	-0.310531	0.333319
H387	H	1.196199	0.022803	0.666652
H388	H	0.552125	-0.605165	0.065548
H389	H	0.885458	-0.271831	0.398881
H390	H	1.218792	0.061502	0.732214
H391	H	0.565635	-0.591658	-0.065577
H392	H	0.898968	-0.258325	0.267756
H393	H	1.232301	0.075008	0.601090
C394	C	-0.053395	0.180649	-0.000019
C395	C	0.279938	0.513983	0.333314
C396	C	0.613271	0.847316	0.666647
H397	H	-0.083806	0.211256	-0.000014
H398	H	0.249527	0.544589	0.333320
H399	H	0.582861	0.877923	0.666653
H400	H	-0.037267	0.176325	0.065535
H401	H	0.296066	0.509659	0.398869
H402	H	0.629400	0.842992	0.732202
H403	H	-0.023768	0.189849	-0.065589
H404	H	0.309566	0.523182	0.267744
H405	H	0.642899	0.856515	0.601077
H406	H	0.525552	-0.459817	0.000032
H407	H	0.858885	-0.126484	0.333365
H408	H	1.192219	0.206849	0.666698
C409	C	0.398057	-0.032375	-0.000076
C410	C	0.731391	0.300959	0.333257
C411	C	1.064724	0.634292	0.666591
H412	H	0.428471	-0.062978	-0.000088
H413	H	0.761805	0.270355	0.333245
H414	H	1.095138	0.603688	0.666579
H415	H	0.368424	-0.041574	0.065475
H416	H	0.701757	0.291759	0.398808
H417	H	1.035091	0.625092	0.732142
H418	H	0.381940	-0.028051	-0.065650
H419	H	0.715273	0.305283	0.267684
H420	H	1.048607	0.638616	0.601017
C421	C	0.773997	0.175906	-0.286992
C422	C	1.107331	0.509240	0.046341
C423	C	1.440664	0.842573	0.379674
H424	H	0.760936	0.162850	-0.208046
H425	H	1.094269	0.496183	0.125288
H426	H	1.427603	0.829516	0.458621
H427	H	0.815021	0.167126	-0.306371
H428	H	1.148355	0.500460	0.026962
H429	H	1.481688	0.833793	0.360295
H430	H	0.765188	0.216929	-0.306382
H431	H	1.098521	0.550262	0.026951
H432	H	1.431855	0.883596	0.360284
C433	C	0.834038	-0.385430	-0.000050
C434	C	1.167372	-0.052097	0.333283
C435	C	1.500705	0.281236	0.666617
H436	H	0.864640	-0.415846	-0.000038
H437	H	1.197974	-0.082512	0.333295
H438	H	1.531307	0.250821	0.666629
H439	H	0.843235	-0.355797	-0.065605
H440	H	1.176568	-0.022464	0.267728
H441	H	1.509901	0.310870	0.601062
H442	H	0.829721	-0.369313	0.065520
H443	H	1.163054	-0.035979	0.398853
H444	H	1.496388	0.297354	0.732186
H445	H	0.512286	-0.016144	-0.000056
H446	H	0.845619	0.317189	0.333277
H447	H	1.178953	0.650522	0.666611
H448	H	-0.141946	-0.023976	-0.000076
H449	H	0.191387	0.309357	0.333257
H450	H	0.524720	0.642691	0.666590
H451	H	0.763909	-0.658052	-0.000033
H452	H	1.097243	-0.324718	0.333300
H453	H	1.430576	0.008615	0.666633
C454	C	0.832543	-0.510149	-0.000045
C455	C	1.165876	-0.176815	0.333289
C456	C	1.499209	0.156518	0.666622
H457	H	0.824640	-0.548769	-0.000034
H458	H	1.157974	-0.215436	0.333299
H459	H	1.491307	0.117898	0.666633
H460	H	0.860743	-0.496560	-0.065605
H461	H	1.194076	-0.163227	0.267728
H462	H	1.527409	0.170106	0.601061
H463	H	0.847238	-0.510072	0.065519
H464	H	1.180572	-0.176739	0.398853
H465	H	1.513905	0.156594	0.732186
C466	C	0.493059	0.187187	0.000009
C467	C	0.826392	0.520521	0.333342
C468	C	1.159726	0.853854	0.666675
H469	H	0.462646	0.217792	0.000009
H470	H	0.795980	0.551126	0.333342
H471	H	1.129313	0.884459	0.666675
H472	H	0.509184	0.182867	0.065566
H473	H	0.842518	0.516201	0.398899
H474	H	1.175851	0.849534	0.732232
H475	H	0.522688	0.196387	-0.065559
H476	H	0.856021	0.529720	0.267774
H477	H	1.189354	0.863053	0.601108
C478	C	0.565816	-0.200139	-0.000040
C479	C	0.899150	0.133194	0.333293
C480	C	1.232483	0.466527	0.666627
H481	H	0.535208	-0.169730	-0.000031
H482	H	0.868541	0.163603	0.333302
H483	H	1.201875	0.496937	0.666635
H484	H	0.570124	-0.216270	-0.065585
H485	H	0.903457	0.117063	0.267749
H486	H	1.236790	0.450397	0.601082
H487	H	0.556632	-0.229766	0.065540
H488	H	0.889965	0.103567	0.398873
H489	H	1.223298	0.436901	0.732207
H490	H	0.378848	0.170966	-0.000019
H491	H	0.712181	0.504299	0.333314
H492	H	1.045514	0.837632	0.666648
H493	H	0.582050	-0.085902	-0.000071
H494	H	0.915383	0.247432	0.333263
H495	H	1.248717	0.580765	0.666596
H496	H	0.641328	0.043121	-0.303971
H497	H	0.974662	0.376455	0.029362
H498	H	1.307995	0.709788	0.362696
