data_functionalizedCrystal
_audit_creation_method	'MofGen! by Chris Wilmer'
_symmetry_space_group_name_H-M	'P1'
_symmetry_Int_Tables_number	1
_symmetry_cell_setting	triclinic
loop_
_symmetry_equiv_pos_as_xyz
  x,y,z
_cell_length_a	14.971482
_cell_length_b	16.974813
_cell_length_c	13.448316
_cell_angle_alpha	86.338833
_cell_angle_beta	89.993798
_cell_angle_gamma	83.503742
loop_
_atom_site_label
_atom_site_type_symbol
_atom_site_fract_x
_atom_site_fract_y
_atom_site_fract_z
O1	O	1.186698	0.103029	-0.090968
O2	O	0.926268	0.115372	-0.091966
O3	O	1.063743	-0.005896	-0.082200
O4	O	1.049223	0.224297	-0.100734
O5	O	1.063726	-0.005904	0.083184
O6	O	0.926251	0.115364	0.073418
O7	O	1.186681	0.103022	0.074416
Cu8	Cu	1.056464	0.109192	0.089018
Cu9	Cu	1.056485	0.109201	-0.106568
O10	O	1.049206	0.224290	0.064650
C11	C	0.892936	0.114817	-0.009230
C12	C	0.793643	0.113164	-0.009099
C13	C	0.746990	0.112382	0.081116
C14	C	0.653696	0.110816	0.081243
C15	C	0.607054	0.110039	-0.008846
C16	C	0.653713	0.110819	-0.099068
C17	C	0.747007	0.112379	-0.099193
C18	C	0.459259	0.107570	-0.098800
C19	C	0.365959	0.106012	-0.098675
C20	C	0.365948	0.106008	0.081637
C21	C	0.459242	0.107567	0.081511
C22	C	0.505894	0.108349	-0.008711
C23	C	1.063182	-0.035359	0.002862
C24	C	1.061525	-0.123138	0.009922
C25	C	1.060758	-0.164368	-0.076911
C26	C	1.059195	-0.246844	-0.070273
C27	C	1.058406	-0.288090	0.023199
C28	C	1.059170	-0.246854	0.110038
C29	C	1.060727	-0.164378	0.103400
C30	C	1.053745	-0.534757	0.052720
C31	C	1.052191	-0.617239	0.059352
C32	C	1.052214	-0.617223	-0.120960
C33	C	1.053776	-0.534746	-0.127590
C34	C	1.054536	-0.493517	-0.040751
N35	N	1.056812	-0.372395	0.029985
N36	N	1.056124	-0.409213	-0.047539
C37	C	1.220013	0.103577	-0.008322
C38	C	1.319307	0.105229	-0.008460
C39	C	1.049767	0.253753	-0.020414
C40	C	1.051424	0.341531	-0.027481
N41	N	1.056457	0.109186	0.226583
N42	N	1.056500	0.109202	-0.244132
C43	C	1.117349	0.055510	0.282946
C44	C	1.117355	0.055510	0.387049
C45	C	1.056471	0.109189	0.434787
C46	C	0.995572	0.162867	0.378417
C47	C	0.995563	0.162863	0.274316
C48	C	0.995597	0.162872	0.595397
C49	C	0.995607	0.162877	0.699505
C50	C	1.117389	0.055519	0.708130
C51	C	1.117380	0.055515	0.604029
C52	C	1.056481	0.109194	0.547666
H53	H	0.615731	0.110181	-0.172419
C54	C	1.184351	-0.003530	0.551511
C55	C	1.182970	-0.093575	0.573078
C56	C	1.249939	-0.152622	0.520559
C57	C	1.318290	-0.121624	0.446473
C58	C	1.319674	-0.031574	0.424903
C59	C	1.252704	0.027473	0.477422
H60	H	1.132370	-0.116526	0.627924
H61	H	1.248914	-0.219283	0.536528
H62	H	1.367865	-0.165333	0.407596
H63	H	1.370274	-0.008623	0.370057
H64	H	1.253729	0.094134	0.461453
C65	C	1.054643	-0.489378	-0.230411
C66	C	1.056360	-0.398658	-0.237715
C67	C	1.057232	-0.353290	-0.340537
C68	C	1.056387	-0.398642	-0.436055
C69	C	1.054670	-0.489367	-0.428754
C70	C	1.053798	-0.534735	-0.325933
H71	H	1.056985	-0.365082	-0.167004
H72	H	1.058503	-0.286130	-0.345941
H73	H	1.057033	-0.365058	-0.512170
H74	H	1.054045	-0.522943	-0.499466
H75	H	1.052527	-0.601895	-0.320529
H76	H	1.061339	-0.130808	0.174108
C77	C	1.054599	-0.489418	0.148245
C78	C	0.976755	-0.491867	0.222828
C79	C	0.977615	-0.446528	0.318361
C80	C	1.056319	-0.398740	0.339310
C81	C	1.134169	-0.396289	0.264726
C82	C	1.133309	-0.441628	0.169193
H83	H	0.918488	-0.527245	0.207322
H84	H	0.919986	-0.448342	0.373573
H85	H	1.056956	-0.365177	0.410029
H86	H	1.192436	-0.360911	0.280232
H87	H	1.190939	-0.439814	0.113981
H88	H	1.166938	0.011802	0.432940
H89	H	0.327959	0.105372	0.155099
H90	H	1.058574	-0.280411	-0.140982
H91	H	0.497214	0.108205	0.154869
C92	C	1.051367	-0.662576	-0.216478
C93	C	1.127927	-0.728182	-0.235998
C94	C	1.127074	-0.773535	-0.331520
C95	C	1.049661	-0.753281	-0.407523
C96	C	0.973095	-0.687671	-0.388006
C97	C	0.973948	-0.642319	-0.292483
H98	H	1.185238	-0.743179	-0.179734
H99	H	1.183754	-0.822104	-0.345968
H100	H	1.049029	-0.786853	-0.478235
H101	H	0.915784	-0.672675	-0.444270
H102	H	0.917268	-0.593750	-0.278036
C103	C	0.510580	0.108436	-0.198043
C104	C	0.584969	0.040906	-0.217407
C105	C	0.636291	0.041778	-0.316647
C106	C	0.613224	0.110181	-0.396522
C107	C	0.538832	0.177716	-0.377159
C108	C	0.487510	0.176843	-0.277920
H109	H	0.602048	-0.009735	-0.158277
H110	H	0.691361	-0.008216	-0.330980
H111	H	0.651216	0.110826	-0.469985
H112	H	0.521753	0.228356	-0.436290
H113	H	0.432439	0.226838	-0.263587
H114	H	0.784958	0.113021	0.154477
C115	C	1.061626	-0.119001	-0.179732
C116	C	1.140331	-0.071206	-0.208378
C117	C	1.141195	-0.025841	-0.311202
C118	C	1.063355	-0.028270	-0.385381
C119	C	0.984644	-0.076067	-0.356737
C120	C	0.983779	-0.121432	-0.253913
H121	H	1.197958	-0.069406	-0.153464
H122	H	1.199463	0.009541	-0.332405
H123	H	1.063995	0.005312	-0.461498
H124	H	0.927016	-0.077867	-0.411651
H125	H	0.925512	-0.156814	-0.232710
H126	H	1.058522	-0.280442	0.186145
H127	H	1.166931	0.011802	0.244085
H128	H	1.166974	0.011811	0.754027
H129	H	0.327985	0.105380	-0.172033
C130	C	0.928628	0.221921	0.752014
C131	C	0.861636	0.280955	0.690015
C132	C	0.794655	0.340000	0.742522
C133	C	0.794664	0.340009	0.857028
C134	C	0.861658	0.280972	0.919035
C135	C	0.928640	0.221928	0.866527
H136	H	0.861627	0.280950	0.605244
H137	H	0.745062	0.383703	0.696620
H138	H	0.745081	0.383717	0.895897
H139	H	0.861667	0.280977	1.003805
H140	H	0.978233	0.178225	0.912429
C141	C	0.798329	0.113242	-0.198431
C142	C	0.795754	0.044423	-0.267265
C143	C	0.847076	0.045283	-0.366505
C144	C	0.900973	0.114961	-0.396910
C145	C	0.903550	0.183785	-0.328074
C146	C	0.852228	0.182925	-0.228834
H147	H	0.755854	-0.007161	-0.244759
H148	H	0.845167	-0.005666	-0.417461
H149	H	0.938965	0.115597	-0.470373
H150	H	0.943450	0.235369	-0.350580
H151	H	0.854136	0.233874	-0.177878
H152	H	1.051544	-0.650818	0.135472
H153	H	0.615718	0.110166	0.154706
H154	H	0.946004	0.206581	0.549509
H155	H	0.945995	0.206571	0.417292
H156	H	0.945977	0.206570	0.228426
