data_functionalizedCrystal
_audit_creation_method	'MofGen! by Chris Wilmer'
_symmetry_space_group_name_H-M	'P1'
_symmetry_Int_Tables_number	1
_symmetry_cell_setting	triclinic
loop_
_symmetry_equiv_pos_as_xyz
  x,y,z
_cell_length_a	11.792241
_cell_length_b	14.853567
_cell_length_c	13.930277
_cell_angle_alpha	90.000757
_cell_angle_beta	89.993653
_cell_angle_gamma	96.085827
loop_
_atom_site_label
_atom_site_type_symbol
_atom_site_fract_x
_atom_site_fract_y
_atom_site_fract_z
O1	O	1.506151	-0.123567	-0.079803
O2	O	1.175731	-0.136302	-0.079808
O3	O	1.349767	0.001261	-0.079809
O4	O	1.332115	-0.261130	-0.079803
O5	O	1.349743	0.001264	0.079853
O6	O	1.175707	-0.136299	0.079853
O7	O	1.506127	-0.123564	0.079859
Zn8	Zn	1.340913	-0.129931	0.105206
Zn9	Zn	1.340945	-0.129935	-0.105156
O10	O	1.332091	-0.261127	0.079859
C11	C	1.133433	-0.135501	0.000022
C12	C	1.007434	-0.133106	0.000019
C13	C	1.548425	-0.124366	0.000026
C14	C	1.674424	-0.126760	0.000022
N15	N	1.340900	-0.129928	0.248772
C16	C	1.905109	-0.131163	0.000023
C17	C	1.776739	-0.128717	0.000023
C18	C	1.348955	0.034854	0.000020
C19	C	1.346558	0.134947	0.000011
C20	C	1.332903	-0.294720	0.000029
C21	C	1.335300	-0.394813	0.000031
C22	C	1.233045	0.547923	0.000028
C23	C	1.439804	0.568399	0.000031
C24	C	1.442058	0.474356	0.000025
C25	C	1.339804	0.417093	0.000022
C26	C	1.235296	0.453871	0.000025
C27	C	1.546563	0.437570	0.000032
C28	C	1.548821	0.343522	0.000028
C29	C	1.446566	0.286257	0.000018
C30	C	1.342054	0.323041	0.000020
C31	C	1.239800	0.265777	0.000017
C32	C	1.135287	0.302560	0.000011
C33	C	1.133041	0.396606	0.000015
C34	C	1.448812	0.192211	0.000014
C35	C	1.242051	0.171726	0.000014
N36	N	1.340967	-0.129931	-0.248722
C37	C	1.263879	-0.190824	0.701041
C38	C	1.418042	-0.069040	0.701010
C39	C	1.418029	-0.069037	0.600515
C40	C	1.340940	-0.129929	0.550278
C41	C	1.263865	-0.190825	0.600536
C42	C	1.495110	-0.008148	0.550249
C43	C	1.495100	-0.008144	0.449747
C44	C	1.418006	-0.069033	0.399508
C45	C	1.340927	-0.129930	0.449773
C46	C	1.263838	-0.190823	0.399535
C47	C	1.186753	-0.251716	0.449798
C48	C	1.186770	-0.251714	0.550297
C49	C	1.417988	-0.069035	0.299009
C50	C	1.263824	-0.190823	0.299030
H51	H	1.158782	0.125107	0.000007
Br52	Br	0.991215	0.446530	0.000002
Br53	Br	1.522606	0.013592	0.230801
H54	H	1.147953	0.577875	0.000020
Br55	Br	0.996519	0.224834	0.000020
H56	H	1.557866	0.041439	0.408829
H57	H	1.557879	0.041424	0.591155
Br58	Br	1.082164	-0.334350	0.618512
H59	H	1.523054	0.615028	0.000041
H60	H	1.629813	0.484201	0.000044
H61	H	1.123991	-0.301300	0.408884
Br62	Br	1.590639	0.142294	0.000044
H63	H	1.633922	0.313583	0.000031
Br64	Br	1.159260	-0.273457	0.769248
H65	H	1.201045	-0.240407	0.258133
Br66	Br	1.522670	0.013590	0.769185
