data_functionalizedCrystal
_audit_creation_method	'MofGen! by Chris Wilmer'
_symmetry_space_group_name_H-M	'P1'
_symmetry_Int_Tables_number	1
_symmetry_cell_setting	triclinic
loop_
_symmetry_equiv_pos_as_xyz
  x,y,z
_cell_length_a	15.995350
_cell_length_b	16.992695
_cell_length_c	16.053802
_cell_angle_alpha	87.249318
_cell_angle_beta	87.418149
_cell_angle_gamma	92.919701
loop_
_atom_site_label
_atom_site_type_symbol
_atom_site_fract_x
_atom_site_fract_y
_atom_site_fract_z
O1	O	1.114433	-0.104367	0.069360
O2	O	1.447766	0.228967	0.402693
O3	O	1.781100	0.562300	0.736026
O4	O	0.871492	-0.116848	0.069377
O5	O	1.204825	0.216485	0.402710
O6	O	1.538159	0.549819	0.736044
O7	O	0.991989	0.003536	0.069362
O8	O	1.325322	0.336869	0.402695
O9	O	1.658656	0.670202	0.736028
O10	O	0.993936	-0.224750	0.069375
O11	O	1.327270	0.108583	0.402708
O12	O	1.660603	0.441916	0.736041
O13	O	0.998615	0.010142	-0.069498
O14	O	1.331948	0.343475	0.263835
O15	O	1.665282	0.676808	0.597169
O16	O	0.878118	-0.110242	-0.069483
O17	O	1.211451	0.223091	0.263850
O18	O	1.544785	0.556425	0.597184
O19	O	1.121059	-0.097760	-0.069500
O20	O	1.454392	0.235573	0.263833
O21	O	1.787726	0.568906	0.597167
Zn22	Zn	1.000641	-0.102952	-0.091538
Zn23	Zn	1.333974	0.230381	0.241795
Zn24	Zn	1.667307	0.563714	0.575128
Zn25	Zn	0.991911	-0.111656	0.091415
Zn26	Zn	1.325244	0.221677	0.424749
Zn27	Zn	1.658577	0.555010	0.758082
O28	O	1.000562	-0.218144	-0.069485
O29	O	1.333896	0.115189	0.263848
O30	O	1.667229	0.448523	0.597182
C31	C	0.843576	-0.113029	-0.000051
C32	C	1.176909	0.220304	0.333282
C33	C	1.510242	0.553638	0.666616
C34	C	0.750522	-0.111483	-0.000044
C35	C	1.083855	0.221851	0.333289
C36	C	1.417188	0.555184	0.666622
C37	C	0.992796	0.036051	-0.000068
C38	C	1.326130	0.369385	0.333265
C39	C	1.659463	0.702718	0.666599
C40	C	0.985320	0.123095	-0.000067
C41	C	1.318653	0.456429	0.333266
C42	C	1.651987	0.789762	0.666600
N43	N	0.985953	-0.117591	0.216276
N44	N	1.319286	0.215743	0.549610
N45	N	1.652619	0.549076	0.882943
C46	C	0.412403	-0.105926	-0.000062
C47	C	0.745736	0.227407	0.333271
C48	C	1.079070	0.560740	0.666605
C49	C	0.454115	-0.020177	-0.000377
C50	C	0.787449	0.313156	0.332957
C51	C	1.120782	0.646490	0.666290
C52	C	0.550894	-0.021739	-0.000058
C53	C	0.884227	0.311594	0.333275
C54	C	1.217561	0.644927	0.666609
C55	C	0.580148	-0.108682	-0.000054
C56	C	0.913481	0.224651	0.333280
C57	C	1.246814	0.557984	0.666613
C58	C	0.538106	-0.154742	0.079241
C59	C	0.871440	0.178591	0.412574
C60	C	1.204773	0.511925	0.745908
C61	C	0.441324	-0.152591	0.079301
C62	C	0.774657	0.180742	0.412635
C63	C	1.107990	0.514076	0.745968
C64	C	0.448638	-0.146850	-0.078608
C65	C	0.781972	0.186483	0.254725
C66	C	1.115305	0.519817	0.588059
C67	C	0.545632	-0.146780	-0.079650
C68	C	0.878965	0.186553	0.253683
C69	C	1.212299	0.519887	0.587017
C70	C	0.674949	-0.110245	-0.000046
C71	C	1.008283	0.223089	0.333287
C72	C	1.341616	0.556422	0.666620
C73	C	0.317601	-0.104367	-0.000064
C74	C	0.650934	0.228966	0.333269
C75	C	0.984268	0.562300	0.666603
C76	C	1.148975	-0.101579	-0.000071
C77	C	1.482309	0.231754	0.333263
C78	C	1.815642	0.565087	0.666596
C79	C	1.242029	-0.103126	-0.000072
C80	C	1.575363	0.230207	0.333262
C81	C	1.908696	0.563540	0.666595
C82	C	0.999755	-0.250660	-0.000054
C83	C	1.333088	0.082673	0.333280
C84	C	1.666421	0.416007	0.666613
C85	C	1.007231	-0.337704	-0.000049
C86	C	1.340564	-0.004371	0.333285
C87	C	1.673897	0.328962	0.666618
C88	C	1.057456	0.173336	-0.000073
C89	C	1.390789	0.506669	0.333260
C90	C	1.724122	0.840003	0.666594
C91	C	1.050426	0.255122	-0.000065
C92	C	1.383759	0.588456	0.333269
C93	C	1.717092	0.921789	0.666602
C94	C	0.971259	0.286666	-0.000056
C95	C	1.304593	0.620000	0.333277
C96	C	1.637926	0.953333	0.666610
C97	C	0.899118	0.236419	-0.000048
C98	C	1.232452	0.569753	0.333286
C99	C	1.565785	0.903086	0.666619
C100	C	0.906149	0.154634	-0.000050
C101	C	1.239482	0.487968	0.333283
C102	C	1.572816	0.821301	0.666616
C103	C	0.942120	0.530264	-0.000043
C104	C	1.275454	0.863597	0.333291
C105	C	1.608787	1.196930	0.666624
C106	C	0.935095	0.612055	-0.000043
C107	C	1.268429	0.945388	0.333291
C108	C	1.601762	1.278722	0.666624
C109	C	1.086403	0.630752	-0.000058
C110	C	1.419737	0.964086	0.333275
C111	C	1.753070	1.297419	0.666608
C112	C	1.093427	0.548965	-0.000066
C113	C	1.426760	0.882299	0.333268
C114	C	1.760094	1.215632	0.666601
C115	C	1.021286	0.498725	-0.000053
C116	C	1.354619	0.832058	0.333281
C117	C	1.687952	1.165392	0.666614
N118	N	0.964072	0.370265	-0.000050
N119	N	1.297405	0.703598	0.333283
N120	N	1.630738	1.036932	0.666616
N121	N	1.028474	0.415128	-0.000053
N122	N	1.361807	0.748461	0.333281
N123	N	1.695140	1.081795	0.666614
N124	N	1.006605	-0.097012	-0.216400
N125	N	1.339938	0.236322	0.116934
N126	N	1.673271	0.569655	0.450267
C127	C	1.037336	-0.066465	0.259964
C128	C	1.370669	0.266868	0.593297
C129	C	1.704002	0.600201	0.926630
C130	C	1.033166	-0.070615	0.347371
C131	C	1.366499	0.262718	0.680704
C132	C	1.699833	0.596052	1.014038
C133	C	0.977609	-0.125887	0.391089
C134	C	1.310942	0.207446	0.724423
C135	C	1.644275	0.540780	1.057756
C136	C	0.926224	-0.177018	0.347396
C137	C	1.259557	0.156316	0.680729
C138	C	1.592890	0.489649	1.014062
C139	C	0.930398	-0.172871	0.259990
C140	C	1.263731	0.160462	0.593323
C141	C	1.597065	0.493795	0.926657
C142	C	0.959394	-0.143996	0.652501
C143	C	1.292727	0.189337	0.985835
C144	C	1.626061	0.522671	1.319168
C145	C	0.955222	-0.148137	0.739913
C146	C	1.288555	0.185196	1.073246
C147	C	1.621888	0.518530	1.406580
C148	C	1.062166	-0.041735	0.739882
C149	C	1.395499	0.291599	1.073216
C150	C	1.728833	0.624932	1.406549
C151	C	1.066332	-0.037590	0.652475
C152	C	1.399665	0.295743	0.985808
C153	C	1.732998	0.629077	1.319142
C154	C	1.014950	-0.088724	0.608789
C155	C	1.348283	0.244610	0.942122
C156	C	1.681617	0.577943	1.275456
N157	N	0.973343	-0.130128	0.480434
N158	N	1.306677	0.203205	0.813767
N159	N	1.640010	0.536538	1.147100
N160	N	1.019220	-0.084485	0.519446
N161	N	1.352553	0.248848	0.852780
N162	N	1.685887	0.582181	1.186113
H163	H	0.579811	0.014205	-0.056900
H164	H	0.913144	0.347538	0.276433
H165	H	1.246478	0.680872	0.609767
Cl166	Cl	1.156984	0.133690	-0.000092
Cl167	Cl	1.490318	0.467023	0.333241
Cl168	Cl	1.823651	0.800356	0.666574
H169	H	0.418123	-0.124573	0.138573
H170	H	0.751457	0.208760	0.471907
H171	H	1.084790	0.542093	0.805240
H172	H	0.421132	-0.210036	-0.079141
H173	H	0.754465	0.123297	0.254192
H174	H	1.087799	0.456631	0.587525
H175	H	1.157892	0.523289	-0.000073
H176	H	1.491226	0.856622	0.333261
H177	H	1.824559	1.189955	0.666594
Cl178	Cl	0.586235	0.025512	0.088000
Cl179	Cl	0.919568	0.358845	0.421333
Cl180	Cl	1.252901	0.692178	0.754667
Cl181	Cl	0.865802	-0.237150	0.205069
Cl182	Cl	1.199135	0.096184	0.538403
Cl183	Cl	1.532469	0.429517	0.871736
H184	H	1.104000	-0.000105	0.775459
H185	H	1.437333	0.333228	1.108793
H186	H	1.770666	0.666562	1.442126
H187	H	1.145136	0.671666	-0.000067
H188	H	1.478470	1.005000	0.333266
H189	H	1.811803	1.338333	0.666600
Cl190	Cl	0.835565	0.651709	-0.000037
Cl191	Cl	1.168898	0.985042	0.333296
Cl192	Cl	1.502231	1.318376	0.666630
Cl193	Cl	0.851427	0.467115	-0.000024
Cl194	Cl	1.184760	0.800448	0.333309
Cl195	Cl	1.518094	1.133781	0.666642
Cl196	Cl	0.799594	0.276074	-0.000027
Cl197	Cl	1.132927	0.609408	0.333306
Cl198	Cl	1.466261	0.942741	0.666640
Cl199	Cl	0.815460	0.091474	-0.000040
Cl200	Cl	1.148793	0.424807	0.333294
Cl201	Cl	1.482127	0.758140	0.666627
H202	H	0.909977	-0.193148	0.775504
H203	H	1.243310	0.140185	1.108838
H204	H	1.576643	0.473518	1.442171
H205	H	0.429541	0.011245	0.056171
H206	H	0.762874	0.344579	0.389505
H207	H	1.096207	0.677912	0.722838
Cl208	Cl	0.894798	-0.208273	0.597587
Cl209	Cl	1.228131	0.125060	0.930921
Cl210	Cl	1.561465	0.458393	1.264254
Cl211	Cl	0.397768	-0.250035	0.084864
Cl212	Cl	0.731101	0.083299	0.418197
Cl213	Cl	1.064434	0.416632	0.751531
Cl214	Cl	0.856383	-0.246508	0.402354
Cl215	Cl	1.189716	0.086826	0.735687
Cl216	Cl	1.523049	0.420159	1.069020
H217	H	1.082573	-0.021454	0.224374
H218	H	1.415906	0.311880	0.557707
H219	H	1.749239	0.645213	0.891041
H220	H	0.436014	0.016799	-0.057242
H221	H	0.769347	0.350132	0.276091
H222	H	1.102680	0.683465	0.609424
H223	H	0.556365	-0.218757	0.082192
H224	H	0.889698	0.114576	0.415526
H225	H	1.223031	0.447909	0.748859
H226	H	0.561700	-0.128179	0.138251
H227	H	0.895033	0.205155	0.471584
H228	H	1.228366	0.538488	0.804918
H229	H	0.429095	-0.115962	-0.138711
H230	H	0.762429	0.217371	0.194622
H231	H	1.095762	0.550705	0.527955
H232	H	0.573682	-0.113120	-0.138312
H233	H	0.907016	0.220213	0.195021
H234	H	1.240349	0.553547	0.528354
H235	H	0.565468	-0.209954	-0.084437
H236	H	0.898801	0.123379	0.248897
H237	H	1.232135	0.456713	0.582230
H238	H	1.075007	-0.028985	0.382941
H239	H	1.408340	0.304348	0.716274
H240	H	1.741673	0.637682	1.049608
Cl241	Cl	1.136175	0.031896	0.597515
Cl242	Cl	1.469508	0.365230	0.930848
Cl243	Cl	1.802842	0.698563	1.264181
H244	H	1.109166	0.296026	-0.000071
H245	H	1.442500	0.629359	0.333262
H246	H	1.775833	0.962692	0.666595
