data_functionalizedCrystal
_audit_creation_method	'MofGen! by Chris Wilmer'
_symmetry_space_group_name_H-M	'P1'
_symmetry_Int_Tables_number	1
_symmetry_cell_setting	triclinic
loop_
_symmetry_equiv_pos_as_xyz
  x,y,z
_cell_length_a	12.759401
_cell_length_b	15.297327
_cell_length_c	12.759393
_cell_angle_alpha	99.642973
_cell_angle_beta	89.979062
_cell_angle_gamma	99.708126
loop_
_atom_site_label
_atom_site_type_symbol
_atom_site_fract_x
_atom_site_fract_y
_atom_site_fract_z
Zn1	Zn	1.533815	-0.359082	-0.666329
Zn2	Zn	1.503263	-0.509967	-0.521034
Zn3	Zn	1.358104	-0.359130	-0.490674
Zn4	Zn	1.327675	-0.509904	-0.696658
O5	O	1.430714	-0.434521	-0.593674
O6	O	1.676782	-0.379103	-0.647069
O7	O	1.483956	-0.490005	-0.369995
O8	O	1.406934	-0.232878	-0.488577
O9	O	1.654335	-0.489958	-0.540320
O10	O	1.536028	-0.232842	-0.617630
O11	O	1.377308	-0.379185	-0.347690
O12	O	1.207048	-0.379124	-0.517986
O13	O	1.355072	-0.489851	-0.839647
O14	O	1.184692	-0.489898	-0.669321
O15	O	1.506522	-0.379042	-0.817364
O16	O	1.454449	-0.636205	-0.569729
O17	O	1.325446	-0.636159	-0.698760
C18	C	1.157749	-0.434510	-0.593651
C19	C	1.040969	-0.434527	-0.593670
C20	C	0.974476	-0.492294	-0.672383
C21	C	0.864751	-0.492298	-0.672404
C22	C	0.888023	-0.376764	-0.514991
C23	C	0.997747	-0.376756	-0.514975
C24	C	1.383359	-0.668916	-0.640853
C25	C	1.363196	-0.769191	-0.661071
C26	C	1.575254	-1.051821	-0.449528
C27	C	1.594198	-0.957608	-0.430526
C28	C	1.536449	-0.910499	-0.488161
C29	C	1.459753	-0.957613	-0.564800
C30	C	1.440802	-1.051836	-0.583798
C31	C	1.401997	-0.910513	-0.622431
C32	C	1.325301	-0.957627	-0.699071
C33	C	1.306354	-1.051841	-0.718065
C34	C	1.364103	-1.098950	-0.660430
C35	C	1.420948	-0.816291	-0.603434
C36	C	1.286496	-0.816305	-0.737704
C37	C	1.267553	-0.910519	-0.756705
C38	C	1.704745	-0.434533	-0.593698
C39	C	1.821521	-0.434538	-0.593708
C40	C	1.430810	-0.434434	-0.867690
C41	C	1.430851	-0.434397	-0.984459
C42	C	1.478284	-0.199211	-0.546334
C43	C	1.498555	-0.098935	-0.526160
C44	C	1.509719	-0.376690	-1.027719
C45	C	1.509744	-0.376651	-1.137435
C46	C	1.352031	-0.492035	-1.160625
C47	C	1.352002	-0.492068	-1.050909
C48	C	1.430692	-0.434542	-0.320711
C49	C	1.430906	-0.434325	-0.203891
H50	H	1.051889	-0.329710	-0.450877
O51	O	1.594803	-0.314398	-1.184086
H52	H	1.581570	-0.324049	-1.271540
H53	H	1.009664	-0.539333	-0.736464
H54	H	0.852817	-0.329730	-0.450919
O55	O	1.266992	-0.554233	-1.232301
H56	H	1.270679	-0.625047	-1.225485
O57	O	1.637527	-1.102647	-0.387388
H58	H	1.623171	-1.084648	-0.301281
H59	H	1.348686	-1.175666	-0.675900
O60	O	1.266910	-0.554286	-1.004234
H61	H	1.212085	-0.594383	-1.068871
H62	H	1.239470	-0.777950	-0.784633
O63	O	0.793009	-0.554704	-0.757203
H64	H	0.841495	-0.594911	-0.811880
H65	H	1.483394	-0.777939	-0.541033
O66	O	1.556885	-0.808883	-0.467683
H67	H	1.619926	-0.784035	-0.404717
H68	H	1.656642	-0.919251	-0.368126
O69	O	1.223629	-1.102662	-0.800718
H70	H	1.186661	-1.054080	-0.837611
O71	O	1.184818	-0.961344	-0.839347
H72	H	1.223190	-1.004211	-0.901475
H73	H	1.573921	-0.329728	-0.973617
