data_functionalizedCrystal
_audit_creation_method	'MofGen! by Chris Wilmer'
_symmetry_space_group_name_H-M	'P1'
_symmetry_Int_Tables_number	1
_symmetry_cell_setting	triclinic
loop_
_symmetry_equiv_pos_as_xyz
  x,y,z
_cell_length_a	10.685980
_cell_length_b	29.839131
_cell_length_c	10.686551
_cell_angle_alpha	94.418204
_cell_angle_beta	98.408259
_cell_angle_gamma	94.400858
loop_
_atom_site_label
_atom_site_type_symbol
_atom_site_fract_x
_atom_site_fract_y
_atom_site_fract_z
Zn1	Zn	1.995682	-0.100700	0.866627
Zn2	Zn	1.979174	-0.182090	0.654301
Zn3	Zn	1.767096	-0.113204	0.638082
Zn4	Zn	1.783297	-0.182047	0.850212
O5	O	1.881312	-0.144510	0.752305
O6	O	2.171131	-0.106282	0.852119
O7	O	1.937352	-0.178204	0.474514
O8	O	1.797547	-0.048673	0.668481
O9	O	2.159003	-0.166079	0.696124
O10	O	1.965488	-0.039486	0.836392
O11	O	1.781539	-0.127594	0.462597
O12	O	1.591606	-0.127551	0.652564
O13	O	1.825160	-0.166004	1.030025
O14	O	1.603509	-0.178129	0.808414
O15	O	1.981198	-0.106239	1.042085
O16	O	1.953062	-0.244957	0.680207
O17	O	1.809152	-0.244925	0.824142
C18	C	1.551498	-0.154193	0.726948
C19	C	1.410404	-0.158345	0.716131
C20	C	1.881110	-0.261242	0.752184
C21	C	1.881143	-0.311175	0.752183
C22	C	1.968750	-0.615989	0.839851
C23	C	1.968894	-0.803656	0.839938
O24	O	2.043185	-0.823823	0.914383
N25	N	1.881539	-0.831942	0.752463
C26	C	1.794136	-0.813308	0.664965
O27	O	1.719829	-0.841673	0.590573
C28	C	1.793987	-0.625643	0.664885
C29	C	1.881357	-0.597359	0.752358
C30	C	2.056112	-0.587706	0.927317
C31	C	2.056080	-0.540792	0.927290
C32	C	1.968686	-0.522162	0.839797
C33	C	1.881324	-0.550445	0.752331
C34	C	1.706579	-0.607010	0.577395
C35	C	1.706548	-0.560090	0.577385
C36	C	1.793917	-0.531806	0.664857
C37	C	1.793898	-0.484901	0.664810
N38	N	1.881254	-0.456615	0.752285
C39	C	1.968648	-0.475245	0.839779
C40	C	1.794221	-0.911835	0.665012
C41	C	1.794260	-0.958752	0.665030
C42	C	1.969017	-0.949096	0.840005
C43	C	1.968984	-0.902179	0.839979
C44	C	1.881577	-0.883550	0.752487
C45	C	1.968574	-0.376723	0.839714
C46	C	1.968537	-0.329806	0.839676
C47	C	1.793776	-0.339466	0.664707
C48	C	1.793817	-0.386379	0.664740
C49	C	1.881220	-0.405006	0.752254
O50	O	1.719637	-0.464703	0.590414
O51	O	2.042924	-0.446873	0.914178
C52	C	1.968783	-0.662903	0.839878
C53	C	1.881421	-0.691186	0.752412
C54	C	1.794027	-0.672556	0.664919
C55	C	1.881460	-0.738103	0.752430
C56	C	1.968853	-0.756733	0.839923
C57	C	2.056209	-0.728447	0.927399
C58	C	2.056176	-0.681534	0.927371
C59	C	1.706672	-0.700842	0.577444
C60	C	1.706712	-0.747755	0.577477
C61	C	1.794106	-0.766386	0.664970
C62	C	2.212415	-0.134790	0.777762
C63	C	2.353511	-0.130648	0.788610
C64	C	1.906828	-0.134722	1.083402
C65	C	1.917701	-0.130551	1.224496
C66	C	1.881552	-0.027321	0.752458
C67	C	1.881654	0.022618	0.752523
C68	C	1.855969	-0.154226	0.422502
C69	C	1.845342	-0.158263	0.281428
H70	H	2.039688	-0.306778	0.910907
H71	H	1.351165	-0.185236	0.645791
Cl72	Cl	2.078458	-0.400133	0.949730
H73	H	1.775078	-0.185181	1.222230
Cl74	Cl	2.026207	-0.088993	1.315897
Cl75	Cl	2.165990	-0.611118	1.037328
Cl76	Cl	1.444956	-0.089129	0.897195
Cl77	Cl	2.165912	-0.505242	1.037272
H78	H	1.722683	-0.409409	0.593503
Cl79	Cl	1.684435	-0.994303	0.555044
H80	H	2.040127	-0.879153	0.911207
Cl81	Cl	2.078882	-0.972526	0.949997
H82	H	1.635434	-0.630031	0.506165
Cl83	Cl	1.684324	-0.888423	0.555012
Cl84	Cl	1.596658	-0.536674	0.467386
H85	H	1.722625	-0.324289	0.593467
Cl86	Cl	1.596788	-0.677429	0.467445
Cl87	Cl	2.166077	-0.751878	1.037386
Cl88	Cl	1.596869	-0.783307	0.467495
Cl89	Cl	2.166016	-0.645983	1.037346
