data_functionalizedCrystal
_audit_creation_method	'MofGen! by Chris Wilmer'
_symmetry_space_group_name_H-M	'P1'
_symmetry_Int_Tables_number	1
_symmetry_cell_setting	triclinic
loop_
_symmetry_equiv_pos_as_xyz
  x,y,z
_cell_length_a	19.077105
_cell_length_b	16.120297
_cell_length_c	19.077068
_cell_angle_alpha	84.954538
_cell_angle_beta	89.884684
_cell_angle_gamma	90.698250
loop_
_atom_site_label
_atom_site_type_symbol
_atom_site_fract_x
_atom_site_fract_y
_atom_site_fract_z
Zn1	Zn	1.039111	-0.537165	0.345030
Zn2	Zn	1.040256	-0.403129	0.457037
Zn3	Zn	0.928057	-0.391983	0.334365
Zn4	Zn	0.916868	-0.536664	0.457751
O5	O	0.981073	-0.467235	0.398546
O6	O	1.137378	-0.524259	0.364052
O7	O	1.030535	-0.285007	0.436002
O8	O	0.946992	-0.406787	0.237267
O9	O	1.138219	-0.425784	0.446343
O10	O	1.028583	-0.513451	0.245102
O11	O	0.948102	-0.276818	0.345876
O12	O	0.828458	-0.406302	0.346568
O13	O	0.927922	-0.653374	0.447560
O14	O	0.820238	-0.512598	0.437219
O15	O	1.017733	-0.653742	0.364745
O16	O	1.019685	-0.425298	0.555644
O17	O	0.929033	-0.523405	0.556169
C18	C	0.798908	-0.458186	0.390814
C19	C	0.720975	-0.454336	0.387524
C20	C	0.971452	-0.684648	0.407422
C21	C	0.967352	-0.777297	0.411204
C22	C	0.680101	-0.507789	0.433240
C23	C	0.606876	-0.504174	0.430140
C24	C	0.574525	-0.447102	0.381327
C25	C	0.615404	-0.393647	0.335606
C26	C	0.688628	-0.397266	0.338703
C27	C	0.355984	-0.430356	0.366992
C28	C	0.282754	-0.426739	0.363900
C29	C	0.274231	-0.537268	0.458433
C30	C	0.347458	-0.540879	0.461529
C31	C	0.388330	-0.487426	0.415806
N32	N	0.499676	-0.443404	0.378158
N33	N	0.463177	-0.491129	0.418972
C34	C	0.959841	-0.946924	0.418093
C35	C	1.002452	-0.988396	0.378793
C36	C	0.998273	-1.082782	0.382626
C37	C	0.964019	-0.852529	0.414261
C38	C	1.163950	-0.476320	0.406308
C39	C	1.241881	-0.480192	0.409616
C40	C	0.973287	-0.475526	0.581452
C41	C	0.970019	-0.479104	0.659703
C42	C	0.990699	-0.250668	0.389655
C43	C	0.994944	-0.158018	0.385680
C44	C	0.988908	-0.458932	0.214927
C45	C	0.992246	-0.455393	0.136680
C46	C	1.015715	-0.429751	0.696173
C47	C	1.012645	-0.433121	0.769699
C48	C	0.963876	-0.485840	0.806754
C49	C	0.918179	-0.535198	0.770279
C50	C	0.921252	-0.531832	0.696755
C51	C	0.949622	-0.501385	1.026681
C52	C	0.946551	-0.504746	1.100210
C53	C	1.041019	-0.402669	1.099625
C54	C	1.044085	-0.399304	1.026099
C55	C	0.998390	-0.448665	0.989631
N56	N	0.960736	-0.489284	0.881910
N57	N	1.001534	-0.445225	0.914477
H58	H	0.573599	-0.547700	0.467368
O59	O	0.912643	-0.989258	0.461655
C60	C	0.918924	-1.075438	0.455822
H61	H	0.973504	-1.088869	0.435525
H62	H	0.877862	-1.096374	0.417554
C63	C	0.840491	-1.106653	0.553490
C64	C	0.907529	-1.123151	0.528567
H65	H	0.833458	-1.136086	0.598361
H66	H	0.836257	-1.048593	0.557418
H67	H	0.806280	-1.124101	0.521594
H68	H	0.941738	-1.105694	0.560458
H69	H	0.911768	-1.181210	0.524645
O70	O	0.251215	-0.371342	0.316524
C71	C	0.177821	-0.379635	0.323579
H72	H	0.164310	-0.408767	0.378641
H73	H	0.156864	-0.421221	0.282837
C74	C	0.160804	-0.257383	0.244314
C75	C	0.144209	-0.293158	0.311944
H76	H	0.140070	-0.204041	0.237134
H77	H	0.210251	-0.251797	0.239558
H78	H	0.143340	-0.292046	0.210370
H79	H	0.161682	-0.258500	0.345887
H80	H	0.094764	-0.298736	0.316706
O81	O	1.063151	-0.378519	0.660291
C82	C	1.102812	-0.335667	0.708250
H83	H	1.101516	-0.372332	0.762141
H84	H	1.079652	-0.271424	0.712444
C85	C	1.180765	-0.281081	0.615983
C86	C	1.179177	-0.326116	0.682171
H87	H	1.227870	-0.275185	0.599896
H88	H	1.154043	-0.309948	0.583671
H89	H	1.161461	-0.227550	0.619487
H90	H	1.198472	-0.379649	0.678665
H91	H	1.205904	-0.297258	0.714482
O92	O	0.378768	-0.596394	0.508968
C93	C	0.326989	-0.642784	0.548667
H94	H	0.275889	-0.641844	0.517749
H95	H	0.318278	-0.614189	0.600512
C96	C	0.413986	-0.734509	0.601740
C97	C	0.351226	-0.733360	0.563763
H98	H	0.428937	-0.790380	0.611055
H99	H	0.448872	-0.703253	0.574996
H100	H	0.406719	-0.710676	0.644940
H101	H	0.358496	-0.757184	0.520561
H102	H	0.316342	-0.764622	0.590500
O103	O	0.583947	-0.338124	0.288282
C104	C	0.542251	-0.283941	0.324295
H105	H	0.562193	-0.282282	0.380452
H106	H	0.485516	-0.307079	0.325462
C107	C	0.521915	-0.197774	0.217227
C108	C	0.546411	-0.195732	0.286198
H109	H	0.524477	-0.143364	0.193727
H110	H	0.550003	-0.234280	0.192964
H111	H	0.474637	-0.217060	0.218209
H112	H	0.593690	-0.176457	0.285216
H113	H	0.518330	-0.159221	0.310461
O114	O	1.057194	-0.385367	0.805118
C115	C	1.098556	-0.437153	0.851389
H116	H	1.100717	-0.502009	0.832059
H117	H	1.074517	-0.441427	0.906367
C118	C	1.170637	-0.320679	0.877516
C119	C	1.173296	-0.400335	0.853772
H120	H	1.216740	-0.297967	0.878990
H121	H	1.142770	-0.285789	0.846345
H122	H	1.150602	-0.324251	0.923330
H123	H	1.193323	-0.396760	0.807956
H124	H	1.201169	-0.435224	0.884936
O125	O	0.899157	-0.556038	1.136101
C126	C	0.859474	-0.598872	1.088147
H127	H	0.890251	-0.600811	1.037046
H128	H	0.807918	-0.565306	1.076880
C129	C	0.806394	-0.686002	1.182778
C130	C	0.844198	-0.688390	1.120016
H131	H	0.796968	-0.741219	1.202437
H132	H	0.833127	-0.657142	1.215086
H133	H	0.763435	-0.658026	1.173380
H134	H	0.887159	-0.716355	1.129417
H135	H	0.817471	-0.717256	1.087711
H136	H	0.389254	-0.386825	0.329766
H137	H	0.240945	-0.580787	0.495658
O138	O	1.091433	-0.347983	0.990181
C139	C	1.079084	-0.264955	1.004138
H140	H	1.049974	-0.264307	1.056329
H141	H	1.046032	-0.233160	0.960121
C142	C	1.185316	-0.218884	0.944240
C143	C	1.149569	-0.218087	1.008345
H144	H	1.228794	-0.189971	0.946832
H145	H	1.193636	-0.274821	0.934834
H146	H	1.157766	-0.192389	0.907566
H147	H	1.177115	-0.244591	1.045016
H148	H	1.141256	-0.162153	1.017757
H149	H	0.721907	-0.353743	0.301473
O150	O	0.905327	-0.549420	0.991241
C151	C	0.944596	-0.603321	0.952536
H152	H	0.998662	-0.612279	0.977192
H153	H	0.950493	-0.575129	0.895868
C154	C	0.840087	-0.677180	0.923214
C155	C	0.906490	-0.688187	0.953501
H156	H	0.816581	-0.729528	0.923806
H157	H	0.813630	-0.640864	0.949288
H158	H	0.845011	-0.653684	0.875994
H159	H	0.901566	-0.711673	1.000722
H160	H	0.932946	-0.724510	0.927435
H161	H	0.884043	-0.572021	0.667062
H162	H	1.078222	-0.362484	1.129325
O163	O	1.049691	-0.946064	0.335269
C164	C	1.043386	-0.859880	0.341067
H165	H	1.018627	-0.849411	0.393955
H166	H	1.008892	-0.831424	0.296747
C167	C	1.146952	-0.831179	0.270866
C168	C	1.116547	-0.818320	0.335827
H169	H	1.192080	-0.805541	0.267631
H170	H	1.151198	-0.889242	0.266958
H171	H	1.118200	-0.807466	0.233940
H172	H	1.145295	-0.842042	0.372752
H173	H	1.112307	-0.760259	0.339742
O174	O	0.870712	-0.586362	0.806188
C175	C	0.802402	-0.563777	0.784590
H176	H	0.804620	-0.529218	0.729851
H177	H	0.778979	-0.521626	0.823255
C178	C	0.753701	-0.685176	0.849941
C179	C	0.756425	-0.642736	0.782707
H180	H	0.725338	-0.733881	0.848782
H181	H	0.799722	-0.700392	0.864495
H182	H	0.734184	-0.650041	0.882155
H183	H	0.775949	-0.677867	0.750496
H184	H	0.710405	-0.627529	0.768147
H185	H	0.706436	-0.554260	0.472992
