data_functionalizedCrystal
_audit_creation_method	'MofGen! by Chris Wilmer'
_symmetry_space_group_name_H-M	'P1'
_symmetry_Int_Tables_number	1
_symmetry_cell_setting	triclinic
loop_
_symmetry_equiv_pos_as_xyz
  x,y,z
_cell_length_a	10.540539
_cell_length_b	10.908878
_cell_length_c	9.482900
_cell_angle_alpha	97.015199
_cell_angle_beta	80.617679
_cell_angle_gamma	72.305141
loop_
_atom_site_label
_atom_site_type_symbol
_atom_site_fract_x
_atom_site_fract_y
_atom_site_fract_z
O1	O	1.670106	0.160742	-0.120824
O2	O	2.170106	0.660742	0.379176
O3	O	1.296952	0.177757	-0.120842
O4	O	1.796952	0.677757	0.379158
O5	O	1.532994	-0.017228	-0.120825
O6	O	2.032994	0.482772	0.379175
O7	O	1.434064	0.355726	-0.120841
O8	O	1.934064	0.855726	0.379159
O9	O	1.485015	0.022538	0.120964
O10	O	1.985015	0.522538	0.620964
O11	O	1.248972	0.217523	0.120947
O12	O	1.748972	0.717523	0.620947
O13	O	1.622127	0.200508	0.120965
O14	O	2.122127	0.700508	0.620965
Cu15	Cu	1.431169	0.212646	0.143034
Cu16	Cu	1.931169	0.712646	0.643034
Cu17	Cu	1.487910	0.165618	-0.142910
Cu18	Cu	1.987910	0.665618	0.357090
O19	O	1.386085	0.395493	0.120949
O20	O	1.886085	0.895493	0.620949
C21	C	1.518251	-0.045102	0.000068
C22	C	2.018251	0.454898	0.500068
C23	C	1.545786	-0.187402	0.000065
C24	C	2.045786	0.312598	0.500065
C25	C	1.225940	0.196363	0.000051
C26	C	1.725940	0.696363	0.500051
C27	C	1.085834	0.192544	0.000044
C28	C	1.585834	0.692544	0.500044
C29	C	1.445319	-0.237334	0.000057
C30	C	1.945319	0.262666	0.500057
C31	C	1.473776	-0.384409	0.000053
C32	C	1.973776	0.115591	0.500053
C33	C	0.934492	0.046330	0.000615
C34	C	1.434492	0.546330	0.500615
C35	C	1.080370	0.050109	0.000055
C36	C	1.580370	0.550109	0.500055
C37	C	1.036474	0.238382	-0.138027
C38	C	1.536474	0.738382	0.361973
C39	C	0.891020	0.233505	-0.138127
C40	C	1.391020	0.733505	0.361873
C41	C	0.835332	0.281624	0.136832
C42	C	1.335332	0.781624	0.636832
C43	C	0.981666	0.283234	0.138642
C44	C	1.481666	0.783234	0.638642
C45	C	1.693139	0.181901	0.000070
C46	C	2.193139	0.681901	0.500070
C47	C	1.833247	0.185719	0.000067
C48	C	2.333247	0.685719	0.500067
C49	C	1.400829	0.423366	0.000052
C50	C	1.900829	0.923366	0.500052
C51	C	1.373295	0.565665	0.000046
C52	C	1.873295	1.065665	0.500046
N53	N	1.391269	0.245723	0.344151
N54	N	1.891269	0.745723	0.844151
N55	N	1.527822	0.132532	-0.344027
N56	N	2.027822	0.632532	0.155973
C57	C	1.476134	0.175368	0.416356
C58	C	1.976134	0.675368	0.916356
C59	C	1.442944	0.202898	0.583771
C60	C	1.942944	0.702898	1.083771
H61	H	1.338238	-0.171197	0.000061
H62	H	1.838238	0.328803	0.500061
H63	H	1.345707	0.283513	0.645889
H64	H	1.845707	0.783513	1.145889
H65	H	0.936155	-0.025896	-0.097848
H66	H	1.436155	0.474104	0.402152
H67	H	0.981385	0.388450	0.146974
H68	H	1.481385	0.888450	0.646974
H69	H	1.573358	0.094747	0.354235
H70	H	2.073358	0.594747	0.854235
H71	H	1.109931	0.173867	-0.240778
H72	H	1.609931	0.673867	0.259222
H73	H	0.765279	0.384658	0.137760
H74	H	1.265279	0.884658	0.637760
H75	H	1.625052	0.051907	0.593855
H76	H	2.125052	0.551907	1.093855
H77	H	1.266205	-0.368202	0.000055
H78	H	1.766205	0.131798	0.500055
H79	H	1.652865	-0.253537	0.000074
H80	H	2.152865	0.246463	0.500074
H81	H	1.580862	-0.450539	0.000063
H82	H	2.080862	0.049461	0.500063
H83	H	1.115213	0.012452	0.099030
H84	H	1.615213	0.512452	0.599030
H85	H	1.294039	0.326333	0.406274
H86	H	1.794039	0.826333	0.906274
H87	H	1.013379	0.249957	0.240786
H88	H	1.513379	0.749957	0.740786
H89	H	0.898642	0.006345	0.099633
H90	H	1.398642	0.506345	0.599633
H91	H	1.153742	-0.020512	-0.099088
H92	H	1.653742	0.479488	0.400912
H93	H	0.894438	0.165869	-0.241333
H94	H	1.394438	0.665869	0.258667
H95	H	0.821751	0.334912	-0.144398
H96	H	1.321751	0.834912	0.355602
H97	H	1.036827	0.342139	-0.143168
H98	H	1.536827	0.842139	0.356832
H99	H	0.793162	0.252740	0.241489
H100	H	1.293162	0.752740	0.741489
