data_functionalizedCrystal
_audit_creation_method	'MofGen! by Chris Wilmer'
_symmetry_space_group_name_H-M	'P1'
_symmetry_Int_Tables_number	1
_symmetry_cell_setting	triclinic
loop_
_symmetry_equiv_pos_as_xyz
  x,y,z
_cell_length_a	12.645331
_cell_length_b	16.994747
_cell_length_c	12.645323
_cell_angle_alpha	90.006372
_cell_angle_beta	90.022676
_cell_angle_gamma	90.010038
loop_
_atom_site_label
_atom_site_type_symbol
_atom_site_fract_x
_atom_site_fract_y
_atom_site_fract_z
Zn1	Zn	1.620780	-0.314043	0.599583
Zn2	Zn	1.620682	-0.445958	0.422380
Zn3	Zn	1.443495	-0.314070	0.422327
Zn4	Zn	1.443497	-0.445907	0.599595
O5	O	1.532114	-0.379995	0.510971
O6	O	1.769114	-0.331552	0.576093
O7	O	1.597136	-0.428496	0.274026
O8	O	1.467052	-0.203685	0.445813
O9	O	1.769043	-0.428470	0.445903
O10	O	1.597303	-0.203666	0.576042
O11	O	1.466957	-0.331598	0.273987
O12	O	1.295148	-0.331548	0.445825
O13	O	1.467056	-0.428382	0.747941
O14	O	1.295149	-0.428408	0.576063
O15	O	1.597305	-0.331503	0.747932
O16	O	1.597138	-0.556333	0.445915
O17	O	1.466961	-0.556295	0.576115
C18	C	1.256684	-0.379976	0.510941
C19	C	1.138854	-0.379987	0.510953
C20	C	1.532052	-0.584934	0.511019
C21	C	1.532060	-0.674257	0.511016
Zn22	Zn	1.443525	-0.945156	0.422297
Zn23	Zn	1.620827	-0.945108	0.599536
Zn24	Zn	1.443533	-0.813299	0.599577
Zn25	Zn	1.620702	-0.813214	0.422345
O26	O	1.532147	-0.879194	0.510939
O27	O	1.467094	-1.055531	0.445771
O28	O	1.597365	-0.927639	0.747889
O29	O	1.295185	-0.830846	0.576058
O30	O	1.597357	-1.055496	0.575987
O31	O	1.295179	-0.927721	0.445811
O32	O	1.467108	-0.830800	0.747919
O33	O	1.466986	-0.702907	0.576105
O34	O	1.597143	-0.830700	0.273992
O35	O	1.597151	-0.702844	0.445893
O36	O	1.466972	-0.927638	0.273956
O37	O	1.769158	-0.927556	0.576034
O38	O	1.769066	-0.830654	0.445853
C39	C	0.971253	-0.318772	0.429471
C40	C	1.093813	-0.318930	0.429113
C41	C	1.094346	-0.463080	0.480474
C42	C	0.971748	-0.462746	0.479918
C43	C	0.971701	-0.358899	0.623227
C44	C	1.094307	-0.357043	0.622603
C45	C	1.808619	-0.380014	0.511003
C46	C	1.926449	-0.380022	0.511016
C47	C	1.532192	-0.379934	0.787477
C48	C	1.532225	-0.379908	0.905307
C49	C	1.532180	-0.174254	0.510917
C50	C	1.532213	-0.084932	0.510895
C51	C	1.532097	-0.379998	0.235541
C52	C	1.532269	-0.379802	0.117712
C53	C	1.450032	-0.440567	1.072877
C54	C	1.450248	-0.440868	0.950317
C55	C	1.643928	-0.402468	0.949836
C56	C	1.643477	-0.402849	1.072435
C57	C	1.503771	-0.296348	1.072468
C58	C	1.501279	-0.296849	0.949862
C59	C	1.807577	-0.879092	0.510947
C60	C	1.925407	-0.879072	0.510981
C61	C	1.532043	-0.879165	0.234434
C62	C	1.531998	-0.879153	0.116603
C63	C	1.255642	-0.879299	0.510934
C64	C	1.137812	-0.879343	0.510932
C65	C	1.532175	-0.879268	0.786369
C66	C	1.531924	-0.879431	0.904198
C67	C	2.092957	-0.818263	0.428924
C68	C	1.970397	-0.818025	0.429121
C69	C	1.969907	-0.856576	0.622732
C70	C	2.092505	-0.856133	0.622301
C71	C	2.092617	-0.962524	0.482403
C72	C	1.970011	-0.962084	0.479892
C73	C	1.613524	-0.817954	-0.050938
C74	C	1.613912	-0.818134	0.071622
C75	C	1.562351	-0.962256	0.072094
C76	C	1.562878	-0.961900	-0.050504
C77	C	1.419713	-0.857974	-0.050607
C78	C	1.420369	-0.856139	0.072000
H79	H	1.123904	-0.257313	0.448212
H80	H	0.941780	-0.256969	0.448366
H81	H	2.123770	-0.756781	0.447668
H82	H	1.939209	-0.796243	0.647403
H83	H	2.122177	-0.898498	0.685589
H84	H	1.667632	-0.463855	1.101072
C85	C	1.475191	-0.523626	1.114537
H86	H	1.425131	-0.559975	1.087074
H87	H	1.544230	-0.538450	1.092667
H88	H	1.471714	-0.523696	1.189582
H89	H	1.696160	-0.831796	-0.081752
C90	C	1.475713	-0.524434	0.910739
H91	H	1.475922	-0.524906	0.835612
H92	H	1.543281	-0.539893	0.936173
H93	H	1.423630	-0.560062	0.936003
H94	H	1.505982	-1.009033	-0.080183
H95	H	2.121617	-1.007827	0.542229
H96	H	0.940408	-0.332578	0.346806
C97	C	1.133381	-0.337796	0.316785
H98	H	1.208508	-0.337950	0.316179
H99	H	1.107960	-0.388057	0.295915
H100	H	1.108098	-0.299008	0.268960
C101	C	1.930536	-0.914552	0.707622
H102	H	1.886500	-0.953081	0.675588
H103	H	1.989397	-0.939613	0.739943
H104	H	1.891399	-0.886725	0.759699
C105	C	1.929745	-0.837024	0.317184
H106	H	1.988159	-0.844955	0.271179
H107	H	1.887860	-0.883402	0.319329
H108	H	1.888154	-0.794421	0.291973
H109	H	1.563667	-0.251076	1.101462
H110	H	1.125005	-0.481301	0.399323
H111	H	0.942729	-0.403511	0.683985
H112	H	0.943105	-0.480659	0.397887
H113	H	2.123536	-0.983011	0.402335
H114	H	1.358887	-0.902548	-0.079621
C115	C	1.333831	-0.911966	0.113352
H116	H	1.267289	-0.896678	0.085153
H117	H	1.349388	-0.964304	0.092066
H118	H	1.331420	-0.909350	0.188358
H119	H	1.419075	-0.279835	0.920755
C120	C	1.726225	-0.837068	0.111242
H121	H	1.771789	-0.844688	0.052410
H122	H	1.751631	-0.794590	0.152961
H123	H	1.724546	-0.883623	0.152787
H124	H	1.706828	-0.360512	1.102095
C125	C	0.931704	-0.526417	0.556748
H126	H	0.990367	-0.552384	0.588144
H127	H	0.890028	-0.502554	0.610375
H128	H	0.890029	-0.563585	0.519140
C129	C	1.484568	-1.025525	0.111453
H130	H	1.504380	-1.075304	0.083603
H131	H	1.486244	-1.027477	0.186510
H132	H	1.415090	-1.012830	0.088510
C133	C	1.673651	-0.986145	-0.089148
H134	H	1.717909	-0.996115	-0.029921
H135	H	1.668284	-1.032397	-0.130997
H136	H	1.703113	-0.944868	-0.130352
C137	C	2.132787	-0.837040	0.316663
H138	H	2.177134	-0.882129	0.318875
H139	H	2.074129	-0.847098	0.271695
H140	H	2.171697	-0.793477	0.290169
H141	H	1.556799	-0.249182	0.919220
H142	H	1.668496	-0.462836	0.919174
H143	H	1.706844	-0.359610	0.920682
C144	C	1.382351	-0.777522	-0.092354
H145	H	1.314521	-0.765865	-0.064134
H146	H	1.431115	-0.737968	-0.071345
H147	H	1.378358	-0.779106	-0.167346
C148	C	1.133610	-0.274441	0.653659
H149	H	1.176993	-0.254017	0.598822
H150	H	1.074697	-0.240648	0.664074
H151	H	1.173416	-0.277702	0.717238
H152	H	1.643469	-0.980537	0.102819
C153	C	1.395652	-0.268564	1.114203
H154	H	1.366877	-0.307606	1.159614
H155	H	1.404334	-0.220845	1.152360
H156	H	1.349032	-0.260117	1.056380
H157	H	1.123523	-0.509936	0.538005
C158	C	1.930776	-0.734497	0.454733
H159	H	1.989609	-0.700580	0.465068
H160	H	1.889062	-0.715554	0.397670
H161	H	1.889227	-0.735825	0.517282
C162	C	1.930718	-0.985008	0.368800
H163	H	1.887305	-0.944167	0.341472
H164	H	1.989635	-0.992664	0.323371
H165	H	1.890946	-1.032332	0.373027
C166	C	0.929957	-0.278474	0.660684
H167	H	0.884536	-0.257024	0.608230
H168	H	0.891811	-0.284973	0.724792
H169	H	0.987778	-0.243799	0.672111
C170	C	1.389439	-0.773525	0.111301
H171	H	1.444316	-0.753139	0.154717
H172	H	1.379059	-0.739719	0.052386
H173	H	1.325865	-0.776755	0.151070
H174	H	1.124971	-0.398400	0.686606
H175	H	1.367416	-0.426750	0.920209
H176	H	1.366956	-0.426585	1.102344
C177	C	1.588255	-0.734886	0.112282
H178	H	1.577505	-0.700652	0.053873
H179	H	1.525951	-0.736568	0.154167
H180	H	1.645501	-0.716072	0.153877
C181	C	1.928649	-1.026560	0.554774
H182	H	1.883441	-1.003593	0.606213
H183	H	1.890355	-1.064600	0.515210
H184	H	1.986644	-1.051255	0.589122
H185	H	2.121106	-0.795131	0.646569
H186	H	1.594707	-0.756136	-0.080406
