data_functionalizedCrystal
_audit_creation_method	'MofGen! by Chris Wilmer'
_symmetry_space_group_name_H-M	'P1'
_symmetry_Int_Tables_number	1
_symmetry_cell_setting	triclinic
loop_
_symmetry_equiv_pos_as_xyz
  x,y,z
_cell_length_a	19.188933
_cell_length_b	19.188930
_cell_length_c	9.130313
_cell_angle_alpha	89.990995
_cell_angle_beta	89.998637
_cell_angle_gamma	83.145175
loop_
_atom_site_label
_atom_site_type_symbol
_atom_site_fract_x
_atom_site_fract_y
_atom_site_fract_z
O1	O	0.926142	0.087173	-0.121767
O2	O	1.426142	0.587173	0.378233
O3	O	0.722831	0.098906	-0.121783
O4	O	1.222831	0.598906	0.378217
O5	O	0.830354	-0.008616	-0.121746
O6	O	1.330354	0.491384	0.378254
O7	O	0.818620	0.194695	-0.121804
O8	O	1.318620	0.694695	0.378196
O9	O	0.830348	-0.008618	0.121853
O10	O	1.330348	0.491382	0.621853
O11	O	0.722825	0.098904	0.121816
O12	O	1.222825	0.598904	0.621816
O13	O	0.926136	0.087171	0.121832
O14	O	1.426136	0.587171	0.621832
Cu15	Cu	0.824480	0.093038	0.144067
Cu16	Cu	1.324480	0.593038	0.644067
Cu17	Cu	0.824487	0.093040	-0.144017
Cu18	Cu	1.324487	0.593040	0.355983
O19	O	0.818614	0.194693	0.121795
O20	O	1.318614	0.694693	0.621795
C21	C	0.696817	0.098525	0.000015
C22	C	1.196817	0.598525	0.500015
C23	C	0.619313	0.097384	0.000010
C24	C	1.119313	0.597384	0.500010
C25	C	0.066061	0.089240	-0.132757
C26	C	0.566061	0.589240	0.367243
C27	C	0.138885	0.090308	-0.132763
C28	C	0.638885	0.590308	0.367237
C29	C	0.175299	0.090844	0.000022
C30	C	0.675299	0.590844	0.500022
C31	C	0.138884	0.090294	0.132823
C32	C	0.638884	0.590294	0.632823
C33	C	0.066063	0.089219	0.132825
C34	C	0.566063	0.589219	0.632825
N35	N	0.284316	0.132262	0.098848
N36	N	0.784316	0.632262	0.598848
N37	N	0.353494	0.133285	0.098837
N38	N	0.853494	0.633285	0.598837
C39	C	0.394707	0.094082	0.000023
C40	C	0.894707	0.594082	0.500023
N41	N	0.364129	0.053827	-0.098801
N42	N	0.864129	0.553827	0.401199
N43	N	0.294944	0.052807	-0.098794
N44	N	0.794944	0.552807	0.401206
C45	C	0.254262	0.092009	0.000034
C46	C	0.754262	0.592009	0.500034
C47	C	0.510078	0.095785	-0.132776
C48	C	1.010078	0.595785	0.367224
C49	C	0.582904	0.096849	-0.132776
C50	C	1.082904	0.596849	0.367224
C51	C	0.582901	0.096842	0.132814
C52	C	1.082901	0.596842	0.632814
C53	C	0.510077	0.095771	0.132810
C54	C	1.010077	0.595771	0.632810
C55	C	0.473669	0.095246	0.000012
C56	C	0.973669	0.595246	0.500012
C57	C	0.829971	-0.034628	0.000058
C58	C	1.329971	0.465372	0.500058
C59	C	0.828830	-0.112132	0.000070
C60	C	1.328830	0.387868	0.500070
C61	C	0.891921	-0.157056	0.000082
C62	C	1.391921	0.342944	0.500082
C63	C	0.890849	-0.229880	0.000059
C64	C	1.390849	0.270120	0.500059
C65	C	0.826683	-0.257777	0.000053
C66	C	1.326683	0.242223	0.500053
C67	C	0.763584	-0.212843	0.000032
C68	C	1.263584	0.287157	0.500032
C69	C	0.764658	-0.140021	0.000041
C70	C	1.264658	0.359979	0.500041
N71	N	0.777634	-0.365783	0.082950
N72	N	1.277634	0.134217	0.582950
N73	N	0.776619	-0.434961	0.082945
N74	N	1.276619	0.065039	0.582945
C75	C	0.823445	-0.477185	0.000023
C76	C	1.323445	0.022815	0.500023
N77	N	0.871336	-0.447619	-0.082875
N78	N	1.371336	0.052381	0.417125
N79	N	0.872354	-0.378434	-0.082864
N80	N	1.372354	0.121566	0.417136
C81	C	0.825512	-0.336739	0.000042
C82	C	1.325512	0.163261	0.500042
C83	C	0.885378	-0.601073	0.000007
C84	C	1.385378	-0.101073	0.500007
C85	C	0.884304	-0.673898	-0.000026
C86	C	1.384304	-0.173898	0.499974
C87	C	0.757037	-0.656860	-0.000037
C88	C	1.257037	-0.156860	0.499963
C89	C	0.758113	-0.584037	-0.000019
C90	C	1.258113	-0.084037	0.499981
C91	C	0.822286	-0.556148	0.000010
C92	C	1.322286	-0.056148	0.500010
C93	C	0.952150	0.087553	0.000031
C94	C	1.452150	0.587553	0.500031
C95	C	1.029655	0.088694	0.000026
C96	C	1.529655	0.588694	0.500026
C97	C	0.818997	0.220705	-0.000012
C98	C	1.318997	0.720705	0.499988
C99	C	0.820137	0.298210	-0.000034
C100	C	1.320137	0.798210	0.499966
N101	N	0.824480	0.093036	0.346689
N102	N	1.324480	0.593036	0.846689
N103	N	0.824493	0.093036	-0.346640
N104	N	1.324493	0.593036	0.153360
C105	C	0.872110	0.045442	0.576704
C106	C	1.372110	0.545442	1.076704
C107	C	0.872106	0.045443	0.423367
C108	C	1.372106	0.545443	0.923367
C109	C	0.776860	0.140635	0.423356
C110	C	1.276860	0.640635	0.923356
C111	C	0.776868	0.140637	0.576690
C112	C	1.276868	0.640637	1.076690
H113	H	0.168537	0.090730	0.240937
H114	H	0.668537	0.590730	0.740937
Br115	Br	0.016651	0.088479	0.313045
Br116	Br	0.516651	0.588479	0.813045
Br117	Br	0.979012	-0.119210	0.000081
Br118	Br	1.479012	0.380790	0.500081
Br119	Br	0.969935	-0.734869	-0.000025
Br120	Br	1.469935	-0.234869	0.499975
H121	H	0.937631	-0.578365	0.000024
H122	H	1.437631	-0.078365	0.500024
Br123	Br	0.936744	-0.019156	0.680751
Br124	Br	1.436744	0.480844	1.180751
H125	H	0.738085	0.179389	0.360916
H126	H	1.238085	0.679389	0.860916
Br127	Br	0.976478	-0.290859	0.000068
Br128	Br	1.476478	0.209141	0.500068
H129	H	0.612549	0.097276	0.240930
H130	H	1.112549	0.597276	0.740930
H131	H	0.713280	-0.103444	0.000032
H132	H	1.213280	0.396556	0.500032
H133	H	0.480433	0.095355	-0.240908
H134	H	0.980433	0.595355	0.259092
H135	H	0.612545	0.097288	-0.240909
H136	H	1.112545	0.597288	0.259091
Br137	Br	0.460664	0.095040	0.313027
Br138	Br	0.960664	0.595040	0.813027
H139	H	0.910882	0.006689	0.360958
H140	H	1.410882	0.506689	0.860958
Br141	Br	0.712245	0.205238	0.680735
Br142	Br	1.212245	0.705238	1.180735
Br143	Br	0.676501	-0.250701	0.000006
Br144	Br	1.176501	0.249299	0.500006
Br145	Br	0.669953	-0.694712	-0.000060
Br146	Br	1.169953	-0.194712	0.499940
H147	H	0.706738	-0.547459	-0.000021
H148	H	1.206738	-0.047459	0.499979
H149	H	0.168532	0.090756	-0.240895
H150	H	0.668532	0.590756	0.259105
Br151	Br	0.016653	0.088523	-0.312983
Br152	Br	0.516653	0.588523	0.187017
