data_functionalizedCrystal
_audit_creation_method	'MofGen! by Chris Wilmer'
_symmetry_space_group_name_H-M	'P1'
_symmetry_Int_Tables_number	1
_symmetry_cell_setting	triclinic
loop_
_symmetry_equiv_pos_as_xyz
  x,y,z
_cell_length_a	14.519709
_cell_length_b	27.732048
_cell_length_c	13.596369
_cell_angle_alpha	89.989067
_cell_angle_beta	90.000291
_cell_angle_gamma	83.161400
loop_
_atom_site_label
_atom_site_type_symbol
_atom_site_fract_x
_atom_site_fract_y
_atom_site_fract_z
O1	O	1.222766	0.063362	-0.081675
O2	O	0.954159	0.070824	-0.081706
O3	O	1.096805	-0.003264	-0.081671
O4	O	1.080120	0.137450	-0.081710
O5	O	1.096791	-0.003268	0.081912
O6	O	0.954145	0.070820	0.081877
O7	O	1.222752	0.063358	0.081908
Zn8	Zn	1.088446	0.067088	0.107865
Zn9	Zn	1.088465	0.067094	-0.107663
O10	O	1.080106	0.137446	0.081873
C11	C	0.919799	0.070474	0.000082
C12	C	0.817435	0.069432	0.000071
C13	C	0.442606	0.065596	0.000116
C14	C	0.546896	0.066661	0.000103
C15	C	0.630018	0.067514	0.000093
C16	C	0.734314	0.068579	0.000081
C17	C	1.096448	-0.021274	0.000124
C18	C	1.095393	-0.074934	0.000132
C19	C	1.173048	-0.413378	0.000090
C20	C	1.169135	-0.615057	0.000076
O21	O	1.240145	-0.645973	0.000041
N22	N	1.084552	-0.634585	0.000067
C23	C	1.000941	-0.603690	0.000055
O24	O	0.928909	-0.624927	0.000037
C25	C	1.004855	-0.402012	0.000062
C26	C	1.089444	-0.382487	0.000081
C27	C	1.257630	-0.393853	0.000108
C28	C	1.258607	-0.343436	0.000117
C29	C	1.175003	-0.312545	0.000108
C30	C	1.090421	-0.332071	0.000090
C31	C	0.921246	-0.371118	0.000043
C32	C	0.922232	-0.320696	0.000043
C33	C	1.006820	-0.301171	0.000062
C34	C	1.007794	-0.250763	0.000090
N35	N	1.092377	-0.231235	0.000099
C36	C	1.175981	-0.262126	0.000108
C37	C	0.998893	-0.709574	0.000053
C38	C	0.997914	-0.759993	0.000053
C39	C	1.166108	-0.771356	0.000072
C40	C	1.167086	-0.720936	0.000079
C41	C	1.083476	-0.690045	0.000062
C42	C	1.178028	-0.156247	0.000128
C43	C	1.178998	-0.105825	0.000141
C44	C	1.010804	-0.094466	0.000116
C45	C	1.009833	-0.144883	0.000109
C46	C	1.093453	-0.175773	0.000111
O47	O	0.936822	-0.219818	0.000114
O48	O	1.248004	-0.240879	0.000104
C49	C	1.172071	-0.463795	0.000081
C50	C	1.087489	-0.483320	0.000063
C51	C	1.003885	-0.452429	0.000054
C52	C	1.086510	-0.533740	0.000063
C53	C	1.170115	-0.564631	0.000072
C54	C	1.254698	-0.545103	0.000081
C55	C	1.255675	-0.494686	0.000090
C56	C	0.919302	-0.471957	0.000046
C57	C	0.918331	-0.522375	0.000038
C58	C	1.001936	-0.553266	0.000047
C59	C	1.257113	0.063708	0.000119
C60	C	1.359476	0.064750	0.000123
C61	C	1.080464	0.155456	0.000077
C62	C	1.081518	0.209116	0.000062
N63	N	1.088441	0.067085	0.254957
N64	N	1.088478	0.067094	-0.254754
C65	C	1.088464	0.067094	0.656248
C66	C	1.088454	0.067093	0.544596
C67	C	1.088453	0.067090	0.455606
C68	C	1.088442	0.067088	0.343947
H69	H	1.247882	-0.089931	0.000158
H70	H	1.325714	-0.419000	0.000112
C71	C	0.828191	-0.392583	0.000025
C72	C	0.804358	-0.425684	0.084966
C73	C	0.711296	-0.447146	0.084950
C74	C	0.642067	-0.435507	-0.000006
C75	C	0.665899	-0.402404	-0.084953
C76	C	0.758961	-0.380942	-0.084937
H77	H	0.855607	-0.434301	0.147861
H78	H	0.693655	-0.471651	0.147833
H79	H	0.573177	-0.451394	-0.000018
H80	H	0.614650	-0.393787	-0.147848
H81	H	0.776603	-0.356438	-0.147821
C82	C	1.346664	-0.579089	0.000089
C83	C	1.416182	-0.576839	-0.084849
C84	C	1.508143	-0.610828	-0.084848
C85	C	1.530586	-0.647066	0.000090
C86	C	1.461066	-0.649318	0.085034
C87	C	1.369105	-0.615329	0.085033
H88	H	1.399571	-0.550012	-0.147731
H89	H	1.559606	-0.609161	-0.147729
H90	H	1.598660	-0.672227	0.000091
H91	H	1.477677	-0.676145	0.147916
H92	H	1.317642	-0.616995	0.147915
C93	C	1.351655	-0.321961	0.000123
C94	C	1.375463	-0.288856	-0.084821
C95	C	1.468516	-0.267385	-0.084820
C96	C	1.537759	-0.279018	0.000124
C97	C	1.513953	-0.312125	0.085075
C98	C	1.420900	-0.333596	0.085074
H99	H	1.324204	-0.280243	-0.147708
H100	H	1.486139	-0.242877	-0.147706
H101	H	1.606642	-0.263123	0.000125
H102	H	1.565212	-0.320738	0.147961
H103	H	1.403277	-0.358104	0.147960
H104	H	0.849444	-0.538266	0.000031
C105	C	1.258075	-0.805342	0.000075
C106	C	1.280527	-0.841579	0.085015
C107	C	1.372489	-0.875566	0.085009
C108	C	1.441999	-0.873317	0.000065
C109	C	1.419550	-0.837079	-0.084881
C110	C	1.327588	-0.803091	-0.084875
H111	H	1.229069	-0.843245	0.147901
H112	H	1.389107	-0.902392	0.147892
H113	H	1.510075	-0.898477	0.000061
H114	H	1.471008	-0.835412	-0.147768
H115	H	1.310970	-0.776265	-0.147758
H116	H	0.851220	-0.446810	0.000036
H117	H	0.929034	-0.775885	0.000055
C118	C	0.906912	-0.675598	0.000048
C119	C	0.837400	-0.677841	-0.084896
C120	C	0.745418	-0.643869	-0.084894
C121	C	0.722950	-0.607655	0.000052
C122	C	0.792464	-0.605411	0.085002
C123	C	0.884445	-0.639383	0.085000
H124	H	0.854031	-0.704650	-0.147784
H125	H	0.693959	-0.645530	-0.147781
H126	H	0.654859	-0.582507	0.000053
H127	H	0.775833	-0.578602	0.147890
H128	H	0.935904	-0.637721	0.147887
C129	C	0.830257	-0.286717	0.000027
C130	C	0.760756	-0.288953	-0.084930
C131	C	0.668783	-0.254975	-0.084943
C132	C	0.646310	-0.218760	0.000000
C133	C	0.715813	-0.216522	0.084964
C134	C	0.807786	-0.250500	0.084977
H135	H	0.777390	-0.315763	-0.147816
H136	H	0.617332	-0.256632	-0.147839
H137	H	0.578226	-0.193607	-0.000010
H138	H	0.699179	-0.189712	0.147850
H139	H	0.859236	-0.248843	0.147873
H140	H	1.235965	-0.705043	0.000094
C141	C	0.918844	-0.060479	0.000102
C142	C	0.896415	-0.024246	-0.084848
C143	C	0.804455	0.009743	-0.084871
C144	C	0.734923	0.007499	0.000056
C145	C	0.757351	-0.028735	0.085013
C146	C	0.849311	-0.062724	0.085036
H147	H	0.947888	-0.022584	-0.147722
H148	H	0.787853	0.036566	-0.147762
H149	H	0.666849	0.032660	0.000039
H150	H	0.705878	-0.030397	0.147886
H151	H	0.865912	-0.089547	0.147927
H152	H	1.246119	-0.181392	0.000126
H153	H	0.940955	-0.160781	0.000120
H154	H	1.324556	-0.478794	0.000105
