data_functionalizedCrystal
_audit_creation_method	'MofGen! by Chris Wilmer'
_symmetry_space_group_name_H-M	'P1'
_symmetry_Int_Tables_number	1
_symmetry_cell_setting	triclinic
loop_
_symmetry_equiv_pos_as_xyz
  x,y,z
_cell_length_a	12.594517
_cell_length_b	12.594516
_cell_length_c	13.897441
_cell_angle_alpha	90.026377
_cell_angle_beta	90.015180
_cell_angle_gamma	90.016010
loop_
_atom_site_label
_atom_site_type_symbol
_atom_site_fract_x
_atom_site_fract_y
_atom_site_fract_z
Zn1	Zn	1.627276	-0.423709	0.545267
Zn2	Zn	2.127276	0.076291	1.045267
Zn3	Zn	1.627164	-0.601720	0.383980
Zn4	Zn	2.127164	-0.101720	0.883980
Zn5	Zn	1.449277	-0.423756	0.384001
Zn6	Zn	1.949277	0.076244	0.884001
Zn7	Zn	1.449262	-0.601646	0.545248
Zn8	Zn	1.949262	-0.101646	1.045248
O9	O	1.538245	-0.512708	0.464624
O10	O	2.038245	-0.012708	0.964624
O11	O	1.776207	-0.447334	0.523871
O12	O	2.276207	0.052666	1.023871
O13	O	1.603527	-0.578163	0.249001
O14	O	2.103527	-0.078163	0.749001
O15	O	1.472942	-0.274804	0.405409
O16	O	1.972942	0.225196	0.905409
O17	O	1.776125	-0.578118	0.405374
O18	O	2.276125	-0.078118	0.905374
O19	O	1.603717	-0.274770	0.523891
O20	O	2.103717	0.225230	1.023891
O21	O	1.472834	-0.447414	0.249016
O22	O	1.972834	0.052586	0.749016
O23	O	1.300329	-0.447342	0.405391
O24	O	1.800329	0.052658	0.905391
O25	O	1.472917	-0.577992	0.680232
O26	O	1.972917	-0.077992	1.180232
O27	O	1.300318	-0.578037	0.523859
O28	O	1.800318	-0.078037	1.023859
O29	O	1.603703	-0.447263	0.680246
O30	O	2.103703	0.052737	1.180246
O31	O	1.603512	-0.750656	0.405356
O32	O	2.103512	-0.250656	0.905356
O33	O	1.472808	-0.750602	0.523839
O34	O	1.972808	-0.250602	1.023839
C35	C	1.261704	-0.512687	0.464626
C36	C	1.761704	-0.012687	0.964626
C37	C	1.143399	-0.512704	0.464650
C38	C	1.643399	-0.012704	0.964650
C39	C	1.003407	-0.583918	0.528965
C40	C	1.503407	-0.083918	1.028965
C41	C	1.074176	-0.609826	0.440932
C42	C	1.574176	-0.109826	0.940932
C43	C	1.074201	-0.486844	0.552673
C44	C	1.574201	0.013156	1.052673
C45	C	1.003382	-0.538697	0.376541
C46	C	1.503382	-0.038697	0.876541
C47	C	1.003401	-0.415669	0.488342
C48	C	1.503401	0.084331	0.988342
C49	C	1.074138	-0.441540	0.400248
C50	C	1.574138	0.058460	0.900248
C51	C	1.538175	-0.789249	0.464614
C52	C	2.038175	-0.289249	0.964614
C53	C	1.538243	-0.907554	0.464643
C54	C	2.038243	-0.407554	0.964643
C55	C	1.467146	-0.976817	0.529040
C56	C	1.967146	-0.476817	1.029040
C57	C	1.441211	-1.047682	0.441026
C58	C	1.941211	-0.547682	0.941026
C59	C	1.564275	-1.047488	0.552672
C60	C	2.064275	-0.547488	1.052672
C61	C	1.512257	-0.976862	0.376581
C62	C	2.012257	-0.476862	0.876581
C63	C	1.635365	-0.976661	0.488287
C64	C	2.135365	-0.476661	0.988287
C65	C	1.609467	-1.047495	0.400212
C66	C	2.109467	-0.547495	0.900212
C67	C	1.815866	-0.512729	0.464622
C68	C	2.315866	-0.012729	0.964622
C69	C	1.934171	-0.512739	0.464621
C70	C	2.434171	-0.012739	0.964621
C71	C	1.538320	-0.512614	0.716217
C72	C	2.038320	-0.012614	1.216217
C73	C	1.538353	-0.512574	0.823431
C74	C	2.038353	-0.012574	1.323431
C75	C	1.538344	-0.235087	0.464654
C76	C	2.038344	0.264913	0.964654
C77	C	1.538386	-0.116782	0.464667
C78	C	2.038386	0.383218	0.964667
C79	C	1.538231	-0.512725	0.214009
C80	C	2.038231	-0.012725	0.714009
C81	C	1.538405	-0.512465	0.106796
C82	C	2.038405	-0.012465	0.606796
C83	C	1.538381	-0.512502	1.019726
C84	C	2.038381	-0.012502	1.519726
C85	C	1.538362	-0.512545	0.910494
C86	C	2.038362	-0.012545	1.410494
H87	H	1.105263	-0.691901	0.420873
H88	H	1.605263	-0.191901	0.920873
H89	H	1.406914	-0.945782	0.583420
H90	H	1.906914	-0.445782	1.083420
H91	H	1.490202	-0.945967	0.302125
H92	H	1.990202	-0.445967	0.802125
Br93	Br	0.951639	-0.684340	0.619526
Br94	Br	1.451639	-0.184340	1.119526
Br95	Br	0.951541	-0.278910	0.521815
Br96	Br	1.451541	0.221090	1.021815
Br97	Br	1.304419	-1.099672	0.407695
Br98	Br	1.804419	-0.599672	0.907695
Br99	Br	1.125566	-0.341175	0.309479
Br100	Br	1.625566	0.158825	0.809479
Br101	Br	1.126055	-0.450363	0.676763
Br102	Br	1.626055	0.049637	1.176763
Br103	Br	1.709786	-1.098895	0.309363
Br104	Br	2.209786	-0.598895	0.809363
Br105	Br	1.600874	-1.099205	0.676733
Br106	Br	2.100874	-0.599205	1.176733
Br107	Br	0.951760	-0.575336	0.252411
Br108	Br	1.451760	-0.075336	0.752411
H109	H	1.717414	-0.945445	0.508308
H110	H	2.217414	-0.445445	1.008308
