data_functionalizedCrystal
_audit_creation_method	'MofGen! by Chris Wilmer'
_symmetry_space_group_name_H-M	'P1'
_symmetry_Int_Tables_number	1
_symmetry_cell_setting	triclinic
loop_
_symmetry_equiv_pos_as_xyz
  x,y,z
_cell_length_a	10.654562
_cell_length_b	15.944493
_cell_length_c	9.130313
_cell_angle_alpha	90.004626
_cell_angle_beta	89.996930
_cell_angle_gamma	83.982574
loop_
_atom_site_label
_atom_site_type_symbol
_atom_site_fract_x
_atom_site_fract_y
_atom_site_fract_z
O1	O	1.666261	0.118026	-0.121875
O2	O	1.300636	0.129256	-0.121854
O3	O	1.493471	0.001421	-0.121877
O4	O	1.473426	0.245861	-0.121852
O5	O	1.493468	0.001425	0.121722
O6	O	1.300633	0.129259	0.121744
O7	O	1.666259	0.118030	0.121724
Cu8	Cu	1.483446	0.123645	0.143977
Cu9	Cu	1.483449	0.123641	-0.144107
O10	O	1.473424	0.245864	0.121747
C11	C	1.253848	0.128431	-0.000053
C12	C	1.114438	0.125957	-0.000046
C13	C	1.048921	0.124805	0.132728
C14	C	0.917930	0.122488	0.132703
C15	C	0.917983	0.122478	-0.132881
C16	C	1.048973	0.124789	-0.132855
C17	C	1.114387	0.125973	0.265537
C18	C	1.048870	0.124822	0.398322
C19	C	0.917878	0.122505	0.398298
C20	C	0.852403	0.121338	0.265488
C21	C	1.492650	-0.029877	-0.000084
C22	C	1.490194	-0.123140	-0.000102
C23	C	1.603701	-0.358239	-0.000081
C24	C	1.542492	-0.409165	-0.120184
C25	C	1.485643	-0.293887	-0.000084
C26	C	1.542462	-0.409138	0.119986
C27	C	1.481256	-0.458822	-0.000060
C28	C	1.424466	-0.343585	-0.120286
C29	C	1.424453	-0.343554	0.119991
C30	C	1.363158	-0.394447	-0.000141
C31	C	1.488174	-0.198872	-0.000099
C32	C	1.478715	-0.553834	-0.000056
C33	C	1.713047	0.118855	-0.000081
C34	C	1.852456	0.121328	-0.000097
C35	C	1.474244	0.277162	-0.000049
C36	C	1.476700	0.370425	-0.000040
N37	N	1.483453	0.123647	0.346600
N38	N	1.483451	0.123632	-0.346730
C39	C	1.568862	0.067062	0.423241
C40	C	1.568859	0.067051	0.576578
C41	C	1.398033	0.180220	0.576618
C42	C	1.398032	0.180225	0.423284
C43	C	1.654283	0.010483	0.346557
C44	C	1.739700	-0.046106	0.423199
C45	C	1.739697	-0.046116	0.576536
C46	C	1.654277	0.010463	0.653231
H47	H	1.705393	-0.342019	-0.000207
O48	O	1.112704	0.125765	-0.261794
C49	C	1.274906	0.055756	-0.415865
C50	C	1.202811	0.054541	-0.269801
H51	H	1.347791	-0.001812	-0.422373
H52	H	1.205680	0.054479	-0.510845
H53	H	1.324680	0.115544	-0.422466
H54	H	1.153033	-0.005237	-0.263057
H55	H	1.272097	0.055864	-0.174890
O56	O	0.854296	0.121501	-0.261845
C57	C	0.692150	0.191511	-0.415949
C58	C	0.764196	0.192726	-0.269860
H59	H	0.619270	0.249080	-0.422464
H60	H	0.761410	0.192785	-0.510906
H61	H	0.642375	0.131724	-0.422586
H62	H	0.813975	0.252503	-0.263081
H63	H	0.694877	0.191407	-0.174973
H64	H	1.654273	0.010444	0.778088
H65	H	1.261387	-0.410506	-0.000201
H66	H	1.592351	-0.437822	-0.221729
O67	O	1.365206	-0.309395	0.241284
C68	C	1.360436	-0.304221	0.505012
C69	C	1.427657	-0.342958	0.367756
H70	H	1.410884	-0.331355	0.607299
H71	H	1.362152	-0.232857	0.503359
H72	H	1.258436	-0.319819	0.505982
H73	H	1.529683	-0.327425	0.366697
H74	H	1.425838	-0.414313	0.369462
O75	O	1.602137	-0.443356	0.240969
C76	C	1.771625	-0.540357	0.335103
C77	C	1.704169	-0.501659	0.197979
H78	H	1.854116	-0.587515	0.300395
H79	H	1.808270	-0.488255	0.403430
H80	H	1.702359	-0.573991	0.403010
H81	H	1.773361	-0.468032	0.129959
H82	H	1.667502	-0.553796	0.129761
O83	O	1.654418	0.010354	0.197608
C84	C	1.748209	-0.051686	-0.022459
C85	C	1.748172	-0.051646	0.146222
H86	H	1.824019	-0.101796	-0.064056
H87	H	1.651944	-0.066136	-0.064173
H88	H	1.768744	0.012899	-0.064028
H89	H	1.727689	-0.116213	0.187916
H90	H	1.844444	-0.037148	0.187836
H91	H	1.102189	0.125766	0.506451
H92	H	1.328483	0.226302	0.360881
O93	O	1.822545	-0.101197	0.348799
C94	C	1.896204	-0.246808	0.301993
C95	C	1.802292	-0.184499	0.386293
H96	H	1.879880	-0.314170	0.332299
H97	H	1.881563	-0.237176	0.179210
H98	H	1.996765	-0.235195	0.332140
H99	H	1.701693	-0.196074	0.356269
H100	H	1.817042	-0.194145	0.509055
H101	H	1.374638	-0.315056	-0.221932
H102	H	1.328489	0.226286	0.639073
O103	O	1.822540	-0.101056	0.651215
C104	C	1.898302	-0.151191	0.887413
C105	C	1.804388	-0.088942	0.803027
H106	H	1.883677	-0.141407	1.010167
H107	H	1.881968	-0.218591	0.857353
H108	H	1.998863	-0.139618	0.857175
H109	H	1.703791	-0.100438	0.833219
H110	H	1.820832	-0.021563	0.833094
H111	H	1.221046	0.127863	0.265572
H112	H	0.745742	0.119449	0.265479
H113	H	0.864539	0.121561	0.506417
