data_functionalizedCrystal
_audit_creation_method	'MofGen! by Chris Wilmer'
_symmetry_space_group_name_H-M	'P1'
_symmetry_Int_Tables_number	1
_symmetry_cell_setting	triclinic
loop_
_symmetry_equiv_pos_as_xyz
  x,y,z
_cell_length_a	16.625548
_cell_length_b	12.827892
_cell_length_c	16.625539
_cell_angle_alpha	89.979703
_cell_angle_beta	90.017055
_cell_angle_gamma	89.981601
loop_
_atom_site_label
_atom_site_type_symbol
_atom_site_fract_x
_atom_site_fract_y
_atom_site_fract_z
Zn1	Zn	1.232681	0.416021	0.455944
Zn2	Zn	1.732681	0.916021	0.955944
Zn3	Zn	1.232605	0.590778	0.321125
Zn4	Zn	1.732605	1.090778	0.821125
Zn5	Zn	1.097851	0.416055	0.321124
Zn6	Zn	1.597851	0.916055	0.821124
Zn7	Zn	1.097826	0.590724	0.455915
Zn8	Zn	1.597826	1.090724	0.955915
O9	O	1.165241	0.503394	0.388527
O10	O	1.665241	1.003394	0.888527
O11	O	1.345504	0.439211	0.438072
O12	O	1.845504	0.939211	0.938072
O13	O	1.214708	0.567637	0.208293
O14	O	1.714708	1.067637	0.708293
O15	O	1.115780	0.269814	0.339020
O16	O	1.615780	0.769814	0.839020
O17	O	1.345447	0.567604	0.339022
O18	O	1.845447	1.067604	0.839022
O19	O	1.214839	0.269789	0.438071
O20	O	1.714839	0.769789	0.938071
O21	O	1.115706	0.439269	0.208292
O22	O	1.615706	0.939269	0.708292
O23	O	0.985016	0.439216	0.338992
O24	O	1.485016	0.939216	0.838992
O25	O	1.115736	0.567512	0.568752
O26	O	1.615736	1.067512	1.068752
O27	O	0.984997	0.567545	0.438023
O28	O	1.484997	1.067545	0.938023
O29	O	1.214814	0.439158	0.568772
O30	O	1.714814	0.939158	1.068772
O31	O	1.214683	0.737007	0.338994
O32	O	1.714683	1.237007	0.838994
O33	O	1.115662	0.736967	0.438024
O34	O	1.615662	1.236967	0.938024
C35	C	1.165183	0.774904	0.388524
C36	C	1.665183	1.274904	0.888524
C37	C	1.165232	0.891057	0.388549
C38	C	1.665232	1.391057	0.888549
C39	C	0.955750	0.503379	0.388505
C40	C	1.455750	1.003379	0.888505
C41	C	0.866129	0.503398	0.388514
C42	C	1.366129	1.003398	0.888514
C43	C	1.214288	0.942827	0.339602
C44	C	1.714288	1.442827	0.839602
C45	C	1.214340	1.062877	0.339628
C46	C	1.714340	1.562877	0.839628
C47	C	0.537953	0.503405	0.388549
C48	C	1.037953	1.003405	0.888549
C49	C	0.629262	0.503400	0.388536
C50	C	1.129262	1.003400	0.888536
C51	C	0.702038	0.503402	0.388531
C52	C	1.202038	1.003402	0.888531
C53	C	0.793352	0.503396	0.388520
C54	C	1.293352	1.003396	0.888520
C55	C	1.375550	0.503410	0.388550
C56	C	1.875550	1.003410	0.888550
C57	C	1.465171	0.503417	0.388560
C58	C	1.965171	1.003417	0.888560
C59	C	1.165280	0.503325	0.598836
C60	C	1.665280	1.003325	1.098836
C61	C	1.165297	0.503296	0.688457
C62	C	1.665297	1.003296	1.188457
C63	C	1.165314	1.230824	0.388558
C64	C	1.665314	1.730824	0.888558
C65	C	1.165328	1.114671	0.388597
C66	C	1.665328	1.614671	0.888597
C67	C	1.165248	0.503388	0.179036
C68	C	1.665248	1.003388	0.679036
C69	C	1.165387	0.503123	0.089416
C70	C	1.665387	1.003123	0.589416
C71	C	1.165310	0.503273	0.761240
C72	C	1.665310	1.003273	1.261240
C73	C	1.165329	0.503234	0.852548
C74	C	1.665329	1.003234	1.352548
C75	C	1.165348	0.503197	0.925325
C76	C	1.665348	1.003197	1.425325
C77	C	1.165368	0.503159	1.016639
C78	C	1.665368	1.003159	1.516639
H79	H	1.256337	1.107398	0.297720
H80	H	1.756337	1.607398	0.797720
O81	O	1.115261	1.061687	0.438707
O82	O	1.615261	1.561687	0.938707
C83	C	1.132841	1.088176	0.519110
C84	C	1.632841	1.588176	1.019110
H85	H	1.163814	1.167414	0.520882
H86	H	1.663814	1.667414	1.020882
H87	H	1.174297	1.026700	0.546248
H88	H	1.674297	1.526700	1.046248
C89	C	1.016165	0.995795	0.565711
C90	C	1.516165	1.495795	1.065711
C91	C	1.054200	1.093121	0.567887
C92	C	1.554200	1.593121	1.067887
H93	H	0.967657	0.998841	0.595801
H94	H	1.467657	1.498841	1.095801
H95	H	1.004322	0.977945	0.511543
H96	H	1.504322	1.477945	1.011543
H97	H	1.050720	0.944575	0.588324
H98	H	1.550720	1.444575	1.088324
H99	H	1.019650	1.144335	0.545265
H100	H	1.519650	1.644335	1.045265
H101	H	1.066036	1.110979	0.622053
H102	H	1.566036	1.610979	1.122053
O103	O	1.264233	0.889635	0.289499
O104	O	1.764233	1.389635	0.789499
C105	C	1.218287	0.826573	0.237426
C106	C	1.718287	1.326573	0.737426
H107	H	1.154824	0.859608	0.232371
H108	H	1.654824	1.359608	0.732371
H109	H	1.215400	0.743877	0.262397
H110	H	1.715400	1.243877	0.762397
C111	C	1.335676	0.784194	0.159851
C112	C	1.835676	1.284194	0.659851
C113	C	1.257730	0.824774	0.153637
C114	C	1.757730	1.324774	0.653637
H115	H	1.360007	0.783080	0.108166
H116	H	1.860007	1.283080	0.608166
H117	H	1.366631	0.826677	0.194935
H118	H	1.866631	1.326677	0.694935
H119	H	1.333259	0.715285	0.180663
H120	H	1.833259	1.215285	0.680663
H121	H	1.260149	0.893686	0.132835
H122	H	1.760149	1.393686	0.632835
H123	H	1.226776	0.782302	0.118547
H124	H	1.726776	1.282302	0.618547
H125	H	1.123276	0.935612	0.430476
H126	H	1.623276	1.435612	0.930476
