data_functionalizedCrystal
_audit_creation_method	'MofGen! by Chris Wilmer'
_symmetry_space_group_name_H-M	'P1'
_symmetry_Int_Tables_number	1
_symmetry_cell_setting	triclinic
loop_
_symmetry_equiv_pos_as_xyz
  x,y,z
_cell_length_a	11.792241
_cell_length_b	10.268362
_cell_length_c	11.792241
_cell_angle_alpha	89.994572
_cell_angle_beta	95.806584
_cell_angle_gamma	90.000374
loop_
_atom_site_label
_atom_site_type_symbol
_atom_site_fract_x
_atom_site_fract_y
_atom_site_fract_z
O1	O	1.506909	0.108174	-0.155569
O2	O	1.176568	0.108205	-0.171602
O3	O	1.349755	0.108180	0.001585
O4	O	1.333722	0.108199	-0.328756
O5	O	1.349740	-0.108421	0.001593
O6	O	1.176553	-0.108396	-0.171594
O7	O	1.506894	-0.108426	-0.155561
Cu8	Cu	1.341722	-0.128188	-0.163577
Cu9	Cu	1.341740	0.127967	-0.163586
O10	O	1.333707	-0.108401	-0.328748
C11	C	1.134269	-0.000092	-0.170591
C12	C	1.008255	-0.000080	-0.167576
N13	N	1.341717	-0.308354	-0.163571
C14	C	0.777543	-0.000118	-0.162034
C15	C	0.905928	-0.000097	-0.165113
C16	C	1.341734	-0.574025	-0.163583
C17	C	1.341721	-0.426187	-0.163580
C18	C	1.549192	-0.000127	-0.156572
C19	C	1.675206	-0.000130	-0.159587
C20	C	1.348740	-0.000120	0.043880
C21	C	1.345726	-0.000119	0.169894
N22	N	1.341753	0.308133	-0.163584
C23	C	1.334721	-0.000099	-0.371043
C24	C	1.337736	-0.000092	-0.497057
C25	C	1.340183	-0.000096	0.400606
C26	C	1.343262	-0.000108	0.272221
