data_functionalizedCrystal
_audit_creation_method	'MofGen! by Chris Wilmer'
_symmetry_space_group_name_H-M	'P1'
_symmetry_Int_Tables_number	1
_symmetry_cell_setting	triclinic
loop_
_symmetry_equiv_pos_as_xyz
  x,y,z
_cell_length_a	19.288864
_cell_length_b	10.540539
_cell_length_c	17.766277
_cell_angle_alpha	89.995823
_cell_angle_beta	89.976791
_cell_angle_gamma	83.830869
loop_
_atom_site_label
_atom_site_type_symbol
_atom_site_fract_x
_atom_site_fract_y
_atom_site_fract_z
O1	O	0.922410	0.158345	-0.062832
O2	O	0.720292	0.179706	-0.062781
O3	O	0.825962	-0.015784	-0.062807
O4	O	0.816739	0.353835	-0.062806
O5	O	0.825943	-0.015794	0.062382
O6	O	0.720273	0.179696	0.062408
O7	O	0.922391	0.158335	0.062356
Cu8	Cu	0.821330	0.169015	0.073813
Cu9	Cu	0.821352	0.169026	-0.074237
O10	O	0.816721	0.353825	0.062382
C11	C	0.694401	0.179013	-0.000180
C12	C	0.617284	0.176950	-0.000160
C13	C	0.573353	0.291654	-0.000172
C14	C	0.500893	0.289716	-0.000180
C15	C	0.472367	0.173067	-0.000192
C16	C	0.516308	0.058347	-0.000176
C17	C	0.588766	0.060289	-0.000160
C18	C	0.363500	0.081371	-0.044076
C19	C	0.291042	0.079434	-0.044097
C20	C	0.248881	0.167074	-0.000237
C21	C	0.279185	0.256671	0.043633
C22	C	0.351644	0.258613	0.043649
C23	C	0.393799	0.170949	-0.000208
C24	C	0.126381	0.279684	-0.000257
C25	C	0.053919	0.277741	-0.000261
C26	C	0.069336	0.046369	-0.000264
C27	C	0.141795	0.048315	-0.000253
C28	C	0.170313	0.164976	-0.000253
C29	C	0.825261	-0.063076	-0.000214
C30	C	0.823192	-0.203978	-0.000217
C31	C	0.743903	-0.385638	-0.000478
C32	C	0.746000	-0.239067	-0.000197
C33	C	0.860329	-0.266470	0.071262
C34	C	0.857694	-0.412955	0.071323
C35	C	0.859286	-0.413497	-0.071040
C36	C	0.859997	-0.266531	-0.071986
C37	C	0.948281	0.159027	-0.000246
C38	C	1.025399	0.161091	-0.000271
C39	C	0.817422	0.401117	-0.000212
C40	C	0.819491	0.542019	-0.000214
N41	N	0.821320	0.169006	0.177943
N42	N	0.821368	0.169025	-0.178368
C43	C	0.868126	0.082485	0.217318
C44	C	0.868130	0.082479	0.296120
C45	C	0.821334	0.169016	0.335544
C46	C	0.774519	0.255543	0.296159
C47	C	0.774512	0.255538	0.217359
C48	C	0.812807	0.284670	0.460383
C49	C	0.812819	0.284676	0.539182
C50	C	0.821353	0.169031	0.578590
C51	C	0.829889	0.053373	0.539189
C52	C	0.829882	0.053368	0.460389
C53	C	0.821337	0.169030	0.420989
C54	C	0.868166	0.082497	0.703411
C55	C	0.868165	0.082489	0.782214
C56	C	0.774558	0.255564	0.782252
C57	C	0.774555	0.255560	0.703450
C58	C	0.821363	0.169028	0.664034
H59	H	0.266374	0.006484	-0.079822
H60	H	0.713418	-0.413555	-0.051736
H61	H	0.906278	0.012027	0.814274
H62	H	0.834311	-0.444489	-0.125218
N63	N	0.915918	-0.005918	0.663092
N64	N	0.893417	-0.084531	0.619138
H65	H	0.927124	-0.146978	0.590644
N66	N	0.406553	-0.008177	-0.088878
N67	N	0.379490	-0.088159	-0.128045
H68	H	0.409895	-0.151404	-0.159684
H69	H	0.906246	0.012021	0.328185
N70	N	0.236146	0.346228	0.088439
N71	N	0.236472	0.463277	0.077379
H72	H	0.206076	0.526533	0.109020
H73	H	0.736453	0.326019	0.814350
N74	N	0.705800	-0.422698	0.063484
N75	N	0.734073	-0.502157	0.109262
H76	H	0.707165	-0.528335	0.154437
H77	H	0.917016	-0.245379	0.073906
H78	H	0.716558	-0.196659	0.051142
H79	H	0.596567	0.386649	-0.000173
H80	H	0.836830	-0.040804	0.428312
H81	H	0.465117	0.383125	-0.000187
H82	H	0.830232	-0.440547	0.124769
N83	N	0.726739	0.343950	0.663236
N84	N	0.684957	0.421205	0.698441
H85	H	0.651182	0.483631	0.670041
N86	N	0.827942	-0.212309	0.138005
N87	N	0.777519	-0.127704	0.133114
H88	H	0.754641	-0.089453	0.180249
N89	N	0.927337	-0.474674	0.075384
N90	N	0.977730	-0.409518	0.078169
H91	H	1.026915	-0.453100	0.081043
H92	H	0.915041	-0.461966	-0.071535
H93	H	0.493077	-0.036629	-0.000196
H94	H	0.805873	0.378851	0.571256
N95	N	0.709338	-0.184809	-0.064475
N96	N	0.682017	-0.255182	-0.109857
H97	H	0.656119	-0.216868	-0.155255
H98	H	0.177565	-0.045090	-0.000247
H99	H	0.624535	-0.033120	-0.000151
H100	H	0.832824	-0.225063	-0.124864
H101	H	0.916276	-0.243564	-0.076317
H102	H	0.018151	0.371151	-0.000266
N103	N	0.916001	-0.005804	0.177070
N104	N	0.957829	-0.082980	0.212242
H105	H	0.991663	-0.145296	0.183816
N106	N	0.838596	-0.064756	0.579444
N107	N	0.838589	-0.064741	0.649801
H108	H	0.844734	-0.148166	0.678235
N109	N	0.382588	0.350135	0.088461
N110	N	0.344944	0.428385	0.127618
H111	H	0.366798	0.493023	0.159269
N112	N	0.804097	0.402820	0.420145
N113	N	0.796492	0.506072	0.455329
H114	H	0.790345	0.589514	0.426913
H115	H	0.736416	0.326000	0.328261
N116	N	0.726712	0.343930	0.177122
N117	N	0.726718	0.343921	0.106765
H118	H	0.692961	0.406352	0.078345
N119	N	0.155505	0.398855	-0.000252
N120	N	0.116268	0.501265	-0.000253
H121	H	0.136835	0.585432	-0.000249
H122	H	0.046111	-0.048609	-0.000320
