data_functionalizedCrystal
_audit_creation_method	'MofGen! by Chris Wilmer'
_symmetry_space_group_name_H-M	'P1'
_symmetry_Int_Tables_number	1
_symmetry_cell_setting	triclinic
loop_
_symmetry_equiv_pos_as_xyz
  x,y,z
_cell_length_a	19.288867
_cell_length_b	18.366186
_cell_length_c	19.288865
_cell_angle_alpha	89.988521
_cell_angle_beta	83.136658
_cell_angle_gamma	89.992441
loop_
_atom_site_label
_atom_site_type_symbol
_atom_site_fract_x
_atom_site_fract_y
_atom_site_fract_z
O1	O	0.921352	-0.060532	0.086655
O2	O	0.719091	-0.060541	0.098343
O3	O	0.826066	-0.060522	-0.008631
O4	O	0.814377	-0.060551	0.193629
O5	O	0.826048	0.060578	-0.008637
O6	O	0.719073	0.060559	0.098337
O7	O	0.921334	0.060567	0.086650
Zn8	Zn	0.820201	0.079790	0.092493
Zn9	Zn	0.820224	-0.079764	0.092500
O10	O	0.814359	0.060548	0.193624
C11	C	0.693206	0.000008	0.097964
C12	C	0.616102	0.000006	0.096834
C13	C	0.825681	0.000030	-0.034510
C14	C	0.824552	0.000036	-0.111614
C15	C	0.060547	-0.065996	0.088701
C16	C	0.132994	-0.065999	0.089758
C17	C	0.169213	0.000012	0.090287
C18	C	0.132981	0.066031	0.089741
C19	C	0.060535	0.066032	0.088677
C20	C	0.278533	0.050579	0.132652
C21	C	0.350976	0.050575	0.133721
C22	C	0.392659	0.000012	0.093566
C23	C	0.361888	-0.050560	0.052352
C24	C	0.289443	-0.050559	0.051287
C25	C	0.247768	0.000019	0.091440
C26	C	0.507439	-0.066006	0.095253
C27	C	0.579889	-0.066006	0.096306
C28	C	0.579872	0.066026	0.096296
C29	C	0.507425	0.066024	0.095236
C30	C	0.471213	0.000006	0.094718
C31	C	0.947219	0.000016	0.087029
C32	C	1.024323	0.000014	0.088159
N33	N	0.820189	0.188681	0.092488
N34	N	0.820241	-0.188655	0.092499
C35	C	0.867573	0.226790	0.045143
C36	C	0.867578	0.303018	0.045140
C37	C	0.820205	0.341134	0.092493
C38	C	0.772812	0.303016	0.139842
C39	C	0.772804	0.226790	0.139839
C40	C	0.810907	0.461885	0.155781
C41	C	0.810919	0.538110	0.155785
C42	C	0.820224	0.576241	0.092502
C43	C	0.829532	0.538139	0.029213
C44	C	0.829524	0.461912	0.029210
C45	C	0.820208	0.423789	0.092502
C46	C	0.867616	0.697005	0.045150
C47	C	0.867615	0.773234	0.045146
C48	C	0.772853	0.773231	0.139854
C49	C	0.772850	0.697003	0.139852
C50	C	0.820235	0.658895	0.092501
C51	C	0.887320	0.000042	-0.156310
C52	C	0.886259	0.000031	-0.228757
C53	C	0.822427	0.000028	-0.256505
C54	C	0.759651	0.000018	-0.211799
C55	C	0.760713	0.000022	-0.139354
C56	C	0.772241	0.042444	-0.364795
C57	C	0.771181	0.042445	-0.437239
C58	C	0.819147	0.000011	-0.479951
C59	C	0.868185	-0.042413	-0.450210
C60	C	0.869247	-0.042408	-0.377765
C61	C	0.821268	0.000023	-0.335059
C62	C	0.880769	0.000004	-0.603202
C63	C	0.879706	-0.000012	-0.675650
C64	C	0.753096	-0.000018	-0.658691
C65	C	0.754161	-0.000009	-0.586245
C66	C	0.818000	0.000005	-0.558505
C67	C	0.814744	-0.000005	0.219503
C68	C	0.815873	-0.000016	0.296607
H69	H	0.031067	-0.119753	0.088276
H70	H	0.734218	0.195761	0.178394
H71	H	0.162493	-0.119754	0.090203
H72	H	0.906197	0.665976	0.006591
H73	H	0.734239	0.334054	0.178397
H74	H	0.909174	-0.076953	-0.353553
H75	H	0.907243	-0.076966	-0.484985
H76	H	0.932750	0.000012	-0.580616
H77	H	0.609382	-0.119761	0.096742
H78	H	0.837101	0.430892	-0.022322
H79	H	0.264392	-0.091735	0.017728
H80	H	0.477931	0.119777	0.094797
H81	H	0.930821	-0.000011	-0.712042
H82	H	0.709598	0.000017	-0.102962
H83	H	0.031042	0.119787	0.088238
H84	H	0.701123	-0.000024	-0.681283
H85	H	0.395824	-0.091736	0.019656
H86	H	0.906164	0.334051	0.006584
H87	H	0.803345	0.569127	0.207319
H88	H	0.939302	0.000052	-0.133729
H89	H	0.376022	0.091739	0.167297
H90	H	0.477953	-0.119761	0.094829
H91	H	0.803317	0.430844	0.207317
H92	H	0.707678	0.000014	-0.234396
H93	H	0.734269	0.665973	0.178408
H94	H	0.906155	0.195764	0.006585
H95	H	0.906199	0.804263	0.006588
H96	H	0.609361	0.119773	0.096724
H97	H	0.244601	0.091762	0.165348
H98	H	0.837109	0.569184	-0.022318
H99	H	0.734279	0.804265	0.178408
H100	H	0.703049	-0.000010	-0.549852
H101	H	0.937374	0.000033	-0.265155
H102	H	0.731249	0.076984	-0.461447
H103	H	0.162475	0.119778	0.090170
H104	H	0.733179	0.077002	-0.330024
