data_functionalizedCrystal
_audit_creation_method	'MofGen! by Chris Wilmer'
_symmetry_space_group_name_H-M	'P1'
_symmetry_Int_Tables_number	1
_symmetry_cell_setting	triclinic
loop_
_symmetry_equiv_pos_as_xyz
  x,y,z
_cell_length_a	8.497374
_cell_length_b	21.395362
_cell_length_c	21.395361
_cell_angle_alpha	89.953415
_cell_angle_beta	89.984309
_cell_angle_gamma	90.022954
loop_
_atom_site_label
_atom_site_type_symbol
_atom_site_fract_x
_atom_site_fract_y
_atom_site_fract_z
Zn1	Zn	0.892770	0.957730	0.249282
Zn2	Zn	1.392770	1.457730	0.749282
Zn3	Zn	0.628940	0.957670	0.354031
Zn4	Zn	1.128940	1.457670	0.854031
Zn5	Zn	0.628900	0.852983	0.249300
Zn6	Zn	1.128900	1.352983	0.749300
Zn7	Zn	0.892573	0.852914	0.354054
Zn8	Zn	1.392573	1.352914	0.854054
O9	O	0.760796	0.905324	0.301667
O10	O	1.260796	1.405324	0.801667
O11	O	0.857872	1.045400	0.263159
O12	O	1.357872	1.545400	0.763159
O13	O	0.408172	0.943788	0.340136
O14	O	0.908172	1.443788	0.840136
O15	O	0.663969	0.866931	0.161620
O16	O	1.163969	1.366931	0.661620
O17	O	0.664036	1.045356	0.340118
O18	O	1.164036	1.545356	0.840118
O19	O	0.857833	0.943888	0.161606
O20	O	1.357833	1.443888	0.661606
O21	O	0.408143	0.866874	0.263191
O22	O	0.908143	1.366874	0.763191
O23	O	0.663778	0.765296	0.263214
O24	O	1.163778	1.265296	0.763214
O25	O	1.113362	0.866814	0.340158
O26	O	1.613362	1.366814	0.840158
O27	O	0.857497	0.765245	0.340176
O28	O	1.357497	1.265245	0.840176
O29	O	1.113507	0.943821	0.263182
O30	O	1.613507	1.443821	0.763182
O31	O	0.663845	0.943721	0.441712
O32	O	1.163845	1.443721	0.941712
O33	O	0.857536	0.866756	0.441729
O34	O	1.357536	1.366756	0.941729
C35	C	0.760613	0.742537	0.301700
C36	C	1.260613	1.242537	0.801700
C37	C	0.760572	0.672895	0.301729
C38	C	1.260572	1.172895	0.801729
C39	C	0.861291	0.640172	0.341857
C40	C	1.361291	1.140172	0.841857
C41	C	0.861361	0.574737	0.341841
C42	C	1.361361	1.074737	0.841841
C43	C	0.760684	0.542027	0.301705
C44	C	1.260684	1.042027	0.801705
C45	C	0.659959	0.574758	0.261570
C46	C	1.159959	1.074758	0.761570
C47	C	0.659902	0.640192	0.261582
C48	C	1.159902	1.140192	0.761582
C49	C	0.618664	0.438323	0.296652
C50	C	1.118664	0.938323	0.796652
C51	C	0.618717	0.372890	0.296644
C52	C	1.118717	0.872890	0.796644
C53	C	0.760859	0.340206	0.301664
C54	C	1.260859	0.840206	0.801664
C55	C	0.902951	0.372964	0.306705
C56	C	1.402951	0.872964	0.806705
C57	C	0.902895	0.438398	0.306717
C58	C	1.402895	0.938398	0.806717
C59	C	0.760735	0.471075	0.301687
C60	C	1.260735	0.971075	0.801687
C61	C	0.861662	0.236531	0.341777
C62	C	1.361662	0.736531	0.841777
C63	C	0.861735	0.171094	0.341757
C64	C	1.361735	0.671094	0.841757
C65	C	0.660318	0.171117	0.261489
C66	C	1.160318	0.671117	0.761489
C67	C	0.660260	0.236552	0.261506
C68	C	1.160260	0.736552	0.761506
C69	C	0.760929	0.269255	0.301653
C70	C	1.260929	0.769255	0.801653
C71	C	0.760708	0.905241	0.464454
C72	C	1.260708	1.405241	0.964454
C73	C	0.760723	0.905263	0.534096
C74	C	1.260723	1.405263	1.034096
C75	C	1.172276	0.905320	0.301668
C76	C	1.672276	1.405320	0.801668
C77	C	1.350920	0.905321	0.301674
C78	C	1.850920	1.405321	0.801674
C79	C	0.760981	1.068747	0.301634
C80	C	1.260981	1.568747	0.801634
C81	C	0.761059	1.138389	0.301620
C82	C	1.261059	1.638389	0.801620
C83	C	0.760919	0.905424	0.138243
C84	C	1.260919	1.405424	0.638243
C85	C	0.760971	0.905467	0.068602
C86	C	1.260971	1.405467	0.568602
C87	C	0.659972	0.945374	0.566779
C88	C	1.159972	1.445374	1.066779
C89	C	0.660007	0.945403	0.632214
C90	C	1.160007	1.445403	1.132214
C91	C	0.760777	0.905310	0.664964
C92	C	1.260777	1.405310	1.164964
C93	C	0.861548	0.865197	0.632273
C94	C	1.361548	1.365197	1.132273
C95	C	0.861521	0.865173	0.566839
C96	C	1.361521	1.365173	1.066839
C97	C	0.773092	0.848894	0.768695
C98	C	1.273092	1.348894	1.268695
C99	C	0.773108	0.848917	0.834128
C100	C	1.273108	1.348917	1.334128
C101	C	0.760870	0.905383	0.866785
C102	C	1.260870	1.405383	1.366785
C103	C	0.748583	0.961830	0.834000
C104	C	1.248583	1.461830	1.334000
C105	C	0.748556	0.961806	0.768566
C106	C	1.248556	1.461806	1.268566
C107	C	0.760819	0.905332	0.735916
C108	C	1.260819	1.405332	1.235916
C109	C	0.660152	0.945529	0.970420
C110	C	1.160152	1.445529	1.470420
C111	C	0.660198	0.945559	1.035857
C112	C	1.160198	1.445559	1.535857
C113	C	0.861731	0.865347	1.035914
C114	C	1.361731	1.365347	1.535914
C115	C	0.861693	0.865323	0.970479
C116	C	1.361693	1.365323	1.470479
C117	C	0.760895	0.905413	0.937736
C118	C	1.260895	1.405413	1.437736
H119	H	1.018591	0.465066	0.310820
H120	H	1.518591	0.965066	0.810820
H121	H	0.503017	0.346224	0.292543
H122	H	1.003017	0.846224	0.792543
H123	H	0.943762	0.144452	0.374433
H124	H	1.443762	0.644452	0.874433
H125	H	1.018697	0.346354	0.310792
H126	H	1.518697	0.846354	0.810792
H127	H	0.578353	0.144485	0.228807
H128	H	1.078353	0.644485	0.728807
Cl129	Cl	0.988225	0.277646	0.392243
Cl130	Cl	1.488225	0.777646	0.892243
H131	H	0.577990	0.548122	0.228889
H132	H	1.077990	1.048122	0.728889
Cl133	Cl	0.733125	1.032764	0.727353
Cl134	Cl	1.233125	1.532764	1.227353
Cl135	Cl	0.533336	0.995831	0.673311
Cl136	Cl	1.033336	1.495831	1.173311
H137	H	0.783097	0.802954	0.860816
H138	H	1.283097	1.302954	1.360816
Cl139	Cl	0.533629	0.277692	0.211058
Cl140	Cl	1.033629	0.777692	0.711058
Cl141	Cl	0.733181	1.032821	0.875046
Cl142	Cl	1.233181	1.532821	1.375046
H143	H	0.502907	0.464929	0.292561
H144	H	1.002907	0.964929	0.792561
Cl145	Cl	0.788478	0.777900	0.727648
Cl146	Cl	1.288478	1.277900	1.227648
Cl147	Cl	0.533273	0.681332	0.211132
Cl148	Cl	1.033273	1.181332	0.711132
H149	H	0.578080	0.978175	0.943760
H150	H	1.078080	1.478175	1.443760
H151	H	0.943727	0.832658	0.943866
H152	H	1.443727	1.332658	1.443866
Cl153	Cl	0.533538	0.995994	1.076945
Cl154	Cl	1.033538	1.495994	1.576945
Cl155	Cl	0.533278	0.995782	0.525620
Cl156	Cl	1.033278	1.495782	1.025620
Cl157	Cl	0.988189	0.814743	0.525749
Cl158	Cl	1.488189	1.314743	1.025749
H159	H	0.943599	0.832554	0.658942
H160	H	1.443599	1.332554	1.158942
Cl161	Cl	0.987854	0.681281	0.392325
Cl162	Cl	1.487854	1.181281	0.892325
Cl163	Cl	0.987988	0.533590	0.392291
Cl164	Cl	1.487988	1.033590	0.892291
H165	H	0.943787	0.832706	1.062578
H166	H	1.443787	1.332706	1.562578
