data_functionalizedCrystal
_audit_creation_method	'MofGen! by Chris Wilmer'
_symmetry_space_group_name_H-M	'P1'
_symmetry_Int_Tables_number	1
_symmetry_cell_setting	triclinic
loop_
_symmetry_equiv_pos_as_xyz
  x,y,z
_cell_length_a	25.639233
_cell_length_b	12.645331
_cell_length_c	12.645330
_cell_angle_alpha	90.016671
_cell_angle_beta	90.011740
_cell_angle_gamma	90.013590
loop_
_atom_site_label
_atom_site_type_symbol
_atom_site_fract_x
_atom_site_fract_y
_atom_site_fract_z
Zn1	Zn	-0.295648	-1.620636	0.422197
Zn2	Zn	-0.208223	-1.620546	0.599445
Zn3	Zn	-0.208225	-1.443379	0.422192
Zn4	Zn	-0.295626	-1.443332	0.599416
O5	O	-0.251931	-1.531973	0.510813
O6	O	-0.284059	-1.768971	0.445723
O7	O	-0.135058	-1.597026	0.575942
O8	O	-0.219832	-1.466950	0.273846
O9	O	-0.219829	-1.768905	0.575946
O10	O	-0.284061	-1.597180	0.273849
O11	O	-0.135060	-1.466862	0.445715
O12	O	-0.219811	-1.295025	0.445688
O13	O	-0.368794	-1.466871	0.575898
O14	O	-0.284024	-1.294991	0.575893
O15	O	-0.368810	-1.597135	0.445696
O16	O	-0.219807	-1.596981	0.747788
O17	O	-0.284022	-1.466783	0.747767
C18	C	-0.251916	-1.256544	0.510787
C19	C	-0.251921	-1.138714	0.510802
C20	C	-0.388304	-1.532008	0.510794
C21	C	-0.446418	-1.532022	0.510786
C22	C	-0.251923	-1.531896	0.786242
C23	C	-0.251938	-1.531960	0.904072
C24	C	-0.806795	-1.599937	0.442789
C25	C	-0.861399	-1.599950	0.442759
O26	O	-0.889648	-1.657608	0.385070
N27	N	-0.888700	-1.532139	0.510538
C28	C	-0.861394	-1.464303	0.578342
O29	O	-0.889630	-1.406625	0.635989
C30	C	-0.806791	-1.464285	0.578365
C31	C	-0.779493	-1.532108	0.510590
C32	C	-0.779497	-1.667753	0.375018
C33	C	-0.724896	-1.667741	0.375049
C34	C	-0.697594	-1.599913	0.442850
C35	C	-0.724892	-1.532096	0.510621
C36	C	-0.779486	-1.396445	0.646163
C37	C	-0.724879	-1.396432	0.646180
C38	C	-0.697581	-1.464255	0.578405
C39	C	-0.642989	-1.464256	0.578453
N40	N	-0.615688	-1.532067	0.510675
C41	C	-0.642991	-1.599895	0.442874
C42	C	-0.976065	-1.464344	0.578287
C43	C	-1.030667	-1.464366	0.578270
C44	C	-1.030669	-1.600012	0.442685
C45	C	-0.976065	-1.599994	0.442708
C46	C	-0.948764	-1.532155	0.510508
C47	C	-0.528325	-1.599866	0.442944
C48	C	-0.473720	-1.599851	0.442985
C49	C	-0.473724	-1.464202	0.578565
C50	C	-0.528324	-1.464220	0.578529
C51	C	-0.555624	-1.532055	0.510710
O52	O	-0.614706	-1.406624	0.636110
O53	O	-0.614748	-1.657553	0.385226
C54	C	-0.116088	-1.532000	0.510755
C55	C	-0.057974	-1.532191	0.510464
C56	C	-0.251946	-1.808479	0.510839
C57	C	-0.251953	-1.926309	0.510850
C58	C	-0.211748	-0.971136	0.428513
C59	C	-0.211571	-1.093695	0.428726
C60	C	-0.236872	-1.094198	0.622469
C61	C	-0.236597	-0.971600	0.622020
C62	C	-0.307300	-0.971546	0.482487
C63	C	-0.306993	-1.094152	0.479992
C64	C	-0.251949	-1.532080	0.234307
C65	C	-0.251957	-1.532125	0.116477
C66	C	-0.292460	-1.450390	1.071667
C67	C	-0.292329	-1.449973	0.949108
C68	C	-0.196836	-1.501732	0.948640
C69	C	-0.197082	-1.501234	1.071239
C70	C	-0.266070	-1.644256	1.071170
C71	C	-0.267275	-1.643568	0.948564
H72	H	-0.451496	-1.655084	0.387793
H73	H	-0.953840	-1.409100	0.633503
Cl74	Cl	-0.328431	-0.923844	0.358962
Cl75	Cl	-0.355717	-1.141460	0.565835
Cl76	Cl	-0.174127	-0.927388	0.659155
Cl77	Cl	-0.355750	-1.479309	1.117111
H78	H	-0.451484	-1.408981	0.633770
Cl79	Cl	-0.690586	-1.753001	0.289833
H80	H	-0.550546	-1.655100	0.387717
H81	H	-0.221080	-0.941668	0.345458
H82	H	-0.801720	-1.722988	0.319800
Cl83	Cl	-0.280666	-1.139204	0.719716
H84	H	-0.307827	-1.666364	0.919433
Cl85	Cl	-0.279832	-0.925812	0.719943
Cl86	Cl	-0.941753	-1.685258	0.357500
Cl87	Cl	-0.278220	-1.322849	1.119389
H88	H	-0.170556	-1.122986	0.447470
Cl89	Cl	-0.175071	-1.141540	0.660251
Cl90	Cl	-0.324522	-1.139099	0.353131
H91	H	-0.184665	-1.420619	0.918022
H92	H	-1.052908	-1.655239	0.387475
Cl93	Cl	-0.226133	-1.140169	0.300878
Cl94	Cl	-1.064978	-1.379116	0.663493
Cl95	Cl	-0.277896	-1.321626	0.903955
H96	H	-0.702653	-1.341177	0.701381
Cl97	Cl	-0.148798	-0.923510	0.457110
Cl98	Cl	-0.353551	-0.926790	0.575074
Cl99	Cl	-0.355411	-1.479164	0.902577
Cl100	Cl	-0.813790	-1.311179	0.731376
Cl101	Cl	-0.148898	-1.589146	1.117012
Cl102	Cl	-0.562643	-1.378962	0.663738
Cl103	Cl	-0.327051	-1.686834	1.118817
H104	H	-0.185127	-1.419266	1.099923
Cl105	Cl	-0.148969	-1.590729	0.903605
H106	H	-0.236571	-1.705151	1.100146
Cl107	Cl	-0.225050	-1.742544	0.901218
