data_functionalizedCrystal
_audit_creation_method	'MofGen! by Chris Wilmer'
_symmetry_space_group_name_H-M	'P1'
_symmetry_Int_Tables_number	1
_symmetry_cell_setting	triclinic
loop_
_symmetry_equiv_pos_as_xyz
  x,y,z
_cell_length_a	10.540539
_cell_length_b	9.016244
_cell_length_c	10.540558
_cell_angle_alpha	90.004604
_cell_angle_beta	95.470697
_cell_angle_gamma	90.005301
loop_
_atom_site_label
_atom_site_type_symbol
_atom_site_fract_x
_atom_site_fract_y
_atom_site_fract_z
O1	O	1.685905	0.123246	-0.178894
O2	O	1.316493	0.123262	-0.195750
O3	O	1.509615	0.123269	-0.002617
O4	O	1.492783	0.123238	-0.372027
O5	O	1.509586	-0.123412	-0.002621
O6	O	1.316465	-0.123419	-0.195754
O7	O	1.685877	-0.123435	-0.178898
Cu8	Cu	1.501168	-0.145951	-0.187326
Cu9	Cu	1.501202	0.145778	-0.187321
O10	O	1.492755	-0.123442	-0.372031
C11	C	1.269176	-0.000076	-0.194488
C12	C	1.128228	-0.000069	-0.190706
N13	N	1.501154	-0.351137	-0.187329
C14	C	0.944791	-0.000633	-0.045790
C15	C	1.091409	-0.000062	-0.049623
C16	C	1.066576	0.140787	-0.258598
C17	C	0.920031	0.140890	-0.253783
C18	C	0.919510	-0.139633	-0.256658
C19	C	1.066492	-0.141479	-0.257958
C20	C	1.397529	-0.586174	-0.290296
C21	C	1.397759	-0.414283	-0.290682
C22	C	1.633879	-0.413484	-0.217462
C23	C	1.633313	-0.585429	-0.218192
C24	C	1.473371	-0.585668	-0.053892
C25	C	1.470326	-0.413714	-0.054757
C26	C	1.733194	-0.000094	-0.180160
C27	C	1.874142	-0.000091	-0.183942
C28	C	1.508333	-0.000064	0.044684
C29	C	1.504542	-0.000042	0.185631
N30	N	1.501226	0.350964	-0.187308
C31	C	1.359613	0.000536	0.369056
C32	C	1.363456	-0.000034	0.222439
C33	C	1.572417	-0.140907	0.247285
C34	C	1.567592	-0.141011	0.393829
C35	C	1.570494	0.139511	0.394352
C36	C	1.571804	0.141359	0.247371
C37	C	1.494020	-0.000082	0.580667
C38	C	1.497761	-0.000023	0.439714
H39	H	1.134008	-0.101033	0.003797
H40	H	1.672395	0.140458	0.441577
Br41	Br	0.866913	-0.317589	-0.180559
Br42	Br	0.897116	-0.169001	0.047107
H43	H	1.088936	0.146019	-0.362205
H44	H	1.107439	-0.245684	-0.208360
Br45	Br	1.273766	-0.168616	0.152828
H46	H	1.517400	-0.246307	0.422026
Br47	Br	1.426997	-0.658145	-0.454349
H48	H	1.109173	0.245623	-0.211432
Br49	Br	1.673917	-0.652272	-0.380424
Br50	Br	0.894449	0.166796	0.046730
H51	H	1.712950	-0.627009	-0.146203
H52	H	1.524843	0.246284	0.425906
H53	H	1.540847	-0.370734	0.025564
Br54	Br	1.745108	-0.149657	0.210035
H55	H	1.548978	-0.626317	0.022762
H56	H	1.090724	-0.149993	-0.360816
Br57	Br	0.840812	-0.141234	-0.426503
Br58	Br	1.274438	0.168269	0.151427
H59	H	1.525244	-0.245737	0.204684
Br60	Br	1.266731	0.168919	0.416720
Br61	Br	1.233365	-0.344021	-0.260550
Br62	Br	1.232631	-0.655110	-0.260522
Br63	Br	1.765641	-0.345319	-0.095852
H64	H	1.372686	-0.372965	-0.031916
Br65	Br	1.160964	0.168829	0.039648
H66	H	1.378632	-0.629109	-0.025213
H67	H	1.415665	-0.373145	-0.389665
Br68	Br	1.266805	-0.166369	0.420007
H69	H	1.669054	-0.147402	0.441797
Br70	Br	1.675397	-0.341704	-0.377862
Br71	Br	1.489735	0.315077	0.178450
H72	H	1.674667	0.149859	0.223150
H73	H	0.891829	0.246189	-0.203601
H74	H	0.872069	0.147275	-0.355247
