data_functionalizedCrystal
_audit_creation_method	'MofGen! by Chris Wilmer'
_symmetry_space_group_name_H-M	'P1'
_symmetry_Int_Tables_number	1
_symmetry_cell_setting	triclinic
loop_
_symmetry_equiv_pos_as_xyz
  x,y,z
_cell_length_a	8.559649
_cell_length_b	8.597304
_cell_length_c	7.681481
_cell_angle_alpha	76.508647
_cell_angle_beta	94.913240
_cell_angle_gamma	77.624695
loop_
_atom_site_label
_atom_site_type_symbol
_atom_site_fract_x
_atom_site_fract_y
_atom_site_fract_z
O1	O	2.105024	-0.037138	-0.140767
O2	O	1.639817	0.045183	-0.153263
O3	O	1.885144	-0.229575	-0.111572
O4	O	1.859697	0.237620	-0.182458
O5	O	1.915339	-0.263461	0.186427
O6	O	1.670013	0.011297	0.144736
O7	O	2.135220	-0.071024	0.157232
Zn8	Zn	1.907410	-0.035244	0.198298
Zn9	Zn	1.867626	0.009403	-0.194329
O10	O	1.889893	0.203734	0.115541
C11	C	1.595385	0.034479	-0.005211
C12	C	1.418004	0.053049	-0.008031
C13	C	1.899191	-0.305775	0.046415
C14	C	1.896043	-0.482340	0.073193
C15	C	2.179651	-0.060319	0.009176
C16	C	2.357031	-0.078888	0.011985
C17	C	1.875845	0.279934	-0.042449
C18	C	1.878992	0.456501	-0.069239
N19	N	1.934574	-0.065716	0.466256
N20	N	1.840476	0.039861	-0.462285
H21	H	1.334494	0.180221	-0.027336
H22	H	2.030646	-0.173478	0.557813
Br23	Br	1.496197	-0.290842	0.044127
H24	H	1.908215	-0.565062	0.215641
H25	H	1.866798	-0.460781	-0.211679
Br26	Br	1.680375	0.219485	0.385130
