data_functionalizedCrystal
_audit_creation_method	'MofGen! by Chris Wilmer'
_symmetry_space_group_name_H-M	'P1'
_symmetry_Int_Tables_number	1
_symmetry_cell_setting	triclinic
loop_
_symmetry_equiv_pos_as_xyz
  x,y,z
_cell_length_a	16.959455
_cell_length_b	16.959453
_cell_length_c	16.959447
_cell_angle_alpha	89.968904
_cell_angle_beta	89.979626
_cell_angle_gamma	90.021841
loop_
_atom_site_label
_atom_site_type_symbol
_atom_site_fract_x
_atom_site_fract_y
_atom_site_fract_z
Zn1	Zn	1.208358	-0.314729	-0.447032
Zn2	Zn	1.541691	0.018605	-0.113699
Zn3	Zn	1.875024	0.351938	0.219635
Zn4	Zn	1.208269	-0.446921	-0.314852
Zn5	Zn	1.541603	-0.113588	0.018482
Zn6	Zn	1.874936	0.219745	0.351815
Zn7	Zn	1.076186	-0.314754	-0.314856
Zn8	Zn	1.409520	0.018580	0.018478
Zn9	Zn	1.742853	0.351913	0.351811
Zn10	Zn	1.076140	-0.446862	-0.446976
Zn11	Zn	1.409473	-0.113529	-0.113643
Zn12	Zn	1.742807	0.219804	0.219690
O13	O	1.142238	-0.380817	-0.380929
O14	O	1.475572	-0.047483	-0.047596
O15	O	1.808905	0.285850	0.285738
O16	O	1.318957	-0.332279	-0.429520
O17	O	1.652290	0.001055	-0.096186
O18	O	1.985624	0.334388	0.237147
O19	O	1.190731	-0.429424	-0.204241
O20	O	1.524064	-0.096091	0.129092
O21	O	1.857397	0.237243	0.462425
O22	O	1.093775	-0.204140	-0.332414
O23	O	1.427109	0.129194	0.000919
O24	O	1.760442	0.462527	0.334253
O25	O	1.318892	-0.429400	-0.332407
O26	O	1.652225	-0.096066	0.000926
O27	O	1.985559	0.237267	0.334259
O28	O	1.190881	-0.204121	-0.429524
O29	O	1.524215	0.129212	-0.096190
O30	O	1.857548	0.462545	0.237143
O31	O	1.093690	-0.332321	-0.204244
O32	O	1.427023	0.001012	0.129089
O33	O	1.760356	0.334346	0.462423
O34	O	0.965569	-0.332264	-0.332360
O35	O	1.298903	0.001069	0.000973
O36	O	1.632236	0.334403	0.334307
O37	O	1.093697	-0.429299	-0.557595
O38	O	1.427030	-0.095966	-0.224261
O39	O	1.760363	0.237367	0.109072
O40	O	0.965535	-0.429324	-0.429429
O41	O	1.298869	-0.095990	-0.096095
O42	O	1.632202	0.237343	0.237238
O43	O	1.190836	-0.332221	-0.557636
O44	O	1.524170	0.001112	-0.224302
O45	O	1.857503	0.334445	0.109031
O46	O	1.190686	-0.557524	-0.332353
O47	O	1.524019	-0.224191	0.000980
O48	O	1.857352	0.109142	0.334313
O49	O	1.093611	-0.557481	-0.429425
O50	O	1.426944	-0.224148	-0.096091
O51	O	1.760277	0.109186	0.237242
C52	C	0.936872	-0.380791	-0.380889
C53	C	1.270205	-0.047457	-0.047556
C54	C	1.603539	0.285876	0.285778
C55	C	0.849015	-0.380799	-0.380891
C56	C	1.182349	-0.047465	-0.047557
C57	C	1.515682	0.285868	0.285776
C58	C	0.477495	-0.431337	-0.330337
C59	C	0.810829	-0.098004	0.002997
C60	C	1.144162	0.235329	0.336330
C61	C	0.477584	-0.330361	-0.431617
C62	C	0.810918	0.002972	-0.098284
C63	C	1.144251	0.336305	0.235049
C64	C	0.560130	-0.330348	-0.431598
C65	C	0.893464	0.002985	-0.098265
C66	C	1.226797	0.336318	0.235069
C67	C	0.601362	-0.380831	-0.380948
C68	C	0.934696	-0.047498	-0.047615
C69	C	1.268029	0.285835	0.285718
C70	C	0.560049	-0.431328	-0.330318
C71	C	0.893382	-0.097994	0.003016
C72	C	1.226716	0.235339	0.336349
C73	C	0.601450	-0.279859	-0.482233
C74	C	0.934783	0.053475	-0.148900
C75	C	1.268117	0.386808	0.184433
C76	C	0.684001	-0.279844	-0.482217
C77	C	1.017334	0.053489	-0.148884
C78	C	1.350668	0.386823	0.184450
C79	C	0.725235	-0.330324	-0.431562
C80	C	1.058568	0.003009	-0.098229
C81	C	1.391901	0.336343	0.235104
C82	C	0.683916	-0.380822	-0.380929
C83	C	1.017249	-0.047488	-0.047596
C84	C	1.350583	0.285845	0.285738
C85	C	0.725148	-0.431305	-0.330279
C86	C	1.058482	-0.097971	0.003054
C87	C	1.391815	0.235362	0.336387
C88	C	0.683831	-0.481799	-0.279641
C89	C	1.017164	-0.148466	0.053692
C90	C	1.350498	0.184868	0.387025
C91	C	0.601283	-0.481807	-0.279663
C92	C	0.934616	-0.148474	0.053670
C93	C	1.267949	0.184859	0.387003
C94	C	0.807783	-0.330316	-0.431541
C95	C	1.141116	0.003018	-0.098207
C96	C	1.474450	0.336351	0.235126
C97	C	0.807702	-0.431295	-0.330260
C98	C	1.141035	-0.097962	0.003073
C99	C	1.474368	0.235372	0.336406
C100	C	1.142155	-0.586183	-0.380900
C101	C	1.475488	-0.252849	-0.047567
C102	C	1.808822	0.080484	0.285767
C103	C	1.142192	-0.674039	-0.380914
C104	C	1.475525	-0.340706	-0.047580
C105	C	1.808858	-0.007373	0.285753
C106	C	1.091624	-0.715320	-0.431419
C107	C	1.424958	-0.381987	-0.098085
C108	C	1.758291	-0.048653	0.235248
C109	C	1.192798	-0.715312	-0.330427
C110	C	1.526132	-0.381979	0.002907
C111	C	1.859465	-0.048646	0.336240
C112	C	1.192838	-0.797858	-0.330441
C113	C	1.526171	-0.464525	0.002892
C114	C	1.859504	-0.131192	0.336226
C115	C	1.142270	-0.839139	-0.380946
C116	C	1.475604	-0.505805	-0.047612
C117	C	1.808937	-0.172472	0.285721
C118	C	1.091664	-0.797873	-0.431436
C119	C	1.424997	-0.464540	-0.098103
C120	C	1.758330	-0.131207	0.235230
C121	C	1.243449	-0.839130	-0.279957
C122	C	1.576782	-0.505797	0.053376
C123	C	1.910115	-0.172463	0.386710
C124	C	1.243491	-0.921681	-0.279970
C125	C	1.576824	-0.588347	0.053363
C126	C	1.910157	-0.255014	0.386697
C127	C	1.192919	-0.962963	-0.330471
C128	C	1.526252	-0.629629	0.002862
C129	C	1.859585	-0.296296	0.336195
C130	C	1.142310	-0.921692	-0.380963
C131	C	1.475643	-0.588359	-0.047630
C132	C	1.808976	-0.255026	0.285703
C133	C	1.091742	-0.962973	-0.431468
C134	C	1.425076	-0.629639	-0.098135
C135	C	1.758409	-0.296306	0.235198
C136	C	1.041129	-0.921704	-0.481957
C137	C	1.374462	-0.588370	-0.148623
C138	C	1.707795	-0.255037	0.184710
C139	C	1.041092	-0.839155	-0.481938
C140	C	1.374425	-0.505822	-0.148604
C141	C	1.707759	-0.172489	0.184729
C142	C	1.192955	-1.045511	-0.330490
C143	C	1.526289	-0.712178	0.002843
C144	C	1.859622	-0.378845	0.336176
C145	C	1.091782	-1.045526	-0.431486
C146	C	1.425115	-0.712193	-0.098152
C147	C	1.758448	-0.378860	0.235181
C148	C	1.348406	-0.380843	-0.380969
C149	C	1.681740	-0.047510	-0.047636
C150	C	2.015073	0.285824	0.285697
C151	C	1.436263	-0.380854	-0.380987
C152	C	1.769596	-0.047521	-0.047653
C153	C	2.102930	0.285812	0.285680
C154	C	1.142271	-0.380751	-0.587097
C155	C	1.475605	-0.047418	-0.253764
C156	C	1.808938	0.285916	0.079569
C157	C	1.142285	-0.380723	-0.674954
C158	C	1.475619	-0.047390	-0.341621
C159	C	1.808952	0.285943	-0.008287
C160	C	1.142343	-0.174648	-0.380975
C161	C	1.475677	0.158685	-0.047642
C162	C	1.809010	0.492018	0.285691
C163	C	1.142388	-0.086792	-0.380995
C164	C	1.475722	0.246542	-0.047662
C165	C	1.809055	0.579875	0.285671
C166	C	1.091803	-0.431184	-1.046411
C167	C	1.425137	-0.097850	-0.713078
C168	C	1.758470	0.235483	-0.379744
C169	C	1.192956	-0.330096	-1.046449
C170	C	1.526289	0.003237	-0.713115
C171	C	1.859623	0.336571	-0.379782
C172	C	1.192935	-0.330113	-0.963903
C173	C	1.526268	0.003221	-0.630569
C174	C	1.859602	0.336554	-0.297236
C175	C	1.142348	-0.380667	-0.922607
C176	C	1.475681	-0.047333	-0.589274
C177	C	1.809015	0.286000	-0.255940
C178	C	1.091782	-0.431204	-0.963857
C179	C	1.425116	-0.097870	-0.630524
C180	C	1.758449	0.235463	-0.297191
C181	C	1.243505	-0.279582	-0.922646
C182	C	1.576839	0.053751	-0.589313
C183	C	1.910172	0.387085	-0.255980
C184	C	1.243487	-0.279597	-0.840095
C185	C	1.576820	0.053736	-0.506762
C186	C	1.910154	0.387069	-0.173429
C187	C	1.192896	-0.330148	-0.798798
C188	C	1.526229	0.003185	-0.465465
C189	C	1.859562	0.336519	-0.132131
C190	C	1.142327	-0.380687	-0.840053
C191	C	1.475661	-0.047353	-0.506720
C192	C	1.808994	0.285980	-0.173387
C193	C	1.091740	-0.431240	-0.798758
C194	C	1.425074	-0.097907	-0.465424
C195	C	1.758407	0.235426	-0.132091
C196	C	1.041167	-0.481776	-0.840012
C197	C	1.374501	-0.148442	-0.506678
C198	C	1.707834	0.184891	-0.173345
C199	C	1.041191	-0.481754	-0.922560
C200	C	1.374524	-0.148421	-0.589227
C201	C	1.707858	0.184912	-0.255893
C202	C	1.192872	-0.330169	-0.716250
C203	C	1.526205	0.003164	-0.382916
C204	C	1.859539	0.336497	-0.049583
C205	C	1.091719	-0.431260	-0.716204
C206	C	1.425053	-0.097927	-0.382871
C207	C	1.758386	0.235406	-0.049538
C208	C	1.142251	-0.380825	-0.175563
C209	C	1.475584	-0.047491	0.157771
C210	C	1.808918	0.285842	0.491104
C211	C	1.142390	-0.380630	-0.087707
C212	C	1.475723	-0.047297	0.245627
C213	C	1.809057	0.286037	0.578960
H214	H	0.444008	-0.289265	-0.472858
H215	H	0.777341	0.044069	-0.139525
H216	H	1.110675	0.377402	0.193808
H217	H	1.234146	-0.288942	-1.080076
H218	H	1.567479	0.044392	-0.746743
H219	H	1.900812	0.377725	-0.413410
F220	F	0.851752	-0.276584	-0.485433
F221	F	1.185086	0.056750	-0.152099
F222	F	1.518419	0.390083	0.181234
H223	H	1.050626	-0.472326	-1.080003
H224	H	1.383959	-0.138993	-0.746670
H225	H	1.717293	0.194341	-0.413337
F226	F	0.987318	-0.965647	-0.535711
F227	F	1.320651	-0.632314	-0.202378
F228	F	1.653985	-0.298980	0.130956
F229	F	0.987335	-0.535581	-0.796052
F230	F	1.320668	-0.202248	-0.462719
F231	F	1.654002	0.131086	-0.129386
F232	F	0.557564	-0.226144	-0.536144
F233	F	0.890897	0.107189	-0.202810
F234	F	1.224231	0.440523	0.130523
F235	F	1.297268	-0.795193	-0.226217
F236	F	1.630602	-0.461859	0.107117
F237	F	1.963935	-0.128526	0.440450
F238	F	1.037956	-1.089454	-0.485237
F239	F	1.371289	-0.756120	-0.151904
F240	F	1.704622	-0.422787	0.181429
F241	F	1.297309	-0.225812	-0.796197
F242	F	1.630642	0.107521	-0.462864
F243	F	1.963975	0.440854	-0.129530
H244	H	0.717634	-0.238728	-0.523449
H245	H	1.050968	0.094605	-0.190116
H246	H	1.384301	0.427938	0.143218
F247	F	0.987375	-0.535535	-0.966470
F248	F	1.320709	-0.202202	-0.633137
F249	F	1.654042	0.131131	-0.299804
F250	F	1.297345	-0.225788	-0.966600
F251	F	1.630678	0.107545	-0.633266
F252	F	1.964012	0.440878	-0.299933
H253	H	0.567635	-0.522917	-0.238436
H254	H	0.900968	-0.189583	0.094897
H255	H	1.234302	0.143750	0.428230
F256	F	1.297356	-0.965595	-0.226235
F257	F	1.630690	-0.632262	0.107098
F258	F	1.964023	-0.298928	0.440431
F259	F	1.037873	-0.485064	-0.672261
F260	F	1.371206	-0.151731	-0.338927
F261	F	1.704539	0.181602	-0.005594
F262	F	1.246696	-0.276395	-0.672348
F263	F	1.580029	0.056938	-0.339015
F264	F	1.913363	0.390272	-0.005681
F265	F	1.246822	-1.089429	-0.276765
F266	F	1.580156	-0.756096	0.056568
F267	F	1.913489	-0.422762	0.389902
H268	H	0.841267	-0.472402	-0.289012
H269	H	1.174601	-0.139069	0.044322
H270	H	1.507934	0.194264	0.377655
F271	F	0.727723	-0.535530	-0.225743
F272	F	1.061056	-0.202197	0.107591
F273	F	1.394390	0.131137	0.440924
H274	H	0.443851	-0.472446	-0.289106
H275	H	0.777185	-0.139113	0.044227
H276	H	1.110518	0.194220	0.377560
F277	F	1.037760	-0.671399	-0.485149
F278	F	1.371093	-0.338066	-0.151816
F279	F	1.704427	-0.004733	0.181518
F280	F	1.246618	-0.671377	-0.276685
F281	F	1.579951	-0.338044	0.056649
F282	F	1.913285	-0.004710	0.389982
F283	F	0.987236	-0.795229	-0.535672
F284	F	1.320570	-0.461896	-0.202339
F285	F	1.653903	-0.128562	0.130994
