data_functionalizedCrystal
_audit_creation_method	'MofGen! by Chris Wilmer'
_symmetry_space_group_name_H-M	'P1'
_symmetry_Int_Tables_number	1
_symmetry_cell_setting	triclinic
loop_
_symmetry_equiv_pos_as_xyz
  x,y,z
_cell_length_a	14.971482
_cell_length_b	10.654551
_cell_length_c	14.048226
_cell_angle_alpha	89.996418
_cell_angle_beta	89.994098
_cell_angle_gamma	84.048985
loop_
_atom_site_label
_atom_site_type_symbol
_atom_site_fract_x
_atom_site_fract_y
_atom_site_fract_z
O1	O	1.187840	0.163637	-0.079142
O2	O	0.927546	0.183240	-0.079146
O3	O	1.063677	-0.009365	-0.079145
O4	O	1.051709	0.356242	-0.079144
O5	O	1.063661	-0.009377	0.079177
O6	O	0.927530	0.183229	0.079175
O7	O	1.187823	0.163625	0.079179
Zn8	Zn	1.057674	0.173425	0.104314
Zn9	Zn	1.057696	0.173440	-0.104281
O10	O	1.051692	0.356230	0.079178
C11	C	0.894208	0.182358	0.000014
C12	C	0.794897	0.179734	0.000012
C13	C	0.748236	0.178491	0.086314
C14	C	0.654924	0.176005	0.086315
C15	C	0.608274	0.174770	0.000013
C16	C	0.654941	0.176009	-0.086295
C17	C	0.748252	0.178486	-0.086295
C18	C	0.460451	0.170849	-0.086289
C19	C	0.367133	0.168374	-0.086290
C20	C	0.367123	0.168368	0.086321
C21	C	0.460434	0.170845	0.086321
C22	C	0.507095	0.172086	0.000012
C23	C	1.062790	-0.056159	0.000014
C24	C	1.060160	-0.195574	0.000007
C25	C	1.058936	-0.261067	-0.086292
C26	C	1.056457	-0.392061	-0.086287
C27	C	1.056431	-0.392058	0.086323
C28	C	1.058904	-0.261066	0.086318
C29	C	1.058954	-0.261070	-0.185947
C30	C	1.056475	-0.392064	-0.185943
C31	C	1.221161	0.164507	0.000017
C32	C	1.320473	0.167131	0.000012
C33	C	1.052580	0.403025	0.000017
C34	C	1.055209	0.542439	0.000017
N35	N	1.057665	0.173414	0.246675
N36	N	1.057711	0.173441	-0.246642
C37	C	1.117964	0.088164	0.296493
C38	C	1.117970	0.088163	0.396151
C39	C	1.057681	0.173420	0.445988
C40	C	0.997377	0.258674	0.396163
C41	C	0.997367	0.258668	0.296507
C42	C	0.997402	0.258683	0.603877
C43	C	0.997413	0.258691	0.703539
C44	C	1.118005	0.088179	0.703521
C45	C	1.117995	0.088172	0.603865
C46	C	1.057692	0.173429	0.554047
H47	H	0.498439	0.171860	-0.156571
H48	H	1.167091	0.018756	0.563288
H49	H	1.118292	-0.439016	-0.224205
H50	H	1.167068	0.018745	0.436713
N51	N	1.182995	-0.003785	0.242744
H52	H	1.221193	-0.057792	0.289430
H53	H	1.148408	-0.059387	0.201408
N54	N	0.932398	0.350655	0.757296
H55	H	0.894192	0.404662	0.710616
H56	H	0.892569	0.302491	0.798666
N57	N	1.145367	-0.222831	-0.226914
H58	H	1.131541	-0.166925	-0.284217
H59	H	1.177118	-0.175300	-0.177210
N60	N	0.510752	0.172196	0.179401
H61	H	0.467036	0.171033	0.234078
H62	H	0.556242	0.095434	0.183162
N63	N	1.183051	-0.003776	0.757247
H64	H	1.173908	0.009158	0.827941
H65	H	1.172173	-0.092893	0.739835
H66	H	0.948284	0.328087	0.436746
N67	N	0.932358	0.350630	0.550140
H68	H	0.894168	0.404645	0.596832
H69	H	0.966939	0.406225	0.508779
H70	H	0.948265	0.328086	0.255945
N71	N	0.316794	0.167016	0.179408
H72	H	0.338936	0.088763	0.216558
H73	H	0.327279	0.244413	0.217638
H74	H	0.991244	-0.420928	-0.216875
H75	H	0.786212	0.179507	0.156591
H76	H	0.616939	0.174972	0.156591
N77	N	0.977082	-0.198855	-0.236616
H78	H	0.996496	-0.149704	-0.293111
H79	H	0.938789	-0.265643	-0.259163
H80	H	0.616951	0.174995	-0.156564
N81	N	0.316805	0.167036	-0.179364
H82	H	0.326272	0.245253	-0.217104
H83	H	0.339834	0.089623	-0.217016
N84	N	0.798584	0.179817	-0.179378
H85	H	0.754874	0.178659	-0.234050
H86	H	0.830531	0.258633	-0.183141
H87	H	1.059896	-0.207746	0.156591
H88	H	1.055407	-0.445397	0.156594
