data_functionalizedCrystal
_audit_creation_method	'MofGen! by Chris Wilmer'
_symmetry_space_group_name_H-M	'P1'
_symmetry_Int_Tables_number	1
_symmetry_cell_setting	triclinic
loop_
_symmetry_equiv_pos_as_xyz
  x,y,z
_cell_length_a	11.792241
_cell_length_b	10.268362
_cell_length_c	11.792240
_cell_angle_alpha	89.984887
_cell_angle_beta	84.193417
_cell_angle_gamma	90.003482
loop_
_atom_site_label
_atom_site_type_symbol
_atom_site_fract_x
_atom_site_fract_y
_atom_site_fract_z
O1	O	-1.506902	0.108203	-0.155570
O2	O	-1.176561	0.108236	-0.171603
O3	O	-1.349748	0.108179	0.001584
O4	O	-1.333715	0.108260	-0.328757
O5	O	-1.349746	-0.108421	0.001594
O6	O	-1.176559	-0.108364	-0.171593
O7	O	-1.506900	-0.108398	-0.155560
Cu8	Cu	-1.341729	-0.128158	-0.163576
Cu9	Cu	-1.341732	0.127997	-0.163588
O10	O	-1.333713	-0.108341	-0.328747
C11	C	-1.134269	-0.000060	-0.170591
C12	C	-1.008255	-0.000050	-0.167576
C13	C	-1.348740	-0.000128	0.043880
C14	C	-1.345726	-0.000150	0.169894
C15	C	-1.549192	-0.000098	-0.156572
C16	C	-1.675206	-0.000100	-0.159587
C17	C	-0.777543	-0.000088	-0.162034
C18	C	-0.905928	-0.000067	-0.165113
N19	N	-1.341734	0.308163	-0.163588
N20	N	-1.341736	-0.308324	-0.163566
C21	C	-1.341731	0.573833	-0.163581
C22	C	-1.341730	0.425996	-0.163588
C23	C	-1.340183	-0.000170	0.400606
C24	C	-1.343262	-0.000159	0.272221
C25	C	-1.334721	-0.000076	0.628957
C26	C	-1.337736	-0.000184	0.502943
