data_functionalizedCrystal
_audit_creation_method	'MofGen! by Chris Wilmer'
_symmetry_space_group_name_H-M	'P1'
_symmetry_Int_Tables_number	1
_symmetry_cell_setting	triclinic
loop_
_symmetry_equiv_pos_as_xyz
  x,y,z
_cell_length_a	12.759401
_cell_length_b	15.299816
_cell_length_c	15.296720
_cell_angle_alpha	69.242954
_cell_angle_beta	80.335771
_cell_angle_gamma	80.350755
loop_
_atom_site_label
_atom_site_type_symbol
_atom_site_fract_x
_atom_site_fract_y
_atom_site_fract_z
Zn1	Zn	1.580129	-0.461088	0.589880
Zn2	Zn	1.631848	-0.589677	0.461306
Zn3	Zn	1.430381	-0.434225	0.434398
Zn4	Zn	1.430294	-0.616516	0.616767
O5	O	1.518163	-0.525377	0.525588
O6	O	1.734011	-0.478156	0.572833
O7	O	1.626804	-0.546582	0.327605
O8	O	1.428637	-0.307684	0.432509
O9	O	1.772009	-0.572630	0.478370
O10	O	1.538656	-0.327420	0.546742
O11	O	1.478787	-0.432372	0.307836
O12	O	1.283348	-0.458396	0.458580
O13	O	1.428489	-0.618373	0.743331
O14	O	1.283284	-0.592324	0.592566
O15	O	1.538572	-0.504180	0.723578
O16	O	1.626720	-0.723342	0.504441
O17	O	1.478639	-0.743060	0.618658
C18	C	1.245195	-0.525358	0.525572
C19	C	1.128418	-0.525377	0.525591
C20	C	1.053774	-0.476307	0.574888
C21	C	0.944050	-0.476318	0.574896
C22	C	0.983627	-0.574475	0.476308
C23	C	1.093348	-0.574458	0.476295
C24	C	1.558307	-0.766939	0.567407
C25	C	1.575572	-0.870286	0.585329
C26	C	1.395404	-1.120777	0.397814
C27	C	1.379177	-1.023678	0.380977
C28	C	1.428275	-0.985325	0.432064
C29	C	1.493602	-1.044081	0.499989
C30	C	1.509823	-1.141191	0.516833
C31	C	1.542694	-1.005739	0.551083
C32	C	1.608021	-1.064495	0.619008
C33	C	1.624241	-1.161595	0.635848
C34	C	1.575143	-1.199948	0.584762
C35	C	1.526472	-0.908629	0.534239
C36	C	1.640892	-0.929043	0.653258
C37	C	1.657119	-1.026142	0.670095
C38	C	1.792196	-0.525396	0.525604
C39	C	1.908973	-0.525404	0.525611
C40	C	1.477751	-0.567267	0.768139
C41	C	1.460531	-0.585118	0.871500
C42	C	1.477887	-0.282874	0.483625
C43	C	1.460723	-0.179534	0.465743
C44	C	1.558466	-0.483582	0.283968
C45	C	1.575847	-0.465469	0.180562
C46	C	1.641255	-0.397629	1.121721
C47	C	1.657442	-0.380859	1.024608
C48	C	1.608215	-0.431922	0.986326
C49	C	1.542800	-0.499759	1.045167
C50	C	1.526618	-0.516536	1.142290
C51	C	1.493578	-0.550829	1.006895
C52	C	1.428162	-0.618666	1.065736
C53	C	1.411983	-0.635439	1.162849
C54	C	1.461210	-0.584376	1.201131
C55	C	1.509760	-0.534051	0.909772
C56	C	1.395122	-0.652958	0.930341
C57	C	1.378936	-0.669729	1.027454
H58	H	0.955059	-0.614436	0.436174
H59	H	1.677429	-1.209433	0.691162
H60	H	1.325987	-0.975842	0.325674
H61	H	1.710308	-1.073995	0.725401
C62	C	1.174234	-0.627833	0.422752
C63	C	1.120040	-0.670847	0.379611
C64	C	1.194515	-0.720028	0.330289
H65	H	1.217877	-0.585297	0.376057
H66	H	1.217864	-0.674570	0.465264
H67	H	1.076428	-0.624116	0.337102
H68	H	1.076401	-0.713398	0.426285
H69	H	1.238145	-0.766765	0.372802
H70	H	1.238154	-0.677486	0.283599
H71	H	1.157755	-0.749226	0.301019
H72	H	1.680869	-0.897818	0.694859
H73	H	1.355430	-1.152014	0.356231
C74	C	1.308003	-0.743378	1.091506
C75	C	1.304393	-0.747152	1.184750
C76	C	1.239073	-0.814994	1.243782
H77	H	1.237751	-0.727096	1.073356
H78	H	1.336409	-0.803129	1.086459
H79	H	1.275983	-0.687414	1.189793
H80	H	1.374628	-0.763445	1.202929
H81	H	1.267480	-0.874745	1.238735
H82	H	1.168826	-0.798707	1.225624
H83	H	1.236624	-0.817570	1.307056
H84	H	0.883278	-0.436359	0.615037
C85	C	1.455551	-0.844693	0.460563
C86	C	1.451826	-0.751446	0.456759
C87	C	1.386491	-0.692524	0.388903
H88	H	1.483972	-0.849716	0.400800
H89	H	1.385323	-0.862946	0.476890
H90	H	1.522040	-0.733199	0.440427
H91	H	1.423395	-0.746394	0.516505
H92	H	1.316263	-0.710777	0.405230
H93	H	1.414918	-0.697555	0.329145
H94	H	1.383947	-0.629251	0.386319
H95	H	1.588356	-1.279013	0.598463
C96	C	1.580768	-0.460465	0.845744
C97	C	1.584426	-0.456710	0.752500
C98	C	1.649838	-0.388934	0.693492
H99	H	1.552439	-0.400692	0.850739
H100	H	1.651002	-0.476822	0.863964
H101	H	1.514206	-0.440347	0.734285
H102	H	1.612766	-0.516466	0.747475
H103	H	1.720072	-0.405291	0.711712
H104	H	1.621502	-0.329165	0.698495
H105	H	1.652336	-0.386383	0.630221
C106	C	1.728450	-0.307136	0.960877
C107	C	1.768074	-0.265989	1.015182
C108	C	1.833481	-0.198059	0.956503
H109	H	1.786522	-0.336058	0.929128
H110	H	1.687858	-0.260032	0.915991
H111	H	1.808666	-0.313085	1.060052
H112	H	1.710026	-0.237049	1.046931
H113	H	1.792888	-0.150955	0.911616
H114	H	1.891547	-0.226988	0.924756
H115	H	1.860366	-0.170126	0.993339
H116	H	1.621399	-0.418263	0.907252
H117	H	1.082323	-0.436339	0.615024
C118	C	1.694565	-0.342265	1.163459
C119	C	1.666375	-0.371467	1.261102
C120	C	1.715461	-0.320477	1.299581
H121	H	1.770082	-0.353093	1.150004
H122	H	1.671449	-0.277034	1.136791
H123	H	1.689498	-0.436683	1.287761
H124	H	1.590868	-0.360638	1.274584
H125	H	1.692344	-0.255245	1.272913
H126	H	1.790974	-0.331308	1.286119
H127	H	1.696333	-0.340277	1.365834
C128	C	1.341720	-0.708272	0.888604
C129	C	1.369866	-0.679042	0.790956
C130	C	1.320689	-0.729965	0.752469
H131	H	1.364777	-0.773510	0.915221
H132	H	1.266202	-0.697391	0.902106
H133	H	1.445368	-0.689931	0.777462
H134	H	1.346809	-0.613812	0.764314
H135	H	1.245171	-0.719083	0.765971
H136	H	1.343749	-0.795200	0.779093
H137	H	1.339771	-0.710133	0.686210
H138	H	1.448034	-0.598027	1.280207
H139	H	1.415060	-0.906262	0.418350
H140	H	1.358727	-0.690684	1.210757
