data_functionalizedCrystal
_audit_creation_method	'MofGen! by Chris Wilmer'
_symmetry_space_group_name_H-M	'P1'
_symmetry_Int_Tables_number	1
_symmetry_cell_setting	triclinic
loop_
_symmetry_equiv_pos_as_xyz
  x,y,z
_cell_length_a	18.215407
_cell_length_b	18.101395
_cell_length_c	18.215399
_cell_angle_alpha	90.026427
_cell_angle_beta	90.019833
_cell_angle_gamma	90.031552
loop_
_atom_site_label
_atom_site_type_symbol
_atom_site_fract_x
_atom_site_fract_y
_atom_site_fract_z
Zn1	Zn	1.125040	-0.294828	0.416124
Zn2	Zn	1.625040	0.205172	0.916124
Zn3	Zn	1.124935	-0.418675	0.293061
Zn4	Zn	1.624935	0.081325	0.793061
Zn5	Zn	1.001973	-0.294853	0.293071
Zn6	Zn	1.501973	0.205147	0.793071
Zn7	Zn	1.001925	-0.418634	0.416086
Zn8	Zn	1.501925	0.081366	0.916086
O9	O	1.063468	-0.356747	0.354585
O10	O	1.563468	0.143253	0.854585
O11	O	1.228010	-0.311264	0.399811
O12	O	1.728010	0.188736	0.899811
O13	O	1.108600	-0.402277	0.190078
O14	O	1.608600	0.097723	0.690078
O15	O	1.018362	-0.191216	0.309415
O16	O	1.518362	0.308784	0.809415
O17	O	1.227933	-0.402253	0.309397
O18	O	1.727933	0.097747	0.809397
O19	O	1.108779	-0.191199	0.399821
O20	O	1.608779	0.308801	0.899821
O21	O	1.018260	-0.311305	0.190085
O22	O	1.518260	0.188695	0.690085
O23	O	0.898982	-0.311265	0.309378
O24	O	1.398982	0.188735	0.809378
O25	O	1.018281	-0.402183	0.519075
O26	O	1.518281	0.097817	1.019075
O27	O	0.898947	-0.402207	0.399756
O28	O	1.398947	0.097793	0.899756
O29	O	1.108733	-0.311224	0.519103
O30	O	1.608733	0.188776	1.019103
O31	O	1.108554	-0.522302	0.309360
O32	O	1.608554	-0.022302	0.809360
O33	O	1.018179	-0.522272	0.399746
O34	O	1.518179	-0.022272	0.899746
C35	C	0.872262	-0.356735	0.354564
C36	C	1.372262	0.143265	0.854564
C37	C	0.790463	-0.356747	0.354572
C38	C	1.290463	0.143253	0.854572
C39	C	0.602270	-0.404175	0.401573
C40	C	1.102270	0.095825	0.901573
C41	C	0.525412	-0.404177	0.401583
C42	C	1.025412	0.095823	0.901583
C43	C	0.525418	-0.309333	0.307613
C44	C	1.025418	0.190667	0.807613
C45	C	0.602276	-0.309328	0.307608
C46	C	1.102276	0.190672	0.807608
C47	C	0.640700	-0.356753	0.354587
C48	C	1.140700	0.143247	0.854587
C49	C	0.486984	-0.356761	0.354601
C50	C	0.986984	0.143239	0.854601
C51	C	0.403650	-0.356763	0.354611
C52	C	0.903650	0.143237	0.854611
C53	C	0.724039	-0.356750	0.354579
C54	C	1.224039	0.143250	0.854579
C55	C	1.063370	-0.549158	0.354564
C56	C	1.563370	-0.049158	0.854564
C57	C	1.063395	-0.631472	0.354579
C58	C	1.563395	-0.131472	0.854579
C59	C	1.063557	-0.930563	0.354619
C60	C	1.563557	-0.430563	0.854619
C61	C	1.006827	-0.899249	0.411628
C62	C	1.506827	-0.399249	0.911628
C63	C	1.006557	-0.813632	0.411450
C64	C	1.506557	-0.313632	0.911450
C65	C	1.063476	-0.782180	0.354600
C66	C	1.563476	-0.282180	0.854600
C67	C	1.042479	-0.813331	0.277038
C68	C	1.542479	-0.313331	0.777038
C69	C	1.042113	-0.898976	0.277380
C70	C	1.542113	-0.398976	0.777380
C71	C	1.141408	-0.898906	0.374487
C72	C	1.641408	-0.398906	0.874487
C73	C	1.140950	-0.813255	0.376188
C74	C	1.640950	-0.313255	0.876188
C75	C	1.063432	-0.698321	0.354584
C76	C	1.563432	-0.198321	0.854584
C77	C	1.063599	-1.014422	0.354629
C78	C	1.563599	-0.514422	0.854629
C79	C	1.255421	-0.356761	0.354607
C80	C	1.755421	0.143239	0.854607
C81	C	1.337220	-0.356766	0.354616
C82	C	1.837220	0.143234	0.854616
C83	C	1.063513	-0.356696	0.546538
C84	C	1.563513	0.143304	1.046538
C85	C	1.063532	-0.356675	0.628337
C86	C	1.563532	0.143325	1.128337
C87	C	1.063587	-0.163585	0.354623
C88	C	1.563587	0.336415	0.854623
C89	C	1.063638	-0.081271	0.354639
C90	C	1.563638	0.418729	0.854639
C91	C	1.063466	-0.356745	0.163379
C92	C	1.563466	0.143255	0.663379
C93	C	1.063590	-0.356558	0.081580
C94	C	1.563590	0.143442	0.581580
C95	C	1.110648	-0.309268	0.816547
C96	C	1.610648	0.190732	1.316547
C97	C	1.110656	-0.309246	0.893406
C98	C	1.610656	0.190754	1.393406
C99	C	1.016469	-0.403967	0.893365
C100	C	1.516469	0.096033	1.393365
C101	C	1.016457	-0.403984	0.816508
C102	C	1.516457	0.096016	1.316508
C103	C	1.063551	-0.356636	0.778101
C104	C	1.563551	0.143364	1.278101
C105	C	1.063571	-0.356597	0.931817
C106	C	1.563571	0.143403	1.431817
C107	C	1.063580	-0.356574	1.015151
C108	C	1.563580	0.143426	1.515151
C109	C	1.063541	-0.356657	0.694762
C110	C	1.563541	0.143343	1.194762
H111	H	0.633553	-0.442789	0.439829
H112	H	1.133553	0.057211	0.939829
H113	H	1.148992	-0.270712	0.785278
H114	H	1.648992	0.229288	1.285278
F115	F	1.023824	-0.926109	0.487044
F116	F	1.523824	-0.426109	0.987044
H117	H	1.082498	-0.792959	0.233404
H118	H	1.582498	-0.292959	0.733404
H119	H	0.494126	-0.442792	0.439845
H120	H	0.994126	0.057208	0.939845
F121	F	0.643177	-0.258848	0.257600
F122	F	1.143177	0.241152	0.757600
F123	F	1.023727	-0.786098	0.486621
F124	F	1.523727	-0.286098	0.986621
F125	F	0.966354	-0.454358	0.934247
F126	F	1.466354	0.045642	1.434247
F127	F	0.484518	-0.258864	0.257617
F128	F	0.984518	0.241136	0.757617
H129	H	1.149006	-0.270673	0.924705
H130	H	1.649006	0.229327	1.424705
F131	F	0.931862	-0.927478	0.394655
F132	F	1.431862	-0.427478	0.894655
H133	H	0.978100	-0.442556	0.785204
H134	H	1.478100	0.057444	1.285204
F135	F	0.931131	-0.786934	0.394251
F136	F	1.431131	-0.286934	0.894251
H137	H	0.985204	-0.919019	0.260549
H138	H	1.485204	-0.419019	0.760549
F139	F	1.093771	-0.926056	0.219963
F140	F	1.593771	-0.426056	0.719963
F141	F	1.161649	-0.786641	0.450797
F142	F	1.661649	-0.286641	0.950797
F143	F	0.968881	-0.785384	0.254644
F144	F	1.468881	-0.285384	0.754644
F145	F	1.166431	-0.927071	0.447152
F146	F	1.666431	-0.427071	0.947152
H147	H	1.183674	-0.919155	0.332965
H148	H	1.683674	-0.419155	0.832965
F149	F	1.199122	-0.785262	0.325876
F150	F	1.699122	-0.285262	0.825876
