data_functionalizedCrystal
_audit_creation_method	'MofGen! by Chris Wilmer'
_symmetry_space_group_name_H-M	'P1'
_symmetry_Int_Tables_number	1
_symmetry_cell_setting	triclinic
loop_
_symmetry_equiv_pos_as_xyz
  x,y,z
_cell_length_a	19.805407
_cell_length_b	21.295417
_cell_length_c	19.805407
_cell_angle_alpha	90.015533
_cell_angle_beta	90.007450
_cell_angle_gamma	90.027018
loop_
_atom_site_label
_atom_site_type_symbol
_atom_site_fract_x
_atom_site_fract_y
_atom_site_fract_z
Zn1	Zn	1.034651	-0.250757	0.382677
Zn2	Zn	1.534651	0.249243	0.882677
Zn3	Zn	1.034580	-0.356000	0.269484
Zn4	Zn	1.534580	0.144000	0.769484
Zn5	Zn	0.921486	-0.250744	0.269505
Zn6	Zn	1.421486	0.249256	0.769505
Zn7	Zn	0.921423	-0.355988	0.382635
Zn8	Zn	1.421423	0.144012	0.882635
O9	O	0.978035	-0.303372	0.326075
O10	O	1.478035	0.196628	0.826075
O11	O	1.129358	-0.264729	0.367671
O12	O	1.629358	0.235271	0.867671
O13	O	1.019574	-0.342037	0.174771
O14	O	1.519574	0.157963	0.674771
O15	O	0.936554	-0.162656	0.284544
O16	O	1.436554	0.337344	0.784544
O17	O	1.129306	-0.342050	0.284509
O18	O	1.629306	0.157950	0.784509
O19	O	1.019696	-0.162666	0.367691
O20	O	1.519696	0.337334	0.867691
O21	O	0.936485	-0.264706	0.174786
O22	O	1.436485	0.235294	0.674786
O23	O	0.826761	-0.264694	0.284503
O24	O	1.326761	0.235306	0.784503
O25	O	0.936446	-0.342029	0.477357
O26	O	1.436446	0.157971	0.977357
O27	O	0.826714	-0.342016	0.367619
O28	O	1.326714	0.157984	0.867619
O29	O	1.019634	-0.264717	0.477388
O30	O	1.519634	0.235283	0.977388
O31	O	1.019513	-0.444088	0.284468
O32	O	1.519513	0.055912	0.784468
O33	O	0.936377	-0.444079	0.367599
O34	O	1.436377	0.055921	0.867599
C35	C	0.802179	-0.303353	0.326059
C36	C	1.302179	0.196647	0.826059
C37	C	0.726947	-0.303359	0.326068
C38	C	1.226947	0.196641	0.826068
C39	C	0.691631	-0.263169	0.369436
C40	C	1.191631	0.236831	0.869436
C41	C	0.620942	-0.263173	0.369439
C42	C	1.120942	0.236827	0.869439
C43	C	0.585571	-0.303370	0.326076
C44	C	1.085571	0.196630	0.826076
C45	C	0.620893	-0.343561	0.282703
C46	C	1.120893	0.156439	0.782703
C47	C	0.691580	-0.343554	0.282697
C48	C	1.191580	0.156446	0.782697
C49	C	0.335819	-0.343590	0.282724
C50	C	0.835819	0.156410	0.782724
C51	C	0.265127	-0.343595	0.282734
C52	C	0.765127	0.156405	0.782734
C53	C	0.265182	-0.263208	0.369465
C54	C	0.765182	0.236792	0.869465
C55	C	0.335869	-0.263201	0.369460
C56	C	0.835869	0.236799	0.869460
C57	C	0.371184	-0.303390	0.326084
C58	C	0.871184	0.196610	0.826084
C59	C	0.447832	-0.303385	0.326081
C60	C	0.947832	0.196615	0.826081
C61	C	0.508924	-0.303378	0.326082
C62	C	1.008924	0.196622	0.826082
C63	C	0.977949	-0.466924	0.326041
C64	C	1.477949	0.033076	0.826041
C65	C	0.977974	-0.536892	0.326049
C66	C	1.477974	-0.036892	0.826049
C67	C	1.021241	-0.569707	0.369375
C68	C	1.521241	-0.069707	0.869375
C69	C	1.021265	-0.635449	0.369391
C70	C	1.521265	-0.135449	0.869391
C71	C	0.978029	-0.668374	0.326070
C72	C	1.478029	-0.168374	0.826070
C73	C	0.934753	-0.635552	0.282742
C74	C	1.434753	-0.135552	0.782742
C75	C	0.934726	-0.569811	0.282731
C76	C	1.434726	-0.069811	0.782731
N77	N	0.972928	-0.771622	0.266835
N78	N	1.472928	-0.271622	0.766835
N79	N	0.972958	-0.834073	0.266847
N80	N	1.472958	-0.334073	0.766847
C81	C	0.978108	-0.866449	0.326101
C82	C	1.478108	-0.366449	0.826101
N83	N	0.983239	-0.834015	0.385344
N84	N	1.483239	-0.334015	0.885344
N85	N	0.983213	-0.771557	0.385331
N86	N	1.483213	-0.271557	0.885331
C87	C	0.978053	-0.739660	0.326077
C88	C	1.478053	-0.239660	0.826077
C89	C	1.021403	-0.970549	0.369448
C90	C	1.521403	-0.470549	0.869448
C91	C	1.021422	-1.036293	0.369466
C92	C	1.521422	-0.536293	0.869466
C93	C	0.934914	-1.036394	0.282811
C94	C	1.434914	-0.536394	0.782811
C95	C	0.934891	-0.970652	0.282799
C96	C	1.434891	-0.470652	0.782799
C97	C	0.978139	-0.937733	0.326117
C98	C	1.478139	-0.437733	0.826117
C99	C	1.154578	-0.303393	0.326092
C100	C	1.654578	0.196607	0.826092
C101	C	1.229810	-0.303401	0.326099
C102	C	1.729810	0.196599	0.826099
C103	C	0.978041	-0.303374	0.502618
C104	C	1.478041	0.196626	1.002618
C105	C	0.978043	-0.303374	0.577850
C106	C	1.478043	0.196626	1.077850
C107	C	0.978140	-0.139182	0.326125
C108	C	1.478140	0.360818	0.826125
C109	C	0.978185	-0.069214	0.326145
C110	C	1.478185	0.430786	0.826145
C111	C	1.021354	-0.263124	0.613211
C112	C	1.521354	0.236876	1.113211
C113	C	1.021348	-0.263122	0.683900
C114	C	1.521348	0.236878	1.183900
C115	C	0.978035	-0.303374	0.719226
C116	C	1.478035	0.196626	1.219226
C117	C	0.934719	-0.343626	0.683859
C118	C	1.434719	0.156374	1.183859
C119	C	0.934722	-0.343624	0.613172
C120	C	1.434722	0.156376	1.113172
C121	C	0.934706	-0.343633	0.968932
C122	C	1.434706	0.156367	1.468932
C123	C	0.934708	-0.343633	1.039625
C124	C	1.434708	0.156367	1.539625
C125	C	1.021332	-0.263131	1.039660
C126	C	1.521332	0.236869	1.539660
C127	C	1.021335	-0.263129	0.968973
C128	C	1.521335	0.236871	1.468973
C129	C	0.978017	-0.303379	0.933613
C130	C	1.478017	0.196621	1.433613
C131	C	0.978023	-0.303379	0.856965
C132	C	1.478023	0.196621	1.356965
C133	C	0.978032	-0.303377	0.795873
C134	C	1.478032	0.196623	1.295873
C135	C	0.978022	-0.303384	1.150219
C136	C	1.478022	0.196616	1.650219
C137	C	0.978016	-0.303379	1.074987
C138	C	1.478016	0.196621	1.574987
H139	H	0.236420	-0.230482	0.404781
H140	H	0.736420	0.269518	0.904781
C141	C	0.582097	-0.218965	0.417145
C142	C	1.082097	0.281035	0.917145
H143	H	0.613287	-0.195030	0.442975
H144	H	1.113287	0.304970	0.942975
H145	H	0.554529	-0.191500	0.391312
H146	H	1.054529	0.308500	0.891312
H147	H	0.554518	-0.243095	0.446592
H148	H	1.054518	0.256905	0.946592
H149	H	0.720333	-0.376281	0.247382
H150	H	1.220333	0.123719	0.747382
C151	C	1.068952	-0.934336	0.417115
C152	C	1.568952	-0.434336	0.917115
H153	H	1.094713	-0.963298	0.442934
H154	H	1.594713	-0.463298	0.942934
H155	H	1.098459	-0.908672	0.391261
H156	H	1.598459	-0.408672	0.891261
H157	H	1.043008	-0.908706	0.446575
H158	H	1.543008	-0.408706	0.946575
H159	H	0.364564	-0.376315	0.247405
H160	H	0.864564	0.123685	0.747405
C161	C	1.068811	-0.533500	0.417023
C162	C	1.568811	-0.033500	0.917023
H163	H	1.094581	-0.562463	0.442831
H164	H	1.594581	-0.062463	0.942831
H165	H	1.098309	-0.507841	0.391151
H166	H	1.598309	-0.007841	0.891151
H167	H	1.042886	-0.507863	0.446492
H168	H	1.542886	-0.007863	0.946492
C169	C	0.887302	-0.934551	0.235138
C170	C	1.387302	-0.434551	0.735138
H171	H	0.893473	-0.890683	0.241340
H172	H	1.393473	-0.390683	0.741340
H173	H	0.897244	-0.945334	0.189671
H174	H	1.397244	-0.445334	0.689671
H175	H	0.841820	-0.945358	0.245010
H176	H	1.341820	-0.445358	0.745010
H177	H	1.056492	-0.662172	0.404680
H178	H	1.556492	-0.162172	0.904680
C179	C	0.581987	-0.387778	0.235006
C180	C	1.081987	0.112222	0.735006
H181	H	0.534829	-0.382031	0.241225
H182	H	1.034829	0.117969	0.741225
H183	H	0.593563	-0.378500	0.189545
H184	H	1.093563	0.121500	0.689545
H185	H	0.593558	-0.430088	0.244833
H186	H	1.093558	0.069912	0.744833
H187	H	0.364664	-0.230471	0.404772
H188	H	0.864664	0.269529	0.904772
C189	C	1.068997	-0.218843	0.574359
C190	C	1.568997	0.281157	1.074359
H191	H	1.094785	-0.194866	0.605546
H192	H	1.594785	0.305134	1.105546
H193	H	1.098475	-0.242921	0.546779
H194	H	1.598475	0.257079	1.046779
H195	H	1.043116	-0.191410	0.546792
H196	H	1.543116	0.308590	1.046792
H197	H	1.056618	-0.230347	0.712688
H198	H	1.556618	0.269653	1.212688
H199	H	0.899548	-0.662364	0.247471
H200	H	1.399548	-0.162364	0.747471
H201	H	0.899447	-0.376394	0.584382
H202	H	1.399447	0.123606	1.084382
H203	H	0.899491	-0.543092	0.247450
H204	H	1.399491	-0.043092	0.747450
C205	C	1.068977	-0.218852	0.930115
C206	C	1.568977	0.281148	1.430115
H207	H	1.062779	-0.224620	0.882952
H208	H	1.562779	0.275380	1.382952
H209	H	1.059098	-0.176557	0.941712
H210	H	1.559098	0.323443	1.441712
H211	H	1.114451	-0.228073	0.941703
H212	H	1.614451	0.271927	1.441703
C213	C	0.730532	-0.218952	0.417136
C214	C	1.230532	0.281048	0.917136
H215	H	0.699373	-0.195013	0.442960
H216	H	1.199373	0.304987	0.942960
H217	H	0.758105	-0.243070	0.446578
H218	H	1.258105	0.256930	0.946578
H219	H	0.758112	-0.191482	0.391292
H220	H	1.258112	0.308518	0.891292
C221	C	1.069019	-1.072390	0.417126
C222	C	1.569019	-0.572390	0.917126
H223	H	1.094774	-1.043366	0.442917
H224	H	1.594774	-0.543366	0.942917
H225	H	1.043118	-1.098043	0.446602
H226	H	1.543118	-0.598043	0.946602
H227	H	1.098539	-1.098022	0.391259
H228	H	1.598539	-0.598022	0.891259
C229	C	0.226220	-0.387809	0.235028
C230	C	0.726220	0.112191	0.735028
H231	H	0.257376	-0.411739	0.209189
H232	H	0.757376	0.088261	0.709189
H233	H	0.198640	-0.415278	0.260865
H234	H	0.698640	0.084722	0.760865
H235	H	0.198649	-0.363680	0.205589
H236	H	0.698649	0.136320	0.705589
C237	C	0.887351	-1.072604	0.235162
C238	C	1.387351	-0.572604	0.735162
H239	H	0.893565	-1.116458	0.241372
H240	H	1.393565	-0.616458	0.741372
H241	H	0.841863	-1.061860	0.245026
H242	H	1.341863	-0.561860	0.745026
H243	H	0.897290	-1.061843	0.189689
H244	H	1.397290	-0.561843	0.689689
H245	H	1.056601	-0.230356	1.068459
H246	H	1.556601	0.269644	1.568459
C247	C	0.887056	-0.387908	1.078482
C248	C	1.387056	0.112092	1.578482
H249	H	0.861252	-0.411875	1.047299
H250	H	1.361252	0.088125	1.547299
H251	H	0.912926	-0.415341	1.106053
H252	H	1.412926	0.084659	1.606053
H253	H	0.857581	-0.363816	1.106059
H254	H	1.357581	0.136184	1.606059
C255	C	0.887045	-0.387893	0.930045
C256	C	1.387045	0.112107	1.430045
H257	H	0.861250	-0.411864	0.961210
H258	H	1.361250	0.088136	1.461210
H259	H	0.857574	-0.363795	0.902483
H260	H	1.357574	0.136205	1.402483
H261	H	0.912905	-0.415332	0.902456
H262	H	1.412905	0.084668	1.402456
H263	H	0.899450	-0.376398	0.712627
H264	H	1.399450	0.123602	1.212627
