data_functionalizedCrystal
_audit_creation_method	'MofGen! by Chris Wilmer'
_symmetry_space_group_name_H-M	'P1'
_symmetry_Int_Tables_number	1
_symmetry_cell_setting	triclinic
loop_
_symmetry_equiv_pos_as_xyz
  x,y,z
_cell_length_a	18.215405
_cell_length_b	12.759401
_cell_length_c	12.759393
_cell_angle_alpha	89.981504
_cell_angle_beta	90.037569
_cell_angle_gamma	89.974954
loop_
_atom_site_label
_atom_site_type_symbol
_atom_site_fract_x
_atom_site_fract_y
_atom_site_fract_z
Zn1	Zn	-0.292938	-1.606181	0.593937
Zn2	Zn	-0.416024	-1.606044	0.418239
Zn3	Zn	-0.292976	-1.430483	0.418277
Zn4	Zn	-0.415967	-1.430440	0.593881
O5	O	-0.354476	-1.518287	0.506084
O6	O	-0.309273	-1.753184	0.570639
O7	O	-0.399741	-1.582716	0.271223
O8	O	-0.189987	-1.453865	0.441618
O9	O	-0.399704	-1.753083	0.441554
O10	O	-0.189959	-1.582949	0.570675
O11	O	-0.309339	-1.453732	0.271251
O12	O	-0.309284	-1.283456	0.441563
O13	O	-0.399607	-1.453792	0.740909
O14	O	-0.399645	-1.283425	0.570578
O15	O	-0.309218	-1.582908	0.740951
O16	O	-0.519001	-1.582675	0.441499
O17	O	-0.518959	-1.453660	0.570542
C18	C	-0.354463	-1.245320	0.506069
C19	C	-0.354475	-1.128543	0.506088
C20	C	-0.545683	-1.518176	0.506033
C21	C	-0.627482	-1.518225	0.506047
C22	C	-0.354402	-1.518361	0.780117
C23	C	-0.354370	-1.518392	0.896894
C24	C	-0.815673	-1.585561	0.438977
C25	C	-0.892531	-1.585608	0.439003
C26	C	-0.892528	-1.451148	0.573265
C27	C	-0.815671	-1.451107	0.573244
C28	C	-0.777245	-1.518312	0.506094
C29	C	-0.930961	-1.518400	0.506141
C30	C	-1.014295	-1.518450	0.506169
C31	C	-0.693906	-1.518263	0.506067
C32	C	-0.162523	-1.518427	0.506157
C33	C	-0.080724	-1.518487	0.506189
C34	C	-0.354491	-1.792320	0.506098
C35	C	-0.354497	-1.909097	0.506105
C36	C	-0.401601	-1.073692	0.573155
C37	C	-0.401610	-0.963968	0.573167
C38	C	-0.307365	-0.963956	0.439035
C39	C	-0.307353	-1.073678	0.439029
C40	C	-0.456015	-1.073699	0.650592
C41	C	-0.456025	-0.963975	0.650604
C42	C	-0.354497	-1.518274	0.233116
C43	C	-0.354322	-1.518447	0.116340
C44	C	-0.307300	-1.585632	0.951779
C45	C	-0.307274	-1.585657	1.061503
C46	C	-0.401394	-1.451199	1.061447
C47	C	-0.401416	-1.451170	0.951725
C48	C	-0.252963	-1.663263	0.951813
C49	C	-0.252936	-1.663288	1.061537
H50	H	-0.784388	-1.640285	0.384302
H51	H	-0.268201	-1.744655	1.091313
H52	H	-0.923816	-1.640370	0.384351
H53	H	-0.923824	-1.396430	0.627935
H54	H	-0.268999	-0.919271	0.384439
H55	H	-0.439695	-1.396467	1.106104
H56	H	-0.195969	-1.641509	0.922065
H57	H	-0.513008	-0.934165	0.628663
H58	H	-0.440815	-1.103511	0.732001
H59	H	-0.784381	-1.396345	0.627904
H60	H	-0.435680	-0.929982	0.727959
H61	H	-0.439743	-1.396413	0.907041
H62	H	-0.268973	-1.118333	0.384424
H63	H	-0.273395	-1.740530	0.917774
H64	H	-0.510128	-1.107699	0.621300
H65	H	-0.198783	-1.634188	1.095593
