data_functionalizedCrystal
_audit_creation_method	'MofGen! by Chris Wilmer'
_symmetry_space_group_name_H-M	'P1'
_symmetry_Int_Tables_number	1
_symmetry_cell_setting	triclinic
loop_
_symmetry_equiv_pos_as_xyz
  x,y,z
_cell_length_a	14.519709
_cell_length_b	14.971486
_cell_length_c	13.448316
_cell_angle_alpha	90.001801
_cell_angle_beta	89.992453
_cell_angle_gamma	96.352863
loop_
_atom_site_label
_atom_site_type_symbol
_atom_site_fract_x
_atom_site_fract_y
_atom_site_fract_z
O1	O	0.120184	-1.187015	-0.082580
O2	O	0.620184	-0.687015	0.417420
O3	O	0.134576	-0.926623	-0.082607
O4	O	0.634576	-0.426623	0.417393
O5	O	-0.006863	-1.063723	-0.082584
O6	O	0.493137	-0.563723	0.417416
O7	O	0.261623	-1.049915	-0.082603
O8	O	0.761623	-0.549915	0.417397
O9	O	-0.006871	-1.063706	0.082800
O10	O	0.493129	-0.563706	0.582800
O11	O	0.134567	-0.926606	0.082777
O12	O	0.634567	-0.426606	0.582777
O13	O	0.120175	-1.186998	0.082804
O14	O	0.620175	-0.686998	0.582804
Cu15	Cu	0.127371	-1.056800	0.097891
Cu16	Cu	0.627371	-0.556800	0.597891
Cu17	Cu	0.127381	-1.056820	-0.097694
Cu18	Cu	0.627381	-0.556820	0.402306
O19	O	0.261614	-1.049898	0.082781
O20	O	0.761614	-0.549898	0.582781
C21	C	0.133928	-0.893289	0.000082
C22	C	0.633928	-0.393289	0.500082
C23	C	0.131999	-0.793991	0.000071
C24	C	0.631999	-0.293991	0.500071
C25	C	-0.041226	-1.063071	0.000108
C26	C	0.458774	-0.563071	0.500108
C27	C	-0.143606	-1.061142	0.000109
C28	C	0.356394	-0.561142	0.500109
C29	C	0.120823	-1.220331	0.000113
C30	C	0.620823	-0.720331	0.500113
C31	C	0.122752	-1.319630	0.000117
C32	C	0.622752	-0.819630	0.500117
C33	C	-0.518498	-1.054043	0.000082
C34	C	-0.018498	-0.554043	0.500082
C35	C	-0.414191	-1.056015	0.000090
C36	C	0.085809	-0.556015	0.500090
C37	C	-0.331055	-1.057593	0.000096
C38	C	0.168945	-0.557593	0.500096
C39	C	-0.226742	-1.059564	0.000102
C40	C	0.273258	-0.559564	0.500102
C41	C	0.295978	-1.050550	0.000087
C42	C	0.795978	-0.550550	0.500087
C43	C	0.398358	-1.052478	0.000080
C44	C	0.898358	-0.552478	0.500080
N45	N	0.127363	-1.056792	0.235456
N46	N	0.627363	-0.556792	0.735456
C47	C	0.215091	-0.736812	0.000067
C48	C	0.715091	-0.236812	0.500067
C49	C	0.213273	-0.643512	0.000082
C50	C	0.713273	-0.143512	0.500082
C51	C	0.128363	-0.607392	0.000094
C52	C	0.628363	-0.107392	0.500094
C53	C	0.045265	-0.664578	0.000102
C54	C	0.545265	-0.164578	0.500102
C55	C	0.047084	-0.757876	0.000094
C56	C	0.547084	-0.257876	0.500094
C57	C	0.041480	-0.470113	0.000116
C58	C	0.541480	0.029887	0.500116
C59	C	0.039661	-0.376808	0.000122
C60	C	0.539661	0.123192	0.500122
C61	C	0.207669	-0.355749	0.000104
C62	C	0.707669	0.144251	0.500104
C63	C	0.209488	-0.449047	0.000096
C64	C	0.709488	0.050953	0.500096
C65	C	0.126390	-0.506227	0.000101
C66	C	0.626390	-0.006227	0.500101
N67	N	0.127381	-1.056835	-0.235258
N68	N	0.627381	-0.556835	0.264742
C69	C	0.064759	-1.117519	0.287506
C70	C	0.564759	-0.617519	0.787506
C71	C	0.064759	-1.117525	0.391610
C72	C	0.564759	-0.617525	0.891610
C73	C	0.127366	-1.056807	0.443660
C74	C	0.627366	-0.556807	0.943660
C75	C	0.189973	-0.996074	0.391602
C76	C	0.689973	-0.496074	0.891602
C77	C	0.189968	-0.996065	0.287501
C78	C	0.689968	-0.496065	0.787501
C79	C	0.189979	-0.996099	0.608582
C80	C	0.689979	-0.496099	1.108582
C81	C	0.189985	-0.996109	0.712691
C82	C	0.689985	-0.496109	1.212691
C83	C	0.064769	-1.117559	0.712691
C84	C	0.564769	-0.617559	1.212691
C85	C	0.064765	-1.117549	0.608590
C86	C	0.564765	-0.617549	1.108590
C87	C	0.127373	-1.056817	0.556539
C88	C	0.627373	-0.556817	1.056539
H89	H	0.284234	-0.766213	0.000056
H90	H	0.784234	-0.266213	0.500056
Br91	Br	0.326045	-0.565915	0.000072
Br92	Br	0.826045	-0.065915	0.500072
H93	H	0.240958	-0.946641	0.566206
H94	H	0.740958	-0.446641	1.066206
Br95	Br	-0.071297	-0.547714	0.000128
Br96	Br	0.428703	-0.047714	0.500128
Br97	Br	0.324724	-0.498067	0.000064
Br98	Br	0.824724	0.001933	0.500064
H99	H	-0.023871	-0.635162	0.000126
H100	H	0.476129	-0.135162	0.500126
Br101	Br	-0.020194	-1.199959	0.537946
Br102	Br	0.479806	-0.699959	1.037946
Br103	Br	-0.065688	-0.835478	0.000109
Br104	Br	0.434312	-0.335478	0.500109
Br105	Br	-0.020207	-1.199937	0.462253
Br106	Br	0.479793	-0.699937	0.962253
Br107	Br	-0.020207	-1.199933	0.216877
Br108	Br	0.479793	-0.699933	0.716877
Br109	Br	0.274936	-0.913662	0.462238
Br110	Br	0.774936	-0.413662	0.962238
H111	H	0.013792	-1.167009	0.755077
H112	H	0.513792	-0.667009	1.255077
H113	H	0.240965	-0.946665	0.755065
H114	H	0.740965	-0.446665	1.255065
Br115	Br	0.320446	-0.278149	0.000094
Br116	Br	0.820446	0.221851	0.500094
H117	H	-0.029481	-0.347403	0.000133
H118	H	0.470519	0.152597	0.500133
H119	H	0.240945	-0.946614	0.245122
H120	H	0.740945	-0.446614	0.745122
