data_functionalizedCrystal
_audit_creation_method	'MofGen! by Chris Wilmer'
_symmetry_space_group_name_H-M	'P1'
_symmetry_Int_Tables_number	1
_symmetry_cell_setting	triclinic
loop_
_symmetry_equiv_pos_as_xyz
  x,y,z
_cell_length_a	21.395362
_cell_length_b	10.685194
_cell_length_c	21.395356
_cell_angle_alpha	85.604207
_cell_angle_beta	89.964122
_cell_angle_gamma	94.391346
loop_
_atom_site_label
_atom_site_type_symbol
_atom_site_fract_x
_atom_site_fract_y
_atom_site_fract_z
Zn1	Zn	0.938808	-0.501910	-0.335484
Zn2	Zn	1.438808	-0.001910	0.164516
Zn3	Zn	0.930735	-0.712953	-0.222675
Zn4	Zn	1.430735	-0.212953	0.277325
Zn5	Zn	0.834034	-0.502004	-0.230682
Zn6	Zn	1.334034	-0.002004	0.269318
Zn7	Zn	0.826002	-0.712943	-0.327380
Zn8	Zn	1.326002	-0.212943	0.172620
O9	O	0.882394	-0.607452	-0.279055
O10	O	1.382394	-0.107452	0.220945
O11	O	1.025416	-0.529870	-0.320560
O12	O	1.525416	-0.029870	0.179440
O13	O	0.917890	-0.685013	-0.136057
O14	O	1.417890	-0.185013	0.363943
O15	O	0.854672	-0.325391	-0.251327
O16	O	1.354672	0.174609	0.248673
O17	O	1.019485	-0.684922	-0.237680
O18	O	1.519485	-0.184922	0.262320
O19	O	0.931649	-0.325321	-0.328324
O20	O	1.431649	0.174679	0.171676
O21	O	0.846844	-0.530030	-0.141940
O22	O	1.346844	-0.030030	0.358060
O23	O	0.745289	-0.530021	-0.243468
O24	O	1.245289	-0.030021	0.256532
O25	O	0.840983	-0.684905	-0.416134
O26	O	1.340983	-0.184905	0.083866
O27	O	0.739388	-0.684997	-0.314512
O28	O	1.239388	-0.184997	0.185488
O29	O	0.923861	-0.529860	-0.422089
O30	O	1.423861	-0.029860	0.077911
O31	O	0.910102	-0.889552	-0.229822
O32	O	1.410102	-0.389552	0.270178
O33	O	0.833155	-0.889545	-0.306748
O34	O	1.333155	-0.389545	0.193252
C35	C	0.719604	-0.607519	-0.278980
C36	C	1.219604	-0.107519	0.221020
C37	C	0.649961	-0.607578	-0.278961
C38	C	1.149961	-0.107578	0.221039
C39	C	0.614187	-0.688381	-0.315890
C40	C	1.114187	-0.188381	0.184110
C41	C	0.548753	-0.688350	-0.315919
C42	C	1.048753	-0.188350	0.184081
C43	C	0.519094	-0.607529	-0.279008
C44	C	1.019094	-0.107529	0.220992
C45	C	0.554876	-0.526711	-0.242077
C46	C	1.054876	-0.026711	0.257923
C47	C	0.620309	-0.526735	-0.242054
C48	C	1.120309	-0.026735	0.257946
C49	C	0.415762	-0.597382	-0.222989
C50	C	0.915762	-0.097382	0.277011
C51	C	0.350329	-0.597366	-0.223011
C52	C	0.850329	-0.097366	0.276989
C53	C	0.317277	-0.607447	-0.279080
C54	C	0.817277	-0.107447	0.220920
C55	C	0.349664	-0.617570	-0.335129
C56	C	0.849664	-0.117570	0.164871
C57	C	0.415097	-0.617594	-0.335105
C58	C	0.915097	-0.117594	0.164895
C59	C	0.448143	-0.607493	-0.279029
C60	C	0.948143	-0.107493	0.220971
C61	C	0.210552	-0.688221	-0.316043
C62	C	0.710552	-0.188221	0.183957
C63	C	0.145117	-0.688181	-0.316074
C64	C	0.645117	-0.188181	0.183926
C65	C	0.151241	-0.526548	-0.242226
C66	C	0.651241	-0.026548	0.257774
C67	C	0.216675	-0.526582	-0.242202
C68	C	0.716675	-0.026582	0.257798
C69	C	0.246326	-0.607424	-0.279109
C70	C	0.746326	-0.107424	0.220891
C71	C	0.869898	-0.935339	-0.266550
C72	C	1.369898	-0.435339	0.233450
C73	C	0.864609	-1.075610	-0.261221
C74	C	1.364609	-0.575610	0.238779
C75	C	1.045820	-0.607386	-0.279131
C76	C	1.545820	-0.107386	0.220869
C77	C	1.115463	-0.607358	-0.279163
C78	C	1.615463	-0.107358	0.220837
C79	C	0.882427	-0.607371	-0.442482
C80	C	1.382427	-0.107371	0.057518
C81	C	0.882440	-0.607337	-0.512124
C82	C	1.382440	-0.107337	-0.012124
C83	C	0.894957	-0.278285	-0.291623
C84	C	1.394957	0.221715	0.208377
C85	C	0.900310	-0.138014	-0.296978
C86	C	1.400310	0.361986	0.203022
C87	C	0.925661	-0.526404	-1.017030
C88	C	1.425661	-0.026404	-0.517030
C89	C	0.925655	-0.526434	-0.951593
C90	C	1.425655	-0.026434	-0.451593
C91	C	0.882500	-0.607169	-0.915769
C92	C	1.382500	-0.107169	-0.415769
C93	C	0.839359	-0.687902	-0.945386
C94	C	1.339359	-0.187902	-0.445386
C95	C	0.839370	-0.687878	-1.010821
C96	C	1.339370	-0.187878	-0.510821
C97	C	0.825652	-0.617194	-0.811692
C98	C	1.325652	-0.117194	-0.311692
C99	C	0.825640	-0.617209	-0.746259
C100	C	1.325640	-0.117209	-0.246259
C101	C	0.882465	-0.607249	-0.713945
C102	C	1.382465	-0.107249	-0.213945
C103	C	0.939306	-0.597248	-0.747074
C104	C	1.439306	-0.097248	-0.247074
C105	C	0.939317	-0.597224	-0.812509
C106	C	1.439317	-0.097224	-0.312509
C107	C	0.882483	-0.607204	-0.844815
C108	C	1.382483	-0.107204	-0.344815
C109	C	0.925600	-0.526561	-0.613382
C110	C	1.425600	-0.026561	-0.113382
C111	C	0.925595	-0.526600	-0.547944
C112	C	1.425595	-0.026600	-0.047944
C113	C	0.839293	-0.688061	-0.541738
C114	C	1.339293	-0.188061	-0.041738
C115	C	0.839304	-0.688028	-0.607175
C116	C	1.339304	-0.188028	-0.107175
C117	C	0.882457	-0.607271	-0.642993
C118	C	1.382457	-0.107271	-0.142993
C119	C	0.882402	-0.607442	-0.116268
C120	C	1.382402	-0.107442	0.383732
C121	C	0.882523	-0.607121	-0.046639
C122	C	1.382523	-0.107121	0.453361
H123	H	0.442668	-0.589168	-0.177327
H124	H	0.942668	-0.089168	0.322673
N125	N	0.314004	-0.628513	-0.395593
N126	N	0.814004	-0.128513	0.104407
H127	H	0.322278	-0.710272	-0.413700
H128	H	0.822278	-0.210272	0.086300
H129	H	0.267655	-0.626921	-0.387035
H130	H	0.767655	-0.126921	0.112965
H131	H	0.829990	-1.129502	-0.226532
H132	H	1.329990	-0.629502	0.273468
N133	N	0.510154	-0.775505	-0.355746
N134	N	1.010154	-0.275505	0.144254
H135	H	0.522327	-0.756040	-0.401270
H136	H	1.022327	-0.256040	0.098730
H137	H	0.518087	-0.865617	-0.342444
H138	H	1.018087	-0.365617	0.157556
H139	H	0.779374	-0.625306	-0.837997
H140	H	1.279374	-0.125306	-0.337997
N141	N	0.242537	-0.775402	-0.355854
N142	N	0.742537	-0.275402	0.144146
H143	H	0.289417	-0.763166	-0.350231
H144	H	0.789417	-0.263166	0.149769
H145	H	0.227630	-0.865499	-0.342595
H146	H	0.727630	-0.365499	0.157405
N147	N	0.972196	-0.439291	-1.055662
N148	N	1.472196	0.060709	-0.555662
H149	H	0.999521	-0.388156	-1.026971
H150	H	1.499521	0.111844	-0.526971
H151	H	0.999243	-0.490617	-1.080868
H152	H	1.499243	0.009383	-0.580868
H153	H	0.934922	-1.084129	-0.331671
H154	H	1.434922	-0.584129	0.168329
H155	H	0.960783	-0.460699	-0.927480
H156	H	1.460783	0.039301	-0.427480
H157	H	0.960737	-0.460803	-0.642546
H158	H	1.460737	0.039197	-0.142546
H159	H	0.441464	-0.625832	-0.380742
H160	H	0.941464	-0.125832	0.119258
H161	H	0.985598	-0.589084	-0.839480
H162	H	1.485598	-0.089084	-0.339480
N163	N	1.000602	-0.586498	-0.712233
N164	N	1.500602	-0.086498	-0.212233
H165	H	0.991973	-0.588037	-0.665753
H166	H	1.491973	-0.088037	-0.165753
H167	H	1.025832	-0.659458	-0.720899
H168	H	1.525832	-0.159458	-0.220899
H169	H	0.960727	-0.460873	-0.523837
H170	H	1.460727	0.039127	-0.023837
H171	H	0.779357	-0.625352	-0.719290
H172	H	1.279357	-0.125352	-0.219290
H173	H	0.804158	-0.753801	-0.512571
H174	H	1.304158	-0.253801	-0.012571
N175	N	0.792774	-0.775083	-0.639116
N176	N	1.292774	-0.275083	-0.139116
H177	H	0.765433	-0.826234	-0.606495
H178	H	1.265433	-0.326234	-0.106495
H179	H	0.765742	-0.723716	-0.668215
H180	H	1.265742	-0.223716	-0.168215
H181	H	0.804223	-0.753638	-0.916214
H182	H	1.304223	-0.253638	-0.416214
N183	N	0.792840	-0.774930	-1.042768
N184	N	1.292840	-0.274930	-0.542768
H185	H	0.799129	-0.865101	-1.027944
H186	H	1.299129	-0.365101	-0.527944
H187	H	0.748839	-0.755250	-1.032098
H188	H	1.248839	-0.255250	-0.532098
N189	N	0.646169	-0.775571	-0.355695
N190	N	1.146169	-0.275571	0.144305
H191	H	0.613573	-0.826755	-0.379094
H192	H	1.113573	-0.326755	0.120906
H193	H	0.675313	-0.724292	-0.386681
H194	H	1.175313	-0.224292	0.113319
H195	H	0.115991	-0.753978	-0.346149
H196	H	0.615991	-0.253978	0.153851
H197	H	0.127093	-0.460737	-0.212176
H198	H	0.627093	0.039263	0.287824
H199	H	0.530724	-0.460904	-0.212025
H200	H	1.030724	0.039096	0.287975
N201	N	0.255264	-0.439421	-0.202376
N202	N	0.755264	0.060579	0.297624
H203	H	0.226549	-0.388211	-0.178999
H204	H	0.726549	0.111789	0.321001
H205	H	0.280422	-0.490713	-0.171371
H206	H	0.780422	0.009287	0.328629
N207	N	0.315399	-0.586454	-0.162563
N208	N	0.815399	-0.086454	0.337437
H209	H	0.323966	-0.659350	-0.131677
H210	H	0.823966	-0.159350	0.368323
H211	H	0.329914	-0.504680	-0.144480
H212	H	0.829914	-0.004680	0.355520
H213	H	0.649436	-0.460932	-0.211983
H214	H	1.149436	0.039068	0.288017
