data_functionalizedCrystal
_audit_creation_method	'MofGen! by Chris Wilmer'
_symmetry_space_group_name_H-M	'P1'
_symmetry_Int_Tables_number	1
_symmetry_cell_setting	triclinic
loop_
_symmetry_equiv_pos_as_xyz
  x,y,z
_cell_length_a	10.723024
_cell_length_b	14.519709
_cell_length_c	9.198806
_cell_angle_alpha	89.995869
_cell_angle_beta	89.996352
_cell_angle_gamma	84.074007
loop_
_atom_site_label
_atom_site_type_symbol
_atom_site_fract_x
_atom_site_fract_y
_atom_site_fract_z
O1	O	1.655978	0.129347	-0.120886
O2	O	1.292710	0.141728	-0.120892
O3	O	1.483976	0.001349	-0.120876
O4	O	1.464713	0.269727	-0.120902
O5	O	1.483960	0.001348	0.120909
O6	O	1.292695	0.141728	0.120893
O7	O	1.655963	0.129347	0.120899
Cu8	Cu	1.474328	0.135538	0.142973
Cu9	Cu	1.474345	0.135538	-0.142966
O10	O	1.464697	0.269727	0.120883
C11	C	1.246211	0.140827	0.000000
C12	C	1.107682	0.138132	-0.000001
C13	C	0.916708	0.054395	0.000004
C14	C	1.059885	0.057179	0.000006
C15	C	1.483070	-0.033016	0.000017
C16	C	1.480380	-0.135411	0.000018
C17	C	1.470476	-0.510357	-0.000020
C18	C	1.473227	-0.406035	-0.000009
C19	C	1.475428	-0.322887	0.000000
C20	C	1.478179	-0.218559	0.000008
C21	C	1.702462	0.130248	0.000003
C22	C	1.840991	0.132944	-0.000005
C23	C	1.465603	0.304091	-0.000013
C24	C	1.468293	0.406486	-0.000024
N25	N	1.474324	0.135537	0.344087
N26	N	1.474359	0.135532	-0.344080
C27	C	1.554633	0.076335	0.416290
C28	C	1.554653	0.076332	0.583703
H29	H	0.882165	0.202254	-0.000002
H30	H	1.124947	-0.010065	0.000004
H31	H	1.623371	0.025649	0.354170
O32	O	1.636627	0.015734	0.657609
C33	C	1.615792	-0.075650	0.620565
H34	H	1.567761	-0.075826	0.510025
H35	H	1.553428	-0.104399	0.706213
C36	C	1.801154	-0.136186	0.749490
C37	C	1.742170	-0.136403	0.613717
H38	H	1.879108	-0.173663	0.745272
H39	H	1.815189	-0.074619	0.774453
H40	H	1.749171	-0.160141	0.820849
H41	H	1.794146	-0.112437	0.542364
H42	H	1.728147	-0.197968	0.588741
O43	O	1.392498	0.196044	0.581706
C44	C	1.459745	0.253203	0.493673
H45	H	1.557212	0.216926	0.471001
H46	H	1.468590	0.321416	0.552240
C47	C	1.269883	0.317053	0.376871
C48	C	1.389590	0.272494	0.349014
H49	H	1.226607	0.328957	0.287640
H50	H	1.224576	0.278547	0.436184
H51	H	1.277271	0.373892	0.425680
H52	H	1.382201	0.215650	0.300222
H53	H	1.434895	0.310991	0.289689
O54	O	1.392258	0.195876	0.418347
C55	C	1.315023	0.146082	0.506383
H56	H	1.364326	0.074155	0.529028
H57	H	1.222683	0.139424	0.447832
C58	C	1.228235	0.286189	0.623236
C59	C	1.288795	0.197849	0.651060
H60	H	1.212051	0.318122	0.712478
H61	H	1.280266	0.319737	0.563922
H62	H	1.151292	0.280627	0.574441
H63	H	1.365743	0.203411	0.699838
H64	H	1.236776	0.164302	0.710387
H65	H	0.875534	-0.014915	0.000033
O66	O	1.029956	0.218301	-0.000206
C67	C	0.953824	0.221798	-0.125451
H68	H	0.947206	0.148539	-0.167192
H69	H	0.996669	0.264233	-0.213139
C70	C	0.829852	0.357232	-0.036156
C71	C	0.821715	0.267253	-0.087416
H72	H	0.748363	0.385275	-0.012698
H73	H	0.881146	0.354878	0.048222
H74	H	0.865561	0.392583	-0.109237
H75	H	0.786021	0.231901	-0.014329
H76	H	0.770412	0.269602	-0.171781
