data_functionalizedCrystal
_audit_creation_method	'MofGen! by Chris Wilmer'
_symmetry_space_group_name_H-M	'P1'
_symmetry_Int_Tables_number	1
_symmetry_cell_setting	triclinic
loop_
_symmetry_equiv_pos_as_xyz
  x,y,z
_cell_length_a	16.625546
_cell_length_b	13.032831
_cell_length_c	13.034296
_cell_angle_alpha	105.185450
_cell_angle_beta	82.786634
_cell_angle_gamma	97.173222
loop_
_atom_site_label
_atom_site_type_symbol
_atom_site_fract_x
_atom_site_fract_y
_atom_site_fract_z
Zn1	Zn	-0.408761	-1.700150	-0.806419
Zn2	Zn	-0.558797	-1.677445	-0.628778
Zn3	Zn	-0.408768	-1.499953	-0.606300
Zn4	Zn	-0.528334	-1.522480	-0.783834
O5	O	-0.476165	-1.600007	-0.706333
O6	O	-0.441409	-1.845775	-0.801714
O7	O	-0.551647	-1.634971	-0.477154
O8	O	-0.295937	-1.526584	-0.632892
O9	O	-0.551640	-1.829094	-0.671201
O10	O	-0.295932	-1.673668	-0.779918
O11	O	-0.441422	-1.504568	-0.460640
O12	O	-0.411883	-1.354305	-0.610992
O13	O	-0.499720	-1.564978	-0.935472
O14	O	-0.499728	-1.370855	-0.741425
O15	O	-0.411870	-1.695512	-0.952065
O16	O	-0.667586	-1.656815	-0.649301
O17	O	-0.645205	-1.542963	-0.763220
C18	C	-0.685651	-1.599901	-0.706276
C19	C	-0.775275	-1.599957	-0.706299
C20	C	-0.452501	-1.324040	-0.671319
C21	C	-0.442395	-1.205984	-0.656365
C22	C	-0.452396	-1.635290	-0.983387
C23	C	-0.442268	-1.650326	-1.101452
C24	C	-1.103457	-1.600157	-0.706433
C25	C	-1.012146	-1.600098	-0.706398
C26	C	-0.939369	-1.600056	-0.706365
C27	C	-0.848053	-1.599999	-0.706332
C28	C	-0.265861	-1.600146	-0.706417
C29	C	-0.176242	-1.600205	-0.706453
C30	C	-0.499922	-1.877052	-0.741484
C31	C	-0.510046	-1.995112	-0.756463
C32	C	-0.481440	-1.161555	-0.714137
C33	C	-0.470995	-1.039537	-0.698683
C34	C	-0.481218	-1.592444	-1.145878
C35	C	-0.470751	-1.607983	-1.267903
C36	C	-0.499788	-1.564922	-0.430364
C37	C	-0.509707	-1.550093	-0.312326
H38	H	-0.522596	-1.213851	-0.775043
F39	F	-0.563838	-1.063457	-0.836087
F40	F	-0.388555	-1.730141	-1.169812
F41	F	-0.563435	-1.470286	-1.243974
F42	F	-0.388589	-1.137635	-0.576765
H43	H	-0.429829	-0.987245	-0.637781
H44	H	-0.522318	-1.531390	-1.093575
H45	H	-0.429654	-1.669049	-1.320204
