data_functionalizedCrystal
_audit_creation_method	'MofGen! by Chris Wilmer'
_symmetry_space_group_name_H-M	'P1'
_symmetry_Int_Tables_number	1
_symmetry_cell_setting	triclinic
loop_
_symmetry_equiv_pos_as_xyz
  x,y,z
_cell_length_a	9.065218
_cell_length_b	16.992695
_cell_length_c	8.140239
_cell_angle_alpha	89.996131
_cell_angle_beta	89.997198
_cell_angle_gamma	87.842054
loop_
_atom_site_label
_atom_site_type_symbol
_atom_site_fract_x
_atom_site_fract_y
_atom_site_fract_z
O1	O	1.971073	0.115065	-0.136620
O2	O	1.542664	0.124504	-0.136623
O3	O	1.755151	0.005630	-0.136608
O4	O	1.758586	0.233939	-0.136634
O5	O	1.755138	0.005628	0.136619
O6	O	1.542651	0.124502	0.136605
O7	O	1.971060	0.115064	0.136607
Zn8	Zn	1.756854	0.119783	0.179986
Zn9	Zn	1.756871	0.119785	-0.180002
O10	O	1.758573	0.233938	0.136593
C11	C	1.487587	0.123596	-0.000009
C12	C	1.323492	0.120884	-0.000010
C13	C	1.750726	-0.023615	0.000005
C14	C	1.737542	-0.110753	0.000005
C15	C	1.864748	-0.160090	0.000007
C16	C	1.852352	-0.241964	-0.000009
C17	C	1.712748	-0.274500	-0.000015
C18	C	1.585533	-0.225157	-0.000022
C19	C	1.597931	-0.143284	-0.000019
C20	C	1.661364	-0.518463	-0.000038
C21	C	1.648976	-0.600343	-0.000037
C22	C	1.915797	-0.617144	-0.000026
C23	C	1.928182	-0.535269	-0.000012
C24	C	1.800967	-0.485933	-0.000029
N25	N	1.700074	-0.358189	-0.000026
N26	N	1.813642	-0.402245	-0.000029
C27	C	2.026138	0.115972	-0.000010
C28	C	2.190232	0.118684	-0.000020
C29	C	1.762998	0.263183	-0.000024
C30	C	1.776182	0.350320	-0.000034
N31	N	1.756853	0.119781	0.425669
N32	N	1.756882	0.119780	-0.425685
H33	H	1.955937	-0.282132	-0.000003
C34	C	1.431969	-0.260941	-0.000042
H35	H	1.357985	-0.219829	-0.000061
H36	H	1.421572	-0.292535	0.095233
H37	H	1.421601	-0.292524	-0.095339
H38	H	1.494345	-0.103114	-0.000021
C39	C	1.521433	-0.464204	-0.000027
H40	H	1.436518	-0.495310	-0.000008
H41	H	1.520713	-0.431909	-0.095302
H42	H	1.520723	-0.431923	0.095271
C43	C	2.055724	-0.671411	-0.000026
H44	H	2.140641	-0.640307	-0.000012
H45	H	2.056440	-0.703696	-0.095307
H46	H	2.056433	-0.703702	0.095265
C47	C	2.081746	-0.499485	-0.000027
H48	H	2.155732	-0.540595	-0.000045
H49	H	2.092130	-0.467897	0.095250
H50	H	2.092122	-0.467895	-0.095323
C51	C	1.495409	-0.636134	-0.000044
H52	H	1.506251	-0.691961	-0.000023
H53	H	1.442627	-0.619266	-0.095327
H54	H	1.442621	-0.619266	0.095246
C55	C	2.018313	-0.124307	0.000014
H56	H	2.092296	-0.165420	-0.000002
H57	H	2.028696	-0.092722	0.095294
H58	H	2.028699	-0.092716	-0.095278
