data_functionalizedCrystal
_audit_creation_method	'MofGen! by Chris Wilmer'
_symmetry_space_group_name_H-M	'P1'
_symmetry_Int_Tables_number	1
_symmetry_cell_setting	triclinic
loop_
_symmetry_equiv_pos_as_xyz
  x,y,z
_cell_length_a	10.723023
_cell_length_b	10.723024
_cell_length_c	9.198806
_cell_angle_alpha	90.002277
_cell_angle_beta	89.995873
_cell_angle_gamma	95.532291
loop_
_atom_site_label
_atom_site_type_symbol
_atom_site_fract_x
_atom_site_fract_y
_atom_site_fract_z
O1	O	-1.657188	0.175020	0.120895
O2	O	-1.294036	0.191775	0.120896
O3	O	-1.483989	0.001821	0.120890
O4	O	-1.467235	0.364974	0.120901
O5	O	-1.483974	0.001820	-0.120895
O6	O	-1.294021	0.191773	-0.120889
O7	O	-1.657173	0.175019	-0.120890
Cu8	Cu	-1.475596	0.183396	-0.142967
Cu9	Cu	-1.475613	0.183398	0.142972
O10	O	-1.467220	0.364972	-0.120884
C11	C	-1.247529	0.190555	0.000004
C12	C	-1.108974	0.186908	0.000004
C13	C	-1.482762	-0.044679	-0.000001
C14	C	-1.479114	-0.183233	0.000004
C15	C	-1.047194	0.185281	-0.125248
C16	C	-0.903991	0.181511	-0.125250
C17	C	-1.585402	-0.258216	0.000006
C18	C	-1.581634	-0.401420	0.000011
C19	C	-0.703680	0.176239	0.000002
C20	C	-0.842235	0.179886	0.000002
C21	C	-1.468447	0.411473	0.000010
C22	C	-1.472095	0.550027	0.000014
N23	N	-1.475592	0.183394	-0.344081
C24	C	-1.548357	0.255755	-0.416277
C25	C	-1.548376	0.255753	-0.583689
N26	N	-1.475627	0.183390	0.344086
H27	H	-1.100321	0.186672	-0.232478
H28	H	-1.055849	0.185506	0.107234
F29	F	-1.629774	0.336727	-0.335075
F30	F	-0.834551	0.179691	-0.265416
H31	H	-0.895355	0.181292	0.107240
F32	F	-1.707992	-0.203559	0.000014
F33	F	-1.356525	-0.237890	0.000018
H34	H	-1.610666	0.317711	-0.645776
H35	H	-1.672625	-0.465852	0.000006
F36	F	-1.353154	-0.365766	0.000002
H37	H	-1.413321	0.121442	-0.593836
H38	H	-1.413313	0.121439	-0.406211
