data_functionalizedCrystal
_audit_creation_method	'MofGen! by Chris Wilmer'
_symmetry_space_group_name_H-M	'P1'
_symmetry_Int_Tables_number	1
_symmetry_cell_setting	triclinic
loop_
_symmetry_equiv_pos_as_xyz
  x,y,z
_cell_length_a	21.395364
_cell_length_b	25.639240
_cell_length_c	21.395355
_cell_angle_alpha	89.973484
_cell_angle_beta	89.975448
_cell_angle_gamma	90.047709
loop_
_atom_site_label
_atom_site_type_symbol
_atom_site_fract_x
_atom_site_fract_y
_atom_site_fract_z
Zn1	Zn	0.957850	-0.208003	-0.354227
Zn2	Zn	1.207850	0.041997	-0.104227
Zn3	Zn	1.457850	0.291997	0.145773
Zn4	Zn	1.707850	0.541997	0.395773
Zn5	Zn	0.957749	-0.295422	-0.249435
Zn6	Zn	1.207749	-0.045422	0.000565
Zn7	Zn	1.457749	0.204578	0.250565
Zn8	Zn	1.707749	0.454578	0.500565
Zn9	Zn	0.853065	-0.208026	-0.249463
Zn10	Zn	1.103065	0.041974	0.000537
Zn11	Zn	1.353065	0.291974	0.250537
Zn12	Zn	1.603065	0.541974	0.500537
Zn13	Zn	0.853031	-0.295432	-0.354175
Zn14	Zn	1.103031	-0.045432	-0.104175
Zn15	Zn	1.353031	0.204568	0.145825
Zn16	Zn	1.603031	0.454568	0.395825
O17	O	0.905424	-0.251721	-0.301825
O18	O	1.155424	-0.001721	-0.051825
O19	O	1.405424	0.248279	0.198175
O20	O	1.655424	0.498279	0.448175
O21	O	1.045515	-0.219586	-0.340335
O22	O	1.295515	0.030414	-0.090335
O23	O	1.545515	0.280414	0.159665
O24	O	1.795515	0.530414	0.409665
O25	O	0.943835	-0.283835	-0.161760
O26	O	1.193835	-0.033835	0.088240
O27	O	1.443835	0.216165	0.338240
O28	O	1.693835	0.466165	0.588240
O29	O	0.867022	-0.134857	-0.263394
O30	O	1.117022	0.115143	-0.013394
O31	O	1.367022	0.365143	0.236606
O32	O	1.617022	0.615143	0.486606
O33	O	1.045440	-0.283813	-0.263345
O34	O	1.295440	-0.033813	-0.013345
O35	O	1.545440	0.216187	0.236655
O36	O	1.795440	0.466187	0.486655
O37	O	0.944007	-0.134841	-0.340363
O38	O	1.194007	0.115159	-0.090363
O39	O	1.444007	0.365159	0.159637
O40	O	1.694007	0.615159	0.409637
O41	O	0.866924	-0.219625	-0.161782
O42	O	1.116924	0.030375	0.088218
O43	O	1.366924	0.280375	0.338218
O44	O	1.616924	0.530375	0.588218
O45	O	0.765383	-0.219634	-0.263344
O46	O	1.015383	0.030366	-0.013344
O47	O	1.265383	0.280366	0.236656
O48	O	1.515383	0.530366	0.486656
O49	O	0.866963	-0.283828	-0.441860
O50	O	1.116963	-0.033828	-0.191860
O51	O	1.366963	0.216172	0.058140
O52	O	1.616963	0.466172	0.308140
O53	O	0.765357	-0.283851	-0.340275
O54	O	1.015357	-0.033851	-0.090275
O55	O	1.265357	0.216149	0.159725
O56	O	1.515357	0.466149	0.409725
O57	O	0.943974	-0.219595	-0.441898
O58	O	1.193974	0.030405	-0.191898
O59	O	1.443974	0.280405	0.058102
O60	O	1.693974	0.530405	0.308102
O61	O	0.943801	-0.368589	-0.263295
O62	O	1.193801	-0.118589	-0.013295
O63	O	1.443801	0.131411	0.236705
O64	O	1.693801	0.381411	0.486705
O65	O	0.866865	-0.368596	-0.340247
O66	O	1.116865	-0.118596	-0.090247
O67	O	1.366865	0.131404	0.159753
O68	O	1.616865	0.381404	0.409753
C69	C	0.742636	-0.251746	-0.301807
C70	C	0.992636	-0.001746	-0.051807
C71	C	1.242636	0.248254	0.198193
C72	C	1.492636	0.498254	0.448193
C73	C	0.672995	-0.251770	-0.301815
C74	C	0.922995	-0.001770	-0.051815
C75	C	1.172995	0.248230	0.198185
C76	C	1.422995	0.498230	0.448185
C77	C	0.640343	-0.218381	-0.341965
C78	C	0.890343	0.031619	-0.091965
C79	C	1.140343	0.281619	0.158035
C80	C	1.390343	0.531619	0.408035
C81	C	0.574907	-0.218368	-0.341968
C82	C	0.824907	0.031632	-0.091968
C83	C	1.074907	0.281632	0.158032
C84	C	1.324907	0.531632	0.408032
C85	C	0.542127	-0.251751	-0.301826
C86	C	0.792127	-0.001751	-0.051826
C87	C	1.042127	0.248249	0.198174
C88	C	1.292127	0.498249	0.448174
C89	C	0.574787	-0.285142	-0.261667
C90	C	0.824787	-0.035142	-0.011667
C91	C	1.074787	0.214858	0.238333
C92	C	1.324787	0.464858	0.488333
C93	C	0.640221	-0.285151	-0.261662
C94	C	0.890221	-0.035151	-0.011662
C95	C	1.140221	0.214849	0.238338
C96	C	1.390221	0.464849	0.488338
C97	C	0.438400	-0.298836	-0.296781
C98	C	0.688400	-0.048836	-0.046781
C99	C	0.938400	0.201164	0.203219
C100	C	1.188400	0.451164	0.453219
C101	C	0.372967	-0.298828	-0.296791
C102	C	0.622967	-0.048828	-0.046791
C103	C	0.872967	0.201172	0.203209
C104	C	1.122967	0.451172	0.453209
C105	C	0.340306	-0.251722	-0.301840
C106	C	0.590306	-0.001722	-0.051840
C107	C	0.840306	0.248278	0.198160
C108	C	1.090306	0.498278	0.448160
C109	C	0.373086	-0.204624	-0.306892
C110	C	0.623086	0.045376	-0.056892
C111	C	0.873086	0.295376	0.193108
C112	C	1.123086	0.545376	0.443108
C113	C	0.438520	-0.204633	-0.306887
C114	C	0.688520	0.045367	-0.056887
C115	C	0.938520	0.295367	0.193113
C116	C	1.188520	0.545367	0.443113
C117	C	0.471174	-0.251745	-0.301827
C118	C	0.721174	-0.001745	-0.051827
C119	C	0.971174	0.248255	0.198173
C120	C	1.221174	0.498255	0.448173
C121	C	0.236701	-0.218316	-0.341995
C122	C	0.486701	0.031684	-0.091995
C123	C	0.736701	0.281684	0.158005
C124	C	0.986701	0.531684	0.408005
C125	C	0.171265	-0.218301	-0.341994
C126	C	0.421265	0.031699	-0.091994
C127	C	0.671265	0.281699	0.158006
C128	C	0.921265	0.531699	0.408006
C129	C	0.171145	-0.285080	-0.261696
C130	C	0.421145	-0.035080	-0.011696
C131	C	0.671145	0.214920	0.238304
C132	C	0.921145	0.464920	0.488304
C133	C	0.236580	-0.285090	-0.261695
C134	C	0.486580	-0.035090	-0.011695
C135	C	0.736580	0.214910	0.238305
C136	C	0.986580	0.464910	0.488305
C137	C	0.269355	-0.251709	-0.301848
C138	C	0.519355	-0.001709	-0.051848
C139	C	0.769355	0.248291	0.198152
C140	C	1.019355	0.498291	0.448152
C141	C	0.905335	-0.387563	-0.301776
C142	C	1.155335	-0.137563	-0.051776
C143	C	1.405335	0.112437	0.198224
C144	C	1.655335	0.362437	0.448224
C145	C	0.905355	-0.445677	-0.301776
C146	C	1.155355	-0.195677	-0.051776
C147	C	1.405355	0.054323	0.198224
C148	C	1.655355	0.304323	0.448224
C149	C	0.945530	-0.805993	-0.341975
C150	C	1.195530	-0.555993	-0.091975
C151	C	1.445530	-0.305993	0.158025
C152	C	1.695530	-0.055993	0.408025
C153	C	0.945548	-0.860597	-0.341988
C154	C	1.195548	-0.610597	-0.091988
C155	C	1.445548	-0.360597	0.158012
C156	C	1.695548	-0.110597	0.408012
O157	O	0.979601	-0.888794	-0.376116
O158	O	1.229601	-0.638794	-0.126116
O159	O	1.479601	-0.388794	0.123884
O160	O	1.729601	-0.138794	0.373884
N161	N	0.905511	-0.887960	-0.301885
N162	N	1.155511	-0.637960	-0.051885
N163	N	1.405511	-0.387960	0.198115
N164	N	1.655511	-0.137960	0.448115
C165	C	0.865448	-0.860715	-0.261772
C166	C	1.115448	-0.610715	-0.011772
C167	C	1.365448	-0.360715	0.238228
C168	C	1.615448	-0.110715	0.488228
O169	O	0.831394	-0.889003	-0.227664
O170	O	1.081394	-0.639003	0.022336
O171	O	1.331394	-0.389003	0.272336
O172	O	1.581394	-0.139003	0.522336
C173	C	0.865426	-0.806112	-0.261763
C174	C	1.115426	-0.556112	-0.011763
C175	C	1.365426	-0.306112	0.238237
C176	C	1.615426	-0.056112	0.488237
C177	C	0.905471	-0.778752	-0.301864
C178	C	1.155471	-0.528752	-0.051864
C179	C	1.405471	-0.278752	0.198136
C180	C	1.655471	-0.028752	0.448136
C181	C	0.985571	-0.778634	-0.382073
C182	C	1.235571	-0.528634	-0.132073
C183	C	1.485571	-0.278634	0.117927
C184	C	1.735571	-0.028634	0.367927
C185	C	0.985553	-0.724033	-0.382059
C186	C	1.235553	-0.474033	-0.132059
C187	C	1.485553	-0.224033	0.117941
C188	C	1.735553	0.025967	0.367941
C189	C	0.945494	-0.696792	-0.341948
C190	C	1.195494	-0.446792	-0.091948
C191	C	1.445494	-0.196792	0.158052
C192	C	1.695494	0.053208	0.408052
C193	C	0.905453	-0.724152	-0.301850
C194	C	1.155453	-0.474152	-0.051850
C195	C	1.405453	-0.224152	0.198150
C196	C	1.655453	0.025848	0.448150
C197	C	0.825361	-0.778868	-0.221654
C198	C	1.075361	-0.528868	0.028346
C199	C	1.325361	-0.278868	0.278346
C200	C	1.575361	-0.028868	0.528346
C201	C	0.825342	-0.724261	-0.221648
C202	C	1.075342	-0.474261	0.028352
C203	C	1.325342	-0.224261	0.278352
C204	C	1.575342	0.025739	0.528352
C205	C	0.865387	-0.696901	-0.261749
C206	C	1.115387	-0.446901	-0.011749
C207	C	1.365387	-0.196901	0.238251
C208	C	1.615387	0.053099	0.488251
C209	C	0.865377	-0.642310	-0.261725
C210	C	1.115377	-0.392310	-0.011725
C211	C	1.365377	-0.142310	0.238275
C212	C	1.615377	0.107690	0.488275
N213	N	0.905414	-0.614948	-0.301827
N214	N	1.155414	-0.364948	-0.051827
N215	N	1.405414	-0.114948	0.198173
N216	N	1.655414	0.135052	0.448173
C217	C	0.945473	-0.642189	-0.341938
C218	C	1.195473	-0.392189	-0.091938
C219	C	1.445473	-0.142189	0.158062
C220	C	1.695473	0.107811	0.408062
C221	C	0.865494	-0.975385	-0.261795
C222	C	1.115494	-0.725385	-0.011795
C223	C	1.365494	-0.475385	0.238205
C224	C	1.615494	-0.225385	0.488205
C225	C	0.865518	-1.029988	-0.261801
C226	C	1.115518	-0.779988	-0.011801
C227	C	1.365518	-0.529988	0.238199
C228	C	1.615518	-0.279988	0.488199
C229	C	0.945618	-1.029867	-0.342017
C230	C	1.195618	-0.779867	-0.092017
C231	C	1.445618	-0.529867	0.157983
C232	C	1.695618	-0.279867	0.407983
C233	C	0.945597	-0.975263	-0.342008
C234	C	1.195597	-0.725263	-0.092008
C235	C	1.445597	-0.475263	0.157992
C236	C	1.695597	-0.225263	0.407992
C237	C	0.905532	-0.948023	-0.301897
C238	C	1.155532	-0.698023	-0.051897
C239	C	1.405532	-0.448023	0.198103
C240	C	1.655532	-0.198023	0.448103
C241	C	0.945433	-0.527524	-0.341906
C242	C	1.195433	-0.277524	-0.091906
C243	C	1.445433	-0.027524	0.158094
C244	C	1.695433	0.222476	0.408094
C245	C	0.945413	-0.472918	-0.341887
C246	C	1.195413	-0.222918	-0.091887
C247	C	1.445413	0.027082	0.158113
C248	C	1.695413	0.277082	0.408113
C249	C	0.865311	-0.473044	-0.261673
C250	C	1.115311	-0.223044	-0.011673
C251	C	1.365311	0.026956	0.238327
C252	C	1.615311	0.276956	0.488327
C253	C	0.865333	-0.527645	-0.261690
C254	C	1.115333	-0.277645	-0.011690
C255	C	1.365333	-0.027645	0.238310
C256	C	1.615333	0.222355	0.488310
C257	C	0.905396	-0.554883	-0.301811
C258	C	1.155396	-0.304883	-0.051811
C259	C	1.405396	-0.054883	0.198189
C260	C	1.655396	0.195117	0.448189
O261	O	0.831339	-0.614079	-0.227616
O262	O	1.081339	-0.364079	0.022384
O263	O	1.331339	-0.114079	0.272384
O264	O	1.581339	0.135921	0.522384
O265	O	0.979515	-0.613894	-0.376047
O266	O	1.229515	-0.363894	-0.126047
O267	O	1.479515	-0.113894	0.123953
O268	O	1.729515	0.136106	0.373953
C269	C	1.068847	-0.251696	-0.301843
C270	C	1.318847	-0.001696	-0.051843
C271	C	1.568847	0.248304	0.198157
C272	C	1.818847	0.498304	0.448157
C273	C	1.138488	-0.251685	-0.301851
C274	C	1.388488	-0.001685	-0.051851
C275	C	1.638488	0.248315	0.198149
C276	C	1.888488	0.498315	0.448149
C277	C	0.905476	-0.251710	-0.465248
C278	C	1.155476	-0.001710	-0.215248
C279	C	1.405476	0.248290	0.034752
C280	C	1.655476	0.498290	0.284752
C281	C	0.905498	-0.251706	-0.534889
C282	C	1.155498	-0.001706	-0.284889
C283	C	1.405498	0.248294	-0.034889
C284	C	1.655498	0.498294	0.215111
C285	C	0.905530	-0.115348	-0.301888
C286	C	1.155530	0.134652	-0.051888
C287	C	1.405530	0.384652	0.198112
C288	C	1.655530	0.634652	0.448112
C289	C	0.905575	-0.057234	-0.301915
C290	C	1.155575	0.192766	-0.051915
C291	C	1.405575	0.442766	0.198085
C292	C	1.655575	0.692766	0.448085
C293	C	0.945596	-0.218258	-0.567623
C294	C	1.195596	0.031742	-0.317623
C295	C	1.445596	0.281742	-0.067623
C296	C	1.695596	0.531742	0.182377
C297	C	0.945595	-0.218235	-0.633059
C298	C	1.195595	0.031765	-0.383059
C299	C	1.445595	0.281765	-0.133059
C300	C	1.695595	0.531765	0.116941
C301	C	0.905503	-0.251670	-0.665758
C302	C	1.155503	-0.001670	-0.415758
C303	C	1.405503	0.248330	-0.165758
C304	C	1.655503	0.498330	0.084242
C305	C	0.865397	-0.285120	-0.633016
C306	C	1.115397	-0.035120	-0.383016
C307	C	1.365397	0.214880	-0.133016
C308	C	1.615397	0.464880	0.116984
C309	C	0.865395	-0.285138	-0.567582
C310	C	1.115395	-0.035138	-0.317582
C311	C	1.365395	0.214862	-0.067582
C312	C	1.615395	0.464862	0.182418
C313	C	0.900525	-0.298748	-0.769416
C314	C	1.150525	-0.048748	-0.519416
C315	C	1.400525	0.201252	-0.269416
C316	C	1.650525	0.451252	-0.019416
C317	C	0.900532	-0.298731	-0.834849
C318	C	1.150532	-0.048731	-0.584849
C319	C	1.400532	0.201269	-0.334849
C320	C	1.650532	0.451269	-0.084849
C321	C	0.905507	-0.251615	-0.867579
C322	C	1.155507	-0.001615	-0.617579
C323	C	1.405507	0.248385	-0.367579
C324	C	1.655507	0.498385	-0.117579
C325	C	0.910488	-0.204513	-0.834868
C326	C	1.160488	0.045487	-0.584868
C327	C	1.410488	0.295487	-0.334868
C328	C	1.660488	0.545487	-0.084868
C329	C	0.910486	-0.204531	-0.769434
C330	C	1.160486	0.045469	-0.519434
C331	C	1.410486	0.295469	-0.269434
C332	C	1.660486	0.545469	-0.019434
C333	C	0.905501	-0.251654	-0.736710
C334	C	1.155501	-0.001654	-0.486710
C335	C	1.405501	0.248346	-0.236710
C336	C	1.655501	0.498346	0.013290
C337	C	0.945606	-0.218140	-0.971265
C338	C	1.195606	0.031860	-0.721265
C339	C	1.445606	0.281860	-0.471265
C340	C	1.695606	0.531860	-0.221265
C341	C	0.945600	-0.218116	-1.036702
C342	C	1.195600	0.031884	-0.786702
C343	C	1.445600	0.281884	-0.536702
C344	C	1.695600	0.531884	-0.286702
C345	C	0.865406	-0.285006	-1.036658
C346	C	1.115406	-0.035006	-0.786658
C347	C	1.365406	0.214994	-0.536658
C348	C	1.615406	0.464994	-0.286658
C349	C	0.865408	-0.285025	-0.971222
C350	C	1.115408	-0.035025	-0.721222
C351	C	1.365408	0.214975	-0.471222
C352	C	1.615408	0.464975	-0.221222
C353	C	0.905511	-0.251592	-0.938530
C354	C	1.155511	-0.001592	-0.688530
C355	C	1.405511	0.248408	-0.438530
C356	C	1.655511	0.498408	-0.188530
C357	C	0.905408	-0.251694	-0.139037
C358	C	1.155408	-0.001694	0.110963
C359	C	1.405408	0.248306	0.360963
C360	C	1.655408	0.498306	0.610963
C361	C	0.905507	-0.251551	-0.069396
C362	C	1.155507	-0.001551	0.180604
C363	C	1.405507	0.248449	0.430604
C364	C	1.655507	0.498449	0.680604
H365	H	0.346494	-0.166266	-0.311004
H366	H	0.596494	0.083734	-0.061004
H367	H	0.846494	0.333734	0.188996
H368	H	1.096494	0.583734	0.438996
Br369	Br	0.810988	-0.330422	-0.926794
Br370	Br	1.060988	-0.080422	-0.676794
Br371	Br	1.310988	0.169578	-0.426794
Br372	Br	1.560988	0.419578	-0.176794
H373	H	0.464988	-0.337198	-0.292668
H374	H	0.714988	-0.087198	-0.042668
H375	H	0.964988	0.162802	0.207332
H376	H	1.214988	0.412802	0.457332
Br377	Br	1.000027	-0.172767	-0.926893
Br378	Br	1.250027	0.077233	-0.676893
Br379	Br	1.500027	0.327233	-0.426893
Br380	Br	1.750027	0.577233	-0.176893
H381	H	0.832756	-0.312224	-1.063281
H382	H	1.082756	-0.062224	-0.813281
H383	H	1.332756	0.187776	-0.563281
H384	H	1.582756	0.437776	-0.313281
H385	H	0.978205	-0.952990	-0.374662
H386	H	1.228205	-0.702990	-0.124662
H387	H	1.478205	-0.452990	0.125338
H388	H	1.728205	-0.202990	0.375338
H389	H	0.263388	-0.191132	-0.374686
H390	H	0.513388	0.058868	-0.124686
H391	H	0.763388	0.308868	0.125314
H392	H	1.013388	0.558868	0.375314
Br393	Br	0.893780	-0.362654	-0.879235
Br394	Br	1.143780	-0.112654	-0.629235
Br395	Br	1.393780	0.137346	-0.379235
Br396	Br	1.643780	0.387346	-0.129235
H397	H	0.548092	-0.312322	-0.228983
H398	H	0.798092	-0.062322	0.021017
H399	H	1.048092	0.187678	0.271017
H400	H	1.298092	0.437678	0.521017
Br401	Br	1.000033	-0.172726	-1.081128
Br402	Br	1.250033	0.077274	-0.831128
Br403	Br	1.500033	0.327274	-0.581128
Br404	Br	1.750033	0.577274	-0.331128
H405	H	0.144681	-0.191110	-0.374688
H406	H	0.394681	0.058890	-0.124688
H407	H	0.644681	0.308890	0.125312
H408	H	0.894681	0.558890	0.375312
H409	H	0.666806	-0.312340	-0.228965
H410	H	0.916806	-0.062340	0.021035
H411	H	1.166806	0.187660	0.271035
H412	H	1.416806	0.437660	0.521035
Br413	Br	0.810971	-0.330534	-0.523154
Br414	Br	1.060971	-0.080534	-0.273154
Br415	Br	1.310971	0.169466	-0.023154
Br416	Br	1.560971	0.419466	0.226846
H417	H	1.018191	-0.800807	-0.414740
H418	H	1.268191	-0.550807	-0.164740
H419	H	1.518191	-0.300807	0.085260
H420	H	1.768191	-0.050807	0.335260
H421	H	1.018159	-0.701760	-0.414714
H422	H	1.268159	-0.451760	-0.164714
H423	H	1.518159	-0.201760	0.085286
H424	H	1.768159	0.048240	0.335286
Br425	Br	0.811180	-1.067112	-0.207366
Br426	Br	1.061180	-0.817112	0.042634
Br427	Br	1.311180	-0.567112	0.292634
Br428	Br	1.561180	-0.317112	0.542634
H429	H	0.832870	-0.953209	-0.229127
H430	H	1.082870	-0.703209	0.020873
H431	H	1.332870	-0.453209	0.270873
H432	H	1.582870	-0.203209	0.520873
H433	H	0.914540	-0.166180	-0.742803
H434	H	1.164540	0.083820	-0.492803
H435	H	1.414540	0.333820	-0.242803
H436	H	1.664540	0.583820	0.007197
H437	H	0.667024	-0.191199	-0.374661
H438	H	0.917024	0.058801	-0.124661
H439	H	1.167024	0.308801	0.125339
H440	H	1.417024	0.558801	0.375339
H441	H	0.832730	-0.549922	-0.229032
H442	H	1.082730	-0.299922	0.020968
H443	H	1.332730	-0.049922	0.270968
H444	H	1.582730	0.200078	0.520968
H445	H	0.896306	-0.337107	-0.742772
H446	H	1.146306	-0.087107	-0.492772
H447	H	1.396306	0.162893	-0.242772
H448	H	1.646306	0.412893	0.007228
H449	H	0.978246	-0.190995	-0.659716
H450	H	1.228246	0.059005	-0.409716
H451	H	1.478246	0.309005	-0.159716
H452	H	1.728246	0.559005	0.090284
H453	H	0.978235	-1.052056	-0.374679
H454	H	1.228235	-0.802056	-0.124679
H455	H	1.478235	-0.552056	0.125321
H456	H	1.728235	-0.302056	0.375321
Br457	Br	0.126664	-0.330382	-0.207210
Br458	Br	0.376664	-0.080382	0.042790
Br459	Br	0.626664	0.169618	0.292790
Br460	Br	0.876664	0.419618	0.542790
H461	H	0.792752	-0.801135	-0.188999
H462	H	1.042752	-0.551135	0.061001
H463	H	1.292752	-0.301135	0.311001
H464	H	1.542752	-0.051135	0.561001
Br465	Br	0.810982	-0.330493	-0.677391
Br466	Br	1.060982	-0.080493	-0.427391
Br467	Br	1.310982	0.169507	-0.177391
Br468	Br	1.560982	0.419507	0.072609
H469	H	0.548317	-0.191176	-0.374662
H470	H	0.798317	0.058824	-0.124662
H471	H	1.048317	0.308824	0.125338
H472	H	1.298317	0.558824	0.375338
Br473	Br	0.999766	-0.435791	-0.396310
Br474	Br	1.249766	-0.185791	-0.146310
Br475	Br	1.499766	0.064209	0.103690
Br476	Br	1.749766	0.314209	0.353690
Br477	Br	0.999805	-0.564481	-0.396356
Br478	Br	1.249805	-0.314481	-0.146356
Br479	Br	1.499805	-0.064481	0.103644
Br480	Br	1.749805	0.185519	0.353644
H481	H	0.465206	-0.166284	-0.310998
H482	H	0.715206	0.083716	-0.060998
H483	H	0.965206	0.333716	0.189002
H484	H	1.215206	0.583716	0.439002
H485	H	0.263166	-0.312281	-0.229002
H486	H	0.513166	-0.062281	0.020998
H487	H	0.763166	0.187719	0.270998
H488	H	1.013166	0.437719	0.520998
Br489	Br	0.328487	-0.362747	-0.289948
Br490	Br	0.578487	-0.112747	-0.039948
Br491	Br	0.828487	0.137253	0.210052
Br492	Br	1.078487	0.387253	0.460052
H493	H	0.792715	-0.702085	-0.188986
H494	H	1.042715	-0.452085	0.061014
H495	H	1.292715	-0.202085	0.311014
H496	H	1.542715	0.047915	0.561014
Br497	Br	0.810949	-0.436064	-0.207238
Br498	Br	1.060949	-0.186064	0.042762
Br499	Br	1.310949	0.063936	0.292762
Br500	Br	1.560949	0.313936	0.542762
Br501	Br	1.000018	-0.172883	-0.523258
Br502	Br	1.250018	0.077117	-0.273258
Br503	Br	1.500018	0.327117	-0.023258
Br504	Br	1.750018	0.577117	0.226742
H505	H	0.914540	-0.166147	-0.861515
H506	H	1.164540	0.083853	-0.611515
H507	H	1.414540	0.333853	-0.361515
H508	H	1.664540	0.583853	-0.111515
