data_functionalizedCrystal
_audit_creation_method	'MofGen! by Chris Wilmer'
_symmetry_space_group_name_H-M	'P1'
_symmetry_Int_Tables_number	1
_symmetry_cell_setting	triclinic
loop_
_symmetry_equiv_pos_as_xyz
  x,y,z
_cell_length_a	27.732048
_cell_length_b	15.944551
_cell_length_c	15.021413
_cell_angle_alpha	89.996935
_cell_angle_beta	90.001749
_cell_angle_gamma	83.070697
loop_
_atom_site_label
_atom_site_type_symbol
_atom_site_fract_x
_atom_site_fract_y
_atom_site_fract_z
O1	O	-0.641363	-0.099933	-0.073919
O2	O	-0.500635	-0.115130	-0.073947
O3	O	-0.574842	0.014793	-0.073924
O4	O	-0.567156	-0.229857	-0.073942
O5	O	-0.574830	0.014775	0.074140
O6	O	-0.500623	-0.115149	0.074118
O7	O	-0.641351	-0.099952	0.074145
Zn8	Zn	-0.570985	-0.107553	0.097640
Zn9	Zn	-0.571001	-0.107529	-0.097441
O10	O	-0.567144	-0.229875	0.074122
C11	C	-0.574517	0.046074	0.000108
C12	C	-0.573560	0.139307	0.000108
C13	C	-0.482621	-0.114820	0.000082
C14	C	-0.428962	-0.113860	0.000072
C15	C	-0.659365	-0.100262	0.000114
C16	C	-0.713024	-0.101222	0.000118
C17	C	-0.090453	-0.184589	0.000106
C18	C	0.111222	-0.181025	0.000114
O19	O	0.142198	-0.245701	0.000148
N20	N	0.130679	-0.103986	0.000118
C21	C	0.099715	-0.027832	0.000125
O22	O	0.120892	0.037776	0.000138
C23	C	-0.101959	-0.031397	0.000124
C24	C	-0.121414	-0.108441	0.000111
C25	C	-0.109908	-0.261627	0.000094
C26	C	-0.160324	-0.262517	0.000087
C27	C	-0.191285	-0.186369	0.000092
C28	C	-0.171830	-0.109331	0.000104
C29	C	-0.132923	0.044756	0.000138
C30	C	-0.183345	0.043858	0.000139
C31	C	-0.202799	-0.033186	0.000126
C32	C	-0.253206	-0.034073	0.000102
N33	N	-0.272664	-0.111113	0.000098
C34	C	-0.241703	-0.187260	0.000093
C35	C	0.205597	-0.025966	0.000125
C36	C	0.256015	-0.025074	0.000123
C37	C	0.267519	-0.178268	0.000113
C38	C	0.217100	-0.179158	0.000108
C39	C	0.186139	-0.103005	0.000121
C40	C	-0.347580	-0.189124	0.000078
C41	C	-0.398001	-0.190007	0.000067
C42	C	-0.409500	-0.036815	0.000082
C43	C	-0.359084	-0.035931	0.000088
C44	C	-0.328125	-0.112092	0.000089
O45	O	-0.284210	0.030569	0.000078
O46	O	-0.262890	-0.252859	0.000100
C47	C	-0.040037	-0.183699	0.000112
C48	C	-0.020582	-0.106661	0.000124
C49	C	-0.051543	-0.030513	0.000129
C50	C	0.029836	-0.105769	0.000123
C51	C	0.060797	-0.181917	0.000118
C52	C	0.041339	-0.258956	0.000114
C53	C	-0.009076	-0.259846	0.000107
C54	C	-0.032086	0.046526	0.000133
C55	C	0.018331	0.047410	0.000139
C56	C	0.049291	-0.028738	0.000134
C57	C	-0.567469	-0.261156	0.000088
C58	C	-0.568426	-0.354389	0.000082
N59	N	-0.570978	-0.107569	0.230777
C60	C	-0.525277	0.353533	0.000087
C61	C	-0.547692	0.414834	0.073096
C62	C	-0.571830	0.310011	0.000101
C63	C	-0.547715	0.414836	-0.072884
C64	C	-0.570155	0.474902	0.000090
C65	C	-0.594258	0.370084	0.073170
C66	C	-0.594274	0.370079	-0.072875
C67	C	-0.616723	0.431364	0.000152
C68	C	-0.572793	0.215021	0.000108
C69	C	-0.569195	0.569890	0.000090
N70	N	-0.571012	-0.107506	-0.230579
C71	C	-0.536660	-0.167618	0.470450
C72	C	-0.580337	-0.183354	0.529792
C73	C	-0.570990	-0.107548	0.412384
C74	C	-0.527325	-0.091831	0.529784
C75	C	-0.570998	-0.107530	0.587808
C76	C	-0.614690	-0.123321	0.470419
C77	C	-0.561649	-0.031766	0.470407
C78	C	-0.605358	-0.047469	0.529721
C79	C	-0.570985	-0.107561	0.311327
C80	C	-0.571009	-0.107516	0.688863
H81	H	-0.413838	-0.252749	0.000056
H82	H	-0.507656	-0.218457	0.444426
Cl83	Cl	-0.517310	0.445469	-0.168173
H84	H	-0.024911	-0.322584	0.000098
H85	H	-0.588245	-0.247433	0.555876
H86	H	-0.486636	0.319720	0.000152
Cl87	Cl	-0.517286	0.445472	0.168381
Cl88	Cl	-0.071001	0.142265	0.000140
Cl89	Cl	-0.671721	-0.143950	0.430334
H90	H	-0.553727	0.032292	0.444301
Cl91	Cl	-0.650234	0.030977	0.569657
H92	H	-0.208551	0.105873	0.000150
H93	H	-0.655398	0.465028	0.000201
H94	H	-0.490394	-0.078546	0.555863
H95	H	-0.176158	-0.325254	0.000076
Cl96	Cl	-0.308667	-0.284871	0.000078
H97	H	-0.434718	0.025183	0.000082
Cl98	Cl	-0.070994	-0.357369	0.000085
H99	H	0.201264	-0.241894	0.000103
Cl100	Cl	0.280465	0.071785	0.000118
Cl101	Cl	0.306450	-0.273996	0.000110
Cl102	Cl	-0.624656	0.339405	-0.168165
H103	H	-0.343244	0.026805	0.000085
H104	H	0.066557	-0.320958	0.000107
Cl105	Cl	-0.108479	0.141618	0.000139
Cl106	Cl	0.042780	0.144276	0.000144
Cl107	Cl	0.166681	0.069780	0.000138
H108	H	-0.613926	0.350343	0.134961
