data_functionalizedCrystal
_audit_creation_method	'MofGen! by Chris Wilmer'
_symmetry_space_group_name_H-M	'P1'
_symmetry_Int_Tables_number	1
_symmetry_cell_setting	triclinic
loop_
_symmetry_equiv_pos_as_xyz
  x,y,z
_cell_length_a	19.851628
_cell_length_b	14.809374
_cell_length_c	14.809374
_cell_angle_alpha	57.530506
_cell_angle_beta	98.955818
_cell_angle_gamma	67.424787
loop_
_atom_site_label
_atom_site_type_symbol
_atom_site_fract_x
_atom_site_fract_y
_atom_site_fract_z
Zr1	Zr	0.704255	1.000463	-0.231286
O2	O	0.592931	1.191186	-0.398510
O3	O	0.729235	0.809754	-0.165294
O4	O	0.720285	1.000461	-0.377244
O5	O	0.619346	1.000477	-0.036126
O6	O	0.831147	1.000443	-0.377223
O7	O	0.601881	1.000480	-0.186560
O8	O	0.847159	0.659304	0.001915
O9	O	0.603334	1.341616	-0.415264
O10	O	0.833675	0.888177	-0.154930
O11	O	0.763972	0.888189	-0.042677
O12	O	0.753434	1.112721	-0.292220
O13	O	0.683732	1.112732	-0.179967
Zr14	Zr	0.908921	1.000431	0.008672
Zr15	Zr	0.881068	1.000435	-0.231254
Zr16	Zr	0.732108	1.000459	0.008640
Zr17	Zr	0.720847	1.240382	-0.258008
Zr18	Zr	0.892328	0.760513	0.035394
O19	O	0.883940	1.191140	-0.057320
O20	O	0.844336	1.191146	-0.398464
O21	O	0.632535	1.191180	-0.057366
O22	O	1.020245	0.809708	0.175895
O23	O	0.980641	0.809714	-0.165248
O24	O	0.768839	0.809748	0.175850
O25	O	0.993830	1.000417	-0.186489
O26	O	0.892891	1.000433	0.154629
O27	O	0.782028	1.000451	0.154609
O28	O	1.011294	1.000414	-0.036054
O29	O	0.743877	1.341594	-0.415239
O30	O	0.869298	0.659301	0.192624
O31	O	1.009841	0.659278	0.192650
O32	O	0.987701	0.659282	0.001941
O33	O	0.625474	1.341612	-0.224555
O34	O	0.766017	1.341590	-0.224530
O35	O	0.859741	0.888173	0.069606
O36	O	0.929444	0.888162	-0.042647
O37	O	0.849203	1.112706	-0.179937
O38	O	0.779501	1.112717	-0.067685
C39	C	0.785833	0.700346	-0.077882
C40	C	0.778789	0.598494	-0.066538
C41	C	0.810225	0.553080	-0.117165
C42	C	0.802946	0.447811	-0.105442
C43	C	0.585421	1.000482	-0.111347
C44	C	0.510360	1.000494	-0.111361
C45	C	0.285267	1.122896	-0.186177
C46	C	0.253523	1.061698	-0.223720
C47	C	0.372954	1.000461	-0.111325
C48	C	0.270955	1.061667	-0.073804
C49	C	0.240224	1.000437	-0.111292
C50	C	0.342192	0.939262	-0.148930
C51	C	0.359630	0.939248	0.001043
C52	C	0.327937	0.877961	-0.036464
C53	C	0.449415	1.000478	-0.111347
C54	C	0.163767	1.000411	-0.111271
C55	C	1.027754	1.000412	-0.111267
C56	C	1.102816	1.000400	-0.111253
C57	C	0.771748	1.000453	-0.411418
C58	C	0.759923	1.000454	-0.513273
C59	C	0.827343	1.300548	-0.144732
C60	C	0.834387	1.402400	-0.156076
C61	C	0.812694	1.000446	-0.558672
C62	C	0.800474	1.000448	-0.663944
C63	C	0.841428	1.000441	0.188804
C64	C	0.853253	1.000440	0.290659
C65	C	1.006999	0.700311	-0.077842
C66	C	1.075017	0.598447	-0.066484
C67	C	0.820673	0.700340	0.222229
C68	C	0.825454	0.598487	0.335428
C69	C	1.041839	0.700305	0.222269
C70	C	1.121682	0.598440	0.335482
C71	C	0.571336	1.300589	-0.444883
C72	C	0.491494	1.402454	-0.558096
C73	C	0.606176	1.300583	-0.144772
C74	C	0.538159	1.402447	-0.156130
C75	C	0.792502	1.300554	-0.444843
C76	C	0.787722	1.402407	-0.558042
C77	C	1.056967	0.550619	-0.119771
C78	C	1.120869	0.454921	-0.109123
C79	C	1.202820	0.407046	-0.045180
C80	C	1.220869	0.454883	0.008107
C81	C	1.156967	0.550587	-0.002548
C82	C	1.195568	0.550597	0.330053
C83	C	1.270595	0.454897	0.436418
C84	C	1.271733	0.407035	0.548210
C85	C	1.197839	0.454887	0.553636
C86	C	1.122815	0.550592	0.447272
C87	C	0.417609	1.450309	-0.552668
C88	C	0.342584	1.546039	-0.659036
C89	C	0.341445	1.593906	-0.770830
C90	C	0.415339	1.546047	-0.776255
C91	C	0.490362	1.450326	-0.669889
C92	C	0.556208	1.450285	-0.102855
C93	C	0.492305	1.546010	-0.113532
C94	C	0.410354	1.593888	-0.177478
C95	C	0.392305	1.546046	-0.230761
C96	C	0.456207	1.450329	-0.220090
C97	C	0.772347	0.633542	0.379346
C98	C	0.776822	0.537854	0.485698
C99	C	0.834408	0.407111	0.548134
C100	C	0.887517	0.372056	0.504207
C101	C	0.883038	0.467744	0.397852
C102	C	0.730131	1.533134	-0.620445
C103	C	0.725638	1.628850	-0.726800
C104	C	0.778733	1.593835	-0.770754
C105	C	0.836331	1.463095	-0.708340
C106	C	0.840827	1.367382	-0.601983
H107	H	0.267957	1.226421	-0.249549
Br108	Br	1.022544	0.615505	0.454662
Br109	Br	0.704741	0.585457	0.545293
H110	H	0.907485	1.000424	-0.670274
Br111	Br	0.669544	1.000453	-0.578369
Br112	Br	0.356930	0.705321	0.068976
Br113	Br	0.219502	1.147948	-0.020935
Br114	Br	0.903085	1.000416	-0.493559
Br115	Br	0.419130	1.385364	-0.400962
Br116	Br	0.888245	0.467459	-0.242776
H117	H	0.838046	0.329209	0.634733
H118	H	0.934404	0.265593	0.555059
Br119	Br	0.647464	1.806270	-0.811484
Br120	Br	0.710092	1.000447	-0.729038
Br121	Br	0.590631	1.385385	-0.677276
H122	H	0.879559	1.434604	-0.744143
H123	H	0.207930	1.113445	-0.318735
Br124	Br	0.955123	0.420145	0.338266
H125	H	0.842533	0.592126	-0.169184
H126	H	1.194656	0.589552	0.239036
H127	H	1.106157	0.415983	-0.152517
H128	H	0.770642	0.408759	-0.053412
H129	H	0.405222	0.887545	0.096033
Br130	Br	0.658060	1.580689	-0.560822
H131	H	0.990243	0.589598	-0.171853
Br132	Br	1.289534	0.277161	-0.030730
H133	H	0.507017	1.584947	-0.070136
Br134	Br	1.332093	0.389893	0.094887
Br135	Br	0.239620	1.723815	-0.915175
H136	H	1.171676	0.589516	0.040853
Br137	Br	0.724954	0.533402	0.020187
H138	H	1.330754	0.415945	0.431979
Br139	Br	1.373561	0.277148	0.692553
Br140	Br	0.323639	1.723791	-0.191948
H141	H	0.372947	0.887554	-0.180759
H142	H	0.775062	1.671784	-0.857360
Br143	Br	0.281081	1.611034	-0.317538
H144	H	1.198779	0.415904	0.644672
Br145	Br	0.918982	1.189967	-0.517318
H146	H	0.282425	1.584989	-0.654595
H147	H	0.414402	1.585033	-0.867290
H148	H	0.622932	1.411310	-0.050776
Br149	Br	0.431697	1.385412	-0.292396
Br150	Br	0.694186	0.810971	0.294635
