data_functionalizedCrystal
_audit_creation_method	'MofGen! by Chris Wilmer'
_symmetry_space_group_name_H-M	'P1'
_symmetry_Int_Tables_number	1
_symmetry_cell_setting	triclinic
loop_
_symmetry_equiv_pos_as_xyz
  x,y,z
_cell_length_a	19.805407
_cell_length_b	12.594516
_cell_length_c	19.805399
_cell_angle_alpha	90.020797
_cell_angle_beta	90.019573
_cell_angle_gamma	90.016053
loop_
_atom_site_label
_atom_site_type_symbol
_atom_site_fract_x
_atom_site_fract_y
_atom_site_fract_z
Zn1	Zn	1.034784	-0.423767	0.382752
Zn2	Zn	1.034720	-0.601760	0.269577
Zn3	Zn	0.921599	-0.423796	0.269576
Zn4	Zn	0.921583	-0.601704	0.382723
O5	O	0.978172	-0.512757	0.326157
O6	O	1.129492	-0.447389	0.367751
O7	O	1.019694	-0.578189	0.174860
O8	O	0.936647	-0.274846	0.284601
O9	O	1.129445	-0.578160	0.284602
O10	O	1.019804	-0.274825	0.367750
O11	O	0.936584	-0.447439	0.174860
O12	O	0.826880	-0.447385	0.284573
O13	O	0.936620	-0.578064	0.477444
O14	O	0.826869	-0.578092	0.367702
O15	O	1.019788	-0.447335	0.477464
O16	O	1.019678	-0.750698	0.284574
O17	O	0.936557	-0.750657	0.367703
C18	C	0.802316	-0.512736	0.326135
C19	C	0.727084	-0.512753	0.326142
C20	C	0.691751	-0.580915	0.369357
C21	C	0.621063	-0.580917	0.369366
C22	C	0.585708	-0.512762	0.326157
C23	C	0.621045	-0.444592	0.282940
C24	C	0.691733	-0.444586	0.282934
C25	C	0.335972	-0.444615	0.282962
C26	C	0.265280	-0.444629	0.282970
C27	C	0.265302	-0.580947	0.369394
C28	C	0.335989	-0.580941	0.369389
C29	C	0.371321	-0.512768	0.326175
C30	C	0.447969	-0.512765	0.326166
C31	C	0.509061	-0.512769	0.326162
C32	C	0.978127	-0.789298	0.326150
C33	C	0.978170	-0.907603	0.326170
C34	C	0.932956	-0.976872	0.371352
C35	C	0.916467	-1.047728	0.309590
C36	C	0.994721	-1.047546	0.387943
C37	C	0.961649	-0.976901	0.264375
C38	C	1.039931	-0.976712	0.342770
C39	C	1.023465	-1.047536	0.280965
C40	C	1.154714	-0.512778	0.326179
C41	C	1.229946	-0.512787	0.326189
C42	C	0.978209	-0.512690	0.502700
C43	C	0.978226	-0.512661	0.577932
C44	C	0.978235	-0.235136	0.326178
C45	C	0.978261	-0.116830	0.326188
C46	C	0.978173	-0.512747	0.150301
C47	C	0.978288	-0.512475	0.075069
C48	C	1.021533	-0.444587	0.613288
C49	C	1.021539	-0.444556	0.683976
C50	C	0.978242	-0.512605	0.719307
C51	C	0.934931	-0.580683	0.683947
C52	C	0.934921	-0.580707	0.613259
C53	C	0.934969	-0.580583	0.969020
C54	C	0.934984	-0.580556	1.039712
C55	C	1.021588	-0.444432	1.039737
C56	C	1.021578	-0.444457	0.969050
C57	C	0.978264	-0.512530	0.933695
C58	C	0.978256	-0.512561	0.857046
C59	C	0.978253	-0.512580	0.795955
H60	H	0.720500	-0.389075	0.247748
C61	C	1.109561	-0.935233	0.361418
C62	C	1.156977	-0.972617	0.314696
C63	C	1.221128	-0.934439	0.331867
H64	H	1.109216	-0.859819	0.360856
H65	H	1.121264	-0.959409	0.405322
H66	H	1.145277	-0.948434	0.270804
H67	H	1.157343	-1.048025	0.315252
H68	H	1.232831	-0.958615	0.375770
H69	H	1.220776	-0.859026	0.331305
H70	H	1.253308	-0.959806	0.300173
C71	C	0.887976	-0.654382	0.930519
C72	C	0.897215	-0.639826	0.861051
C73	C	0.853930	-0.707786	0.825560
H74	H	0.897826	-0.725936	0.942019
H75	H	0.842489	-0.638787	0.942059
H76	H	0.942692	-0.655428	0.849516
H77	H	0.887360	-0.568286	0.849531
H78	H	0.808443	-0.692190	0.837100
H79	H	0.863784	-0.779335	0.837065
H80	H	0.860188	-0.697911	0.778423
C81	C	0.888008	-0.654611	1.077985
C82	C	0.902700	-0.759931	1.060770
C83	C	0.859438	-0.828176	1.096006
H84	H	0.894176	-0.644995	1.125158
H85	H	0.842521	-0.639089	1.066381
H86	H	0.948176	-0.775448	1.072379
H87	H	0.896528	-0.769581	1.013603
H88	H	0.813951	-0.812654	1.084402
H89	H	0.865609	-0.818550	1.143177
H90	H	0.869396	-0.899642	1.084326
H91	H	0.720532	-0.636419	0.404541
H92	H	0.364771	-0.636444	0.404572
H93	H	0.864280	-1.078946	0.295564
H94	H	0.592298	-0.636423	0.404556
C95	C	0.881995	-0.935430	0.422315
C96	C	0.915393	-0.874238	0.471010
C97	C	0.868470	-0.836055	0.517969
H98	H	0.849396	-0.892889	0.399836
H99	H	0.860116	-0.993587	0.443627
H100	H	0.937261	-0.816089	0.449700
H101	H	0.947988	-0.916756	0.493506
H102	H	0.846591	-0.894213	0.539281
H103	H	0.835874	-0.793519	0.495484
H104	H	0.891125	-0.794541	0.551018
H105	H	0.899675	-0.636086	0.712719
H106	H	0.592254	-0.389094	0.247761
C107	C	0.887819	-0.654449	0.574839
C108	C	0.844429	-0.594197	0.534268
C109	C	0.801021	-0.662091	0.498875
H110	H	0.913617	-0.700861	0.547210
H111	H	0.861998	-0.694954	0.605986
H112	H	0.870248	-0.553710	0.503124
H113	H	0.818617	-0.547787	0.561880
H114	H	0.775200	-0.702596	0.530023
H115	H	0.826824	-0.708500	0.471250
H116	H	0.771572	-0.621220	0.471348
H117	H	1.056853	-0.389000	1.068531
C118	C	0.943079	-0.935766	0.194658
C119	C	0.990273	-0.972383	0.147469
C120	C	0.973191	-0.934497	0.083243
H121	H	0.899399	-0.960649	0.182708
H122	H	0.943171	-0.860334	0.195051
H123	H	0.990174	-1.047799	0.147075
H124	H	1.033956	-0.947502	0.159397
H125	H	0.973283	-0.859065	0.083636
H126	H	0.929510	-0.959383	0.071300
H127	H	1.005212	-0.959328	0.051219
C128	C	1.068431	-0.370636	0.574846
C129	C	1.030115	-0.302443	0.534252
C130	C	1.073294	-0.234309	0.498827
H131	H	1.094237	-0.329986	0.605953
H132	H	1.097901	-0.411330	0.547234
H133	H	1.000657	-0.261753	0.561862
H134	H	1.004311	-0.343063	0.503133
H135	H	1.102764	-0.275003	0.471214
H136	H	1.099097	-0.193667	0.529938
H137	H	1.047303	-0.188039	0.471274
H138	H	1.061740	-1.078369	0.242720
H139	H	0.236527	-0.636453	0.404584
C140	C	1.068478	-0.370674	0.722485
C141	C	1.059202	-0.385183	0.791952
C142	C	1.102420	-0.317121	0.827446
H143	H	1.113980	-0.386184	0.710996
H144	H	1.058573	-0.299144	0.710936
H145	H	1.069111	-0.456697	0.803496
H146	H	1.013709	-0.369666	0.803460
H147	H	1.092516	-0.245590	0.815897
H148	H	1.147920	-0.332636	0.815952
H149	H	1.096128	-0.326948	0.874583
C150	C	1.068611	-0.370456	0.930813
C151	C	1.106527	-0.310810	0.976907
C152	C	1.149853	-0.242615	0.941709
H153	H	1.098149	-0.411064	0.903237
H154	H	1.042739	-0.324031	0.903252
H155	H	1.132398	-0.357229	1.004456
H156	H	1.077007	-0.270179	1.004485
H157	H	1.123981	-0.196190	0.914148
H158	H	1.179387	-0.283232	0.914134
H159	H	1.175580	-0.202130	0.972978
H160	H	0.236496	-0.389122	0.247783
H161	H	1.008682	-1.078577	0.440176
C162	C	0.374204	-0.370560	0.235972
C163	C	0.328110	-0.310897	0.198121
C164	C	0.363307	-0.242671	0.154820
H165	H	0.401795	-0.324139	0.261838
H166	H	0.401750	-0.411180	0.206396
H167	H	0.300576	-0.270281	0.227693
H168	H	0.300517	-0.357290	0.172241
H169	H	0.390853	-0.283290	0.125245
H170	H	0.390897	-0.196257	0.180692
H171	H	0.332037	-0.202188	0.129129
