data_functionalizedCrystal
_audit_creation_method	'MofGen! by Chris Wilmer'
_symmetry_space_group_name_H-M	'P1'
_symmetry_Int_Tables_number	1
_symmetry_cell_setting	triclinic
loop_
_symmetry_equiv_pos_as_xyz
  x,y,z
_cell_length_a	21.395362
_cell_length_b	12.594516
_cell_length_c	21.395355
_cell_angle_alpha	90.011407
_cell_angle_beta	90.043940
_cell_angle_gamma	90.031933
loop_
_atom_site_label
_atom_site_type_symbol
_atom_site_fract_x
_atom_site_fract_y
_atom_site_fract_z
Zn1	Zn	0.957923	-0.423414	0.354617
Zn2	Zn	0.957853	-0.601379	0.249852
Zn3	Zn	0.853138	-0.423464	0.249818
Zn4	Zn	0.853134	-0.601400	0.354557
O5	O	0.905512	-0.512414	0.302211
O6	O	1.045592	-0.446992	0.340759
O7	O	0.943934	-0.577789	0.162170
O8	O	0.867069	-0.274511	0.263730
O9	O	1.045540	-0.577741	0.263789
O10	O	0.944055	-0.274475	0.340725
O11	O	0.867001	-0.447076	0.162144
O12	O	0.765460	-0.447097	0.263672
O13	O	0.867063	-0.577779	0.442243
O14	O	0.765457	-0.577827	0.340624
O15	O	0.944051	-0.447013	0.442287
O16	O	0.943930	-0.750327	0.263731
O17	O	0.866994	-0.750343	0.340657
C18	C	0.742724	-0.512471	0.302138
C19	C	0.673083	-0.512520	0.302122
C20	C	0.640385	-0.580681	0.342130
C21	C	0.574949	-0.580655	0.342158
C22	C	0.542215	-0.512479	0.302167
C23	C	0.574921	-0.444305	0.262155
C24	C	0.640355	-0.444326	0.262133
C25	C	0.438489	-0.503905	0.245761
C26	C	0.373056	-0.503892	0.245782
C27	C	0.340394	-0.512410	0.302236
C28	C	0.373173	-0.520963	0.358670
C29	C	0.438608	-0.520984	0.358648
C30	C	0.471262	-0.512449	0.302187
C31	C	0.236743	-0.580546	0.342278
C32	C	0.171307	-0.580513	0.342307
C33	C	0.171280	-0.444168	0.262298
C34	C	0.236715	-0.444196	0.262275
C35	C	0.269443	-0.512391	0.302264
C36	C	0.905471	-0.788955	0.302205
C37	C	0.905511	-0.907261	0.302223
C38	C	0.863661	-0.976561	0.344034
C39	C	0.848392	-1.047409	0.286856
C40	C	0.920837	-1.047212	0.359410
C41	C	0.890211	-0.976550	0.245015
C42	C	0.962683	-0.976347	0.317608
C43	C	0.947436	-1.047163	0.260391
C44	C	1.068935	-0.512359	0.302284
C45	C	1.138577	-0.512335	0.302315
C46	C	0.905564	-0.512393	0.465634
C47	C	0.905586	-0.512384	0.535275
C48	C	0.905570	-0.234793	0.302231
C49	C	0.905595	-0.116488	0.302239
C50	C	0.905496	-0.512359	0.139423
C51	C	0.905596	-0.512068	0.069782
C52	C	0.945672	-0.444291	0.568012
C53	C	0.945671	-0.444245	0.633448
C54	C	0.905591	-0.512311	0.666144
C55	C	0.865497	-0.580408	0.633399
C56	C	0.865495	-0.580445	0.567965
C57	C	0.900630	-0.608151	0.769815
C58	C	0.900636	-0.608116	0.835248
C59	C	0.905595	-0.512199	0.867965
C60	C	0.910560	-0.416312	0.835241
C61	C	0.910557	-0.416349	0.769806
C62	C	0.905589	-0.512279	0.737096
C63	C	0.945682	-0.444051	0.971654
C64	C	0.945677	-0.444003	1.037091
C65	C	0.865506	-0.580176	1.037041
C66	C	0.865508	-0.580214	0.971605
C67	C	0.905599	-0.512153	0.938916
H68	H	0.465294	-0.527945	0.404598
C69	C	0.895187	-0.713677	0.733833
N70	N	0.891091	-0.793157	0.706732
C71	C	0.821412	-0.655127	0.935593
N72	N	0.788196	-0.711552	0.908469
C73	C	0.135275	-0.369173	0.218307
N74	N	0.108154	-0.312683	0.185172
C75	C	1.027928	-0.934130	0.335212
N76	N	1.077070	-0.902324	0.348480
H77	H	0.832866	-0.635585	1.063661
C78	C	0.916010	-0.310875	0.733813
N79	N	0.920113	-0.231430	0.706702
H80	H	0.144685	-0.636015	0.374891
H81	H	0.465077	-0.496964	0.199786
H82	H	0.263338	-0.388697	0.229692
H83	H	0.346582	-0.527898	0.404640
C84	C	0.872666	-0.934795	0.179671
N85	N	0.859448	-0.903342	0.130455
H86	H	0.800081	-1.078645	0.273857
C87	C	0.938305	-1.089144	0.424736
N88	N	0.951457	-1.120723	0.473942
C89	C	0.676382	-0.655694	0.386122
N90	N	0.703496	-0.712194	0.419257
C91	C	0.272746	-0.655549	0.386273
N92	N	0.299862	-0.712039	0.419413
C93	C	0.337005	-0.494475	0.183704
N94	N	0.309853	-0.487377	0.136945
C95	C	0.989766	-0.369407	0.532058
N96	N	1.022974	-0.313000	0.504976
C97	C	0.538912	-0.369311	0.218164
N98	N	0.511789	-0.312822	0.185030
H99	H	0.978313	-0.388790	0.660108
H100	H	0.666978	-0.388818	0.229553
C101	C	0.916013	-0.310794	0.871224
N102	N	0.920121	-0.231320	0.898330
C103	C	0.815765	-0.934667	0.391728
N104	N	0.779688	-0.903109	0.427648
H105	H	0.982863	-1.077968	0.224999
C106	C	0.989777	-0.369173	0.935694
N107	N	1.022989	-0.312773	0.908610
H108	H	0.978319	-0.388548	1.063744
C109	C	0.895175	-0.713592	0.871238
N110	N	0.891059	-0.793040	0.898344
C111	C	0.821406	-0.655276	0.669366
N112	N	0.788193	-0.711665	0.696456
H113	H	0.832849	-0.635892	0.541311
H114	H	0.548321	-0.636159	0.374740
