data_functionalizedCrystal
_audit_creation_method	'MofGen! by Chris Wilmer'
_symmetry_space_group_name_H-M	'P1'
_symmetry_Int_Tables_number	1
_symmetry_cell_setting	triclinic
loop_
_symmetry_equiv_pos_as_xyz
  x,y,z
_cell_length_a	10.540535
_cell_length_b	10.540558
_cell_length_c	10.868271
_cell_angle_alpha	90.001676
_cell_angle_beta	90.001924
_cell_angle_gamma	95.471622
loop_
_atom_site_label
_atom_site_type_symbol
_atom_site_fract_x
_atom_site_fract_y
_atom_site_fract_z
O1	O	1.685902	-0.178872	0.102234
O2	O	2.185902	0.321128	0.602234
O3	O	1.316490	-0.195734	0.102250
O4	O	1.816490	0.304266	0.602250
O5	O	1.509611	-0.002598	0.102255
O6	O	2.009611	0.497402	0.602255
O7	O	1.492780	-0.372008	0.102229
O8	O	1.992780	0.127992	0.602229
O9	O	1.509595	-0.002590	-0.102390
O10	O	2.009595	0.497410	0.397610
O11	O	1.316473	-0.195726	-0.102395
O12	O	1.816473	0.304274	0.397605
O13	O	1.685886	-0.178865	-0.102410
O14	O	2.185886	0.321135	0.397590
Zn15	Zn	1.501177	-0.187294	-0.134894
Zn16	Zn	2.001177	0.312706	0.365106
Zn17	Zn	1.501198	-0.187305	0.134734
Zn18	Zn	2.001198	0.312695	0.634734
O19	O	1.492764	-0.372001	-0.102415
O20	O	1.992764	0.127999	0.397585
C21	C	1.269178	-0.194467	-0.000070
C22	C	1.769178	0.305533	0.499930
C23	C	1.128230	-0.190687	-0.000063
C24	C	1.628230	0.309313	0.499937
C25	C	1.091550	-0.049675	-0.000059
C26	C	1.591550	0.450325	0.499941
C27	C	0.944949	-0.045697	-0.000535
C28	C	1.444949	0.454303	0.499465
C29	C	0.918889	-0.255053	-0.116717
C30	C	1.418889	0.244947	0.383283
C31	C	1.065655	-0.258053	-0.116803
C32	C	1.565655	0.241947	0.383197
C33	C	1.065557	-0.260114	0.115924
C34	C	1.565557	0.239886	0.615924
C35	C	0.919210	-0.253592	0.117445
C36	C	1.419210	0.246408	0.617445
C37	C	1.508336	0.044708	-0.000061
C38	C	2.008336	0.544708	0.499939
C39	C	1.504545	0.185655	-0.000044
C40	C	2.004545	0.685655	0.499956
C41	C	1.359615	0.369078	0.000437
C42	C	1.859615	0.869078	0.500437
C43	C	1.363459	0.222461	-0.000036
C44	C	1.863459	0.722461	0.499964
C45	C	1.572427	0.247318	-0.116904
C46	C	2.072427	0.747318	0.383096
C47	C	1.567603	0.393861	-0.116991
C48	C	2.067603	0.893861	0.383009
C49	C	1.570490	0.394371	0.115729
C50	C	2.070490	0.894371	0.615729
C51	C	1.571800	0.247390	0.117262
C52	C	2.071800	0.747390	0.617262
C53	C	1.733197	-0.180132	-0.000087
C54	C	2.233197	0.319868	0.499913
C55	C	1.874146	-0.183911	-0.000086
C56	C	2.374146	0.316089	0.499914
C57	C	1.494023	0.580691	-0.000076
C58	C	1.994023	1.080691	0.499924
C59	C	1.497764	0.439738	-0.000027
C60	C	1.997764	0.939738	0.499973
N61	N	1.501172	-0.187287	-0.318908
N62	N	2.001172	0.312713	0.181092
C63	C	1.501192	-0.187302	-0.569914
C64	C	2.001192	0.312698	-0.069914
C65	C	1.501177	-0.187297	-0.430237
C66	C	2.001177	0.312703	0.069763
N67	N	1.501214	-0.187302	0.318748
N68	N	2.001214	0.312698	0.818748
H69	H	1.088692	-0.361427	-0.121794
H70	H	1.588692	0.138573	0.378206
H71	H	1.134997	0.003572	-0.083567
H72	H	1.634997	0.503572	0.416433
H73	H	1.672391	0.441598	0.116514
H74	H	2.172391	0.941598	0.616514
Br75	Br	0.871596	-0.167274	0.261265
Br76	Br	1.371596	0.332726	0.761265
H77	H	1.105816	-0.210002	-0.204314
H78	H	1.605816	0.289998	0.295686
Br79	Br	0.837485	-0.421730	0.129775
Br80	Br	1.337485	0.078270	0.629775
Br81	Br	1.489722	0.178459	0.261377
Br82	Br	1.989722	0.678459	0.761377
Br83	Br	0.839977	-0.424671	-0.123417
Br84	Br	1.339977	0.075329	0.376583
H85	H	1.087749	-0.363864	0.117045
H86	H	1.587749	0.136136	0.617045
H87	H	1.304102	0.399288	-0.082893
H88	H	1.804102	0.899288	0.417107
H89	H	1.310044	0.179854	0.083735
H90	H	1.810044	0.679854	0.583735
Br91	Br	1.736705	0.473822	-0.125844
Br92	Br	2.236705	0.973822	0.374156
Br93	Br	0.897493	0.046565	-0.140712
Br94	Br	1.397493	0.546565	0.359288
Br95	Br	1.483951	0.440873	-0.262580
Br96	Br	1.983951	0.940873	0.237420
Br97	Br	0.867372	-0.173696	-0.261936
Br98	Br	1.367372	0.326304	0.238064
Br99	Br	1.161502	0.040584	0.139327
Br100	Br	1.661502	0.540584	0.639327
H101	H	1.303889	0.397674	0.084245
H102	H	1.803889	0.897674	0.584245
H103	H	1.674662	0.223170	0.124312
H104	H	2.174662	0.723170	0.624312
H105	H	1.309657	0.180708	-0.083948
H106	H	1.809657	0.680708	0.416052
Br107	Br	1.745119	0.210071	-0.124164
Br108	Br	2.245119	0.710071	0.375836
Br109	Br	1.136328	-0.186780	0.263319
Br110	Br	1.636328	0.313220	0.763319
Br111	Br	1.493816	0.176327	-0.261859
Br112	Br	1.993816	0.676327	0.238141
H113	H	0.915614	0.009940	0.083054
H114	H	1.415614	0.509940	0.583054
Br115	Br	1.494381	0.446934	0.263368
Br116	Br	1.994381	0.946934	0.763368
