data_functionalizedCrystal
_audit_creation_method	'MofGen! by Chris Wilmer'
_symmetry_space_group_name_H-M	'P1'
_symmetry_Int_Tables_number	1
_symmetry_cell_setting	triclinic
loop_
_symmetry_equiv_pos_as_xyz
  x,y,z
_cell_length_a	13.339070
_cell_length_b	15.944551
_cell_length_c	12.376457
_cell_angle_alpha	101.276265
_cell_angle_beta	75.589755
_cell_angle_gamma	99.564016
loop_
_atom_site_label
_atom_site_type_symbol
_atom_site_fract_x
_atom_site_fract_y
_atom_site_fract_z
O1	O	1.361721	0.409519	-0.094056
O2	O	1.067189	0.354248	-0.094048
O3	O	1.222496	0.261484	-0.094042
O4	O	1.206414	0.502283	-0.094062
O5	O	1.183683	0.284634	0.093969
O6	O	1.028376	0.377398	0.093963
O7	O	1.322908	0.432670	0.093955
Zn8	Zn	1.169480	0.408710	0.123810
Zn9	Zn	1.220618	0.378208	-0.123903
O10	O	1.167601	0.525433	0.093949
C11	C	1.010092	0.356487	-0.000041
C12	C	0.897788	0.328657	-0.000038
C13	C	1.202422	0.241610	-0.000036
C14	C	1.200420	0.147897	-0.000036
C15	C	0.533017	0.545045	-0.000074
C16	C	0.638533	0.571195	-0.000081
C17	C	0.703352	0.510563	-0.000069
C18	C	0.662645	0.423776	-0.000053
C19	C	0.557120	0.397623	-0.000055
C20	C	0.727455	0.363140	-0.000050
C21	C	0.686748	0.276354	-0.000033
C22	C	0.581233	0.250205	-0.000035
C23	C	0.516415	0.310837	-0.000046
C24	C	0.832979	0.389294	-0.000048
C25	C	0.857082	0.241871	-0.000029
C26	C	0.751566	0.215722	-0.000022
C27	C	1.099369	-0.090507	-0.000048
C28	C	1.127158	-0.129176	0.092651
C29	C	1.196799	-0.023674	-0.000044
C30	C	1.165448	-0.151979	-0.092713
C31	C	1.193296	-0.189405	-0.000057
C32	C	1.224599	-0.061099	0.092732
C33	C	1.262892	-0.083908	-0.092715
C34	C	1.290747	-0.122540	0.000007
C35	C	1.198814	0.071800	-0.000036
C36	C	1.191287	-0.284874	-0.000058
C37	C	1.380005	0.430431	-0.000054
C38	C	1.492311	0.458260	-0.000065
C39	C	1.187676	0.545308	-0.000059
C40	C	1.189680	0.639019	-0.000067
N41	N	1.134587	0.429527	0.292867
N42	N	1.255518	0.357386	-0.292960
C43	C	1.336516	0.309045	0.647859
C44	C	1.360931	0.294473	0.529520
C45	C	1.304347	0.328235	0.470351
C46	C	1.223343	0.376572	0.529532
C47	C	1.198930	0.391151	0.647883
C48	C	1.166762	0.410341	0.470375
C49	C	1.085758	0.458678	0.529556
C50	C	1.061349	0.473254	0.647895
C51	C	1.117933	0.439492	0.707064
C52	C	1.191175	0.395762	0.352024
C53	C	1.053590	0.477868	0.352048
C54	C	1.029174	0.492440	0.470387
H55	H	0.789267	0.531859	-0.000078
H56	H	1.098051	0.451353	0.803425
O57	O	1.391321	0.276146	0.705392
C58	C	1.323012	0.220129	0.773891
H59	H	1.250593	0.195682	0.738238
H60	H	1.299201	0.256234	0.863574
C61	C	1.467332	0.173217	0.819520
C62	C	1.378390	0.143185	0.775725
H63	H	1.501491	0.125755	0.820656
H64	H	1.513353	0.210958	0.773374
H65	H	1.447476	0.203305	0.894252
H66	H	1.398247	0.113107	0.700990
H67	H	1.332373	0.105436	0.821858
O68	O	0.677894	0.655533	-0.000041
C69	C	0.598066	0.703438	-0.000077
H70	H	0.519033	0.667571	0.035520
H71	H	0.601761	0.712213	-0.090278
C72	C	0.709707	0.836415	0.029925
C73	C	0.612637	0.792366	0.073655
H74	H	0.718696	0.891272	0.075401
H75	H	0.763490	0.804141	0.029945
H76	H	0.712774	0.843719	-0.045242
H77	H	0.609576	0.785053	0.148814
H78	H	0.558853	0.824641	0.073649
O79	O	1.058773	-0.152989	0.186264
C80	C	1.089171	-0.104987	0.283846
H81	H	1.139240	-0.042661	0.262243
H82	H	1.136037	-0.144394	0.316214
C83	C	0.929940	-0.160059	0.402433
C84	C	0.991428	-0.083506	0.375901
H85	H	0.869649	-0.146812	0.459220
H86	H	0.909461	-0.192402	0.336691
H87	H	0.969007	-0.192892	0.429399
H88	H	0.952366	-0.050681	0.348923
H89	H	1.011898	-0.051158	0.441641
H90	H	0.548096	0.179536	-0.000034
H91	H	1.018478	-0.076032	0.000046
O92	O	0.712012	0.131404	-0.000214
C93	C	0.671776	0.099886	-0.097572
H94	H	0.710792	0.141213	-0.165635
H95	H	0.584023	0.102587	-0.075559
C96	C	0.645742	-0.044776	-0.058118
C97	C	0.693668	0.005978	-0.141717
H98	H	0.659240	-0.102704	-0.085347
H99	H	0.672845	-0.023542	0.007476
H100	H	0.572617	-0.042515	-0.039782
H101	H	0.766792	0.003725	-0.160042
H102	H	0.666577	-0.015259	-0.207316
H103	H	0.995399	0.512620	0.696080
O104	O	0.872424	0.473598	-0.000210
C105	C	0.859431	0.500048	-0.097603
H106	H	0.792952	0.456099	-0.130065
H107	H	0.934569	0.496157	-0.165784
C108	C	0.915192	0.647547	-0.028167
C109	C	0.833535	0.593571	-0.068032
H110	H	0.899223	0.705237	-0.009929
H111	H	0.923950	0.629727	0.037447
H112	H	0.977800	0.644294	-0.084991
H113	H	0.770933	0.596817	-0.011203
H114	H	0.824767	0.611394	-0.133636
O115	O	1.331191	-0.060023	-0.186329
C116	C	1.299710	-0.106917	-0.283876
H117	H	1.212648	-0.130165	-0.261664
H118	H	1.344955	-0.164806	-0.317699
C119	C	1.428740	-0.019984	-0.402028
C120	C	1.321806	-0.048532	-0.374749
H121	H	1.442374	0.016028	-0.458086
H122	H	1.449953	0.011607	-0.336310
H123	H	1.466432	-0.068232	-0.430208
H124	H	1.284118	-0.000286	-0.346558
H125	H	1.300588	-0.080114	-0.440465
H126	H	0.480235	0.594401	-0.000092
O127	O	1.269699	0.348671	0.294458
C128	C	1.229571	0.275752	0.226102
H129	H	1.154108	0.288584	0.208344
H130	H	1.213200	0.217719	0.271792
C131	C	1.402477	0.241399	0.135509
C132	C	1.309796	0.257163	0.113691
H133	H	1.451965	0.229929	0.066171
H134	H	1.429513	0.290524	0.181565
H135	H	1.388820	0.193040	0.173587
H136	H	1.323452	0.305527	0.075627
H137	H	1.282765	0.208045	0.067627
H138	H	1.371680	-0.136832	0.000057
O139	O	0.950426	0.539287	0.528008
C140	C	0.873888	0.488150	0.596460
H141	H	0.910527	0.434013	0.614177
H142	H	0.808526	0.459368	0.550874
C143	C	0.784082	0.610791	0.687121
C144	C	0.829085	0.544304	0.708889
H145	H	0.756441	0.645429	0.756471
H146	H	0.835645	0.645243	0.641001
H147	H	0.729620	0.586796	0.649130
H148	H	0.883554	0.568299	0.746867
H149	H	0.777530	0.509856	0.755019
H150	H	1.007515	0.505362	0.303873
H151	H	1.249577	-0.021853	0.171188
O152	O	0.920170	0.183083	0.000032
C153	C	1.022037	0.224772	0.000004
H154	H	1.018736	0.296073	0.035595
H155	H	1.071176	0.217596	-0.090193
C156	C	1.075443	0.096115	0.030027
C157	C	1.071389	0.183687	0.073749
H158	H	1.105889	0.070771	0.075511
H159	H	1.006815	0.068027	0.030041
H160	H	1.116391	0.090147	-0.045137
H161	H	1.030431	0.189654	0.148906
H162	H	1.140012	0.211776	0.073749
H163	H	0.430494	0.289550	-0.000040
O164	O	1.135430	-0.198826	-0.186175
C165	C	1.034482	-0.182889	-0.185801
H166	H	1.018430	-0.117938	-0.131531
H167	H	0.974545	-0.235911	-0.149621
C168	C	1.046578	-0.261369	-0.374234
C169	C	1.026866	-0.181591	-0.307585
H170	H	1.041877	-0.260572	-0.449355
H171	H	1.114587	-0.272109	-0.374485
H172	H	0.996628	-0.305545	-0.344070
H173	H	1.076823	-0.137418	-0.337741
H174	H	0.958865	-0.170843	-0.307342
H175	H	1.324230	0.316368	0.373994
O176	O	1.439610	0.247469	0.472211
C177	C	1.484335	0.220812	0.549807
H178	H	1.425457	0.220567	0.634176
H179	H	1.556888	0.267186	0.562373
C180	C	1.587030	0.129680	0.400001
C181	C	1.514712	0.129372	0.503622
H182	H	1.605773	0.073277	0.371512
H183	H	1.556902	0.147641	0.347722
H184	H	1.647482	0.168329	0.410487
H185	H	1.454256	0.090732	0.493132
H186	H	1.544830	0.111402	0.555899
