data_functionalizedCrystal
_audit_creation_method	'MofGen! by Chris Wilmer'
_symmetry_space_group_name_H-M	'P1'
_symmetry_Int_Tables_number	1
_symmetry_cell_setting	triclinic
loop_
_symmetry_equiv_pos_as_xyz
  x,y,z
_cell_length_a	8.559649
_cell_length_b	11.792241
_cell_length_c	7.088929
_cell_angle_alpha	83.733449
_cell_angle_beta	95.325015
_cell_angle_gamma	76.986040
loop_
_atom_site_label
_atom_site_type_symbol
_atom_site_fract_x
_atom_site_fract_y
_atom_site_fract_z
O1	O	2.103509	-0.025390	-0.158956
O2	O	1.638811	0.033181	-0.158967
O3	O	1.882438	-0.162308	-0.158948
O4	O	1.859881	0.170100	-0.158976
O5	O	1.914996	-0.188486	0.159030
O6	O	1.671369	0.007004	0.159010
O7	O	2.136066	-0.051568	0.159022
Cu8	Cu	1.906690	-0.024672	0.188050
Cu9	Cu	1.868187	0.006286	-0.187996
O10	O	1.892439	0.143922	0.159002
C11	C	1.595598	0.024531	0.000020
C12	C	1.418332	0.037744	0.000016
C13	C	1.897300	-0.217558	0.000040
C14	C	1.893059	-0.343184	0.000038
C15	C	1.885259	-0.573179	0.000006
C16	C	1.889593	-0.445192	0.000023
C17	C	2.179279	-0.042917	0.000030
C18	C	2.356543	-0.056129	0.000021
C19	C	1.877577	0.199172	0.000010
C20	C	1.881816	0.324799	-0.000001
N21	N	1.933783	-0.046448	0.452540
N22	N	1.841107	0.028052	-0.452486
H23	H	1.745058	0.105257	0.465860
H24	H	1.335608	0.128227	-0.000002
C25	C	2.144829	-0.216093	0.432835
C26	C	2.063463	-0.150679	0.562765
H27	H	2.224890	-0.280435	0.500887
H28	H	2.069984	-0.244660	0.354781
H29	H	2.194819	-0.167547	0.354739
H30	H	2.013463	-0.199223	0.640851
H31	H	2.138319	-0.122113	0.640851
C32	C	1.628080	-0.168163	0.000045
C33	C	1.468195	-0.178275	0.000038
H34	H	1.697014	-0.243574	0.000067
H35	H	1.636484	-0.117914	-0.110838
H36	H	1.659181	-0.136159	0.110934
H37	H	1.437090	-0.210270	-0.110860
H38	H	1.459785	-0.228542	0.110932
