data_functionalizedCrystal
_audit_creation_method	'MofGen! by Chris Wilmer'
_symmetry_space_group_name_H-M	'P1'
_symmetry_Int_Tables_number	1
_symmetry_cell_setting	triclinic
loop_
_symmetry_equiv_pos_as_xyz
  x,y,z
_cell_length_a	13.448316
_cell_length_b	14.971486
_cell_length_c	14.971486
_cell_angle_alpha	83.614129
_cell_angle_beta	90.007486
_cell_angle_gamma	89.999610
loop_
_atom_site_label
_atom_site_type_symbol
_atom_site_fract_x
_atom_site_fract_y
_atom_site_fract_z
O1	O	0.082651	1.186940	0.116566
O2	O	0.582651	1.686940	0.616566
O3	O	0.082662	0.926540	0.130525
O4	O	0.582662	1.426540	0.630525
O5	O	0.082649	1.063720	-0.006654
O6	O	0.582649	1.563720	0.493346
O7	O	0.082664	1.049761	0.253746
O8	O	0.582664	1.549761	0.753746
O9	O	-0.082735	1.063717	-0.006666
O10	O	0.417265	1.563717	0.493334
O11	O	-0.082722	0.926537	0.130513
O12	O	0.417278	1.426537	0.630513
O13	O	-0.082733	1.186937	0.116555
O14	O	0.417267	1.686937	0.616555
Cu15	Cu	-0.097828	1.056737	0.123533
Cu16	Cu	0.402172	1.556737	0.623533
Cu17	Cu	0.097757	1.056740	0.123547
Cu18	Cu	0.597757	1.556740	0.623547
O19	O	-0.082720	1.049758	0.253734
O20	O	0.417280	1.549758	0.753734
C21	C	-0.000028	0.893214	0.129895
C22	C	0.499972	1.393214	0.629895
C23	C	-0.000024	0.793917	0.128024
C24	C	0.499976	1.293917	0.628024
N25	N	-0.235392	1.056741	0.123523
N26	N	0.264608	1.556741	0.623523
N27	N	0.235322	1.056744	0.123550
N28	N	0.735322	1.556744	0.623550
C29	C	-0.000042	1.063094	-0.039985
C30	C	0.499958	1.563094	0.460015
C31	C	-0.000042	1.061223	-0.139282
C32	C	0.499958	1.561223	0.360718
C33	C	0.287356	1.117600	0.062927
C34	C	0.787356	1.617600	0.562927
C35	C	0.391460	1.117604	0.062924
C36	C	0.891460	1.617604	0.562924
C37	C	0.443526	1.056746	0.123542
C38	C	0.943526	1.556746	0.623542
C39	C	0.391484	0.995887	0.184171
C40	C	0.891484	1.495887	0.684171
C41	C	0.287383	0.995888	0.184177
C42	C	0.787383	1.495888	0.684177
C43	C	0.608464	0.995887	0.184153
C44	C	1.108464	1.495887	0.684153
C45	C	0.712573	0.995884	0.184146
C46	C	1.212573	1.495884	0.684146
C47	C	0.712541	1.117603	0.062900
C48	C	1.212541	1.617603	0.562900
C49	C	0.608440	1.117604	0.062906
C50	C	1.108440	1.617604	0.562906
C51	C	0.556405	1.056743	0.123535
C52	C	1.056405	1.556743	0.623535
C53	C	-0.000040	1.220263	0.117185
C54	C	0.499960	1.720263	0.617185
C55	C	-0.000038	1.319561	0.119056
C56	C	0.499962	1.819561	0.619056
C57	C	-0.000039	1.376786	0.038466
C58	C	0.499961	1.876786	0.538466
C59	C	-0.000042	1.470085	0.040229
C60	C	0.499958	1.970085	0.540229
C61	C	-0.000037	1.506158	0.122583
C62	C	0.499963	2.006158	0.622583
C63	C	-0.000039	1.448925	0.203178
C64	C	0.499961	1.948925	0.703178
C65	C	-0.000043	1.355627	0.201414
C66	C	0.499957	1.855627	0.701414
C67	C	-0.000029	1.643387	0.206849
C68	C	0.499971	2.143387	0.706849
C69	C	-0.000023	1.736692	0.208614
C70	C	0.499977	2.236692	0.708614
C71	C	-0.000028	1.757845	0.045664
C72	C	0.499972	2.257845	0.545664
C73	C	-0.000032	1.664548	0.043900
C74	C	0.499968	2.164548	0.543900
C75	C	-0.000032	1.607322	0.124496
C76	C	0.499968	2.107322	0.624496
C77	C	-0.000046	1.141812	-0.196507
C78	C	0.499954	1.641812	0.303493
C79	C	-0.000036	1.140049	-0.289807
C80	C	0.499964	1.640049	0.210193
C81	C	-0.000028	1.057696	-0.325879
C82	C	0.499972	1.557696	0.174121
C83	C	-0.000021	0.977101	-0.268646
C84	C	0.499979	1.477101	0.231354
C85	C	-0.000024	0.978865	-0.175349
C86	C	0.499976	1.478865	0.324651
C87	C	-0.000018	0.973430	-0.463109
C88	C	0.499982	1.473430	0.036891
C89	C	-0.000016	0.971665	-0.556413
C90	C	0.499984	1.471665	-0.056413
C91	C	-0.000029	1.134614	-0.577567
C92	C	0.499971	1.634614	-0.077567
C93	C	-0.000032	1.136378	-0.484269
C94	C	0.499968	1.636378	0.015731
C95	C	-0.000027	1.055782	-0.427043
C96	C	0.499973	1.555782	0.072957
C97	C	-0.000026	1.050384	0.287065
C98	C	0.499974	1.550384	0.787065
C99	C	-0.000021	1.052254	0.386362
C100	C	0.499979	1.552254	0.886362
H101	H	0.244970	1.167154	0.013562
H102	H	0.744970	1.667154	0.513562
F103	F	-0.000037	1.224028	-0.445880
F104	F	0.499963	1.724028	0.054120
H105	H	0.566101	0.946331	0.233526
H106	H	1.066101	1.446331	0.733526
F107	F	-0.000010	0.887650	-0.402206
F108	F	0.499990	1.387650	0.097794
H109	H	-0.000047	1.516675	-0.025395
H110	H	0.499953	2.016675	0.474605
F111	F	-0.000010	0.884016	-0.594802
F112	F	0.499990	1.384016	-0.094802
H113	H	-0.000045	1.309035	0.267038
H114	H	0.499955	1.809035	0.767038
F115	F	0.767979	0.931112	0.248665
F116	F	1.267979	1.431112	0.748665
F117	F	-0.000017	0.893090	-0.114445
F118	F	0.499983	1.393090	0.385555
F119	F	0.446839	1.182375	-0.001596
F120	F	0.946839	1.682375	0.498404
F121	F	0.553026	1.182369	-0.001614
F122	F	1.053026	1.682369	0.498386
H123	H	0.754914	1.167158	0.013534
H124	H	1.254914	1.667158	0.513534
F125	F	-0.000063	1.229465	-0.158125
F126	F	0.499937	1.729465	0.341875
F127	F	0.446898	0.931121	0.248690
F128	F	0.946898	1.431121	0.748690
F129	F	0.232005	0.931118	0.248704
F130	F	0.732005	1.431118	0.748704
F131	F	-0.000030	1.220391	-0.638472
F132	F	0.499970	1.720391	-0.138472
F133	F	-0.000040	1.338404	-0.049187
F134	F	0.499960	1.838404	0.450813
H135	H	-0.000009	0.910047	-0.298024
H136	H	0.499991	1.410047	0.201976
H137	H	-0.000041	1.205673	-0.336396
H138	H	0.499959	1.705673	0.163604
F139	F	-0.000018	1.626159	-0.043749
F140	F	0.499982	2.126159	0.456251
H141	H	-0.000026	1.804444	-0.019960
H142	H	0.499974	2.304444	0.480040
F143	F	-0.000024	1.775080	0.296263
F144	F	0.499976	2.275080	0.796263
H145	H	-0.000036	1.596796	0.272479
H146	H	0.499964	2.096796	0.772479
H147	H	-0.000041	1.478302	0.270232
H148	H	0.499959	1.978302	0.770232
