data_functionalizedCrystal
_audit_creation_method	'MofGen! by Chris Wilmer'
_symmetry_space_group_name_H-M	'P1'
_symmetry_Int_Tables_number	1
_symmetry_cell_setting	triclinic
loop_
_symmetry_equiv_pos_as_xyz
  x,y,z
_cell_length_a	19.188925
_cell_length_b	19.188930
_cell_length_c	17.666332
_cell_angle_alpha	89.988397
_cell_angle_beta	89.989697
_cell_angle_gamma	83.143665
loop_
_atom_site_label
_atom_site_type_symbol
_atom_site_fract_x
_atom_site_fract_y
_atom_site_fract_z
O1	O	0.926152	0.087151	-0.062973
O2	O	0.722840	0.098889	-0.062972
O3	O	0.830363	-0.008636	-0.062958
O4	O	0.818629	0.194676	-0.062987
O5	O	0.830344	-0.008642	0.062939
O6	O	0.722821	0.098883	0.062925
O7	O	0.926133	0.087145	0.062924
Cu8	Cu	0.824476	0.093014	0.074419
Cu9	Cu	0.824498	0.093020	-0.074468
O10	O	0.818610	0.194670	0.062909
C11	C	0.696820	0.098507	-0.000023
C12	C	0.619315	0.097367	-0.000022
C13	C	0.057545	0.152831	-0.000032
C14	C	0.130368	0.153908	-0.000037
C15	C	0.175302	0.090816	-0.000026
C16	C	0.147408	0.026642	-0.000031
C17	C	0.074586	0.025568	-0.000034
N18	N	0.295973	0.045138	0.042837
N19	N	0.365150	0.046163	0.042842
C20	C	0.394712	0.094050	-0.000018
N21	N	0.352481	0.140883	-0.042872
N22	N	0.283297	0.139860	-0.042874
C23	C	0.254267	0.091974	-0.000023
C24	C	0.501561	0.159386	-0.000023
C25	C	0.574385	0.160460	-0.000032
C26	C	0.591425	0.033193	-0.000018
C27	C	0.518601	0.032121	-0.000017
C28	C	0.473673	0.095220	-0.000016
C29	C	0.829974	-0.034650	-0.000007
C30	C	0.828833	-0.112154	-0.000001
C31	C	0.891924	-0.157079	0.000003
C32	C	0.890852	-0.229903	-0.000010
C33	C	0.826686	-0.257799	-0.000010
C34	C	0.763587	-0.212864	-0.000017
C35	C	0.764660	-0.140041	-0.000013
N36	N	0.777632	-0.365805	0.042835
N37	N	0.776617	-0.434983	0.042833
C38	C	0.823448	-0.477207	-0.000025
N39	N	0.871344	-0.447641	-0.042871
N40	N	0.872361	-0.378456	-0.042865
C41	C	0.825515	-0.336761	-0.000015
C42	C	0.885381	-0.601097	-0.000036
C43	C	0.884307	-0.673922	-0.000053
C44	C	0.757040	-0.656880	-0.000053
C45	C	0.758116	-0.584057	-0.000044
C46	C	0.822289	-0.556170	-0.000032
C47	C	0.952154	0.087527	-0.000027
C48	C	1.029658	0.088666	-0.000033
C49	C	0.819000	0.220684	-0.000043
C50	C	0.820140	0.298188	-0.000054
N51	N	0.824465	0.093008	0.179139
N52	N	0.824514	0.093020	-0.179187
C53	C	0.872092	0.045420	0.218755
C54	C	0.872096	0.045416	0.298003
C55	C	0.824480	0.093014	0.337631
C56	C	0.776844	0.140606	0.298005
C57	C	0.776837	0.140604	0.218759
N58	N	0.815404	0.154821	0.462041
N59	N	0.815415	0.154821	0.537321
C60	C	0.824498	0.093023	0.576395
N61	N	0.833584	0.031223	0.537345
N62	N	0.833576	0.031223	0.462057
C63	C	0.824482	0.093022	0.423560
C64	C	0.872132	0.045427	0.701940
C65	C	0.872131	0.045423	0.781190
C66	C	0.776883	0.140619	0.781191
C67	C	0.776880	0.140617	0.701943
C68	C	0.824509	0.093022	0.662323
H69	H	0.153078	0.206160	-0.000029
C70	C	0.734586	0.182885	0.580466
C71	C	0.724537	0.192938	0.658391
H72	H	0.702266	0.215185	0.553581
H73	H	0.781152	0.190350	0.567470
H74	H	0.727142	0.136304	0.567500
H75	H	0.731985	0.239517	0.671359
H76	H	0.677959	0.185478	0.671392
C77	C	0.631353	-0.632717	-0.000056
C78	C	0.686505	-0.687533	-0.000056
H79	H	0.587807	-0.651644	-0.000065
H80	H	0.634410	-0.604681	0.043848
H81	H	0.634432	-0.604656	-0.043959
H82	H	0.683429	-0.715591	0.043849
H83	H	0.683446	-0.715581	-0.043964
H84	H	0.910912	0.006666	0.813446
C85	C	0.156937	-0.099260	-0.000026
C86	C	0.196797	-0.042711	-0.000022
H87	H	0.187429	-0.142077	-0.000029
H88	H	0.128173	-0.097040	0.043873
H89	H	0.128186	-0.097020	-0.043934
H90	H	0.225545	-0.044948	0.043889
H91	H	0.225573	-0.044932	-0.043925
H92	H	0.464978	0.210765	-0.000023
C93	C	0.992469	-0.710840	-0.064760
C94	C	0.953664	-0.723304	-0.000050
H95	H	1.035290	-0.741325	-0.064755
H96	H	0.966160	-0.719268	-0.108660
H97	H	1.002284	-0.663475	-0.064745
H98	H	0.943845	-0.770668	-0.000069
H99	H	0.979979	-0.714882	0.043860
H100	H	0.713282	-0.103462	-0.000015
C101	C	0.446574	-0.042918	0.064705
C102	C	0.487940	-0.038410	-0.000010
H103	H	0.427642	-0.086461	0.064703
H104	H	0.474621	-0.039863	0.108601
H105	H	0.409396	-0.005490	0.064692
H106	H	0.525120	-0.075835	0.000006
H107	H	0.459891	-0.041472	-0.043917
C108	C	0.682735	0.234712	0.773227
C109	C	0.724540	0.192939	0.824740
H110	H	0.650416	0.267008	0.800117
H111	H	0.711716	0.259754	0.742307
H112	H	0.657712	0.205702	0.742331
H113	H	0.749566	0.221948	0.855633
H114	H	0.695555	0.167895	0.855674
C115	C	-0.034215	0.225462	-0.064767
C116	C	0.008161	0.222189	-0.000044
H117	H	-0.064704	0.268279	-0.064772
H118	H	-0.005440	0.223239	-0.108657
H119	H	-0.061247	0.187091	-0.064756
H120	H	0.035198	0.260557	-0.000057
H121	H	-0.020617	0.224419	0.043858
C122	C	0.966274	-0.048675	0.709896
C123	C	0.924475	-0.006895	0.658384
H124	H	0.998585	-0.080979	0.683005
H125	H	0.991300	-0.019675	0.740789
H126	H	0.937283	-0.073714	0.740820
H127	H	0.953466	0.018148	0.627463
H128	H	0.899447	-0.035899	0.627477
H129	H	0.051883	-0.026685	-0.000035
H130	H	0.706740	-0.547478	-0.000042
H131	H	0.738074	0.179360	0.330275
C132	C	1.017613	-0.181244	0.000006
C133	C	0.962462	-0.126427	0.000008
H134	H	1.061159	-0.162318	0.000004
H135	H	1.014539	-0.209300	0.043905
H136	H	1.014549	-0.209285	-0.043902
H137	H	0.965523	-0.098389	0.043918
H138	H	0.965538	-0.098360	-0.043896
H139	H	0.738053	0.179357	0.186503
H140	H	0.937635	-0.578390	-0.000030
C141	C	0.628377	-0.074942	-0.064727
C142	C	0.640808	-0.036161	-0.000010
H143	H	0.658870	-0.117757	-0.064725
H144	H	0.581021	-0.084763	-0.064720
H145	H	0.636821	-0.048609	-0.108626
H146	H	0.632359	-0.062492	0.043890
H147	H	0.688175	-0.026342	-0.000010
H148	H	0.910871	0.006663	0.186498
C149	C	0.966248	-0.048677	0.290049
C150	C	0.924448	-0.006899	0.341561
H151	H	0.998568	-0.080972	0.316941
H152	H	0.937263	-0.073721	0.259157
H153	H	0.991268	-0.019670	0.259125
H154	H	0.899423	-0.035906	0.372482
H155	H	0.953436	0.018146	0.372467
H156	H	0.711342	-0.235581	-0.000019
C157	C	0.963491	-0.321677	-0.064721
C158	C	0.960206	-0.279297	-0.000001
H159	H	1.006309	-0.352166	-0.064716
H160	H	0.925124	-0.348704	-0.064722
H161	H	0.961279	-0.292899	-0.108619
H162	H	0.962413	-0.308075	0.043897
H163	H	0.998584	-0.252268	0.000006
C164	C	0.582271	0.269276	-0.064754
C165	C	0.605033	0.231000	-0.000036
H166	H	0.601187	0.312828	-0.064753
H167	H	0.597719	0.243316	-0.108648
H168	H	0.532470	0.277653	-0.064743
H169	H	0.654834	0.222619	-0.000049
H170	H	0.589589	0.256967	0.043870
