data_functionalizedCrystal
_audit_creation_method	'MofGen! by Chris Wilmer'
_symmetry_space_group_name_H-M	'P1'
_symmetry_Int_Tables_number	1
_symmetry_cell_setting	triclinic
loop_
_symmetry_equiv_pos_as_xyz
  x,y,z
_cell_length_a	16.956984
_cell_length_b	16.053789
_cell_length_c	9.065215
_cell_angle_alpha	92.852673
_cell_angle_beta	80.534058
_cell_angle_gamma	93.049747
loop_
_atom_site_label
_atom_site_type_symbol
_atom_site_fract_x
_atom_site_fract_y
_atom_site_fract_z
O1	O	1.061517	0.069433	0.066249
O2	O	0.829732	0.069433	0.118000
O3	O	0.950416	0.069430	-0.123222
O4	O	0.940832	0.069437	0.307470
O5	O	0.944333	-0.069430	-0.133582
O6	O	0.823649	-0.069426	0.107640
O7	O	1.055433	-0.069427	0.055889
Zn8	Zn	0.938575	-0.091473	0.080120
Zn9	Zn	0.946590	0.091480	0.093769
O10	O	0.934749	-0.069423	0.297110
C11	C	0.797002	0.000004	0.115470
C12	C	0.708538	0.000004	0.123348
N13	N	0.933111	-0.216334	0.070803
C14	C	0.675503	0.000000	-0.008381
C15	C	0.592381	0.000006	-0.000969
C16	C	0.542296	0.000010	0.138173
C17	C	0.575337	0.000016	0.269912
C18	C	0.658457	0.000016	0.262499
C19	C	0.292789	0.000016	0.174867
C20	C	0.209663	0.000014	0.182270
C21	C	0.226714	0.000006	-0.088612
C22	C	0.309835	0.000000	-0.096013
C23	C	0.342868	0.000011	0.035726
N24	N	0.457332	0.000014	0.145753
N25	N	0.427831	0.000013	0.028146
C26	C	0.980163	-0.260023	0.151105
C27	C	0.976351	-0.347430	0.144577
C28	C	0.925484	-0.391147	0.057753
C29	C	0.878431	-0.347452	-0.022559
C30	C	0.882247	-0.260046	-0.016038
C31	C	0.908824	-0.652558	0.029282
C32	C	0.905009	-0.739970	0.022771
C33	C	1.002931	-0.739943	0.189905
C34	C	1.006740	-0.652535	0.196426
C35	C	0.959690	-0.608848	0.116107
N36	N	0.921584	-0.480491	0.051082
N37	N	0.963594	-0.519505	0.122771
C38	C	1.088164	0.000005	0.058419
C39	C	1.176628	0.000010	0.050541
C40	C	0.946454	0.000001	-0.183253
C41	C	0.943702	0.000003	-0.346692
N42	N	0.952061	0.216341	0.103074
C43	C	0.938711	0.000008	0.357142
C44	C	0.941464	0.000011	0.520582
H45	H	0.716277	-0.000006	-0.121686
H46	H	0.870513	-0.616998	-0.036119
Br47	Br	0.703291	0.000029	0.441282
Br48	Br	0.181879	-0.000006	-0.267391
H49	H	0.350609	-0.000006	-0.209318
H50	H	0.319674	0.000031	0.282139
H51	H	0.534551	0.000025	0.383205
H52	H	0.168884	0.000013	0.295582
Br53	Br	0.835969	-0.799300	-0.095067
Br54	Br	1.049197	-0.200702	0.268949
H55	H	1.014667	-0.382998	0.209965
H56	H	0.837017	-0.383053	-0.093261
H57	H	0.843933	-0.224476	-0.081429
H58	H	1.048163	-0.616947	0.267122
H59	H	1.041237	-0.775522	0.255295
H60	H	0.565489	0.000004	-0.108236
