data_functionalizedCrystal
_audit_creation_method	'MofGen! by Chris Wilmer'
_symmetry_space_group_name_H-M	'P1'
_symmetry_Int_Tables_number	1
_symmetry_cell_setting	triclinic
loop_
_symmetry_equiv_pos_as_xyz
  x,y,z
_cell_length_a	6.817900
_cell_length_b	11.102289
_cell_length_c	11.102193
_cell_angle_alpha	91.948902
_cell_angle_beta	108.604059
_cell_angle_gamma	108.605707
loop_
_atom_site_label
_atom_site_type_symbol
_atom_site_fract_x
_atom_site_fract_y
_atom_site_fract_z
V1	V	-4.111515	-0.175848	-0.396257
O2	O	-4.070547	0.008441	-0.388714
O3	O	-4.088292	-0.348668	-0.393547
O4	O	-4.088289	-0.173147	-0.569079
O5	O	-4.070550	-0.168295	-0.211967
V6	V	-4.588618	-0.153805	-0.374215
O7	O	-4.386854	-0.224203	-0.444609
O8	O	-4.763475	-0.105450	-0.325863
O9	O	-4.388634	0.019016	-0.376925
O10	O	-4.746982	-0.338094	-0.381758
O11	O	-4.746979	-0.161358	-0.558505
O12	O	-4.388637	-0.156505	-0.201393
C13	C	-3.938603	-0.390798	-0.387296
C14	C	-4.001070	-0.532081	-0.386232
C15	C	-4.214424	-0.604929	-0.392072
C16	C	-4.273112	-0.737681	-0.391083
C17	C	-3.905068	-0.724722	-0.378409
C18	C	-3.846388	-0.591975	-0.379406
C19	C	-4.426910	-0.612411	-0.399384
C20	C	-4.485598	-0.745162	-0.398395
C21	C	-3.938598	-0.166902	-0.611203
C22	C	-4.001058	-0.165837	-0.752485
C23	C	-4.121387	-0.398616	-0.788812
C24	C	-4.210886	-0.514499	-0.873348
C25	C	-4.269572	-0.513492	-1.006094
C26	C	-4.238760	-0.396588	-1.054305
C27	C	-4.149261	-0.280704	-0.969769
C28	C	-4.090574	-0.281724	-0.837022
C29	C	-4.028948	-0.047929	-0.933443
C30	C	-3.970246	-0.048934	-0.800696
C31	C	-3.998135	0.068974	-0.981655
C32	C	-3.908620	0.184861	-0.897118
C33	C	-3.849930	0.183849	-0.764364
C34	C	-3.880746	0.066950	-0.716161
C35	C	-4.201666	0.061139	-0.383173
C36	C	-4.118438	0.202420	-0.384245
C37	C	-4.201670	-0.162755	-0.159263
C38	C	-4.118447	-0.163813	-0.017979
H39	H	-4.617402	-0.803031	-0.492549
C40	C	-4.244788	-0.643088	-0.820305
N41	N	-4.270333	-0.739941	-0.780357
H42	H	-3.672667	-0.532668	-0.374666
H43	H	-4.536909	-0.770130	-0.311580
C44	C	-4.056823	-0.399734	-0.642789
N45	N	-4.008198	-0.400580	-0.532803
H46	H	-4.342453	-0.607854	-1.074924
C47	C	-4.426974	-0.540493	-0.278320
N48	N	-4.427009	-0.486322	-0.187129
H49	H	-3.777066	0.278215	-0.695541
C50	C	-4.577999	-0.586442	-0.524259
N51	N	-4.691791	-0.566882	-0.618317
H52	H	-4.286577	-0.395779	-1.162396
C53	C	-4.062678	0.070080	-1.127679
N54	N	-4.111277	0.070915	-1.237665
C55	C	-3.874731	0.313441	-0.950160
N56	N	-3.849198	0.410290	-0.990116
H57	H	-3.832952	0.066115	-0.608074
H58	H	-3.779140	-0.773505	-0.372853
