data_functionalizedCrystal
_audit_creation_method	'MofGen! by Chris Wilmer'
_symmetry_space_group_name_H-M	'P1'
_symmetry_Int_Tables_number	1
_symmetry_cell_setting	triclinic
loop_
_symmetry_equiv_pos_as_xyz
  x,y,z
_cell_length_a	12.811445
_cell_length_b	12.811415
_cell_length_c	17.766277
_cell_angle_alpha	84.562803
_cell_angle_beta	84.559227
_cell_angle_gamma	83.528277
loop_
_atom_site_label
_atom_site_type_symbol
_atom_site_fract_x
_atom_site_fract_y
_atom_site_fract_z
O1	O	1.393312	0.141414	-0.167348
O2	O	1.087792	0.156778	-0.147544
O3	O	1.248236	-0.003663	-0.147540
O4	O	1.232867	0.301855	-0.167352
O5	O	1.248208	-0.003672	-0.022349
O6	O	1.087764	0.156770	-0.022353
O7	O	1.393283	0.141405	-0.042157
Cu8	Cu	1.240521	0.149087	-0.020824
Cu9	Cu	1.240554	0.149097	-0.168877
O10	O	1.232839	0.301847	-0.042161
C11	C	1.048670	0.155912	-0.082221
C12	C	0.932140	0.153329	-0.074091
C13	C	0.713194	0.148506	-0.195313
C14	C	0.603703	0.146080	-0.187678
C15	C	0.603666	0.146059	-0.051186
C16	C	0.713156	0.148485	-0.058822
C17	C	0.767916	0.149706	-0.130887
C18	C	0.877410	0.152125	-0.138521
C19	C	0.877369	0.152112	-0.002031
C20	C	0.767879	0.149686	0.005604
C21	C	1.247360	-0.042775	-0.082217
C22	C	1.244780	-0.159305	-0.074089
C23	C	1.239942	-0.378257	-0.195312
C24	C	1.237517	-0.487747	-0.187679
C25	C	1.237497	-0.487777	-0.051188
C26	C	1.239922	-0.378287	-0.058822
C27	C	1.241146	-0.323531	-0.130886
C28	C	1.243578	-0.214039	-0.138520
C29	C	1.243551	-0.214070	-0.002029
C30	C	1.241126	-0.323561	0.005604
C31	C	1.432406	0.142272	-0.107482
C32	C	1.548936	0.144854	-0.115617
C33	C	1.233715	0.340959	-0.107486
C34	C	1.236296	0.457489	-0.115619
N35	N	1.240505	0.149079	0.083308
N36	N	1.240579	0.149096	-0.273009
C37	C	1.311573	0.078071	0.122693
C38	C	1.311579	0.078066	0.201494
C39	C	1.240527	0.149088	0.240906
C40	C	1.169446	0.220102	0.201512
C41	C	1.169435	0.220097	0.122713
C42	C	1.227193	0.244621	0.360131
C43	C	1.227211	0.244627	0.438928
C44	C	1.240555	0.149101	0.483950
C45	C	1.253903	0.053565	0.450163
C46	C	1.253892	0.053561	0.371364
C47	C	1.240531	0.149100	0.326351
C48	C	1.311634	0.078081	0.608781
C49	C	1.311632	0.078075	0.687584
C50	C	1.169504	0.220119	0.687600
C51	C	1.169501	0.220117	0.608799
C52	C	1.240571	0.149099	0.569393
H53	H	0.757781	0.149495	-0.253991
H54	H	1.244536	-0.169501	0.050431
H55	H	1.111593	0.277927	0.233606
Br56	Br	0.529438	0.144457	-0.275117
Br57	Br	0.693551	0.148036	0.103402
H58	H	0.921936	0.153088	0.050429
Br59	Br	1.239452	-0.397880	0.103402
Br60	Br	1.245246	-0.139729	-0.236320
Br61	Br	1.408081	-0.018303	0.555300
Br62	Br	1.241624	-0.303942	-0.293112
H63	H	1.369440	0.020242	0.090611
H64	H	1.216350	0.322417	0.466431
H65	H	1.236532	-0.532300	-0.240141
H66	H	0.921994	0.153119	-0.197201
Br67	Br	1.235798	-0.562102	0.046608
Br68	Br	1.408035	-0.018312	0.254955
H69	H	1.264757	-0.024227	0.343858
Br70	Br	1.272027	-0.076087	0.511253
Br71	Br	1.408080	-0.018310	0.741041
Br72	Br	0.529327	0.144425	0.046607
Br73	Br	1.073065	0.316496	0.741082
Br74	Br	1.073050	0.316493	0.555341
H75	H	1.216309	0.322415	0.323481
H76	H	1.111561	0.277922	0.090645
