data_functionalizedCrystal
_audit_creation_method	'MofGen! by Chris Wilmer'
_symmetry_space_group_name_H-M	'P1'
_symmetry_Int_Tables_number	1
_symmetry_cell_setting	triclinic
loop_
_symmetry_equiv_pos_as_xyz
  x,y,z
_cell_length_a	16.959455
_cell_length_b	16.120484
_cell_length_c	16.120256
_cell_angle_alpha	95.616173
_cell_angle_beta	92.879573
_cell_angle_gamma	92.922454
loop_
_atom_site_label
_atom_site_type_symbol
_atom_site_fract_x
_atom_site_fract_y
_atom_site_fract_z
Zn1	Zn	1.167702	-0.356828	-0.489438
Zn2	Zn	1.167602	-0.489513	-0.356747
Zn3	Zn	1.042579	-0.349752	-0.349685
Zn4	Zn	1.028427	-0.496551	-0.496473
O5	O	1.101578	-0.423161	-0.423086
O6	O	1.278298	-0.374444	-0.471847
O7	O	1.156899	-0.465067	-0.238848
O8	O	1.065142	-0.233726	-0.362323
O9	O	1.278225	-0.471928	-0.374360
O10	O	1.157068	-0.238924	-0.464999
O11	O	1.065045	-0.362386	-0.233659
O12	O	0.930093	-0.369210	-0.369145
O13	O	1.041021	-0.483923	-0.612502
O14	O	0.919695	-0.477062	-0.476990
O15	O	1.143345	-0.381269	-0.607333
O16	O	1.143176	-0.607412	-0.381182
O17	O	1.040924	-0.612583	-0.483838
C18	C	0.896214	-0.423133	-0.423065
C19	C	0.808356	-0.423142	-0.423077
C20	C	0.442265	-0.366964	-0.367040
C21	C	0.431487	-0.479429	-0.479182
C22	C	0.514034	-0.479417	-0.479176
C23	C	0.560700	-0.423178	-0.423101
C24	C	0.524820	-0.366952	-0.367031
C25	C	0.549920	-0.535648	-0.535239
C26	C	0.632472	-0.535638	-0.535235
C27	C	0.679140	-0.479395	-0.479163
C28	C	0.643255	-0.423166	-0.423092
C29	C	0.689921	-0.366928	-0.367016
C30	C	0.654038	-0.310694	-0.310948
C31	C	0.571488	-0.310709	-0.310959
C32	C	0.761690	-0.479380	-0.479153
C33	C	0.772476	-0.366915	-0.367007
C34	C	1.090524	-0.640326	-0.434058
C35	C	1.085866	-0.733231	-0.438780
C36	C	1.077366	-0.903331	-0.447418
C37	C	1.125930	-0.942151	-0.398767
C38	C	1.121200	-1.036801	-0.403573
C39	C	1.082095	-0.808673	-0.442613
C40	C	1.307743	-0.423190	-0.423107
C41	C	1.395599	-0.423203	-0.423116
C42	C	1.090615	-0.434170	-0.641093
C43	C	1.085944	-0.438861	-0.733995
C44	C	1.112695	-0.205149	-0.412089
C45	C	1.117432	-0.112246	-0.407402
C46	C	1.125938	-0.398675	-0.942920
C47	C	1.077390	-0.447392	-0.904080
C48	C	1.082151	-0.442644	-0.809435
C49	C	1.121179	-0.403422	-1.037572
C50	C	1.112546	-0.412135	-0.205923
C51	C	1.117382	-0.407208	-0.113010
H52	H	0.692045	-0.264908	-0.265288
H53	H	1.032248	-0.492660	-0.941907
H54	H	1.171058	-0.904302	-0.353505
O55	O	1.023504	-0.948351	-0.501481
C56	C	0.979258	-0.893621	-0.545760
H57	H	1.014532	-0.831481	-0.545592
H58	H	0.966221	-0.922234	-0.612861
H59	H	0.921244	-0.882894	-0.514632
H60	H	1.171074	-0.353406	-0.905094
H61	H	0.542264	-0.264927	-0.265311
O62	O	0.817889	-0.312398	-0.312498
C63	C	0.865919	-0.357166	-0.260815
H64	H	0.873595	-0.422038	-0.293389
H65	H	0.926256	-0.322534	-0.247940
H66	H	0.836745	-0.363127	-0.199323
O67	O	0.407286	-0.312421	-0.312609
C68	C	0.324418	-0.324468	-0.324655
H69	H	0.308496	-0.390394	-0.355183
H70	H	0.296474	-0.315540	-0.261770
H71	H	0.301275	-0.277213	-0.366749
H72	H	0.393486	-0.525221	-0.524832
H73	H	0.511919	-0.581440	-0.580887
H74	H	0.661681	-0.581427	-0.580890
H75	H	0.790902	-0.525167	-0.524800
