data_functionalizedCrystal
_audit_creation_method	'MofGen! by Chris Wilmer'
_symmetry_space_group_name_H-M	'P1'
_symmetry_Int_Tables_number	1
_symmetry_cell_setting	triclinic
loop_
_symmetry_equiv_pos_as_xyz
  x,y,z
_cell_length_a	12.759401
_cell_length_b	12.759400
_cell_length_c	12.759393
_cell_angle_alpha	90.030447
_cell_angle_beta	90.018496
_cell_angle_gamma	90.013326
loop_
_atom_site_label
_atom_site_type_symbol
_atom_site_fract_x
_atom_site_fract_y
_atom_site_fract_z
Zn1	Zn	1.606267	-0.418200	0.593990
Zn2	Zn	1.606166	-0.593919	0.418313
Zn3	Zn	1.430569	-0.418255	0.418329
Zn4	Zn	1.430562	-0.593838	0.593955
O5	O	1.518391	-0.506053	0.506147
O6	O	1.753274	-0.441520	0.570694
O7	O	1.582833	-0.570673	0.271294
O8	O	1.453920	-0.271226	0.441652
O9	O	1.753200	-0.570620	0.441625
O10	O	1.583005	-0.271186	0.570709
O11	O	1.453822	-0.441614	0.271306
O12	O	1.283547	-0.441535	0.441618
O13	O	1.453909	-0.570482	0.740980
O14	O	1.283542	-0.570536	0.570649
O15	O	1.582998	-0.441442	0.741006
O16	O	1.582826	-0.740929	0.441591
O17	O	1.453811	-0.740870	0.570634
C18	C	1.245423	-0.506033	0.506132
C19	C	1.128647	-0.506050	0.506151
C20	C	1.518336	-0.779020	0.506130
C21	C	1.518408	-0.895797	0.506158
C22	C	1.073810	-0.573328	0.573227
C23	C	0.964086	-0.573342	0.573238
C24	C	0.964045	-0.438796	0.439089
C25	C	1.073767	-0.438778	0.439084
C26	C	1.073832	-0.651010	0.650673
C27	C	0.964108	-0.651024	0.650685
C28	C	1.585589	-0.950558	0.573413
C29	C	1.585638	-1.060282	0.573439
C30	C	1.451322	-1.060474	0.438945
C31	C	1.451269	-0.950752	0.438926
C32	C	1.663138	-0.950448	0.651059
C33	C	1.663187	-1.060172	0.651084
C34	C	1.792424	-0.506073	0.506161
C35	C	1.909201	-0.506082	0.506168
C36	C	1.518464	-0.505947	0.780180
C37	C	1.518496	-0.505902	0.896957
C38	C	1.518475	-0.232019	0.506186
C39	C	1.518510	-0.115243	0.506203
C40	C	1.518378	-0.506083	0.233179
C41	C	1.518550	-0.505832	0.116403
C42	C	1.585722	-0.438704	0.951834
C43	C	1.585747	-0.438666	1.061558
C44	C	1.451316	-0.573033	1.061518
C45	C	1.451287	-0.573064	0.951796
C46	C	1.663337	-0.361131	0.951858
C47	C	1.663362	-0.361093	1.061582
H48	H	1.118412	-0.383987	0.384472
H49	H	1.396595	-0.627712	1.106182
H50	H	1.740429	-0.916381	0.621970
O51	O	1.385972	-0.897719	0.373500
C52	C	1.252704	-0.909492	0.240154
C53	C	1.326618	-0.969682	0.314182
H54	H	1.204681	-0.967649	0.192192
H55	H	1.300888	-0.858158	0.185175
H56	H	1.197767	-0.858099	0.288355
H57	H	1.381570	-1.021133	0.266066
H58	H	1.278368	-1.020951	0.369163
O59	O	1.386011	-0.638235	0.898326
C60	C	1.326426	-0.697875	0.729276
C61	C	1.400389	-0.623997	0.789700
H62	H	1.338040	-0.686406	0.641442
H63	H	1.241700	-0.679401	0.750772
H64	H	1.344833	-0.782577	0.750894
H65	H	1.382077	-0.539270	0.768115
H66	H	1.485093	-0.642562	0.768200
H67	H	1.744584	-1.089909	0.629370
H68	H	1.396659	-1.105232	0.384208
O69	O	1.637297	-0.264023	0.916524
C70	C	1.590018	-0.087017	0.962382
C71	C	1.619472	-0.196944	1.002539
H72	H	1.575619	-0.032747	1.031905
H73	H	1.515868	-0.092266	0.912780
H74	H	1.656841	-0.054639	0.912719
H75	H	1.552717	-0.229386	1.052245
H76	H	1.693653	-0.191628	1.052085
H77	H	0.919349	-0.384025	0.384487
O78	O	1.637194	-0.914991	0.748178
C79	C	1.681457	-0.911440	0.931755
C80	C	1.710943	-0.951687	0.821835
H81	H	1.741078	-0.941074	0.991333
H82	H	1.600123	-0.941283	0.953589
H83	H	1.681375	-0.822093	0.931701
H84	H	1.711085	-1.041031	0.821806
H85	H	1.792258	-0.921764	0.800045
H86	H	0.934314	-0.732373	0.628754
H87	H	1.633997	-1.094168	0.728356
O88	O	1.109531	-0.625002	0.747706
C89	C	1.211186	-0.503943	0.851161
C90	C	1.170846	-0.533287	0.741216
H91	H	1.260748	-0.429777	0.845955
H92	H	1.260893	-0.570753	0.883503
H93	H	1.141707	-0.489539	0.905439
H94	H	1.240261	-0.547674	0.686859
H95	H	1.121106	-0.466461	0.708960
O96	O	0.923711	-0.616391	0.743041
C97	C	0.960199	-0.551149	0.916522
C98	C	1.006090	-0.590379	0.811999
H99	H	1.026779	-0.530086	0.972295
H100	H	0.909953	-0.615388	0.952988
H101	H	0.909877	-0.478854	0.901629
H102	H	1.056458	-0.662655	0.826802
H103	H	1.056276	-0.526076	0.775565
H104	H	1.740610	-0.390300	0.917822
O105	O	1.628465	-0.268950	1.102252
C106	C	1.499687	-0.183150	1.210494
C107	C	1.539091	-0.287564	1.164487
H108	H	1.427435	-0.198165	1.260839
H109	H	1.478571	-0.127353	1.144008
H110	H	1.563941	-0.146636	1.260756
H111	H	1.474884	-0.324168	1.114237
H112	H	1.560238	-0.343289	1.231023
H113	H	1.107848	-0.728262	0.621390
O114	O	1.760478	-0.387160	1.096941
C115	C	1.937437	-0.434555	1.051128
C116	C	1.827503	-0.405072	1.010943
H117	H	1.991662	-0.449024	0.981620
H118	H	1.932177	-0.508672	1.100711
H119	H	1.969874	-0.367717	1.100817
H120	H	1.795001	-0.471841	0.961210
H121	H	1.832829	-0.330923	0.961417
