data_functionalizedCrystal
_audit_creation_method	'MofGen! by Chris Wilmer'
_symmetry_space_group_name_H-M	'P1'
_symmetry_Int_Tables_number	1
_symmetry_cell_setting	triclinic
loop_
_symmetry_equiv_pos_as_xyz
  x,y,z
_cell_length_a	17.699083
_cell_length_b	15.995350
_cell_length_c	16.776229
_cell_angle_alpha	89.995580
_cell_angle_beta	89.998886
_cell_angle_gamma	83.387695
loop_
_atom_site_label
_atom_site_type_symbol
_atom_site_fract_x
_atom_site_fract_y
_atom_site_fract_z
O1	O	1.004255	0.105885	-0.066173
O2	O	1.337588	0.439219	0.267161
O3	O	1.670921	0.772552	0.600494
O4	O	0.783899	0.119661	-0.066198
O5	O	1.117232	0.452994	0.267135
O6	O	1.450566	0.786328	0.600469
O7	O	0.900100	-0.009127	-0.066184
O8	O	1.233434	0.324207	0.267149
O9	O	1.566767	0.657540	0.600483
O10	O	0.888053	0.234673	-0.066187
O11	O	1.221387	0.568006	0.267147
O12	O	1.554720	0.901340	0.600480
O13	O	0.900085	-0.009135	0.066393
O14	O	1.233418	0.324199	0.399726
O15	O	1.566752	0.657532	0.733059
O16	O	0.783884	0.119653	0.066378
O17	O	1.117217	0.452986	0.399712
O18	O	1.450550	0.786320	0.733045
O19	O	1.004239	0.105877	0.066404
O20	O	1.337572	0.439211	0.399737
O21	O	1.670906	0.772544	0.733071
Zn22	Zn	0.894059	0.112764	0.087441
Zn23	Zn	1.227392	0.446097	0.420774
Zn24	Zn	1.560726	0.779431	0.754107
Zn25	Zn	0.894079	0.112774	-0.087235
Zn26	Zn	1.227413	0.446108	0.246099
Zn27	Zn	1.560746	0.779441	0.579432
O28	O	0.888038	0.234665	0.066390
O29	O	1.221371	0.567998	0.399723
O30	O	1.554704	0.901332	0.733056
C31	C	0.755694	0.119163	0.000087
C32	C	1.089027	0.452497	0.333420
C33	C	1.422360	0.785830	0.666753
C34	C	0.671673	0.117683	0.000077
C35	C	1.005006	0.451016	0.333410
C36	C	1.338340	0.784349	0.666744
C37	C	0.899595	-0.040324	0.000103
C38	C	1.232928	0.293009	0.333436
C39	C	1.566261	0.626342	0.666769
C40	C	0.898101	-0.133272	0.000098
C41	C	1.231435	0.200062	0.333431
C42	C	1.564768	0.533395	0.666765
C43	C	0.623178	0.193278	0.000076
C44	C	0.956511	0.526612	0.333410
C45	C	1.289844	0.859945	0.666743
C46	C	0.544232	0.191882	0.000087
C47	C	0.877565	0.525215	0.333420
C48	C	1.210899	0.858549	0.666753
C49	C	0.513783	0.114889	0.000092
C50	C	0.847117	0.448222	0.333425
C51	C	1.180450	0.781556	0.666759
C52	C	0.562285	0.039287	0.000095
C53	C	0.895618	0.372621	0.333428
C54	C	1.228951	0.705954	0.666762
C55	C	0.641229	0.040685	0.000090
C56	C	0.974562	0.374018	0.333424
C57	C	1.307895	0.707351	0.666757
C58	C	0.243912	0.033651	0.000115
C59	C	0.577246	0.366984	0.333448
C60	C	0.910579	0.700317	0.666781
C61	C	0.164962	0.032259	0.000117
C62	C	0.498295	0.365592	0.333450
C63	C	0.831629	0.698926	0.666784
C64	C	0.146916	0.184848	0.000111
C65	C	0.480249	0.518181	0.333444
C66	C	0.813582	0.851515	0.666778
C67	C	0.225860	0.186245	0.000106
C68	C	0.559193	0.519579	0.333440
C69	C	0.892526	0.852912	0.666773
C70	C	0.274354	0.110644	0.000114
C71	C	0.607688	0.443977	0.333447
C72	C	0.941021	0.777311	0.666780
C73	C	0.359956	0.112159	0.000104
C74	C	0.693289	0.445492	0.333437
C75	C	1.026623	0.778826	0.666771
C76	C	0.428183	0.113373	0.000096
C77	C	0.761516	0.446706	0.333429
C78	C	1.094850	0.780040	0.666763
C79	C	0.892739	-0.471008	0.000100
C80	C	1.226073	-0.137675	0.333433
C81	C	1.559406	0.195658	0.666767
C82	C	0.809983	-0.423406	-0.000207
C83	C	1.143316	-0.090073	0.333127
C84	C	1.476649	0.243261	0.666460
C85	C	0.811476	-0.326719	0.000092
C86	C	1.144810	0.006615	0.333426
C87	C	1.478143	0.339948	0.666759
C88	C	0.895399	-0.303453	0.000099
C89	C	1.228732	0.029880	0.333432
C90	C	1.562066	0.363213	0.666765
C91	C	0.936209	-0.344618	0.075810
C92	C	1.269542	-0.011285	0.409143
C93	C	1.602875	0.322048	0.742476
C94	C	0.934130	-0.441250	0.075873
C95	C	1.267463	-0.107917	0.409206
C96	C	1.600796	0.225417	0.742540
C97	C	0.935857	-0.441602	-0.074891
C98	C	1.269190	-0.108269	0.258442
C99	C	1.602523	0.225064	0.591775
C100	C	0.935837	-0.344657	-0.075892
C101	C	1.269171	-0.011324	0.257442
C102	C	1.602504	0.322010	0.590775
C103	C	0.896907	-0.208759	0.000101
C104	C	1.230240	0.124574	0.333434
C105	C	1.563573	0.457908	0.666767
C106	C	0.891234	-0.565703	0.000104
C107	C	1.224567	-0.232370	0.333437
C108	C	1.557901	0.100964	0.666770
C109	C	1.032445	0.106375	0.000117
C110	C	1.365778	0.439708	0.333451
C111	C	1.699111	0.773042	0.666784
C112	C	1.116465	0.107856	0.000122
C113	C	1.449799	0.441189	0.333455
C114	C	1.783132	0.774522	0.666789
C115	C	0.888544	0.265863	0.000101
C116	C	1.221877	0.599196	0.333435
C117	C	1.555210	0.932529	0.666768
C118	C	0.890037	0.358810	0.000101
C119	C	1.223370	0.692143	0.333434
C120	C	1.556703	1.025477	0.666767
N121	N	0.894051	0.112756	0.206652
N122	N	1.227384	0.446090	0.539985
N123	N	1.560717	0.779423	0.873318
N124	N	0.894094	0.112775	-0.206446
N125	N	1.227427	0.446109	0.126887
N126	N	1.560760	0.779442	0.460221
C127	C	0.945520	0.055752	0.248375
C128	C	1.278854	0.389086	0.581708
C129	C	1.612187	0.722419	0.915042
C130	C	0.945524	0.055752	0.331827
C131	C	1.278858	0.389085	0.665161
C132	C	1.612191	0.722418	0.998494
C133	C	0.894062	0.112760	0.373555
C134	C	1.227395	0.446093	0.706888
C135	C	1.560729	0.779426	1.040221
C136	C	0.842587	0.169766	0.331825
C137	C	1.175920	0.503100	0.665159
C138	C	1.509254	0.836433	0.998492
C139	C	0.842580	0.169762	0.248375
C140	C	1.175913	0.503096	0.581708
C141	C	1.509246	0.836429	0.915041
C142	C	0.842614	0.169783	0.668373
C143	C	1.175948	0.503116	1.001706
C144	C	1.509281	0.836449	1.335039
C145	C	0.842627	0.169784	0.751829
C146	C	1.175960	0.503117	1.085162
C147	C	1.509294	0.836451	1.418496
C148	C	0.945559	0.055772	0.751825
C149	C	1.278892	0.389105	1.085159
C150	C	1.612226	0.722439	1.418492
C151	C	0.945552	0.055768	0.668375
C152	C	1.278885	0.389102	1.001708
C153	C	1.612218	0.722435	1.335041
C154	C	0.894074	0.112771	0.626653
C155	C	1.227408	0.446105	0.959986
C156	C	1.560741	0.779438	1.293319
C157	C	0.894069	0.112770	0.536164
C158	C	1.227403	0.446104	0.869498
C159	C	1.560736	0.779437	1.202831
C160	C	0.894070	0.112765	0.464041
C161	C	1.227403	0.446099	0.797375
C162	C	1.560737	0.779432	1.130708
H163	H	0.647962	0.255975	0.000071
H164	H	0.981296	0.589308	0.333405
H165	H	1.314629	0.922642	0.666738
Cl166	Cl	0.126685	-0.064540	0.000124
Cl167	Cl	0.460019	0.268794	0.333457
Cl168	Cl	0.793352	0.602127	0.666791
Cl169	Cl	0.892429	-0.300721	0.162792
Cl170	Cl	1.225762	0.032613	0.496125
Cl171	Cl	1.559095	0.365946	0.829459
Cl172	Cl	1.010229	-0.015912	0.384281
Cl173	Cl	1.343563	0.317421	0.717614
Cl174	Cl	1.676896	0.650754	1.050948
Cl175	Cl	0.777925	0.241455	0.804286
Cl176	Cl	1.111259	0.574789	1.137619
Cl177	Cl	1.444592	0.908122	1.470952
H178	H	0.504750	0.253440	0.000085
H179	H	0.838083	0.586773	0.333418
H180	H	1.171416	0.920106	0.666752
Cl181	Cl	0.264133	0.283040	0.000095
Cl182	Cl	0.597467	0.616373	0.333429
Cl183	Cl	0.930800	0.949707	0.666762
Cl184	Cl	0.761946	-0.282728	-0.083700
Cl185	Cl	1.095280	0.050606	0.249633
Cl186	Cl	1.428613	0.383939	0.582966
H187	H	0.107421	0.246406	0.000109
H188	H	0.440755	0.579739	0.333443
H189	H	0.774088	0.913073	0.666776
Cl190	Cl	0.304867	-0.061391	0.000123
Cl191	Cl	0.638200	0.271942	0.333456
Cl192	Cl	0.971533	0.605275	0.666790
Cl193	Cl	0.777905	0.241445	0.615928
Cl194	Cl	1.111238	0.574778	0.949261
Cl195	Cl	1.444571	0.908112	1.282594
Cl196	Cl	0.888161	-0.469421	0.163241
Cl197	Cl	1.221494	-0.136087	0.496574
Cl198	Cl	1.554827	0.197246	0.829908
Cl199	Cl	0.777886	0.241431	0.384281
Cl200	Cl	1.111220	0.574764	0.717614
Cl201	Cl	1.444553	0.908098	1.050947
H202	H	0.800667	0.216180	0.214404
H203	H	1.134000	0.549513	0.547738
H204	H	1.467334	0.882846	0.881071
H205	H	0.537487	-0.023402	0.000111
H206	H	0.870821	0.309932	0.333444
H207	H	1.204154	0.643265	0.666777
H208	H	0.776912	-0.441867	-0.054501
H209	H	1.110245	-0.108534	0.278832
H210	H	1.443579	0.224799	0.612166
H211	H	0.908806	-0.462084	-0.132275
H212	H	1.242140	-0.128750	0.201058
H213	H	1.575473	0.204583	0.534391
H214	H	0.680714	-0.020873	0.000090
H215	H	1.014047	0.312460	0.333424
H216	H	1.347380	0.645793	0.666757
H217	H	0.777046	-0.442936	0.053777
H218	H	1.110380	-0.109603	0.387111
H219	H	1.443713	0.223730	0.720444
H220	H	0.994888	-0.473622	0.079313
H221	H	1.328221	-0.140288	0.412646
H222	H	1.661554	0.193045	0.745979
Cl223	Cl	0.761593	-0.283595	0.084016
Cl224	Cl	1.094926	0.049739	0.417349
Cl225	Cl	1.428259	0.383072	0.750682
Cl226	Cl	1.031401	-0.323005	0.080169
Cl227	Cl	1.364734	0.010328	0.413502
Cl228	Cl	1.698067	0.343661	0.746836
H229	H	0.906000	-0.317344	-0.131901
H230	H	1.239334	0.015989	0.201433
H231	H	1.572667	0.349322	0.534766
H232	H	0.997038	-0.329419	-0.080458
H233	H	1.330371	0.003914	0.252875
H234	H	1.663704	0.337247	0.586209
H235	H	0.987460	0.009350	0.634403
H236	H	1.320793	0.342683	0.967736
H237	H	1.654126	0.676017	1.301069
Cl238	Cl	1.010272	-0.015894	0.804280
Cl239	Cl	1.343606	0.317439	1.137613
Cl240	Cl	1.676939	0.650773	1.470947
H241	H	0.996873	-0.473487	-0.075395
H242	H	1.330206	-0.140154	0.257938
H243	H	1.663539	0.193179	0.591271
Cl244	Cl	1.010224	-0.015915	0.195927
Cl245	Cl	1.343557	0.317418	0.529260
Cl246	Cl	1.676890	0.650751	0.862594
