data_functionalizedCrystal
_audit_creation_method	'MofGen! by Chris Wilmer'
_symmetry_space_group_name_H-M	'P1'
_symmetry_Int_Tables_number	1
_symmetry_cell_setting	triclinic
loop_
_symmetry_equiv_pos_as_xyz
  x,y,z
_cell_length_a	14.628931
_cell_length_b	21.606444
_cell_length_c	21.606444
_cell_angle_alpha	60.001331
_cell_angle_beta	90.001677
_cell_angle_gamma	59.998844
loop_
_atom_site_label
_atom_site_type_symbol
_atom_site_fract_x
_atom_site_fract_y
_atom_site_fract_z
Zr1	Zr	0.880602	0.677449	-0.081200
O2	O	0.734632	0.806572	-0.180023
O3	O	0.925352	0.548330	-0.050908
O4	O	0.925340	0.677453	-0.180027
O5	O	0.734651	0.677444	0.050950
O6	O	1.075772	0.677453	-0.180027
O7	O	0.734644	0.677448	-0.050904
O8	O	1.075793	0.446474	0.050943
O9	O	0.734630	0.908423	-0.180019
O10	O	1.056701	0.601437	-0.037986
O11	O	0.944441	0.601434	0.038027
O12	O	0.944427	0.753461	-0.113993
O13	O	0.832167	0.753458	-0.037981
Zr14	Zr	1.120536	0.677442	0.081246
Zr15	Zr	1.120524	0.677449	-0.081200
Zr16	Zr	0.880615	0.677442	0.081246
Zr17	Zr	0.880600	0.839890	-0.081195
Zr18	Zr	1.120539	0.515002	0.081241
O19	O	1.075787	0.806562	0.050954
O20	O	1.075770	0.806572	-0.180022
O21	O	0.734649	0.806562	0.050954
O22	O	1.266507	0.548319	0.180069
O23	O	1.266490	0.548329	-0.050908
O24	O	0.925369	0.548320	0.180068
O25	O	1.266488	0.677447	-0.050904
O26	O	1.075799	0.677438	0.180073
O27	O	0.925367	0.677438	0.180072
O28	O	1.266495	0.677443	0.050950
O29	O	0.925336	0.908423	-0.180019
O30	O	1.075803	0.446469	0.180065
O31	O	1.266508	0.446468	0.180065
O32	O	1.266499	0.446474	0.050943
O33	O	0.734640	0.908417	-0.050897
O34	O	0.925346	0.908417	-0.050897
O35	O	1.056712	0.601430	0.114039
O36	O	1.168972	0.601434	0.038027
O37	O	1.056698	0.753457	-0.037981
O38	O	0.944438	0.753454	0.038032
C39	C	1.000573	0.474258	0.000016
C40	C	1.000574	0.405297	0.000014
C41	C	1.059170	0.372901	-0.039665
C42	C	1.059174	0.308101	-0.039660
C43	C	1.000574	0.275703	0.000020
C44	C	0.941976	0.308102	0.039704
C45	C	0.941980	0.372896	0.039703
C46	C	0.941963	0.046792	0.039710
C47	C	0.941962	-0.018005	0.039707
C48	C	1.059157	-0.018002	-0.039652
C49	C	1.059161	0.046792	-0.039653
C50	C	1.000568	0.079182	0.000033
C51	C	1.000566	0.149444	0.000029
C52	C	1.000569	0.205446	0.000021
C53	C	0.700464	0.677446	0.000023
C54	C	0.598611	0.677446	0.000023
C55	C	0.608897	0.602032	0.037728
C56	C	0.503628	0.602031	0.037728
C57	C	1.300675	0.677445	0.000023
C58	C	1.402528	0.677445	0.000023
C59	C	1.000554	0.677454	-0.203172
C60	C	1.000549	0.677457	-0.272134
C61	C	1.000566	0.880634	0.000030
C62	C	1.000565	0.949594	0.000032
C63	C	0.941943	0.756811	-0.344208
C64	C	0.941952	0.756809	-0.409003
C65	C	1.000562	0.677452	-0.401722
C66	C	1.059176	0.598091	-0.329641
C67	C	1.059172	0.598095	-0.264847
C68	C	1.059194	0.598076	-0.590944
C69	C	1.059190	0.598079	-0.655744
C70	C	0.941974	0.756791	-0.735099
C71	C	0.941970	0.756794	-0.670306
C72	C	1.000588	0.677434	-0.598230
C73	C	1.000579	0.677438	-0.527973
C74	C	1.000566	0.677447	-0.471978
C75	C	1.000585	0.677437	0.203218
C76	C	1.000590	0.677434	0.272180
C77	C	1.300678	0.474257	0.000017
C78	C	1.402532	0.405297	0.000015
C79	C	1.000588	0.474249	0.203211
C80	C	1.000594	0.405286	0.272171
C81	C	1.300693	0.474248	0.203211
C82	C	1.402553	0.405285	0.272172
C83	C	0.700445	0.880643	-0.203165
C84	C	0.598586	0.949606	-0.272126
C85	C	0.700461	0.880634	0.000029
C86	C	0.598606	0.949595	0.000031
C87	C	1.000551	0.880642	-0.203165
C88	C	1.000545	0.949605	-0.272125
C89	C	1.391760	0.372914	-0.039671
C90	C	1.487453	0.308127	-0.039688
C91	C	1.593919	0.275720	-0.000015
C92	C	1.604689	0.308109	0.039672
C93	C	1.508997	0.372899	0.039684
C94	C	1.059201	0.372898	0.344240
C95	C	1.059203	0.308109	0.409042
C96	C	1.000603	0.275704	0.401773
C97	C	0.941988	0.308098	0.329696
C98	C	0.941981	0.372891	0.264896
C99	C	1.508996	0.372901	0.264878
C100	C	1.604713	0.308111	0.329668
C101	C	1.593984	0.275703	0.401749
C102	C	1.487530	0.308094	0.409041
C103	C	1.391816	0.372886	0.344253
C104	C	0.492143	0.981998	-0.264832
C105	C	0.396426	1.046808	-0.329622
C106	C	0.407155	1.079220	-0.401703
C107	C	0.513609	1.046825	-0.408995
C108	C	0.609323	0.982021	-0.344207
C109	C	0.609379	0.981984	0.039710
C110	C	0.513685	1.046789	0.039710
C111	C	0.407220	1.079198	0.000034
C112	C	0.396450	1.046806	-0.039650
C113	C	0.492142	0.982007	-0.039653
C114	C	1.059156	0.981990	-0.264832
C115	C	1.059172	1.046779	-0.329621
C116	C	1.000570	1.079188	-0.401703
C117	C	0.941956	1.046797	-0.408995
C118	C	0.941948	0.982004	-0.344206
H119	H	1.106871	-0.044384	-0.071965
H120	H	0.512259	0.537466	0.070004
N121	N	1.475961	0.273134	0.486787
H122	H	1.513062	0.284405	0.515440
H123	H	1.513056	0.208100	0.515367
N124	N	0.878764	0.273168	0.082500
H125	H	0.909510	0.246283	0.138006
H126	H	0.887664	0.227242	0.076420
N127	N	1.122414	0.512478	-0.513217
H128	H	1.091671	0.477789	-0.507153
H129	H	1.113514	0.524579	-0.473314
H130	H	0.894262	0.399274	0.072011
N131	N	0.878762	-0.052955	0.082510
H132	H	0.841648	-0.022608	0.107655
H133	H	0.932583	-0.118001	0.122394
N134	N	1.276938	0.407858	-0.082465
H135	H	1.234626	0.396573	-0.046074
H136	H	1.284750	0.377489	-0.107603
H137	H	0.309753	1.073204	-0.071953
N138	N	1.122422	0.512483	-0.647893
H139	H	1.091702	0.477777	-0.619266
H140	H	1.204390	0.477870	-0.619296
N141	N	1.277011	0.407808	0.352124
H142	H	1.284749	0.377439	0.407620
H143	H	1.234754	0.396523	0.326976
N144	N	0.878712	0.947088	-0.352074
H145	H	0.932445	0.882044	-0.326966
H146	H	0.841590	0.977518	-0.407583
H147	H	1.671829	0.222963	-0.000030
N148	N	0.878779	0.407840	0.187153
H149	H	0.819811	0.472884	0.158507
H150	H	0.841716	0.377432	0.192424
H151	H	0.894258	0.073153	0.072029
N152	N	0.480555	0.947045	-0.187092
H153	H	0.398594	0.977409	-0.192315
H154	H	0.517718	0.958313	-0.158476
H155	H	1.671930	0.222945	0.454498
N156	N	0.391078	0.762975	-0.042745
H157	H	0.428214	0.766465	-0.006331
H158	H	0.309122	0.813252	-0.067906
N159	N	1.122384	0.512504	-0.187109
H160	H	1.113495	0.524547	-0.147167
H161	H	1.204338	0.477856	-0.181112
H162	H	1.106882	0.399280	-0.071980
N163	N	1.122447	0.273167	0.486773
H164	H	1.113564	0.227205	0.526727
H165	H	1.091690	0.322655	0.492771
H166	H	1.478662	0.281764	-0.072006
N167	N	1.719522	0.273153	0.082460
H168	H	1.778499	0.227193	0.076428
H169	H	1.728401	0.246306	0.137950
H170	H	1.517752	0.399278	0.206191
H171	H	1.691383	0.281745	0.323717
H172	H	1.000585	1.131947	-0.454452
H173	H	0.309756	1.073173	-0.323670
H174	H	0.894244	1.073194	-0.467692
N175	N	0.303915	1.149114	-0.471579
H176	H	0.234859	1.164710	-0.456014
H177	H	0.303958	1.126519	-0.502740
N178	N	1.122413	0.407839	0.352092
H179	H	1.159532	0.377485	0.407584
H180	H	1.068601	0.472884	0.326934
H181	H	1.106888	0.281724	-0.071968
N182	N	1.122381	0.947029	-0.187089
H183	H	1.068645	0.958303	-0.158431
H184	H	1.159515	0.977391	-0.192371
N185	N	0.525172	1.081786	-0.486742
H186	H	0.448379	1.127750	-0.526673
H187	H	0.567477	1.032306	-0.492753
N188	N	1.122396	1.081701	-0.321738
H189	H	1.091645	1.108584	-0.293116
H190	H	1.113507	1.127627	-0.373738
N191	N	0.724128	0.947083	-0.352078
H192	H	0.716390	0.977452	-0.407575
H193	H	0.766385	0.882041	-0.326934
N194	N	0.480515	0.947075	-0.082452
H195	H	0.398547	0.977443	-0.107581
H196	H	0.517660	0.882032	-0.046022
N197	N	0.304016	1.149074	0.000057
H198	H	0.234930	1.164693	-0.031095
H199	H	0.304078	1.202792	-0.022500
N200	N	1.122356	0.081741	-0.082456
H201	H	1.159479	0.051385	-0.107591
H202	H	1.181274	0.070464	-0.046024
N203	N	1.520622	0.407823	0.082491
H204	H	1.562909	0.358378	0.137994
H205	H	1.443813	0.453797	0.076421
N206	N	0.723786	0.516505	0.080493
H207	H	0.782702	0.528629	0.074431
H208	H	0.732711	0.481832	0.059667
N209	N	0.724202	0.947037	0.082506
H210	H	0.716489	0.977400	0.107635
H211	H	0.766456	0.958313	0.046071
H212	H	0.511871	0.742010	-0.032256
N213	N	1.000618	0.205820	0.471668
H214	H	1.046645	0.190222	0.518424
H215	H	1.033949	0.152095	0.471633
H216	H	0.522477	1.073151	0.072028
N217	N	0.878802	0.273131	0.321867
H218	H	0.909549	0.246240	0.293251
H219	H	0.796828	0.322593	0.293268
N220	N	0.878729	0.842402	-0.352059
H221	H	0.796747	0.877098	-0.380686
H222	H	0.909559	0.877024	-0.380658
H223	H	0.894231	0.821427	-0.467687
H224	H	0.894239	0.821415	-0.676241
H225	H	1.106904	0.533477	-0.323717
H226	H	0.894247	0.821409	-0.793793
