data_functionalizedCrystal
_audit_creation_method	'MofGen! by Chris Wilmer'
_symmetry_space_group_name_H-M	'P1'
_symmetry_Int_Tables_number	1
_symmetry_cell_setting	triclinic
loop_
_symmetry_equiv_pos_as_xyz
  x,y,z
_cell_length_a	18.050591
_cell_length_b	19.805405
_cell_length_c	19.805399
_cell_angle_alpha	89.970699
_cell_angle_beta	90.023476
_cell_angle_gamma	89.977142
loop_
_atom_site_label
_atom_site_type_symbol
_atom_site_fract_x
_atom_site_fract_y
_atom_site_fract_z
Zn1	Zn	1.135329	0.269543	0.382782
Zn2	Zn	1.135236	0.382731	0.269590
Zn3	Zn	1.011140	0.269555	0.269599
Zn4	Zn	1.011100	0.382688	0.382729
O5	O	1.073201	0.326129	0.326175
O6	O	1.239241	0.284571	0.367785
O7	O	1.118752	0.367741	0.174875
O8	O	1.027670	0.174837	0.284638
O9	O	1.239173	0.367730	0.284624
O10	O	1.118911	0.174828	0.367794
O11	O	1.027579	0.284591	0.174881
O12	O	0.907210	0.284549	0.284587
O13	O	1.027602	0.367657	0.477453
O14	O	0.907181	0.367668	0.367704
O15	O	1.118872	0.284529	0.477492
O16	O	1.118713	0.477442	0.284573
O17	O	1.027511	0.477411	0.367696
C18	C	0.880249	0.326105	0.326141
C19	C	0.797703	0.326112	0.326143
C20	C	0.548872	0.280865	0.281051
C21	C	0.598308	0.264381	0.342823
C22	C	0.500583	0.326146	0.326198
C23	C	0.598229	0.342581	0.264403
C24	C	0.646568	0.326128	0.326168
C25	C	0.548932	0.309631	0.388003
C26	C	0.548848	0.387859	0.309541
C27	C	0.598262	0.371399	0.371356
C28	C	0.416485	0.326155	0.326215
C29	C	0.730665	0.326119	0.326158
C30	C	1.073118	0.501985	0.326142
C31	C	1.073150	0.577217	0.326151
C32	C	1.073243	0.326087	0.502718
C33	C	1.073261	0.326069	0.577950
C34	C	1.266907	0.326154	0.326210
C35	C	1.349453	0.326164	0.326224
C36	C	1.073305	0.149587	0.326223
C37	C	1.073350	0.074355	0.326243
C38	C	1.120685	0.612555	0.282914
C39	C	1.120716	0.683244	0.282929
C40	C	1.073209	0.718593	0.326178
C41	C	1.025672	0.683250	0.369420
C42	C	1.025645	0.612563	0.369407
C43	C	1.025781	0.968323	0.369470
C44	C	1.025811	1.039015	0.369477
C45	C	1.120853	1.039004	0.282992
C46	C	1.120826	0.968317	0.282979
C47	C	1.073292	0.932980	0.326223
C48	C	1.073259	0.856332	0.326207
C49	C	1.073237	0.795240	0.326191
C50	C	1.073203	0.326123	0.150319
C51	C	1.073329	0.325950	0.075088
C52	C	1.120786	0.282782	0.613315
C53	C	1.120794	0.282762	0.684004
C54	C	1.073279	0.326033	0.719326
C55	C	1.025748	0.369322	0.683955
C56	C	1.025738	0.369337	0.613268
C57	C	1.025790	0.369259	0.969029
C58	C	1.025806	0.369241	1.039721
C59	C	1.120847	0.282683	1.039764
C60	C	1.120836	0.282699	0.969077
C61	C	1.073303	0.325985	0.933713
C62	C	1.073294	0.326005	0.857065
C63	C	1.073291	0.326017	0.795973
H64	H	1.159368	0.583779	0.247693
H65	H	1.159530	0.247466	0.940322
N66	N	0.977223	0.932228	0.413631
N67	N	0.929901	0.892827	0.389774
H68	H	0.895607	0.867330	0.420965
H69	H	0.527367	0.295662	0.440265
N70	N	1.169342	0.238556	0.720139
N71	N	1.169346	0.238545	0.783252
H72	H	1.203634	0.207322	0.808773
H73	H	0.987111	0.404479	1.068478
H74	H	0.986993	0.712037	0.404636
H75	H	0.619810	0.409684	0.409566
N76	N	0.977234	0.413477	0.932922
N77	N	0.934817	0.452108	0.964470
H78	H	0.900522	0.483341	0.938967
N79	N	0.521579	0.453321	0.291850
N80	N	0.537329	0.478451	0.235759
H81	H	0.518070	0.524684	0.223257
H82	H	0.527188	0.242551	0.242932
H83	H	0.986938	0.583791	0.404616
N84	N	0.625406	0.360015	0.198860
N85	N	0.609569	0.324028	0.149079
H86	H	0.628765	0.336333	0.102788
N87	N	1.169269	0.719356	0.238773
N88	N	1.216591	0.758751	0.262641
H89	H	1.250884	0.784258	0.231456
H90	H	0.987125	1.067794	0.404700
N91	N	0.977211	0.413513	0.720044
N92	N	0.977227	0.413494	0.783157
H93	H	0.942947	0.444705	0.808644
H94	H	1.159508	0.939538	0.247760
N95	N	0.625555	0.198902	0.360495
N96	N	0.581152	0.152030	0.372631
H97	H	0.600392	0.105784	0.385109
N98	N	1.169405	1.075112	0.238822
N99	N	1.169426	1.138224	0.238835
H100	H	1.203713	1.163725	0.207640
N101	N	1.169332	0.238581	0.577249
N102	N	1.211761	0.199935	0.608837
H103	H	1.246047	0.168715	0.583367
N104	N	0.977182	0.413554	0.577151
N105	N	0.934759	0.452184	0.608695
H106	H	0.900461	0.483411	0.583188
N107	N	1.169398	0.238471	1.075900
N108	N	1.169404	0.238459	1.139013
H109	H	1.203694	0.207237	1.164533
