data_functionalizedCrystal
_audit_creation_method	'MofGen! by Chris Wilmer'
_symmetry_space_group_name_H-M	'P1'
_symmetry_Int_Tables_number	1
_symmetry_cell_setting	triclinic
loop_
_symmetry_equiv_pos_as_xyz
  x,y,z
_cell_length_a	11.169417
_cell_length_b	16.625546
_cell_length_c	16.625527
_cell_angle_alpha	89.912139
_cell_angle_beta	89.943455
_cell_angle_gamma	90.023347
loop_
_atom_site_label
_atom_site_type_symbol
_atom_site_fract_x
_atom_site_fract_y
_atom_site_fract_z
Zn1	Zn	1.835296	-0.320524	-0.455827
Zn2	Zn	2.168630	0.012809	-0.122494
Zn3	Zn	2.501963	0.346143	0.210840
Zn4	Zn	1.835014	-0.455502	-0.320989
Zn5	Zn	2.168348	-0.122169	0.012344
Zn6	Zn	2.501681	0.211164	0.345678
Zn7	Zn	1.634453	-0.320690	-0.321015
Zn8	Zn	1.967787	0.012644	0.012318
Zn9	Zn	2.301120	0.345977	0.345652
Zn10	Zn	1.634547	-0.455320	-0.455787
Zn11	Zn	1.967880	-0.121987	-0.122454
Zn12	Zn	2.301214	0.211346	0.210880
O13	O	1.734828	-0.388009	-0.388405
O14	O	2.068161	-0.054676	-0.055071
O15	O	2.401494	0.278658	0.278262
O16	O	2.003209	-0.338436	-0.437946
O17	O	2.336542	-0.005103	-0.104613
O18	O	2.669875	0.328231	0.228720
O19	O	1.808252	-0.437765	-0.208160
O20	O	2.141586	-0.104431	0.125174
O21	O	2.474919	0.228902	0.458507
O22	O	1.661174	-0.207835	-0.338926
O23	O	1.994508	0.125498	-0.005593
O24	O	2.327841	0.458832	0.327741
O25	O	2.003002	-0.437604	-0.338881
O26	O	2.336335	-0.104271	-0.005548
O27	O	2.669668	0.229063	0.327785
O28	O	1.808733	-0.207714	-0.437972
O29	O	2.142066	0.125620	-0.104638
O30	O	2.475399	0.458953	0.228695
O31	O	1.660901	-0.338718	-0.208179
O32	O	1.994234	-0.005385	0.125154
O33	O	2.327568	0.327949	0.458488
O34	O	1.466516	-0.338542	-0.338887
O35	O	1.799850	-0.005208	-0.005554
O36	O	2.133183	0.328125	0.327780
O37	O	1.661334	-0.437294	-0.568625
O38	O	1.994667	-0.103961	-0.235292
O39	O	2.328001	0.229373	0.098042
O40	O	1.466585	-0.437454	-0.437903
O41	O	1.799918	-0.104121	-0.104570
O42	O	2.133252	0.229212	0.228763
O43	O	1.808824	-0.338260	-0.568654
O44	O	2.142157	-0.004926	-0.235321
O45	O	2.475490	0.328407	0.098012
O46	O	1.808343	-0.568311	-0.338843
O47	O	2.141677	-0.234977	-0.005509
O48	O	2.475010	0.098356	0.327824
O49	O	1.661061	-0.568177	-0.437878
O50	O	1.994394	-0.234844	-0.104545
O51	O	2.327727	0.098490	0.228789
C52	C	1.423003	-0.387997	-0.388394
C53	C	1.756336	-0.054664	-0.055061
C54	C	2.089670	0.278670	0.278272
C55	C	1.289603	-0.388011	-0.388409
C56	C	1.622936	-0.054678	-0.055076
C57	C	1.956270	0.278656	0.278258
C58	C	1.734714	-0.597500	-0.388371
C59	C	2.068048	-0.264167	-0.055037
C60	C	2.401381	0.069167	0.278296
C61	C	1.734775	-0.687121	-0.388383
C62	C	2.068109	-0.353788	-0.055050
C63	C	2.401442	-0.020454	0.278283
C64	C	1.734985	-1.015297	-0.388467
C65	C	2.068318	-0.681963	-0.055134
C66	C	2.401652	-0.348630	0.278199
C67	C	1.734923	-0.923988	-0.388446
C68	C	2.068256	-0.590655	-0.055113
C69	C	2.401589	-0.257321	0.278221
C70	C	1.734879	-0.851212	-0.388425
C71	C	2.068213	-0.517878	-0.055092
C72	C	2.401546	-0.184545	0.278242
C73	C	1.734819	-0.759898	-0.388405
C74	C	2.068152	-0.426564	-0.055071
C75	C	2.401486	-0.093231	0.278262
C76	C	2.047870	-0.388022	-0.388415
C77	C	2.381203	-0.054689	-0.055082
C78	C	2.714537	0.278645	0.278251
C79	C	2.181270	-0.388027	-0.388420
C80	C	2.514603	-0.054694	-0.055087
C81	C	2.847937	0.278639	0.278247
C82	C	1.735121	-0.387738	-0.598714
C83	C	2.068454	-0.054405	-0.265381
C84	C	2.401787	0.278929	0.067953
C85	C	1.735246	-0.387623	-0.688335
C86	C	2.068579	-0.054289	-0.355002
C87	C	2.401912	0.279044	-0.021669
C88	C	1.734975	-0.177700	-0.388456
C89	C	2.068308	0.155633	-0.055123
C90	C	2.401641	0.488967	0.278211
C91	C	1.735037	-0.088079	-0.388478
C92	C	2.068370	0.245254	-0.055145
C93	C	2.401704	0.578588	0.278189
C94	C	1.734605	-0.388221	-0.178913
C95	C	2.067938	-0.054888	0.154420
C96	C	2.401272	0.278446	0.487753
C97	C	1.734713	-0.388109	-0.089292
C98	C	2.068046	-0.054776	0.244041
C99	C	2.401380	0.278557	0.577374
C100	C	1.735158	-0.387714	0.238882
C101	C	2.068492	-0.054381	0.572216
C102	C	2.401825	0.278953	0.905549
C103	C	1.735038	-0.387827	0.147574
C104	C	2.068371	-0.054493	0.480908
C105	C	2.401705	0.278840	0.814241
C106	C	1.734935	-0.387912	0.074798
C107	C	2.068268	-0.054579	0.408131
C108	C	2.401602	0.278754	0.741465
C109	C	1.734816	-0.388024	-0.016516
C110	C	2.068149	-0.054690	0.316817
C111	C	2.401482	0.278643	0.650151
