data_functionalizedCrystal
_audit_creation_method	'MofGen! by Chris Wilmer'
_symmetry_space_group_name_H-M	'P1'
_symmetry_Int_Tables_number	1
_symmetry_cell_setting	triclinic
loop_
_symmetry_equiv_pos_as_xyz
  x,y,z
_cell_length_a	10.723024
_cell_length_b	15.995350
_cell_length_c	9.798715
_cell_angle_alpha	89.999084
_cell_angle_beta	89.996609
_cell_angle_gamma	83.980122
loop_
_atom_site_label
_atom_site_type_symbol
_atom_site_fract_x
_atom_site_fract_y
_atom_site_fract_z
O1	O	1.655689	0.117435	-0.113475
O2	O	1.292393	0.128675	-0.113479
O3	O	1.483972	0.001224	-0.113475
O4	O	1.464110	0.244886	-0.113478
O5	O	1.483958	0.001224	0.113507
O6	O	1.292379	0.128675	0.113503
O7	O	1.655675	0.117434	0.113507
Zn8	Zn	1.474025	0.123055	0.149544
Zn9	Zn	1.474044	0.123055	-0.149515
O10	O	1.464096	0.244885	0.113504
C11	C	1.245897	0.127857	0.000012
C12	C	1.107374	0.125410	0.000010
C13	C	1.031482	0.196725	0.000008
C14	C	0.888310	0.194197	0.000007
C15	C	1.483144	-0.029975	0.000013
C16	C	1.480682	-0.122940	0.000005
C17	C	1.471842	-0.460738	0.000010
C18	C	1.335403	-0.414088	-0.000501
C19	C	1.337865	-0.317383	0.000011
C20	C	1.476227	-0.293152	0.000007
C21	C	1.543515	-0.333843	0.129623
C22	C	1.540088	-0.430499	0.129732
C23	C	1.542922	-0.430840	-0.128390
C24	C	1.542890	-0.333895	-0.130103
C25	C	1.478712	-0.198441	0.000010
C26	C	1.469360	-0.555450	0.000016
C27	C	1.702171	0.118252	0.000014
C28	C	1.840694	0.120700	0.000007
C29	C	1.464924	0.276085	0.000013
C30	C	1.467386	0.369049	0.000011
N31	N	1.474021	0.123054	0.353643
N32	N	1.474057	0.123049	-0.353615
C33	C	1.554463	0.069305	0.421422
C34	C	1.554483	0.069302	0.578584
H35	H	1.280875	-0.432932	-0.093451
O36	O	1.274332	-0.284357	0.110948
C37	C	1.276343	-0.196364	0.111868
H38	H	1.292939	-0.173518	0.003827
H39	H	1.182697	-0.165222	0.151139
H40	H	1.355017	-0.179198	0.181380
H41	H	1.072501	0.259651	0.000015
O42	O	1.392061	0.177989	0.576720
C43	C	1.459180	0.229883	0.494082
H44	H	1.556728	0.196948	0.472794
H45	H	1.407214	0.242849	0.393556
H46	H	1.467873	0.291814	0.549068
H47	H	1.623357	0.023288	0.636871
H48	H	1.405162	0.169065	0.411967
O49	O	1.058658	0.050263	0.000068
C50	C	1.157021	-0.015555	0.000032
H51	H	1.245496	0.008339	0.043005
H52	H	1.129705	-0.069478	0.065928
H53	H	1.175399	-0.038749	-0.108864
O54	O	1.487928	-0.300235	0.244744
C55	C	1.576553	-0.261585	0.322418
H56	H	1.655475	-0.244682	0.253025
H57	H	1.529064	-0.202053	0.371917
H58	H	1.616782	-0.306766	0.405120
O59	O	0.810346	0.266956	0.000062
C60	C	0.684754	0.248235	0.000022
H61	H	0.679882	0.182427	0.042996
H62	H	0.625700	0.295977	0.065916
H63	H	0.647125	0.251161	-0.108875
O64	O	1.481322	-0.452614	0.245218
C65	C	1.358142	-0.411972	0.247998
H66	H	1.326809	-0.394417	0.139629
H67	H	1.292336	-0.456005	0.293800
H68	H	1.355674	-0.352632	0.312811
O69	O	0.918600	0.047915	-0.000175
C70	C	0.994756	0.044740	-0.117749
H71	H	1.001215	0.111252	-0.156943
H72	H	1.092620	0.014190	-0.091311
H73	H	0.952017	0.006212	-0.200065
H74	H	1.643518	-0.462023	-0.129264
H75	H	1.640259	-0.462172	0.135610
O76	O	1.274869	-0.283948	-0.110977
C77	C	1.332780	-0.317963	-0.230743
H78	H	1.388024	-0.380994	-0.206285
H79	H	1.258010	-0.327473	-0.310319
H80	H	1.399131	-0.272930	-0.272469
H81	H	1.498320	-0.451636	-0.226631
O82	O	1.270699	-0.437975	0.109726
C83	C	1.263979	-0.525487	0.104973
H84	H	1.344104	-0.556316	0.039856
H85	H	1.271842	-0.552297	0.212794
H86	H	1.170561	-0.538613	0.058430
H87	H	1.645166	-0.319134	0.134441
H88	H	1.493694	-0.306929	-0.225989
H89	H	1.643790	-0.317954	-0.137932
O90	O	1.636464	0.014404	0.351674
C91	C	1.569370	-0.037491	0.269020
H92	H	1.471792	-0.004585	0.247804
H93	H	1.621313	-0.050399	0.168460
H94	H	1.560752	-0.099450	0.323956
