data_functionalizedCrystal
_audit_creation_method	'MofGen! by Chris Wilmer'
_symmetry_space_group_name_H-M	'P1'
_symmetry_Int_Tables_number	1
_symmetry_cell_setting	triclinic
loop_
_symmetry_equiv_pos_as_xyz
  x,y,z
_cell_length_a	21.295420
_cell_length_b	21.295417
_cell_length_c	18.215399
_cell_angle_alpha	89.967848
_cell_angle_beta	89.980259
_cell_angle_gamma	90.026289
loop_
_atom_site_label
_atom_site_type_symbol
_atom_site_fract_x
_atom_site_fract_y
_atom_site_fract_z
Zn1	Zn	0.962325	-0.250687	-0.416093
Zn2	Zn	1.462325	0.249313	0.083907
Zn3	Zn	0.962237	-0.355958	-0.293017
Zn4	Zn	1.462237	0.144042	0.206983
Zn5	Zn	0.857057	-0.250699	-0.293040
Zn6	Zn	1.357057	0.249301	0.206960
Zn7	Zn	0.857018	-0.355914	-0.416042
Zn8	Zn	1.357018	0.144086	0.083958
O9	O	0.909659	-0.303314	-0.354548
O10	O	1.409659	0.196686	0.145452
O11	O	1.050403	-0.264664	-0.399778
O12	O	1.550403	0.235336	0.100222
O13	O	0.948264	-0.342018	-0.190036
O14	O	1.448264	0.157982	0.309964
O15	O	0.871075	-0.162608	-0.309394
O16	O	1.371075	0.337392	0.190606
O17	O	1.050338	-0.342006	-0.309355
O18	O	1.550338	0.157994	0.190645
O19	O	0.948415	-0.162599	-0.399800
O20	O	1.448415	0.337401	0.100200
O21	O	0.870989	-0.264685	-0.190053
O22	O	1.370989	0.235315	0.309947
O23	O	0.768963	-0.264642	-0.309345
O24	O	1.268963	0.235358	0.190655
O25	O	0.871008	-0.341932	-0.519033
O26	O	1.371008	0.158068	-0.019033
O27	O	0.768934	-0.341944	-0.399714
O28	O	1.268934	0.158056	0.100286
O29	O	0.948377	-0.264622	-0.519070
O30	O	1.448377	0.235378	-0.019070
O31	O	0.948225	-0.444041	-0.309306
O32	O	1.448225	0.055959	0.190694
O33	O	0.870922	-0.444009	-0.399692
O34	O	1.370922	0.055991	0.100308
C35	C	0.746108	-0.303290	-0.354527
C36	C	1.246108	0.196710	0.145473
C37	C	0.676140	-0.303295	-0.354536
C38	C	1.176140	0.196705	0.145464
C39	C	0.176715	-0.263137	-0.401719
C40	C	0.676715	0.236863	0.098281
C41	C	0.242457	-0.263132	-0.401719
C42	C	0.742457	0.236868	0.098281
C43	C	0.275300	-0.303333	-0.354565
C44	C	0.775300	0.196667	0.145435
C45	C	0.242395	-0.343553	-0.307421
C46	C	0.742395	0.156447	0.192579
C47	C	0.176654	-0.343561	-0.307428
C48	C	0.676654	0.156439	0.192572
N49	N	0.378495	-0.308079	-0.290125
N50	N	0.878495	0.191921	0.209875
N51	N	0.440946	-0.308068	-0.290121
N52	N	0.940946	0.191932	0.209879
C53	C	0.473375	-0.303313	-0.354543
C54	C	0.973375	0.196687	0.145457
N55	N	0.440993	-0.298557	-0.418972
N56	N	0.940993	0.201443	0.081028
N57	N	0.378536	-0.298565	-0.418975
N58	N	0.878536	0.201435	0.081025
C59	C	0.346585	-0.303329	-0.354553
C60	C	0.846585	0.196671	0.145447
C61	C	0.577558	-0.263093	-0.401688
C62	C	1.077558	0.236907	0.098312
C63	C	0.643301	-0.263093	-0.401689
C64	C	1.143301	0.236907	0.098311
C65	C	0.643238	-0.343511	-0.307385
C66	C	1.143238	0.156489	0.192615
C67	C	0.577495	-0.343514	-0.307391
C68	C	1.077495	0.156486	0.192609
C69	C	0.544659	-0.303302	-0.354541
C70	C	1.044659	0.196698	0.145459
C71	C	0.909577	-0.466866	-0.354507
C72	C	1.409577	0.033134	0.145493
C73	C	0.909599	-0.536834	-0.354514
C74	C	1.409599	-0.036834	0.145486
C75	C	0.949887	-0.569696	-0.307499
C76	C	1.449887	-0.069696	0.192501
C77	C	0.949916	-0.635439	-0.307515
C78	C	1.449916	-0.135439	0.192485
C79	C	0.909647	-0.668316	-0.354540
C80	C	1.409647	-0.168316	0.145460
C81	C	0.869356	-0.635446	-0.401565
C82	C	1.369356	-0.135446	0.098435
C83	C	0.869332	-0.569705	-0.401552
C84	C	1.369332	-0.069705	0.098448
N85	N	0.854579	-0.771578	-0.360143
N86	N	1.354579	-0.271578	0.139857
N87	N	0.854604	-0.834030	-0.360151
N88	N	1.354604	-0.334030	0.139849
C89	C	0.909717	-0.866391	-0.354582
C90	C	1.409717	-0.366391	0.145418
N91	N	0.964807	-0.833942	-0.348991
N92	N	1.464807	-0.333942	0.151009
N93	N	0.964781	-0.771485	-0.348979
N94	N	1.464781	-0.271485	0.151021
C95	C	0.909668	-0.739602	-0.354559
C96	C	1.409668	-0.239602	0.145441
C97	C	0.950040	-0.970539	-0.307582
C98	C	1.450040	-0.470539	0.192418
C99	C	0.950071	-1.036283	-0.307603
C100	C	1.450071	-0.536283	0.192397
C101	C	0.869505	-1.036289	-0.401649
C102	C	1.369505	-0.536289	0.098351
C103	C	0.869480	-0.970546	-0.401631
C104	C	1.369480	-0.470546	0.098369
C105	C	0.909747	-0.937675	-0.354594
C106	C	1.409747	-0.437675	0.145406
C107	C	1.073849	-0.303339	-0.354569
C108	C	1.573849	0.196661	0.145431
C109	C	1.143818	-0.303349	-0.354578
C110	C	1.643818	0.196651	0.145422
C111	C	0.909698	-0.303271	-0.546501
C112	C	1.409698	0.196729	-0.046501
C113	C	0.909714	-0.303252	-0.628300
C114	C	1.409714	0.196748	-0.128300
C115	C	0.909759	-0.139124	-0.354605
C116	C	1.409759	0.360876	0.145395
C117	C	0.909802	-0.069156	-0.354629
C118	C	1.409802	0.430844	0.145371
C119	C	0.950014	-0.262959	-0.816514
C120	C	1.450014	0.237041	-0.316514
C121	C	0.950022	-0.262941	-0.893373
C122	C	1.450022	0.237059	-0.393373
C123	C	0.869458	-0.343448	-0.893323
C124	C	1.369458	0.156552	-0.393323
C125	C	0.869448	-0.343463	-0.816466
C126	C	1.369448	0.156537	-0.316466
C127	C	0.909730	-0.303219	-0.778064
C128	C	1.409730	0.196781	-0.278064
C129	C	0.909747	-0.303186	-0.931780
C130	C	1.409747	0.196814	-0.431780
C131	C	0.909755	-0.303167	-1.015113
C132	C	1.409755	0.196833	-0.515113
C133	C	0.909721	-0.303238	-0.694725
C134	C	1.409721	0.196762	-0.194725
C135	C	0.909657	-0.303312	-0.163342
C136	C	1.409657	0.196688	0.336658
C137	C	0.909763	-0.303153	-0.081543
C138	C	1.409763	0.196847	0.418457
H139	H	0.982676	-0.542935	-0.269200
H140	H	1.482676	-0.042935	0.230800
N141	N	0.993461	-0.219556	-0.775097
N142	N	1.493461	0.280444	-0.275097
H143	H	1.022615	-0.245151	-0.743212
H144	H	1.522615	0.254849	-0.243212
H145	H	1.018939	-0.194061	-0.811171
H146	H	1.518939	0.305939	-0.311171
N147	N	0.825991	-0.386892	-0.775000
N148	N	1.325991	0.113108	-0.275000
H149	H	0.851547	-0.416074	-0.743103
H150	H	1.351547	0.083926	-0.243103
H151	H	0.796836	-0.361267	-0.743161
H152	H	1.296836	0.138733	-0.243161
N153	N	0.993523	-1.071733	-0.256889
N154	N	1.493523	-0.571733	0.243111
H155	H	1.022694	-1.098964	-0.286831
H156	H	1.522694	-0.598964	0.213169
H157	H	1.018983	-1.040892	-0.227099
H158	H	1.518983	-0.540892	0.272901
N159	N	0.277810	-0.386914	-0.256559
N160	N	0.777810	0.113086	0.243441
H161	H	0.305090	-0.416112	-0.286401
H162	H	0.805090	0.083888	0.213599
H163	H	0.305044	-0.361246	-0.222514
H164	H	0.805044	0.138754	0.277486
N165	N	0.141299	-0.219760	-0.452563
N166	N	0.641299	0.280240	0.047437
H167	H	0.172119	-0.194282	-0.482424
H168	H	0.672119	0.305718	0.017576
H169	H	0.114022	-0.245414	-0.486575
H170	H	0.614022	0.254586	0.013425
H171	H	0.269248	-0.230384	-0.440105
H172	H	0.769248	0.269616	0.059895
N173	N	0.993465	-0.219511	-0.934846
N174	N	1.493465	0.280489	-0.434846
H175	H	1.018977	-0.194019	-0.898853
H176	H	1.518977	0.305981	-0.398853
H177	H	1.022586	-0.245125	-0.966737
H178	H	1.522586	0.254875	-0.466737
H179	H	0.149869	-0.376308	-0.269040
H180	H	0.649869	0.123692	0.230960
N181	N	0.542136	-0.219727	-0.452542
N182	N	1.042136	0.280273	0.047458
H183	H	0.572955	-0.194255	-0.482411
H184	H	1.072955	0.305745	0.017589
H185	H	0.514860	-0.245390	-0.486545
H186	H	1.014860	0.254610	0.013455
N187	N	0.678787	-0.219724	-0.452541
N188	N	1.178787	0.280276	0.047459
H189	H	0.648007	-0.194252	-0.482409
H190	H	1.148007	0.305748	0.017591
H191	H	0.706066	-0.190560	-0.422643
H192	H	1.206066	0.309440	0.077357
N193	N	0.826075	-1.071740	-0.452376
N194	N	1.326075	-0.571740	0.047624
H195	H	0.832204	-1.118374	-0.445252
H196	H	1.332204	-0.618374	0.054748
H197	H	0.781118	-1.060294	-0.440872
H198	H	1.281118	-0.560294	0.059128
H199	H	0.836524	-0.542948	-0.439839
H200	H	1.336524	-0.042948	0.060161
N201	N	0.993469	-0.935080	-0.256853
N202	N	1.493469	-0.435080	0.243147
H203	H	1.019000	-0.965876	-0.227074
H204	H	1.519000	-0.465876	0.272926
H205	H	1.022574	-0.907757	-0.286834
H206	H	1.522574	-0.407757	0.213166
N207	N	0.678651	-0.386877	-0.256531
N208	N	1.178651	0.113123	0.243469
H209	H	0.725290	-0.380772	-0.263681
H210	H	1.225290	0.119228	0.236319
H211	H	0.667145	-0.377026	-0.203992
H212	H	1.167145	0.122974	0.296008
N213	N	0.542005	-0.386879	-0.256540
N214	N	1.042005	0.113121	0.243460
H215	H	0.553434	-0.431867	-0.267871
H216	H	1.053434	0.068133	0.232129
H217	H	0.553444	-0.376989	-0.203998
H218	H	1.053444	0.123011	0.296002
N219	N	0.993372	-0.670894	-0.256805
N220	N	1.493372	-0.170894	0.243195
H221	H	1.018877	-0.640095	-0.227006
H222	H	1.518877	-0.140095	0.272994
H223	H	0.967770	-0.698212	-0.222729
H224	H	1.467770	-0.198212	0.277271
N225	N	0.825924	-0.670902	-0.452287
N226	N	1.325924	-0.170902	0.047713
H227	H	0.832050	-0.717536	-0.445159
H228	H	1.332050	-0.217536	0.054841
H229	H	0.780968	-0.659453	-0.440783
H230	H	1.280968	-0.159453	0.059217
N231	N	0.826022	-0.935097	-0.452336
N232	N	1.326022	-0.435097	0.047664
H233	H	0.800514	-0.965898	-0.482128
H234	H	1.300514	-0.465898	0.017872
H235	H	0.796897	-0.907864	-0.422340
H236	H	1.296897	-0.407864	0.077660
H237	H	0.836663	-0.376214	-0.924600
H238	H	1.336663	0.123786	-0.424600
