data_functionalizedCrystal
_audit_creation_method	'MofGen! by Chris Wilmer'
_symmetry_space_group_name_H-M	'P1'
_symmetry_Int_Tables_number	1
_symmetry_cell_setting	triclinic
loop_
_symmetry_equiv_pos_as_xyz
  x,y,z
_cell_length_a	16.959455
_cell_length_b	18.050589
_cell_length_c	16.959447
_cell_angle_alpha	90.026643
_cell_angle_beta	90.014322
_cell_angle_gamma	90.025168
loop_
_atom_site_label
_atom_site_type_symbol
_atom_site_fract_x
_atom_site_fract_y
_atom_site_fract_z
Zn1	Zn	1.208339	-0.295705	0.446929
Zn2	Zn	1.708339	0.204295	0.946929
Zn3	Zn	1.208243	-0.419907	0.314759
Zn4	Zn	1.708243	0.080093	0.814759
Zn5	Zn	1.076167	-0.295729	0.314766
Zn6	Zn	1.576167	0.204271	0.814766
Zn7	Zn	1.076113	-0.419851	0.446897
Zn8	Zn	1.576113	0.080149	0.946897
O9	O	1.142216	-0.357798	0.380838
O10	O	1.642216	0.142202	0.880838
O11	O	1.318937	-0.312194	0.429406
O12	O	1.818937	0.187806	0.929406
O13	O	1.190705	-0.403467	0.204149
O14	O	1.690705	0.096533	0.704149
O15	O	1.093763	-0.191801	0.332314
O16	O	1.593763	0.308199	0.832314
O17	O	1.318866	-0.403445	0.332301
O18	O	1.818866	0.096555	0.832301
O19	O	1.190869	-0.191784	0.429414
O20	O	1.690869	0.308216	0.929414
O21	O	1.093670	-0.312234	0.204154
O22	O	1.593670	0.187766	0.704154
O23	O	0.965549	-0.312180	0.332284
O24	O	1.465549	0.187820	0.832284
O25	O	1.093671	-0.403350	0.557512
O26	O	1.593671	0.096650	1.057512
O27	O	0.965510	-0.403373	0.429360
O28	O	1.465510	0.096627	0.929360
O29	O	1.190817	-0.312141	0.557536
O30	O	1.690817	0.187859	1.057536
O31	O	1.190653	-0.523824	0.332271
O32	O	1.690653	-0.023824	0.832271
O33	O	1.093578	-0.523783	0.429353
O34	O	1.593578	-0.023783	0.929353
C35	C	0.936849	-0.357774	0.380820
C36	C	1.436849	0.142226	0.880820
C37	C	0.848993	-0.357781	0.380831
C38	C	1.348993	0.142219	0.880831
C39	C	0.477513	-0.310275	0.330396
C40	C	0.977513	0.189725	0.830396
C41	C	0.477521	-0.405382	0.431325
C42	C	0.977521	0.094618	0.931325
C43	C	0.560067	-0.405371	0.431320
C44	C	1.060067	0.094629	0.931320
C45	C	0.601340	-0.357813	0.380852
C46	C	1.101340	0.142187	0.880852
C47	C	0.560067	-0.310265	0.330388
C48	C	1.060067	0.189735	0.830388
C49	C	0.601346	-0.452924	0.481777
C50	C	1.101346	0.047076	0.981777
C51	C	0.683897	-0.452916	0.481774
C52	C	1.183897	0.047084	0.981774
C53	C	0.725171	-0.405353	0.431309
C54	C	1.225171	0.094647	0.931309
C55	C	0.683893	-0.357802	0.380844
C56	C	1.183893	0.142198	0.880844
C57	C	0.725166	-0.310243	0.330375
C58	C	1.225166	0.189757	0.830375
C59	C	0.683890	-0.262689	0.279913
C60	C	1.183890	0.237311	0.779913
C61	C	0.601342	-0.262702	0.279923
C62	C	1.101342	0.237298	0.779923
C63	C	0.807720	-0.405340	0.431299
C64	C	1.307720	0.094660	0.931299
C65	C	0.807720	-0.310233	0.330367
C66	C	1.307720	0.189767	0.830367
C67	C	1.142120	-0.550750	0.380825
C68	C	1.642120	-0.050750	0.880825
C69	C	1.142152	-0.633296	0.380846
C70	C	1.642152	-0.133296	0.880846
C71	C	1.089414	-0.832751	0.433620
C72	C	1.589414	-0.332751	0.933620
C73	C	1.070151	-0.882194	0.361493
C74	C	1.570151	-0.382194	0.861493
C75	C	1.142229	-0.784426	0.380856
C76	C	1.642229	-0.284426	0.880856
C77	C	1.161531	-0.882065	0.452991
C78	C	1.661531	-0.382065	0.952991
C79	C	1.142303	-0.930411	0.380872
C80	C	1.642303	-0.430411	0.880872
C81	C	1.122929	-0.832782	0.308691
C82	C	1.622929	-0.332782	0.808691
C83	C	1.214342	-0.832648	0.400237
C84	C	1.714342	-0.332648	0.900237
C85	C	1.195106	-0.882069	0.328061
C86	C	1.695106	-0.382069	0.828061
C87	C	1.142185	-0.700328	0.380848
C88	C	1.642185	-0.200328	0.880848
C89	C	1.142347	-1.014508	0.380872
C90	C	1.642347	-0.514508	0.880872
C91	C	1.348384	-0.357823	0.380857
C92	C	1.848384	0.142177	0.880857
C93	C	1.436240	-0.357834	0.380864
C94	C	1.936240	0.142166	0.880864
C95	C	1.142249	-0.357737	0.587006
C96	C	1.642249	0.142263	1.087006
C97	C	1.142263	-0.357710	0.674863
C98	C	1.642263	0.142290	1.174863
C99	C	1.142333	-0.164092	0.380868
C100	C	1.642333	0.335908	0.880868
C101	C	1.142383	-0.081547	0.380881
C102	C	1.642383	0.418453	0.880881
C103	C	1.142228	-0.357806	0.175472
C104	C	1.642228	0.142194	0.675472
C105	C	1.142368	-0.357623	0.087615
C106	C	1.642368	0.142377	0.587615
C107	C	1.091778	-0.405121	1.046329
C108	C	1.591778	0.094879	1.546329
C109	C	1.192936	-0.310143	1.046348
C110	C	1.692936	0.189857	1.546348
C111	C	1.192915	-0.310159	0.963802
C112	C	1.692915	0.189841	1.463802
C113	C	1.142326	-0.357657	0.922516
C114	C	1.642326	0.142343	1.422516
C115	C	1.091757	-0.405139	0.963775
C116	C	1.591757	0.094861	1.463775
C117	C	1.243489	-0.262683	0.922537
C118	C	1.743489	0.237317	1.422537
C119	C	1.243470	-0.262698	0.839986
C120	C	1.743470	0.237302	1.339986
C121	C	1.192876	-0.310192	0.798698
C122	C	1.692876	0.189808	1.298698
C123	C	1.142305	-0.357676	0.839962
C124	C	1.642305	0.142324	1.339962
C125	C	1.091715	-0.405174	0.798676
C126	C	1.591715	0.094826	1.298676
C127	C	1.041139	-0.452654	0.839939
C128	C	1.541139	0.047346	1.339939
C129	C	1.041162	-0.452634	0.922488
C130	C	1.541162	0.047366	1.422488
C131	C	1.192852	-0.310212	0.716149
C132	C	1.692852	0.189788	1.216149
C133	C	1.091694	-0.405193	0.716122
C134	C	1.591694	0.094807	1.216122
H135	H	0.841323	-0.444060	0.472382
H136	H	1.341323	0.055940	0.972382
H137	H	1.009203	-0.903974	0.345115
H138	H	1.509203	-0.403974	0.845115
C139	C	1.100814	-0.803660	0.226264
C140	C	1.600814	-0.303660	0.726264
N141	N	1.084153	-0.781723	0.164182
N142	N	1.584153	-0.281723	0.664182
C143	C	0.432118	-0.457695	0.486835
C144	C	0.932118	0.042305	0.986835
N145	N	0.397917	-0.497098	0.528650
N146	N	0.897917	0.002902	1.028650
C147	C	0.555941	-0.505237	0.537287
C148	C	1.055941	-0.005237	1.037287
N149	N	0.521738	-0.544640	0.579099
N150	N	1.021738	-0.044640	1.079099
C151	C	1.248577	-0.257894	1.091766
C152	C	1.748577	0.242106	1.591766
N153	N	1.290483	-0.218533	1.125978
N154	N	1.790483	0.281467	1.625978
C155	C	1.299096	-0.210461	0.794604
C156	C	1.799096	0.289539	1.294604
N157	N	1.340991	-0.171112	0.760421
N158	N	1.840991	0.328888	1.260421
C159	C	0.985530	-0.504854	0.967883
C160	C	1.485530	-0.004854	1.467883
N161	N	0.943627	-0.544185	1.002078
N162	N	1.443627	-0.044185	1.502078
H163	H	0.717497	-0.491637	0.522864
H164	H	1.217497	0.008363	1.022864
H165	H	0.999952	-0.491330	0.806313
H166	H	1.499952	0.008670	1.306313
C167	C	1.255485	-0.911146	0.267721
C168	C	1.755485	-0.411146	0.767721
N169	N	1.300959	-0.933049	0.222270
N170	N	1.800959	-0.433049	0.722270
H171	H	1.284681	-0.224017	0.956158
H172	H	1.784681	0.275983	1.456158
C173	C	1.036141	-0.457341	1.091718
C174	C	1.536141	0.042659	1.591718
N175	N	0.994234	-0.496673	1.125907
N176	N	1.494234	0.003327	1.625907
H177	H	1.050490	-0.443865	0.682513
H178	H	1.550490	0.056135	1.182513
C179	C	0.555932	-0.210399	0.224416
C180	C	1.055932	0.289601	0.724416
N181	N	0.521725	-0.171007	0.182608
N182	N	1.021725	0.328993	0.682608
C183	C	1.028988	-0.803488	0.493812
C184	C	1.528988	-0.303488	0.993812
N185	N	0.983472	-0.781444	0.539144
N186	N	1.483472	-0.281444	1.039144
H187	H	1.275277	-0.810871	0.416650
H188	H	1.775277	-0.310871	0.916650
C189	C	1.248483	-0.257988	0.670764
C190	C	1.748483	0.242012	1.170764
N191	N	1.290386	-0.218648	0.636580
N192	N	1.790386	0.281352	1.136580
C193	C	1.183548	-0.911311	0.535395
C194	C	1.683548	-0.411311	1.035395
N195	N	1.200125	-0.933335	0.597464
N196	N	1.700125	-0.433335	1.097464
H197	H	0.717505	-0.223970	0.238818
H198	H	1.217505	0.276030	0.738818
C199	C	0.853114	-0.257913	0.274846
C200	C	1.353114	0.242087	0.774846
N201	N	0.887304	-0.218507	0.233027
N202	N	1.387304	0.281493	0.733027
H203	H	0.443903	-0.271555	0.289313
H204	H	0.943903	0.228445	0.789313
