data_functionalizedCrystal
_audit_creation_method	'MofGen! by Chris Wilmer'
_symmetry_space_group_name_H-M	'P1'
_symmetry_Int_Tables_number	1
_symmetry_cell_setting	triclinic
loop_
_symmetry_equiv_pos_as_xyz
  x,y,z
_cell_length_a	8.497374
_cell_length_b	8.497374
_cell_length_c	13.032831
_cell_angle_alpha	97.172717
_cell_angle_beta	82.800456
_cell_angle_gamma	90.000078
loop_
_atom_site_label
_atom_site_type_symbol
_atom_site_fract_x
_atom_site_fract_y
_atom_site_fract_z
Zn1	Zn	-0.935200	1.197946	1.597718
Zn2	Zn	-0.435200	1.697946	2.097718
Zn3	Zn	-1.198948	0.934189	1.597730
Zn4	Zn	-0.698948	1.434189	2.097730
Zn5	Zn	-0.901617	0.900723	1.423005
Zn6	Zn	-0.401617	1.400723	1.923005
Zn7	Zn	-1.165374	1.164467	1.423000
Zn8	Zn	-0.665374	1.664467	1.923000
O9	O	-1.050285	1.049331	1.510363
O10	O	-0.550285	1.549331	2.010363
O11	O	-0.998292	1.190975	1.743963
O12	O	-0.498292	1.690975	2.243963
O13	O	-1.159503	0.708989	1.574559
O14	O	-0.659503	1.208989	2.074559
O15	O	-0.685309	0.940155	1.446178
O16	O	-0.185309	1.440155	1.946178
O17	O	-1.192067	0.997194	1.743972
O18	O	-0.692067	1.497194	2.243972
O19	O	-0.709982	1.158524	1.574539
O20	O	-0.209982	1.658524	2.074539
O21	O	-0.941054	0.684401	1.446189
O22	O	-0.441054	1.184401	1.946189
O23	O	-0.908499	0.907692	1.276761
O24	O	-0.408499	1.407692	1.776761
O25	O	-1.134845	1.389669	1.446170
O26	O	-0.634845	1.889669	1.946170
O27	O	-1.102281	1.101464	1.276758
O28	O	-0.602281	1.601464	1.776758
O29	O	-0.965737	1.414266	1.574534
O30	O	-0.465737	1.914266	2.074534
O31	O	-1.415258	0.964731	1.574555
O32	O	-0.915258	1.464731	2.074555
O33	O	-1.390591	1.133915	1.446182
O34	O	-0.890591	1.633915	1.946182
C35	C	-0.998104	0.997315	1.238840
C36	C	-0.498104	1.497315	1.738840
C37	C	-0.975818	0.975099	1.122681
C38	C	-0.475818	1.475099	1.622681
C39	C	-0.460164	1.049325	1.510360
C40	C	0.039836	1.549325	2.010360
C41	C	-0.638809	1.049335	1.510364
C42	C	-0.138809	1.549335	2.010364
C43	C	-1.061916	1.060926	1.070920
C44	C	-0.561916	1.560926	1.570920
C45	C	-1.038885	1.037967	0.950864
C46	C	-0.538885	1.537967	1.450864
C47	C	-1.050286	1.460810	1.510355
C48	C	-0.550286	1.960810	2.010355
C49	C	-1.050303	1.639455	1.510358
C50	C	-0.550303	2.139455	2.010358
C51	C	-1.102671	1.101552	1.782947
C52	C	-0.602671	1.601552	2.282947
C53	C	-1.124995	1.123806	1.899105
C54	C	-0.624995	1.623806	2.399105
H55	H	-1.152672	1.151407	1.115486
H56	H	-0.652672	1.651407	1.615486
O57	O	-0.855584	0.855245	1.063669
O58	O	-0.355584	1.355245	1.563669
H59	H	-0.886426	0.735360	1.084561
H60	H	-0.386426	1.235360	1.584561
H61	H	-1.215754	1.214298	0.943666
H62	H	-0.715754	1.714298	1.443666
H63	H	-0.948111	0.947491	0.906302
H64	H	-0.448111	1.447491	1.406302
