data_functionalizedCrystal
_audit_creation_method	'MofGen! by Chris Wilmer'
_symmetry_space_group_name_H-M	'P1'
_symmetry_Int_Tables_number	1
_symmetry_cell_setting	triclinic
loop_
_symmetry_equiv_pos_as_xyz
  x,y,z
_cell_length_a	29.019771
_cell_length_b	29.019011
_cell_length_c	29.015668
_cell_angle_alpha	60.004890
_cell_angle_beta	60.009825
_cell_angle_gamma	59.993818
loop_
_atom_site_label
_atom_site_type_symbol
_atom_site_fract_x
_atom_site_fract_y
_atom_site_fract_z
O1	O	0.063866	-0.673289	0.563007
O2	O	0.563866	-0.173289	1.063007
O3	O	0.024059	-0.524205	0.453633
O4	O	0.524059	-0.024205	0.953633
O5	O	0.118464	-0.618532	0.453552
O6	O	0.618464	-0.118532	0.953552
O7	O	-0.030540	-0.578962	0.563088
O8	O	0.469460	-0.078962	1.063088
O9	O	0.149785	-0.587215	0.484789
O10	O	0.649785	-0.087215	0.984789
O11	O	0.055379	-0.492888	0.484869
O12	O	0.555379	0.007112	0.984869
O13	O	0.095186	-0.641972	0.594244
O14	O	0.595186	-0.141972	1.094244
Cu15	Cu	0.078143	-0.564571	0.542409
Cu16	Cu	0.578143	-0.064571	1.042409
Cu17	Cu	0.041102	-0.601606	0.505468
Cu18	Cu	0.541102	-0.101606	1.005468
O19	O	0.000781	-0.547645	0.594325
O20	O	0.500781	-0.047645	1.094325
N21	N	0.104196	-0.538525	0.568394
N22	N	0.604196	-0.038525	1.068394
N23	N	0.015054	-0.627656	0.479483
N24	N	0.515054	-0.127656	0.979483
C25	C	0.143783	-0.499167	0.850823
C26	C	0.643783	0.000833	1.350823
C27	C	0.386758	-0.499111	0.607645
C28	C	0.886758	0.000889	1.107645
C29	C	0.143618	-0.499136	0.607763
C30	C	0.643618	0.000864	1.107763
C31	C	0.143598	-0.256029	0.607770
C32	C	0.643598	0.243971	1.107770
C33	C	0.182748	-0.373362	0.646852
C34	C	0.682748	0.126638	1.146852
C35	C	0.182758	-0.460025	0.646847
C36	C	0.682758	0.039975	1.146847
C37	C	0.204440	-0.438361	0.668500
C38	C	0.704440	0.061639	1.168500
C39	C	0.298958	-0.422064	0.618723
C40	C	0.798958	0.077936	1.118723
C41	C	0.358043	-0.441753	0.599006
C42	C	0.858043	0.058247	1.099006
C43	C	0.358069	-0.537354	0.635461
C44	C	0.858069	-0.037354	1.135461
C45	C	0.298985	-0.517664	0.655180
C46	C	0.798985	-0.017664	1.155180
C47	C	0.196983	-0.343808	0.588767
C48	C	0.696983	0.156192	1.088767
C49	C	0.177262	-0.284720	0.569090
C50	C	0.677262	0.215280	1.069090
C51	C	0.129075	-0.284743	0.665586
C52	C	0.629075	0.215257	1.165586
C53	C	0.148797	-0.343831	0.685263
C54	C	0.648797	0.156169	1.185263
C55	C	0.124666	-0.445760	0.661149
C56	C	0.624666	0.054240	1.161149
C57	C	0.104961	-0.465454	0.641458
C58	C	0.604961	0.034546	1.141458
C59	C	0.201435	-0.513678	0.593176
C60	C	0.701435	-0.013678	1.093176
C61	C	0.221143	-0.493984	0.612860
C62	C	0.721143	0.006016	1.112860
C63	C	0.124738	-0.445777	0.763064
C64	C	0.624738	0.054223	1.263064
C65	C	0.105085	-0.465488	0.822151
C66	C	0.605085	0.034512	1.322151
C67	C	0.201594	-0.513722	0.822097
C68	C	0.701594	-0.013722	1.322097
C69	C	0.221247	-0.494012	0.763009
C70	C	0.721247	0.005988	1.263009
C71	C	0.182817	-0.460038	0.733494
C72	C	0.682817	0.039962	1.233494
C73	C	0.269432	-0.460018	0.646809
C74	C	0.769432	0.039982	1.146809
C75	C	0.121399	-0.520450	0.915812
C76	C	0.621399	-0.020450	1.415812
C77	C	0.451745	-0.520012	0.585655
C78	C	0.951745	-0.020012	1.085655
C79	C	0.121177	-0.520429	0.586502
C80	C	0.621177	-0.020429	1.086502
C81	C	0.121544	-0.191035	0.586883
C82	C	0.621544	0.308965	1.086883
C83	C	-0.110592	-0.666601	0.440035
C84	C	0.389408	-0.166601	0.940035
C85	C	-0.023978	-0.666709	0.440231
C86	C	0.476022	-0.166709	0.940231
C87	C	-0.045598	-0.688342	0.418486
C88	C	0.454402	-0.188342	0.918486
C89	C	-0.061967	-0.782825	0.468184
C90	C	0.438033	-0.282825	0.968184
C91	C	-0.042323	-0.841914	0.487907
C92	C	0.457677	-0.341914	0.987907
C93	C	0.053280	-0.842025	0.451623
C94	C	0.553280	-0.342025	0.951623
C95	C	0.033634	-0.782937	0.431899
C96	C	0.533634	-0.282937	0.931899
C97	C	-0.140218	-0.680832	0.498102
C98	C	0.359782	-0.180832	0.998102
C99	C	-0.199302	-0.661065	0.517690
C100	C	0.300698	-0.161065	1.017690
C101	C	-0.199129	-0.612843	0.421140
C102	C	0.300871	-0.112843	0.921140
C103	C	-0.140045	-0.632610	0.401552
C104	C	0.359955	-0.132610	0.901552
C105	C	-0.038209	-0.608622	0.425941
C106	C	0.461791	-0.108622	0.925941
C107	C	-0.018555	-0.588961	0.445716
C108	C	0.481445	-0.088961	0.945716
C109	C	0.029562	-0.685470	0.494059
C110	C	0.529562	-0.185470	0.994059
C111	C	0.009908	-0.705133	0.474291
C112	C	0.509908	-0.205133	0.974291
C113	C	-0.038037	-0.608631	0.323917
C114	C	0.461963	-0.108631	0.823917
C115	C	-0.018247	-0.588973	0.264830
C116	C	0.481753	-0.088973	0.764830
C117	C	0.029955	-0.685489	0.264893
C118	C	0.529955	-0.185489	0.764893
C119	C	0.010165	-0.705145	0.323981
C120	C	0.510165	-0.205145	0.823981
C121	C	-0.023833	-0.666715	0.353492
C122	C	0.476167	-0.166715	0.853492
C123	C	-0.023990	-0.753339	0.440182
C124	C	0.476010	-0.253339	0.940182
N125	N	0.504925	-0.538487	0.568205
N126	N	1.004925	-0.038487	1.068205
O127	O	0.685342	-0.543679	0.433426
O128	O	1.185342	-0.043679	0.933426
O129	O	0.685533	-0.653395	0.582361
O130	O	1.185533	-0.153395	1.082361
O131	O	0.685457	-0.653145	0.487904
O132	O	1.185457	-0.153145	0.987904
O133	O	0.685418	-0.543929	0.527882
O134	O	1.185418	-0.043929	1.027882
O135	O	0.591592	-0.621921	0.519268
O136	O	1.091592	-0.121921	1.019268
O137	O	0.591667	-0.622171	0.613725
O138	O	1.091667	-0.122171	1.113725
O139	O	0.591477	-0.512455	0.464790
O140	O	1.091477	-0.012455	0.964790
Cu141	Cu	0.583001	-0.564462	0.542121
Cu142	Cu	1.083001	-0.064462	1.042121
Cu143	Cu	0.694008	-0.601388	0.505029
Cu144	Cu	1.194008	-0.101388	1.005029
O145	O	0.591553	-0.512705	0.559246
O146	O	1.091553	-0.012705	1.059246
N147	N	0.772084	-0.627363	0.478939
N148	N	1.272084	-0.127363	0.978939
N149	N	0.104168	-0.137853	0.568408
N150	N	0.604168	0.362147	1.068408
O151	O	-0.030538	0.042663	0.563097
O152	O	0.469462	0.542663	1.063097
O153	O	0.118403	0.042683	0.453379
O154	O	0.618403	0.542683	0.953379
O155	O	0.023918	0.042657	0.453664
O156	O	0.523918	0.542657	0.953664
O157	O	0.063947	0.042689	0.562813
O158	O	0.563947	0.542689	1.062813
O159	O	0.055242	-0.051215	0.484950
O160	O	0.555242	0.448785	0.984950
O161	O	0.149727	-0.051189	0.484666
O162	O	0.649727	0.448811	0.984666
O163	O	0.000787	-0.051210	0.594384
O164	O	0.500787	0.448790	1.094384
Cu165	Cu	0.078117	-0.059771	0.542381
Cu166	Cu	0.578117	0.440229	1.042381
Cu167	Cu	0.041072	0.051244	0.505382
Cu168	Cu	0.541072	0.551244	1.005382
O169	O	0.095272	-0.051184	0.594099
O170	O	0.595272	0.448816	1.094099
N171	N	0.015015	0.129326	0.479356
N172	N	0.515015	0.629326	0.979356
N173	N	0.104469	-0.538576	0.968995
N174	N	0.604469	-0.038576	1.468995
O175	O	0.099171	-0.673268	1.149499
O176	O	0.599171	-0.173268	1.649499
O177	O	-0.010519	-0.524279	1.149527
O178	O	0.489481	-0.024279	1.649527
O179	O	-0.010265	-0.618748	1.149494
O180	O	0.489735	-0.118748	1.649494
O181	O	0.098916	-0.578799	1.149533
O182	O	0.598916	-0.078799	1.649533
O183	O	0.021008	-0.587443	1.055625
O184	O	0.521008	-0.087443	1.555625
O185	O	0.020753	-0.492974	1.055659
O186	O	0.520753	0.007026	1.555659
O187	O	0.130444	-0.641963	1.055630
O188	O	0.630444	-0.141963	1.555630
Cu189	Cu	0.078454	-0.564610	1.047074
Cu190	Cu	0.578454	-0.064610	1.547074
Cu191	Cu	0.041470	-0.601632	1.158084
Cu192	Cu	0.541470	-0.101632	1.658084
O193	O	0.130189	-0.547494	1.055664
O194	O	0.630189	-0.047494	1.555664
N195	N	0.015455	-0.627672	1.236163
N196	N	0.515455	-0.127672	1.736163
C197	C	0.035988	-0.489761	0.454182
C198	C	0.535988	0.010239	0.954182
C199	C	0.152897	-0.606574	0.454082
C200	C	0.652897	-0.106574	0.954082
C201	C	0.083257	-0.676417	0.593694
C202	C	0.583257	-0.176417	1.093694
C203	C	-0.033653	-0.559604	0.593794
C204	C	0.466347	-0.059604	1.093794
C205	C	0.638623	-0.652892	0.616806
C206	C	1.138623	-0.152892	1.116806
C207	C	0.638531	-0.652583	0.499833
C208	C	1.138531	-0.152583	0.999833
C209	C	0.638384	-0.512957	0.430345
C210	C	1.138384	-0.012957	0.930345
C211	C	0.638480	-0.513267	0.547317
C212	C	1.138480	-0.013267	1.047317
C213	C	0.152789	-0.004135	0.453875
C214	C	0.652789	0.495865	0.953875
C215	C	0.035820	-0.004282	0.454266
C216	C	0.535820	0.495718	0.954266
C217	C	-0.033639	-0.004275	0.593849
C218	C	0.466361	0.495725	1.093849
C219	C	0.083370	-0.004245	0.593498
C220	C	0.583370	0.495755	1.093498
C221	C	-0.009989	-0.489856	1.102597
C222	C	0.490011	0.010144	1.602597
C223	C	-0.009667	-0.606839	1.102536
C224	C	0.490333	-0.106839	1.602536
C225	C	0.129914	-0.676386	1.102561
C226	C	0.629914	-0.176386	1.602561
C227	C	0.129599	-0.559396	1.102601
C228	C	0.629599	-0.059396	1.602601
H229	H	0.057789	-0.453866	0.846219
H230	H	0.557789	0.046134	1.346219
H231	H	0.638322	-0.478510	0.387573
H232	H	1.138322	0.021490	0.887573
O233	O	0.638476	-0.467818	0.558634
O234	O	1.138476	0.032182	1.058634
H235	H	0.600194	-0.430342	0.553734
H236	H	1.100194	0.069658	1.053734
O237	O	0.209585	-0.617743	0.408517
O238	O	0.709585	-0.117743	0.908517
H239	H	0.209658	-0.579550	0.370213
H240	H	0.709658	-0.079550	0.870213
H241	H	0.164353	-0.719173	1.102545
H242	H	0.664353	-0.219173	1.602545
H243	H	0.091941	-0.004235	0.627787
H244	H	0.591941	0.495765	1.127787
O245	O	0.094514	-0.733141	0.639203
O246	O	0.594514	-0.233141	1.139203
H247	H	0.138173	-0.760732	0.623117
H248	H	0.638173	-0.260732	1.123117
H249	H	0.195476	-0.003868	0.419344
H250	H	0.695476	0.496132	0.919344
O251	O	0.024470	-0.004286	0.408838
O252	O	0.524470	0.495714	0.908838
H253	H	0.014018	-0.042553	0.424112
H254	H	0.514018	0.457447	0.924112
O255	O	0.083289	-0.409131	0.731228
O256	O	0.583289	0.090869	1.231228
H257	H	0.039600	-0.402526	0.761716
H258	H	0.539600	0.097474	1.261716
O259	O	0.243043	-0.550405	0.853929
O260	O	0.743043	-0.050405	1.353929
H261	H	0.286730	-0.557027	0.823438
H262	H	0.786730	-0.057027	1.323438
O263	O	0.042302	-0.450058	0.656878
O264	O	0.542302	0.049942	1.156878
H265	H	0.030996	-0.426623	0.617829
H266	H	0.530996	0.073377	1.117829
H267	H	0.027485	-0.446933	0.419832
H268	H	0.527485	0.053067	0.919832
O269	O	-0.090299	-0.004270	0.639476
O270	O	0.409701	0.495730	1.139476
H271	H	-0.117996	-0.004273	0.623530
H272	H	0.382004	0.495727	1.123530
H273	H	-0.044426	-0.447066	1.102605
H274	H	0.455574	0.052934	1.602605
O275	O	0.175034	-0.548078	1.102612
O276	O	0.675034	-0.048078	1.602612
H277	H	0.213396	-0.586218	1.102610
H278	H	0.713396	-0.086218	1.602610
O279	O	-0.033802	-0.526319	0.430264
O280	O	0.466198	-0.026319	0.930264
H281	H	-0.017781	-0.507050	0.383678
H282	H	0.482219	-0.007050	0.883678
H283	H	-0.043953	-0.615372	1.102487
H284	H	0.456047	-0.115372	1.602487
H285	H	0.093408	-0.418110	0.688821
H286	H	0.593408	0.081890	1.188821
O287	O	0.283893	-0.509389	0.731113
O288	O	0.783893	-0.009389	1.231113
H289	H	0.303268	-0.555975	0.742439
H290	H	0.803268	-0.055975	1.242439
O291	O	0.242835	-0.550305	0.556522
O292	O	0.742835	-0.050305	1.056522
H293	H	0.286540	-0.556911	0.549885
H294	H	0.786540	-0.056911	1.049885
H295	H	0.638671	-0.687334	0.659583
H296	H	1.138671	-0.187334	1.159583
O297	O	0.233599	-0.375664	0.547343
O298	O	0.733599	0.124336	1.047343
H299	H	0.240175	-0.345184	0.503646
H300	H	0.740175	0.154816	1.003646
O301	O	0.283799	-0.509370	0.597444
O302	O	0.783799	-0.009370	1.097444
H303	H	0.303128	-0.493472	0.550857
H304	H	0.803128	0.006528	1.050857
O305	O	0.267135	-0.558599	0.685467
O306	O	0.767135	-0.058599	1.185467
H307	H	0.297614	-0.601990	0.687965
H308	H	0.797614	-0.101990	1.187965
H309	H	0.382132	-0.584293	0.642268
H310	H	0.882132	-0.084293	1.142268
O311	O	0.638548	-0.698034	0.488509
O312	O	1.138548	-0.198034	0.988509
H313	H	0.638498	-0.681882	0.444849
H314	H	1.138498	-0.181882	0.944849
H315	H	-0.076451	-0.551170	0.628189
H316	H	0.423549	-0.051170	1.128189
O317	O	-0.083282	-0.873721	0.518114
O318	O	0.416718	-0.373721	1.018114
H319	H	-0.126653	-0.843212	0.520566
H320	H	0.373347	-0.343212	1.020566
H321	H	0.382082	-0.410845	0.576135
H322	H	0.882082	0.089155	1.076135
H323	H	0.188851	-0.260656	0.521790
H324	H	0.688851	0.239344	1.021790
O325	O	0.267083	-0.359890	0.609700
O326	O	0.767083	0.140110	1.109700
H327	H	0.297544	-0.336808	0.586861
H328	H	0.797544	0.163192	1.086861
H329	H	0.101438	-0.260698	0.696864
H330	H	0.601438	0.239302	1.196864
H331	H	0.137197	-0.367895	0.732563
H332	H	0.637197	0.132105	1.232563
H333	H	-0.029822	-0.541673	0.240758
H334	H	0.470178	-0.041673	0.740758
H335	H	0.057627	-0.716785	0.240872
H336	H	0.557627	-0.216785	0.740872
O337	O	-0.074704	-0.567181	0.355748
O338	O	0.425296	-0.067181	0.855748
H339	H	-0.081254	-0.523488	0.325256
H340	H	0.418746	-0.023488	0.825256
H341	H	0.021738	-0.752445	0.348058
H342	H	0.521738	-0.252445	0.848058
H343	H	-0.065797	-0.577331	0.398207
H344	H	0.434203	-0.077331	0.898207
H345	H	0.021495	-0.752433	0.485928
H346	H	0.521495	-0.252433	0.985928
O347	O	0.066107	-0.726917	0.530794
O348	O	0.566107	-0.226917	1.030794
H349	H	0.105144	-0.753874	0.507396
H350	H	0.605144	-0.253874	1.007396
O351	O	0.074595	-0.751131	0.401701
O352	O	0.574595	-0.251131	0.901701
H353	H	0.117964	-0.781641	0.399265
H354	H	0.617964	-0.281641	0.899265
H355	H	-0.108889	-0.758731	0.474933
H356	H	0.391111	-0.258731	0.974933
O357	O	0.115433	-0.873956	0.442693
O358	O	0.615433	-0.373956	0.942693
H359	H	0.138543	-0.843525	0.419903
H360	H	0.638543	-0.343525	0.919903
H361	H	-0.223425	-0.672650	0.564976
H362	H	0.276575	-0.172650	1.064976
O363	O	-0.108446	-0.717490	0.539604
O364	O	0.391554	-0.217490	1.039604
H365	H	-0.138975	-0.724055	0.583274
H366	H	0.361025	-0.224055	1.083274
O367	O	-0.230904	-0.576184	0.379638
O368	O	0.269096	-0.076184	0.879638
H369	H	-0.200376	-0.569613	0.335967
H370	H	0.299624	-0.069613	0.835967
H371	H	-0.115923	-0.621016	0.354266
H372	H	0.384077	-0.121016	0.854266
