data_functionalizedCrystal
_audit_creation_method	'MofGen! by Chris Wilmer'
_symmetry_space_group_name_H-M	'P1'
_symmetry_Int_Tables_number	1
_symmetry_cell_setting	triclinic
loop_
_symmetry_equiv_pos_as_xyz
  x,y,z
_cell_length_a	17.699083
_cell_length_b	9.730223
_cell_length_c	10.654549
_cell_angle_alpha	89.996580
_cell_angle_beta	83.883896
_cell_angle_gamma	90.002740
loop_
_atom_site_label
_atom_site_type_symbol
_atom_site_fract_x
_atom_site_fract_y
_atom_site_fract_z
O1	O	1.005084	-0.114094	0.158805
O2	O	0.784837	-0.114139	0.179467
O3	O	0.900025	-0.114110	-0.013692
O4	O	0.889896	-0.114123	0.351964
O5	O	0.900017	0.114470	-0.013697
O6	O	0.784829	0.114441	0.179462
O7	O	1.005077	0.114486	0.158800
Zn8	Zn	0.894952	0.150755	0.169130
Zn9	Zn	0.894962	-0.150408	0.169137
O10	O	0.889889	0.114457	0.351959
C11	C	0.756632	0.000145	0.178724
C12	C	0.672599	0.000128	0.176503
N13	N	0.894951	0.356292	0.169125
N14	N	0.894969	-0.355945	0.169132
C15	C	0.624699	0.000125	0.289883
C16	C	0.545742	0.000143	0.287788
C17	C	0.514688	0.000154	0.172313
C18	C	0.562594	0.000162	0.058924
C19	C	0.641549	0.000154	0.061020
C20	C	0.244177	0.000197	0.050470
C21	C	0.165216	0.000200	0.048383
C22	C	0.148371	0.000185	0.277239
C23	C	0.227326	0.000177	0.279334
C24	C	0.275225	0.000192	0.165946
C25	C	0.360839	0.000175	0.168219
C26	C	0.429075	0.000161	0.170039
C27	C	1.033282	0.000198	0.159543
C28	C	1.117314	0.000206	0.161764
C29	C	0.899277	0.000179	-0.060479
C30	C	0.897052	0.000174	-0.199884
C31	C	0.945973	0.428231	0.083630
C32	C	0.945981	0.572114	0.083630
C33	C	0.843941	0.572106	0.254631
C34	C	0.843930	0.428226	0.254624
C35	C	0.962777	0.000178	-0.411549
C36	C	0.964873	0.000189	-0.280565
C37	C	0.827131	0.000161	-0.250192
C38	C	0.825036	0.000160	-0.381174
C39	C	0.890636	0.000165	0.398746
C40	C	0.892861	0.000161	0.538151
H41	H	0.506745	0.000138	0.380114
N42	N	0.693212	0.000166	-0.061273
H43	H	0.683153	-0.084564	-0.111668
H44	H	0.747921	0.000217	-0.042324
N45	N	1.001024	0.649702	-0.008566
H46	H	0.991855	0.624674	-0.097685
H47	H	1.054781	0.624608	0.005921
H48	H	0.139935	0.000212	-0.045657
H49	H	0.802378	0.369649	0.324245
H50	H	0.109361	0.000180	0.369565
H51	H	0.802402	0.630689	0.324245
H52	H	0.987516	0.369665	0.014009
H53	H	0.768098	0.000152	-0.422127
N54	N	1.035927	0.000184	-0.498565
H55	H	1.080536	0.000200	-0.446819
H56	H	1.038054	0.084921	-0.553577
H57	H	0.283168	0.000210	-0.041858
H58	H	1.021805	0.000205	-0.239618
N59	N	0.753987	0.000175	-0.163161
H60	H	0.751786	-0.084556	-0.108129
H61	H	0.709413	0.000227	-0.214980
H62	H	0.649977	0.000114	0.383917
H63	H	0.252606	0.000161	0.373366
H64	H	0.537303	0.000192	-0.035099
