data_functionalizedCrystal
_audit_creation_method	'MofGen! by Chris Wilmer'
_symmetry_space_group_name_H-M	'P1'
_symmetry_Int_Tables_number	1
_symmetry_cell_setting	triclinic
loop_
_symmetry_equiv_pos_as_xyz
  x,y,z
_cell_length_a	10.654556
_cell_length_b	9.130313
_cell_length_c	10.654550
_cell_angle_alpha	89.995631
_cell_angle_beta	95.513766
_cell_angle_gamma	90.001865
loop_
_atom_site_label
_atom_site_type_symbol
_atom_site_fract_x
_atom_site_fract_y
_atom_site_fract_z
O1	O	1.667835	0.121744	-0.176437
O2	O	1.302357	0.121759	-0.193235
O3	O	1.493499	0.121742	-0.002097
O4	O	1.476693	0.121761	-0.367575
O5	O	1.493486	-0.121857	-0.002091
O6	O	1.302344	-0.121840	-0.193229
O7	O	1.667822	-0.121855	-0.176431
Cu8	Cu	1.485082	-0.144090	-0.184830
Cu9	Cu	1.485097	0.143994	-0.184836
O10	O	1.476680	-0.121838	-0.367569
C11	C	1.255553	-0.000039	-0.191997
C12	C	1.116110	-0.000033	-0.188302
N13	N	1.485080	-0.346713	-0.184824
C14	C	0.919572	0.132741	-0.183102
C15	C	1.050594	0.132750	-0.186566
C16	C	1.050598	-0.132835	-0.186560
C17	C	0.919580	-0.132843	-0.183087
C18	C	1.569746	-0.423372	-0.100224
C19	C	1.569758	-0.576709	-0.100225
C20	C	1.400433	-0.576714	-0.269436
C21	C	1.400416	-0.423380	-0.269428
C22	C	1.714626	-0.000054	-0.177669
C23	C	1.854069	-0.000050	-0.181364
C24	C	1.492258	-0.000057	0.044704
C25	C	1.488567	-0.000055	0.184147
N26	N	1.485109	0.346616	-0.184832
C27	C	1.477920	-0.000036	-0.414370
C28	C	1.481612	-0.000029	-0.553813
C29	C	1.601108	-0.000059	0.263630
C30	C	1.597631	-0.000041	0.394651
C31	C	1.369063	-0.000021	0.366693
C32	C	1.372540	-0.000028	0.235675
H33	H	0.866237	0.240869	-0.181698
Br34	Br	1.684644	-0.319330	0.014598
Br35	Br	0.830675	-0.313073	-0.180720
Br36	Br	1.211606	0.000020	0.436632
Br37	Br	1.684661	-0.680744	0.014600
Br38	Br	1.758571	-0.000096	0.193703
H39	H	1.103953	-0.240949	-0.187965
Br40	Br	1.750373	-0.000038	0.502518
H41	H	1.103921	0.240882	-0.187979
Br42	Br	1.285540	-0.680766	-0.384254
Br43	Br	1.219794	-0.000003	0.127795
H44	H	1.331465	-0.360959	-0.338320
