data_functionalizedCrystal
_audit_creation_method	'MofGen! by Chris Wilmer'
_symmetry_space_group_name_H-M	'P1'
_symmetry_Int_Tables_number	1
_symmetry_cell_setting	triclinic
loop_
_symmetry_equiv_pos_as_xyz
  x,y,z
_cell_length_a	16.120484
_cell_length_b	12.759395
_cell_length_c	12.759395
_cell_angle_alpha	89.993112
_cell_angle_beta	87.115561
_cell_angle_gamma	87.073908
loop_
_atom_site_label
_atom_site_type_symbol
_atom_site_fract_x
_atom_site_fract_y
_atom_site_fract_z
Zn1	Zn	-0.332034	-1.584809	0.615228
Zn2	Zn	-0.471420	-1.575805	0.448437
Zn3	Zn	-0.332025	-1.409155	0.439559
Zn4	Zn	-0.471412	-1.400158	0.624070
O5	O	-0.401723	-1.492481	0.531824
O6	O	-0.350532	-1.730635	0.593118
O7	O	-0.452929	-1.553695	0.300239
O8	O	-0.215358	-1.439989	0.455446
O9	O	-0.452938	-1.724020	0.470578
O10	O	-0.215365	-1.569041	0.584509
O11	O	-0.350515	-1.431258	0.293716
O12	O	-0.350507	-1.260941	0.464020
O13	O	-0.452923	-1.424655	0.769918
O14	O	-0.452914	-1.254331	0.599579
O15	O	-0.350523	-1.560317	0.763422
O16	O	-0.588087	-1.544971	0.479152
O17	O	-0.588080	-1.415925	0.608188
C18	C	-0.401709	-1.219515	0.531796
C19	C	-0.401723	-1.102737	0.531811
C20	C	-0.618334	-1.478523	0.545616
C21	C	-0.711001	-1.472648	0.551551
C22	C	-0.508532	-1.095882	0.672763
C23	C	-0.561942	-1.037593	0.743240
C24	C	-0.561951	-0.927871	0.743250
C25	C	-0.508542	-0.876436	0.672777
C26	C	-0.455131	-0.934724	0.602300
C27	C	-0.455130	-1.044449	0.602295
C28	C	-0.348320	-0.941580	0.461355
C29	C	-0.348314	-1.051302	0.461338
C30	C	-0.294911	-0.890144	0.390881
C31	C	-0.241503	-0.948433	0.320397
C32	C	-0.241498	-1.058162	0.320389
C33	C	-0.294904	-1.109591	0.390860
C34	C	-0.880666	-1.461927	0.562409
C35	C	-0.921939	-1.523224	0.501255
C36	C	-1.016346	-1.517259	0.507297
C37	C	-0.786250	-1.467891	0.556369
C38	C	-0.184265	-1.506523	0.518001
C39	C	-0.091598	-1.512507	0.512110
C40	C	-0.401723	-1.492487	0.805857
C41	C	-0.401724	-1.492490	0.922634
C42	C	-0.401734	-0.766514	0.531844
C43	C	-0.401730	-0.883291	0.531832
C44	C	-0.295101	-1.633763	0.915889
C45	C	-0.241794	-1.704400	0.967378
C46	C	-0.241797	-1.704396	1.077100
C47	C	-0.295111	-1.633745	1.135336
C48	C	-0.348418	-1.563109	1.083847
C49	C	-0.348411	-1.563123	0.974122
C50	C	-0.455034	-1.421832	1.090591
C51	C	-0.455037	-1.421839	0.980870
C52	C	-0.508348	-1.351182	1.148827
C53	C	-0.561660	-1.280549	1.097338
C54	C	-0.561656	-1.280556	0.987610
C55	C	-0.508344	-1.351203	0.929381
C56	C	-0.401737	-1.492468	1.258857
C57	C	-0.401727	-1.492468	1.142080
H58	H	-0.508536	-1.185223	0.672754
H59	H	-0.198386	-1.761920	0.919951
Br60	Br	-0.294906	-1.258500	0.390848
Br61	Br	-0.634427	-1.107401	0.838873
H62	H	-0.295101	-1.633740	1.224676
Br63	Br	-0.634429	-0.848761	0.838907
Br64	Br	-0.508539	-0.727527	0.672810
H65	H	-0.886373	-1.580181	0.444361
Br66	Br	-0.294914	-0.741235	0.390902
Br67	Br	-0.939942	-1.366998	0.657230
H68	H	-0.295102	-1.633783	0.826548
Br69	Br	-0.508340	-1.351226	0.780471
Br70	Br	-0.169019	-0.878625	0.224776
H71	H	-0.198385	-1.761908	1.119021
Br72	Br	-0.169001	-1.137259	0.224743
Br73	Br	-0.508351	-1.351172	1.297736
Br74	Br	-0.634000	-1.184668	1.176375
H75	H	-0.605056	-1.223025	0.945694
