data_functionalizedCrystal
_audit_creation_method	'MofGen! by Chris Wilmer'
_symmetry_space_group_name_H-M	'P1'
_symmetry_Int_Tables_number	1
_symmetry_cell_setting	triclinic
loop_
_symmetry_equiv_pos_as_xyz
  x,y,z
_cell_length_a	10.654550
_cell_length_b	9.198806
_cell_length_c	10.654550
_cell_angle_alpha	90.003030
_cell_angle_beta	84.484931
_cell_angle_gamma	90.000708
loop_
_atom_site_label
_atom_site_type_symbol
_atom_site_fract_x
_atom_site_fract_y
_atom_site_fract_z
O1	O	1.667840	0.120784	0.176396
O2	O	1.302362	0.120810	0.193202
O3	O	1.493504	0.120787	0.002060
O4	O	1.476698	0.120807	0.367539
O5	O	1.493489	-0.120998	0.002060
O6	O	1.302347	-0.120975	0.193202
O7	O	1.667825	-0.121002	0.176396
Cu8	Cu	1.485085	-0.143065	0.184799
Cu9	Cu	1.485103	0.142874	0.184799
O10	O	1.476683	-0.120978	0.367538
C11	C	1.255556	-0.000079	0.191968
C12	C	1.116113	-0.000069	0.188276
N13	N	1.485081	-0.344179	0.184798
C14	C	1.036628	-0.000067	0.300818
C15	C	0.905607	-0.000093	0.297341
C16	C	0.933570	-0.000116	0.068772
C17	C	1.064588	-0.000101	0.072250
C18	C	1.565336	-0.416386	0.104188
C19	C	1.565356	-0.583798	0.104184
C20	C	1.714631	-0.000109	0.177630
C21	C	1.854074	-0.000110	0.181322
C22	C	1.492263	-0.000105	-0.044738
C23	C	1.488571	-0.000102	-0.184181
N24	N	1.485116	0.343988	0.184791
C25	C	1.601112	-0.000110	-0.263667
C26	C	1.597636	-0.000092	-0.394688
C27	C	1.369066	-0.000065	-0.366725
C28	C	1.372544	-0.000072	-0.235706
C29	C	1.477925	-0.000084	0.414336
C30	C	1.481616	-0.000077	0.553779
H31	H	0.840894	-0.000094	0.388984
H32	H	1.689279	-0.000095	-0.459401
O33	O	1.251149	-0.000063	-0.149970
H34	H	1.273063	-0.000056	-0.050209
H35	H	1.695588	-0.000131	-0.221720
O36	O	1.243926	-0.000063	-0.422296
H37	H	1.260412	-0.000080	-0.526756
H38	H	1.078574	-0.000052	0.395294
H39	H	0.891602	-0.000150	-0.025693
O40	O	1.150335	-0.000106	-0.049139
H41	H	1.092498	-0.000111	-0.130404
O42	O	1.656375	-0.666049	0.012771
H43	H	1.754507	-0.636910	0.029393
H44	H	1.634028	-0.354268	0.035174
O45	O	1.394100	-0.426440	0.276241
H46	H	1.295952	-0.397343	0.259648
O47	O	1.394081	-0.573771	0.276195
H48	H	1.447700	-0.504395	0.337502
