data_functionalizedCrystal
_audit_creation_method	'MofGen! by Chris Wilmer'
_symmetry_space_group_name_H-M	'P1'
_symmetry_Int_Tables_number	1
_symmetry_cell_setting	triclinic
loop_
_symmetry_equiv_pos_as_xyz
  x,y,z
_cell_length_a	10.685980
_cell_length_b	10.686285
_cell_length_c	19.805399
_cell_angle_alpha	85.610535
_cell_angle_beta	85.606948
_cell_angle_gamma	89.665708
loop_
_atom_site_label
_atom_site_type_symbol
_atom_site_fract_x
_atom_site_fract_y
_atom_site_fract_z
Zn1	Zn	1.956299	-0.352487	-0.448790
Zn2	Zn	1.972306	-0.562271	-0.327655
Zn3	Zn	1.746520	-0.368594	-0.326319
Zn4	Zn	1.762610	-0.578270	-0.431513
O5	O	1.859434	-0.465406	-0.383569
O6	O	2.133974	-0.366878	-0.440511
O7	O	1.942321	-0.536625	-0.232758
O8	O	1.760915	-0.190912	-0.349236
O9	O	2.145735	-0.521006	-0.351514
O10	O	1.915039	-0.179078	-0.439216
O11	O	1.776437	-0.394331	-0.231776
O12	O	1.573103	-0.409845	-0.332483
O13	O	1.788337	-0.548275	-0.528525
O14	O	1.584923	-0.563893	-0.409769
O15	O	1.930640	-0.382392	-0.541218
O16	O	1.957922	-0.739939	-0.334761
O17	O	1.803859	-0.751694	-0.411065
C18	C	1.533494	-0.490354	-0.369107
C19	C	1.394058	-0.501058	-0.362934
C20	C	1.884407	-0.791331	-0.371199
C21	C	1.895206	-0.930754	-0.365935
C22	C	2.186646	-0.440361	-0.398089
C23	C	2.326084	-0.429688	-0.404276
C24	C	1.859498	-0.465321	-0.560118
C25	C	1.859525	-0.465285	-0.635353
C26	C	1.834397	-0.138205	-0.396004
C27	C	1.823728	0.001228	-0.401303
C28	C	1.933624	-0.378906	-0.677308
C29	C	1.933634	-0.378869	-0.747998
C30	C	1.859552	-0.465217	-0.776732
C31	C	1.785444	-0.551601	-0.734772
C32	C	1.785428	-0.551631	-0.664083
C33	C	1.785506	-0.551478	-1.019853
C34	C	1.785531	-0.551444	-1.090547
C35	C	1.933712	-0.378716	-1.103768
C36	C	1.933696	-0.378746	-1.033079
C37	C	1.859584	-0.465125	-0.991125
C38	C	1.859572	-0.465163	-0.914474
C39	C	1.859569	-0.465186	-0.853382
C40	C	1.859435	-0.465394	-0.207714
C41	C	1.859623	-0.465058	-0.132504
H42	H	1.964653	-0.979185	-0.331622
C43	C	1.390476	-0.337171	-0.457795
C44	C	1.299828	-0.273456	-0.494686
C45	C	1.359106	-0.188208	-0.543988
H46	H	1.445299	-0.381210	-0.487722
H47	H	1.437342	-0.278506	-0.436281
H48	H	1.252984	-0.332112	-0.516199
H49	H	1.245000	-0.229391	-0.464777
H50	H	1.405971	-0.129543	-0.522474
H51	H	1.413927	-0.232257	-0.573910
H52	H	1.297610	-0.144959	-0.569020
C53	C	1.329478	-0.593303	-0.309332
C54	C	1.359081	-0.563401	-0.244818
C55	C	1.299599	-0.648337	-0.195425
H56	H	1.357320	-0.676034	-0.316809
H57	H	1.241196	-0.588452	-0.312105
H58	H	1.447344	-0.568263	-0.242047
H59	H	1.331237	-0.480684	-0.237319
H60	H	1.211317	-0.643487	-0.198198
H61	H	1.327446	-0.731064	-0.202909
H62	H	1.319666	-0.628054	-0.151647
H63	H	1.993955	-0.308595	-0.653918
C64	C	2.014225	-0.285032	-0.793435
C65	C	2.079132	-0.209447	-0.753142
C66	C	2.153400	-0.122998	-0.794974
H67	H	1.962197	-0.233906	-0.820970
H68	H	2.072625	-0.328795	-0.821605
H69	H	2.020740	-0.165687	-0.724984
H70	H	2.131183	-0.260538	-0.725608
H71	H	2.211800	-0.166761	-0.823144
H72	H	2.101363	-0.071881	-0.822507
H73	H	2.197457	-0.071711	-0.767641
H74	H	1.754268	-0.950337	-0.435614
H75	H	1.994026	-0.308437	-1.009688
C76	C	2.014033	-0.284976	-1.149434
C77	C	1.998167	-0.303397	-1.217492
C78	C	2.072125	-0.217062	-1.259576
H79	H	2.099769	-0.296807	-1.140983
H80	H	1.989207	-0.202075	-1.140274
H81	H	2.023000	-0.386279	-1.226649
H82	H	1.912446	-0.291555	-1.225964
H83	H	2.047299	-0.134160	-1.250415
H84	H	2.157857	-0.228900	-1.251118
H85	H	2.061361	-0.229541	-1.305757
H86	H	1.725199	-0.621762	-1.113940
C87	C	1.704988	-0.645382	-0.974423
C88	C	1.640134	-0.721006	-1.014721
C89	C	1.565947	-0.807529	-0.972891
H90	H	1.646552	-0.601716	-0.946241
H91	H	1.757104	-0.696461	-0.946902
H92	H	1.588023	-0.669934	-1.042230
H93	H	1.698539	-0.764700	-1.042902
H94	H	1.618062	-0.858609	-0.945370
H95	H	1.507518	-0.763853	-0.944711
H96	H	1.521943	-0.858858	-1.000227
C97	C	1.705140	-0.645292	-0.766096
C98	C	1.721039	-0.626803	-0.836983
C99	C	1.647096	-0.713103	-0.865860
H100	H	1.619399	-0.633471	-0.751543
H101	H	1.729959	-0.728205	-0.752161
H102	H	1.696213	-0.543910	-0.850913
H103	H	1.806764	-0.638635	-0.851556
H104	H	1.671915	-0.796016	-0.851924
H105	H	1.561359	-0.701274	-0.851302
H106	H	1.657882	-0.700577	-0.913960
C107	C	1.704960	-0.645574	-0.618644
C108	C	1.640118	-0.721218	-0.658936
C109	C	1.565994	-0.807787	-0.617102
H110	H	1.646518	-0.601944	-0.590447
H111	H	1.757117	-0.696634	-0.591137
H112	H	1.587966	-0.670164	-0.686431
H113	H	1.698530	-0.764875	-0.687132
H114	H	1.618150	-0.858848	-0.589595
H115	H	1.507559	-0.764147	-0.588907
H116	H	1.521999	-0.859130	-0.644434
