data_functionalizedCrystal
_audit_creation_method	'MofGen! by Chris Wilmer'
_symmetry_space_group_name_H-M	'P1'
_symmetry_Int_Tables_number	1
_symmetry_cell_setting	triclinic
loop_
_symmetry_equiv_pos_as_xyz
  x,y,z
_cell_length_a	18.215407
_cell_length_b	16.625545
_cell_length_c	18.215399
_cell_angle_alpha	89.970704
_cell_angle_beta	89.983176
_cell_angle_gamma	90.026006
loop_
_atom_site_label
_atom_site_type_symbol
_atom_site_fract_x
_atom_site_fract_y
_atom_site_fract_z
Zn1	Zn	1.125047	-0.320981	-0.416121
Zn2	Zn	1.124960	-0.455827	-0.293057
Zn3	Zn	1.001986	-0.321013	-0.293069
Zn4	Zn	1.001944	-0.455776	-0.416082
O5	O	1.063484	-0.388399	-0.354582
O6	O	1.228019	-0.338876	-0.399808
O7	O	1.108629	-0.437978	-0.190074
O8	O	1.018364	-0.208176	-0.309413
O9	O	1.227956	-0.437947	-0.309394
O10	O	1.108776	-0.208153	-0.399819
O11	O	1.018280	-0.338931	-0.190083
O12	O	0.898996	-0.338882	-0.309375
O13	O	1.018292	-0.437861	-0.519072
O14	O	0.898965	-0.437892	-0.399753
O15	O	1.108735	-0.338827	-0.519100
O16	O	1.108588	-0.568653	-0.309356
O17	O	1.018208	-0.568616	-0.399742
C18	C	0.872278	-0.388386	-0.354561
C19	C	0.790479	-0.388399	-0.354570
C20	C	0.602288	-0.440035	-0.401570
C21	C	0.525429	-0.440037	-0.401579
C22	C	0.525432	-0.336779	-0.307611
C23	C	0.602289	-0.336773	-0.307606
C24	C	0.640715	-0.388405	-0.354584
C25	C	0.486999	-0.388414	-0.354598
C26	C	0.403666	-0.388416	-0.354608
C27	C	0.724054	-0.388402	-0.354576
C28	C	1.063404	-0.597890	-0.354559
C29	C	1.063437	-0.687511	-0.354574
C30	C	1.063466	-0.760294	-0.354589
C31	C	1.063509	-0.851602	-0.354605
C32	C	1.063547	-0.924379	-0.354614
C33	C	1.063589	-1.015693	-0.354629
C34	C	1.255437	-0.388414	-0.354604
C35	C	1.337236	-0.388420	-0.354613
C36	C	1.063519	-0.388335	-0.546535
C37	C	1.063534	-0.388308	-0.628334
C38	C	1.063584	-0.178091	-0.354622
C39	C	1.063627	-0.088469	-0.354639
C40	C	1.016529	-0.336699	-0.816534
C41	C	1.016542	-0.336683	-0.893392
C42	C	1.110626	-0.439820	-0.893373
C43	C	1.110609	-0.439840	-0.816516
C44	C	1.063562	-0.388275	-0.778098
C45	C	1.063591	-0.388239	-0.931814
C46	C	1.063606	-0.388221	-1.015148
C47	C	1.063546	-0.388293	-0.694759
C48	C	1.063492	-0.388405	-0.163376
C49	C	1.063620	-0.388206	-0.081578
H50	H	0.633572	-0.482075	-0.439825
N51	N	0.965810	-0.281056	-0.934845
H52	H	0.977263	-0.223449	-0.921488
H53	H	0.972977	-0.288936	-0.989351
H54	H	1.148932	-0.481802	-0.924662
H55	H	0.978219	-0.294711	-0.785256
N56	N	0.483982	-0.495727	-0.452253
H57	H	0.519990	-0.528434	-0.482010
H58	H	0.452070	-0.533000	-0.422236
N59	N	1.161341	-0.495465	-0.775049
H60	H	1.131406	-0.532835	-0.743150
H61	H	1.191144	-0.528072	-0.811090
N62	N	0.483987	-0.281113	-0.256923
H63	H	0.429466	-0.288958	-0.264048
H64	H	0.497410	-0.293612	-0.204351
N65	N	0.643740	-0.281089	-0.256919
H66	H	0.698259	-0.288919	-0.264048
H67	H	0.630331	-0.223519	-0.268464
