data_functionalizedCrystal
_audit_creation_method	'MofGen! by Chris Wilmer'
_symmetry_space_group_name_H-M	'P1'
_symmetry_Int_Tables_number	1
_symmetry_cell_setting	triclinic
loop_
_symmetry_equiv_pos_as_xyz
  x,y,z
_cell_length_a	10.723023
_cell_length_b	9.198806
_cell_length_c	10.654549
_cell_angle_alpha	90.002197
_cell_angle_beta	84.476163
_cell_angle_gamma	90.003487
loop_
_atom_site_label
_atom_site_type_symbol
_atom_site_fract_x
_atom_site_fract_y
_atom_site_fract_z
O1	O	1.657214	0.120874	0.176142
O2	O	1.294064	0.120880	0.193004
O3	O	1.483989	0.120871	0.001832
O4	O	1.467290	0.120883	0.367314
O5	O	1.483974	-0.120914	0.001832
O6	O	1.294049	-0.120905	0.193003
O7	O	1.657199	-0.120911	0.176142
Cu8	Cu	1.475623	-0.142985	0.184572
Cu9	Cu	1.475641	0.142954	0.184573
O10	O	1.467274	-0.120902	0.367313
C11	C	1.247557	-0.000012	0.191777
C12	C	1.109002	-0.000009	0.188106
C13	C	1.047222	-0.125260	0.186469
C14	C	0.904018	-0.125261	0.182675
N15	N	1.475619	-0.344099	0.184571
C16	C	1.555363	-0.416300	0.103950
C17	C	1.555382	-0.583712	0.103946
C18	C	1.703707	-0.000016	0.177369
C19	C	1.842261	-0.000008	0.181039
C20	C	1.482755	-0.000020	-0.044966
C21	C	1.479087	-0.000015	-0.184408
N22	N	1.475654	0.344068	0.184564
C23	C	1.587456	-0.000007	-0.394940
C24	C	1.590912	-0.000019	-0.263920
C25	C	1.363799	-0.000015	-0.235923
C26	C	1.360344	-0.000014	-0.366941
C27	C	1.732050	-0.084735	-0.101686
C28	C	1.847336	-0.084714	-0.050175
C29	C	1.946479	0.000009	-0.105054
C30	C	1.930341	0.084746	-0.211442
C31	C	1.815053	0.084739	-0.262945
C32	C	1.715915	-0.000018	-0.208069
C33	C	1.219213	0.084714	-0.529178
C34	C	1.103924	0.084717	-0.580684
C35	C	1.004771	0.000003	-0.525806
C36	C	1.020897	-0.084713	-0.419413
C37	C	1.136186	-0.084716	-0.367907
C38	C	1.235339	-0.000004	-0.422794
C39	C	1.468508	-0.000008	0.414111
C40	C	1.472176	-0.000003	0.553554
H41	H	1.623659	-0.645801	0.034927
H42	H	0.850888	-0.232493	0.181275
H43	H	1.407383	-0.593852	0.253596
H44	H	1.272749	-0.000021	-0.171174
N45	N	1.385199	-0.426383	0.275995
H46	H	1.400560	-0.399968	0.365223
H47	H	1.296460	-0.399955	0.260879
N48	N	0.912628	0.142040	0.182897
H49	H	0.899481	0.199689	0.104579
H50	H	0.880566	0.199588	0.260066
H51	H	1.055877	0.107222	0.186695
N52	N	1.708068	-0.000000	-0.480694
H53	H	1.781621	-0.000008	-0.428178
H54	H	1.711574	-0.089632	-0.535667
H55	H	1.623617	-0.354177	0.034925
N56	N	1.797633	0.176122	-0.377680
H57	H	1.877933	0.229806	-0.404630
H58	H	1.775302	0.111143	-0.448579
H59	H	1.651332	-0.153743	-0.057001
N60	N	2.037270	0.176147	-0.270622
H61	H	2.112753	0.163293	-0.221854
H62	H	2.058929	0.144488	-0.360855
H63	H	1.100348	-0.232491	0.187869
H64	H	2.040346	0.000025	-0.063104
H65	H	1.860468	-0.153718	0.036446
H66	H	1.149313	-0.153711	-0.281281
N67	N	1.326160	0.176089	-0.588372
H68	H	1.401643	0.163225	-0.539606
H69	H	1.347812	0.144423	-0.678604
H70	H	0.940157	-0.153691	-0.374726
N71	N	0.880415	0.000018	-0.581346
H72	H	0.885234	0.066548	-0.657066
H73	H	0.860093	-0.101949	-0.608033
H74	H	1.090797	0.153713	-0.667309
