data_functionalizedCrystal
_audit_creation_method	'MofGen! by Chris Wilmer'
_symmetry_space_group_name_H-M	'P1'
_symmetry_Int_Tables_number	1
_symmetry_cell_setting	triclinic
loop_
_symmetry_equiv_pos_as_xyz
  x,y,z
_cell_length_a	15.995350
_cell_length_b	15.995350
_cell_length_c	15.072220
_cell_angle_alpha	89.998899
_cell_angle_beta	89.993871
_cell_angle_gamma	96.507625
loop_
_atom_site_label
_atom_site_type_symbol
_atom_site_fract_x
_atom_site_fract_y
_atom_site_fract_z
O1	O	1.110996	-0.107921	-0.073647
O2	O	0.867221	-0.121249	-0.073677
O3	O	0.995772	0.007303	-0.073660
O4	O	0.982444	-0.236472	-0.073664
O5	O	0.995740	0.007296	0.073905
O6	O	0.867189	-0.121256	0.073888
O7	O	1.110964	-0.107928	0.073918
Zn8	Zn	0.989071	-0.114593	0.097332
Zn9	Zn	0.989113	-0.114584	-0.097091
O10	O	0.982413	-0.236480	0.073902
C11	C	0.836010	-0.120701	0.000102
C12	C	0.743060	-0.119049	0.000090
C13	C	0.995205	0.038494	0.000121
C14	C	0.993553	0.131444	0.000115
C15	C	1.142175	-0.108476	0.000138
C16	C	1.235125	-0.110127	0.000143
C17	C	1.572873	-0.116060	0.000108
C18	C	1.525439	-0.207612	0.000440
C19	C	1.428748	-0.205959	0.000117
C20	C	1.405312	-0.113117	0.000126
C21	C	1.446391	-0.067956	-0.084142
C22	C	1.543027	-0.070256	-0.084222
C23	C	1.543382	-0.068373	0.083587
C24	C	1.446437	-0.068395	0.084710
C25	C	1.310615	-0.111449	0.000133
C26	C	1.667570	-0.117725	0.000094
C27	C	0.982980	-0.267671	0.000119
C28	C	0.984631	-0.360621	0.000118
N29	N	0.989049	-0.114599	0.230021
C30	C	0.987621	0.469192	0.000118
C31	C	0.896069	0.421758	-0.000225
C32	C	0.897721	0.325068	0.000108
C33	C	0.990564	0.301631	0.000116
C34	C	1.035702	0.342705	0.084387
C35	C	1.033402	0.439341	0.084457
C36	C	1.035330	0.439707	-0.083352
C37	C	1.035308	0.342761	-0.084465
C38	C	0.992231	0.206934	0.000118
C39	C	0.985956	0.563890	0.000122
N40	N	0.989142	-0.114571	-0.229780
C41	C	0.989112	-0.114580	0.589223
C42	C	0.920095	-0.183135	0.551607
C43	C	0.920254	-0.183385	0.448781
C44	C	0.989080	-0.114590	0.411019
C45	C	1.076445	-0.133671	0.448321
C46	C	1.076058	-0.134159	0.551178
C47	C	0.971542	-0.026741	0.551321
C48	C	0.969537	-0.027327	0.448458
C49	C	0.989067	-0.114593	0.310305
C50	C	0.989130	-0.114579	0.689936
H51	H	1.400325	-0.241463	0.060520
H52	H	0.854945	-0.171953	0.576360
F53	F	0.994691	0.305607	0.166350
H54	H	0.931160	-0.247952	0.577446
H55	H	1.545033	-0.244038	-0.059656
F56	F	0.996218	0.466548	-0.166838
H57	H	1.000460	0.457639	0.147445
H58	H	0.931473	-0.248570	0.424168
F59	F	0.835360	-0.168568	0.415816
H60	H	1.561329	-0.103184	-0.147215
F61	F	0.992504	0.306761	-0.165962
F62	F	1.123804	0.322679	-0.091114
F63	F	1.097167	-0.216449	0.414642
H64	H	1.100617	0.471588	0.088286
H65	H	1.400885	-0.241689	-0.060391
F66	F	1.584904	0.019851	0.084338
H67	H	0.862238	0.296649	-0.060301
F68	F	1.123557	0.481221	-0.084087
F69	F	1.037326	0.039941	0.583116
F70	F	1.096294	-0.217890	0.582529
H71	H	1.129019	-0.086195	0.576060
F72	F	1.570230	-0.107500	0.167064
H73	H	1.129029	-0.085068	0.423858
F74	F	1.427929	0.021198	-0.088233
H75	H	1.575275	-0.003040	-0.088057
H76	H	1.103910	0.328579	0.087526
F77	F	0.890067	-0.002771	0.585257
H78	H	1.543971	-0.244208	0.060864
H79	H	0.905271	-0.012846	0.424078
H80	H	0.859490	0.440293	-0.060657
F81	F	1.409298	-0.108945	-0.166108
H82	H	0.859626	0.441349	0.059863
H83	H	1.016540	0.026078	0.422756
H84	H	1.419137	-0.101371	0.147051
H85	H	1.431077	-0.000690	0.089803
H86	H	0.861974	0.297200	0.060612
