data_functionalizedCrystal
_audit_creation_method	'MofGen! by Chris Wilmer'
_symmetry_space_group_name_H-M	'P1'
_symmetry_Int_Tables_number	1
_symmetry_cell_setting	triclinic
loop_
_symmetry_equiv_pos_as_xyz
  x,y,z
_cell_length_a	18.215407
_cell_length_b	29.839131
_cell_length_c	18.215399
_cell_angle_alpha	89.969127
_cell_angle_beta	89.980167
_cell_angle_gamma	90.041868
loop_
_atom_site_label
_atom_site_type_symbol
_atom_site_fract_x
_atom_site_fract_y
_atom_site_fract_z
Zn1	Zn	1.124987	-0.178853	-0.416101
Zn2	Zn	1.624987	0.321147	0.083899
Zn3	Zn	1.124860	-0.253982	-0.293028
Zn4	Zn	1.624860	0.246018	0.206972
Zn5	Zn	1.001920	-0.178867	-0.293048
Zn6	Zn	1.501920	0.321133	0.206952
Zn7	Zn	1.001850	-0.253957	-0.416053
Zn8	Zn	1.501850	0.246043	0.083947
O9	O	1.063404	-0.216415	-0.354558
O10	O	1.563404	0.283585	0.145442
O11	O	1.227955	-0.188823	-0.399787
O12	O	1.727955	0.311177	0.100213
O13	O	1.108528	-0.244034	-0.190047
O14	O	1.608528	0.255966	0.309953
O15	O	1.018327	-0.115998	-0.309400
O16	O	1.518327	0.384002	0.190600
O17	O	1.227861	-0.244020	-0.309366
O18	O	1.727861	0.255980	0.190634
O19	O	1.108745	-0.115987	-0.399806
O20	O	1.608745	0.384013	0.100194
O21	O	1.018204	-0.188848	-0.190061
O22	O	1.518204	0.311152	0.309939
O23	O	0.898926	-0.188824	-0.309354
O24	O	1.398926	0.311176	0.190646
O25	O	1.018209	-0.243978	-0.519044
O26	O	1.518209	0.256022	-0.019044
O27	O	0.898875	-0.243992	-0.399725
O28	O	1.398875	0.256008	0.100275
O29	O	1.108677	-0.188799	-0.519079
O30	O	1.608677	0.311201	-0.019079
O31	O	1.108460	-0.316846	-0.309320
O32	O	1.608460	0.183154	0.190680
O33	O	1.018086	-0.316827	-0.399705
O34	O	1.518086	0.183173	0.100295
C35	C	0.872198	-0.216407	-0.354537
C36	C	1.372198	0.283593	0.145463
C37	C	0.790399	-0.216414	-0.354545
C38	C	1.290399	0.283586	0.145455
C39	C	0.602198	-0.245186	-0.401542
C40	C	1.102198	0.254814	0.098458
C41	C	0.525339	-0.245187	-0.401551
C42	C	1.025339	0.254813	0.098449
C43	C	0.525363	-0.187652	-0.307589
C44	C	1.025363	0.312348	0.192411
C45	C	0.602220	-0.187648	-0.307584
C46	C	1.102220	0.312352	0.192416
C47	C	0.640636	-0.216418	-0.354560
C48	C	1.140636	0.283582	0.145440
C49	C	0.486920	-0.216423	-0.354574
C50	C	0.986920	0.283577	0.145426
C51	C	0.403586	-0.216424	-0.354583
C52	C	0.903586	0.283576	0.145417
C53	C	0.723975	-0.216416	-0.354551
C54	C	1.223975	0.283584	0.145449
C55	C	1.063272	-0.333137	-0.354521
C56	C	1.563272	0.166863	0.145479
C57	C	1.063282	-0.383072	-0.354530
C58	C	1.563282	0.116928	0.145470
C59	C	1.110548	-0.692712	-0.307563
C60	C	1.610548	-0.192712	0.192437
C61	C	1.110639	-0.880385	-0.307591
C62	C	1.610639	-0.380385	0.192409
O63	O	1.150721	-0.904647	-0.267629
O64	O	1.650721	-0.404647	0.232371
N65	N	1.063557	-0.903857	-0.354613
N66	N	1.563557	-0.403857	0.145387
C67	C	1.016452	-0.880407	-0.401635
C68	C	1.516452	-0.380407	0.098365
O69	O	0.976414	-0.904678	-0.441636
O70	O	1.476414	-0.404678	0.058364
C71	C	1.016366	-0.692735	-0.401609
C72	C	1.516366	-0.192735	0.098391
C73	C	1.063446	-0.669266	-0.354579
C74	C	1.563446	-0.169266	0.145421
C75	C	1.157625	-0.669243	-0.260536
C76	C	1.657625	-0.169243	0.239464
C77	C	1.157599	-0.622327	-0.260527
C78	C	1.657599	-0.122327	0.239473
C79	C	1.110496	-0.598881	-0.307544
C80	C	1.610496	-0.098881	0.192456
C81	C	1.063420	-0.622350	-0.354570
C82	C	1.563420	-0.122350	0.145430
C83	C	0.969265	-0.669287	-0.448634
C84	C	1.469265	-0.169287	0.051366
C85	C	0.969249	-0.622365	-0.448625
C86	C	1.469249	-0.122365	0.051375
C87	C	1.016329	-0.598896	-0.401595
C88	C	1.516329	-0.098896	0.098405
C89	C	1.016291	-0.551989	-0.401577
C90	C	1.516291	-0.051989	0.098423
N91	N	1.063373	-0.528517	-0.354554
N92	N	1.563373	-0.028517	0.145446
C93	C	1.110476	-0.551963	-0.307538
C94	C	1.610476	-0.051963	0.192462
C95	C	1.016500	-0.978938	-0.401644
C96	C	1.516500	-0.478938	0.098356
C97	C	1.016521	-1.025856	-0.401649
C98	C	1.516521	-0.525856	0.098351
C99	C	1.110709	-1.025830	-0.307606
C100	C	1.610709	-0.525830	0.192394
C101	C	1.110684	-0.978911	-0.307598
C102	C	1.610684	-0.478911	0.192402
C103	C	1.063582	-0.955466	-0.354622
C104	C	1.563582	-0.455466	0.145378
C105	C	1.110417	-0.453437	-0.307521
C106	C	1.610417	0.046563	0.192479
C107	C	1.110385	-0.406518	-0.307514
C108	C	1.610385	0.093482	0.192486
C109	C	1.016200	-0.406547	-0.401559
C110	C	1.516200	0.093453	0.098441
C111	C	1.016229	-0.453463	-0.401564
C112	C	1.516229	0.046537	0.098436
C113	C	1.063344	-0.476907	-0.354543
C114	C	1.563344	0.023093	0.145457
O115	O	0.976236	-0.527698	-0.441523
O116	O	1.476236	-0.027698	0.058477
O117	O	1.150520	-0.527685	-0.267554
O118	O	1.650520	-0.027685	0.232446
C119	C	1.110574	-0.739627	-0.307572
C120	C	1.610574	-0.239627	0.192428
C121	C	1.063498	-0.763097	-0.354598
C122	C	1.563498	-0.263097	0.145402
C123	C	1.016395	-0.739651	-0.401615
C124	C	1.516395	-0.239651	0.098385
C125	C	1.063518	-0.810015	-0.354604
C126	C	1.563518	-0.310015	0.145396
C127	C	1.110621	-0.833461	-0.307587
C128	C	1.610621	-0.333461	0.192413
C129	C	1.157703	-0.809989	-0.260565
C130	C	1.657703	-0.309989	0.239435
C131	C	1.157677	-0.763074	-0.260555
C132	C	1.657677	-0.263074	0.239445
C133	C	0.969313	-0.763122	-0.448637
C134	C	1.469313	-0.263122	0.051363
C135	C	0.969342	-0.810038	-0.448642
C136	C	1.469342	-0.310038	0.051358
C137	C	1.016445	-0.833484	-0.401625
C138	C	1.516445	-0.333484	0.098375
C139	C	1.255357	-0.216423	-0.354579
C140	C	1.755357	0.283577	0.145421
C141	C	1.337156	-0.216426	-0.354589
C142	C	1.837156	0.283574	0.145411
C143	C	1.063449	-0.216384	-0.546511
C144	C	1.563449	0.283616	-0.046511
C145	C	1.063468	-0.216370	-0.628310
C146	C	1.563468	0.283630	-0.128310
C147	C	1.063558	-0.099236	-0.354610
C148	C	1.563558	0.400764	0.145390
C149	C	1.063623	-0.049302	-0.354633
C150	C	1.563623	0.450698	0.145367
C151	C	1.110592	-0.187612	-0.816523
C152	C	1.610592	0.312388	-0.316523
C153	C	1.110601	-0.187599	-0.893382
C154	C	1.610601	0.312401	-0.393382
C155	C	1.016397	-0.245059	-0.893334
C156	C	1.516397	0.254941	-0.393334
C157	C	1.016385	-0.245070	-0.816477
C158	C	1.516385	0.254930	-0.316477
C159	C	1.063487	-0.216347	-0.778073
C160	C	1.563487	0.283653	-0.278073
C161	C	1.063507	-0.216323	-0.931789
C162	C	1.563507	0.283677	-0.431789
C163	C	1.063517	-0.216309	-1.015123
C164	C	1.563517	0.283691	-0.515123
C165	C	1.063477	-0.216360	-0.694734
C166	C	1.563477	0.283640	-0.194734
C167	C	1.063402	-0.216413	-0.163351
C168	C	1.563402	0.283587	0.336649
C169	C	1.063526	-0.216300	-0.081553
C170	C	1.563526	0.283700	0.418447
H171	H	0.633474	-0.268610	-0.439794
H172	H	1.133474	0.231390	0.060206
C173	C	0.965331	-0.276346	-0.774763
C174	C	1.465331	0.223654	-0.274763
C175	C	0.981315	-0.320794	-0.793421
C176	C	1.481315	0.179206	-0.293421
C177	C	0.934307	-0.349615	-0.755001
C178	C	1.434307	0.150385	-0.255001
H179	H	0.915867	-0.269828	-0.787320
H180	H	1.415867	0.230172	-0.287320
H181	H	0.972076	-0.272267	-0.723483
H182	H	1.472076	0.227733	-0.223483
H183	H	0.974564	-0.324871	-0.844689
H184	H	1.474564	0.175129	-0.344689
H185	H	1.030770	-0.327326	-0.780862
H186	H	1.530770	0.172674	-0.280862
H187	H	0.941052	-0.345536	-0.703721
H188	H	1.441052	0.154464	-0.203721
H189	H	0.884846	-0.343094	-0.767561
H190	H	1.384846	0.156906	-0.267561
H191	H	0.945150	-0.379777	-0.767650
H192	H	1.445150	0.120223	-0.267650
C193	C	0.483739	-0.276471	-0.452588
C194	C	0.983739	0.223529	0.047412
C195	C	0.533836	-0.301671	-0.493710
C196	C	1.033836	0.198329	0.006290
C197	C	0.495541	-0.330500	-0.540728
C198	C	0.995541	0.169500	-0.040728
H199	H	0.453788	-0.259362	-0.484773
H200	H	0.953788	0.240638	0.015227
H201	H	0.453739	-0.296049	-0.424397
H202	H	0.953739	0.203951	0.075603
H203	H	0.563824	-0.282096	-0.521899
H204	H	1.063824	0.217904	-0.021899
H205	H	0.563788	-0.318789	-0.461544
H206	H	1.063788	0.181211	0.038456
H207	H	0.465541	-0.350077	-0.512538
H208	H	0.965541	0.149923	-0.012538
H209	H	0.465591	-0.313387	-0.572909
H210	H	0.965591	0.186613	-0.072909
H211	H	0.529525	-0.347604	-0.568631
H212	H	1.029525	0.152396	-0.068631
H213	H	0.494076	-0.164229	-0.269342
H214	H	0.994076	0.335771	0.230658
H215	H	1.195937	-0.603221	-0.222233
H216	H	1.695937	-0.103221	0.277767
H217	H	0.633517	-0.164220	-0.269325
H218	H	1.133517	0.335780	0.230675
C219	C	0.918124	-0.694678	-0.499781
C220	C	1.418124	-0.194678	0.000219
C221	C	0.876893	-0.664094	-0.540966
C222	C	1.376893	-0.164094	-0.040966
C223	C	0.829779	-0.687467	-0.588101
C224	C	1.329779	-0.187467	-0.088101
H225	H	0.886011	-0.713015	-0.471695
H226	H	1.386011	-0.213015	0.028305
H227	H	0.946251	-0.712939	-0.531917
H228	H	1.446251	-0.212939	-0.031917
H229	H	0.848768	-0.645840	-0.508834
H230	H	1.348768	-0.145840	-0.008834
H231	H	0.908986	-0.645757	-0.569067
H232	H	1.408986	-0.145757	-0.069067
H233	H	0.857906	-0.705728	-0.620237
H234	H	1.357906	-0.205728	-0.120237
H235	H	0.797671	-0.705803	-0.560008
H236	H	1.297671	-0.205803	-0.060008
H237	H	0.801803	-0.666719	-0.616055
H238	H	1.301803	-0.166719	-0.116055
C239	C	1.161585	-0.381118	-0.256423
C240	C	1.661585	0.118882	0.243577
C241	C	1.202854	-0.411698	-0.215267
C242	C	1.702854	0.088302	0.284733
C243	C	1.250033	-0.388318	-0.168205
C244	C	1.750033	0.111682	0.331795
H245	H	1.133526	-0.362845	-0.224261
H246	H	1.633526	0.137155	0.275739
H247	H	1.193665	-0.362793	-0.284584
H248	H	1.693665	0.137207	0.215416
H249	H	1.170778	-0.430015	-0.187108
H250	H	1.670778	0.069985	0.312892
H251	H	1.230928	-0.429972	-0.247410
H252	H	1.730928	0.070028	0.252590
H253	H	1.282113	-0.369993	-0.196365
H254	H	1.782113	0.130007	0.303635
H255	H	1.221968	-0.370046	-0.136047
H256	H	1.721968	0.129954	0.363953
H257	H	1.278045	-0.409062	-0.140280
H258	H	1.778045	0.090938	0.359720
H259	H	1.148958	-0.164199	-0.924684
H260	H	1.648958	0.335801	-0.424684
H261	H	0.930894	-0.603279	-0.486920
H262	H	1.430894	-0.103279	0.013080
C263	C	1.208878	-0.737677	-0.209469
C264	C	1.708878	-0.237677	0.290531
C265	C	1.250142	-0.768261	-0.168315
C266	C	1.750142	-0.268261	0.331685
C267	C	1.297326	-0.744886	-0.121252
C268	C	1.797326	-0.244886	0.378748
H269	H	1.180823	-0.719403	-0.177305
H270	H	1.680823	-0.219403	0.322695
H271	H	1.240961	-0.719354	-0.237629
H272	H	1.740961	-0.219354	0.262371
H273	H	1.218063	-0.786576	-0.140157
H274	H	1.718063	-0.286576	0.359843
H275	H	1.278212	-0.786536	-0.200460
H276	H	1.778212	-0.286536	0.299540
H277	H	1.329409	-0.726562	-0.149413
H278	H	1.829409	-0.226562	0.350587
H279	H	1.269265	-0.726612	-0.089093
H280	H	1.769265	-0.226612	0.410907
H281	H	1.325334	-0.765633	-0.093329
H282	H	1.825334	-0.265633	0.406671
H283	H	1.148944	-0.164223	-0.785257
H284	H	1.648944	0.335777	-0.285257
C285	C	1.161454	-0.478948	-0.256437
C286	C	1.661454	0.021052	0.243563
C287	C	1.119838	-0.505942	-0.209243
C288	C	1.619838	-0.005942	0.290757
C289	C	1.166828	-0.529455	-0.162184
C290	C	1.666828	-0.029455	0.337816
H291	H	1.189507	-0.458301	-0.228361
H292	H	1.689507	0.041699	0.271639
H293	H	1.193500	-0.497242	-0.284609
H294	H	1.693500	0.002758	0.215391
H295	H	1.087805	-0.487650	-0.181074
H296	H	1.587805	0.012350	0.318926
H297	H	1.091787	-0.526597	-0.237299
H298	H	1.591787	-0.026597	0.262701
H299	H	1.198873	-0.547749	-0.190356
H300	H	1.698873	-0.047749	0.309644
H301	H	1.194878	-0.508805	-0.134113
H302	H	1.694878	-0.008805	0.365887
H303	H	1.138599	-0.547776	-0.130162
H304	H	1.638599	-0.047776	0.369838
C305	C	1.161883	-0.953514	-0.256511
C306	C	1.661883	-0.453514	0.243489
C307	C	1.203144	-0.984095	-0.215351
C308	C	1.703144	-0.484095	0.284649
C309	C	1.250326	-0.960718	-0.168288
C310	C	1.750326	-0.460718	0.331712
H311	H	1.133826	-0.935238	-0.224351
H312	H	1.633826	-0.435238	0.275649
H313	H	1.193967	-0.935192	-0.284672
H314	H	1.693967	-0.435192	0.215328
H315	H	1.171064	-1.002409	-0.187193
H316	H	1.671064	-0.502409	0.312807
H317	H	1.231216	-1.002372	-0.247492
H318	H	1.731216	-0.502372	0.252508
H319	H	1.282410	-0.942396	-0.196449
H320	H	1.782410	-0.442396	0.303551
H321	H	1.222263	-0.942443	-0.136134
H322	H	1.722263	-0.442443	0.363866
H323	H	1.278332	-0.981463	-0.140361
H324	H	1.778332	-0.481463	0.359639
C325	C	1.161875	-1.051372	-0.256692
C326	C	1.661875	-0.551372	0.243308
C327	C	1.151846	-1.097483	-0.266806
C328	C	1.651846	-0.597483	0.233194
C329	C	1.198998	-1.121028	-0.219953
C330	C	1.698998	-0.621028	0.280047
H331	H	1.151234	-1.043782	-0.207184
H332	H	1.651234	-0.543782	0.292816
H333	H	1.211310	-1.043660	-0.267570
H334	H	1.711310	-0.543660	0.232430
H335	H	1.102422	-1.105192	-0.255923
H336	H	1.602422	-0.605192	0.244077
H337	H	1.162492	-1.105086	-0.316304
H338	H	1.662492	-0.605086	0.183696
H339	H	1.248433	-1.113316	-0.230831
H340	H	1.748433	-0.613316	0.269169
H341	H	1.188353	-1.113435	-0.170448
H342	H	1.688353	-0.613435	0.329552
H343	H	1.192205	-1.152316	-0.226814
H344	H	1.692205	-0.652316	0.273186
H345	H	1.195985	-0.688328	-0.222250
H346	H	1.695985	-0.188328	0.277750
C347	C	0.965344	-0.276229	-0.935164
C348	C	1.465344	0.223771	-0.435164
C349	C	0.975450	-0.270079	-1.010703
C350	C	1.475450	0.229921	-0.510703
C351	C	0.928440	-0.298790	-1.049257
C352	C	1.428440	0.201210	-0.549257
H353	H	0.915873	-0.269683	-0.922652
H354	H	1.415873	0.230317	-0.422652
H355	H	0.976082	-0.306425	-0.922596
H356	H	1.476082	0.193575	-0.422596
H357	H	0.964707	-0.239889	-1.023265
H358	H	1.464707	0.260111	-0.523265
H359	H	1.024911	-0.276628	-1.023237
H360	H	1.524911	0.223372	-0.523237
H361	H	0.939178	-0.328987	-1.036689
H362	H	1.439178	0.171013	-0.536689
H363	H	0.878973	-0.292242	-1.036739
H364	H	1.378973	0.207758	-0.536739
H365	H	0.935296	-0.294624	-1.100514
H366	H	1.435296	0.205376	-0.600514
H367	H	0.978177	-1.044960	-0.439939
H368	H	1.478177	-0.544960	0.060061
H369	H	0.978143	-0.959852	-0.439938
H370	H	1.478143	-0.459852	0.060062
H371	H	0.977895	-0.472573	-0.439862
H372	H	1.477895	0.027427	0.060138
C373	C	0.965144	-0.381005	-0.452578
C374	C	1.465144	0.118995	0.047422
C375	C	0.975221	-0.334894	-0.442514
C376	C	1.475221	0.165106	0.057486
C377	C	0.928212	-0.311349	-0.489511
C378	C	1.428212	0.188651	0.010489
H379	H	0.915674	-0.388672	-0.441817
H380	H	1.415674	0.111328	0.058183
H381	H	0.975902	-0.388641	-0.502052
H382	H	1.475902	0.111359	-0.002052
H383	H	0.964458	-0.327261	-0.393052
H384	H	1.464458	0.172739	0.106948
H385	H	1.024680	-0.327214	-0.453281
H386	H	1.524680	0.172786	0.046719
H387	H	0.938970	-0.318985	-0.538985
H388	H	1.438970	0.181015	-0.038985
H389	H	0.878745	-0.319020	-0.478746
H390	H	1.378745	0.180980	0.021254
H391	H	0.935047	-0.280061	-0.482694
H392	H	1.435047	0.219939	0.017306
H393	H	1.196053	-0.829087	-0.222280
H394	H	1.696053	-0.329087	0.277720
H395	H	0.930998	-0.829142	-0.486939
H396	H	1.430998	-0.329142	0.013061
H397	H	0.930957	-0.744036	-0.486924
H398	H	1.430957	-0.244036	0.013076
