data_functionalizedCrystal
_audit_creation_method	'MofGen! by Chris Wilmer'
_symmetry_space_group_name_H-M	'P1'
_symmetry_Int_Tables_number	1
_symmetry_cell_setting	triclinic
loop_
_symmetry_equiv_pos_as_xyz
  x,y,z
_cell_length_a	23.204082
_cell_length_b	23.204045
_cell_length_c	23.204116
_cell_angle_alpha	120.004995
_cell_angle_beta	89.999939
_cell_angle_gamma	119.999748
loop_
_atom_site_label
_atom_site_type_symbol
_atom_site_fract_x
_atom_site_fract_y
_atom_site_fract_z
O1	O	0.395331	-0.508358	-0.017162
O2	O	0.311529	-0.390342	0.017050
O3	O	0.311525	-0.508356	-0.100969
O4	O	0.395335	-0.390344	0.100857
O5	O	0.407380	-0.412498	-0.100957
O6	O	0.407384	-0.294484	0.017061
O7	O	0.491186	-0.412501	-0.017150
Cu8	Cu	0.458037	-0.344740	-0.000044
Cu9	Cu	0.344678	-0.458103	-0.000057
O10	O	0.491190	-0.294487	0.100868
C11	C	0.248536	-0.108439	0.035748
C12	C	0.284096	-0.037318	0.030850
C13	C	0.283381	-0.142951	0.036239
C14	C	0.144179	-0.212795	0.035752
C15	C	0.068160	-0.253253	0.030858
C16	C	0.179182	-0.247149	0.036244
C17	C	0.248539	-0.212793	0.035756
C18	C	0.284103	-0.253248	0.030865
C19	C	0.179179	-0.142953	0.036236
C20	C	0.312834	-0.285932	0.026912
C21	C	0.312825	0.020139	0.026890
C22	C	0.006744	-0.285939	0.026903
C23	C	0.348879	-0.326936	0.021955
C24	C	0.348866	0.092223	0.021925
C25	C	-0.070305	-0.326945	0.021942
O26	O	-0.298177	-0.412512	-0.017160
O27	O	-0.096362	-0.294500	0.017038
O28	O	-0.214375	-0.412528	-0.100975
O29	O	-0.180163	-0.294484	0.100853
O30	O	-0.214372	-0.508374	-0.100968
O31	O	-0.096358	-0.390346	0.017045
O32	O	-0.298173	-0.508358	-0.017154
Cu33	Cu	-0.197265	-0.458103	-0.000054
Cu34	Cu	-0.197270	-0.344754	-0.000062
O35	O	-0.180160	-0.390329	0.100860
C36	C	0.248532	-0.590061	-0.445874
C37	C	0.284096	-0.549602	-0.481433
C38	C	0.179172	-0.659911	-0.480725
C39	C	0.248533	-0.590061	-0.341515
C40	C	0.284097	-0.549602	-0.265492
C41	C	0.179173	-0.659910	-0.376524
C42	C	0.144170	-0.694427	-0.445885
C43	C	0.068148	-0.765556	-0.481455
C44	C	0.283377	-0.555703	-0.376513
C45	C	0.006730	-0.823020	-0.510191
C46	C	0.312827	-0.516914	-0.510159
C47	C	0.312828	-0.516913	-0.204073
C48	C	-0.070321	-0.895113	-0.546242
C49	C	0.348873	-0.475907	-0.546199
C50	C	0.348874	-0.475906	-0.127019
C51	C	0.492058	-0.621396	-0.024959
C52	C	0.456492	-0.692527	-0.020073
C53	C	0.561417	-0.586880	-0.025442
C54	C	0.492064	-0.517028	-0.024946
C55	C	0.456504	-0.476567	-0.020047
C56	C	0.561423	-0.482670	-0.025430
C57	C	0.596422	-0.517030	-0.024946
C58	C	0.672442	-0.476571	-0.020048
C59	C	0.457217	-0.586878	-0.025442
O60	O	0.491170	0.280979	-0.017186
O61	O	0.407369	0.113377	0.017024
O62	O	0.407358	0.113351	-0.100994
O63	O	0.491180	0.281005	0.100832
O64	O	0.311507	0.113349	-0.100997
O65	O	0.311517	0.113375	0.017021
O66	O	0.395318	0.280977	-0.017189
Cu67	Cu	0.344666	0.197176	-0.000084
Cu68	Cu	0.458021	0.197178	-0.000081
O69	O	0.395329	0.281003	0.100829
O70	O	-0.298194	-1.083893	-0.592716
O71	O	-0.096375	-0.916267	-0.508895
O72	O	-0.214379	-0.916265	-0.508892
O73	O	-0.180190	-1.083895	-0.592719
O74	O	-0.214382	-0.916268	-0.604744
O75	O	-0.096378	-0.916270	-0.604747
O76	O	-0.298197	-1.083896	-0.688568
Cu77	Cu	-0.197288	-1.000083	-0.655410
Cu78	Cu	-0.197284	-1.000080	-0.542054
O79	O	-0.180193	-1.083898	-0.688571
O80	O	0.395339	-0.390340	-0.688497
O81	O	0.311524	-0.508356	-0.604706
O82	O	0.311531	-0.390340	-0.604691
O83	O	0.395333	-0.508356	-0.688513
O84	O	0.407384	-0.294484	-0.508829
O85	O	0.407377	-0.412501	-0.508844
O86	O	0.491193	-0.294484	-0.592635
Cu87	Cu	0.458037	-0.344740	-0.541987
Cu88	Cu	0.344679	-0.458101	-0.655355
O89	O	0.491186	-0.412500	-0.592651
C90	C	0.596439	-0.181452	0.310639
C91	C	0.672460	-0.110323	0.346208
C92	C	0.561436	-0.215968	0.345479
C93	C	0.492075	-0.285819	0.206270
C94	C	0.456510	-0.326279	0.130247
C95	C	0.457231	-0.320176	0.241268
C96	C	0.492076	-0.285817	0.310629
C97	C	0.456513	-0.326276	0.346188
C98	C	0.561435	-0.215969	0.241278
C99	C	-0.172384	-0.285786	0.310629
C100	C	-0.177278	-0.326235	0.346196
C101	C	-0.171900	-0.215939	0.345470
C102	C	-0.172382	-0.285801	0.206262
C103	C	-0.177273	-0.326267	0.130240
C104	C	-0.171898	-0.215955	0.241261
C105	C	-0.172388	-0.181432	0.310621
C106	C	-0.177286	-0.110306	0.346180
C107	C	-0.171894	-0.320150	0.241269
C108	C	0.492082	0.483021	0.310602
C109	C	0.456523	0.523484	0.346166
C110	C	0.561442	0.517383	0.345448
C111	C	0.492073	0.378642	0.206238
C112	C	0.456504	0.307503	0.130215
C113	C	0.561433	0.413162	0.241242
C114	C	0.596441	0.483020	0.310603
C115	C	0.672462	0.523482	0.346167
C116	C	0.457233	0.413163	0.241241
C117	C	-0.233070	-0.694476	-0.445880
C118	C	-0.228173	-0.765602	-0.481439
C119	C	-0.233558	-0.659969	-0.480728
C120	C	-0.233076	-0.590107	-0.341521
C121	C	-0.228184	-0.549641	-0.265499
C122	C	-0.233564	-0.555758	-0.376528
C123	C	-0.233073	-0.590122	-0.445887
C124	C	-0.228180	-0.549672	-0.481455
C125	C	-0.233560	-0.659953	-0.376520
C126	C	-0.224224	-0.516992	-0.510189
C127	C	-0.224215	-0.823063	-0.510167
C128	C	-0.224231	-0.516947	-0.204080
C129	C	-0.219263	-0.475994	-0.546237
C130	C	-0.219250	-0.895152	-0.546208
C131	C	-0.219273	-0.475932	-0.127028
O132	O	-0.214365	-0.412424	0.491191
O133	O	-0.180169	-0.294438	0.407370
O134	O	-0.298176	-0.412447	0.407363
O135	O	-0.096358	-0.294414	0.491198
O136	O	-0.298170	-0.508308	0.311513
O137	O	-0.180164	-0.390299	0.311520
O138	O	-0.214360	-0.508285	0.395341
Cu139	Cu	-0.197261	-0.458045	0.344679
Cu140	Cu	-0.197267	-0.344678	0.458032
O141	O	-0.096353	-0.390276	0.395348
C142	C	0.144132	-0.212902	-0.445913
C143	C	0.068110	-0.253364	-0.481478
C144	C	0.179131	-0.247264	-0.480758
C145	C	0.248499	-0.108523	-0.341548
C146	C	0.284068	-0.037384	-0.265524
C147	C	0.283340	-0.143044	-0.376551
C148	C	0.248491	-0.212901	-0.445912
C149	C	0.284051	-0.253364	-0.481475
C150	C	0.179139	-0.143044	-0.376552
C151	C	0.312779	-0.286055	-0.510206
C152	C	0.006692	-0.286055	-0.510210
C153	C	0.312803	0.020088	-0.204105
C154	C	0.348820	-0.327066	-0.546250
C155	C	-0.070360	-0.327067	-0.546257
C156	C	0.348853	0.092190	-0.127052
H157	H	0.151080	-0.303347	0.037034
H158	H	-0.171124	-0.376365	0.213167
Br159	Br	0.608268	-0.388987	-0.026721
H160	H	0.589545	0.573595	0.402438
H161	H	0.151036	-0.114157	-0.348452
H162	H	-0.234341	-0.688834	-0.348417
Br163	Br	0.608251	0.364979	0.194423
Br164	Br	0.362253	0.365017	0.194395
Br165	Br	-0.170571	-0.167804	0.194428
Br166	Br	-0.170583	-0.167772	0.440458
H167	H	0.340332	-0.114143	-0.348448
Br168	Br	0.608248	-0.635036	-0.026770
H169	H	-0.234345	-0.499550	-0.348424
H170	H	0.400231	-0.615765	-0.026225
Br171	Br	0.132337	-0.708072	-0.575716
Br172	Br	0.608273	-0.167833	0.194439
H173	H	-0.234348	-0.688869	-0.537720
H174	H	0.400242	-0.376383	0.213159
H175	H	0.151019	-0.303483	-0.537745
H176	H	0.340371	-0.114056	0.037034
Br177	Br	0.608279	-0.167835	0.440459
H178	H	0.151070	-0.688788	-0.348419
Br179	Br	0.132326	-0.094838	0.037503
Br180	Br	0.378363	-0.462029	-0.329667
