data_functionalizedCrystal
_audit_creation_method	'MofGen! by Chris Wilmer'
_symmetry_space_group_name_H-M	'P1'
_symmetry_Int_Tables_number	1
_symmetry_cell_setting	triclinic
loop_
_symmetry_equiv_pos_as_xyz
  x,y,z
_cell_length_a	20.919309
_cell_length_b	14.446369
_cell_length_c	14.446369
_cell_angle_alpha	60.000250
_cell_angle_beta	90.000599
_cell_angle_gamma	57.442498
loop_
_atom_site_label
_atom_site_type_symbol
_atom_site_fract_x
_atom_site_fract_y
_atom_site_fract_z
Zr1	Zr	0.641770	0.940909	-0.085371
O2	O	0.535401	1.146008	-0.239172
O3	O	0.674378	0.744118	-0.038216
O4	O	0.674379	0.937226	-0.231335
O5	O	0.535399	0.952908	0.106276
O6	O	0.784009	0.924871	-0.225160
O7	O	0.535399	0.952899	-0.046053
O8	O	0.784006	0.579435	0.120295
O9	O	0.535402	1.298343	-0.239179
O10	O	0.770101	0.812764	-0.013504
O11	O	0.688285	0.821990	0.095569
O12	O	0.688287	1.049350	-0.131804
O13	O	0.606471	1.058577	-0.022731
Zr14	Zr	0.816617	0.921217	0.167425
Zr15	Zr	0.816617	0.921204	-0.075522
Zr16	Zr	0.641770	0.940922	0.157576
Zr17	Zr	0.641772	1.183867	-0.085382
Zr18	Zr	0.816615	0.678260	0.167436
O19	O	0.784009	1.118009	0.120270
O20	O	0.784010	1.117990	-0.225169
O21	O	0.535400	1.146027	0.106267
O22	O	0.922986	0.716119	0.321227
O23	O	0.922987	0.716100	-0.024213
O24	O	0.674377	0.744137	0.307223
O25	O	0.922988	0.909219	-0.024221
O26	O	0.784008	0.924901	0.313389
O27	O	0.674378	0.937256	0.307214
O28	O	0.922988	0.909227	0.128107
O29	O	0.674381	1.282681	-0.231351
O30	O	0.784006	0.579446	0.313405
O31	O	0.922985	0.563783	0.321233
O32	O	0.922986	0.563773	0.128123
O33	O	0.535401	1.298354	-0.046069
O34	O	0.674381	1.282691	-0.038241
O35	O	0.770100	0.812776	0.213858
O36	O	0.851916	0.803549	0.104786
O37	O	0.770102	1.040136	-0.013514
O38	O	0.688287	1.049363	0.095558
C39	C	0.729192	0.627160	0.041041
C40	C	0.729191	0.524018	0.041046
C41	C	0.510487	0.955711	0.028708
C42	C	0.436260	0.964076	0.024527
C43	C	0.677837	0.382800	0.110180
C44	C	0.677558	0.490451	0.109873
C45	C	0.691549	0.577250	-0.084610
C46	C	0.691163	0.470060	-0.084257
C47	C	0.818223	0.280529	0.096505
C48	C	0.818092	0.386695	0.099019
C49	C	0.444092	0.844513	0.084308
C50	C	0.374345	0.852382	0.080377
C51	C	0.296767	0.979814	0.016657
C52	C	0.288937	1.099385	-0.043126
C53	C	0.358683	1.091516	-0.039187
C54	C	0.084043	1.009753	0.001683
C55	C	0.014295	1.017613	-0.002254
C56	C	0.099708	0.770608	0.121251
C57	C	0.169452	0.762750	0.125178
C58	C	0.161616	0.882322	0.065400
C59	C	0.225474	0.987859	0.012635
C60	C	0.232908	0.874275	0.069430
C61	C	0.947900	0.906415	0.053346
C62	C	1.022127	0.898050	0.057527
C63	C	0.729194	0.931047	-0.262862
C64	C	0.729194	0.931041	-0.366000
C65	C	0.729195	1.234966	0.041013
C66	C	0.729196	1.338108	0.041009
C67	C	0.781051	0.781812	-0.438054
C68	C	0.780826	0.781740	-0.330738
C69	C	0.640296	1.012287	-0.445570
C70	C	0.640580	1.011345	-0.552413
C71	C	0.765517	1.000218	-0.546949
C72	C	0.767316	0.997313	-0.438176
C73	C	0.729193	0.931080	0.344917
C74	C	0.729193	0.931086	0.448054
C75	C	0.947898	0.602512	0.053360
C76	C	1.022124	0.491005	0.057546
C77	C	0.729191	0.627177	0.344930
C78	C	0.729190	0.524041	0.448072
C79	C	0.947898	0.602529	0.357250
C80	C	1.022124	0.491028	0.464572
C81	C	0.510489	1.259597	-0.275195
C82	C	0.436263	1.371099	-0.382518
C83	C	0.510489	1.259614	0.028694
C84	C	0.436263	1.371121	0.024508
C85	C	0.729196	1.234950	-0.262876
C86	C	0.729197	1.338086	-0.366018
C87	C	1.014275	0.443450	-0.002245
C88	C	1.084012	0.338691	0.001665
C89	C	1.161597	0.281483	0.065373
C90	C	1.169445	0.329048	0.125165
C91	C	1.099709	0.433812	0.121248
C92	C	1.099695	0.433848	0.458038
C93	C	1.169445	0.329094	0.558870
C94	C	1.161622	0.281513	0.666236
C95	C	1.084042	0.338703	0.672768
C96	C	1.014294	0.443463	0.571937
C97	C	0.358692	1.428290	-0.375984
C98	C	0.288942	1.533075	-0.476816
C99	C	0.296765	1.580660	-0.584182
C100	C	0.374345	1.523464	-0.590714
C101	C	0.444093	1.418688	-0.489882
C102	C	0.444112	1.418687	0.084289
C103	C	0.374375	1.523472	0.080352
C104	C	0.296790	1.580684	0.016641
C105	C	0.288943	1.533114	-0.043146
C106	C	0.358678	1.428337	-0.039216
C107	C	0.677339	0.383570	0.520141
C108	C	0.677559	0.490466	0.412820
C109	C	0.818090	0.387169	0.527639
C110	C	0.817811	0.279825	0.634487
C111	C	0.692875	0.468878	0.629028
C112	C	0.691072	0.577551	0.520250
H113	H	0.702953	0.291106	0.202788
H114	H	0.352306	1.389553	-0.288571
H115	H	0.733472	1.105803	-0.465603
O116	O	0.221587	1.693677	0.012437
H117	H	0.184753	1.786153	-0.077996
O118	O	0.590851	0.618597	0.336021
H119	H	0.577197	0.639473	0.250552
H120	H	1.232608	0.282540	0.553532
H121	H	0.951134	0.490006	0.577273
O122	O	0.591364	0.439899	0.059361
H123	H	0.584806	0.436589	-0.014951
H124	H	0.380705	1.562221	-0.678143
O125	O	1.108145	0.485157	0.342244
H126	H	1.078403	0.595414	0.293576
H127	H	0.232616	0.658981	0.177043
O128	O	0.205272	1.594731	-0.469759
H129	H	0.211557	1.544009	-0.378159
O130	O	0.527765	1.357014	-0.496919
H131	H	0.561595	1.246297	-0.453698
H132	H	0.507280	1.372113	0.136177
H133	H	1.077685	0.299948	0.760199
O134	O	0.221533	1.693684	-0.692934
H135	H	0.166281	1.725448	-0.670341
O136	O	1.253128	0.267341	0.193875
H137	H	1.260227	0.222388	0.285484
O138	O	0.715740	1.145781	-0.653370
H139	H	0.665378	1.168842	-0.709579
H140	H	0.846288	0.718479	-0.272775
O141	O	0.747446	0.711014	-0.261364
H142	H	0.684244	0.766065	-0.314905
H143	H	0.599980	1.122328	-0.475076
O144	O	0.604313	0.707182	0.447257
H145	H	0.577803	0.744336	0.498889
O146	O	0.527762	0.707062	0.153030
H147	H	0.574948	0.721671	0.145716
O148	O	1.075531	0.287401	-0.062823
H149	H	1.105240	0.302672	-0.126763
H150	H	0.829991	0.947053	-0.547432
O151	O	1.236854	0.168508	0.774988
H152	H	1.292106	0.136737	0.752395
O153	O	0.382854	1.574750	0.144855
H154	H	0.353114	1.559518	0.208760
O155	O	0.742684	0.430443	0.735420
H156	H	0.716671	0.523282	0.731237
O157	O	0.382789	0.723426	0.144837
H158	H	0.448451	0.633494	0.189789
O159	O	0.856319	0.155269	0.636305
H160	H	0.874961	0.172123	0.561008
O161	O	0.590577	0.617905	0.058584
H162	H	0.548549	0.602806	0.033894
H163	H	0.225763	1.579712	-0.095019
O164	O	0.854072	0.918748	-0.365187
H165	H	0.869981	0.832862	-0.277863
O166	O	1.236811	0.168478	0.069604
H167	H	1.218310	0.145019	0.017331
H168	H	0.352276	1.389613	-0.087894
H169	H	0.611709	0.428205	0.514107
O170	O	0.859872	0.151710	0.217520
H171	H	0.817577	0.127287	0.239461
O172	O	0.867986	0.697437	-0.430060
H173	H	0.895849	0.744839	-0.430705
O174	O	0.871784	0.234048	0.741618
H175	H	0.871988	0.157112	0.818662
H176	H	0.702756	0.450157	0.360455
O177	O	0.710410	0.261088	0.520606
H178	H	0.763623	0.167993	0.601598
O179	O	0.108153	0.641652	0.185724
H180	H	0.173815	0.551720	0.230685
H181	H	1.106111	0.472517	0.169944
H182	H	0.858406	0.404874	0.557140
H183	H	0.847373	0.345308	0.477683
H184	H	0.628401	0.515716	0.629511
O185	O	-0.069385	1.155063	-0.070973
H186	H	-0.063117	1.236888	-0.111869
O187	O	0.747987	0.711336	-0.438538
H188	H	0.796200	0.619299	-0.432415
H189	H	0.724918	0.605864	0.547677
H190	H	0.951107	0.490028	-0.054136
O191	O	0.075590	1.138712	-0.062804
H192	H	0.009928	1.228641	-0.107785
H193	H	0.625651	0.518139	-0.128360
O194	O	0.710990	0.438087	0.232249
H195	H	0.727501	0.335470	0.292183
H196	H	0.726155	0.444145	-0.138897
H197	H	0.225767	1.203143	-0.095001
H198	H	0.611010	0.966115	-0.395615
O199	O	0.141801	1.125305	-0.056098
H200	H	0.134716	1.183010	-0.147701
O201	O	0.738706	0.610089	-0.156162
H202	H	0.803017	0.516736	-0.116658
O203	O	0.605437	0.708799	-0.143140
H204	H	0.589314	0.736547	-0.083001
O205	O	0.855319	0.330027	0.221685
H206	H	0.857450	0.404717	0.222572
O207	O	0.873058	0.408959	0.039821
H208	H	0.837711	0.518737	-0.032171
O209	O	0.602274	0.948281	-0.554057
H210	H	0.583702	0.918777	-0.478700
O211	O	0.869159	0.240364	0.030193
H212	H	0.831302	0.261263	-0.041930
H213	H	0.352301	1.188877	-0.087853
H214	H	0.296075	0.770520	0.121315
H215	H	0.599839	1.121169	-0.633292
