data_functionalizedCrystal
_audit_creation_method	'MofGen! by Chris Wilmer'
_symmetry_space_group_name_H-M	'P1'
_symmetry_Int_Tables_number	1
_symmetry_cell_setting	triclinic
loop_
_symmetry_equiv_pos_as_xyz
  x,y,z
_cell_length_a	10.967926
_cell_length_b	10.967829
_cell_length_c	14.048226
_cell_angle_alpha	77.865708
_cell_angle_beta	102.122801
_cell_angle_gamma	87.248880
loop_
_atom_site_label
_atom_site_type_symbol
_atom_site_fract_x
_atom_site_fract_y
_atom_site_fract_z
O1	O	1.657149	0.175009	0.163981
O2	O	1.294007	0.191768	0.101659
O3	O	1.483951	0.001808	0.163984
O4	O	1.467206	0.364969	0.101656
O5	O	1.483928	0.001797	0.322303
O6	O	1.293984	0.191757	0.259978
O7	O	1.657126	0.174998	0.322301
Zn8	Zn	1.475551	0.183375	0.316276
Zn9	Zn	1.475582	0.183390	0.107683
O10	O	1.467183	0.364957	0.259976
C11	C	1.247497	0.190544	0.173390
C12	C	1.108947	0.186898	0.151259
C13	C	1.047165	0.185267	0.223406
C14	C	0.903966	0.181499	0.200534
C15	C	1.482719	-0.044698	0.250570
C16	C	1.479069	-0.183255	0.272697
C17	C	1.477453	-0.245016	0.200547
C18	C	1.473680	-0.388222	0.223414
C19	C	1.703636	0.176222	0.250567
C20	C	1.842186	0.179867	0.272692
C21	C	1.468414	0.411463	0.173387
C22	C	1.472065	0.550020	0.151254
N23	N	1.475540	0.183364	0.458637
N24	N	1.475603	0.183392	-0.034674
C25	C	1.559674	0.099285	0.536051
C26	C	1.559682	0.099285	0.635710
C27	C	1.475562	0.183370	0.657953
C28	C	1.391419	0.267453	0.580529
C29	C	1.391405	0.267446	0.480872
C30	C	1.391455	0.267462	0.788248
C31	C	1.391470	0.267470	0.887912
C32	C	1.559732	0.099300	0.943086
C33	C	1.559718	0.099294	0.843429
C34	C	1.475576	0.183379	0.766012
H35	H	1.478858	-0.191872	0.121846
F36	F	1.471828	-0.457672	0.326287
H37	H	1.473460	-0.396841	0.072546
F38	F	1.649214	0.009794	0.512390
H39	H	1.477650	-0.236398	0.351395
H40	H	1.628189	0.030821	0.698742
H41	H	1.628221	0.030832	0.825321
H42	H	1.055827	0.185502	0.072559
F43	F	1.649282	0.009814	1.025481
F44	F	1.301935	0.356964	0.911575
H45	H	1.322893	0.335910	0.417840
H46	H	1.322933	0.335929	0.725216
H47	H	1.100286	0.186653	0.302108
F48	F	0.834546	0.179669	0.097661
H49	H	0.895301	0.181256	0.351399
F50	F	1.301884	0.356938	0.604202
