data_functionalizedCrystal
_audit_creation_method	'MofGen! by Chris Wilmer'
_symmetry_space_group_name_H-M	'P1'
_symmetry_Int_Tables_number	1
_symmetry_cell_setting	triclinic
loop_
_symmetry_equiv_pos_as_xyz
  x,y,z
_cell_length_a	19.288864
_cell_length_b	19.188930
_cell_length_c	18.366186
_cell_angle_alpha	89.993572
_cell_angle_beta	89.979684
_cell_angle_gamma	83.140512
loop_
_atom_site_label
_atom_site_type_symbol
_atom_site_fract_x
_atom_site_fract_y
_atom_site_fract_z
O1	O	0.921357	0.087094	-0.060791
O2	O	1.421357	0.587094	0.439209
O3	O	0.719097	0.098844	-0.060743
O4	O	1.219097	0.598844	0.439257
O5	O	0.826064	-0.008687	-0.060754
O6	O	1.326064	0.491313	0.439246
O7	O	0.814391	0.194625	-0.060780
O8	O	1.314391	0.694625	0.439220
O9	O	0.826050	-0.008683	0.060345
O10	O	1.326050	0.491317	0.560345
O11	O	0.719083	0.098848	0.060357
O12	O	1.219083	0.598848	0.560357
O13	O	0.921343	0.087099	0.060308
O14	O	1.421343	0.587099	0.560308
Zn15	Zn	0.820211	0.092974	0.079560
Zn16	Zn	1.320211	0.592974	0.579560
Zn17	Zn	0.820230	0.092968	-0.079994
Zn18	Zn	1.320230	0.592968	0.420006
O19	O	0.814377	0.194629	0.060320
O20	O	1.314377	0.694629	0.560320
C21	C	0.693214	0.098468	-0.000186
C22	C	1.193214	0.598468	0.499814
C23	C	0.616110	0.097333	-0.000167
C24	C	1.116110	0.597333	0.499833
C25	C	0.571419	0.160427	-0.000187
C26	C	1.071419	0.660427	0.499813
C27	C	0.498972	0.159361	-0.000195
C28	C	0.998972	0.659361	0.499805
C29	C	0.471219	0.095197	-0.000198
C30	C	0.971219	0.595197	0.499802
C31	C	0.515921	0.032095	-0.000174
C32	C	1.015921	0.532095	0.499826
C33	C	0.588366	0.033163	-0.000159
C34	C	1.088366	0.533163	0.499841
C35	C	0.362958	0.044756	-0.042642
C36	C	0.862958	0.544756	0.457358
C37	C	0.290514	0.043690	-0.042662
C38	C	0.790514	0.543690	0.457338
C39	C	0.247773	0.091900	-0.000241
C40	C	0.747773	0.591900	0.499759
C41	C	0.277485	0.141188	0.042190
C42	C	0.777485	0.641188	0.542190
C43	C	0.349930	0.142256	0.042205
C44	C	0.849930	0.642256	0.542205
C45	C	0.392665	0.094032	-0.000214
C46	C	0.892665	0.594032	0.499786
C47	C	0.124526	0.153843	-0.000268
C48	C	0.624526	0.653843	0.499732
C49	C	0.052078	0.152774	-0.000272
C50	C	0.552078	0.652774	0.499728
C51	C	0.069028	0.025506	-0.000259
C52	C	0.569028	0.525506	0.499741
C53	C	0.141475	0.026576	-0.000248
C54	C	0.641475	0.526576	0.499752
C55	C	0.169219	0.090747	-0.000256
C56	C	0.669219	0.590747	0.499744
C57	C	0.825679	-0.034696	-0.000202
C58	C	1.325679	0.465304	0.499798
C59	C	0.824544	-0.112200	-0.000196
C60	C	1.324544	0.387800	0.499804
C61	C	0.887309	-0.157129	-0.000207
C62	C	1.387309	0.342871	0.499793
C63	C	0.886243	-0.229953	-0.000219
C64	C	1.386243	0.270047	0.499781
C65	C	0.822408	-0.257844	-0.000204
C66	C	1.322408	0.242156	0.499796
C67	C	0.759636	-0.212906	-0.000196
C68	C	1.259636	0.287094	0.499804
C69	C	0.760704	-0.140084	-0.000192
C70	C	1.260704	0.359916	0.499808
N71	N	0.773610	-0.365844	0.041020
N72	N	1.273610	0.134156	0.541020
N73	N	0.772600	-0.435023	0.041018
N74	N	1.272600	0.064977	0.541018
C75	C	0.819187	-0.477253	-0.000218
C76	C	1.319187	0.022747	0.499782
N77	N	0.866833	-0.447692	-0.041442
N78	N	1.366833	0.052308	0.458558
N79	N	0.867846	-0.378508	-0.041436
N80	N	1.367846	0.121492	0.458564
C81	C	0.821243	-0.336807	-0.000209
C82	C	1.321243	0.163193	0.499791
C83	C	0.880800	-0.601146	-0.000243
C84	C	1.380800	-0.101146	0.499757
C85	C	0.879731	-0.673971	-0.000259
C86	C	1.379731	-0.173971	0.499741
C87	C	0.753122	-0.656922	-0.000229
C88	C	1.253122	-0.156922	0.499771
C89	C	0.754193	-0.584099	-0.000220
C90	C	1.254193	-0.084099	0.499780
C91	C	0.818034	-0.556216	-0.000224
C92	C	1.318034	-0.056216	0.499776
C93	C	0.947227	0.087475	-0.000250
C94	C	1.447227	0.587475	0.499750
C95	C	1.024330	0.088609	-0.000274
C96	C	1.524330	0.588609	0.499726
C97	C	0.814762	0.220638	-0.000234
C98	C	1.314762	0.720638	0.499766
C99	C	0.815896	0.298143	-0.000245
C100	C	1.315896	0.798143	0.499755
N101	N	0.820203	0.092977	0.188451
N102	N	1.320203	0.592977	0.688451
C103	C	0.862236	0.135196	0.772984
C104	C	1.362236	0.635196	1.272984
C105	C	0.862229	0.135203	0.696756
C106	C	1.362229	0.635203	1.196756
C107	C	0.820234	0.092964	0.658662
C108	C	1.320234	0.592964	1.158662
C109	C	0.778230	0.050729	0.696802
C110	C	1.278230	0.550729	1.196802
C111	C	0.778233	0.050729	0.773028
C112	C	1.278233	0.550729	1.273028
C113	C	0.818503	0.030013	0.537905
C114	C	1.318503	0.530013	1.037905
C115	C	0.818505	0.030012	0.461680
C116	C	1.318505	0.530012	0.961680
C117	C	0.820221	0.092965	0.423555
C118	C	1.320221	0.592965	0.923555
C119	C	0.821950	0.155920	0.461663
C120	C	1.321950	0.655920	0.961663
C121	C	0.821953	0.155920	0.537890
C122	C	1.321953	0.655920	1.037890
C123	C	0.820226	0.092960	0.576007
C124	C	1.320226	0.592960	1.076007
C125	C	0.862212	0.135208	0.302769
C126	C	1.362212	0.635208	0.802769
C127	C	0.862200	0.135216	0.226540
C128	C	1.362200	0.635216	0.726540
C129	C	0.778204	0.050736	0.226587
C130	C	1.278204	0.550736	0.726587
C131	C	0.778212	0.050734	0.302815
C132	C	1.278212	0.550734	0.802815
C133	C	0.820220	0.092969	0.340901
C134	C	1.320220	0.592969	0.840901
N135	N	0.820240	0.092964	0.811115
N136	N	1.320240	0.592964	1.311115
H137	H	0.374119	0.182385	0.076756
H138	H	0.874119	0.682385	0.576756
H139	H	0.177864	-0.024802	-0.000236
H140	H	0.677864	0.475198	0.499764
H141	H	0.744034	0.016338	0.804074
H142	H	1.244034	0.516338	1.304074
H143	H	0.896413	0.169601	0.333780
H144	H	1.396413	0.669601	0.833780
O145	O	0.003871	0.220831	-0.000285
O146	O	0.503871	0.720831	0.499715
H147	H	-0.029522	0.223382	-0.049644
H148	H	0.470478	0.723382	0.450356
H149	H	0.896427	0.169596	0.665704
H150	H	1.396427	0.669596	1.165704
O151	O	0.039108	-0.043703	-0.000262
O152	O	0.539108	0.456297	0.499738
H153	H	-0.018777	-0.033847	-0.000280
H154	H	0.481223	0.466153	0.499720
H155	H	0.939293	-0.134431	-0.000213
H156	H	1.439293	0.365569	0.499787
O157	O	0.823816	0.223815	0.578994
O158	O	1.323816	0.723815	1.078994
H159	H	0.777320	0.260968	0.564387
H160	H	1.277320	0.760968	1.064387
O161	O	0.231399	0.193189	0.087953
O162	O	0.731399	0.693189	0.587953
H163	H	0.176033	0.184162	0.080825
H164	H	0.676033	0.684162	0.580825
O165	O	0.947434	-0.722430	-0.000274
O166	O	1.447434	-0.222430	0.499726
H167	H	0.935968	-0.777754	-0.000286
H168	H	1.435968	-0.277754	0.499714
H169	H	0.147116	0.206094	-0.000264
H170	H	0.647116	0.706094	0.499736
H171	H	0.817103	-0.021250	0.430658
H172	H	1.317103	0.478750	0.930658
O173	O	0.823793	0.223827	0.420553
O174	O	1.323793	0.723827	0.920553
H175	H	0.871186	0.219875	0.385796
H176	H	1.371186	0.719875	0.885796
O177	O	0.907537	0.180756	0.814059
O178	O	1.407537	0.680756	1.314059
H179	H	0.944973	0.147187	0.848772
H180	H	1.444973	0.647187	1.348772
O181	O	0.686494	-0.535637	-0.000189
O182	O	1.186494	-0.035637	0.499811
H183	H	0.655933	-0.545522	-0.049536
H184	H	1.155933	-0.045522	0.450464
H185	H	0.701147	-0.679631	-0.000221
H186	H	1.201147	-0.179631	0.499779
O187	O	0.258469	-0.009473	-0.088414
O188	O	0.758469	0.490527	0.411586
H189	H	0.300360	-0.042830	-0.117895
H190	H	0.800360	0.457170	0.382105
O191	O	0.953940	-0.278426	-0.000221
O192	O	1.453940	0.221574	0.499779
H193	H	0.998511	-0.246802	-0.000217
H194	H	1.498511	0.253198	0.499783
H195	H	0.744018	0.016341	0.333861
H196	H	1.244018	0.516341	0.833861
H197	H	0.624755	-0.018218	-0.000144
H198	H	1.124755	0.481782	0.499856
H199	H	0.462577	0.210742	-0.000208
H200	H	0.962577	0.710742	0.499792
H201	H	0.397753	0.005496	-0.077191
H202	H	0.897753	0.505496	0.422809
O203	O	0.732923	0.005168	0.185502
O204	O	1.232923	0.505168	0.685502
H205	H	0.695494	0.038731	0.150775
H206	H	1.195494	0.538731	0.650775
H207	H	0.709591	-0.103502	-0.000183
H208	H	1.209591	0.396498	0.499817
O209	O	0.907493	0.180772	0.185407
O210	O	1.407493	0.680772	0.685407
H211	H	0.936705	0.210135	0.224700
H212	H	1.436705	0.710135	0.724700
H213	H	0.817099	-0.021253	0.568941
H214	H	1.317099	0.478747	1.068941
O215	O	0.732968	0.005135	0.655722
O216	O	1.232968	0.505135	1.155722
H217	H	0.740039	0.012212	0.596310
H218	H	1.240039	0.512212	1.096310
H219	H	0.493320	-0.020148	-0.000187
H220	H	0.993320	0.479852	0.499813
O221	O	0.601345	0.229636	-0.000175
O222	O	1.101345	0.729636	0.499825
H223	H	0.558092	0.273331	-0.000179
H224	H	1.058092	0.773331	0.499821
H225	H	0.707661	-0.235620	-0.000186
H226	H	1.207661	0.264380	0.499814
H227	H	0.932783	-0.578442	-0.000249
H228	H	1.432783	-0.078442	0.499751
