data_functionalizedCrystal
_audit_creation_method	'MofGen! by Chris Wilmer'
_symmetry_space_group_name_H-M	'P1'
_symmetry_Int_Tables_number	1
_symmetry_cell_setting	triclinic
loop_
_symmetry_equiv_pos_as_xyz
  x,y,z
_cell_length_a	11.792241
_cell_length_b	17.699083
_cell_length_c	16.776229
_cell_angle_alpha	90.005210
_cell_angle_beta	90.000544
_cell_angle_gamma	83.738215
loop_
_atom_site_label
_atom_site_type_symbol
_atom_site_fract_x
_atom_site_fract_y
_atom_site_fract_z
O1	O	-1.505666	-0.103724	0.066213
O2	O	-1.175197	-0.114415	0.066231
O3	O	-1.349768	0.001070	0.066214
O4	O	-1.331095	-0.219209	0.066229
O5	O	-1.349752	0.001049	-0.066362
O6	O	-1.175181	-0.114436	-0.066345
O7	O	-1.505650	-0.103744	-0.066364
Zn8	Zn	-1.340413	-0.109093	-0.087404
Zn9	Zn	-1.340434	-0.109067	0.087271
O10	O	-1.331079	-0.219229	-0.066347
C11	C	-1.132906	-0.113754	-0.000055
C12	C	-1.006916	-0.111744	-0.000048
C13	C	-1.349091	0.029260	-0.000074
C14	C	-1.347083	0.113289	-0.000074
C15	C	-1.547941	-0.104406	-0.000076
C16	C	-1.673930	-0.106416	-0.000078
C17	C	-0.776248	-0.108048	-0.000071
C18	C	-0.904609	-0.110101	-0.000058
C19	C	-1.331756	-0.247420	-0.000057
C20	C	-1.333763	-0.331449	-0.000051
N21	N	-1.340406	-0.109111	-0.206615
C22	C	-1.449553	0.161364	-0.000081
C23	C	-1.447660	0.240317	-0.000074
C24	C	-1.343297	0.271194	-0.000066
C25	C	-1.240819	0.223113	-0.000056
C26	C	-1.242713	0.144161	-0.000058
C27	C	-1.233178	0.541517	-0.000049
C28	C	-1.231292	0.620475	-0.000050
C29	C	-1.438126	0.637673	-0.000066
C30	C	-1.440020	0.558721	-0.000067
C31	C	-1.337543	0.510647	-0.000054
C32	C	-1.339596	0.425037	-0.000060
C33	C	-1.341242	0.356803	-0.000065
C34	C	-1.271743	-0.062836	-0.751786
C35	C	-1.271740	-0.062842	-0.668334
C36	C	-1.340439	-0.109060	-0.626615
C37	C	-1.409153	-0.155269	-0.668352
C38	C	-1.409161	-0.155258	-0.751802
C39	C	-1.409123	-0.155313	-0.331804
C40	C	-1.409107	-0.155322	-0.248348
C41	C	-1.271703	-0.062898	-0.248336
C42	C	-1.271711	-0.062887	-0.331787
C43	C	-1.340429	-0.109092	-0.373517
C44	C	-1.340433	-0.109084	-0.464005
C45	C	-1.340430	-0.109073	-0.536128
N46	N	-1.340449	-0.109043	0.206483
H47	H	-1.534538	0.136230	-0.000093
H48	H	-1.465094	-0.192897	-0.634377
H49	H	-1.149735	0.502384	-0.000039
Br50	Br	-1.178455	-0.000154	-0.611701
H51	H	-1.155844	0.248259	-0.000044
H52	H	-1.531101	0.279457	-0.000081
H53	H	-1.215795	-0.025204	-0.785748
Br54	Br	-1.103642	0.078915	-0.000042
Br55	Br	-1.581661	0.516820	-0.000078
Br56	Br	-1.178466	-0.000166	-0.388402
H57	H	-1.215752	-0.025273	-0.214350
Br58	Br	-1.577205	0.702920	-0.000084
H59	H	-1.465053	-0.192961	-0.214382
H60	H	-1.465077	-0.192937	-0.365771
Br61	Br	-1.089646	0.662379	-0.000040
H62	H	-1.465109	-0.192884	-0.785779
