data_functionalizedCrystal
_audit_creation_method	'MofGen! by Chris Wilmer'
_symmetry_space_group_name_H-M	'P1'
_symmetry_Int_Tables_number	1
_symmetry_cell_setting	triclinic
loop_
_symmetry_equiv_pos_as_xyz
  x,y,z
_cell_length_a	10.654550
_cell_length_b	11.792241
_cell_length_c	9.730223
_cell_angle_alpha	89.998500
_cell_angle_beta	89.996251
_cell_angle_gamma	84.339159
loop_
_atom_site_label
_atom_site_type_symbol
_atom_site_fract_x
_atom_site_fract_y
_atom_site_fract_z
O1	O	1.667383	0.159415	-0.114404
O2	O	1.301862	0.174603	-0.114382
O3	O	1.493493	0.001859	-0.114383
O4	O	1.475752	0.332159	-0.114402
O5	O	1.493490	0.001863	0.114196
O6	O	1.301859	0.174608	0.114198
O7	O	1.667381	0.159419	0.114176
Zn8	Zn	1.484620	0.167014	0.150479
Zn9	Zn	1.484623	0.167008	-0.150685
O10	O	1.475750	0.332163	0.114178
C11	C	1.255066	0.173490	-0.000089
C12	C	1.115632	0.170154	-0.000080
C13	C	1.035858	0.271863	-0.000106
C14	C	0.904847	0.268721	-0.000129
C15	C	0.933394	0.062152	-0.000107
C16	C	1.064404	0.065295	-0.000074
C17	C	1.019376	0.391124	-0.000124
C18	C	0.888364	0.387982	-0.000148
C19	C	1.492377	-0.040432	-0.000094
C20	C	1.489042	-0.166454	-0.000095
C21	C	1.482908	-0.397180	-0.000118
C22	C	1.486316	-0.268787	-0.000105
C23	C	1.714177	0.160532	-0.000120
C24	C	1.853611	0.163869	-0.000137
C25	C	1.476865	0.374455	-0.000114
C26	C	1.480201	0.500476	-0.000122
N27	N	1.484627	0.167017	0.356016
N28	N	1.484625	0.166996	-0.356221
C29	C	1.569503	0.090552	0.427941
C30	C	1.569500	0.090539	0.571824
C31	C	1.399740	0.243465	0.571844
C32	C	1.399739	0.243472	0.427963
C33	C	1.667516	0.002265	0.427931
C34	C	1.667513	0.002251	0.571814
H35	H	1.330615	0.305726	0.369403
C36	C	1.626620	-0.109128	0.632093
C37	C	1.702637	-0.223744	0.598856
C38	C	1.661744	-0.335122	0.659129
C39	C	1.544834	-0.331883	0.752640
C40	C	1.468810	-0.217262	0.785882
C41	C	1.509703	-0.105884	0.725609
H42	H	1.789187	-0.226146	0.529629
H43	H	1.718023	-0.419972	0.634521
H44	H	1.514563	-0.414331	0.797258
H45	H	1.382260	-0.214860	0.855109
H46	H	1.453424	-0.021034	0.750217
C47	C	1.797805	0.028529	0.624587
C48	C	1.916434	-0.050468	0.586355
C49	C	2.046717	-0.024187	0.639134
C50	C	2.058371	0.081093	0.730145
C51	C	1.939739	0.160098	0.768381
C52	C	1.809456	0.133816	0.715602
H53	H	1.907810	-0.128409	0.518979
H54	H	2.134536	-0.082672	0.610829
H55	H	2.154815	0.100548	0.769215
H56	H	1.948363	0.238038	0.835757
H57	H	1.721637	0.192301	0.743908
H58	H	1.758622	0.029909	0.383297
H59	H	1.048574	0.437768	0.095539
C60	C	1.306372	0.327567	0.650989
C61	C	1.306582	0.327761	0.809251
C62	C	1.213212	0.411866	0.888392
C63	C	1.119632	0.495779	0.809270
C64	C	1.119417	0.495588	0.650999
C65	C	1.212787	0.411482	0.571858
H66	H	1.375860	0.265641	0.867829
H67	H	1.213371	0.412007	1.005555
H68	H	1.050513	0.558039	0.867855
H69	H	1.050140	0.557708	0.592421
H70	H	1.212628	0.411342	0.454695
C71	C	1.152153	-0.046588	-0.000028
C72	C	1.246104	-0.072822	0.118701
C73	C	1.333852	-0.184711	0.118751
C74	C	1.327649	-0.270367	0.000070
C75	C	1.233695	-0.244135	-0.118669
C76	C	1.145946	-0.132246	-0.118718
H77	H	1.250698	-0.009412	0.206564
H78	H	1.403403	-0.204129	0.206649
H79	H	1.392606	-0.353194	0.000106
H80	H	1.229100	-0.307545	-0.206531
H81	H	1.076395	-0.112829	-0.206616
C82	C	0.877038	-0.053188	-0.000109
C83	C	0.790868	-0.083749	0.118569
C84	C	0.734515	-0.199091	0.118565
C85	C	0.764333	-0.283873	-0.000117
C86	C	0.850507	-0.253314	-0.118804
C87	C	0.906860	-0.137972	-0.118801
H88	H	0.768792	-0.020986	0.206433
H89	H	0.670723	-0.221712	0.206426
H90	H	0.722617	-0.369256	-0.000120
H91	H	0.872584	-0.316076	-0.206668
H92	H	0.970652	-0.115351	-0.206661
H93	H	1.054925	0.429097	-0.098814
C94	C	1.638874	-0.115584	0.375165
C95	C	1.735459	-0.186442	0.284170
C96	C	1.706816	-0.304287	0.231405
C97	C	1.581587	-0.351274	0.269635
C98	C	1.484994	-0.280416	0.360635
C99	C	1.513637	-0.162571	0.413400
H100	H	1.828168	-0.151660	0.255866
H101	H	1.778322	-0.356741	0.164041
H102	H	1.560384	-0.438510	0.230575
H103	H	1.392285	-0.315198	0.388939
H104	H	1.442131	-0.110117	0.480764
H105	H	0.842589	0.424026	0.098534
H106	H	0.846505	0.432916	-0.095818
