data_functionalizedCrystal
_audit_creation_method	'MofGen! by Chris Wilmer'
_symmetry_space_group_name_H-M	'P1'
_symmetry_Int_Tables_number	1
_symmetry_cell_setting	triclinic
loop_
_symmetry_equiv_pos_as_xyz
  x,y,z
_cell_length_a	25.639243
_cell_length_b	25.639239
_cell_length_c	25.639233
_cell_angle_alpha	90.019301
_cell_angle_beta	90.015962
_cell_angle_gamma	90.042008
loop_
_atom_site_label
_atom_site_type_symbol
_atom_site_fract_x
_atom_site_fract_y
_atom_site_fract_z
Zn1	Zn	0.799223	-0.208176	0.295654
Zn2	Zn	1.299223	0.291824	0.795654
Zn3	Zn	0.799145	-0.295595	0.208217
Zn4	Zn	1.299145	0.204405	0.708217
Zn5	Zn	0.711799	-0.208180	0.208227
Zn6	Zn	1.211799	0.291820	0.708227
Zn7	Zn	0.711743	-0.295587	0.295617
Zn8	Zn	1.211743	0.204413	0.795617
O9	O	0.755478	-0.251885	0.251929
O10	O	1.255478	0.248115	0.751929
O11	O	0.872378	-0.219775	0.284066
O12	O	1.372378	0.280225	0.784066
O13	O	0.787550	-0.284004	0.135053
O14	O	1.287550	0.215996	0.635053
O15	O	0.723452	-0.135014	0.219844
O16	O	1.223452	0.364986	0.719844
O17	O	0.872321	-0.284001	0.219827
O18	O	1.372321	0.215999	0.719827
O19	O	0.787682	-0.135012	0.284076
O20	O	1.287682	0.364988	0.784076
O21	O	0.723377	-0.219781	0.135061
O22	O	1.223377	0.280219	0.635061
O23	O	0.638627	-0.219772	0.219808
O24	O	1.138627	0.280228	0.719808
O25	O	0.723357	-0.283987	0.368787
O26	O	1.223357	0.216013	0.868787
O27	O	0.638586	-0.283990	0.284013
O28	O	1.138586	0.216010	0.784013
O29	O	0.787628	-0.219767	0.368814
O30	O	1.287628	0.280233	0.868814
O31	O	0.787496	-0.368759	0.219791
O32	O	1.287496	0.131241	0.719791
O33	O	0.723282	-0.368753	0.284003
O34	O	1.223282	0.131247	0.784003
C35	C	0.755388	-0.387727	0.251903
C36	C	1.255388	0.112273	0.751903
C37	C	0.755398	-0.445841	0.251910
C38	C	1.255398	0.054159	0.751910
C39	C	0.619635	-0.251881	0.251908
C40	C	1.119635	0.248119	0.751908
C41	C	0.561521	-0.251892	0.251911
C42	C	1.061521	0.248108	0.751911
C43	C	0.722035	-0.697044	0.285353
C44	C	1.222035	-0.197044	0.785353
C45	C	0.722016	-0.642440	0.285347
C46	C	1.222016	-0.142440	0.785347
O47	O	0.693564	-0.614211	0.313764
O48	O	1.193564	-0.114211	0.813764
N49	N	0.755464	-0.615115	0.251937
N50	N	1.255464	-0.115115	0.751937
C51	C	0.788937	-0.642398	0.218535
C52	C	1.288937	-0.142398	0.718535
O53	O	0.817386	-0.614142	0.190118
O54	O	1.317386	-0.114142	0.690118
C55	C	0.788959	-0.697001	0.218545
C56	C	1.288959	-0.197001	0.718545
C57	C	0.755505	-0.724323	0.251953
C58	C	1.255505	-0.224323	0.751953
C59	C	0.688584	-0.724366	0.318759
C60	C	1.188584	-0.224366	0.818759
C61	C	0.688603	-0.778966	0.318764
C62	C	1.188603	-0.278966	0.818764
C63	C	0.722073	-0.806245	0.285364
C64	C	1.222073	-0.306245	0.785364
C65	C	0.755524	-0.778923	0.251958
C66	C	1.255524	-0.278923	0.751958
C67	C	0.822434	-0.724283	0.185145
C68	C	1.322434	-0.224283	0.685145
C69	C	0.822453	-0.778890	0.185158
C70	C	1.322453	-0.278890	0.685158
C71	C	0.788999	-0.806211	0.218566
C72	C	1.288999	-0.306211	0.718566
C73	C	0.789012	-0.860803	0.218563
C74	C	1.289012	-0.360803	0.718563
N75	N	0.755564	-0.888127	0.251972
N76	N	1.255564	-0.388127	0.751972
C77	C	0.722094	-0.860848	0.285373
C78	C	1.222094	-0.360848	0.785373
C79	C	0.788890	-0.527727	0.218519
C80	C	1.288890	-0.027727	0.718519
C81	C	0.788866	-0.473125	0.218507
C82	C	1.288866	0.026875	0.718507
C83	C	0.721945	-0.473170	0.285320
C84	C	1.221945	0.026830	0.785320
C85	C	0.721967	-0.527774	0.285329
C86	C	1.221967	-0.027774	0.785329
C87	C	0.755442	-0.555052	0.251929
C88	C	1.255442	-0.055052	0.751929
C89	C	0.722136	-0.975513	0.285381
C90	C	1.222136	-0.475513	0.785381
C91	C	0.722156	-1.030119	0.285382
C92	C	1.222156	-0.530119	0.785382
C93	C	0.789079	-1.030068	0.218571
C94	C	1.289079	-0.530068	0.718571
C95	C	0.789057	-0.975468	0.218568
C96	C	1.289057	-0.475468	0.718568
C97	C	0.755584	-0.948191	0.251977
C98	C	1.255584	-0.448191	0.751977
O99	O	0.817451	-0.889066	0.190162
O100	O	1.317451	-0.389066	0.690162
O101	O	0.693655	-0.889110	0.313791
O102	O	1.193655	-0.389110	0.813791
C103	C	0.201182	-0.218495	0.285434
C104	C	0.701182	0.281505	0.785434
C105	C	0.146578	-0.218494	0.285437
C106	C	0.646578	0.281506	0.785437
O107	O	0.118361	-0.190088	0.313913
O108	O	0.618361	0.309912	0.813913
N109	N	0.119239	-0.251883	0.251943
N110	N	0.619239	0.248117	0.751943
C111	C	0.146507	-0.285271	0.218440
C112	C	0.646507	0.214729	0.718440
O113	O	0.118239	-0.313670	0.189951
O114	O	0.618239	0.186330	0.689951
C115	C	0.201110	-0.285268	0.218434
C116	C	0.701110	0.214732	0.718434
C117	C	0.228446	-0.251881	0.251934
C118	C	0.728446	0.248119	0.751934
C119	C	0.228518	-0.185109	0.318931
C120	C	0.728518	0.314891	0.818931
C121	C	0.283119	-0.185111	0.318928
C122	C	0.783119	0.314889	0.818928
C123	C	0.310383	-0.218497	0.285428
C124	C	0.810383	0.281503	0.785428
C125	C	0.283047	-0.251882	0.251932
C126	C	0.783047	0.248118	0.751932
C127	C	0.228377	-0.318653	0.184929
C128	C	0.728377	0.181347	0.684929
C129	C	0.282984	-0.318647	0.184926
C130	C	0.782984	0.181353	0.684926
C131	C	0.310320	-0.285260	0.218426
C132	C	0.810320	0.214740	0.718426
C133	C	0.364912	-0.285270	0.218429
C134	C	0.864912	0.214730	0.718429
N135	N	0.392251	-0.251881	0.251923
N136	N	0.892251	0.248119	0.751923
C137	C	0.364987	-0.218494	0.285423
C138	C	0.864987	0.281506	0.785423
C139	C	0.031836	-0.285273	0.218453
C140	C	0.531836	0.214727	0.718453
C141	C	-0.022766	-0.285279	0.218461
C142	C	0.477234	0.214721	0.718461
C143	C	-0.022691	-0.218501	0.285458
C144	C	0.477309	0.281499	0.785458
C145	C	0.031912	-0.218499	0.285452
C146	C	0.531912	0.281501	0.785452
C147	C	0.059175	-0.251884	0.251947
C148	C	0.559175	0.248116	0.751947
C149	C	0.479652	-0.218500	0.285415
C150	C	0.979652	0.281500	0.785415
C151	C	0.534257	-0.218506	0.285411
C152	C	1.034257	0.281494	0.785411
C153	C	0.534177	-0.285281	0.218413
C154	C	1.034177	0.214719	0.718413
C155	C	0.479577	-0.285278	0.218418
C156	C	0.979577	0.214722	0.718418
C157	C	0.452315	-0.251883	0.251921
C158	C	0.952315	0.248117	0.751921
O159	O	0.393163	-0.313659	0.189966
O160	O	0.893163	0.186341	0.689966
O161	O	0.393261	-0.190095	0.313903
O162	O	0.893261	0.309905	0.813903
C163	C	0.891851	-0.251888	0.251950
C164	C	1.391851	0.248112	0.751950
C165	C	0.949965	-0.251890	0.251959
C166	C	1.449965	0.248110	0.751959
C167	C	0.755495	-0.251875	0.388302
C168	C	1.255495	0.248125	0.888302
C169	C	0.755502	-0.251871	0.446416
C170	C	1.255502	0.248129	0.946416
C171	C	0.755582	-0.115512	0.251965
C172	C	1.255582	0.384488	0.751965
C173	C	0.755626	-0.057397	0.251981
C174	C	1.255626	0.442603	0.751981
C175	C	0.755491	-0.251856	0.116086
C176	C	1.255491	0.248144	0.616086
C177	C	0.755585	-0.251713	0.057972
C178	C	1.255585	0.248287	0.557972
C179	C	0.789010	-0.218333	0.806799
C180	C	1.289010	0.281667	1.306799
C181	C	0.789016	-0.218318	0.861403
C182	C	1.289016	0.281682	1.361403
O183	O	0.817464	-0.189864	0.889657
O184	O	1.317464	0.310136	1.389657
N185	N	0.755559	-0.251749	0.888698
N186	N	1.255559	0.248251	1.388698
C187	C	0.722090	-0.285192	0.861387
C188	C	1.222090	0.214808	1.361387
O189	O	0.693632	-0.313626	0.889617
O190	O	1.193632	0.186374	1.389617
C191	C	0.722081	-0.285204	0.806783
C192	C	1.222081	0.214796	1.306783
C193	C	0.755544	-0.251775	0.779491
C194	C	1.255544	0.248225	1.279491
C195	C	0.822470	-0.184906	0.779506
C196	C	1.322470	0.315094	1.279506
C197	C	0.822464	-0.184921	0.724906
C198	C	1.322464	0.315079	1.224906
C199	C	0.788998	-0.218363	0.697598
C200	C	1.288998	0.281637	1.197598
C201	C	0.755538	-0.251790	0.724890
C202	C	1.255538	0.248210	1.224890
C203	C	0.688610	-0.318644	0.779472
C204	C	1.188610	0.181356	1.279472
C205	C	0.688603	-0.318653	0.724865
C206	C	1.188603	0.181347	1.224865
C207	C	0.722066	-0.285224	0.697573
C208	C	1.222066	0.214776	1.197573
C209	C	0.722067	-0.285247	0.642982
C210	C	1.222067	0.214753	1.142982
N211	N	0.755524	-0.251817	0.615686
N212	N	1.255524	0.248183	1.115686
C213	C	0.788990	-0.218375	0.642994
C214	C	1.288990	0.281625	1.142994
C215	C	0.722110	-0.285165	0.976057
C216	C	1.222110	0.214835	1.476057
C217	C	0.722121	-0.285157	1.030660
C218	C	1.222121	0.214843	1.530660
C219	C	0.789047	-0.218282	1.030672
C220	C	1.289047	0.281718	1.530672
C221	C	0.789038	-0.218293	0.976069
C222	C	1.289038	0.281707	1.476069
C223	C	0.755567	-0.251735	0.948762
C224	C	1.255567	0.248265	1.448762
C225	C	0.788975	-0.218410	0.528329
C226	C	1.288975	0.281590	1.028329
C227	C	0.788968	-0.218429	0.473724
C228	C	1.288968	0.281571	0.973724
C229	C	0.722040	-0.285302	0.473716
C230	C	1.222040	0.214698	0.973716
C231	C	0.722049	-0.285285	0.528316
C232	C	1.222049	0.214715	1.028316
C233	C	0.755518	-0.251834	0.555622
C234	C	1.255518	0.248166	1.055622
O235	O	0.693632	-0.313686	0.614693
O236	O	1.193632	0.186314	1.114693
O237	O	0.817437	-0.189941	0.614757
O238	O	1.317437	0.310059	1.114757
H239	H	0.694880	-0.953311	0.312586
H240	H	1.194880	-0.453311	0.812586
H241	H	0.661330	-0.702160	0.345960
H242	H	1.161330	-0.202160	0.845960
C243	C	0.825321	-0.557354	0.182349
C244	C	1.325321	-0.057354	0.682349
C245	C	0.858838	-0.588622	0.212004
C246	C	1.358838	-0.088622	0.712004
C247	C	0.892422	-0.615907	0.178710
C248	C	1.392422	-0.115907	0.678710
H249	H	0.805432	-0.578740	0.159527
H250	H	1.305432	-0.078740	0.659527
H251	H	0.845265	-0.533261	0.162475
H252	H	1.345265	-0.033261	0.662475
H253	H	0.838896	-0.612712	0.231870
H254	H	1.338896	-0.112712	0.731870
H255	H	0.878738	-0.567249	0.234825
H256	H	1.378738	-0.067249	0.734825
H257	H	0.912366	-0.591814	0.158835
H258	H	1.412366	-0.091814	0.658835
H259	H	0.872528	-0.637290	0.155890
H260	H	1.372528	-0.137290	0.655890
H261	H	0.915169	-0.637122	0.198826
H262	H	1.415169	-0.137122	0.698826
H263	H	0.816293	-0.953222	0.191359
H264	H	1.316293	-0.453222	0.691359
H265	H	0.556512	-0.191317	0.312692
H266	H	1.056512	0.308683	0.812692
C267	C	0.652199	-0.354879	0.695194
C268	C	1.152199	0.145121	1.195194
C269	C	0.618694	-0.325287	0.663852
C270	C	1.118694	0.174713	1.163852
C271	C	0.585148	-0.358643	0.636521
C272	C	1.085148	0.141357	1.136521
H273	H	0.672116	-0.377680	0.673854
H274	H	1.172116	0.122320	1.173854
H275	H	0.632245	-0.374774	0.719259
H276	H	1.132245	0.125226	1.219259
H277	H	0.638646	-0.305401	0.639791
H278	H	1.138646	0.194599	1.139791
H279	H	0.598765	-0.302488	0.685180
H280	H	1.098765	0.197512	1.185180
H281	H	0.565194	-0.378537	0.660585
H282	H	1.065194	0.121463	1.160585
H283	H	0.605070	-0.381442	0.615183
H284	H	1.105070	0.118558	1.115183
H285	H	0.562408	-0.338569	0.615256
H286	H	1.062408	0.161431	1.115256
H287	H	-0.044900	-0.191315	0.312733
H288	H	0.455100	0.308685	0.812733
C289	C	0.563759	-0.321615	0.182108
C290	C	1.063759	0.178385	0.682108
C291	C	0.550459	-0.373366	0.193403
C292	C	1.050459	0.126634	0.693403
C293	C	0.577706	-0.406848	0.159973
C294	C	1.077706	0.093152	0.659973
H295	H	0.554829	-0.313979	0.146974
H296	H	1.054829	0.186021	0.646974
H297	H	0.600198	-0.316864	0.186912
H298	H	1.100198	0.183136	0.686912
H299	H	0.514028	-0.378114	0.188596
H300	H	1.014028	0.121886	0.688596
H301	H	0.559390	-0.381018	0.228532
H302	H	1.059390	0.118982	0.728532
H303	H	0.614145	-0.402097	0.164776
H304	H	1.114145	0.097903	0.664776
H305	H	0.568775	-0.399208	0.124840
H306	H	1.068775	0.100792	0.624840
H307	H	0.568690	-0.441965	0.167635
H308	H	1.068690	0.058035	0.667635
H309	H	-0.045019	-0.312472	0.191188
H310	H	0.454981	0.187528	0.691188
C311	C	0.825383	-1.059786	0.182353
C312	C	1.325383	-0.559786	0.682353
C313	C	0.818240	-1.113452	0.189517
C314	C	1.318240	-0.613452	0.689517
C315	C	0.851675	-1.140845	0.156163
C316	C	1.351675	-0.640845	0.656163
H317	H	0.817776	-1.050921	0.147197
H318	H	1.317776	-0.550921	0.647197
H319	H	0.860520	-1.050835	0.190032
H320	H	1.360520	-0.550835	0.690032
H321	H	0.783110	-1.122400	0.181835
H322	H	1.283110	-0.622400	0.681835
H323	H	0.825851	-1.122332	0.224667
H324	H	1.325851	-0.622332	0.724667
H325	H	0.886812	-1.131894	0.163842
H326	H	1.386812	-0.631894	0.663842
H327	H	0.844065	-1.131976	0.121009
H328	H	1.344065	-0.631976	0.621009
H329	H	0.846837	-1.177260	0.161023
H330	H	1.346837	-0.677260	0.661023
H331	H	0.694806	-0.312510	0.550539
H332	H	1.194806	0.187490	1.050539
H333	H	0.694729	-0.550015	0.312536
H334	H	1.194729	-0.050015	0.812536
H335	H	0.816286	-0.191071	0.953851
H336	H	1.316286	0.308929	1.453851
C337	C	0.450032	-0.182181	0.321706
C338	C	0.950032	0.317819	0.821706
C339	C	0.418708	-0.148610	0.292173
C340	C	0.918708	0.351390	0.792173
C341	C	0.391420	-0.115145	0.325588
C342	C	0.891420	0.384855	0.825588
H343	H	0.428682	-0.202154	0.344463
H344	H	0.928682	0.297846	0.844463
H345	H	0.474122	-0.162272	0.341644
H346	H	0.974122	0.337728	0.841644
H347	H	0.394620	-0.168518	0.272243
H348	H	0.894620	0.331482	0.772243
H349	H	0.440044	-0.128626	0.269416
H350	H	0.940044	0.371374	0.769416
H351	H	0.415511	-0.095235	0.345526
H352	H	0.915511	0.404765	0.845526
H353	H	0.370074	-0.135123	0.348344
H354	H	0.870074	0.364877	0.848344
H355	H	0.370168	-0.092360	0.305554
H356	H	0.870168	0.407640	0.805554
C357	C	0.061340	-0.321587	0.182060
C358	C	0.561340	0.178413	0.682060
C359	C	0.025705	-0.350835	0.152743
C360	C	0.525705	0.149165	0.652743
C361	C	0.052861	-0.384297	0.119218
C362	C	0.552861	0.115703	0.619218
H363	H	0.082649	-0.301615	0.159264
H364	H	0.582649	0.198385	0.659264
H365	H	0.082619	-0.344426	0.202006
H366	H	0.582619	0.155574	0.702006
H367	H	0.004434	-0.327999	0.132799
H368	H	0.504434	0.172001	0.632799
H369	H	0.004395	-0.370818	0.175525
H370	H	0.504395	0.129182	0.675525
H371	H	0.074140	-0.407136	0.139164
H372	H	0.574140	0.092864	0.639164
H373	H	0.074169	-0.364321	0.096425
H374	H	0.574169	0.135679	0.596425
H375	H	0.028687	-0.404149	0.099326
H376	H	0.528687	0.095851	0.599326
C377	C	0.198801	-0.354919	0.148495
C378	C	0.698801	0.145081	0.648495
C379	C	0.234376	-0.384139	0.119148
C380	C	0.734376	0.115861	0.619148
C381	C	0.207151	-0.417548	0.085572
C382	C	0.707151	0.082452	0.585572
H383	H	0.177487	-0.377782	0.168388
H384	H	0.677487	0.122218	0.668388
H385	H	0.177521	-0.334894	0.125723
H386	H	0.677521	0.165106	0.625723
H387	H	0.255647	-0.404162	0.141917
H388	H	0.755647	0.095838	0.641917
H389	H	0.255691	-0.361290	0.099244
H390	H	0.755691	0.138710	0.599244
H391	H	0.185871	-0.397523	0.062800
H392	H	0.685871	0.102477	0.562800
H393	H	0.185838	-0.440408	0.105469
H394	H	0.685838	0.059592	0.605469
H395	H	0.231284	-0.437374	0.065653
H396	H	0.731284	0.062626	0.565653
H397	H	0.849675	-0.702045	0.157942
H398	H	1.349675	-0.202045	0.657942
C399	C	0.312651	-0.354928	0.148635
C400	C	0.812651	0.145072	0.648635
C401	C	0.343993	-0.388477	0.178173
C402	C	0.843993	0.111523	0.678173
C403	C	0.371333	-0.421902	0.144761
C404	C	0.871333	0.078098	0.644761
H405	H	0.288607	-0.374861	0.128674
H406	H	0.788607	0.125139	0.628674
H407	H	0.333989	-0.334908	0.125897
H408	H	0.833989	0.165092	0.625897
H409	H	0.322656	-0.408495	0.200901
H410	H	0.822656	0.091505	0.700901
H411	H	0.368046	-0.368559	0.198132
H412	H	0.868046	0.131441	0.698132
H413	H	0.392672	-0.401882	0.122024
H414	H	0.892672	0.098118	0.622024
H415	H	0.347286	-0.441831	0.124802
H416	H	0.847286	0.058169	0.624802
H417	H	0.392606	-0.444666	0.164798
H418	H	0.892606	0.055334	0.664798
C419	C	0.685522	-0.443574	0.321523
C420	C	1.185522	0.056426	0.821523
C421	C	0.633801	-0.456903	0.310086
C422	C	1.133801	0.043097	0.810086
C423	C	0.600235	-0.429642	0.343419
C424	C	1.100235	0.070358	0.843419
H425	H	0.693085	-0.452473	0.356680
H426	H	1.193085	0.047527	0.856680
H427	H	0.690269	-0.407137	0.316727
H428	H	1.190269	0.092863	0.816727
H429	H	0.629056	-0.493331	0.314887
H430	H	1.129056	0.006669	0.814887
H431	H	0.626221	-0.448002	0.274936
H432	H	1.126221	0.051998	0.774936
H433	H	0.604983	-0.393205	0.338623
H434	H	1.104983	0.106795	0.838623
H435	H	0.607803	-0.438544	0.378574
H436	H	1.107803	0.061456	0.878574
H437	H	0.565139	-0.438678	0.335660
H438	H	1.065139	0.061322	0.835660
C439	C	0.449829	-0.321445	0.182020
C440	C	0.949829	0.178555	0.682020
C441	C	0.418487	-0.291790	0.148569
C442	C	0.918487	0.208210	0.648569
C443	C	0.391076	-0.325086	0.115032
C444	C	0.891076	0.174914	0.615032
H445	H	0.473830	-0.341341	0.162021
H446	H	0.973830	0.158659	0.662021
H447	H	0.428484	-0.344247	0.201962
H448	H	0.928484	0.155753	0.701962
H449	H	0.439829	-0.268996	0.128629
H450	H	0.939829	0.231004	0.628629
H451	H	0.394476	-0.271895	0.168554
H452	H	0.894476	0.228105	0.668554
H453	H	0.369731	-0.347888	0.134974
H454	H	0.869731	0.152112	0.634974
H455	H	0.415081	-0.344980	0.095037
H456	H	0.915081	0.155020	0.595037
H457	H	0.369803	-0.304970	0.092335
H458	H	0.869803	0.195030	0.592335
H459	H	0.661361	-0.801207	0.345968
H460	H	1.161361	-0.301207	0.845968
H461	H	0.816219	-0.191207	0.451505
H462	H	1.316219	0.308793	0.951505
H463	H	0.816296	-0.191050	1.052917
H464	H	1.316296	0.308950	1.552917
C465	C	0.858784	-0.808599	0.148956
C466	C	1.358784	-0.308599	0.648956
C467	C	0.851657	-0.862267	0.156120
C468	C	1.351657	-0.362267	0.656120
C469	C	0.885123	-0.889650	0.122787
C470	C	1.385123	-0.389650	0.622787
H471	H	0.851194	-0.799739	0.113794
H472	H	1.351194	-0.299739	0.613794
H473	H	0.893914	-0.799634	0.156654
H474	H	1.393914	-0.299634	0.656654
H475	H	0.816536	-0.871228	0.148417
H476	H	1.316536	-0.371228	0.648417
H477	H	0.859251	-0.871142	0.191274
H478	H	1.359251	-0.371142	0.691274
H479	H	0.920252	-0.880685	0.130486
H480	H	1.420252	-0.380685	0.630486
H481	H	0.877530	-0.880786	0.087628
H482	H	1.377530	-0.380786	0.587628
H483	H	0.880295	-0.926067	0.127647
H484	H	1.380295	-0.426067	0.627647
C485	C	0.685771	-1.059809	0.321571
C486	C	1.185771	-0.559809	0.821571
C487	C	0.652279	-1.091197	0.291940
C488	C	1.152279	-0.591197	0.791940
C489	C	0.618752	-1.118548	0.325259
C490	C	1.118752	-0.618548	0.825259
H491	H	0.705703	-1.081121	0.344383
H492	H	1.205703	-0.581121	0.844383
H493	H	0.665807	-1.035756	0.341454
H494	H	1.165807	-0.535756	0.841454
H495	H	0.672241	-1.115247	0.272066
H496	H	1.172241	-0.615247	0.772066
H497	H	0.632336	-1.069898	0.269129
H498	H	1.132336	-0.569898	0.769129
H499	H	0.598787	-1.094495	0.345142
H500	H	1.098787	-0.594495	0.845142
H501	H	0.638688	-1.139856	0.348070
H502	H	1.138688	-0.639856	0.848070
H503	H	0.596021	-1.139843	0.305159
H504	H	1.096021	-0.639843	0.805159
H505	H	0.816101	-0.450883	0.191298
H506	H	1.316101	0.049117	0.691298
C507	C	0.312700	-0.148797	0.355313
C508	C	0.812700	0.351203	0.855313
C509	C	0.277127	-0.119551	0.384636
C510	C	0.777127	0.380449	0.884636
C511	C	0.304353	-0.086084	0.418154
C512	C	0.804353	0.413916	0.918154
H513	H	0.333998	-0.168765	0.378107
H514	H	0.833998	0.331235	0.878107
H515	H	0.333995	-0.125957	0.335362
H516	H	0.833995	0.374043	0.835362
H517	H	0.255840	-0.142388	0.404585
H518	H	0.755840	0.357612	0.904585
H519	H	0.255827	-0.099572	0.361856
H520	H	0.755827	0.400428	0.861856
H521	H	0.325649	-0.063244	0.398203
H522	H	0.825649	0.436756	0.898203
H523	H	0.325651	-0.106056	0.440944
H524	H	0.825651	0.393944	0.940944
H525	H	0.280221	-0.066233	0.438049
H526	H	0.780221	0.433767	0.938049
C527	C	0.198857	-0.148945	0.355339
C528	C	0.698857	0.351055	0.855339
C529	C	0.167495	-0.178600	0.388793
C530	C	0.667495	0.321400	0.888793
C531	C	0.140163	-0.145304	0.422341
C532	C	0.640163	0.354696	0.922341
H533	H	0.222906	-0.129053	0.375334
H534	H	0.722906	0.370947	0.875334
H535	H	0.177533	-0.126138	0.335403
H536	H	0.677533	0.373862	0.835403
H537	H	0.188818	-0.201397	0.408727
H538	H	0.688818	0.298603	0.908727
H539	H	0.143437	-0.198490	0.368813
H540	H	0.643437	0.301510	0.868813
H541	H	0.118839	-0.122498	0.402406
H542	H	0.618839	0.377502	0.902406
H543	H	0.164215	-0.125414	0.442332
H544	H	0.664215	0.374586	0.942332
H545	H	0.118877	-0.165420	0.445041
H546	H	0.618877	0.334580	0.945041
H547	H	0.054166	-0.191310	0.312730
H548	H	0.554166	0.308690	0.812730
C549	C	0.685781	-0.321701	0.444082
C550	C	1.185781	0.178299	0.944082
C551	C	0.697139	-0.373430	0.457347
C552	C	1.197139	0.126570	0.957347
C553	C	0.663755	-0.406974	0.430050
C554	C	1.163755	0.093026	0.930050
H555	H	0.650636	-0.314121	0.452994
H556	H	1.150636	0.185879	0.952994
H557	H	0.690582	-0.316951	0.407650
H558	H	1.190582	0.183049	0.907650
H559	H	0.692333	-0.378177	0.493770
H560	H	1.192333	0.121823	0.993770
H561	H	0.732278	-0.381026	0.448433
H562	H	1.232278	0.118974	0.948433
H563	H	0.668556	-0.402224	0.393618
H564	H	1.168556	0.097776	0.893618
H565	H	0.628612	-0.399390	0.438964
H566	H	1.128612	0.100610	0.938964
H567	H	0.671460	-0.442076	0.439042
H568	H	1.171460	0.057924	0.939042
H569	H	0.816227	-0.191169	0.550555
H570	H	1.316227	0.308831	1.050555
C571	C	0.858811	-0.148564	0.695373
C572	C	1.358811	0.351436	1.195373
C573	C	0.888105	-0.119267	0.730984
C574	C	1.388105	0.380733	1.230984
C575	C	0.921588	-0.085760	0.703802
C576	C	1.421588	0.414240	1.203802
H577	H	0.881624	-0.168506	0.674070
H578	H	1.381624	0.331494	1.174070
H579	H	0.838836	-0.125758	0.674085
H580	H	1.338836	0.374242	1.174085
H581	H	0.908079	-0.142070	0.752263
H582	H	1.408079	0.357930	1.252263
H583	H	0.865306	-0.099314	0.752288
H584	H	1.365306	0.400686	1.252288
H585	H	0.901613	-0.062954	0.682514
H586	H	1.401613	0.437046	1.182514
H587	H	0.944398	-0.105707	0.682500
H588	H	1.444398	0.394293	1.182500
H589	H	0.941465	-0.065875	0.727960
H590	H	1.441465	0.434125	1.227960
H591	H	0.849722	-0.157671	0.801735
H592	H	1.349722	0.342329	1.301735
C593	C	0.685737	-0.321476	1.060194
C594	C	1.185737	0.178524	1.560194
C595	C	0.656421	-0.350755	1.024584
C596	C	1.156421	0.149245	1.524584
C597	C	0.622890	-0.384211	1.051770
C598	C	1.122890	0.115789	1.551770
H599	H	0.705662	-0.344300	1.081498
H600	H	1.205662	0.155700	1.581498
H601	H	0.662943	-0.301482	1.081480
H602	H	1.162943	0.198518	1.581480
H603	H	0.679212	-0.370747	1.003307
H604	H	1.179212	0.129253	1.503307
H605	H	0.636486	-0.327945	1.003279
H606	H	1.136486	0.172055	1.503279
H607	H	0.600097	-0.364217	1.073056
H608	H	1.100097	0.135783	1.573056
H609	H	0.642820	-0.407031	1.073073
H610	H	1.142820	0.092969	1.573073
H611	H	0.602993	-0.404077	1.027613
H612	H	1.102993	0.095923	1.527613
H613	H	0.694853	-0.312400	0.953827
H614	H	1.194853	0.187600	1.453827
C615	C	0.652216	-0.354956	0.809000
C616	C	1.152216	0.145044	1.309000
C617	C	0.622899	-0.384228	0.773387
C618	C	1.122899	0.115772	1.273387
C619	C	0.589360	-0.417680	0.800568
C620	C	1.089360	0.082320	1.300568
H621	H	0.672136	-0.377785	0.830305
H622	H	1.172136	0.122215	1.330305
H623	H	0.629425	-0.334960	0.830286
H624	H	1.129425	0.165040	1.330286
H625	H	0.645688	-0.404223	0.752111
H626	H	1.145688	0.095777	1.252111
H627	H	0.602969	-0.361413	0.752081
H628	H	1.102969	0.138587	1.252081
H629	H	0.566568	-0.397683	0.821854
H630	H	1.066568	0.102317	1.321854
H631	H	0.609283	-0.440505	0.821872
H632	H	1.109283	0.059495	1.321872
H633	H	0.569460	-0.437541	0.776409
H634	H	1.069460	0.062459	1.276409
