data_functionalizedCrystal
_audit_creation_method	'MofGen! by Chris Wilmer'
_symmetry_space_group_name_H-M	'P1'
_symmetry_Int_Tables_number	1
_symmetry_cell_setting	triclinic
loop_
_symmetry_equiv_pos_as_xyz
  x,y,z
_cell_length_a	31.640172
_cell_length_b	23.096457
_cell_length_c	23.096457
_cell_angle_alpha	119.990321
_cell_angle_beta	89.980580
_cell_angle_gamma	59.998714
loop_
_atom_site_label
_atom_site_type_symbol
_atom_site_fract_x
_atom_site_fract_y
_atom_site_fract_z
Zr1	Zr	0.407178	0.633661	0.075881
O2	O	0.339672	0.754461	0.168339
O3	O	0.427871	0.512871	0.047541
O4	O	0.427848	0.633660	0.168328
O5	O	0.339714	0.633669	-0.047730
O6	O	0.497405	0.633648	0.168315
O7	O	0.339694	0.633672	0.047552
O8	O	0.497446	0.417578	-0.047750
O9	O	0.339673	0.849739	0.168335
O10	O	0.488608	0.562541	0.035441
O11	O	0.436713	0.562548	-0.035658
O12	O	0.436686	0.704761	0.106553
O13	O	0.384791	0.704769	0.035454
Zr14	Zr	0.518145	0.633638	-0.076104
Zr15	Zr	0.518114	0.633642	0.075861
Zr16	Zr	0.407209	0.633657	-0.076083
Zr17	Zr	0.407181	0.785618	0.075875
Zr18	Zr	0.518142	0.481680	-0.076097
O19	O	0.497452	0.754428	-0.047764
O20	O	0.497408	0.754434	0.168310
O21	O	0.339716	0.754455	-0.047735
O22	O	0.585651	0.512838	-0.168561
O23	O	0.585607	0.512843	0.047513
O24	O	0.427915	0.512865	-0.168533
O25	O	0.585609	0.633629	0.047508
O26	O	0.497475	0.633639	-0.168550
O27	O	0.427918	0.633651	-0.168538
O28	O	0.585629	0.633627	-0.047775
O29	O	0.427852	0.849724	0.168319
O30	O	0.497471	0.417575	-0.168541
O31	O	0.585650	0.417560	-0.168557
O32	O	0.585625	0.417563	-0.047766
O33	O	0.339698	0.849736	0.047543
O34	O	0.427877	0.849720	0.047527
O35	O	0.488637	0.562537	-0.106775
O36	O	0.540532	0.562530	-0.035677
O37	O	0.488610	0.704751	0.035435
O38	O	0.436715	0.704758	-0.035664
C39	C	0.462658	0.443574	-0.000103
C40	C	0.462657	0.379064	-0.000100
C41	C	0.323898	0.633673	-0.000086
C42	C	0.276803	0.633681	-0.000077
C43	C	0.489742	0.348759	0.037015
C44	C	0.489747	0.288137	0.037009
C45	C	0.462657	0.257833	-0.000102
C46	C	0.435570	0.288142	-0.037226
C47	C	0.435570	0.348757	-0.037225
N48	N	0.418559	0.195445	0.005053
N49	N	0.418560	0.137865	0.005055
C50	C	0.462656	0.075201	-0.000109
N51	N	0.506751	0.072301	-0.005263
N52	N	0.506749	0.129890	-0.005262
C53	C	0.462654	0.192106	-0.000108
C54	C	0.489749	-0.020838	0.037002
C55	C	0.489756	-0.081465	0.036991
C56	C	0.435574	-0.081453	-0.037239
C57	C	0.435573	-0.020833	-0.037233
C58	C	0.462659	0.009474	-0.000109
C59	C	0.011900	0.559404	-0.037245
C60	C	-0.165085	0.559390	-0.037259
O61	O	-0.164922	0.496253	-0.068854
N62	N	-0.214318	0.633627	-0.000139
C63	C	-0.219303	0.707873	0.036984
O64	O	-0.265239	0.771016	0.068551
C65	C	-0.042318	0.707886	0.036994
C66	C	0.006913	0.633644	-0.000123
C67	C	0.061129	0.485168	-0.074360
C68	C	0.105373	0.485172	-0.074353
C69	C	0.100386	0.559412	-0.037231
C70	C	0.051157	0.633648	-0.000116
C71	C	-0.047304	0.782131	0.074112
C72	C	-0.003053	0.782128	0.074110
C73	C	0.046179	0.707886	0.036993
C74	C	0.090414	0.707893	0.037012
N75	N	0.139646	0.633656	-0.000108
C76	C	0.144632	0.559416	-0.037230
C77	C	-0.312220	0.707861	0.036978
C78	C	-0.356466	0.707857	0.036977
C79	C	-0.302246	0.559374	-0.037268
C80	C	-0.257999	0.559378	-0.037262
C81	C	-0.262988	0.633623	-0.000143
C82	C	0.237545	0.559430	-0.037212
C83	C	0.281789	0.559441	-0.037199
C84	C	0.227565	0.707924	0.037042
C85	C	0.183324	0.707914	0.037033
C86	C	0.188317	0.633660	-0.000099
O87	O	0.090289	0.770997	0.068584
O88	O	0.190573	0.496282	-0.068805
C89	C	-0.032344	0.559400	-0.037252
C90	C	-0.081573	0.633636	-0.000137
C91	C	-0.086560	0.707876	0.036984
C92	C	-0.125819	0.633632	-0.000139
C93	C	-0.120833	0.559392	-0.037260
C94	C	-0.071601	0.485155	-0.074381
C95	C	-0.027357	0.485159	-0.074374
C96	C	-0.135792	0.782113	0.074105
C97	C	-0.180033	0.782103	0.074095
C98	C	-0.175047	0.707862	0.036974
C99	C	0.601425	0.633625	-0.000137
C100	C	0.648520	0.633617	-0.000145
C101	C	0.462622	0.633654	0.189973
C102	C	0.462609	0.633656	0.254486
C103	C	0.462665	0.823725	-0.000119
C104	C	0.462666	0.888235	-0.000122
C105	C	0.435508	0.707892	0.321909
C106	C	0.435519	0.707894	0.382526
C107	C	0.462624	0.633655	0.375715
C108	C	0.489731	0.559410	0.308280
C109	C	0.489724	0.559410	0.247665
N110	N	0.458882	0.578401	0.443274
N111	N	0.458886	0.578405	0.500858
C112	C	0.462650	0.633650	0.558342
N113	N	0.466400	0.688902	0.556072
N114	N	0.466392	0.688900	0.498484
C115	C	0.462636	0.633647	0.441438
C116	C	0.435560	0.707893	0.691495
C117	C	0.435575	0.707891	0.752112
C118	C	0.489784	0.559405	0.677863
C119	C	0.489772	0.559409	0.617249
C120	C	0.462658	0.633655	0.624070
C121	C	0.462692	0.633647	0.809806
C122	C	0.462681	0.633652	0.745296
C123	C	0.601421	0.443550	-0.000129
C124	C	0.648515	0.379032	-0.000134
C125	C	0.462697	0.443569	-0.190188
C126	C	0.462709	0.379057	-0.254698
C127	C	0.601460	0.443545	-0.190213
C128	C	0.648567	0.379025	-0.254732
C129	C	0.323862	0.823754	0.189991
C130	C	0.276755	0.888274	0.254509
C131	C	0.323902	0.823749	-0.000094
C132	C	0.276808	0.888267	-0.000088
C133	C	0.462626	0.823730	0.189965
C134	C	0.462614	0.888241	0.254475
C135	C	0.643527	0.348739	0.036992
C136	C	0.687772	0.288126	0.037001
C137	C	0.737005	0.257803	-0.000122
C138	C	0.741993	0.288101	-0.037249
C139	C	0.697748	0.348717	-0.037253
C140	C	0.489819	0.348756	-0.322122
C141	C	0.489828	0.288149	-0.382742
C142	C	0.462731	0.257840	-0.375936
C143	C	0.435618	0.288147	-0.308505
C144	C	0.435606	0.348757	-0.247887
C145	C	0.697783	0.348722	-0.247918
C146	C	0.742049	0.288107	-0.308534
C147	C	0.737099	0.257793	-0.375964
C148	C	0.687879	0.288101	-0.382777
C149	C	0.643613	0.348719	-0.322161
C150	C	0.227540	0.918584	0.247695
C151	C	0.183274	0.979217	0.308312
C152	C	0.188224	1.009535	0.375742
C153	C	0.237444	0.979223	0.382554
C154	C	0.281710	0.918594	0.321939
C155	C	0.281796	0.918566	-0.037208
C156	C	0.237551	0.979196	-0.037200
C157	C	0.188318	1.009521	-0.000076
C158	C	0.183330	0.979220	0.037049
C159	C	0.227575	0.918595	0.037045
C160	C	0.489717	0.918531	0.247647
C161	C	0.489715	0.979139	0.308256
C162	C	0.462608	1.009459	0.375692
C163	C	0.435504	0.979164	0.382518
C164	C	0.435509	0.918553	0.321910
H165	H	0.511804	0.263458	0.067234
H166	H	0.321782	0.893916	0.327495
O167	O	0.409300	0.378268	-0.073264
C168	C	0.415095	0.438285	-0.065285
H169	H	0.451689	0.428327	-0.051622
H170	H	0.380076	0.501687	-0.020838
C171	C	0.374353	0.443882	-0.151848
C172	C	0.419300	0.431647	-0.135073
H173	H	0.376944	0.439791	-0.194895
H174	H	0.370446	0.403449	-0.157222
H175	H	0.345175	0.496717	-0.114803
H176	H	0.448476	0.378810	-0.172114
H177	H	0.423211	0.472071	-0.129707
H178	H	0.152176	1.058903	0.425093
H179	H	0.321876	0.498982	-0.067426
O180	O	0.222817	0.889028	0.182145
C181	C	0.272435	0.829030	0.130095
H182	H	0.301761	0.802508	0.153709
H183	H	0.283717	0.858021	0.111132
C184	C	0.235764	0.792730	0.037951
C185	C	0.271781	0.760150	0.066952
H186	H	0.235361	0.750243	-0.001000
H187	H	0.202335	0.833154	0.073017
H188	H	0.245170	0.816888	0.022154
H189	H	0.262371	0.736002	0.082756
H190	H	0.305209	0.719720	0.031887
O191	O	0.135504	1.008535	0.301558
C192	C	0.140633	0.968776	0.229043
H193	H	0.180128	0.907334	0.196727
H194	H	0.137016	1.008514	0.211169
C195	C	0.049261	1.030128	0.257322
C196	C	0.097768	0.954661	0.217631
H197	H	0.022819	1.021424	0.250282
H198	H	0.045805	1.056917	0.306177
H199	H	0.046255	1.063236	0.242422
H200	H	0.100776	0.921559	0.232537
H201	H	0.101224	0.927866	0.168778
H202	H	0.511799	0.373431	0.067242
H203	H	0.462745	0.208487	-0.425302
O204	O	0.409178	1.008741	0.448080
C205	C	0.414999	1.068720	0.500102
H206	H	0.424991	1.095206	0.476459
H207	H	0.447434	1.039721	0.519061
C208	C	0.351772	1.105104	0.592292
C209	C	0.364040	1.137639	0.563255
H210	H	0.320339	1.147615	0.631250
H211	H	0.347851	1.064693	0.557245
H212	H	0.378805	1.080938	0.608086
H213	H	0.337009	1.161794	0.547454
H214	H	0.367954	1.178056	0.598301
H215	H	0.773028	0.208444	-0.000113
H216	H	0.511801	0.498965	0.302738
H217	H	0.413514	0.263464	-0.067443
H218	H	-0.087384	0.842587	0.104336
O219	O	0.409129	0.889255	0.328675
C220	C	0.385214	0.929007	0.401194
H221	H	0.379857	0.990437	0.433507
H222	H	0.410602	0.889252	0.419052
C223	C	0.338616	0.867703	0.372948
C224	C	0.332031	0.943155	0.412635
H225	H	0.305811	0.876427	0.380006
H226	H	0.354729	0.840918	0.324090
H227	H	0.359773	0.834581	0.387834
H228	H	0.310879	0.976272	0.397743
H229	H	0.315913	0.969946	0.461491
H230	H	0.413431	0.768349	0.327470
H231	H	0.413449	0.768347	0.437433
H232	H	0.241469	1.003916	0.437463
O233	O	0.329656	0.889003	-0.073259
C234	C	0.367646	0.829010	-0.065295
H235	H	0.350402	0.802496	-0.051631
H236	H	0.381477	0.858005	-0.020855
C237	C	0.434936	0.792693	-0.151870
C238	C	0.413757	0.760122	-0.135093
H239	H	0.463380	0.750200	-0.194923
H240	H	0.409342	0.833113	-0.157234
H241	H	0.446457	0.816854	-0.114831
H242	H	0.402230	0.735971	-0.172128
H243	H	0.439350	0.719696	-0.129738
O244	O	0.516070	0.487363	0.671366
C245	C	0.510228	0.503280	0.739324
H246	H	0.473607	0.567069	0.779491
H247	H	0.545215	0.499795	0.754805
C248	C	0.551035	0.360857	0.689054
C249	C	0.506053	0.439202	0.738386
H250	H	0.548462	0.321330	0.688476
H251	H	0.554972	0.350132	0.643269
H252	H	0.580186	0.357965	0.701960
H253	H	0.476904	0.442097	0.725474
H254	H	0.502111	0.449926	0.784169
O255	O	0.242494	1.008502	-0.073332
C256	C	0.295437	0.968737	-0.106091
H257	H	0.319026	0.907299	-0.113434
H258	H	0.308477	1.008476	-0.071315
C259	C	0.274819	1.030070	-0.169913
C260	C	0.303790	0.954608	-0.178937
H261	H	0.279972	1.021358	-0.214847
H262	H	0.239150	1.056863	-0.147841
H263	H	0.285689	1.063178	-0.140931
H264	H	0.292915	0.921506	-0.207911
H265	H	0.339457	0.927809	-0.201016
O266	O	0.409237	0.779938	0.697988
C267	C	0.415049	0.764020	0.630030
H268	H	0.425028	0.700222	0.589860
H269	H	0.447490	0.767528	0.614558
C270	C	0.351838	0.906435	0.680297
C271	C	0.364090	0.828079	0.630961
H272	H	0.320405	0.945951	0.680871
H273	H	0.347923	0.917160	0.726083
H274	H	0.378876	0.909347	0.667398
H275	H	0.337056	0.825165	0.643866
H276	H	0.367999	0.817355	0.585178
O277	O	0.516102	0.487222	0.551803
C278	C	0.540039	0.421696	0.558786
H279	H	0.518791	0.443462	0.612888
H280	H	0.582100	0.398862	0.553791
C281	C	0.564171	0.324827	0.433631
C282	C	0.538071	0.351559	0.500078
H283	H	0.562959	0.281561	0.397415
H284	H	0.548046	0.368973	0.428925
H285	H	0.599220	0.305804	0.429478
H286	H	0.503022	0.370590	0.504233
H287	H	0.554190	0.307415	0.504783
H288	H	0.152295	1.058886	-0.000078
O289	O	0.516056	0.487221	0.182219
C290	C	0.539997	0.421693	0.189200
H291	H	0.518750	0.443457	0.243302
H292	H	0.582058	0.398861	0.184203
C293	C	0.564126	0.324826	0.064045
C294	C	0.538028	0.351556	0.130492
H295	H	0.562915	0.281560	0.027830
H296	H	0.547999	0.368973	0.059341
H297	H	0.599175	0.305805	0.059891
H298	H	0.502979	0.370586	0.134649
H299	H	0.554150	0.307411	0.135196
H300	H	0.413556	0.263460	-0.302975
O301	O	0.789858	0.258522	-0.073300
C302	C	0.827834	0.198537	-0.065318
H303	H	0.810574	0.172052	-0.051634
H304	H	0.841668	0.227531	-0.020883
C305	C	0.895143	0.162155	-0.151913
C306	C	0.873945	0.129620	-0.135113
H307	H	0.923589	0.119645	-0.194964
H308	H	0.869559	0.202569	-0.157290
H309	H	0.906668	0.186316	-0.114879
H310	H	0.862415	0.105469	-0.172143
H311	H	0.899529	0.089199	-0.129744
O312	O	-0.317005	0.779935	0.073091
C313	C	-0.293059	0.784395	0.125202
H314	H	-0.262894	0.719940	0.109600
H315	H	-0.323498	0.821026	0.178442
C316	C	-0.303581	0.906020	0.150444
C317	C	-0.266529	0.826854	0.131278
H318	H	-0.287218	0.932214	0.154195
H319	H	-0.319715	0.903017	0.115338
H320	H	-0.328944	0.936536	0.194809
H321	H	-0.241170	0.796337	0.086910
H322	H	-0.250389	0.829853	0.166377
H323	H	0.511807	0.003836	0.067228
O324	O	0.516076	-0.110790	0.073109
C325	C	0.539991	-0.071053	0.105860
H326	H	0.518736	-0.009610	0.113213
H327	H	0.582056	-0.110805	0.071074
C328	C	0.564111	-0.132409	0.169663
C329	C	0.538001	-0.056941	0.178699
H330	H	0.562886	-0.123708	0.214592
H331	H	0.548001	-0.159184	0.147596
H332	H	0.599163	-0.165529	0.140672
H333	H	0.502949	-0.023827	0.207682
H334	H	0.554106	-0.030161	0.200773
H335	H	0.701823	0.373396	-0.193018
H336	H	0.413517	-0.106126	-0.067457
O337	O	0.409212	0.008551	-0.073292
C338	C	0.385312	-0.031208	-0.106065
H339	H	0.379942	-0.056186	-0.076953
H340	H	0.410718	-0.083854	-0.163681
C341	C	0.338739	0.060901	-0.139116
C342	C	0.332139	0.030228	-0.103357
H343	H	0.305940	0.098795	-0.137449
H344	H	0.354842	0.087685	-0.117039
H345	H	0.359912	0.017021	-0.187126
H346	H	0.310972	0.074105	-0.055346
H347	H	0.316031	0.003452	-0.125426
O348	O	0.595667	0.378256	0.072996
C349	C	0.557677	0.438271	0.065056
H350	H	0.574928	0.428309	0.014916
H351	H	0.543829	0.501674	0.113010
C352	C	0.490393	0.443872	0.120915
C353	C	0.511580	0.431633	0.059330
H354	H	0.461957	0.439782	0.117386
H355	H	0.515987	0.403441	0.126268
H356	H	0.478857	0.496708	0.160871
H357	H	0.523121	0.378795	0.019376
H358	H	0.485987	0.472056	0.053970
H359	H	0.065198	0.424709	-0.104592
H360	H	0.511785	1.003799	0.302684
H361	H	0.701816	0.373374	-0.067490
H362	H	0.241618	0.498966	-0.067449
O363	O	0.682893	0.258619	0.072970
C364	C	0.655592	0.223580	0.045681
H365	H	0.659308	0.205375	-0.010901
H366	H	0.613002	0.270049	0.080093
C367	C	0.673720	0.169484	0.115312
C368	C	0.678288	0.147118	0.045815
H369	H	0.687718	0.122321	0.115397
H370	H	0.692112	0.193094	0.133699
H371	H	0.638227	0.208209	0.143981
H372	H	0.713780	0.108402	0.017149
H373	H	0.659902	0.123501	0.027422
H374	H	0.143239	1.003920	0.067275
H375	H	0.145456	0.424717	-0.104574
H376	H	0.511885	0.373427	-0.327676
O377	O	-0.297498	0.487329	-0.073322
C378	C	-0.347110	0.503256	-0.065346
H379	H	-0.376442	0.567065	-0.051664
H380	H	-0.358392	0.499728	-0.020912
C381	C	-0.310413	0.360852	-0.151942
C382	C	-0.346439	0.439221	-0.135143
H383	H	-0.310000	0.321351	-0.194995
H384	H	-0.276988	0.350120	-0.157315
H385	H	-0.319819	0.357924	-0.114909
H386	H	-0.337029	0.442151	-0.172172
H387	H	-0.379863	0.449951	-0.129779
H388	H	0.511909	0.263480	-0.437641
O389	O	0.789828	0.258816	-0.301810
C390	C	0.795483	0.323510	-0.264418
H391	H	0.755639	0.384145	-0.230972
H392	H	0.816647	0.324320	-0.303670
C393	C	0.875833	0.236702	-0.256809
C394	C	0.826896	0.311175	-0.215725
H395	H	0.895212	0.229092	-0.226775
H396	H	0.872024	0.193115	-0.282003
H397	H	0.893463	0.237386	-0.289516
H398	H	0.809264	0.310485	-0.183025
H399	H	0.830702	0.354761	-0.190524
H400	H	0.413531	0.373420	-0.192990
O401	O	0.780154	0.198879	-0.434770
C402	C	0.824652	0.178652	-0.414287
H403	H	0.814474	0.195365	-0.358333
H404	H	0.839551	0.214095	-0.415389
C405	C	0.879383	0.065577	-0.534734
C406	C	0.866883	0.086098	-0.466012
H407	H	0.905434	0.008486	-0.566642
H408	H	0.849404	0.079205	-0.548535
H409	H	0.891796	0.095119	-0.535642
H410	H	0.854464	0.056564	-0.465103
H411	H	0.896860	0.072462	-0.452212
O412	O	0.683167	0.258530	-0.448333
C413	C	0.732794	0.198541	-0.500365
H414	H	0.762112	0.172049	-0.476730
H415	H	0.744071	0.227534	-0.519332
C416	C	0.696155	0.162176	-0.592537
C417	C	0.732164	0.129632	-0.563509
H418	H	0.695767	0.119670	-0.631489
H419	H	0.662720	0.202593	-0.557483
H420	H	0.705557	0.186335	-0.608337
H421	H	0.722758	0.105482	-0.547702
H422	H	0.765597	0.089209	-0.598562
H423	H	-0.217915	0.498924	-0.067493
H424	H	-0.396550	0.768313	0.067210
O425	O	-0.007966	0.854305	0.110119
C426	C	-0.035243	0.899453	0.082810
H427	H	-0.059652	0.878334	0.055621
H428	H	-0.006572	0.889163	0.042744
C429	C	-0.040816	1.017135	0.177223
C430	C	-0.070799	0.991202	0.143834
H431	H	-0.062747	1.073731	0.214865
H432	H	-0.022437	0.986718	0.195621
H433	H	-0.016925	1.008554	0.143828
H434	H	-0.094684	0.999774	0.177227
H435	H	-0.089182	1.021623	0.125444
O436	O	0.135472	0.779981	0.072993
C437	C	0.108276	0.784440	0.025337
H438	H	0.125184	0.719984	-0.023522
H439	H	0.111967	0.821074	0.008735
C440	C	0.029975	0.906060	0.121717
C441	C	0.050739	0.826893	0.061710
H442	H	-0.005517	0.932250	0.144153
H443	H	0.048298	0.903058	0.153824
H444	H	0.033056	0.936578	0.107874
H445	H	0.047664	0.796374	0.075555
H446	H	0.032414	0.829891	0.029606
H447	H	0.413508	0.768346	0.807013
H448	H	0.223507	0.893927	0.067270
H449	H	0.603542	0.373384	-0.327719
H450	H	0.223514	0.768369	0.067268
H451	H	0.012726	0.424704	-0.104600
H452	H	0.462608	1.058813	0.425036
O453	O	-0.066788	0.413058	-0.110535
C454	C	-0.090760	0.408634	-0.162616
H455	H	-0.092794	0.450763	-0.176406
H456	H	-0.131581	0.428587	-0.141367
C457	C	-0.056555	0.268197	-0.212646
C458	C	-0.059050	0.319935	-0.229588
H459	H	-0.036997	0.213483	-0.253956
H460	H	-0.040406	0.271178	-0.177556
H461	H	-0.090575	0.284834	-0.194937
H462	H	-0.025031	0.303304	-0.247288
H463	H	-0.075192	0.316950	-0.264682
H464	H	-0.139860	0.842570	0.104336
O465	O	-0.227829	0.854279	0.110258
C466	C	-0.233530	0.899443	0.182719
H467	H	-0.193702	0.878331	0.188799
H468	H	-0.254692	0.889162	0.212498
C469	C	-0.313891	1.017113	0.205966
C470	C	-0.264973	0.991188	0.213433
H471	H	-0.333288	1.073706	0.224914
H472	H	-0.310051	0.986685	0.157149
H473	H	-0.331519	1.008538	0.230782
H474	H	-0.247344	0.999753	0.188610
H475	H	-0.268811	1.021619	0.262247
H476	H	0.511791	0.893854	0.192743
