data_functionalizedCrystal
_audit_creation_method	'MofGen! by Chris Wilmer'
_symmetry_space_group_name_H-M	'P1'
_symmetry_Int_Tables_number	1
_symmetry_cell_setting	triclinic
loop_
_symmetry_equiv_pos_as_xyz
  x,y,z
_cell_length_a	8.634740
_cell_length_b	8.559649
_cell_length_c	16.776229
_cell_angle_alpha	90.001927
_cell_angle_beta	90.005254
_cell_angle_gamma	85.174486
loop_
_atom_site_label
_atom_site_type_symbol
_atom_site_fract_x
_atom_site_fract_y
_atom_site_fract_z
O1	O	1.985475	0.511627	0.066278
O2	O	2.485475	1.011627	0.566278
O3	O	1.541603	0.468725	0.066281
O4	O	2.041603	0.968725	0.566281
O5	O	1.802644	0.263595	0.066278
O6	O	2.302644	0.763595	0.566278
O7	O	1.724434	0.716758	0.066280
O8	O	2.224434	1.216758	0.566280
O9	O	1.802618	0.263590	-0.066298
O10	O	2.302618	0.763590	0.433702
O11	O	1.541577	0.468720	-0.066296
O12	O	2.041577	0.968720	0.433704
O13	O	1.985448	0.511623	-0.066299
O14	O	2.485448	1.011623	0.433701
Zn15	Zn	1.763508	0.490171	-0.087347
Zn16	Zn	2.263508	0.990171	0.412653
Zn17	Zn	1.763543	0.490177	0.087329
Zn18	Zn	2.263543	0.990177	0.587329
O19	O	1.724407	0.716753	-0.066296
O20	O	2.224407	1.216753	0.433704
C21	C	1.485291	0.459004	-0.000007
C22	C	1.985291	0.959004	0.499993
C23	C	1.317539	0.430026	-0.000006
C24	C	1.817539	0.930026	0.499994
C25	C	1.808558	0.204975	-0.000009
C26	C	2.308558	0.704975	0.499991
C27	C	1.826201	0.030311	-0.000004
C28	C	2.326201	0.530311	0.499996
C29	C	2.041761	0.521344	-0.000009
C30	C	2.541761	1.021344	0.499991
C31	C	2.209512	0.550322	-0.000005
C32	C	2.709512	1.050322	0.499995
C33	C	1.718493	0.775373	-0.000008
C34	C	2.218493	1.275373	0.499992
C35	C	1.700851	0.950037	-0.000007
C36	C	2.200851	1.450037	0.499993
N37	N	1.763496	0.490167	-0.206558
N38	N	2.263496	0.990167	0.293442
C39	C	1.844059	0.599542	-0.248272
C40	C	2.344059	1.099542	0.251728
C41	C	1.844076	0.599538	-0.331724
C42	C	2.344076	1.099538	0.168276
C43	C	1.763521	0.490167	-0.373461
C44	C	2.263521	0.990167	0.126539
C45	C	1.682956	0.380781	-0.331741
C46	C	2.182956	0.880781	0.168259
C47	C	1.682949	0.380778	-0.248291
C48	C	2.182949	0.880778	0.251709
C49	C	1.682987	0.380787	-0.668288
C50	C	2.182987	0.880787	-0.168288
C51	C	1.682996	0.380802	-0.751745
C52	C	2.182996	0.880802	-0.251745
C53	C	1.844114	0.599548	-0.751722
C54	C	2.344114	1.099548	-0.251722
C55	C	1.844106	0.599545	-0.668271
C56	C	2.344106	1.099545	-0.168271
C57	C	1.763549	0.490155	-0.626559
C58	C	2.263549	0.990155	-0.126559
C59	C	1.763533	0.490158	-0.536070
C60	C	2.263533	0.990158	-0.036070
C61	C	1.763527	0.490169	-0.463948
C62	C	2.263527	0.990169	0.036052
N63	N	1.763569	0.490170	0.206540
N64	N	2.263569	0.990170	0.706540
H65	H	1.245366	0.675491	-0.000009
H66	H	1.745366	1.175491	0.499991
F67	F	1.542933	0.034858	-0.000008
F68	F	2.042933	0.534858	0.499992
H69	H	1.947023	-0.034594	-0.000011
H70	H	2.447023	0.465406	0.499989
H71	H	1.909646	0.688613	-0.214295
H72	H	2.409646	1.188613	0.285705
F73	F	1.270688	0.266428	-0.000012
F74	F	1.770688	0.766428	0.499988
F75	F	1.929856	0.715968	-0.796121
F76	F	2.429856	1.215968	-0.296121
F77	F	1.929820	0.715951	-0.376115
F78	F	2.429820	1.215951	0.123885
F79	F	1.929825	0.715968	-0.623856
F80	F	2.429825	1.215968	-0.123856
F81	F	1.597256	0.264386	-0.796163
F82	F	2.097256	0.764386	-0.296163
F83	F	1.597198	0.264406	-0.623906
F84	F	2.097198	0.764406	-0.123906
H85	H	1.617375	0.291722	-0.365730
H86	H	2.117375	0.791722	0.134270
F87	F	1.597217	0.264356	-0.203896
F88	F	2.097217	0.764356	0.296104
