data_functionalizedCrystal
_audit_creation_method	'MofGen! by Chris Wilmer'
_symmetry_space_group_name_H-M	'P1'
_symmetry_Int_Tables_number	1
_symmetry_cell_setting	triclinic
loop_
_symmetry_equiv_pos_as_xyz
  x,y,z
_cell_length_a	34.408637
_cell_length_b	34.407814
_cell_length_c	34.404193
_cell_angle_alpha	60.004510
_cell_angle_beta	60.009006
_cell_angle_gamma	59.994604
loop_
_atom_site_label
_atom_site_type_symbol
_atom_site_fract_x
_atom_site_fract_y
_atom_site_fract_z
O1	O	0.053973	-0.567860	0.474801
O2	O	0.020377	-0.442124	0.382567
O3	O	0.100004	-0.521670	0.382483
O4	O	-0.025653	-0.488314	0.474886
O5	O	0.126426	-0.495253	0.408816
O6	O	0.046800	-0.415707	0.408900
O7	O	0.080396	-0.541443	0.501134
Zn8	Zn	0.067793	-0.474381	0.459198
Zn9	Zn	0.032980	-0.509186	0.424503
O10	O	0.000769	-0.461897	0.501219
N11	N	0.091552	-0.450631	0.482879
N12	N	0.009225	-0.532940	0.400823
C13	C	0.142848	-0.268847	0.534081
C14	C	0.142979	-0.399386	0.664559
C15	C	0.142862	-0.399365	0.534081
C16	C	0.273409	-0.399338	0.533986
C17	C	0.157225	-0.311914	0.548422
C18	C	0.157300	-0.385019	0.621491
C19	C	0.230339	-0.384991	0.548370
C20	C	0.157235	-0.385007	0.548422
C21	C	0.124548	-0.214028	0.515827
C22	C	0.124571	-0.417639	0.515827
C23	C	0.175526	-0.366733	0.566676
C24	C	0.353121	-0.385580	0.491988
C25	C	0.402952	-0.402180	0.475348
C26	C	0.402981	-0.482812	0.506096
C27	C	0.353151	-0.466211	0.522737
C28	C	0.136544	-0.189099	0.466839
C29	C	0.119905	-0.139265	0.450247
C30	C	0.079280	-0.139291	0.531632
C31	C	0.095918	-0.189125	0.548224
C32	C	0.075577	-0.405615	0.527900
C33	C	0.058953	-0.422228	0.511301
C34	C	0.140315	-0.462889	0.470566
C35	C	0.156941	-0.446276	0.487159
C36	C	0.075772	-0.405653	0.744326
C37	C	0.059206	-0.422280	0.794159
C38	C	0.140607	-0.462951	0.794094
C39	C	0.157172	-0.446325	0.744260
C40	C	0.124753	-0.417674	0.719377
C41	C	0.328223	-0.417595	0.515681
C42	C	-0.172390	-0.583988	0.349141
C43	C	-0.041751	-0.584138	0.218783
C44	C	-0.041941	-0.584130	0.349402
C45	C	-0.041957	-0.714607	0.349338
C46	C	-0.129326	-0.598388	0.334853
C47	C	-0.056165	-0.598473	0.261852
C48	C	-0.056282	-0.671535	0.334962
C49	C	-0.056272	-0.598469	0.334999
C50	C	-0.227205	-0.565659	0.367327
C51	C	-0.023703	-0.565882	0.367734
C52	C	-0.074511	-0.616717	0.316667
C53	C	-0.055754	-0.794298	0.391257
C54	C	-0.039181	-0.844132	0.407888
C55	C	0.041447	-0.844215	0.377269
C56	C	0.024873	-0.794381	0.360637
C57	C	-0.252183	-0.577666	0.416302
C58	C	-0.302014	-0.561001	0.432833
C59	C	-0.301886	-0.520329	0.351410
C60	C	-0.252055	-0.536994	0.334880
C61	C	-0.035709	-0.516892	0.355682
C62	C	-0.019129	-0.500308	0.372353
C63	C	0.021465	-0.581700	0.413115
C64	C	0.004884	-0.598286	0.396450
C65	C	-0.035389	-0.516907	0.139026
C66	C	-0.018707	-0.500324	0.089193
C67	C	0.021949	-0.581721	0.089240
C68	C	0.005268	-0.598303	0.139074
C69	C	-0.023402	-0.565894	0.163965
C70	C	-0.023728	-0.769425	0.367633
N71	N	0.427173	-0.450553	0.482630
O72	O	0.589997	-0.458460	0.365361
O73	O	0.590185	-0.550997	0.490963
O74	O	0.590104	-0.550786	0.411309
O75	O	0.590077	-0.458671	0.445016
O76	O	0.510940	-0.524462	0.437777
O77	O	0.511020	-0.524674	0.517432
O78	O	0.510832	-0.432136	0.391830
Zn79	Zn	0.498357	-0.474225	0.458833
Zn80	Zn	0.602660	-0.508908	0.423960
O81	O	0.510913	-0.432348	0.471484
N82	N	0.673844	-0.532580	0.400158
N83	N	0.091520	-0.115070	0.482873
O84	O	-0.025663	0.047841	0.474857
O85	O	0.099940	0.047877	0.382299
O86	O	0.020247	0.047844	0.382560
O87	O	0.054030	0.047874	0.474596
O88	O	0.046674	-0.031326	0.408942
O89	O	0.126367	-0.031293	0.408680
O90	O	0.000764	-0.031329	0.501238
Zn91	Zn	0.067761	-0.043881	0.459148
Zn92	Zn	0.032943	0.060429	0.424389
O93	O	0.080457	-0.031296	0.500977
N94	N	0.009178	0.131618	0.400665
N95	N	0.091852	-0.450680	0.818332
O96	O	0.083862	-0.567845	0.981235
O97	O	-0.008657	-0.442198	0.981276
O98	O	-0.008441	-0.521875	0.981252
O99	O	0.083646	-0.488168	0.981258
O100	O	0.017919	-0.495468	0.902085
O101	O	0.017703	-0.415791	0.902109
O102	O	0.110222	-0.541438	0.902067
Zn103	Zn	0.068148	-0.474422	0.889518
Zn104	Zn	0.033417	-0.509214	0.993825
O105	O	0.110006	-0.461761	0.902091
N106	N	0.009712	-0.532961	1.065011
C107	C	0.030439	-0.413071	0.383027
C108	C	0.129046	-0.511580	0.382922
C109	C	0.070334	-0.570496	0.500675
C110	C	-0.028274	-0.471987	0.500780
C111	C	0.550625	-0.550579	0.520021
C112	C	0.550527	-0.550317	0.421379
C113	C	0.550389	-0.432554	0.362773
C114	C	0.550491	-0.432816	0.461414
C115	C	0.128944	0.008394	0.382712
C116	C	0.030287	0.008256	0.383068
C117	C	-0.028273	0.008252	0.500793
C118	C	0.070417	0.008292	0.500470
C119	C	-0.008218	-0.413165	0.941698
C120	C	-0.007945	-0.511830	0.941653
C121	C	0.109783	-0.570471	0.941646
C122	C	0.109516	-0.471800	0.941673
H123	H	0.049370	-0.382321	0.724071
H124	H	0.550540	-0.579254	0.414165
H125	H	-0.036863	-0.519031	0.941619
H126	H	0.138832	-0.606554	0.941627
O127	O	0.550300	-0.397832	0.319774
C128	C	0.550285	-0.356854	0.319786
H129	H	0.535336	-0.357433	0.357974
H130	H	0.588251	-0.356261	0.302739
C131	C	0.537536	-0.311398	0.244340
C132	C	0.519172	-0.312107	0.291243
H133	H	0.518346	-0.283795	0.226731
H134	H	0.537547	-0.339006	0.244331
H135	H	0.569174	-0.310905	0.230140
H136	H	0.487537	-0.312605	0.305444
H137	H	0.519154	-0.284498	0.291254
O138	O	-0.071309	-0.463598	0.535442
C139	C	-0.071332	-0.504535	0.576459
H140	H	-0.043164	-0.537202	0.565961
H141	H	-0.063017	-0.500710	0.602315
C142	C	-0.155241	-0.470170	0.613410
C143	C	-0.120646	-0.510293	0.600516
H144	H	-0.185660	-0.473721	0.628251
H145	H	-0.155225	-0.442590	0.585778
H146	H	-0.148305	-0.466987	0.634955
H147	H	-0.127579	-0.513472	0.578967
H148	H	-0.120664	-0.537874	0.628145
O149	O	0.079095	0.008209	0.534984
C150	C	0.117667	-0.032781	0.545888
H151	H	0.121411	-0.061440	0.535433
H152	H	0.151789	-0.023499	0.525335
C153	C	0.104053	-0.016182	0.612522
C154	C	0.108649	-0.051383	0.599686
H155	H	0.098492	-0.027656	0.645707
H156	H	0.078068	0.011435	0.605176
H157	H	0.132489	-0.008451	0.595391
H158	H	0.080211	-0.059109	0.616812
H159	H	0.134629	-0.079001	0.607036
H160	H	0.164941	0.008624	0.353583
H161	H	0.550485	-0.403881	0.468626
O162	O	0.021592	0.008212	0.348634
C163	C	-0.025199	0.008201	0.365994
H164	H	-0.037701	-0.006775	0.406540
H165	H	-0.049843	0.046175	0.353953
C166	C	-0.010777	-0.004482	0.296650
C167	C	-0.026131	-0.022880	0.346450
H168	H	-0.011353	-0.023653	0.284593
H169	H	0.020747	-0.004473	0.284954
H170	H	-0.031316	0.027162	0.286623
H171	H	-0.005588	-0.054522	0.356476
H172	H	-0.057651	-0.022895	0.358147
H173	H	-0.064344	0.008241	0.529850
H174	H	0.550674	-0.579628	0.556096
O175	O	0.172133	-0.520128	0.348362
C176	C	0.201716	-0.566904	0.365557
H177	H	0.188808	-0.579512	0.406103
H178	H	0.200405	-0.591521	0.353502
C179	C	0.269095	-0.552227	0.296055
C180	C	0.253243	-0.567711	0.345853
H181	H	0.300880	-0.552726	0.283899
H182	H	0.249164	-0.520713	0.284469
H183	H	0.267999	-0.572744	0.286015
H184	H	0.254334	-0.547191	0.355892
H185	H	0.273175	-0.599221	0.357440
H186	H	0.049217	-0.382297	0.551240
H187	H	-0.037264	-0.377079	0.941710
H188	H	0.077514	-0.606615	0.529644
O189	O	0.144046	-0.463147	0.941583
C190	C	0.154950	-0.424587	0.900594
H191	H	0.144482	-0.420836	0.871939
H192	H	0.134411	-0.390458	0.909875
C193	C	0.221604	-0.438243	0.917183
C194	C	0.208750	-0.433639	0.881987
H195	H	0.254790	-0.443825	0.905707
H196	H	0.214256	-0.464221	0.944800
H197	H	0.204484	-0.409801	0.924914
H198	H	0.225865	-0.462083	0.874261
H199	H	0.216101	-0.407666	0.854369
O200	O	0.011612	-0.410614	0.818337
C201	C	-0.009097	-0.427664	0.806186
H202	H	0.014505	-0.432538	0.769996
H203	H	-0.012782	-0.463282	0.834228
C204	C	-0.087614	-0.385605	0.848369
C205	C	-0.058627	-0.391588	0.803918
H206	H	-0.118167	-0.363353	0.846971
H207	H	-0.073662	-0.374119	0.856557
H208	H	-0.090679	-0.415290	0.871732
H209	H	-0.055558	-0.361905	0.780557
H210	H	-0.072580	-0.403068	0.795726
O211	O	0.172115	-0.490845	0.818247
C212	C	0.200934	-0.532626	0.806040
H213	H	0.181678	-0.539554	0.792354
H214	H	0.235928	-0.528087	0.777098
C215	C	0.234804	-0.566529	0.867096
C216	C	0.211152	-0.575040	0.850291
H217	H	0.241109	-0.592692	0.894392
H218	H	0.215389	-0.538380	0.875319
H219	H	0.263963	-0.562745	0.842974
H220	H	0.181991	-0.578818	0.874412
H221	H	0.230562	-0.603192	0.842073
O222	O	0.204751	-0.458059	0.720006
C223	C	0.216773	-0.483129	0.691170
H224	H	0.188688	-0.500001	0.706204
H225	H	0.218394	-0.457498	0.653411
C226	C	0.300148	-0.501626	0.671903
C227	C	0.265656	-0.522352	0.690371
H228	H	0.330302	-0.525819	0.671408
H229	H	0.292049	-0.484734	0.691329
H230	H	0.301493	-0.480267	0.640439
H231	H	0.264307	-0.543706	0.721836
H232	H	0.273756	-0.539248	0.670950
H233	H	0.019058	-0.412426	0.521121
H234	H	0.166679	-0.486211	0.447227
H235	H	0.332881	-0.492283	0.542031
O236	O	0.204545	-0.457928	0.475347
C237	C	0.225190	-0.440853	0.425432
H238	H	0.201542	-0.435977	0.408018
H239	H	0.228874	-0.405233	0.414163
C240	C	0.303755	-0.482896	0.431044
C241	C	0.274712	-0.476911	0.409655
H242	H	0.334304	-0.505136	0.421311
H243	H	0.289847	-0.494398	0.464673
H244	H	0.306820	-0.453209	0.421651
H245	H	0.271643	-0.506596	0.419053
H246	H	0.288622	-0.465414	0.376027
O247	O	0.427123	-0.530054	0.513005
C248	C	0.394461	-0.554752	0.537474
H249	H	0.358947	-0.533020	0.557911
H250	H	0.389137	-0.560518	0.510825
C251	C	0.457568	-0.629986	0.547496
C252	C	0.413950	-0.603297	0.572600
H253	H	0.469590	-0.659932	0.569161
H254	H	0.479574	-0.613347	0.531008
H255	H	0.453126	-0.634787	0.525289
H256	H	0.418394	-0.598492	0.594801
H257	H	0.391946	-0.619936	0.589091
O258	O	0.427068	-0.371013	0.452321
C259	C	0.394381	-0.324544	0.449671
H260	H	0.358851	-0.322609	0.452963
H261	H	0.389109	-0.315243	0.479856
C262	C	0.457431	-0.291340	0.397512
C263	C	0.413794	-0.288962	0.401551
H264	H	0.469406	-0.269390	0.367830
H265	H	0.479453	-0.322647	0.399298
H266	H	0.453032	-0.283589	0.422668
H267	H	0.418195	-0.296718	0.376398
H268	H	0.391773	-0.257655	0.399759
O269	O	0.328830	-0.338366	0.485158
C270	C	0.279509	-0.330578	0.504934
H271	H	0.272703	-0.361038	0.507338
H272	H	0.265395	-0.328818	0.542072
C273	C	0.262250	-0.245887	0.470165
C274	C	0.253891	-0.283297	0.473115
H275	H	0.246447	-0.216721	0.450540
H276	H	0.295479	-0.251134	0.456843
H277	H	0.250488	-0.244427	0.501116
H278	H	0.265658	-0.284761	0.442165
H279	H	0.220664	-0.278049	0.486431
O280	O	0.164331	-0.213214	0.435303
C281	C	0.171356	-0.180524	0.388506
H282	H	0.141301	-0.145008	0.388617
H283	H	0.206850	-0.175210	0.374203
C284	C	0.208595	-0.243591	0.356421
C285	C	0.171680	-0.199971	0.356557
H286	H	0.208797	-0.255586	0.336712
H287	H	0.203864	-0.265615	0.387949
H288	H	0.238170	-0.239157	0.344503
H289	H	0.142106	-0.204406	0.368480
H290	H	0.176406	-0.177947	0.325030
O291	O	0.084239	-0.213373	0.595804
C292	C	0.059183	-0.242237	0.607880
H293	H	0.042261	-0.227219	0.579830
H294	H	0.084834	-0.279991	0.609492
C295	C	0.040806	-0.261500	0.691236
C296	C	0.020019	-0.243052	0.656786
H297	H	0.016649	-0.262005	0.721404
H298	H	0.057688	-0.242055	0.683100
H299	H	0.062182	-0.292959	0.692573
H300	H	-0.001351	-0.211592	0.655445
H301	H	0.003133	-0.262492	0.664923
H302	H	0.055974	-0.119015	0.558014
O303	O	0.131474	-0.115024	0.402664
C304	C	0.089580	-0.086199	0.390659
H305	H	0.059665	-0.101233	0.418768
H306	H	0.079082	-0.048432	0.389013
C307	C	0.135150	-0.066954	0.307273
C308	C	0.098409	-0.085422	0.341796
H309	H	0.140596	-0.066472	0.277132
H310	H	0.163375	-0.086372	0.315361
H311	H	0.126398	-0.035483	0.305908
H312	H	0.107164	-0.116893	0.343165
H313	H	0.070185	-0.066008	0.333707
O314	O	-0.063173	-0.485404	0.163180
C315	C	-0.038009	-0.456617	0.151046
H316	H	0.001858	-0.475896	0.137411
H317	H	-0.048566	-0.421610	0.122088
C318	C	-0.099083	-0.422741	0.212073
C319	C	-0.050116	-0.446421	0.195331
H320	H	-0.106552	-0.416449	0.239389
H321	H	-0.116037	-0.442133	0.220247
H322	H	-0.107874	-0.393571	0.187937
H323	H	-0.041327	-0.475593	0.219464
H324	H	-0.033161	-0.427033	0.187162
O325	O	-0.030443	-0.452731	0.064992
C326	C	-0.080348	-0.431994	0.077098
H327	H	-0.096421	-0.460344	0.090762
H328	H	-0.095143	-0.416253	0.106026
C329	C	-0.073422	-0.357488	0.016007
C330	C	-0.093163	-0.392308	0.032785
H331	H	-0.081327	-0.333007	-0.011327
H332	H	-0.039800	-0.371458	0.007851
H333	H	-0.085753	-0.344376	0.040118
H334	H	-0.080827	-0.405423	0.008676
H335	H	-0.126783	-0.378339	0.040935
H336	H	0.015032	-0.638195	0.159378
O337	O	0.049802	-0.613268	0.065135
C338	C	0.056791	-0.660062	0.097833
H339	H	0.051176	-0.659967	0.133372
H340	H	0.030267	-0.674301	0.103078
C341	C	0.114737	-0.692189	0.034807
C342	C	0.107845	-0.692073	0.078456
H343	H	0.146228	-0.711936	0.022854
H344	H	0.110027	-0.660663	0.012777
H345	H	0.092630	-0.704054	0.039184
H346	H	0.129947	-0.680203	0.074078
H347	H	0.112560	-0.723598	0.100485
H348	H	-0.058984	-0.490504	0.332300
H349	H	-0.028907	-0.460416	0.362542
H350	H	0.044746	-0.608091	0.436494
H351	H	0.014660	-0.638178	0.406265
H352	H	0.081021	-0.864532	0.371574
O353	O	0.056040	-0.770275	0.337640
C354	C	0.089902	-0.782477	0.296577
H355	H	0.092234	-0.818649	0.301067
H356	H	0.078695	-0.754428	0.264262
C357	C	0.136016	-0.740409	0.283792
C358	C	0.138883	-0.784838	0.289309
H359	H	0.166229	-0.741863	0.279308
H360	H	0.113202	-0.732186	0.311457
H361	H	0.126675	-0.717039	0.256864
H362	H	0.148218	-0.808205	0.316240
H363	H	0.161700	-0.793065	0.261649
O364	O	-0.070358	-0.868224	0.430846
C365	C	-0.116809	-0.835512	0.433445
H366	H	-0.118743	-0.799997	0.430190
H367	H	-0.126065	-0.830207	0.403214
C368	C	-0.150058	-0.898540	0.485514
C369	C	-0.152434	-0.854920	0.481520
H370	H	-0.172034	-0.910512	0.515168
H371	H	-0.118763	-0.920579	0.483762
H372	H	-0.157770	-0.894113	0.460319
H373	H	-0.144716	-0.859348	0.506711
H374	H	-0.183728	-0.832882	0.483278
H375	H	-0.231954	-0.601008	0.442726
O376	O	-0.102946	-0.769995	0.397961
C377	C	-0.109644	-0.741183	0.353443
H378	H	-0.075356	-0.733763	0.325726
H379	H	-0.119445	-0.760370	0.342330
C380	C	-0.192152	-0.702929	0.391310
C381	C	-0.150040	-0.693812	0.357268
H382	H	-0.217072	-0.673709	0.393670
H383	H	-0.187641	-0.722342	0.421303
H384	H	-0.200313	-0.718919	0.382045
H385	H	-0.141877	-0.677828	0.366537
H386	H	-0.154551	-0.674395	0.327277
H387	H	-0.322352	-0.570775	0.472713
H388	H	0.023260	-0.376951	0.354059
H389	H	-0.231721	-0.527215	0.295000
O390	O	-0.325953	-0.492475	0.319827
C391	C	-0.293220	-0.485469	0.273054
H392	H	-0.257714	-0.491074	0.273208
H393	H	-0.287908	-0.511993	0.258769
C394	C	-0.356209	-0.427531	0.240860
C395	C	-0.312601	-0.434411	0.241049
H396	H	-0.368164	-0.396037	0.221117
H397	H	-0.378262	-0.432253	0.272372
H398	H	-0.351776	-0.449638	0.228957
H399	H	-0.317035	-0.412309	0.252957
H400	H	-0.290549	-0.429685	0.209538
