data_functionalizedCrystal
_audit_creation_method	'MofGen! by Chris Wilmer'
_symmetry_space_group_name_H-M	'P1'
_symmetry_Int_Tables_number	1
_symmetry_cell_setting	triclinic
loop_
_symmetry_equiv_pos_as_xyz
  x,y,z
_cell_length_a	27.732064
_cell_length_b	27.732048
_cell_length_c	14.185569
_cell_angle_alpha	76.951782
_cell_angle_beta	103.051318
_cell_angle_gamma	82.646040
loop_
_atom_site_label
_atom_site_type_symbol
_atom_site_fract_x
_atom_site_fract_y
_atom_site_fract_z
O1	O	0.629896	0.068574	-0.083255
O2	O	1.129896	0.568574	0.416745
O3	O	0.489099	0.077317	-0.083298
O4	O	0.989099	0.577317	0.416702
O5	O	0.563873	0.002547	-0.083256
O6	O	1.063873	0.502547	0.416744
O7	O	0.555122	0.143345	-0.083297
O8	O	1.055122	0.643345	0.416703
O9	O	0.585962	-0.019539	0.083591
O10	O	1.085962	0.480461	0.583591
O11	O	0.511187	0.055232	0.083549
O12	O	1.011187	0.555232	0.583549
O13	O	0.651985	0.046489	0.083592
O14	O	1.151985	0.546489	0.583592
Cu15	Cu	0.583603	0.048844	0.098805
Cu16	Cu	1.083603	0.548844	0.598805
Cu17	Cu	0.557481	0.074962	-0.098511
Cu18	Cu	1.057481	0.574962	0.401489
O19	O	0.577211	0.121260	0.083550
O20	O	1.077211	0.621260	0.583550
C21	C	0.482136	0.066091	0.000120
C22	C	0.982136	0.566091	0.500120
C23	C	0.428479	0.065537	0.000105
C24	C	0.928479	0.565537	0.500105
C25	C	0.051416	0.017560	0.000176
C26	C	0.551416	0.517560	0.500176
C27	C	0.253072	0.019610	0.000149
C28	C	0.753072	0.519610	0.500149
O29	O	0.284331	-0.017618	0.000198
O30	O	0.784331	0.482382	0.500198
N31	N	0.272198	0.063946	0.000132
N32	N	0.772198	0.563946	0.500132
C33	C	0.240906	0.107773	0.000128
C34	C	0.740906	0.607773	0.500128
O35	O	0.261802	0.145529	0.000123
O36	O	0.761802	0.645529	0.500123
C37	C	0.039251	0.105722	0.000162
C38	C	0.539251	0.605722	0.500162
C39	C	0.020128	0.061383	0.000169
C40	C	0.520128	0.561383	0.500169
C41	C	0.032292	-0.026775	0.000184
C42	C	0.532292	0.473225	0.500184
C43	C	-0.018120	-0.027286	0.000185
C44	C	0.481880	0.472714	0.500185
C45	C	-0.049408	0.016538	0.000178
C46	C	0.450592	0.516538	0.500178
C47	C	-0.030284	0.060872	0.000170
C48	C	0.469716	0.560872	0.500170
C49	C	0.007961	0.149546	0.000165
C50	C	0.507961	0.649546	0.500165
C51	C	-0.042455	0.149029	0.000176
C52	C	0.457545	0.649029	0.500176
C53	C	-0.061578	0.104691	0.000183
C54	C	0.438422	0.604691	0.500183
C55	C	-0.111984	0.104184	0.000164
C56	C	0.388016	0.604184	0.500164
N57	N	-0.131109	0.059848	0.000182
N58	N	0.368891	0.559848	0.500182
C59	C	-0.099821	0.016024	0.000189
C60	C	0.400179	0.516024	0.500189
C61	C	0.346778	0.108847	0.000108
C62	C	0.846778	0.608847	0.500108
C63	C	0.397191	0.109360	0.000098
C64	C	0.897191	0.609360	0.500098
C65	C	0.409354	0.021197	0.000121
C66	C	0.909354	0.521197	0.500121
C67	C	0.358939	0.020685	0.000124
C68	C	0.858939	0.520685	0.500124
C69	C	0.327653	0.064510	0.000125
C70	C	0.827653	0.564510	0.500125
C71	C	-0.205691	0.014954	0.000190
C72	C	0.294309	0.514954	0.500190
C73	C	-0.256108	0.014447	0.000187
C74	C	0.243892	0.514447	0.500187
C75	C	-0.268266	0.102610	0.000169
C76	C	0.231734	0.602610	0.500169
C77	C	-0.217854	0.103118	0.000167
C78	C	0.282146	0.603118	0.500167
C79	C	-0.186566	0.059285	0.000181
C80	C	0.313434	0.559285	0.500181
O81	O	-0.143270	0.141390	0.000127
O82	O	0.356730	0.641390	0.500127
O83	O	-0.120724	-0.021730	0.000216
O84	O	0.379276	0.478270	0.500216
C85	C	0.101828	0.018071	0.000175
C86	C	0.601828	0.518071	0.500175
C87	C	0.120952	0.062406	0.000166
C88	C	0.620952	0.562406	0.500166
C89	C	0.089664	0.106229	0.000159
C90	C	0.589664	0.606229	0.500159
C91	C	0.171365	0.062919	0.000156
C92	C	0.671365	0.562919	0.500156
C93	C	0.202653	0.019096	0.000163
C94	C	0.702653	0.519096	0.500163
C95	C	0.183528	-0.025241	0.000181
C96	C	0.683528	0.474759	0.500181
C97	C	0.133116	-0.025752	0.000182
C98	C	0.633116	0.474248	0.500182
C99	C	0.108789	0.150566	0.000142
C100	C	0.608789	0.650566	0.500142
C101	C	0.159201	0.151074	0.000140
C102	C	0.659201	0.651074	0.500140
C103	C	0.190489	0.107250	0.000147
C104	C	0.690489	0.607250	0.500147
C105	C	0.574734	-0.026503	0.000170
C106	C	1.074734	0.473497	0.500170
C107	C	0.574182	-0.080159	0.000178
C108	C	1.074182	0.419841	0.500178
C109	C	0.614881	-0.418967	0.000139
C110	C	1.114881	0.081033	0.500139
C111	C	0.612828	-0.620625	0.000124
C112	C	1.112828	-0.120625	0.500124
O113	O	0.650044	-0.651874	0.000092
O114	O	1.150044	-0.151874	0.500092
N115	N	0.568491	-0.639749	0.000112
N116	N	1.068491	-0.139749	0.500112
C117	C	0.524664	-0.608455	0.000096
C118	C	1.024664	-0.108455	0.500096
O119	O	0.486905	-0.629348	0.000075
O120	O	0.986905	-0.129348	0.500075
C121	C	0.526717	-0.406797	0.000104
C122	C	1.026717	0.093203	0.500104
C123	C	0.571057	-0.387677	0.000127
C124	C	1.071057	0.112323	0.500127
C125	C	0.659218	-0.399846	0.000161
C126	C	1.159218	0.100154	0.500161
C127	C	0.659731	-0.349435	0.000170
C128	C	1.159731	0.150565	0.500170
C129	C	0.615908	-0.318145	0.000157
C130	C	1.115908	0.181855	0.500157
C131	C	0.571571	-0.337266	0.000136
C132	C	1.071571	0.162734	0.500136
C133	C	0.482889	-0.375503	0.000081
C134	C	0.982889	0.124497	0.500081
C135	C	0.483406	-0.325086	0.000081
C136	C	0.983406	0.174914	0.500081
C137	C	0.527746	-0.305966	0.000103
C138	C	1.027746	0.194034	0.500103
C139	C	0.528261	-0.255566	0.000132
C140	C	1.028261	0.244434	0.500132
N141	N	0.572597	-0.236441	0.000145
N142	N	1.072597	0.263559	0.500145
C143	C	0.616421	-0.267731	0.000157
C144	C	1.116421	0.232269	0.500157
C145	C	0.523590	-0.714329	0.000095
C146	C	1.023590	-0.214329	0.500095
C147	C	0.523077	-0.764744	0.000094
C148	C	1.023077	-0.264744	0.500094
C149	C	0.611241	-0.776909	0.000121
C150	C	1.111241	-0.276909	0.500121
C151	C	0.611754	-0.726495	0.000128
C152	C	1.111754	-0.226495	0.500128
C153	C	0.567926	-0.695204	0.000107
C154	C	1.067926	-0.195204	0.500107
C155	C	0.617496	-0.161864	0.000177
C156	C	1.117496	0.338136	0.500177
C157	C	0.618006	-0.111449	0.000191
C158	C	1.118006	0.388551	0.500191
C159	C	0.529842	-0.099287	0.000159
C160	C	1.029842	0.400713	0.500159
C161	C	0.529332	-0.149699	0.000151
C162	C	1.029332	0.350301	0.500151
C163	C	0.573163	-0.180986	0.000157
C164	C	1.073163	0.319014	0.500157
O165	O	0.491063	-0.224287	0.000154
O166	O	0.991063	0.275713	0.500154
O167	O	0.654172	-0.246826	0.000156
O168	O	1.154172	0.253174	0.500156
C169	C	0.614367	-0.469378	0.000130
C170	C	1.114367	0.030622	0.500130
C171	C	0.570030	-0.488499	0.000108
C172	C	1.070030	0.011501	0.500108
C173	C	0.526207	-0.457209	0.000096
C174	C	1.026207	0.042791	0.500096
C175	C	0.569517	-0.538913	0.000108
C176	C	1.069517	-0.038913	0.500108
C177	C	0.613341	-0.570203	0.000121
C178	C	1.113341	-0.070203	0.500121
C179	C	0.657677	-0.551078	0.000133
C180	C	1.157677	-0.051078	0.500133
C181	C	0.658191	-0.500667	0.000142
C182	C	1.158191	-0.000667	0.500142
C183	C	0.481870	-0.476334	0.000083
C184	C	0.981870	0.023666	0.500083
C185	C	0.481361	-0.526745	0.000075
C186	C	0.981361	-0.026745	0.500075
C187	C	0.525184	-0.558035	0.000088
C188	C	1.025184	-0.058035	0.500088
C189	C	0.658948	0.057716	0.000171
C190	C	1.158948	0.557716	0.500171
C191	C	0.712604	0.058271	0.000180
C192	C	1.212604	0.558271	0.500180
C193	C	0.566349	0.150310	0.000122
C194	C	1.066349	0.650310	0.500122
C195	C	0.566900	0.203967	0.000107
C196	C	1.066900	0.703967	0.500107
N197	N	0.601980	0.030473	0.237586
N198	N	1.101980	0.530473	0.737586
N199	N	0.539108	0.093329	-0.237292
N200	N	1.039108	0.593329	0.262708
C201	C	0.485116	0.147282	0.605171
C202	C	0.985116	0.647282	1.105171
C203	C	0.499040	0.133369	0.710200
C204	C	0.999040	0.633369	1.210200
C205	C	0.565266	0.067184	0.710198
C206	C	1.065266	0.567184	1.210198
C207	C	0.551346	0.081090	0.605167
C208	C	1.051346	0.581090	1.105167
C209	C	0.511272	0.121139	0.552661
C210	C	1.011272	0.621139	1.052661
C211	C	0.577501	0.054947	0.552657
C212	C	1.077501	0.554947	1.052657
C213	C	0.563584	0.068853	0.447635
C214	C	1.063584	0.568853	0.947635
C215	C	0.523512	0.108902	0.395122
C216	C	1.023512	0.608902	0.895122
C217	C	0.497355	0.135045	0.447639
C218	C	0.997355	0.635045	0.947639
C219	C	0.617578	0.014900	0.605164
C220	C	1.117578	0.514900	1.105164
C221	C	0.643733	-0.011243	0.552655
C222	C	1.143733	0.488757	1.052655
C223	C	0.629814	0.002661	0.447631
C224	C	1.129814	0.502661	0.947631
C225	C	0.589742	0.042710	0.395118
C226	C	1.089742	0.542710	0.895118
C227	C	0.655972	-0.023482	0.395114
C228	C	1.155972	0.476518	0.895114
C229	C	0.642055	-0.009576	0.290092
C230	C	1.142055	0.490424	0.790092
C231	C	0.575825	0.056616	0.290096
C232	C	1.075825	0.556616	0.790096
H233	H	-0.180222	-0.020738	0.000201
H234	H	0.319778	0.479262	0.500201
H235	H	0.597896	0.034577	0.752960
H236	H	1.097896	0.534577	1.252960
H237	H	-0.202283	0.139221	0.000160
H238	H	0.297717	0.639221	0.500160
Cl239	Cl	0.427142	-0.399527	0.000046
Cl240	Cl	0.927142	0.100473	0.500046
H241	H	0.321308	0.144537	0.000108
H242	H	0.821308	0.644537	0.500108
Cl243	Cl	-0.081783	0.204127	0.000181
Cl244	Cl	0.418217	0.704127	0.500181
Cl245	Cl	0.674938	-0.042441	0.224078
Cl246	Cl	1.174938	0.457559	0.724078
Cl247	Cl	-0.042154	-0.083027	0.000186
Cl248	Cl	0.457846	0.416973	0.500186
Cl249	Cl	0.672598	-0.201190	0.000186
Cl250	Cl	1.172598	0.298810	0.500186
Cl251	Cl	0.069461	0.205665	0.000128
Cl252	Cl	0.569461	0.705665	0.500128
Cl253	Cl	0.706355	-0.073824	0.461131
Cl254	Cl	1.206355	0.426176	0.961131
Cl255	Cl	0.031990	0.205289	0.000156
Cl256	Cl	0.531990	0.705289	0.500156
Cl257	Cl	0.448697	-0.033895	0.000130
Cl258	Cl	0.948697	0.466105	0.500130
H259	H	0.117550	-0.061857	0.000188
H260	H	0.617550	0.438143	0.500188
H261	H	0.464718	0.167654	0.404887
H262	H	0.964718	0.667654	0.904887
Cl263	Cl	0.715473	-0.325402	0.000170
Cl264	Cl	1.215473	0.174598	0.500170
H265	H	0.654115	-0.095885	0.000212
H266	H	1.154115	0.404115	0.500212
H267	H	0.412755	0.145466	0.000078
H268	H	0.912755	0.645466	0.500078
Cl269	Cl	0.222870	-0.080332	0.000186
Cl270	Cl	0.722870	0.419668	0.500186
Cl271	Cl	-0.280146	-0.041295	0.000190
Cl272	Cl	0.219854	0.458705	0.500190
H273	H	0.694297	-0.485105	0.000161
H274	H	1.194297	0.014895	0.500161
Cl275	Cl	0.473591	-0.173739	0.000142
Cl276	Cl	0.973591	0.326261	0.500142
H277	H	0.628909	0.003581	0.690680
H278	H	1.128909	0.503581	1.190680
Cl279	Cl	0.666332	-0.816253	0.000131
Cl280	Cl	1.166332	-0.316253	0.500131
H281	H	0.174765	0.187183	0.000127
H282	H	0.674765	0.687183	0.500127
H283	H	0.057763	-0.062463	0.000193
H284	H	0.557763	0.437537	0.500193
Cl285	Cl	0.694112	-0.061588	0.618669
Cl286	Cl	1.194112	0.438412	1.118669
Cl287	Cl	0.714318	-0.439174	0.000178
Cl288	Cl	1.214318	0.060826	0.500178
Cl289	Cl	0.428304	-0.285752	0.000053
Cl290	Cl	0.928304	0.214248	0.500053
Cl291	Cl	0.468486	-0.674999	0.000070
Cl292	Cl	0.968486	-0.174999	0.500070
H293	H	0.343373	-0.015419	0.000131
H294	H	0.843373	0.484581	0.500131
H295	H	-0.293751	0.138290	0.000159
H296	H	0.206249	0.638290	0.500159
H297	H	0.477738	0.154662	0.752948
H298	H	0.977738	0.654662	1.252948
H299	H	0.647860	-0.710931	0.000145
H300	H	1.147860	-0.210931	0.500145
Cl301	Cl	0.467334	-0.788777	0.000085
Cl302	Cl	0.967334	-0.288777	0.500085
H303	H	0.693360	-0.576564	0.000148
H304	H	1.193360	-0.076564	0.500148
Cl305	Cl	0.425613	-0.550776	0.000052
Cl306	Cl	0.925613	-0.050776	0.500052
H307	H	0.494162	-0.073803	0.000153
H308	H	0.994162	0.426197	0.500153
Cl309	Cl	0.426772	-0.437005	0.000066
Cl310	Cl	0.926772	0.062995	0.500066
Cl311	Cl	0.525439	0.106960	0.224085
Cl312	Cl	1.025439	0.606960	0.724085
Cl313	Cl	0.506018	0.126386	0.263092
Cl314	Cl	1.006018	0.626386	0.763092
Cl315	Cl	0.434730	0.197626	0.539160
Cl316	Cl	0.934730	0.697626	1.039160
