data_functionalizedCrystal
_audit_creation_method	'MofGen! by Chris Wilmer'
_symmetry_space_group_name_H-M	'P1'
_symmetry_Int_Tables_number	1
_symmetry_cell_setting	triclinic
loop_
_symmetry_equiv_pos_as_xyz
  x,y,z
_cell_length_a	18.050591
_cell_length_b	25.639239
_cell_length_c	18.050583
_cell_angle_alpha	89.961658
_cell_angle_beta	89.977979
_cell_angle_gamma	90.034692
loop_
_atom_site_label
_atom_site_type_symbol
_atom_site_fract_x
_atom_site_fract_y
_atom_site_fract_z
Zn1	Zn	1.135247	-0.208169	-0.420021
Zn2	Zn	1.135132	-0.295618	-0.295826
Zn3	Zn	1.011063	-0.208192	-0.295832
Zn4	Zn	1.010991	-0.295569	-0.419962
O5	O	1.073108	-0.251887	-0.357910
O6	O	1.239156	-0.219780	-0.403568
O7	O	1.118657	-0.284050	-0.191902
O8	O	1.027615	-0.135024	-0.312333
O9	O	1.239072	-0.284028	-0.312323
O10	O	1.118852	-0.135007	-0.403574
O11	O	1.027504	-0.219819	-0.191906
O12	O	0.907129	-0.219772	-0.312276
O13	O	1.027491	-0.283945	-0.523894
O14	O	0.907076	-0.283968	-0.403473
O15	O	1.118781	-0.219733	-0.523938
O16	O	1.118587	-0.368776	-0.312266
O17	O	1.027381	-0.368741	-0.403468
C18	C	0.880156	-0.251867	-0.357869
C19	C	0.797610	-0.251872	-0.357869
C20	C	1.072983	-0.387730	-0.357876
C21	C	1.072998	-0.445844	-0.357886
C22	C	0.598167	-0.216922	-0.308390
C23	C	0.548735	-0.264612	-0.290112
C24	C	0.646480	-0.251888	-0.357903
C25	C	0.548831	-0.204213	-0.376179
C26	C	0.500495	-0.251899	-0.357934
C27	C	0.598135	-0.299603	-0.339589
C28	C	0.598235	-0.239172	-0.425688
C29	C	0.548825	-0.286896	-0.407435
C30	C	0.730578	-0.251880	-0.357883
C31	C	0.416398	-0.251911	-0.357954
C32	C	1.120723	-0.806213	-0.310502
C33	C	1.120752	-0.860817	-0.310512
O34	O	1.161200	-0.889059	-0.270187
N35	N	1.073239	-0.888126	-0.357959
C36	C	1.025699	-0.860828	-0.405405
O37	O	0.985289	-0.889070	-0.445764
C38	C	1.025675	-0.806225	-0.405398
C39	C	1.073186	-0.778918	-0.357943
C40	C	1.168231	-0.778906	-0.263051
C41	C	1.168201	-0.724306	-0.263040
C42	C	1.120663	-0.697011	-0.310481
C43	C	1.073156	-0.724318	-0.357932
C44	C	0.978139	-0.778928	-0.452847
C45	C	0.978119	-0.724321	-0.452837
C46	C	1.025630	-0.697014	-0.405381
C47	C	1.025588	-0.642423	-0.405362
N48	N	1.073101	-0.615114	-0.357914
C49	C	1.120639	-0.642408	-0.310474
C50	C	1.025755	-0.975499	-0.405416
C51	C	1.025775	-1.030101	-0.405420
C52	C	1.120829	-1.030086	-0.310528
C53	C	1.120805	-0.975483	-0.310521
C54	C	1.073268	-0.948189	-0.357969
C55	C	1.120572	-0.527743	-0.310455
C56	C	1.120536	-0.473138	-0.310446
C57	C	1.025485	-0.473157	-0.405340
C58	C	1.025518	-0.527758	-0.405347
C59	C	1.073068	-0.555049	-0.357901
O60	O	0.985163	-0.614147	-0.445668
O61	O	1.161049	-0.614159	-0.270129
C62	C	1.266814	-0.251907	-0.357952
C63	C	1.349360	-0.251915	-0.357970
C64	C	1.073141	-0.251831	-0.551616
C65	C	1.073155	-0.251807	-0.634162
C66	C	1.073254	-0.115514	-0.357961
C67	C	1.073316	-0.057400	-0.357982
C68	C	1.122848	-0.216872	-0.833636
C69	C	1.055118	-0.204072	-0.883024
C70	C	1.073185	-0.251798	-0.785292
C71	C	1.140943	-0.264565	-0.882986
C72	C	1.073220	-0.251789	-0.931277
C73	C	1.005419	-0.238974	-0.833593
C74	C	1.091289	-0.299489	-0.833550
C75	C	1.023512	-0.286708	-0.882916
C76	C	1.073166	-0.251803	-0.701194
C77	C	1.073231	-0.251785	-1.015374
C78	C	1.073118	-0.251905	-0.164958
C79	C	1.073248	-0.251781	-0.082413
H80	H	0.619832	-0.187384	-0.266473
C81	C	1.173118	-1.060117	-0.258342
H82	H	1.166328	-1.096546	-0.265150
H83	H	1.162276	-1.051204	-0.208431
H84	H	1.223010	-1.051133	-0.269261
C85	C	0.519575	-0.149744	-0.397051
H86	H	0.536480	-0.124941	-0.361812
H87	H	0.466954	-0.150213	-0.397358
H88	H	0.537260	-0.140468	-0.444856
H89	H	1.164778	-0.187317	-0.811995
H90	H	0.939447	-0.801151	-0.491487
C91	C	0.519356	-0.279152	-0.212693
H92	H	0.536246	-0.254270	-0.177558
H93	H	0.536962	-0.312782	-0.199379
H94	H	0.466732	-0.279359	-0.213379
C95	C	1.220516	-0.808924	-0.210854
H96	H	1.213735	-0.845356	-0.217645
H97	H	1.209663	-0.800001	-0.160949
H98	H	1.270407	-0.799937	-0.221769
C99	C	1.172803	-0.443104	-0.258246
H100	H	1.201123	-0.467183	-0.230001
H101	H	1.144408	-0.421840	-0.225853
H102	H	1.205135	-0.421766	-0.286690
C103	C	0.925828	-0.694301	-0.505031
H104	H	0.897537	-0.718387	-0.533289
H105	H	0.954206	-0.672963	-0.537414
H106	H	0.893470	-0.673039	-0.476586
H107	H	1.106611	-0.339813	-0.811804
C108	C	0.519736	-0.326889	-0.464019
H109	H	0.490799	-0.309497	-0.500380
H110	H	0.490069	-0.352090	-0.439299
H111	H	0.560398	-0.343747	-0.487298
H112	H	0.948115	-0.228125	-0.811988
C113	C	1.173072	-0.945451	-0.258327
H114	H	1.201387	-0.969531	-0.230079
H115	H	1.144680	-0.924183	-0.225935
H116	H	1.205408	-0.924117	-0.286771
H117	H	1.039816	-0.163737	-0.904756
C118	C	0.973509	-1.060132	-0.457616
H119	H	0.945200	-1.036051	-0.485870
H120	H	0.941178	-1.081472	-0.429184
H121	H	1.001912	-1.081393	-0.490014
C122	C	0.973257	-0.557796	-0.457545
H123	H	0.944944	-0.533718	-0.485799
H124	H	0.940928	-0.579140	-0.429114
H125	H	1.001666	-0.579053	-0.489941
H126	H	0.619703	-0.339937	-0.324080
C127	C	0.627637	-0.224613	-0.503085
H128	H	0.610788	-0.190708	-0.515988
H129	H	0.610010	-0.249109	-0.538395
H130	H	0.680261	-0.225028	-0.502616
H131	H	1.159293	-0.549957	-0.271822
H132	H	1.198229	-0.275366	-0.904684
H133	H	1.206890	-0.702076	-0.224400
C134	C	0.973453	-0.945480	-0.457604
H135	H	0.945158	-0.969569	-0.485854
H136	H	1.001824	-0.924143	-0.489993
H137	H	0.941098	-0.924218	-0.429155
C138	C	0.973201	-0.443127	-0.457524
H139	H	0.979999	-0.406697	-0.450724
H140	H	0.923311	-0.452111	-0.446615
H141	H	0.984053	-0.452039	-0.507437
C142	C	0.966734	-0.326601	-0.911973
H143	H	0.918658	-0.317443	-0.894969
H144	H	0.979171	-0.360380	-0.894284
H145	H	0.967336	-0.326581	-0.964600
