data_functionalizedCrystal
_audit_creation_method	'MofGen! by Chris Wilmer'
_symmetry_space_group_name_H-M	'P1'
_symmetry_Int_Tables_number	1
_symmetry_cell_setting	triclinic
loop_
_symmetry_equiv_pos_as_xyz
  x,y,z
_cell_length_a	14.044220
_cell_length_b	15.944499
_cell_length_c	12.503572
_cell_angle_alpha	93.526055
_cell_angle_beta	86.164750
_cell_angle_gamma	88.333243
loop_
_atom_site_label
_atom_site_type_symbol
_atom_site_fract_x
_atom_site_fract_y
_atom_site_fract_z
O1	O	1.263136	0.198064	-0.089192
O2	O	1.596469	0.531398	0.244142
O3	O	1.929803	0.864731	0.577475
O4	O	0.987169	0.190755	-0.089219
O5	O	1.320503	0.524089	0.244114
O6	O	1.653836	0.857422	0.577447
O7	O	1.132714	0.072698	-0.089207
O8	O	1.466048	0.406032	0.244127
O9	O	1.799381	0.739365	0.577460
O10	O	1.117591	0.316121	-0.089205
O11	O	1.450924	0.649455	0.244129
O12	O	1.784258	0.982788	0.577462
O13	O	1.121768	0.081593	0.089434
O14	O	1.455102	0.414926	0.422768
O15	O	1.788435	0.748260	0.756101
O16	O	0.976224	0.199650	0.089422
O17	O	1.309557	0.532983	0.422755
O18	O	1.642890	0.866317	0.756088
O19	O	1.252190	0.206959	0.089449
O20	O	1.585523	0.540292	0.422783
O21	O	1.918857	0.873626	0.756116
Cu22	Cu	1.113207	0.204117	0.105747
Cu23	Cu	1.446541	0.537450	0.439080
Cu24	Cu	1.779874	0.870783	0.772413
Cu25	Cu	1.126152	0.193598	-0.105517
Cu26	Cu	1.459485	0.526931	0.227816
Cu27	Cu	1.792819	0.860264	0.561150
O28	O	1.106645	0.325016	0.089436
O29	O	1.439978	0.658349	0.422770
O30	O	1.773312	0.991683	0.756103
C31	C	0.946383	0.192004	0.000097
C32	C	1.279716	0.525337	0.333431
C33	C	1.613049	0.858670	0.666764
C34	C	0.841159	0.182462	0.000086
C35	C	1.174492	0.515795	0.333420
C36	C	1.507826	0.849129	0.666753
C37	C	0.648499	0.165019	0.000108
C38	C	0.981832	0.498353	0.333441
C39	C	1.315166	0.831686	0.666774
C40	C	0.590856	0.232691	0.000113
C41	C	0.924189	0.566024	0.333446
C42	C	1.257522	0.899358	0.666779
C43	C	0.483653	0.222986	0.000124
C44	C	0.816986	0.556319	0.333458
C45	C	1.150319	0.889652	0.666791
C46	C	0.755712	0.174723	0.000096
C47	C	1.089045	0.508057	0.333429
C48	C	1.422378	0.841390	0.666762
C49	C	1.126622	0.045804	0.000111
C50	C	1.459956	0.379138	0.333444
C51	C	1.793289	0.712471	0.666778
C52	C	1.124767	-0.047583	0.000103
C53	C	1.458100	0.285750	0.333436
C54	C	1.791433	0.619083	0.666769
C55	C	1.209324	-0.332787	0.000117
C56	C	1.542657	0.000546	0.333450
C57	C	1.875991	0.333880	0.666784
C58	C	1.159972	-0.270668	0.088196
C59	C	1.493305	0.062666	0.421529
C60	C	1.826638	0.395999	0.754863
C61	C	1.118022	-0.383724	0.000115
C62	C	1.451355	-0.050391	0.333448
C63	C	1.784689	0.282942	0.666781
C64	C	1.170739	-0.279445	-0.087930
C65	C	1.504072	0.053888	0.245403
C66	C	1.837406	0.387222	0.578737
C67	C	1.121341	-0.218567	0.000107
C68	C	1.454674	0.114766	0.333440
C69	C	1.788008	0.448099	0.666774
C70	C	1.068640	-0.322831	0.088266
C71	C	1.401973	0.010502	0.421599
C72	C	1.735306	0.343835	0.754933
C73	C	1.079425	-0.331618	-0.087939
C74	C	1.412758	0.001715	0.245394
C75	C	1.746091	0.335049	0.578728
C76	C	1.030005	-0.269520	0.000161
C77	C	1.363338	0.063813	0.333495
C78	C	1.696671	0.397147	0.666828
C79	C	1.116113	-0.478867	0.000120
C80	C	1.449446	-0.145534	0.333453
C81	C	1.782779	0.187800	0.666787
C82	C	1.123243	-0.123426	0.000109
C83	C	1.456576	0.209907	0.333443
C84	C	1.789909	0.543241	0.666776
C85	C	1.292977	0.205710	0.000130
C86	C	1.626310	0.539044	0.333463
C87	C	1.959643	0.872377	0.666797
C88	C	1.398201	0.215252	0.000134
C89	C	1.731534	0.548585	0.333467
C90	C	2.064868	0.881919	0.666801
C91	C	1.112737	0.351910	0.000116
C92	C	1.446071	0.685243	0.333450
C93	C	1.779404	1.018577	0.666783
C94	C	1.114593	0.445297	0.000118
C95	C	1.447927	0.778631	0.333451
C96	C	1.781260	1.111964	0.666784
N97	N	1.104110	0.211515	0.254338
N98	N	1.437443	0.544848	0.587671
N99	N	1.770776	0.878182	0.921005
N100	N	1.135257	0.186193	-0.254108
N101	N	1.468591	0.519526	0.079225
N102	N	1.801924	0.852860	0.412558
C103	C	1.090726	0.222406	0.473452
C104	C	1.424060	0.555739	0.806786
C105	C	1.757393	0.889072	1.140119
C106	C	1.148637	0.175305	0.526784
C107	C	1.481971	0.508638	0.860118
C108	C	1.815304	0.841972	1.193451
C109	C	1.141191	0.181365	0.648707
C110	C	1.474524	0.514698	0.982040
C111	C	1.807857	0.848031	1.315374
C112	C	1.098172	0.216347	0.351519
C113	C	1.431505	0.549680	0.684852
C114	C	1.764839	0.883014	1.018185
H115	H	1.285090	-0.360439	0.000209
H116	H	1.618423	-0.027105	0.333542
H117	H	1.951757	0.306228	0.666876
H118	H	1.194027	-0.243977	0.162665
H119	H	1.527361	0.089356	0.495999
H120	H	1.860694	0.422689	0.829332
H121	H	1.035559	0.267278	0.519355
H122	H	1.368892	0.600612	0.852688
H123	H	1.702226	0.933945	1.186021
O124	O	1.227942	-0.253932	-0.186569
O125	O	1.561275	0.079401	0.146764
O126	O	1.894608	0.412734	0.480098
H127	H	1.302333	-0.279379	-0.186372
H128	H	1.635666	0.053954	0.146961
H129	H	1.968999	0.387287	0.480295
H130	H	0.617339	0.099800	0.000113
H131	H	0.950672	0.433133	0.333446
H132	H	1.284006	0.766467	0.666780
H133	H	0.954164	-0.242014	0.000205
H134	H	1.287498	0.091319	0.333538
H135	H	1.620831	0.424652	0.666872
O136	O	0.632121	0.319092	0.000092
O137	O	0.965454	0.652425	0.333425
O138	O	1.298788	0.985758	0.666759
H139	H	0.711069	0.313257	0.000072
H140	H	1.044403	0.646591	0.333405
H141	H	1.377736	0.979924	0.666738
O142	O	1.011489	-0.348198	0.187018
O143	O	1.344822	-0.014864	0.520351
O144	O	1.678156	0.318469	0.853685
H145	H	1.010570	-0.417816	0.186269
H146	H	1.343903	-0.084482	0.519602
H147	H	1.677236	0.248851	0.852936
H148	H	1.203809	0.130431	0.480876
H149	H	1.537143	0.463764	0.814210
H150	H	1.870476	0.797098	1.147543
H151	H	1.045402	-0.358328	-0.162412
H152	H	1.378735	-0.024995	0.170921
H153	H	1.712069	0.308339	0.504255
