data_functionalizedCrystal
_audit_creation_method	'MofGen! by Chris Wilmer'
_symmetry_space_group_name_H-M	'P1'
_symmetry_Int_Tables_number	1
_symmetry_cell_setting	triclinic
loop_
_symmetry_equiv_pos_as_xyz
  x,y,z
_cell_length_a	11.792241
_cell_length_b	11.792254
_cell_length_c	10.868271
_cell_angle_alpha	89.995741
_cell_angle_beta	90.000150
_cell_angle_gamma	95.803993
loop_
_atom_site_label
_atom_site_type_symbol
_atom_site_fract_x
_atom_site_fract_y
_atom_site_fract_z
O1	O	-0.155637	1.506900	-0.102307
O2	O	0.177696	1.840233	0.231027
O3	O	0.511030	2.173566	0.564360
O4	O	-0.171655	1.176561	-0.102308
O5	O	0.161678	1.509894	0.231026
O6	O	0.495012	1.843227	0.564359
O7	O	0.001524	1.349747	-0.102315
O8	O	0.334858	1.683080	0.231019
O9	O	0.668191	2.016413	0.564352
O10	O	-0.328816	1.333714	-0.102300
O11	O	0.004517	1.667047	0.231033
O12	O	0.337851	2.000380	0.564367
O13	O	0.001531	1.349732	0.102330
O14	O	0.334864	1.683066	0.435663
O15	O	0.668198	2.016399	0.768997
O16	O	-0.171648	1.176546	0.102337
O17	O	0.161685	1.509880	0.435670
O18	O	0.495019	1.843213	0.769004
O19	O	-0.155630	1.506885	0.102338
O20	O	0.177703	1.840219	0.435671
O21	O	0.511037	2.173552	0.769005
Zn22	Zn	-0.163638	1.341714	0.134829
Zn23	Zn	0.169695	1.675047	0.468163
Zn24	Zn	0.503029	2.008380	0.801496
Zn25	Zn	-0.163647	1.341732	-0.134799
Zn26	Zn	0.169686	1.675066	0.198534
Zn27	Zn	0.503020	2.008399	0.531868
O28	O	-0.328809	1.333699	0.102345
O29	O	0.004524	1.667033	0.435678
O30	O	0.337857	2.000366	0.769011
C31	C	-0.170642	1.134263	0.000014
C32	C	0.162691	1.467596	0.333347
C33	C	0.496024	1.800929	0.666681
C34	C	-0.167622	1.008250	0.000013
C35	C	0.165711	1.341583	0.333346
C36	C	0.499044	1.674916	0.666680
C37	C	-0.165168	0.905913	0.000008
C38	C	0.168165	1.239247	0.333341
C39	C	0.501498	1.572580	0.666674
C40	C	-0.162100	0.777527	0.000007
C41	C	0.171233	1.110860	0.333340
C42	C	0.504567	1.444193	0.666673
C43	C	-0.371104	1.334714	0.000024
C44	C	-0.037770	1.668047	0.333358
C45	C	0.295563	2.001380	0.666691
C46	C	-0.497118	1.337728	0.000030
C47	C	-0.163784	1.671061	0.333363
C48	C	0.169549	2.004395	0.666696
C49	C	-0.727830	1.343271	-0.000001
C50	C	-0.394497	1.676604	0.333332
C51	C	-0.061163	2.009938	0.666665
C52	C	-0.599445	1.340191	0.000016
C53	C	-0.266111	1.673525	0.333349
C54	C	0.067222	2.006858	0.666682
C55	C	0.043819	1.348732	0.000003
C56	C	0.377152	1.682066	0.333337
C57	C	0.710485	2.015399	0.666670
C58	C	0.169832	1.345718	-0.000010
C59	C	0.503166	1.679051	0.333323
C60	C	0.836499	2.012385	0.666656
C61	C	-0.156643	1.549183	0.000013
C62	C	0.176691	1.882517	0.333347
C63	C	0.510024	2.215850	0.666680
C64	C	-0.159663	1.675196	0.000006
C65	C	0.173671	2.008530	0.333340
C66	C	0.507004	2.341863	0.666673
N67	N	-0.163631	1.341709	0.318843
N68	N	0.169702	1.675042	0.652177
N69	N	0.503035	2.008376	0.985510
N70	N	-0.163645	1.341746	-0.318813
N71	N	0.169688	1.675079	0.014520
N72	N	0.503022	2.008413	0.347854
C73	C	-0.163645	1.341727	0.569849
C74	C	0.169689	1.675060	0.903183
C75	C	0.503022	2.008393	1.236516
C76	C	-0.163640	1.341713	0.430172
C77	C	0.169693	1.675046	0.763505
C78	C	0.503026	2.008380	1.096838
