data_functionalizedCrystal
_audit_creation_method	'MofGen! by Chris Wilmer'
_symmetry_space_group_name_H-M	'P1'
_symmetry_Int_Tables_number	1
_symmetry_cell_setting	triclinic
loop_
_symmetry_equiv_pos_as_xyz
  x,y,z
_cell_length_a	27.731994
_cell_length_b	27.732025
_cell_length_c	26.809956
_cell_angle_alpha	90.018843
_cell_angle_beta	89.997334
_cell_angle_gamma	82.627001
loop_
_atom_site_label
_atom_site_type_symbol
_atom_site_fract_x
_atom_site_fract_y
_atom_site_fract_z
O1	O	0.640944	0.057386	-0.041394
O2	O	0.974277	0.390719	0.291940
O3	O	1.307610	0.724053	0.625273
O4	O	0.500146	0.066159	-0.041408
O5	O	0.833479	0.399492	0.291925
O6	O	1.166812	0.732826	0.625259
O7	O	0.574923	-0.008626	-0.041415
O8	O	0.908256	0.324708	0.291918
O9	O	1.241590	0.658041	0.625251
O10	O	0.566166	0.132171	-0.041386
O11	O	0.899499	0.465504	0.291947
O12	O	1.232833	0.798838	0.625281
O13	O	0.574909	-0.008614	0.041544
O14	O	0.908242	0.324719	0.374877
O15	O	1.241576	0.658052	0.708210
O16	O	0.500132	0.066170	0.041551
O17	O	0.833465	0.399504	0.374885
O18	O	1.166798	0.732837	0.708218
O19	O	0.640929	0.057397	0.041566
O20	O	0.974263	0.390731	0.374899
O21	O	1.307596	0.724064	0.708232
Zn22	Zn	0.570528	0.061786	0.054730
Zn23	Zn	0.903862	0.395119	0.388063
Zn24	Zn	1.237195	0.728452	0.721397
Zn25	Zn	0.570547	0.061771	-0.054572
Zn26	Zn	0.903880	0.395104	0.278761
Zn27	Zn	1.237214	0.728437	0.612094
O28	O	0.566152	0.132182	0.041573
O29	O	0.899485	0.465516	0.374907
O30	O	1.232819	0.798849	0.708240
C31	C	0.482131	0.065985	0.000070
C32	C	0.815465	0.399318	0.333403
C33	C	1.148798	0.732651	0.666736
C34	C	0.428475	0.065442	0.000063
C35	C	0.761808	0.398776	0.333397
C36	C	1.095142	0.732109	0.666730
C37	C	0.095749	0.062033	0.045303
C38	C	0.429082	0.395366	0.378636
C39	C	0.762416	0.728699	0.711970
C40	C	-0.105909	0.059971	0.045308
C41	C	0.227424	0.393304	0.378641
C42	C	0.560758	0.726638	0.711975
O43	O	-0.131988	0.059689	0.083767
O44	O	0.201345	0.393022	0.417100
O45	O	0.534679	0.726356	0.750433
N46	N	-0.131116	0.059709	0.000087
N47	N	0.202217	0.393042	0.333420
N48	N	0.535551	0.726376	0.666754
C49	C	-0.105905	0.059959	-0.045139
C50	C	0.227428	0.393292	0.288195
C51	C	0.560762	0.726626	0.621528
O52	O	-0.131972	0.059683	-0.083602
O53	O	0.201362	0.393017	0.249731
O54	O	0.534695	0.726350	0.583065
C55	C	0.095752	0.062017	-0.045143
C56	C	0.429086	0.395350	0.288190
C57	C	0.762419	0.728684	0.621523
C58	C	0.120956	0.062284	0.000081
C59	C	0.454290	0.395618	0.333414
C60	C	0.787623	0.728951	0.666747
C61	C	0.120953	0.062299	0.090523
C62	C	0.454286	0.395633	0.423857
C63	C	0.787620	0.728966	0.757190
C64	C	0.171364	0.062817	0.090521
C65	C	0.504697	0.396151	0.423855
C66	C	0.838031	0.729484	0.757188
C67	C	0.196571	0.063069	0.045299
C68	C	0.529905	0.396402	0.378633
C69	C	0.863238	0.729735	0.711966
C70	C	0.171367	0.062802	0.000079
C71	C	0.504701	0.396136	0.333412
C72	C	0.838034	0.729469	0.666746
C73	C	0.120963	0.062264	-0.090368
C74	C	0.454296	0.395597	0.242965
C75	C	0.787630	0.728930	0.576298
C76	C	0.171381	0.062777	-0.090366
C77	C	0.504714	0.396110	0.242968
C78	C	0.838047	0.729444	0.576301
C79	C	0.196584	0.063044	-0.045142
C80	C	0.529918	0.396377	0.288192
C81	C	0.863251	0.729711	0.621525
C82	C	0.246986	0.063572	-0.045145
C83	C	0.580319	0.396905	0.288188
C84	C	0.913652	0.730238	0.621522
N85	N	0.272193	0.063834	0.000076
N86	N	0.605526	0.397167	0.333409
N87	N	0.938859	0.730501	0.666743
C88	C	0.246986	0.063582	0.045298
C89	C	0.580319	0.396916	0.378632
C90	C	0.913652	0.730249	0.711965
C91	C	-0.211778	0.058879	-0.045133
C92	C	0.121555	0.392213	0.288200
C93	C	0.454888	0.725546	0.621534
C94	C	-0.262193	0.058366	-0.045132
C95	C	0.071141	0.391699	0.288201
C96	C	0.404474	0.725032	0.621535
C97	C	-0.262193	0.058377	0.045315
C98	C	0.071141	0.391710	0.378648
C99	C	0.404474	0.725044	0.711982
C100	C	-0.211778	0.058894	0.045313
C101	C	0.121555	0.392227	0.378647
C102	C	0.454889	0.725561	0.711980
C103	C	-0.186571	0.059142	0.000088
C104	C	0.146762	0.392475	0.333421
C105	C	0.480095	0.725808	0.666755
C106	C	0.352852	0.064671	0.045291
C107	C	0.686186	0.398004	0.378624
C108	C	1.019519	0.731337	0.711958
C109	C	0.403268	0.065191	0.045285
C110	C	0.736601	0.398524	0.378619
C111	C	1.069934	0.731858	0.711952
C112	C	0.403264	0.065177	-0.045161
C113	C	0.736597	0.398510	0.288172
C114	C	1.069931	0.731844	0.621505
C115	C	0.352853	0.064659	-0.045156
C116	C	0.686186	0.397993	0.288178
C117	C	1.019519	0.731326	0.621511
C118	C	0.327648	0.064405	0.000074
C119	C	0.660982	0.397738	0.333408
C120	C	0.994315	0.731071	0.666741
O121	O	0.273097	0.063849	-0.083583
O122	O	0.606430	0.397182	0.249750
O123	O	0.939763	0.730515	0.583083
O124	O	0.273062	0.063847	0.083756
O125	O	0.606396	0.397181	0.417089
O126	O	0.939729	0.730514	0.750422
C127	C	0.045338	0.061515	0.045305
C128	C	0.378671	0.394848	0.378638
C129	C	0.712005	0.728181	0.711971
C130	C	0.020134	0.061248	0.000084
C131	C	0.353467	0.394581	0.333418
C132	C	0.686801	0.727915	0.666751
C133	C	0.045341	0.061500	-0.045138
C134	C	0.378674	0.394833	0.288195
C135	C	0.712008	0.728166	0.621529
C136	C	-0.030280	0.060734	0.000085
C137	C	0.303053	0.394068	0.333419
C138	C	0.636386	0.727401	0.666752
C139	C	-0.055487	0.060483	0.045307
C140	C	0.277846	0.393816	0.378641
C141	C	0.611179	0.727150	0.711974
C142	C	-0.030280	0.060745	0.090529
C143	C	0.303053	0.394079	0.423862
C144	C	0.636386	0.727412	0.757195
C145	C	0.020131	0.061263	0.090527
C146	C	0.353464	0.394597	0.423860
C147	C	0.686797	0.727930	0.757193
C148	C	0.020134	0.061237	-0.090359
C149	C	0.353467	0.394571	0.242974
C150	C	0.686801	0.727904	0.576308
C151	C	-0.030277	0.060720	-0.090354
C152	C	0.303056	0.394053	0.242980
C153	C	0.636389	0.727386	0.576313
C154	C	-0.055484	0.060468	-0.045131
C155	C	0.277849	0.393802	0.288202
C156	C	0.611182	0.727135	0.621535
C157	C	0.574734	-0.026627	0.000059
C158	C	0.908067	0.306706	0.333393
C159	C	1.241401	0.640039	0.666726
C160	C	0.574186	-0.080283	0.000044
C161	C	0.907519	0.253051	0.333378
C162	C	1.240852	0.586384	0.666711
C163	C	0.570296	-0.463454	-0.045148
C164	C	0.903630	-0.130120	0.288185
C165	C	1.236963	0.203213	0.621519
C166	C	0.572349	-0.261795	-0.045164
C167	C	0.905682	0.071539	0.288169
C168	C	1.239016	0.404872	0.621503
O169	O	0.572640	-0.235732	-0.083624
O170	O	0.905974	0.097601	0.249709
O171	O	1.239307	0.430934	0.583043
N172	N	0.572598	-0.236567	0.000056
N173	N	0.905931	0.096766	0.333389
N174	N	1.239265	0.430100	0.666722
C175	C	0.572337	-0.261758	0.045283
C176	C	0.905670	0.071575	0.378616
C177	C	1.239003	0.404909	0.711949
O178	O	0.572601	-0.235674	0.083745
O179	O	0.905934	0.097659	0.417078
O180	O	1.239267	0.430993	0.750411
C181	C	0.570288	-0.463417	0.045298
C182	C	0.903621	-0.130083	0.378631
C183	C	1.236954	0.203250	0.711965
C184	C	0.570034	-0.488641	0.000075
C185	C	0.903367	-0.155307	0.333409
C186	C	1.236701	0.178026	0.666742
C187	C	0.570043	-0.488678	-0.090367
C188	C	0.903376	-0.155344	0.242966
C189	C	1.236710	0.177989	0.576300
C190	C	0.569527	-0.539089	-0.090363
C191	C	0.902861	-0.205756	0.242971
C192	C	1.236194	0.127578	0.576304
C193	C	0.569265	-0.564276	-0.045139
C194	C	0.902598	-0.230943	0.288194
C195	C	1.235932	0.102390	0.621527
C196	C	0.569518	-0.539052	0.000080
C197	C	0.902851	-0.205719	0.333413
C198	C	1.236185	0.127615	0.666746
C199	C	0.570030	-0.488607	0.090525
C200	C	0.903363	-0.155274	0.423858
C201	C	1.236697	0.178060	0.757191
C202	C	0.569519	-0.539025	0.090524
C203	C	0.902852	-0.205692	0.423858
C204	C	1.236186	0.127642	0.757191
C205	C	0.569265	-0.564249	0.045302
C206	C	0.902599	-0.230916	0.378635
C207	C	1.235932	0.102418	0.711968
C208	C	0.568740	-0.614651	0.045308
C209	C	0.902073	-0.281317	0.378641
C210	C	1.235407	0.052016	0.711974
N211	N	0.568491	-0.639878	0.000088
N212	N	0.901824	-0.306545	0.333421
N213	N	1.235158	0.026789	0.666755
C214	C	0.568753	-0.614691	-0.045136
C215	C	0.902087	-0.281357	0.288198
C216	C	1.235420	0.051976	0.621531
C217	C	0.573412	-0.155884	0.045272
C218	C	0.906745	0.177449	0.378605
C219	C	1.240078	0.510782	0.711938
C220	C	0.573923	-0.105470	0.045268
C221	C	0.907256	0.227864	0.378601
C222	C	1.240590	0.561197	0.711934
C223	C	0.573936	-0.105510	-0.045179
C224	C	0.907269	0.227824	0.288154
C225	C	1.240603	0.561157	0.621488
C226	C	0.573421	-0.155925	-0.045175
C227	C	0.906755	0.177409	0.288158
C228	C	1.240088	0.510742	0.621492
C229	C	0.573163	-0.181112	0.000052
C230	C	0.906496	0.152222	0.333385
C231	C	1.239829	0.485555	0.666718
C232	C	0.567670	-0.720558	-0.045123
C233	C	0.901003	-0.387225	0.288210
C234	C	1.234337	-0.053892	0.621544
C235	C	0.567152	-0.770974	-0.045114
C236	C	0.900485	-0.437640	0.288219
C237	C	1.233819	-0.104307	0.621552
C238	C	0.567142	-0.770930	0.045332
C239	C	0.900475	-0.437596	0.378666
C240	C	1.233808	-0.104263	0.711999
C241	C	0.567657	-0.720518	0.045324
C242	C	0.900990	-0.387185	0.378657
C243	C	1.234324	-0.053851	0.711991
C244	C	0.567923	-0.695334	0.000093
C245	C	0.901256	-0.362001	0.333426
C246	C	1.234589	-0.028667	0.666759
O247	O	0.568454	-0.640745	0.083748
O248	O	0.901787	-0.307411	0.417081
O249	O	1.235120	0.025922	0.750414
O250	O	0.568500	-0.640785	-0.083592
O251	O	0.901834	-0.307452	0.249742
O252	O	1.235167	0.025882	0.583075
C253	C	0.570812	-0.413042	-0.045153
C254	C	0.904145	-0.079709	0.288181
C255	C	1.237479	0.253624	0.621514
C256	C	0.571065	-0.387818	0.000067
C257	C	0.904399	-0.054485	0.333400
C258	C	1.237732	0.278849	0.666733
C259	C	0.570803	-0.413005	0.045290
C260	C	0.904136	-0.079672	0.378623
C261	C	1.237470	0.253662	0.711957
C262	C	0.571577	-0.337403	0.000063
C263	C	0.904910	-0.004070	0.333396
C264	C	1.238243	0.329263	0.666730
C265	C	0.571839	-0.312216	-0.045161
C266	C	0.905173	0.021117	0.288173
C267	C	1.238506	0.354450	0.621506
C268	C	0.571590	-0.337444	-0.090380
C269	C	0.904924	-0.004110	0.242953
C270	C	1.238257	0.329223	0.576286
C271	C	0.571075	-0.387855	-0.090376
C272	C	0.904408	-0.054522	0.242957
C273	C	1.237741	0.278812	0.576291
C274	C	0.571052	-0.387778	0.090510
C275	C	0.904385	-0.054444	0.423843
C276	C	1.237718	0.278889	0.757176
C277	C	0.571567	-0.337366	0.090502
C278	C	0.904900	-0.004033	0.423835
C279	C	1.238234	0.329300	0.757168
C280	C	0.571830	-0.312179	0.045278
C281	C	0.905163	0.021154	0.378612
C282	C	1.238496	0.354488	0.711945
C283	C	0.658944	0.057572	0.000087
C284	C	0.992277	0.390905	0.333420
C285	C	1.325611	0.724238	0.666754
C286	C	0.712600	0.058114	0.000090
C287	C	1.045934	0.391448	0.333424
C288	C	1.379267	0.724781	0.666757
C289	C	0.566341	0.150184	0.000097
C290	C	0.899674	0.483517	0.333431
C291	C	1.233008	0.816850	0.666764
C292	C	0.566890	0.203839	0.000109
C293	C	0.900223	0.537172	0.333442
C294	C	1.233556	0.870506	0.666776
N295	N	0.570519	0.061796	0.129326
N296	N	0.903852	0.395129	0.462659
N297	N	1.237186	0.728462	0.795993
N298	N	0.570560	0.061757	-0.129168
N299	N	0.903893	0.395090	0.204165
N300	N	1.237227	0.728424	0.537498
C301	C	0.603654	0.028664	0.473949
C302	C	0.936987	0.361997	0.807282
C303	C	1.270321	0.695331	1.140615
C304	C	0.603666	0.028657	0.682826
C305	C	0.936999	0.361990	1.016160
C306	C	1.270332	0.695323	1.349493
O307	O	0.631818	0.000490	0.709827
O308	O	0.965152	0.333823	1.043161
O309	O	1.298485	0.667157	1.376494
N310	N	0.570550	0.061760	0.708953
N311	N	0.903883	0.395093	1.042286
N312	N	1.237216	0.728427	1.375620
C313	C	0.537426	0.094866	0.682857
C314	C	0.870759	0.428199	1.016191
C315	C	1.204093	0.761532	1.349524
O316	O	0.509256	0.123018	0.709872
O317	O	0.842589	0.456352	1.043206
O318	O	1.175923	0.789685	1.376539
C319	C	0.537413	0.094870	0.473980
C320	C	0.870746	0.428204	0.807314
C321	C	1.204079	0.761537	1.140647
C322	C	0.570534	0.061768	0.447857
C323	C	0.903868	0.395101	0.781190
C324	C	1.237201	0.728435	1.114523
C325	C	0.636772	-0.004436	0.447825
C326	C	0.970106	0.328898	0.781158
C327	C	1.303439	0.662231	1.114491
C328	C	0.636771	-0.004432	0.395608
C329	C	0.970104	0.328901	0.728942
C330	C	1.303438	0.662235	1.062275
C331	C	0.603651	0.028672	0.369516
C332	C	0.936984	0.362005	0.702849
C333	C	1.270318	0.695339	1.036183
C334	C	0.570533	0.061772	0.395640
C335	C	0.903866	0.395105	0.728974
C336	C	1.237199	0.728439	1.062307
C337	C	0.504287	0.127973	0.447886
C338	C	0.837621	0.461306	0.781219
C339	C	1.170954	0.794640	1.114552
C340	C	0.504286	0.127971	0.395663
C341	C	0.837620	0.461304	0.728996
C342	C	1.170953	0.794637	1.062330
C343	C	0.537408	0.094868	0.369539
C344	C	0.870741	0.428202	0.702872
C345	C	1.204074	0.761535	1.036206
C346	C	0.537411	0.094880	0.317332
C347	C	0.870745	0.428213	0.650665
C348	C	1.204078	0.761546	0.983998
N349	N	0.570527	0.061776	0.291205
N350	N	0.903861	0.395110	0.624538
N351	N	1.237194	0.728443	0.957872
C352	C	0.603647	0.028673	0.317297
C353	C	0.936981	0.362006	0.650631
C354	C	1.270314	0.695339	0.983964
C355	C	0.537436	0.094861	0.792521
C356	C	0.870770	0.428195	1.125854
C357	C	1.204103	0.761528	1.459187
C358	C	0.537440	0.094861	0.844739
C359	C	0.870773	0.428194	1.178073
C360	C	1.204107	0.761527	1.511406
C361	C	0.603679	0.028651	0.844705
C362	C	0.937012	0.361985	1.178038
C363	C	1.270346	0.695318	1.511372
C364	C	0.603677	0.028654	0.792485
C365	C	0.937010	0.361988	1.125819
C366	C	1.270344	0.695321	1.459152
C367	C	0.570552	0.061758	0.766394
C368	C	0.903886	0.395091	1.099727
C369	C	1.237219	0.728425	1.433061
C370	C	0.603642	0.028684	0.207639
C371	C	0.936975	0.362017	0.540973
C372	C	1.270309	0.695350	0.874306
C373	C	0.603639	0.028692	0.155418
C374	C	0.936972	0.362025	0.488752
C375	C	1.270306	0.695358	0.822085
C376	C	0.537399	0.094899	0.155457
C377	C	0.870732	0.428233	0.488791
C378	C	1.204065	0.761566	0.822124
C379	C	0.537403	0.094893	0.207674
C380	C	0.870736	0.428227	0.541007
C381	C	1.204070	0.761560	0.874340
C382	C	0.570527	0.061781	0.233763
C383	C	0.903860	0.395115	0.567097
C384	C	1.237193	0.728448	0.900430
O385	O	0.509270	0.123028	0.290298
O386	O	0.842603	0.456361	0.623632
O387	O	1.175936	0.789695	0.956965
O388	O	0.631806	0.000517	0.290273
O389	O	0.965140	0.333850	0.623606
O390	O	1.298473	0.667183	0.956940
C391	C	0.603656	0.028660	0.526165
C392	C	0.936989	0.361994	0.859498
C393	C	1.270322	0.695327	1.192832
C394	C	0.570537	0.061760	0.552289
C395	C	0.903870	0.395093	0.885622
C396	C	1.237204	0.728427	1.218956
C397	C	0.537417	0.094864	0.526197
C398	C	0.870751	0.428197	0.859530
C399	C	1.204084	0.761531	1.192864
C400	C	0.570541	0.061760	0.604508
C401	C	0.903874	0.395093	0.937841
C402	C	1.237208	0.728426	1.271175
C403	C	0.603661	0.028656	0.630600
C404	C	0.936994	0.361989	0.963934
C405	C	1.270327	0.695322	1.297267
C406	C	0.636777	-0.004448	0.604474
C407	C	0.970110	0.328886	0.937807
C408	C	1.303443	0.662219	1.271140
C409	C	0.636775	-0.004444	0.552257
C410	C	0.970109	0.328890	0.885591
C411	C	1.303442	0.662223	1.218924
C412	C	0.504301	0.127967	0.552324
C413	C	0.837635	0.461301	0.885657
C414	C	1.170968	0.794634	1.218990
C415	C	0.504306	0.127961	0.604540
C416	C	0.837639	0.461294	0.937873
C417	C	1.170972	0.794628	1.271207
C418	C	0.537426	0.094857	0.630632
C419	C	0.870759	0.428191	0.963965
C420	C	1.204092	0.761524	1.297299
H421	H	0.100435	0.062094	0.127351
H422	H	0.433768	0.395427	0.460684
H423	H	0.767102	0.728760	0.794017
H424	H	0.569309	-0.559530	0.127354
H425	H	0.902642	-0.226196	0.460688
H426	H	1.235976	0.107137	0.794021
C427	C	0.047849	0.061553	0.140277
C428	C	0.381182	0.394886	0.473611
C429	C	0.714516	0.728220	0.806944
N430	N	0.068723	0.061769	0.177752
N431	N	0.402057	0.395103	0.511085
N432	N	0.735390	0.728436	0.844419
C433	C	0.640081	-0.007740	0.236330
C434	C	0.973414	0.325593	0.569664
C435	C	1.306748	0.658927	0.902997
N436	N	0.667529	-0.035172	0.257940
N437	N	1.000862	0.298161	0.591273
N438	N	1.334195	0.631494	0.924607
C439	C	-0.184058	0.059183	0.095063
C440	C	0.149275	0.392517	0.428396
C441	C	0.482609	0.725850	0.761730
N442	N	-0.163181	0.059399	0.132536
N443	N	0.170152	0.392733	0.465870
N444	N	0.503485	0.726066	0.799203
H445	H	0.630647	0.001700	0.771218
H446	H	0.963980	0.335033	1.104551
H447	H	1.297314	0.668366	1.437885
H448	H	0.570839	-0.408280	0.127337
H449	H	0.904173	-0.074947	0.460670
H450	H	1.237506	0.258387	0.794004
C451	C	0.640075	-0.007726	0.126685
C452	C	0.973408	0.325607	0.460018
C453	C	1.306742	0.658940	0.793352
N454	N	0.667517	-0.035157	0.105045
N455	N	1.000850	0.298176	0.438378
N456	N	1.334183	0.631509	0.771712
H457	H	0.573201	-0.176387	0.082103
H458	H	0.906535	0.156947	0.415436
H459	H	1.239868	0.490280	0.748769
C460	C	0.571845	-0.309625	0.140254
C461	C	0.905178	0.023708	0.473587
C462	C	1.238512	0.357041	0.806921
N463	N	0.572059	-0.288733	0.177726
N464	N	0.905392	0.044600	0.511060
N465	N	1.238726	0.377933	0.844393
H466	H	0.569324	-0.559623	-0.127188
H467	H	0.902657	-0.226289	0.206146
H468	H	1.235991	0.107044	0.539479
C469	C	0.673202	-0.040852	0.366879
C470	C	1.006536	0.292481	0.700212
C471	C	1.339869	0.625814	1.033546
N472	N	0.700643	-0.068288	0.345243
N473	N	1.033976	0.265045	0.678576
N474	N	1.367309	0.598378	1.011910
H475	H	-0.191260	0.059080	-0.081963
H476	H	0.142074	0.392414	0.251370
H477	H	0.475407	0.725747	0.584704
C478	C	0.673209	-0.040862	0.523528
C479	C	1.006542	0.292471	0.856861
C480	C	1.339876	0.625804	1.190194
N481	N	0.700651	-0.068296	0.501892
N482	N	1.033985	0.265038	0.835225
N483	N	1.367318	0.598371	1.168558
H484	H	0.663743	-0.031395	0.469064
H485	H	0.997076	0.301938	0.802398
H486	H	1.330409	0.635272	1.135731
C487	C	0.467866	0.164378	0.633270
C488	C	0.801200	0.497712	0.966604
C489	C	1.134533	0.831045	1.299937
N490	N	0.440418	0.191804	0.654908
N491	N	0.773751	0.525137	0.988242
N492	N	1.107084	0.858471	1.321575
H493	H	0.510461	0.121819	0.771280
H494	H	0.843795	0.455153	1.104614
H495	H	1.177128	0.788486	1.437947
H496	H	0.630647	0.001697	0.865958
H497	H	0.963980	0.335031	1.199291
H498	H	1.297314	0.668364	1.532625
C499	C	0.673208	-0.040863	0.633185
C500	C	1.006541	0.292470	0.966518
C501	C	1.339874	0.625804	1.299852
N502	N	0.700644	-0.068292	0.654813
N503	N	1.033977	0.265041	0.988147
N504	N	1.367310	0.598375	1.321480
C505	C	0.500967	0.131310	0.126746
C506	C	0.834300	0.464644	0.460079
C507	C	1.167634	0.797977	0.793412
N508	N	0.473524	0.158733	0.105119
N509	N	0.806857	0.492066	0.438452
N510	N	1.140190	0.825399	0.771785
H511	H	0.332330	0.064450	-0.081981
H512	H	0.665663	0.397783	0.251352
H513	H	0.998996	0.731116	0.584686
H514	H	0.567844	-0.699977	0.082148
H515	H	0.901178	-0.366644	0.415481
H516	H	1.234511	-0.033310	0.748815
H517	H	0.574120	-0.084935	0.082093
H518	H	0.907454	0.248398	0.415426
H519	H	1.240787	0.581731	0.748759
C520	C	0.570311	-0.460872	0.140274
C521	C	0.903645	-0.127539	0.473607
C522	C	1.236978	0.205795	0.806941
N523	N	0.570524	-0.439983	0.177749
N524	N	0.903858	-0.106650	0.511082
N525	N	1.237191	0.226684	0.844415
C526	C	0.570330	-0.460980	-0.140121
C527	C	0.903663	-0.127646	0.193212
C528	C	1.236996	0.205687	0.526546
N529	N	0.570542	-0.440120	-0.177599
N530	N	0.903875	-0.106787	0.155734
N531	N	1.237208	0.226547	0.489068
C532	C	0.501007	0.131279	0.873470
C533	C	0.834341	0.464613	1.206803
C534	C	1.167674	0.797946	1.540137
N535	N	0.473562	0.158709	0.895108
N536	N	0.806896	0.492042	1.228441
N537	N	1.140229	0.825375	1.561775
C538	C	0.467899	0.164420	0.523629
C539	C	0.801232	0.497754	0.856963
C540	C	1.134565	0.831087	1.190296
N541	N	0.440491	0.191893	0.502019
N542	N	0.773825	0.525226	0.835352
N543	N	1.107158	0.858559	1.168686
H544	H	0.040653	0.061441	-0.127185
H545	H	0.373986	0.394774	0.206148
H546	H	0.707319	0.728107	0.539482
C547	C	-0.057995	0.060424	-0.140107
C548	C	0.275338	0.393757	0.193226
C549	C	0.608671	0.727091	0.526559
N550	N	-0.078870	0.060196	-0.177581
N551	N	0.254463	0.393529	0.155753
N552	N	0.587796	0.726862	0.489086
H553	H	0.477317	0.154928	0.469148
H554	H	0.810650	0.488261	0.802482
H555	H	1.143984	0.821594	1.135815
C556	C	0.467850	0.164393	0.366966
C557	C	0.801184	0.497726	0.700299
C558	C	1.134517	0.831060	1.033633
N559	N	0.440409	0.191829	0.345352
N560	N	0.773743	0.525162	0.678685
N561	N	1.107076	0.858496	1.012019
H562	H	0.510437	0.121853	0.228944
H563	H	0.843771	0.455186	0.562278
H564	H	1.177104	0.788519	0.895611
C565	C	-0.289929	0.058096	0.095060
C566	C	0.043404	0.391430	0.428393
C567	C	0.376737	0.724763	0.761726
N568	N	-0.310823	0.057881	0.132525
N569	N	0.022511	0.391214	0.465859
N570	N	0.355844	0.724548	0.799192
H571	H	-0.282710	0.058156	-0.081958
H572	H	0.050623	0.391489	0.251375
H573	H	0.383956	0.724822	0.584709
H574	H	-0.050813	0.060543	0.127350
H575	H	0.282520	0.393876	0.460683
H576	H	0.615854	0.727210	0.794017
H577	H	0.423786	0.065410	0.082114
H578	H	0.757120	0.398743	0.415447
H579	H	1.090453	0.732077	0.748781
H580	H	0.332337	0.064468	0.082122
H581	H	0.665670	0.397801	0.415455
H582	H	0.999003	0.731134	0.748789
H583	H	0.191881	0.063032	0.127348
H584	H	0.525214	0.396365	0.460681
H585	H	0.858548	0.729699	0.794014
H586	H	0.100451	0.062045	-0.127195
H587	H	0.433784	0.395379	0.206139
H588	H	0.767117	0.728712	0.539472
H589	H	0.423796	0.065384	-0.081980
H590	H	0.757130	0.398717	0.251353
H591	H	1.090463	0.732050	0.584687
C592	C	0.199105	0.063051	-0.140118
C593	C	0.532438	0.396384	0.193215
C594	C	0.865771	0.729717	0.526548
N595	N	0.219985	0.063259	-0.177592
N596	N	0.553319	0.396592	0.155741
N597	N	0.886652	0.729925	0.489074
C598	C	0.573153	-0.183668	-0.094923
C599	C	0.906486	0.149665	0.238410
C600	C	1.239820	0.482999	0.571744
N601	N	0.572955	-0.204562	-0.132395
N602	N	0.906288	0.128771	0.200938
N603	N	1.239622	0.462104	0.534271
H604	H	0.566944	-0.791509	-0.081942
H605	H	0.900277	-0.458175	0.251392
H606	H	1.233610	-0.124842	0.584725
H607	H	0.567887	-0.700059	-0.081955
H608	H	0.901220	-0.366726	0.251379
H609	H	1.234553	-0.033393	0.584712
H610	H	0.574147	-0.084993	-0.082002
H611	H	0.907480	0.248340	0.251331
H612	H	1.240813	0.581673	0.584665
C613	C	0.566851	-0.798645	0.095076
C614	C	0.900184	-0.465312	0.428409
C615	C	1.233518	-0.131978	0.761742
N616	N	0.566635	-0.819522	0.132543
N617	N	0.899968	-0.486189	0.465876
N618	N	1.233302	-0.152855	0.799209
C619	C	0.571882	-0.309728	-0.140126
C620	C	0.905215	0.023605	0.193207
C621	C	1.238549	0.356938	0.526540
N622	N	0.572106	-0.288851	-0.177593
N623	N	0.905439	0.044482	0.155740
N624	N	1.238772	0.377815	0.489074
H625	H	0.570868	-0.408388	-0.127201
H626	H	0.904201	-0.075055	0.206132
H627	H	1.237535	0.258279	0.539466
