data_functionalizedCrystal
_audit_creation_method	'MofGen! by Chris Wilmer'
_symmetry_space_group_name_H-M	'P1'
_symmetry_Int_Tables_number	1
_symmetry_cell_setting	triclinic
loop_
_symmetry_equiv_pos_as_xyz
  x,y,z
_cell_length_a	12.827893
_cell_length_b	18.101397
_cell_length_c	12.827885
_cell_angle_alpha	89.963418
_cell_angle_beta	89.980918
_cell_angle_gamma	90.020627
loop_
_atom_site_label
_atom_site_type_symbol
_atom_site_fract_x
_atom_site_fract_y
_atom_site_fract_z
Zn1	Zn	1.597633	-0.294791	-0.590794
Zn2	Zn	1.930966	0.038543	-0.257461
Zn3	Zn	2.264299	0.371876	0.075873
Zn4	Zn	1.597511	-0.418650	-0.416034
Zn5	Zn	1.930845	-0.085316	-0.082700
Zn6	Zn	2.264178	0.248017	0.250633
Zn7	Zn	1.422874	-0.294827	-0.416068
Zn8	Zn	1.756207	0.038506	-0.082735
Zn9	Zn	2.089541	0.371840	0.250598
Zn10	Zn	1.422844	-0.418595	-0.590734
Zn11	Zn	1.756177	-0.085262	-0.257401
Zn12	Zn	2.089511	0.248072	0.075933
O13	O	1.510216	-0.356716	-0.503407
O14	O	1.843549	-0.023382	-0.170074
O15	O	2.176882	0.309951	0.163259
O16	O	1.743853	-0.311228	-0.567622
O17	O	2.077186	0.022105	-0.234289
O18	O	2.410519	0.355438	0.099044
O19	O	1.574307	-0.402263	-0.269802
O20	O	1.907641	-0.068929	0.063531
O21	O	2.240974	0.264404	0.396865
O22	O	1.446120	-0.191189	-0.439286
O23	O	1.779453	0.142144	-0.105952
O24	O	2.112786	0.475477	0.227381
O25	O	1.743763	-0.402227	-0.439226
O26	O	2.077097	-0.068894	-0.105893
O27	O	2.410430	0.264439	0.227440
O28	O	1.574514	-0.191162	-0.567656
O29	O	1.907847	0.142171	-0.234322
O30	O	2.241181	0.475504	0.099011
O31	O	1.446002	-0.311291	-0.269827
O32	O	1.779335	0.022043	0.063506
O33	O	2.112669	0.355376	0.396839
O34	O	1.276634	-0.311237	-0.439227
O35	O	1.609967	0.022096	-0.105894
O36	O	1.943301	0.355429	0.227439
O37	O	1.446068	-0.402134	-0.736978
O38	O	1.779402	-0.068801	-0.403645
O39	O	2.112735	0.264533	-0.070312
O40	O	1.276612	-0.402169	-0.567554
O41	O	1.609945	-0.068836	-0.234220
O42	O	1.943279	0.264497	0.099113
O43	O	1.574485	-0.311175	-0.737022
O44	O	1.907818	0.022158	-0.403689
O45	O	2.241151	0.355491	-0.070356
O46	O	1.574278	-0.522275	-0.439168
O47	O	1.907611	-0.188942	-0.105835
O48	O	2.240945	0.144391	0.227498
O49	O	1.445951	-0.522235	-0.567520
O50	O	1.779284	-0.188902	-0.234187
O51	O	2.112617	0.144431	0.099146
C52	C	1.238706	-0.356702	-0.503389
C53	C	1.572039	-0.023369	-0.170055
C54	C	1.905372	0.309965	0.163278
C55	C	1.122553	-0.356714	-0.503405
C56	C	1.455886	-0.023381	-0.170072
C57	C	1.789219	0.309953	0.163262
C58	C	1.070751	-0.311658	-0.440018
C59	C	1.404085	0.021675	-0.106684
C60	C	1.737418	0.355008	0.226649
C61	C	0.950701	-0.311670	-0.440034
C62	C	1.284034	0.021664	-0.106700
C63	C	1.617368	0.354997	0.226633
C64	C	1.510126	-0.549126	-0.503357
C65	C	1.843459	-0.215793	-0.170024
C66	C	2.176793	0.117540	0.163310
C67	C	1.510183	-0.631440	-0.503370
C68	C	1.843517	-0.298107	-0.170037
C69	C	2.176850	0.035226	0.163297
C70	C	1.510317	-0.930531	-0.503465
C71	C	1.843650	-0.597198	-0.170132
C72	C	2.176984	-0.263865	0.163201
C73	C	1.590832	-0.899200	-0.422494
C74	C	1.924165	-0.565867	-0.089160
C75	C	2.257498	-0.232534	0.244173
C76	C	1.591111	-0.813582	-0.422703
C77	C	1.924444	-0.480249	-0.089370
C78	C	2.257777	-0.146915	0.243963
C79	C	1.510251	-0.782149	-0.503417
C80	C	1.843584	-0.448815	-0.170084
C81	C	2.176917	-0.115482	0.163249
C82	C	1.540108	-0.813148	-0.613567
C83	C	1.873441	-0.479814	-0.280234
C84	C	2.206775	-0.146481	0.053099
C85	C	1.540731	-0.898793	-0.613126
C86	C	1.874065	-0.565459	-0.279793
C87	C	2.207398	-0.232126	0.053540
C88	C	1.399730	-0.899042	-0.475240
C89	C	1.733063	-0.565709	-0.141907
C90	C	2.066396	-0.232376	0.191426
C91	C	1.400276	-0.813393	-0.472782
C92	C	1.733609	-0.480060	-0.139448
C93	C	2.066943	-0.146727	0.193885
C94	C	1.510212	-0.698289	-0.503397
C95	C	1.843545	-0.364956	-0.170063
C96	C	2.176878	-0.031623	0.163270
C97	C	1.510359	-1.014391	-0.503493
C98	C	1.843692	-0.681057	-0.170160
C99	C	2.177025	-0.347724	0.163173
C100	C	1.782786	-0.356730	-0.503427
C101	C	2.116119	-0.023397	-0.170094
C102	C	2.449452	0.309937	0.163239
C103	C	1.898939	-0.356736	-0.503436
C104	C	2.232272	-0.023403	-0.170102
C105	C	2.565605	0.309931	0.163231
C106	C	1.510287	-0.356645	-0.775978
C107	C	1.843620	-0.023311	-0.442644
C108	C	2.176953	0.310022	-0.109311
C109	C	1.510317	-0.356614	-0.892131
C110	C	1.843650	-0.023281	-0.558798
C111	C	2.176984	0.310052	-0.225464
C112	C	1.510334	-0.163554	-0.503481
C113	C	1.843667	0.169780	-0.170148
C114	C	2.177000	0.503113	0.163185
C115	C	1.510384	-0.081240	-0.503513
C116	C	1.843717	0.252094	-0.170179
C117	C	2.177051	0.585427	0.163154
C118	C	1.573868	-0.311596	-0.943938
C119	C	1.907202	0.021737	-0.610604
C120	C	2.240535	0.355071	-0.277271
C121	C	1.573901	-0.311564	-1.063988
C122	C	1.907235	0.021770	-0.730655
C123	C	2.240568	0.355103	-0.397321
C124	C	1.510205	-0.356733	-0.231898
C125	C	1.843538	-0.023400	0.101436
C126	C	2.176871	0.309934	0.434769
C127	C	1.510377	-0.356555	-0.115745
C128	C	1.843710	-0.023221	0.217588
C129	C	2.177044	0.310112	0.550922
H130	H	0.906153	-0.273093	-0.385770
H131	H	1.239486	0.060240	-0.052436
H132	H	1.572820	0.393574	0.280897
F133	F	0.957155	-0.407155	-0.574379
F134	F	1.290489	-0.073821	-0.241046
F135	F	1.623822	0.259512	0.092288
H136	H	1.628314	-0.273025	-1.108540
H137	H	1.961647	0.060309	-0.775207
H138	H	2.294980	0.393642	-0.441874
H139	H	1.078025	-0.395298	-0.557682
H140	H	1.411358	-0.061965	-0.224349
H141	H	1.744691	0.271368	0.108985
H142	H	1.672301	-0.920667	-0.440953
H143	H	2.005634	-0.587334	-0.107620
H144	H	2.338967	-0.254000	0.225713
H145	H	1.628249	-0.273076	-0.899414
H146	H	1.961582	0.060257	-0.566081
H147	H	2.294916	0.393591	-0.232748
H148	H	1.483258	-0.792784	-0.675520
H149	H	1.816591	-0.459451	-0.342186
H150	H	2.149925	-0.126117	-0.008853
F151	F	1.370843	-0.786919	-0.366831
F152	F	1.704176	-0.453585	-0.033498
F153	F	2.037510	-0.120252	0.299836
F154	F	1.566640	-0.786189	-0.315961
F155	F	1.899973	-0.452856	0.017372
F156	F	2.233307	-0.119523	0.350705
H157	H	1.455969	-0.395101	-1.071199
H158	H	1.789303	-0.061768	-0.737866
H159	H	2.122636	0.271566	-0.404533
H160	H	1.337059	-0.792004	-0.527439
H161	H	1.670392	-0.458671	-0.194106
H162	H	2.003726	-0.125337	0.139228
F163	F	1.439225	-0.406958	-0.950321
F164	F	1.772558	-0.073624	-0.616987
F165	F	2.105891	0.259709	-0.283654
F166	F	1.644582	-0.785036	-0.645349
F167	F	1.977915	-0.451702	-0.312016
F168	F	2.311249	-0.118369	0.021317
F169	F	1.364226	-0.927362	-0.372076
F170	F	1.697559	-0.594029	-0.038743
F171	F	2.030893	-0.260695	0.294591
F172	F	1.467400	-0.925881	-0.694663
F173	F	1.800734	-0.592547	-0.361329
F174	F	2.134067	-0.259214	-0.027996
H175	H	1.572377	-0.919850	-0.340574
H176	H	1.905711	-0.586516	-0.007241
H177	H	2.239044	-0.253183	0.326092
F178	F	1.128947	-0.261229	-0.369064
F179	F	1.462280	0.072104	-0.035730
F180	F	1.795613	0.405437	0.297603
F181	F	1.646387	-0.924828	-0.644375
F182	F	1.979721	-0.591495	-0.311042
F183	F	2.313054	-0.258161	0.022291
F184	F	1.698181	-0.786725	-0.447117
F185	F	2.031514	-0.453391	-0.113784
F186	F	2.364847	-0.120058	0.219550
F187	F	1.321318	-0.925527	-0.552322
F188	F	1.654651	-0.592193	-0.218989
F189	F	1.987984	-0.258860	0.114344
