data_functionalizedCrystal
_audit_creation_method	'MofGen! by Chris Wilmer'
_symmetry_space_group_name_H-M	'P1'
_symmetry_Int_Tables_number	1
_symmetry_cell_setting	triclinic
loop_
_symmetry_equiv_pos_as_xyz
  x,y,z
_cell_length_a	18.215407
_cell_length_b	12.827892
_cell_length_c	18.215399
_cell_angle_alpha	89.975972
_cell_angle_beta	89.982632
_cell_angle_gamma	90.012645
loop_
_atom_site_label
_atom_site_type_symbol
_atom_site_fract_x
_atom_site_fract_y
_atom_site_fract_z
Zn1	Zn	1.125121	-0.416115	-0.416088
Zn2	Zn	1.458455	-0.082782	-0.082754
Zn3	Zn	1.791788	0.250552	0.250579
Zn4	Zn	1.125051	-0.590874	-0.293030
Zn5	Zn	1.458384	-0.257541	0.040304
Zn6	Zn	1.791717	0.075792	0.373637
Zn7	Zn	1.002054	-0.416140	-0.293040
Zn8	Zn	1.335387	-0.082807	0.040293
Zn9	Zn	1.668721	0.250527	0.373626
Zn10	Zn	1.002041	-0.590807	-0.416060
Zn11	Zn	1.335374	-0.257474	-0.082727
Zn12	Zn	1.668707	0.075860	0.250607
O13	O	1.063567	-0.503484	-0.354554
O14	O	1.396900	-0.170151	-0.021221
O15	O	1.730233	0.163183	0.312112
O16	O	1.228096	-0.439315	-0.399771
O17	O	1.561430	-0.105982	-0.066437
O18	O	1.894763	0.227352	0.266896
O19	O	1.108711	-0.567734	-0.190047
O20	O	1.442044	-0.234401	0.143287
O21	O	1.775378	0.098933	0.476620
O22	O	1.018414	-0.269901	-0.309379
O23	O	1.351748	0.063433	0.023955
O24	O	1.685081	0.396766	0.357288
O25	O	1.228044	-0.567710	-0.309361
O26	O	1.561378	-0.234376	0.023973
O27	O	1.894711	0.098957	0.357306
O28	O	1.108831	-0.269882	-0.399781
O29	O	1.442165	0.063451	-0.066448
O30	O	1.775498	0.396784	0.266886
O31	O	1.018346	-0.439358	-0.190054
O32	O	1.351679	-0.106024	0.143279
O33	O	1.685012	0.227309	0.476612
O34	O	0.899068	-0.439292	-0.309352
O35	O	1.232401	-0.105959	0.023982
O36	O	1.565735	0.227374	0.357315
O37	O	1.018392	-0.567595	-0.519048
O38	O	1.351725	-0.234262	-0.185715
O39	O	1.685058	0.099072	0.147619
O40	O	0.899058	-0.567619	-0.399734
O41	O	1.232392	-0.234286	-0.066401
O42	O	1.565725	0.099047	0.266933
O43	O	1.108819	-0.439250	-0.519068
O44	O	1.442152	-0.105916	-0.185735
O45	O	1.775485	0.227417	0.147599
O46	O	1.108698	-0.737101	-0.309334
O47	O	1.442031	-0.403768	0.023999
O48	O	1.775365	-0.070435	0.357333
O49	O	1.018323	-0.737052	-0.399724
O50	O	1.351656	-0.403719	-0.066390
O51	O	1.684990	-0.070385	0.266943
C52	C	0.872360	-0.503452	-0.354541
C53	C	1.205694	-0.170119	-0.021208
C54	C	1.539027	0.163215	0.312125
C55	C	0.790562	-0.503463	-0.354553
C56	C	1.123895	-0.170130	-0.021220
C57	C	1.457228	0.163203	0.312113
C58	C	0.602394	-0.436746	-0.401704
C59	C	0.935727	-0.103412	-0.068371
C60	C	1.269060	0.229921	0.264962
C61	C	0.525535	-0.436755	-0.401707
C62	C	0.858868	-0.103421	-0.068373
C63	C	1.192202	0.229912	0.264960
C64	C	0.525492	-0.570252	-0.307417
C65	C	0.858825	-0.236918	0.025916
C66	C	1.192158	0.096415	0.359249
C67	C	0.602349	-0.570237	-0.307412
C68	C	0.935682	-0.236903	0.025922
C69	C	1.269016	0.096430	0.359255
C70	C	0.640798	-0.503485	-0.354559
C71	C	0.974131	-0.170152	-0.021226
C72	C	1.307465	0.163181	0.312107
C73	C	0.487082	-0.503509	-0.354567
C74	C	0.820415	-0.170176	-0.021234
C75	C	1.153749	0.163157	0.312099
C76	C	0.403748	-0.503519	-0.354570
C77	C	0.737082	-0.170186	-0.021236
C78	C	1.070415	0.163147	0.312097
C79	C	0.724137	-0.503473	-0.354556
C80	C	1.057470	-0.170140	-0.021223
C81	C	1.390804	0.163193	0.312110
C82	C	1.063521	-0.774994	-0.354541
C83	C	1.396855	-0.441661	-0.021207
C84	C	1.730188	-0.108327	0.312126
C85	C	1.063569	-0.891147	-0.354559
C86	C	1.396903	-0.557814	-0.021226
C87	C	1.730236	-0.224480	0.312107
C88	C	1.018838	-0.942942	-0.399254
C89	C	1.352172	-0.609609	-0.065921
C90	C	1.685505	-0.276275	0.267412
C91	C	1.018887	-1.062992	-0.399275
C92	C	1.352220	-0.729659	-0.065941
C93	C	1.685554	-0.396326	0.267392
C94	C	1.255520	-0.503517	-0.354568
C95	C	1.588853	-0.170184	-0.021234
C96	C	1.922186	0.163150	0.312099
C97	C	1.337318	-0.503531	-0.354573
C98	C	1.670652	-0.170198	-0.021240
C99	C	2.003985	0.163135	0.312093
C100	C	1.063612	-0.503412	-0.546507
C101	C	1.396945	-0.170079	-0.213174
C102	C	1.730278	0.163255	0.120159
C103	C	1.063631	-0.503381	-0.628306
C104	C	1.396964	-0.170048	-0.294973
C105	C	1.730297	0.163285	0.038360
C106	C	1.063632	-0.230914	-0.354584
C107	C	1.396966	0.102419	-0.021251
C108	C	1.730299	0.435753	0.312083
C109	C	1.063660	-0.114761	-0.354597
C110	C	1.396994	0.218573	-0.021263
C111	C	1.730327	0.551906	0.312070
C112	C	1.110733	-0.436489	-0.816512
C113	C	1.444066	-0.103156	-0.483179
C114	C	1.777400	0.230177	-0.149845
C115	C	1.110742	-0.436459	-0.893371
C116	C	1.444075	-0.103126	-0.560037
C117	C	1.777408	0.230208	-0.226704
C118	C	1.016580	-0.570112	-0.893338
C119	C	1.349914	-0.236778	-0.560005
C120	C	1.683247	0.096555	-0.226672
C121	C	1.016569	-0.570136	-0.816481
C122	C	1.349902	-0.236803	-0.483148
C123	C	1.683235	0.096531	-0.149814
C124	C	1.063649	-0.503327	-0.778070
C125	C	1.396982	-0.169993	-0.444736
C126	C	1.730316	0.163340	-0.111403
C127	C	1.063670	-0.503272	-0.931786
C128	C	1.397003	-0.169938	-0.598453
C129	C	1.730336	0.163395	-0.265119
C130	C	1.063679	-0.503239	-1.015120
C131	C	1.397012	-0.169906	-0.681786
C132	C	1.730345	0.163428	-0.348453
C133	C	1.063639	-0.503357	-0.694731
C134	C	1.396972	-0.170024	-0.361397
C135	C	1.730306	0.163309	-0.028064
C136	C	1.063564	-0.503480	-0.163348
C137	C	1.396898	-0.170147	0.169985
C138	C	1.730231	0.163186	0.503319
C139	C	1.063688	-0.503217	-0.081550
C140	C	1.397021	-0.169883	0.251784
C141	C	1.730355	0.163450	0.585117
H142	H	0.494270	-0.382407	-0.440096
H143	H	0.827603	-0.049074	-0.106762
H144	H	1.160936	0.284260	0.226571
O145	O	1.114344	-0.950130	-0.303889
O146	O	1.447677	-0.616796	0.029444
O147	O	1.781011	-0.283463	0.362778
H148	H	1.147099	-0.893927	-0.271141
H149	H	1.480432	-0.560594	0.062192
H150	H	1.813766	-0.227261	0.395525
H151	H	1.149081	-0.382032	-0.924667
H152	H	1.482414	-0.048698	-0.591334
H153	H	1.815748	0.284635	-0.258000
O154	O	0.643865	-0.364746	-0.452550
O155	O	0.977199	-0.031413	-0.119216
O156	O	1.310532	0.301921	0.214117
H157	H	0.678876	-0.311522	-0.419668
H158	H	1.012209	0.021811	-0.086335
H159	H	1.345543	0.355145	0.246999
H160	H	0.980503	-0.898411	-0.437502
H161	H	1.313837	-0.565078	-0.104169
H162	H	1.647170	-0.231744	0.229165
H163	H	1.149067	-0.382086	-0.785240
H164	H	1.482400	-0.048753	-0.451907
H165	H	1.815733	0.284581	-0.118573
O166	O	0.965803	-0.642171	-0.934766
O167	O	1.299136	-0.308838	-0.601433
O168	O	1.632470	0.024496	-0.268100
H169	H	0.973724	-0.630932	-0.994669
H170	H	1.307058	-0.297599	-0.661336
H171	H	1.640391	0.035734	-0.328002
O172	O	0.484022	-0.642247	-0.256567
O173	O	0.817355	-0.308914	0.076766
O174	O	1.150689	0.024419	0.410099
H175	H	0.449020	-0.695488	-0.289444
H176	H	0.782353	-0.362155	0.043889
H177	H	1.115686	-0.028821	0.377222
H178	H	0.978222	-0.624562	-0.785180
H179	H	1.311555	-0.291229	-0.451847
H180	H	1.644889	0.042105	-0.118514
O181	O	0.643780	-0.642219	-0.256558
O182	O	0.977113	-0.308886	0.076775
O183	O	1.310446	0.024447	0.410109
H184	H	0.604133	-0.688648	-0.223781
H185	H	0.937466	-0.355315	0.109553
H186	H	1.270800	-0.021981	0.442886
O187	O	0.968149	-1.121980	-0.449960
O188	O	1.301482	-0.788646	-0.116626
O189	O	1.634816	-0.455313	0.216707
H190	H	0.976142	-1.207014	-0.442015
H191	H	1.309476	-0.873681	-0.108682
H192	H	1.642809	-0.540348	0.224651
H193	H	1.101961	-1.070226	-0.316332
H194	H	1.435294	-0.736893	0.017001
H195	H	1.768628	-0.403560	0.350334
