data_functionalizedCrystal
_audit_creation_method	'MofGen! by Chris Wilmer'
_symmetry_space_group_name_H-M	'P1'
_symmetry_Int_Tables_number	1
_symmetry_cell_setting	triclinic
loop_
_symmetry_equiv_pos_as_xyz
  x,y,z
_cell_length_a	21.295417
_cell_length_b	21.295418
_cell_length_c	15.296720
_cell_angle_alpha	80.364800
_cell_angle_beta	99.638166
_cell_angle_gamma	89.951286
loop_
_atom_site_label
_atom_site_type_symbol
_atom_site_fract_x
_atom_site_fract_y
_atom_site_fract_z
Zn1	Zn	-0.311963	-0.900624	-0.510555
Zn2	Zn	0.021370	-0.567290	-0.177221
Zn3	Zn	0.354704	-0.233957	0.156112
Zn4	Zn	-0.399018	-0.918766	-0.359704
Zn5	Zn	-0.065685	-0.585432	-0.026371
Zn6	Zn	0.267649	-0.252099	0.306963
Zn7	Zn	-0.293796	-0.813590	-0.359671
Zn8	Zn	0.039537	-0.480257	-0.026338
Zn9	Zn	0.372871	-0.146924	0.306996
Zn10	Zn	-0.417217	-0.795331	-0.510432
Zn11	Zn	-0.083884	-0.461998	-0.177098
Zn12	Zn	0.249450	-0.128664	0.156235
O13	O	-0.355499	-0.857078	-0.435090
O14	O	-0.022165	-0.523744	-0.101757
O15	O	0.311168	-0.190411	0.231576
O16	O	-0.323498	-0.991112	-0.490609
O17	O	0.009836	-0.657778	-0.157276
O18	O	0.343169	-0.324445	0.176057
O19	O	-0.369841	-0.920048	-0.233474
O20	O	-0.036507	-0.586715	0.099859
O21	O	0.296826	-0.253381	0.433192
O22	O	-0.208121	-0.825185	-0.379724
O23	O	0.125212	-0.491851	-0.046390
O24	O	0.458546	-0.158518	0.286943
O25	O	-0.387457	-1.004441	-0.379780
O26	O	-0.054123	-0.671107	-0.046447
O27	O	0.279210	-0.337774	0.286887
O28	O	-0.221468	-0.889128	-0.490577
O29	O	0.111865	-0.555794	-0.157244
O30	O	0.445198	-0.222461	0.176090
O31	O	-0.292534	-0.842776	-0.233450
O32	O	0.040799	-0.509443	0.099883
O33	O	0.374132	-0.176110	0.433217
O34	O	-0.310181	-0.723087	-0.379604
O35	O	0.023152	-0.389753	-0.046271
O36	O	0.356485	-0.056420	0.287062
O37	O	-0.418474	-0.794064	-0.636673
O38	O	-0.085141	-0.460731	-0.303340
O39	O	0.248192	-0.127397	0.029993
O40	O	-0.400858	-0.709672	-0.490368
O41	O	-0.067525	-0.376338	-0.157034
O42	O	0.265808	-0.043005	0.176299
O43	O	-0.341145	-0.871422	-0.636764
O44	O	-0.007811	-0.538089	-0.303430
O45	O	0.325522	-0.204755	0.029903
O46	O	-0.489517	-0.902343	-0.379661
O47	O	-0.156184	-0.569009	-0.046328
O48	O	0.177150	-0.235676	0.287006
O49	O	-0.502888	-0.811656	-0.490400
O50	O	-0.169554	-0.478322	-0.157067
O51	O	0.163779	-0.144989	0.176267
C52	C	-0.355524	-0.693541	-0.434970
C53	C	-0.022191	-0.360207	-0.101636
C54	C	0.311143	-0.026874	0.231697
C55	C	-0.355553	-0.623576	-0.434939
C56	C	-0.022219	-0.290243	-0.101606
C57	C	0.311114	0.043091	0.231727
C58	C	-0.402812	-0.583751	-0.492524
C59	C	-0.069479	-0.250418	-0.159191
C60	C	0.263855	0.082915	0.174142
C61	C	-0.402803	-0.518005	-0.492558
C62	C	-0.069470	-0.184672	-0.159225
C63	C	0.263863	0.148662	0.174109
C64	C	-0.355540	-0.492087	-0.434991
C65	C	-0.022206	-0.158754	-0.101657
C66	C	0.311127	0.174579	0.231676
C67	C	-0.308272	-0.531920	-0.377402
C68	C	0.025061	-0.198587	-0.044069
C69	C	0.358395	0.134746	0.289265
C70	C	-0.308279	-0.597665	-0.377376
C71	C	0.025055	-0.264331	-0.044043
C72	C	0.358388	0.069002	0.289290
N73	N	-0.341099	-0.398352	-0.356087
N74	N	-0.007766	-0.065019	-0.022753
N75	N	0.325568	0.268315	0.310580
N76	N	-0.341097	-0.335897	-0.356114
N77	N	-0.007763	-0.002564	-0.022780
N78	N	0.325570	0.330770	0.310553
C79	C	-0.355517	-0.294004	-0.435066
C80	C	-0.022184	0.039330	-0.101733
C81	C	0.311150	0.372663	0.231601
N82	N	-0.369952	-0.316924	-0.513992
N83	N	-0.036619	0.016409	-0.180659
N84	N	0.296715	0.349743	0.152675
N85	N	-0.369957	-0.379384	-0.513964
N86	N	-0.036624	-0.046051	-0.180631
N87	N	0.296710	0.287282	0.152703
C88	C	-0.355527	-0.420799	-0.435013
C89	C	-0.022194	-0.087466	-0.101679
C90	C	0.311139	0.245867	0.231654
C91	C	-0.402770	-0.182888	-0.492692
C92	C	-0.069436	0.150445	-0.159359
C93	C	0.263897	0.483778	0.173974
C94	C	-0.402757	-0.117141	-0.492728
C95	C	-0.069423	0.216193	-0.159394
C96	C	0.263910	0.549526	0.173939
C97	C	-0.308228	-0.131058	-0.377563
C98	C	0.025105	0.202275	-0.044230
C99	C	0.358439	0.535608	0.289103
C100	C	-0.308239	-0.196804	-0.377536
C101	C	0.025095	0.136529	-0.044203
C102	C	0.358428	0.469863	0.289130
C103	C	-0.355513	-0.222715	-0.435099
C104	C	-0.022179	0.110618	-0.101766
C105	C	0.311154	0.443951	0.231567
C106	C	-0.519044	-0.857001	-0.435040
C107	C	-0.185711	-0.523668	-0.101707
C108	C	0.147623	-0.190334	0.231626
C109	C	-0.589013	-0.857022	-0.435049
C110	C	-0.255680	-0.523689	-0.101716
C111	C	0.077653	-0.190356	0.231617
C112	C	-0.614904	-0.904272	-0.377447
C113	C	-0.281571	-0.570938	-0.044113
C114	C	0.051763	-0.237605	0.289220
C115	C	-0.680649	-0.904299	-0.377467
C116	C	-0.347316	-0.570965	-0.044134
C117	C	-0.013982	-0.237632	0.289200
C118	C	-0.720500	-0.857066	-0.435080
C119	C	-0.387166	-0.523733	-0.101747
C120	C	-0.053833	-0.190400	0.231586
C121	C	-0.694602	-0.809813	-0.492694
C122	C	-0.361269	-0.476480	-0.159361
C123	C	-0.027936	-0.143146	0.173972
C124	C	-0.628859	-0.809791	-0.492679
C125	C	-0.295526	-0.476458	-0.159345
C126	C	0.037808	-0.143124	0.173988
N127	N	-0.824608	-0.801173	-0.441916
N128	N	-0.491275	-0.467839	-0.108583
N129	N	-0.157942	-0.134506	0.224750
N130	N	-0.887061	-0.801196	-0.441926
N131	N	-0.553728	-0.467863	-0.108592
N132	N	-0.220394	-0.134529	0.224741
C133	C	-0.918580	-0.857131	-0.435132
C134	C	-0.585247	-0.523797	-0.101799
C135	C	-0.251914	-0.190464	0.231535
N136	N	-0.885286	-0.913044	-0.428311
N137	N	-0.551953	-0.579711	-0.094978
N138	N	-0.218619	-0.246378	0.238356
N139	N	-0.822827	-0.913021	-0.428297
N140	N	-0.489494	-0.579687	-0.094963
N141	N	-0.156160	-0.246354	0.238370
C142	C	-0.791788	-0.857085	-0.435104
C143	C	-0.458454	-0.523752	-0.101771
C144	C	-0.125121	-0.190419	0.231563
C145	C	-1.015759	-0.904413	-0.377548
C146	C	-0.682426	-0.571080	-0.044215
C147	C	-0.349092	-0.237746	0.289118
C148	C	-1.081506	-0.904440	-0.377575
C149	C	-0.748172	-0.571107	-0.044242
C150	C	-0.414839	-0.237774	0.289092
C151	C	-1.095457	-0.809950	-0.492798
C152	C	-0.762124	-0.476616	-0.159464
C153	C	-0.428791	-0.143283	0.173869
C154	C	-1.029712	-0.809927	-0.492776
C155	C	-0.696379	-0.476594	-0.159442
C156	C	-0.363046	-0.143261	0.173891
C157	C	-0.989866	-0.857159	-0.435146
C158	C	-0.656533	-0.523825	-0.101813
C159	C	-0.323200	-0.190492	0.231520
C160	C	-0.191317	-0.857169	-0.435160
C161	C	0.142017	-0.523836	-0.101827
C162	C	0.475350	-0.190503	0.231506
C163	C	-0.121352	-0.857208	-0.435190
C164	C	0.211981	-0.523875	-0.101857
C165	C	0.545315	-0.190542	0.231477
C166	C	-0.383866	-0.828683	-0.670363
C167	C	-0.050533	-0.495349	-0.337029
C168	C	0.282801	-0.162016	-0.003696
C169	C	-0.395955	-0.816582	-0.770622
C170	C	-0.062621	-0.483249	-0.437288
C171	C	0.270712	-0.149916	-0.103955
C172	C	-0.355481	-0.021256	-0.435186
C173	C	-0.022148	0.312077	-0.101853
C174	C	0.311186	0.645410	0.231480
C175	C	-0.355492	-0.091227	-0.435161
C176	C	-0.022159	0.242106	-0.101828
C177	C	0.311174	0.575439	0.231506
C178	C	-0.268989	-0.943584	-1.053423
C179	C	0.064344	-0.610250	-0.720090
C180	C	0.397677	-0.276917	-0.386756
C181	C	-0.257633	-0.954956	-0.959225
C182	C	0.075701	-0.621623	-0.625891
C183	C	0.409034	-0.288290	-0.292558
C184	C	-0.292212	-0.920364	-0.912069
C185	C	0.041121	-0.587030	-0.578736
C186	C	0.374455	-0.253697	-0.245403
C187	C	-0.338150	-0.874397	-0.959121
C188	C	-0.004817	-0.541063	-0.625788
C189	C	0.328516	-0.207730	-0.292455
C190	C	-0.349512	-0.863026	-1.053329
C191	C	-0.016178	-0.529693	-0.719996
C192	C	0.317155	-0.196360	-0.386662
C193	C	-0.372734	-0.839806	-0.911975
C194	C	-0.039401	-0.506473	-0.578642
C195	C	0.293932	-0.173140	-0.245309
C196	C	-0.418673	-0.793839	-0.959027
C197	C	-0.085339	-0.460506	-0.625694
C198	C	0.247994	-0.127172	-0.292361
C199	C	-0.430032	-0.782471	-1.053226
C200	C	-0.096698	-0.449137	-0.719892
C201	C	0.236635	-0.115804	-0.386559
C202	C	-0.395452	-0.817063	-1.100381
C203	C	-0.062119	-0.483730	-0.767048
C204	C	0.271214	-0.150397	-0.433714
C205	C	-0.361373	-0.851177	-0.817768
C206	C	-0.028040	-0.517843	-0.484434
C207	C	0.305294	-0.184510	-0.151101
C208	C	-0.441895	-0.770619	-0.817674
C209	C	-0.108562	-0.437286	-0.484340
C210	C	0.224771	-0.103953	-0.151007
C211	C	-0.453252	-0.759247	-0.911872
C212	C	-0.119919	-0.425913	-0.578539
C213	C	0.213415	-0.092580	-0.245205
C214	C	-0.327196	-0.885398	-0.200734
C215	C	0.006137	-0.552065	0.132600
C216	C	0.339471	-0.218732	0.465933
C217	C	-0.314930	-0.897621	-0.100475
C218	C	0.018403	-0.564287	0.232858
C219	C	0.351737	-0.230954	0.566191
H220	H	-0.441305	-0.604844	-0.539398
H221	H	-0.107972	-0.271510	-0.206065
H222	H	0.225361	0.061823	0.127269
F223	F	-0.453057	-0.074755	-0.554026
F224	F	-0.119723	0.258578	-0.220692
F225	F	0.213610	0.591912	0.112641
F226	F	-0.453105	-0.475613	-0.553850
F227	F	-0.119772	-0.142279	-0.220517
F228	F	0.213562	0.191054	0.112816
F229	F	-0.601304	-0.759499	-0.553990
F230	F	-0.267971	-0.426166	-0.220657
F231	F	0.065363	-0.092833	0.112677
H232	H	-0.983315	-0.942874	-0.330626
H233	H	-0.649982	-0.609540	0.002708
H234	H	-0.316649	-0.276207	0.336041
H235	H	-0.269743	-0.109957	-0.330695
H236	H	0.063590	0.223377	0.002638
H237	H	0.396924	0.556710	0.335971
F238	F	-0.453080	-0.210467	-0.553959
F239	F	-0.119746	0.122866	-0.220626
F240	F	0.213587	0.456200	0.112707
H241	H	-1.102584	-0.942920	-0.330670
H242	H	-0.769251	-0.609587	0.002664
H243	H	-0.435918	-0.276253	0.335997
H244	H	-0.240844	-0.971748	-1.091826
H245	H	0.092490	-0.638414	-0.758492
H246	H	0.425823	-0.305081	-0.425159
F247	F	-1.137866	-0.759684	-0.554120
F248	F	-0.804532	-0.426351	-0.220787
F249	F	-0.471199	-0.093017	0.112547
F250	F	-0.407539	-0.804964	-1.200639
F251	F	-0.074206	-0.471631	-0.867306
F252	F	0.259127	-0.138297	-0.533973
F253	F	-0.257939	-0.239191	-0.316243
F254	F	0.075394	0.094143	0.017090
F255	F	0.408727	0.427476	0.350423
H256	H	-0.269789	-0.510814	-0.330532
H257	H	0.063544	-0.177481	0.002801
H258	H	0.396878	0.155853	0.336135
H259	H	-0.269792	-0.630090	-0.330484
H260	H	0.063541	-0.296757	0.002850
H261	H	0.396874	0.036576	0.336183
F262	F	-0.478933	-0.733557	-1.103300
F263	F	-0.145599	-0.400224	-0.769966
F264	F	0.187734	-0.066890	-0.436633
F265	F	-0.502142	-0.710327	-0.961959
F266	F	-0.168809	-0.376993	-0.628626
F267	F	0.164524	-0.043660	-0.295293
H268	H	-0.582463	-0.942732	-0.330524
H269	H	-0.249130	-0.609398	0.002810
H270	H	0.084203	-0.276065	0.336143
F271	F	-0.280123	-0.932468	-0.811815
F272	F	0.053211	-0.599135	-0.478481
F273	F	0.386544	-0.265801	-0.145148
H274	H	-0.701734	-0.942777	-0.330560
H275	H	-0.368400	-0.609444	0.002773
H276	H	-0.035067	-0.276110	0.336107
F277	F	-0.208744	-1.003876	-0.909155
F278	F	0.124589	-0.670543	-0.575822
F279	F	0.457923	-0.337210	-0.242489
H280	H	-0.727053	-0.771357	-0.539605
H281	H	-0.393720	-0.438024	-0.206272
H282	H	-0.060386	-0.104690	0.127062
F283	F	-1.002156	-0.759635	-0.554082
F284	F	-0.668823	-0.426302	-0.220748
F285	F	-0.335490	-0.092969	0.112585
H286	H	-0.323969	-0.888603	-0.779467
H287	H	0.009364	-0.555270	-0.446134
H288	H	0.342698	-0.221937	-0.112800
H289	H	-0.470054	-0.742452	-0.779280
H290	H	-0.136720	-0.409119	-0.445947
H291	H	0.196613	-0.075785	-0.112613
