data_functionalizedCrystal
_audit_creation_method	'MofGen! by Chris Wilmer'
_symmetry_space_group_name_H-M	'P1'
_symmetry_Int_Tables_number	1
_symmetry_cell_setting	triclinic
loop_
_symmetry_equiv_pos_as_xyz
  x,y,z
_cell_length_a	19.805407
_cell_length_b	10.686285
_cell_length_c	19.805399
_cell_angle_alpha	94.389466
_cell_angle_beta	90.019573
_cell_angle_gamma	85.631507
loop_
_atom_site_label
_atom_site_type_symbol
_atom_site_fract_x
_atom_site_fract_y
_atom_site_fract_z
Zn1	Zn	1.055500	-0.502374	0.362110
Zn2	Zn	1.064136	-0.713385	0.240266
Zn3	Zn	0.942316	-0.502409	0.248934
Zn4	Zn	0.950997	-0.713318	0.353415
O5	O	1.003237	-0.607872	0.301181
O6	O	1.151363	-0.530379	0.345959
O7	O	1.047958	-0.685441	0.146697
O8	O	0.950083	-0.325830	0.271213
O9	O	1.157708	-0.685408	0.256440
O10	O	1.033239	-0.325804	0.354364
O11	O	0.958457	-0.530438	0.153065
O12	O	0.848750	-0.530373	0.262782
O13	O	0.964878	-0.685293	0.449287
O14	O	0.855128	-0.685327	0.339544
O15	O	1.041656	-0.530314	0.455675
O16	O	1.056375	-0.889951	0.248009
O17	O	0.973252	-0.889902	0.331139
C18	C	0.827380	-0.607847	0.301160
C19	C	0.752149	-0.607868	0.301166
C20	C	0.720149	-0.688673	0.341061
C21	C	0.649460	-0.688676	0.341071
C22	C	0.610774	-0.607877	0.301181
C23	C	0.642779	-0.527063	0.261284
C24	C	0.713466	-0.527055	0.261279
C25	C	0.357707	-0.527090	0.261306
C26	C	0.287015	-0.527107	0.261312
C27	C	0.293701	-0.688711	0.341097
C28	C	0.364388	-0.688704	0.341092
C29	C	0.396387	-0.607885	0.301198
C30	C	0.473035	-0.607882	0.301190
C31	C	0.534127	-0.607886	0.301186
C32	C	1.016711	-0.935710	0.287705
C33	C	1.022538	-1.075961	0.281962
C34	C	1.179781	-0.607897	0.301203
C35	C	1.255013	-0.607907	0.301212
C36	C	1.003272	-0.607792	0.477727
C37	C	1.003287	-0.607758	0.552961
C38	C	0.989729	-0.278753	0.314725
C39	C	0.983973	-0.138502	0.320497
C40	C	1.003238	-0.607860	0.125326
C41	C	1.003340	-0.607538	0.050107
C42	C	1.043266	-0.527056	0.591633
C43	C	1.043271	-0.527020	0.662323
C44	C	1.003301	-0.607692	0.694339
C45	C	0.963317	-0.688398	0.655662
C46	C	0.963308	-0.688427	0.584974
C47	C	0.963350	-0.688280	0.940740
C48	C	0.963364	-0.688247	1.011434
C49	C	1.043313	-0.526873	1.018089
C50	C	1.043305	-0.526902	0.947401
C51	C	1.003318	-0.607602	0.908730
C52	C	1.003312	-0.607639	0.832080
C53	C	1.003310	-0.607663	0.770988
H54	H	0.739519	-0.461248	0.228796
C55	C	0.919800	-0.775832	0.690391
C56	C	0.851699	-0.748331	0.674329
C57	C	0.811592	-0.828843	0.706313
H58	H	0.933096	-0.860663	0.675343
H59	H	0.925485	-0.764251	0.738036
H60	H	0.846018	-0.759922	0.626694
H61	H	0.838383	-0.663514	0.689378
H62	H	0.817277	-0.817263	0.753958
H63	H	0.824894	-0.913670	0.691263
H64	H	0.765381	-0.810187	0.695425
H65	H	0.395884	-0.754502	0.373572
H66	H	0.930746	-0.754130	0.553488
C67	C	0.920008	-0.776040	1.046100
C68	C	0.939849	-0.900896	1.023755
C69	C	0.899922	-0.981801	1.055667
H70	H	0.925706	-0.764639	1.093741
H71	H	0.873762	-0.757638	1.035252
H72	H	0.986083	-0.919291	1.034608
H73	H	0.934148	-0.912337	0.976118
H74	H	0.853677	-0.963399	1.044819
H75	H	0.905624	-0.970389	1.103307
H76	H	0.913375	-1.066523	1.040506
H77	H	0.946499	-1.084751	0.357883
H78	H	1.060009	-1.129719	0.244569
C79	C	0.258912	-0.776237	0.384511
C80	C	0.215432	-0.704900	0.430907
C81	C	0.183381	-0.785483	0.470914
H82	H	0.233527	-0.831178	0.356395
H83	H	0.292053	-0.824338	0.408306
H84	H	0.182295	-0.656821	0.407114
H85	H	0.240799	-0.649962	0.459038
H86	H	0.216522	-0.833584	0.494709
H87	H	0.158000	-0.840421	0.442792
H88	H	0.153881	-0.737093	0.502401
C89	C	1.086684	-0.439328	0.557003
C90	C	1.121682	-0.368621	0.606005
C91	C	1.161677	-0.287776	0.574132
H92	H	1.118208	-0.487469	0.527449
H93	H	1.058543	-0.384289	0.531703
H94	H	1.149820	-0.423653	0.631293
H95	H	1.090174	-0.320455	0.635561
H96	H	1.133537	-0.232737	0.548832
H97	H	1.193197	-0.335927	0.544580
H98	H	1.185423	-0.239783	0.607375
H99	H	1.075828	-0.461307	0.693806
H100	H	1.075855	-0.461215	0.921337
C101	C	0.600895	-0.439199	0.217954
C102	C	0.644051	-0.368407	0.183028
C103	C	0.605494	-0.287444	0.143110
H104	H	0.575283	-0.487259	0.186387
H105	H	0.571084	-0.384220	0.246141
H106	H	0.673851	-0.423379	0.154844
H107	H	0.669664	-0.320321	0.214579
H108	H	0.575682	-0.232464	0.171297
H109	H	0.579883	-0.335514	0.111547
H110	H	0.634769	-0.239393	0.119413
H111	H	1.075869	-0.461159	1.049584
H112	H	0.930802	-0.754010	0.909262
C113	C	0.614677	-0.776209	0.384476
C114	C	0.571197	-0.704887	0.430877
C115	C	0.539153	-0.785484	0.470881
H116	H	0.589294	-0.831151	0.356359
H117	H	0.647823	-0.824308	0.408267
H118	H	0.538056	-0.656810	0.407088
H119	H	0.596563	-0.649948	0.459009
H120	H	0.572298	-0.833582	0.494672
H121	H	0.513773	-0.840422	0.442758
H122	H	0.509652	-0.737103	0.502373
H123	H	0.751642	-0.754473	0.373542
H124	H	0.383752	-0.461292	0.228816
C125	C	0.245127	-0.439232	0.217985
C126	C	0.288278	-0.368426	0.183061
C127	C	0.249714	-0.287458	0.143151
H128	H	0.219514	-0.487289	0.186417
H129	H	0.215316	-0.384261	0.246177
H130	H	0.318077	-0.423390	0.154872
H131	H	0.313891	-0.320344	0.214613
H132	H	0.219903	-0.232487	0.171343
H133	H	0.224103	-0.335524	0.111587
H134	H	0.278986	-0.239398	0.119455
