data_functionalizedCrystal
_audit_creation_method	'MofGen! by Chris Wilmer'
_symmetry_space_group_name_H-M	'P1'
_symmetry_Int_Tables_number	1
_symmetry_cell_setting	triclinic
loop_
_symmetry_equiv_pos_as_xyz
  x,y,z
_cell_length_a	10.654550
_cell_length_b	10.654562
_cell_length_c	9.730223
_cell_angle_alpha	89.996961
_cell_angle_beta	89.999807
_cell_angle_gamma	84.487503
loop_
_atom_site_label
_atom_site_type_symbol
_atom_site_fract_x
_atom_site_fract_y
_atom_site_fract_z
O1	O	0.176469	1.667825	-0.114377
O2	O	0.193259	1.302348	-0.114359
O3	O	0.002125	1.493489	-0.114363
O4	O	0.367603	1.476683	-0.114373
O5	O	0.002130	1.493487	0.114217
O6	O	0.193264	1.302346	0.114221
O7	O	0.176474	1.667822	0.114203
Zn8	Zn	0.184870	1.485084	0.150504
Zn9	Zn	0.184863	1.485087	-0.150660
O10	O	0.367608	1.476681	0.114207
C11	C	0.192025	1.255549	-0.000067
C12	C	0.188327	1.116107	-0.000060
C13	C	0.186604	1.050575	0.124528
C14	C	0.183139	0.919553	0.124505
C15	C	0.183125	0.919605	-0.124705
C16	C	0.186581	1.050626	-0.124681
C17	C	0.186618	1.050543	0.268408
C18	C	0.183153	0.919521	0.268385
C19	C	-0.044671	1.492254	-0.000075
C20	C	-0.184114	1.488563	-0.000079
C21	C	-0.263595	1.601103	-0.000081
C22	C	-0.394615	1.597627	-0.000090
C23	C	-0.366662	1.369059	-0.000091
C24	C	-0.235644	1.372537	-0.000092
C25	C	-0.279734	1.733066	-0.000074
C26	C	-0.410755	1.729589	-0.000083
C27	C	0.414403	1.477916	-0.000084
C28	C	0.553847	1.481608	-0.000088
C29	C	0.177708	1.714621	-0.000092
C30	C	0.181406	1.854064	-0.000108
N31	N	0.184873	1.485091	0.356040
N32	N	0.184850	1.485089	-0.356196
C33	C	0.100268	1.569750	0.427965
C34	C	0.100253	1.569747	0.571848
C35	C	0.269459	1.400421	0.571869
C36	C	0.269467	1.400419	0.427989
C37	C	0.002582	1.667513	0.427953
C38	C	0.002567	1.667510	0.571836
H39	H	0.187964	1.103980	-0.226133
O40	O	0.360708	1.309108	0.649469
H41	H	0.346495	1.323336	0.761602
O42	O	0.031102	1.795333	0.623576
H43	H	-0.048950	1.837030	0.686921
O44	O	-0.422247	1.243923	-0.000081
H45	H	-0.481278	1.236874	-0.093240
H46	H	-0.250376	1.784682	-0.095730
H47	H	-0.088657	1.636997	0.616456
O48	O	0.181254	0.848980	-0.259115
H49	H	0.178569	0.746862	-0.238204
H50	H	0.338348	1.331472	0.369430
O51	O	-0.149922	1.251149	-0.000111
H52	H	-0.050158	1.273055	-0.000124
O53	O	-0.232532	1.788746	0.130645
H54	H	-0.257711	1.731055	0.219681
H55	H	-0.093951	1.646070	0.388903
O56	O	-0.471235	1.782420	-0.130805
H57	H	-0.397345	1.813247	-0.200102
O58	O	0.298114	0.858188	0.341549
H59	H	0.353472	0.793536	0.269784
H60	H	0.033175	1.758696	0.383322
H61	H	-0.452511	1.779310	0.095573
H62	H	0.278215	1.080117	0.313049
O63	O	0.071658	1.111837	0.341593
H64	H	0.012626	1.037938	0.377391
O65	O	0.061840	0.880317	0.327545
H66	H	-0.018977	0.922439	0.265591
