data_functionalizedCrystal
_audit_creation_method	'MofGen! by Chris Wilmer'
_symmetry_space_group_name_H-M	'P1'
_symmetry_Int_Tables_number	1
_symmetry_cell_setting	triclinic
loop_
_symmetry_equiv_pos_as_xyz
  x,y,z
_cell_length_a	11.792241
_cell_length_b	10.654550
_cell_length_c	10.868271
_cell_angle_alpha	90.003964
_cell_angle_beta	90.000107
_cell_angle_gamma	84.339159
loop_
_atom_site_label
_atom_site_type_symbol
_atom_site_fract_x
_atom_site_fract_y
_atom_site_fract_z
O1	O	-1.507306	-0.172136	-0.102199
O2	O	-1.177006	-0.189876	-0.102228
O3	O	-1.349750	0.001754	-0.102208
O4	O	-1.334562	-0.363767	-0.102219
O5	O	-1.349736	0.001762	0.102436
O6	O	-1.176992	-0.189869	0.102417
O7	O	-1.507292	-0.172129	0.102445
Zn8	Zn	-1.342139	-0.180998	0.134923
Zn9	Zn	-1.342158	-0.181007	-0.134705
O10	O	-1.334547	-0.363759	0.102426
C11	C	-1.134705	-0.188758	0.000091
C12	C	-1.008684	-0.185423	0.000080
C13	C	-1.348628	0.048553	0.000112
C14	C	-1.345291	0.187987	0.000108
C15	C	-1.549592	-0.173247	0.000124
C16	C	-1.675614	-0.176582	0.000127
C17	C	-0.777957	-0.179290	0.000116
C18	C	-0.906351	-0.182697	0.000096
C19	C	-1.335670	-0.410558	0.000102
C20	C	-1.339006	-0.549992	0.000099
N21	N	-1.342135	-0.180990	0.318937
C22	C	-1.447000	0.267760	0.000120
C23	C	-1.443858	0.398772	0.000111
C24	C	-1.237290	0.370224	0.000083
C25	C	-1.240433	0.239215	0.000083
C26	C	-1.551859	0.216532	0.000145
C27	C	-1.653577	0.296307	0.000159
C28	C	-1.650435	0.427319	0.000150
C29	C	-1.545575	0.478556	0.000128
N30	N	-1.342172	-0.181005	-0.318719
C31	C	-1.342152	-0.181005	0.569943
C32	C	-1.342139	-0.181000	0.430265
H33	H	-1.554429	0.109857	0.000156
H34	H	-1.738949	0.254580	0.000147
F35	F	-1.542237	0.617993	0.000159
F36	F	-1.758689	0.512217	0.000152
F37	F	-1.125699	0.424760	0.000060
F38	F	-1.132182	0.154310	0.000069
