data_functionalizedCrystal
_audit_creation_method	'MofGen! by Chris Wilmer'
_symmetry_space_group_name_H-M	'P1'
_symmetry_Int_Tables_number	1
_symmetry_cell_setting	triclinic
loop_
_symmetry_equiv_pos_as_xyz
  x,y,z
_cell_length_a	17.640112
_cell_length_b	25.639239
_cell_length_c	17.639306
_cell_angle_alpha	101.185844
_cell_angle_beta	87.804122
_cell_angle_gamma	101.263838
loop_
_atom_site_label
_atom_site_type_symbol
_atom_site_fract_x
_atom_site_fract_y
_atom_site_fract_z
Zn1	Zn	1.247712	-0.067208	-0.195068
Zn2	Zn	1.221936	-0.141116	-0.068094
Zn3	Zn	1.095061	-0.074108	-0.093721
Zn4	Zn	1.120633	-0.175050	-0.220667
O5	O	1.171336	-0.114370	-0.144387
O6	O	1.350574	-0.059923	-0.156787
O7	O	1.183616	-0.120914	0.034773
O8	O	1.115396	-0.000018	-0.107176
O9	O	1.331636	-0.114223	-0.063500
O10	O	1.227548	0.005052	-0.181635
O11	O	1.090402	-0.071683	0.015945
O12	O	0.992173	-0.104587	-0.131998
O13	O	1.158980	-0.172058	-0.323537
O14	O	1.010960	-0.178748	-0.225265
O15	O	1.252344	-0.092827	-0.304730
O16	O	1.208412	-0.218793	-0.088322
O17	O	1.133986	-0.243723	-0.200416
C18	C	0.974009	-0.146099	-0.184191
C19	C	0.889596	-0.159687	-0.201236
C20	C	0.563031	-0.011134	-0.014897
C21	C	0.483714	-0.023914	-0.030925
C22	C	0.503298	-0.101212	-0.127876
C23	C	0.582619	-0.088437	-0.111859
C24	C	0.612479	-0.043398	-0.055368
C25	C	0.632067	-0.120701	-0.152330
C26	C	0.711381	-0.107929	-0.136312
C27	C	0.741246	-0.062892	-0.079822
C28	C	0.691793	-0.030625	-0.039350
C29	C	0.602205	-0.165743	-0.208817
C30	C	0.651653	-0.198007	-0.249288
C31	C	0.730969	-0.185232	-0.233274
C32	C	0.760834	-0.140196	-0.176784
C33	C	0.780422	-0.217499	-0.273746
C34	C	0.859736	-0.204727	-0.257727
C35	C	0.840148	-0.127423	-0.160765
C36	C	1.171201	-0.250230	-0.144378
C37	C	1.171218	-0.308343	-0.144386
C38	C	1.210233	-0.655684	-0.086077
C39	C	1.210265	-0.710285	-0.086081
O40	O	1.243296	-0.727468	-0.036494
N41	N	1.171479	-0.750593	-0.144411
C42	C	1.132666	-0.736299	-0.202744
O43	O	1.099680	-0.775598	-0.252359
C44	C	1.132640	-0.681699	-0.202742
C45	C	1.171421	-0.641393	-0.144405
C46	C	1.249012	-0.615379	-0.027745
C47	C	1.248979	-0.560783	-0.027740
C48	C	1.210167	-0.546491	-0.086067
C49	C	1.171388	-0.586796	-0.144400
C50	C	1.093832	-0.667405	-0.261078
C51	C	1.093810	-0.612800	-0.261072
C52	C	1.132591	-0.572494	-0.202734
C53	C	1.132544	-0.517907	-0.202723
N54	N	1.171329	-0.477599	-0.144393
C55	C	1.210141	-0.491891	-0.086066
C56	C	1.132726	-0.850961	-0.202744
C57	C	1.132747	-0.905561	-0.202744
C58	C	1.210347	-0.879543	-0.086081
C59	C	1.210320	-0.824943	-0.086080
C60	C	1.171511	-0.810653	-0.144415
C61	C	1.210068	-0.377235	-0.086060
C62	C	1.210029	-0.322634	-0.086058
C63	C	1.132434	-0.348656	-0.202722
C64	C	1.132469	-0.403252	-0.202722
C65	C	1.171292	-0.417539	-0.144387
O66	O	1.099531	-0.500684	-0.252287
O67	O	1.243130	-0.452587	-0.036465
C68	C	1.369433	-0.082518	-0.104429
C69	C	1.453850	-0.068945	-0.087401
C70	C	1.211390	-0.135458	-0.342458
C71	C	1.228459	-0.144444	-0.426863
C72	C	1.171495	0.022021	-0.144409
C73	C	1.171563	0.080143	-0.144418
C74	C	1.041961	-0.045860	-0.753495
C75	C	1.058017	-0.054312	-0.832803
C76	C	1.155071	-0.105571	-0.813180
C77	C	1.139026	-0.097120	-0.733868
C78	C	1.082470	-0.067265	-0.704032
C79	C	1.179535	-0.118526	-0.684405
C80	C	1.163488	-0.110078	-0.605100
C81	C	1.106932	-0.080226	-0.575258
C82	C	1.066423	-0.058818	-0.624727
C83	C	1.236087	-0.148384	-0.714243
C84	C	1.276595	-0.169789	-0.664780
C85	C	1.260552	-0.161339	-0.585473
C86	C	1.203997	-0.131486	-0.555631
C87	C	1.301062	-0.182747	-0.536004
C88	C	1.285015	-0.174300	-0.456699
C89	C	1.187950	-0.123039	-0.476326
C90	C	1.131481	-0.093320	0.052921
C91	C	1.114559	-0.084163	0.137356
H92	H	0.716108	0.006057	0.006639
F93	F	1.052504	-0.597596	-0.323163
H94	H	0.537622	-0.176140	-0.221857
H95	H	1.241953	-0.891189	-0.038590
H96	H	1.020377	-0.034500	-0.600432
H97	H	1.093863	-0.073353	-0.510683
H98	H	1.241609	-0.289817	-0.038550
F99	F	1.091411	-0.835759	-0.264833
H100	H	1.241684	-0.388859	-0.038559
F101	F	1.091461	-0.948453	-0.264828
H102	H	1.280561	-0.527967	0.019762
H103	H	0.627329	-0.234679	-0.295281
H104	H	0.995915	-0.021542	-0.729199
H105	H	0.478975	-0.137885	-0.173869
H106	H	0.587347	0.025548	0.031092
F107	F	1.215258	-0.137346	-0.844943
F108	F	1.052563	-0.710290	-0.323175
H109	H	0.443456	0.002366	0.002031
F110	F	1.091177	-0.446151	-0.264800
F111	F	0.912364	-0.239066	-0.300800
F112	F	0.748630	-0.265439	-0.333853
H113	H	1.280621	-0.627008	0.019754
F114	F	1.251597	-0.782051	-0.023990
H115	H	1.100831	-0.337012	-0.250210
H116	H	1.347104	-0.207060	-0.560310
F117	F	1.127763	-0.091258	-0.444567
F118	F	1.253165	-0.157373	-0.798648
F119	F	1.014916	-0.031512	-0.885440
H120	H	1.318011	-0.191721	-0.416423
H121	H	1.322641	-0.194100	-0.689085
H122	H	0.864463	-0.090741	-0.114776
H123	H	0.805829	-0.052495	-0.066779
