data_functionalizedCrystal
_audit_creation_method	'MofGen! by Chris Wilmer'
_symmetry_space_group_name_H-M	'P1'
_symmetry_Int_Tables_number	1
_symmetry_cell_setting	triclinic
loop_
_symmetry_equiv_pos_as_xyz
  x,y,z
_cell_length_a	16.120484
_cell_length_b	16.625547
_cell_length_c	16.625539
_cell_angle_alpha	89.978691
_cell_angle_beta	92.870299
_cell_angle_gamma	92.925712
loop_
_atom_site_label
_atom_site_type_symbol
_atom_site_fract_x
_atom_site_fract_y
_atom_site_fract_z
Zn1	Zn	-0.331923	1.216357	-0.472259
Zn2	Zn	-0.081923	1.466357	-0.222259
Zn3	Zn	0.168077	1.716357	0.027741
Zn4	Zn	0.418077	1.966357	0.277741
Zn5	Zn	-0.471343	1.209424	-0.344255
Zn6	Zn	-0.221343	1.459424	-0.094255
Zn7	Zn	0.028657	1.709424	0.155745
Zn8	Zn	0.278657	1.959424	0.405745
Zn9	Zn	-0.331948	1.081526	-0.337431
Zn10	Zn	-0.081948	1.331526	-0.087431
Zn11	Zn	0.168052	1.581526	0.162569
Zn12	Zn	0.418052	1.831526	0.412569
Zn13	Zn	-0.471297	1.074647	-0.479033
Zn14	Zn	-0.221297	1.324647	-0.229033
Zn15	Zn	0.028703	1.574647	0.020967
Zn16	Zn	0.278703	1.824647	0.270967
O17	O	-0.401628	1.145488	-0.408245
O18	O	-0.151628	1.395488	-0.158245
O19	O	0.098372	1.645488	0.091755
O20	O	0.348372	1.895488	0.341755
O21	O	-0.350427	1.328269	-0.455300
O22	O	-0.100427	1.578269	-0.205300
O23	O	0.149573	1.828269	0.044700
O24	O	0.399573	2.078269	0.294700
O25	O	-0.452882	1.192435	-0.230519
O26	O	-0.202882	1.442435	0.019481
O27	O	0.047118	1.692435	0.269481
O28	O	0.297118	1.942435	0.519481
O29	O	-0.215278	1.105192	-0.349625
O30	O	0.034722	1.355192	-0.099625
O31	O	0.284722	1.605192	0.150375
O32	O	0.534722	1.855192	0.400375
O33	O	-0.452858	1.323175	-0.361257
O34	O	-0.202858	1.573175	-0.111257
O35	O	0.047142	1.823175	0.138743
O36	O	0.297142	2.073175	0.388743
O37	O	-0.215260	1.204252	-0.448683
O38	O	0.034740	1.454252	-0.198683
O39	O	0.284740	1.704252	0.051317
O40	O	0.534740	1.954252	0.301317
O41	O	-0.350468	1.098469	-0.225505
O42	O	-0.100468	1.348469	0.024495
O43	O	0.149532	1.598469	0.274495
O44	O	0.399532	1.848469	0.524495
O45	O	-0.350424	0.967781	-0.356193
O46	O	-0.100424	1.217781	-0.106193
O47	O	0.149576	1.467781	0.143807
O48	O	0.399576	1.717781	0.393807
O49	O	-0.452779	1.093468	-0.590965
O50	O	-0.202779	1.343468	-0.340965
O51	O	0.047221	1.593468	-0.090965
O52	O	0.297221	1.843468	0.159035
O53	O	-0.452803	0.962727	-0.460228
O54	O	-0.202803	1.212727	-0.210228
O55	O	0.047197	1.462727	0.039772
O56	O	0.297197	1.712727	0.289772
O57	O	-0.350382	1.197582	-0.585989
O58	O	-0.100382	1.447582	-0.335989
O59	O	0.149618	1.697582	-0.085989
O60	O	0.399618	1.947582	0.164011
O61	O	-0.588003	1.185765	-0.367825
O62	O	-0.338003	1.435765	-0.117825
O63	O	-0.088003	1.685765	0.132175
O64	O	0.161997	1.935765	0.382175
O65	O	-0.587969	1.086745	-0.466845
O66	O	-0.337969	1.336745	-0.216845
O67	O	-0.087969	1.586745	0.033155
O68	O	0.162031	1.836745	0.283155
C69	C	-0.401612	0.935998	-0.408206
C70	C	-0.151612	1.185998	-0.158206
C71	C	0.098388	1.435998	0.091794
C72	C	0.348388	1.685998	0.341794
C73	C	-0.401625	0.846377	-0.408209
C74	C	-0.151625	1.096377	-0.158209
C75	C	0.098375	1.346377	0.091791
C76	C	0.348375	1.596377	0.341791
C77	C	-0.401626	0.773594	-0.408219
C78	C	-0.151626	1.023594	-0.158219
C79	C	0.098374	1.273594	0.091781
C80	C	0.348374	1.523594	0.341781
C81	C	-0.401631	0.682285	-0.408240
C82	C	-0.151631	0.932285	-0.158240
C83	C	0.098369	1.182285	0.091760
C84	C	0.348369	1.432285	0.341760
C85	C	-0.401638	0.609509	-0.408261
C86	C	-0.151638	0.859509	-0.158261
C87	C	0.098362	1.109509	0.091739
C88	C	0.348362	1.359509	0.341739
C89	C	-0.401644	0.518194	-0.408280
C90	C	-0.151644	0.768194	-0.158280
C91	C	0.098356	1.018194	0.091720
C92	C	0.348356	1.268194	0.341720
C93	C	-0.618236	1.134778	-0.418828
C94	C	-0.368236	1.384778	-0.168828
C95	C	-0.118236	1.634778	0.081172
C96	C	0.131764	1.884778	0.331172
C97	C	-0.710902	1.130270	-0.423383
C98	C	-0.460902	1.380270	-0.173383
C99	C	-0.210902	1.630270	0.076617
C100	C	0.039098	1.880270	0.326617
C101	C	-0.880564	1.122044	-0.431716
C102	C	-0.630564	1.372044	-0.181716
C103	C	-0.380564	1.622044	0.068284
C104	C	-0.130564	1.872044	0.318284
C105	C	-0.921851	1.169078	-0.384787
C106	C	-0.671851	1.419078	-0.134787
C107	C	-0.421851	1.669078	0.115213
C108	C	-0.171851	1.919078	0.365213
C109	C	-1.016256	1.164501	-0.389423
C110	C	-0.766256	1.414501	-0.139423
C111	C	-0.516256	1.664501	0.110577
C112	C	-0.266256	1.914501	0.360577
C113	C	-0.786150	1.126620	-0.427080
C114	C	-0.536150	1.376620	-0.177080
C115	C	-0.286150	1.626620	0.072920
C116	C	-0.036150	1.876620	0.322920
C117	C	-0.184173	1.156263	-0.397637
C118	C	0.065827	1.406263	-0.147637
C119	C	0.315827	1.656263	0.102363
C120	C	0.565827	1.906263	0.352363
C121	C	-0.091507	1.160854	-0.393117
C122	C	0.158493	1.410854	-0.143117
C123	C	0.408493	1.660854	0.106883
C124	C	0.658493	1.910854	0.356883
C125	C	-0.401573	1.145531	-0.618551
C126	C	-0.151573	1.395531	-0.368551
C127	C	0.098427	1.645531	-0.118551
C128	C	0.348427	1.895531	0.131449
C129	C	-0.401549	1.145549	-0.708171
C130	C	-0.151549	1.395549	-0.458171
C131	C	0.098451	1.645549	-0.208171
C132	C	0.348451	1.895549	0.041829
C133	C	-0.401645	1.355796	-0.408284
C134	C	-0.151645	1.605796	-0.158284
C135	C	0.098355	1.855796	0.091716
C136	C	0.348355	2.105796	0.341716
C137	C	-0.401652	1.445417	-0.408301
C138	C	-0.151652	1.695417	-0.158301
C139	C	0.098348	1.945417	0.091699
C140	C	0.348348	2.195417	0.341699
C141	C	-0.401531	1.145563	-0.780953
C142	C	-0.151531	1.395563	-0.530953
C143	C	0.098469	1.645563	-0.280953
C144	C	0.348469	1.895563	-0.030953
C145	C	-0.401500	1.145583	-0.872260
C146	C	-0.151500	1.395583	-0.622260
C147	C	0.098500	1.645583	-0.372260
C148	C	0.348500	1.895583	-0.122260
C149	C	-0.401470	1.145603	-0.945035
C150	C	-0.151470	1.395603	-0.695035
C151	C	0.098530	1.645603	-0.445035
C152	C	0.348530	1.895603	-0.195035
C153	C	-0.401440	1.145625	-1.036347
C154	C	-0.151440	1.395625	-0.786347
C155	C	0.098560	1.645625	-0.536347
C156	C	0.348560	1.895625	-0.286347
C157	C	-0.401622	1.145496	-0.198754
C158	C	-0.151622	1.395496	0.051246
C159	C	0.098378	1.645496	0.301246
C160	C	0.348378	1.895496	0.551246
C161	C	-0.401411	1.145645	-0.109123
C162	C	-0.151411	1.395645	0.140877
C163	C	0.098589	1.645645	0.390877
C164	C	0.348589	1.895645	0.640877
H165	H	-0.886296	1.212782	-0.341128
H166	H	-0.636296	1.462782	-0.091128
H167	H	-0.386296	1.712782	0.158872
H168	H	-0.136296	1.962782	0.408872
H169	H	-0.916116	1.078342	-0.475370
H170	H	-0.666116	1.328342	-0.225370
H171	H	-0.416116	1.578342	0.024630
H172	H	-0.166116	1.828342	0.274630
