data_functionalizedCrystal
_audit_creation_method	'MofGen! by Chris Wilmer'
_symmetry_space_group_name_H-M	'P1'
_symmetry_Int_Tables_number	1
_symmetry_cell_setting	triclinic
loop_
_symmetry_equiv_pos_as_xyz
  x,y,z
_cell_length_a	12.837943
_cell_length_b	17.699083
_cell_length_c	11.295675
_cell_angle_alpha	85.905943
_cell_angle_beta	85.469454
_cell_angle_gamma	90.944023
loop_
_atom_site_label
_atom_site_type_symbol
_atom_site_fract_x
_atom_site_fract_y
_atom_site_fract_z
O1	O	1.367968	-0.201310	0.099007
O2	O	1.066186	-0.191593	0.099014
O3	O	1.225604	-0.086888	0.099000
O4	O	1.208550	-0.306015	0.099021
O5	O	1.239573	-0.077705	-0.099046
O6	O	1.080156	-0.182410	-0.099032
O7	O	1.381937	-0.192127	-0.099039
Cu8	Cu	1.232322	-0.186430	-0.117119
Cu9	Cu	1.215802	-0.197290	0.117093
O10	O	1.222520	-0.296832	-0.099025
C11	C	1.231978	-0.054055	-0.000024
C12	C	1.230145	0.030098	-0.000024
C13	C	1.034559	-0.183718	-0.000009
C14	C	0.919506	-0.173928	-0.000006
N15	N	1.243949	-0.178792	-0.281851
C16	C	0.678252	-0.291632	-0.000012
C17	C	0.570149	-0.282436	-0.000011
C18	C	0.595196	-0.146341	-0.000011
C19	C	0.703299	-0.155536	-0.000012
C20	C	0.744822	-0.228184	-0.000011
C21	C	0.852927	-0.237380	-0.000004
C22	C	0.877972	-0.101285	-0.000013
C23	C	0.769870	-0.092089	-0.000012
C24	C	1.413565	-0.200002	-0.000014
C25	C	1.528617	-0.209793	-0.000009
C26	C	1.216146	-0.329665	0.000001
C27	C	1.217978	-0.413818	0.000009
C28	C	1.323719	0.071845	-0.000028
C29	C	1.321990	0.150915	-0.000017
C30	C	1.226686	0.188237	-0.000011
C31	C	1.133104	0.146484	-0.000004
C32	C	1.134833	0.067415	-0.000006
C33	C	1.126126	0.465359	0.000006
C34	C	1.124403	0.544434	0.000004
C35	C	1.313282	0.548859	-0.000005
C36	C	1.315012	0.469790	-0.000007
C37	C	1.221430	0.428044	0.000006
C38	C	1.223306	0.342307	-0.000003
C39	C	1.224809	0.273972	-0.000011
C40	C	1.120367	-0.259937	-0.531183
C41	C	1.129178	-0.254159	-0.655844
C42	C	1.270385	-0.161463	-0.655835
C43	C	1.261574	-0.167241	-0.531175
C44	C	1.186562	-0.216478	-0.468853
C45	C	1.177747	-0.222252	-0.344190
C46	C	1.318958	-0.129560	-0.344184
C47	C	1.327769	-0.123782	-0.468844
N48	N	1.204183	-0.204923	0.281826
H49	H	0.886733	-0.296533	-0.000004
H50	H	0.515950	-0.334101	-0.000015
Cl51	Cl	0.730455	-0.382958	0.000006
H52	H	0.561375	-0.087189	-0.000111
Cl53	Cl	0.717658	-0.000765	-0.000016
Cl54	Cl	1.402172	-0.074919	-0.265814
H55	H	1.046791	0.574819	0.000007
H56	H	1.398188	0.184902	-0.000023
Cl57	Cl	1.017192	0.014933	0.000003
H58	H	1.116666	-0.262341	-0.293449
Cl59	Cl	1.443538	0.024934	-0.000047
Cl60	Cl	1.434827	0.422875	-0.000011
Cl61	Cl	1.430930	0.601344	-0.000018
H62	H	1.388845	-0.083696	-0.519601
Cl63	Cl	1.008479	0.412889	0.000026
Cl64	Cl	1.026058	-0.321826	-0.452834
H65	H	0.932186	-0.049622	-0.000004
H66	H	1.075277	-0.289548	-0.706590
H67	H	1.055505	0.176877	0.000008
H68	H	1.331465	-0.121380	-0.706594
