data_functionalizedCrystal
_audit_creation_method	'MofGen! by Chris Wilmer'
_symmetry_space_group_name_H-M	'P1'
_symmetry_Int_Tables_number	1
_symmetry_cell_setting	triclinic
loop_
_symmetry_equiv_pos_as_xyz
  x,y,z
_cell_length_a	18.215407
_cell_length_b	18.050590
_cell_length_c	18.215399
_cell_angle_alpha	89.971265
_cell_angle_beta	89.980167
_cell_angle_gamma	90.019000
loop_
_atom_site_label
_atom_site_type_symbol
_atom_site_fract_x
_atom_site_fract_y
_atom_site_fract_z
Zn1	Zn	1.125104	-0.295658	-0.416112
Zn2	Zn	1.458438	0.037675	-0.082779
Zn3	Zn	1.791771	0.371009	0.250555
Zn4	Zn	1.125026	-0.419853	-0.293044
Zn5	Zn	1.458360	-0.086520	0.040289
Zn6	Zn	1.791693	0.246814	0.373623
Zn7	Zn	1.002037	-0.295682	-0.293059
Zn8	Zn	1.335370	0.037651	0.040274
Zn9	Zn	1.668704	0.370984	0.373607
Zn10	Zn	1.002016	-0.419812	-0.416069
Zn11	Zn	1.335350	-0.086478	-0.082735
Zn12	Zn	1.668683	0.246855	0.250598
O13	O	1.063546	-0.357751	-0.354571
O14	O	1.396879	-0.024418	-0.021238
O15	O	1.730213	0.308915	0.312096
O16	O	1.228078	-0.312140	-0.399798
O17	O	1.561412	0.021193	-0.066465
O18	O	1.894745	0.354527	0.266868
O19	O	1.108687	-0.403409	-0.190062
O20	O	1.442021	-0.070076	0.143272
O21	O	1.775354	0.263258	0.476605
O22	O	1.018403	-0.191755	-0.309407
O23	O	1.351737	0.141579	0.023926
O24	O	1.685070	0.474912	0.357260
O25	O	1.228021	-0.403386	-0.309381
O26	O	1.561354	-0.070052	0.023953
O27	O	1.894688	0.263281	0.357286
O28	O	1.108820	-0.191737	-0.399813
O29	O	1.442154	0.141597	-0.066480
O30	O	1.775487	0.474930	0.266854
O31	O	1.018328	-0.312181	-0.190073
O32	O	1.351661	0.021152	0.143260
O33	O	1.684994	0.354485	0.476594
O34	O	0.899050	-0.312141	-0.309365
O35	O	1.232383	0.021192	0.023968
O36	O	1.565717	0.354525	0.357302
O37	O	1.018368	-0.403315	-0.519059
O38	O	1.351702	-0.069982	-0.185725
O39	O	1.685035	0.263352	0.147608
O40	O	0.899035	-0.403339	-0.399740
O41	O	1.232368	-0.070005	-0.066406
O42	O	1.565702	0.263328	0.266927
O43	O	1.108801	-0.312100	-0.519090
O44	O	1.442134	0.021233	-0.185757
O45	O	1.775467	0.354567	0.147576
O46	O	1.108668	-0.523772	-0.309339
O47	O	1.442001	-0.190439	0.023994
O48	O	1.775334	0.142894	0.357328
O49	O	1.018293	-0.523742	-0.399725
O50	O	1.351626	-0.190409	-0.066392
O51	O	1.684959	0.142925	0.266942
C52	C	0.872340	-0.357739	-0.354550
C53	C	1.205673	-0.024405	-0.021216
C54	C	1.539006	0.308928	0.312117
C55	C	0.790541	-0.357751	-0.354558
C56	C	1.123874	-0.024418	-0.021225
C57	C	1.457207	0.308916	0.312108
C58	C	1.063489	-0.550704	-0.354542
C59	C	1.396823	-0.217370	-0.021208
C60	C	1.730156	0.115963	0.312125
C61	C	1.063533	-0.633249	-0.354554
C62	C	1.396866	-0.299916	-0.021220
C63	C	1.730199	0.033417	0.312113
C64	C	0.602358	-0.405312	-0.401557
C65	C	0.935692	-0.071979	-0.068224
C66	C	1.269025	0.261354	0.265109
C67	C	0.525500	-0.405315	-0.401566
C68	C	0.858833	-0.071981	-0.068233
C69	C	1.192166	0.261352	0.265100
C70	C	0.525486	-0.310204	-0.307601
C71	C	0.858819	0.023129	0.025733
C72	C	1.192152	0.356463	0.359066
C73	C	0.602343	-0.310199	-0.307596
C74	C	0.935676	0.023135	0.025738
C75	C	1.269010	0.356468	0.359071
C76	C	0.640777	-0.357757	-0.354573
C77	C	0.974111	-0.024423	-0.021240
C78	C	1.307444	0.308910	0.312094
C79	C	0.487061	-0.357765	-0.354587
C80	C	0.820395	-0.024431	-0.021254
C81	C	1.153728	0.308902	0.312080
C82	C	0.403728	-0.357767	-0.354597
C83	C	0.737061	-0.024434	-0.021263
C84	C	1.070394	0.308900	0.312070
C85	C	0.724116	-0.357754	-0.354565
C86	C	1.057450	-0.024421	-0.021231
C87	C	1.390783	0.308913	0.312102
C88	C	1.112781	-0.832689	-0.305470
C89	C	1.446114	-0.499356	0.027863
C90	C	1.779447	-0.166023	0.361196
C91	C	1.130758	-0.882022	-0.372637
C92	C	1.464091	-0.548688	-0.039304
C93	C	1.797424	-0.215355	0.294029
C94	C	1.063574	-0.784380	-0.354583
C95	C	1.396908	-0.451046	-0.021250
C96	C	1.730241	-0.117713	0.312084
C97	C	1.045672	-0.882129	-0.287446
C98	C	1.379006	-0.548796	0.045887
C99	C	1.712339	-0.215463	0.379220
C100	C	1.063616	-0.930365	-0.354605
C101	C	1.396949	-0.597031	-0.021272
C102	C	1.730283	-0.263698	0.312061
C103	C	1.081586	-0.832624	-0.421785
C104	C	1.414919	-0.499291	-0.088452
C105	C	1.748252	-0.165958	0.244881
C106	C	0.996469	-0.832728	-0.336549
C107	C	1.329802	-0.499394	-0.003216
C108	C	1.663136	-0.166061	0.330118
C109	C	1.014421	-0.882038	-0.403762
C110	C	1.347754	-0.548704	-0.070429
C111	C	1.681087	-0.215371	0.262905
C112	C	1.063552	-0.700281	-0.354569
C113	C	1.396885	-0.366948	-0.021236
C114	C	1.730219	-0.033615	0.312098
C115	C	1.063638	-1.014461	-0.354627
C116	C	1.396971	-0.681128	-0.021294
C117	C	1.730305	-0.347795	0.312040
C118	C	1.255499	-0.357765	-0.354593
C119	C	1.588832	-0.024431	-0.021259
C120	C	1.922166	0.308902	0.312074
C121	C	1.337298	-0.357770	-0.354602
C122	C	1.670631	-0.024437	-0.021268
C123	C	2.003964	0.308896	0.312065
C124	C	1.063591	-0.357700	-0.546524
C125	C	1.396924	-0.024367	-0.213191
C126	C	1.730257	0.308966	0.120143
C127	C	1.063610	-0.357678	-0.628323
C128	C	1.396943	-0.024345	-0.294990
C129	C	1.730277	0.308988	0.038344
C130	C	1.063623	-0.164046	-0.354616
C131	C	1.396956	0.169288	-0.021283
C132	C	1.730290	0.502621	0.312050
C133	C	1.063656	-0.081500	-0.354636
C134	C	1.396989	0.251833	-0.021303
C135	C	1.730322	0.585167	0.312031
C136	C	1.110715	-0.310138	-0.816535
C137	C	1.444048	0.023195	-0.483201
C138	C	1.777382	0.356528	-0.149868
C139	C	1.110724	-0.310117	-0.893393
C140	C	1.444057	0.023217	-0.560060
C141	C	1.777390	0.356550	-0.226727
C142	C	1.016557	-0.405104	-0.893349
C143	C	1.349890	-0.071770	-0.560016
C144	C	1.683224	0.261563	-0.226682
C145	C	1.016545	-0.405121	-0.816492
C146	C	1.349878	-0.071788	-0.483158
C147	C	1.683212	0.261546	-0.149825
C148	C	1.063628	-0.357639	-0.778086
C149	C	1.396962	-0.024306	-0.444753
C150	C	1.730295	0.309027	-0.111420
C151	C	1.063649	-0.357600	-0.931803
C152	C	1.396982	-0.024267	-0.598469
C153	C	1.730316	0.309066	-0.265136
C154	C	1.063658	-0.357577	-1.015136
C155	C	1.396991	-0.024244	-0.681803
C156	C	1.730325	0.309089	-0.348470
C157	C	1.063618	-0.357661	-0.694747
C158	C	1.396952	-0.024328	-0.361414
C159	C	1.730285	0.309005	-0.028081
C160	C	1.063544	-0.357749	-0.163365
C161	C	1.396877	-0.024415	0.169969
C162	C	1.730210	0.308918	0.503302
C163	C	1.063667	-0.357561	-0.081566
C164	C	1.397000	-0.024228	0.251767
C165	C	1.730334	0.309105	0.585100
H166	H	0.494222	-0.444038	-0.439827
H167	H	0.827556	-0.110705	-0.106493
H168	H	1.160889	0.222629	0.226840
N169	N	0.643778	-0.258901	-0.256913
N170	N	0.977111	0.074433	0.076420
N171	N	1.310444	0.407766	0.409754
H172	H	0.675646	-0.289034	-0.222754
H173	H	1.008979	0.044300	0.110579
H174	H	1.342313	0.377633	0.443912
H175	H	0.675642	-0.224529	-0.286931
H176	H	1.008976	0.108804	0.046402
H177	H	1.342309	0.442138	0.379735
H178	H	0.494183	-0.271485	-0.269352
H179	H	0.827516	0.061848	0.063981
H180	H	1.160850	0.395182	0.397314
H181	H	0.939718	-0.811057	-0.321261
H182	H	1.273051	-0.477724	0.012072
H183	H	1.606385	-0.144391	0.345406
H184	H	1.154407	-0.811021	-0.263980
H185	H	1.487740	-0.477687	0.069353
H186	H	1.821073	-0.144354	0.402686
H187	H	1.187525	-0.903676	-0.387905
H188	H	1.520858	-0.570343	-0.054572
H189	H	1.854192	-0.237010	0.278762
H190	H	1.096688	-0.810972	-0.478620
H191	H	1.430022	-0.477639	-0.145287
H192	H	1.763355	-0.144305	0.188047
H193	H	0.972826	-0.903569	-0.445353
H194	H	1.306160	-0.570235	-0.112019
H195	H	1.639493	-0.236902	0.221314
H196	H	1.149051	-0.271474	-0.785267
H197	H	1.482384	0.061860	-0.451934
H198	H	1.815718	0.395193	-0.118601
N199	N	1.025588	-0.910936	-0.212231
N200	N	1.358921	-0.577603	0.121102
N201	N	1.692254	-0.244270	0.454435
H202	H	1.062778	-0.892985	-0.175168
H203	H	1.396112	-0.559652	0.158165
H204	H	1.729445	-0.226318	0.491498
H205	H	0.975233	-0.892229	-0.198283
H206	H	1.308566	-0.558896	0.135050
H207	H	1.641900	-0.225563	0.468383
N208	N	1.161501	-0.258875	-0.934863
N209	N	1.494835	0.074458	-0.601530
N210	N	1.828168	0.407792	-0.268197
H211	H	1.191322	-0.228798	-0.898869
H212	H	1.524655	0.104535	-0.565536
H213	H	1.857988	0.437869	-0.232202
H214	H	1.195554	-0.289091	-0.966756
H215	H	1.528887	0.044242	-0.633423
H216	H	1.862220	0.377575	-0.300090
H217	H	0.978225	-0.443763	-0.924628
H218	H	1.311559	-0.110430	-0.591295
H219	H	1.644892	0.222904	-0.257961
H220	H	0.633649	-0.444035	-0.439811
H221	H	0.966983	-0.110702	-0.106478
H222	H	1.300316	0.222631	0.226856
H223	H	0.978196	-0.443802	-0.785186
H224	H	1.311529	-0.110468	-0.451853
H225	H	1.644863	0.222865	-0.118520
