data_functionalizedCrystal
_audit_creation_method	'MofGen! by Chris Wilmer'
_symmetry_space_group_name_H-M	'P1'
_symmetry_Int_Tables_number	1
_symmetry_cell_setting	triclinic
loop_
_symmetry_equiv_pos_as_xyz
  x,y,z
_cell_length_a	11.792241
_cell_length_b	8.559649
_cell_length_c	7.088929
_cell_angle_alpha	84.655564
_cell_angle_beta	96.250633
_cell_angle_gamma	76.986040
loop_
_atom_site_label
_atom_site_type_symbol
_atom_site_fract_x
_atom_site_fract_y
_atom_site_fract_z
O1	O	1.473819	0.235133	-0.158798
O2	O	1.973819	0.735133	0.341202
O3	O	1.141410	0.257691	-0.158841
O4	O	1.641410	0.757691	0.341159
O5	O	1.336900	0.014063	-0.158812
O6	O	1.836900	0.514063	0.341188
O7	O	1.278329	0.478761	-0.158827
O8	O	1.778329	0.978761	0.341173
O9	O	1.363032	-0.018570	0.159167
O10	O	1.863032	0.481430	0.659167
O11	O	1.167542	0.225058	0.159138
O12	O	1.667542	0.725058	0.659138
O13	O	1.499951	0.202500	0.159181
O14	O	1.999951	0.702500	0.659181
Cu15	Cu	1.336132	0.210800	0.188194
Cu16	Cu	1.836132	0.710800	0.688194
Cu17	Cu	1.305229	0.249391	-0.187853
Cu18	Cu	1.805229	0.749391	0.312147
O19	O	1.304461	0.446128	0.159152
O20	O	1.804461	0.946128	0.659152
C21	C	1.112314	0.239959	0.000142
C22	C	1.612314	0.739959	0.500142
C23	C	0.986687	0.235720	0.000126
C24	C	1.486687	0.735720	0.500126
C25	C	1.286956	0.521936	0.000161
C26	C	1.786956	1.021936	0.500161
C27	C	1.273743	0.699202	0.000157
C28	C	1.773743	1.199202	0.500157
C29	C	1.354405	-0.061745	0.000174
C30	C	1.854405	0.438255	0.500174
C31	C	1.367616	-0.239009	0.000167
C32	C	1.867616	0.260991	0.500167
C33	C	0.756693	0.227917	0.000181
C34	C	1.256693	0.727917	0.500181
C35	C	0.884679	0.232252	0.000150
C36	C	1.384679	0.732252	0.500150
C37	C	1.529047	0.220233	0.000193
C38	C	2.029047	0.720233	0.500193
C39	C	1.654672	0.224473	0.000198
C40	C	2.154672	0.724473	0.500198
N41	N	1.357877	0.183655	0.452685
N42	N	1.857877	0.683655	0.952685
N43	N	1.283494	0.276523	-0.452345
N44	N	1.783494	0.776523	0.047655
H45	H	1.458094	0.678275	0.000190
H46	H	1.958094	1.178275	0.500190
C47	C	1.151503	0.810952	0.000135
C48	C	1.651503	1.310952	0.500135
N49	N	1.059433	0.895124	0.000115
N50	N	1.559433	1.395124	0.500115
H51	H	1.434978	0.087423	0.534352
H52	H	1.934978	0.587423	1.034352
H53	H	1.206406	0.372761	0.465998
H54	H	1.706406	0.872761	0.965998
