data_functionalizedCrystal
_audit_creation_method	'MofGen! by Chris Wilmer'
_symmetry_space_group_name_H-M	'P1'
_symmetry_Int_Tables_number	1
_symmetry_cell_setting	triclinic
loop_
_symmetry_equiv_pos_as_xyz
  x,y,z
_cell_length_a	18.215407
_cell_length_b	16.625545
_cell_length_c	18.215399
_cell_angle_alpha	89.970704
_cell_angle_beta	89.983176
_cell_angle_gamma	90.026006
loop_
_atom_site_label
_atom_site_type_symbol
_atom_site_fract_x
_atom_site_fract_y
_atom_site_fract_z
Zn1	Zn	1.125047	-0.320981	-0.416121
Zn2	Zn	1.625047	0.179019	0.083879
Zn3	Zn	1.124960	-0.455827	-0.293057
Zn4	Zn	1.624960	0.044173	0.206943
Zn5	Zn	1.001986	-0.321013	-0.293069
Zn6	Zn	1.501986	0.178987	0.206931
Zn7	Zn	1.001944	-0.455776	-0.416082
Zn8	Zn	1.501944	0.044224	0.083918
O9	O	1.063484	-0.388399	-0.354582
O10	O	1.563484	0.111601	0.145418
O11	O	1.228019	-0.338876	-0.399808
O12	O	1.728019	0.161124	0.100192
O13	O	1.108629	-0.437978	-0.190074
O14	O	1.608629	0.062022	0.309926
O15	O	1.018364	-0.208176	-0.309413
O16	O	1.518364	0.291824	0.190587
O17	O	1.227956	-0.437947	-0.309394
O18	O	1.727956	0.062053	0.190606
O19	O	1.108776	-0.208153	-0.399819
O20	O	1.608776	0.291847	0.100181
O21	O	1.018280	-0.338931	-0.190083
O22	O	1.518280	0.161069	0.309917
O23	O	0.898996	-0.338882	-0.309375
O24	O	1.398996	0.161118	0.190625
O25	O	1.018292	-0.437861	-0.519072
O26	O	1.518292	0.062139	-0.019072
O27	O	0.898965	-0.437892	-0.399753
O28	O	1.398965	0.062108	0.100247
O29	O	1.108735	-0.338827	-0.519100
O30	O	1.608735	0.161173	-0.019100
O31	O	1.108588	-0.568653	-0.309356
O32	O	1.608588	-0.068653	0.190644
O33	O	1.018208	-0.568616	-0.399742
O34	O	1.518208	-0.068616	0.100258
C35	C	0.872278	-0.388386	-0.354561
C36	C	1.372278	0.111614	0.145439
C37	C	0.790479	-0.388399	-0.354570
C38	C	1.290479	0.111601	0.145430
C39	C	0.602288	-0.440035	-0.401570
C40	C	1.102288	0.059965	0.098430
C41	C	0.525429	-0.440037	-0.401579
C42	C	1.025429	0.059963	0.098421
C43	C	0.525432	-0.336779	-0.307611
C44	C	1.025432	0.163221	0.192389
C45	C	0.602289	-0.336773	-0.307606
C46	C	1.102289	0.163227	0.192394
C47	C	0.640715	-0.388405	-0.354584
C48	C	1.140715	0.111595	0.145416
C49	C	0.486999	-0.388414	-0.354598
C50	C	0.986999	0.111586	0.145402
C51	C	0.403666	-0.388416	-0.354608
C52	C	0.903666	0.111584	0.145392
C53	C	0.724054	-0.388402	-0.354576
C54	C	1.224054	0.111598	0.145424
C55	C	1.063404	-0.597890	-0.354559
C56	C	1.563404	-0.097890	0.145441
C57	C	1.063437	-0.687511	-0.354574
C58	C	1.563437	-0.187511	0.145426
C59	C	1.063466	-0.760294	-0.354589
C60	C	1.563466	-0.260294	0.145411
C61	C	1.063509	-0.851602	-0.354605
C62	C	1.563509	-0.351602	0.145395
C63	C	1.063547	-0.924379	-0.354614
C64	C	1.563547	-0.424379	0.145386
C65	C	1.063589	-1.015693	-0.354629
C66	C	1.563589	-0.515693	0.145371
C67	C	1.255437	-0.388414	-0.354604
C68	C	1.755437	0.111586	0.145396
C69	C	1.337236	-0.388420	-0.354613
C70	C	1.837236	0.111580	0.145387
C71	C	1.063519	-0.388335	-0.546535
C72	C	1.563519	0.111665	-0.046535
C73	C	1.063534	-0.388308	-0.628334
C74	C	1.563534	0.111692	-0.128334
C75	C	1.063584	-0.178091	-0.354622
C76	C	1.563584	0.321909	0.145378
C77	C	1.063627	-0.088469	-0.354639
C78	C	1.563627	0.411531	0.145361
C79	C	1.016529	-0.336699	-0.816534
C80	C	1.516529	0.163301	-0.316534
C81	C	1.016542	-0.336683	-0.893392
C82	C	1.516542	0.163317	-0.393392
C83	C	1.110626	-0.439820	-0.893373
C84	C	1.610626	0.060180	-0.393373
C85	C	1.110609	-0.439840	-0.816516
C86	C	1.610609	0.060160	-0.316516
C87	C	1.063562	-0.388275	-0.778098
C88	C	1.563562	0.111725	-0.278098
C89	C	1.063591	-0.388239	-0.931814
C90	C	1.563591	0.111761	-0.431814
C91	C	1.063606	-0.388221	-1.015148
C92	C	1.563606	0.111779	-0.515148
C93	C	1.063546	-0.388293	-0.694759
C94	C	1.563546	0.111707	-0.194759
C95	C	1.063492	-0.388405	-0.163376
C96	C	1.563492	0.111595	0.336624
C97	C	1.063620	-0.388206	-0.081578
C98	C	1.563620	0.111794	0.418422
H99	H	0.633572	-0.482075	-0.439825
H100	H	1.133572	0.017925	0.060175
N101	N	0.965810	-0.281056	-0.934845
N102	N	1.465810	0.218944	-0.434845
H103	H	0.977263	-0.223449	-0.921488
H104	H	1.477263	0.276551	-0.421488
H105	H	0.972977	-0.288936	-0.989351
H106	H	1.472977	0.211064	-0.489351
H107	H	1.148932	-0.481802	-0.924662
H108	H	1.648932	0.018198	-0.424662
H109	H	0.978219	-0.294711	-0.785256
H110	H	1.478219	0.205289	-0.285256
N111	N	0.483982	-0.495727	-0.452253
N112	N	0.983982	0.004273	0.047747
H113	H	0.519990	-0.528434	-0.482010
H114	H	1.019990	-0.028434	0.017990
H115	H	0.452070	-0.533000	-0.422236
H116	H	0.952070	-0.033000	0.077764
N117	N	1.161341	-0.495465	-0.775049
N118	N	1.661341	0.004535	-0.275049
H119	H	1.131406	-0.532835	-0.743150
H120	H	1.631406	-0.032835	-0.243150
H121	H	1.191144	-0.528072	-0.811090
H122	H	1.691144	-0.028072	-0.311090
N123	N	0.483987	-0.281113	-0.256923
N124	N	0.983987	0.218887	0.243077
H125	H	0.429466	-0.288958	-0.264048
H126	H	0.929466	0.211042	0.235952
H127	H	0.497410	-0.293612	-0.204351
H128	H	0.997410	0.206388	0.295649
N129	N	0.643740	-0.281089	-0.256919
N130	N	1.143740	0.218911	0.243081
H131	H	0.698259	-0.288919	-0.264048
H132	H	1.198259	0.211081	0.235952
H133	H	0.630331	-0.223519	-0.268464
H134	H	1.130331	0.276481	0.231536
