data_functionalizedCrystal
_audit_creation_method	'MofGen! by Chris Wilmer'
_symmetry_space_group_name_H-M	'P1'
_symmetry_Int_Tables_number	1
_symmetry_cell_setting	triclinic
loop_
_symmetry_equiv_pos_as_xyz
  x,y,z
_cell_length_a	16.120484
_cell_length_b	12.759401
_cell_length_c	12.759393
_cell_angle_alpha	89.979062
_cell_angle_beta	92.864008
_cell_angle_gamma	92.926992
loop_
_atom_site_label
_atom_site_type_symbol
_atom_site_fract_x
_atom_site_fract_y
_atom_site_fract_z
Zn1	Zn	-0.331832	1.584985	-0.615183
Zn2	Zn	-0.471268	1.575933	-0.448395
Zn3	Zn	-0.331877	1.409280	-0.439521
Zn4	Zn	-0.471209	1.400336	-0.624029
O5	O	-0.401546	1.492634	-0.531782
O6	O	-0.350334	1.730804	-0.593070
O7	O	-0.452820	1.553781	-0.300200
O8	O	-0.215205	1.440119	-0.455406
O9	O	-0.452777	1.724154	-0.470532
O10	O	-0.215173	1.569208	-0.584465
O11	O	-0.350410	1.431342	-0.293680
O12	O	-0.350354	1.261073	-0.463984
O13	O	-0.452678	1.424875	-0.769874
O14	O	-0.452721	1.254502	-0.599541
O15	O	-0.350278	1.560535	-0.763375
O16	O	-0.587925	1.545108	-0.479110
O17	O	-0.587883	1.416098	-0.608147
C18	C	-0.401536	1.219667	-0.531760
C19	C	-0.401552	1.102889	-0.531777
C20	C	-0.454936	1.044628	-0.602261
C21	C	-0.454939	0.934904	-0.602282
C22	C	-0.348172	0.941712	-0.461326
C23	C	-0.348166	1.051434	-0.461311
C24	C	-0.618154	1.478679	-0.545574
C25	C	-0.710820	1.472805	-0.551509
C26	C	-0.880481	1.462088	-0.562368
C27	C	-0.921772	1.523367	-0.501213
C28	C	-1.016177	1.517404	-0.507255
C29	C	-0.786067	1.468050	-0.556327
C30	C	-0.184093	1.506671	-0.517959
C31	C	-0.091427	1.512653	-0.512068
C32	C	-0.401557	1.766666	-0.531804
C33	C	-0.401562	1.883442	-0.531814
C34	C	-0.401466	1.492717	-0.805810
C35	C	-0.401432	1.492753	-0.922585
C36	C	-0.348104	1.563397	-0.974064
C37	C	-0.348068	1.563417	-1.083786
C38	C	-0.454696	1.422146	-1.090540
C39	C	-0.454727	1.422122	-0.980820
C40	C	-0.401566	1.492614	-0.258816
C41	C	-0.401365	1.492797	-0.142027
H42	H	-0.498408	0.887472	-0.659679
H43	H	-0.916029	1.405150	-0.619256
N44	N	-0.512187	1.345971	-1.153338
H45	H	-0.499235	1.271739	-1.133403
H46	H	-0.504059	1.356787	-1.230640
H47	H	-0.304706	1.620907	-0.926651
N48	N	-0.512231	1.345903	-0.925286
H49	H	-0.545988	1.301162	-0.978825
H50	H	-0.550831	1.386150	-0.882210
N51	N	-0.290615	0.886212	-0.385300
H52	H	-0.298728	0.807862	-0.395993
H53	H	-0.303540	0.904538	-0.311069
H54	H	-0.304689	1.098873	-0.403914
H55	H	-0.886221	1.580308	-0.444319
N56	N	-0.290541	1.639600	-1.139310
H57	H	-0.256784	1.684334	-1.085766
H58	H	-0.324459	1.686040	-1.187007
H59	H	-0.498404	1.086519	-0.659642
