data_functionalizedCrystal
_audit_creation_method	'MofGen! by Chris Wilmer'
_symmetry_space_group_name_H-M	'P1'
_symmetry_Int_Tables_number	1
_symmetry_cell_setting	triclinic
loop_
_symmetry_equiv_pos_as_xyz
  x,y,z
_cell_length_a	14.044220
_cell_length_b	14.044190
_cell_length_c	15.455313
_cell_angle_alpha	92.904485
_cell_angle_beta	87.080121
_cell_angle_gamma	93.190328
loop_
_atom_site_label
_atom_site_type_symbol
_atom_site_fract_x
_atom_site_fract_y
_atom_site_fract_z
O1	O	1.281001	0.226350	-0.072056
O2	O	1.004331	0.218043	-0.072077
O3	O	1.138509	0.083861	-0.072049
O4	O	1.146823	0.360532	-0.072083
O5	O	1.130833	0.091500	0.072211
O6	O	0.996655	0.225682	0.072184
O7	O	1.273325	0.233989	0.072205
Cu8	Cu	1.134289	0.230533	0.085366
Cu9	Cu	1.143367	0.221499	-0.085238
O10	O	1.139147	0.368171	0.072178
C11	C	0.964871	0.218227	0.000051
C12	C	0.858728	0.207382	0.000043
C13	C	1.131034	0.052059	0.000083
C14	C	1.120186	-0.054084	0.000090
C15	C	0.664389	0.187557	0.000063
C16	C	0.613261	0.264471	0.000057
C17	C	0.505124	0.253440	0.000068
C18	C	0.772536	0.198586	0.000052
C19	C	1.177288	-0.299544	0.000060
C20	C	1.100372	-0.248418	0.000060
C21	C	1.111400	-0.140281	0.000077
C22	C	1.166263	-0.407692	0.000044
C23	C	1.312785	0.233805	0.000075
C24	C	1.418928	0.244650	0.000077
C25	C	1.146622	0.399973	0.000043
C26	C	1.157470	0.506116	0.000031
N27	N	1.127912	0.236887	0.205361
N28	N	1.149751	0.215139	-0.205233
C29	C	1.184939	0.179906	0.250766
C30	C	1.180125	0.184721	0.341573
C31	C	1.118288	0.246521	0.386973
C32	C	1.061255	0.303504	0.341561
C33	C	1.066064	0.298684	0.250755
C34	C	1.097527	0.267301	0.658550
C35	C	1.092724	0.272119	0.749362
C36	C	1.211594	0.153334	0.749368
C37	C	1.216402	0.148523	0.658561
C38	C	1.159365	0.205502	0.613157
N39	N	1.113369	0.251446	0.479792
N40	N	1.164280	0.200572	0.520339
H41	H	0.650703	0.338604	0.000044
H42	H	1.251414	-0.262102	0.000075
Br43	Br	0.601987	0.064003	0.000082
H44	H	1.026240	-0.285862	0.000050
Br45	Br	1.268872	0.096037	0.189162
H46	H	1.226560	0.138322	0.378542
H47	H	1.010901	0.353820	0.378530
H48	H	1.051087	0.313698	0.621589
H49	H	1.266754	0.098201	0.621599
H50	H	1.258029	0.106943	0.786344
H51	H	1.042367	0.322448	0.786322
Br52	Br	0.988660	0.376011	0.189133
