data_functionalizedCrystal
_audit_creation_method	'MofGen! by Chris Wilmer'
_symmetry_space_group_name_H-M	'P1'
_symmetry_Int_Tables_number	1
_symmetry_cell_setting	triclinic
loop_
_symmetry_equiv_pos_as_xyz
  x,y,z
_cell_length_a	10.723024
_cell_length_b	15.944551
_cell_length_c	9.198806
_cell_angle_alpha	89.995864
_cell_angle_beta	89.996352
_cell_angle_gamma	83.983304
loop_
_atom_site_label
_atom_site_type_symbol
_atom_site_fract_x
_atom_site_fract_y
_atom_site_fract_z
O1	O	1.655699	0.117808	-0.120886
O2	O	1.292405	0.129085	-0.120892
O3	O	1.483973	0.001228	-0.120876
O4	O	1.464131	0.245664	-0.120902
O5	O	1.483958	0.001228	0.120909
O6	O	1.292389	0.129084	0.120893
O7	O	1.655684	0.117808	0.120899
Cu8	Cu	1.474035	0.123446	0.142973
Cu9	Cu	1.474053	0.123446	-0.142966
O10	O	1.464116	0.245664	0.120883
C11	C	1.245908	0.128264	0.000000
C12	C	1.107384	0.125809	-0.000001
C13	C	1.031498	0.197350	-0.000010
C14	C	0.888327	0.194814	-0.000012
C15	C	1.483141	-0.030070	0.000017
C16	C	1.480672	-0.123331	0.000018
C17	C	1.356026	-0.338901	-0.000004
C18	C	1.413900	-0.399587	0.119211
C19	C	1.476205	-0.294082	0.000006
C20	C	1.413944	-0.399570	-0.119170
C21	C	1.471880	-0.459020	-0.000011
C22	C	1.534111	-0.353540	0.119320
C23	C	1.534138	-0.353516	-0.119168
C24	C	1.592099	-0.414184	0.000077
C25	C	1.478692	-0.199066	0.000018
C26	C	1.469402	-0.554035	-0.000011
C27	C	1.702181	0.118629	0.000003
C28	C	1.840704	0.121084	-0.000005
C29	C	1.464947	0.276963	-0.000013
C30	C	1.467417	0.370223	-0.000024
N31	N	1.474032	0.123445	0.344087
N32	N	1.474067	0.123441	-0.344080
C33	C	1.554469	0.069525	0.416290
C34	C	1.554488	0.069522	0.583703
H35	H	1.066360	0.062682	-0.000032
C36	C	1.345256	-0.427098	-0.255326
N37	N	1.293513	-0.447828	-0.357874
C38	C	1.221269	-0.294668	0.000157
N39	N	1.119774	-0.261349	0.000287
C40	C	1.726974	-0.458217	0.000173
N41	N	1.828560	-0.491385	0.000254
C42	C	1.602710	-0.326144	0.255634
N43	N	1.654373	-0.305506	0.358306
C44	C	1.086914	0.282635	-0.000014
N45	N	1.128651	0.346874	-0.000017
C46	C	1.381025	0.185809	0.572048
N47	N	1.310945	0.232784	0.508865
H48	H	0.823120	0.256060	-0.000025
C49	C	1.345221	-0.427150	0.255365
N50	N	1.293485	-0.447909	0.357910
H51	H	1.623358	0.023362	0.645795
C52	C	1.602756	-0.325924	-0.255333
N53	N	1.654431	-0.305140	-0.357905
H54	H	0.905903	0.059835	-0.000006
H55	H	1.623316	0.023361	0.354170
H56	H	1.405176	0.169603	0.406209
