data_functionalizedCrystal
_audit_creation_method	'MofGen! by Chris Wilmer'
_symmetry_space_group_name_H-M	'P1'
_symmetry_Int_Tables_number	1
_symmetry_cell_setting	triclinic
loop_
_symmetry_equiv_pos_as_xyz
  x,y,z
_cell_length_a	16.109302
_cell_length_b	15.538191
_cell_length_c	15.186229
_cell_angle_alpha	89.999546
_cell_angle_beta	89.994701
_cell_angle_gamma	65.366938
loop_
_atom_site_label
_atom_site_type_symbol
_atom_site_fract_x
_atom_site_fract_y
_atom_site_fract_z
O1	O	1.066615	0.121097	-0.073258
O2	O	0.820009	0.136166	-0.073250
O3	O	0.991316	-0.008513	-0.073260
O4	O	0.895308	0.265775	-0.073248
O5	O	0.991308	-0.008515	0.073198
O6	O	0.820001	0.136164	0.073207
O7	O	1.066607	0.121095	0.073199
Zn8	Zn	0.943303	0.128629	0.096456
Zn9	Zn	0.943313	0.128632	-0.096507
O10	O	0.895300	0.265773	0.073209
C11	C	0.789214	0.135554	-0.000020
C12	C	0.697471	0.133724	-0.000018
C13	C	0.486402	0.129490	0.079807
C14	C	0.400204	0.127760	0.079804
C15	C	0.400221	0.127767	-0.079872
C16	C	0.486421	0.129491	-0.079868
C17	C	0.529507	0.130357	-0.000026
C18	C	0.357109	0.126904	-0.000033
C19	C	0.263649	0.125028	-0.000037
C20	C	0.622974	0.132231	-0.000021
C21	C	1.001357	-0.043612	-0.000034
C22	C	1.031277	-0.148195	-0.000044
C23	C	0.734025	-0.435895	-0.000015
C24	C	0.762160	-0.534170	-0.000014
C25	C	0.920418	-0.556661	-0.000020
C26	C	0.892296	-0.458386	-0.000025
C27	C	0.799098	-0.398011	-0.000022
C28	C	0.957369	-0.420502	-0.000032
C29	C	0.929248	-0.322236	-0.000033
C30	C	0.836054	-0.261855	-0.000027
C31	C	0.770977	-0.299745	-0.000023
C32	C	1.050566	-0.480879	-0.000029
C33	C	1.115639	-0.442995	-0.000036
C34	C	1.087519	-0.344727	-0.000043
C35	C	0.994325	-0.284346	-0.000037
C36	C	1.152596	-0.306837	-0.000047
C37	C	1.124475	-0.208571	-0.000047
C38	C	0.966204	-0.186080	-0.000037
C39	C	1.097402	0.121706	-0.000032
C40	C	1.189145	0.123537	-0.000041
C41	C	0.885259	0.300873	-0.000018
C42	C	0.855339	0.405456	-0.000014
N43	N	0.943302	0.128626	0.228149
N44	N	0.943323	0.128626	-0.228200
C45	C	1.019169	0.064584	0.453868
C46	C	1.019173	0.064582	0.546057
C47	C	0.867449	0.192672	0.546075
C48	C	0.867444	0.192669	0.453887
C49	C	0.943308	0.128626	0.407786
C50	C	0.943317	0.128627	0.592163
C51	C	0.943320	0.128625	0.692120
C52	C	0.943305	0.128627	0.307823
H53	H	0.890313	-0.136918	-0.000041
C54	C	0.800091	0.249559	0.687402
C55	C	0.784066	0.263074	0.596753
H56	H	0.748616	0.293030	0.718685
H57	H	0.810032	0.186690	0.702510
H58	H	0.852488	0.259808	0.702488
H59	H	0.731673	0.252818	0.581665
H60	H	0.774114	0.325958	0.581639
C61	C	0.408895	0.127953	-0.237703
C62	C	0.352853	0.126830	-0.167632
H63	H	0.379652	0.127373	-0.291883
H64	H	0.419609	0.183524	-0.234372
H65	H	0.465427	0.073713	-0.234383
H66	H	0.296323	0.181074	-0.170949
H67	H	0.342127	0.071254	-0.170965
C68	C	0.769405	0.355752	0.425500
C69	C	0.784052	0.263072	0.403227
H70	H	0.717928	0.399211	0.394220
H71	H	0.758548	0.364916	0.486994
H72	H	0.821803	0.365987	0.410378
H73	H	0.731657	0.252835	0.418355
H74	H	0.794903	0.253904	0.341719
C75	C	0.549606	0.212370	-0.172488
C76	C	0.533810	0.130445	-0.167626
H77	H	0.578868	0.212952	-0.226661
H78	H	0.493072	0.266593	-0.169174
H79	H	0.587604	0.213116	-0.124932
H80	H	0.495806	0.129702	-0.215178
H81	H	0.590353	0.076208	-0.170948
C82	C	0.701972	-0.631639	-0.075295
C83	C	0.690629	-0.575819	-0.000010
H84	H	0.657816	-0.657356	-0.075286
H85	H	0.694286	-0.593771	-0.126359
H86	H	0.761503	-0.681656	-0.075289
H87	H	0.631099	-0.525797	-0.000020
H88	H	0.698307	-0.613688	0.051067
C89	C	0.477730	0.129294	0.237638
C90	C	0.533770	0.130427	0.167568
H91	H	0.506977	0.129864	0.291818
H92	H	0.421203	0.183525	0.234324
H93	H	0.467018	0.073715	0.234299
H94	H	0.544476	0.186010	0.170903
H95	H	0.590313	0.076190	0.170884
H96	H	0.813160	-0.181841	-0.000022
C97	C	0.337049	0.044869	0.172432
C98	C	0.352828	0.126804	0.167561
H99	H	0.307808	0.044276	0.226615
H100	H	0.299046	0.044117	0.124893
H101	H	0.393596	-0.009353	0.169105
H102	H	0.296280	0.181026	0.170881
H103	H	0.390831	0.127565	0.215113
H104	H	1.191521	-0.492165	-0.000035
H105	H	1.228478	-0.356008	-0.000041
H106	H	1.177465	-0.177725	-0.000052
C107	C	1.169136	-0.062034	0.463113
C108	C	1.102553	-0.005819	0.403192
H109	H	1.220611	-0.105504	0.431828
H110	H	1.187206	-0.022809	0.499061
H111	H	1.144749	-0.095926	0.499079
H112	H	1.126938	0.028078	0.367231
H113	H	1.084483	-0.045049	0.367229
C114	C	0.617346	-0.287371	-0.000028
C115	C	0.668531	-0.233370	-0.000028
H116	H	0.554104	-0.246392	-0.000027
H117	H	0.631610	-0.326167	-0.051097
H118	H	0.631601	-0.326165	0.051049
H119	H	0.654281	-0.194581	-0.051109
H120	H	0.654260	-0.194558	0.051046
C121	C	1.033802	-0.717283	-0.000027
C122	C	1.022859	-0.623031	-0.000028
H123	H	1.097046	-0.758254	-0.000039
H124	H	1.005902	-0.728760	0.051048
H125	H	1.005891	-0.728759	-0.051098
H126	H	1.050764	-0.611553	0.051047
H127	H	1.050771	-0.611549	-0.051108
C128	C	1.075919	-0.063631	0.649718
C129	C	1.102563	-0.005814	0.596710
H130	H	1.127405	-0.107097	0.680983
H131	H	1.030751	-0.025492	0.690366
H132	H	1.051544	-0.097527	0.613748
H133	H	1.126931	0.028087	0.632680
H134	H	1.147746	-0.043958	0.556056
H135	H	0.658133	-0.386734	-0.000019
H136	H	1.073459	-0.560893	-0.000036
