data_functionalizedCrystal
_audit_creation_method	'MofGen! by Chris Wilmer'
_symmetry_space_group_name_H-M	'P1'
_symmetry_Int_Tables_number	1
_symmetry_cell_setting	triclinic
loop_
_symmetry_equiv_pos_as_xyz
  x,y,z
_cell_length_a	17.038272
_cell_length_b	17.019294
_cell_length_c	9.130313
_cell_angle_alpha	86.119786
_cell_angle_beta	90.005249
_cell_angle_gamma	87.244363
loop_
_atom_site_label
_atom_site_type_symbol
_atom_site_fract_x
_atom_site_fract_y
_atom_site_fract_z
O1	O	1.037215	0.171282	-0.143215
O2	O	0.809587	0.168562	-0.142916
O3	O	0.929752	0.055516	-0.128628
O4	O	0.917050	0.284329	-0.157503
O5	O	0.929750	0.055519	0.114970
O6	O	0.809585	0.168566	0.100683
O7	O	1.037214	0.171285	0.100383
Cu8	Cu	0.923399	0.169926	0.122775
Cu9	Cu	0.923401	0.169922	-0.165308
O10	O	0.917049	0.284332	0.086095
C11	C	0.780460	0.166090	-0.020810
C12	C	0.693673	0.158710	-0.019895
C13	C	0.643501	0.226470	-0.028445
C14	C	0.561956	0.219531	-0.027549
C15	C	0.530586	0.144831	-0.018114
C16	C	0.580765	0.077066	-0.009559
C17	C	0.662308	0.084006	-0.010445
C18	C	0.284849	0.120313	-0.014981
C19	C	0.203300	0.113378	-0.014100
C20	C	0.184497	0.255844	-0.032088
C21	C	0.266042	0.262777	-0.032981
C22	C	0.316214	0.195012	-0.024419
C23	C	0.447234	0.137736	-0.017203
C24	C	0.399564	0.202108	-0.025320
C25	C	0.929269	0.026096	-0.003119
C26	C	0.927825	-0.061571	0.007933
C27	C	0.927149	-0.102754	-0.119659
C28	C	0.925787	-0.185126	-0.109269
C29	C	0.925106	-0.226314	0.028714
C30	C	0.925780	-0.185125	0.156316
C31	C	0.927136	-0.102754	0.145925
C32	C	0.921006	-0.475021	0.066732
C33	C	0.919651	-0.557398	0.077113
C34	C	0.919657	-0.557394	-0.188473
C35	C	0.921018	-0.475021	-0.198852
C36	C	0.921688	-0.433839	-0.071250
C37	C	0.923717	-0.310512	0.039337
C38	C	0.923072	-0.349643	-0.081875
C39	C	1.066341	0.173758	-0.021726
C40	C	1.153127	0.181138	-0.022650
C41	C	0.917531	0.313752	-0.039416
C42	C	0.918976	0.401419	-0.050479
N43	N	0.923404	0.169928	0.325398
N44	N	0.923403	0.169914	-0.367930
C45	C	0.976626	0.119890	0.408374
C46	C	0.976624	0.119881	0.561712
C47	C	0.870175	0.219954	0.549083
C48	C	0.870174	0.219959	0.395749
C49	C	1.038086	0.062116	0.415666
C50	C	1.038084	0.062107	0.569004
H51	H	0.291578	0.323606	-0.040682
H52	H	0.143639	0.311014	-0.039056
H53	H	0.425109	0.262928	-0.032994
H54	H	0.925240	-0.218654	-0.213168
H55	H	1.019647	0.003736	0.623913
O56	O	0.918922	-0.601808	-0.326097
H57	H	0.917856	-0.666005	-0.295697
O58	O	0.507841	0.292615	-0.036765
H59	H	0.518967	0.328097	-0.140541
H60	H	0.555216	0.016243	-0.001856
O61	O	0.921753	-0.430595	-0.347674
H62	H	0.869116	-0.389604	-0.359196
H63	H	0.669036	0.287299	-0.036130
O64	O	1.113034	0.091928	0.348922
H65	H	1.098991	0.144785	0.273863
H66	H	0.919093	-0.590931	0.189481
H67	H	0.925221	-0.218666	0.268665
O68	O	0.338956	0.047225	-0.005760
H69	H	0.376558	0.046977	0.093564
H70	H	0.923620	-0.316104	-0.194220
O71	O	1.021179	-0.019175	0.370767
H72	H	1.012895	-0.058976	0.470391
O73	O	0.927873	-0.058336	0.283547
H74	H	0.875228	-0.017357	0.284730
O75	O	1.117486	0.084651	0.621328
H76	H	1.163396	0.041450	0.586208
O77	O	0.169459	0.032805	-0.003909
H78	H	0.218045	-0.013151	0.001912
H79	H	0.703158	0.028828	-0.003483
H80	H	0.421683	0.076915	-0.009479
H81	H	0.927707	-0.069225	-0.232020
H82	H	0.921566	-0.441501	0.170634
O83	O	0.923005	-0.354946	0.188154
H84	H	0.869134	-0.389028	0.198798
H85	H	0.826829	0.260696	0.328191
H86	H	0.826836	0.260687	0.606380
