data_functionalizedCrystal
_audit_creation_method	'MofGen! by Chris Wilmer'
_symmetry_space_group_name_H-M	'P1'
_symmetry_Int_Tables_number	1
_symmetry_cell_setting	triclinic
loop_
_symmetry_equiv_pos_as_xyz
  x,y,z
_cell_length_a	17.699083
_cell_length_b	9.065218
_cell_length_c	8.140239
_cell_angle_alpha	90.002802
_cell_angle_beta	89.995596
_cell_angle_gamma	95.850550
loop_
_atom_site_label
_atom_site_type_symbol
_atom_site_fract_x
_atom_site_fract_y
_atom_site_fract_z
O1	O	0.110973	-1.957109	-0.136622
O2	O	0.610973	-1.457109	0.363378
O3	O	0.120075	-1.527555	-0.136624
O4	O	0.620075	-1.027555	0.363376
O5	O	0.005429	-1.754468	-0.136608
O6	O	0.505429	-1.254468	0.363392
O7	O	0.225619	-1.730196	-0.136637
O8	O	0.725619	-1.230196	0.363363
O9	O	0.005428	-1.754455	0.136619
O10	O	0.505428	-1.254455	0.636619
O11	O	0.120074	-1.527542	0.136603
O12	O	0.620074	-1.027542	0.636603
O13	O	0.110971	-1.957097	0.136605
O14	O	0.610971	-1.457097	0.636605
Zn15	Zn	0.115522	-1.742317	0.179985
Zn16	Zn	0.615522	-1.242317	0.679985
Zn17	Zn	0.115524	-1.742334	-0.180004
Zn18	Zn	0.615524	-1.242334	0.319996
O19	O	0.225617	-1.730183	0.136590
O20	O	0.725617	-1.230183	0.636590
C21	C	0.119200	-1.472588	-0.000011
C22	C	0.619200	-0.972588	0.499989
C23	C	0.116584	-1.308822	-0.000011
C24	C	0.616584	-0.808822	0.499989
C25	C	-0.022775	-1.753592	0.000005
C26	C	0.477225	-1.253592	0.500005
C27	C	-0.106813	-1.750983	0.000006
C28	C	0.393187	-1.250983	0.500006
N29	N	0.115521	-1.742317	0.425667
N30	N	0.615521	-1.242317	0.925667
C31	C	-0.154396	-1.884176	0.000009
C32	C	0.345604	-1.384176	0.500009
C33	C	-0.233358	-1.881716	-0.000005
C34	C	0.266642	-1.381716	0.499995
C35	C	-0.264737	-1.746060	-0.000011
C36	C	0.235263	-1.246060	0.499989
C37	C	-0.217149	-1.612857	-0.000019
C38	C	0.282851	-1.112857	0.499981
C39	C	-0.138188	-1.615319	-0.000017
C40	C	0.361812	-1.115319	0.499983
C41	C	-0.535589	-1.602925	-0.000033
C42	C	-0.035589	-1.102925	0.499967
C43	C	-0.614556	-1.600474	-0.000031
C44	C	-0.114556	-1.100474	0.499969
C45	C	-0.630760	-1.869322	-0.000022
C46	C	-0.130760	-1.369322	0.499978
C47	C	-0.551799	-1.871784	-0.000019
C48	C	-0.051799	-1.371784	0.499981
C49	C	-0.504217	-1.738581	-0.000036
C50	C	-0.004217	-1.238581	0.499964
C51	C	-0.418597	-1.741251	-0.000023
C52	C	0.081403	-1.241251	0.499977
C53	C	-0.350355	-1.743390	-0.000012
C54	C	0.149645	-1.243390	0.499988
C55	C	0.253822	-1.731059	-0.000028
C56	C	0.753822	-1.231059	0.499972
C57	C	0.337860	-1.733669	-0.000039
C58	C	0.837860	-1.233669	0.499961
C59	C	0.111847	-2.012064	-0.000012
C60	C	0.611847	-1.512064	0.499988
C61	C	0.114463	-2.175829	-0.000022
C62	C	0.614463	-1.675829	0.499978
N63	N	0.115520	-1.742346	-0.425686
N64	N	0.615520	-1.242346	0.074314
H65	H	-0.128854	-1.994642	0.000024
H66	H	0.371146	-1.494642	0.500024
C67	C	-0.483259	-1.456398	-0.000060
C68	C	0.016741	-0.956398	0.499940
N69	N	-0.443842	-1.346026	-0.000085
N70	N	0.056158	-0.846026	0.499915
H71	H	-0.099446	-1.506859	-0.000019
H72	H	0.400554	-1.006859	0.499981
C73	C	-0.285696	-2.028239	0.000025
C74	C	0.214304	-1.528239	0.500025
N75	N	-0.325116	-2.138608	0.000055
N76	N	0.174884	-1.638608	0.500055
C77	C	-0.517287	-2.021015	-0.000012
C78	C	-0.017287	-1.521015	0.499988
N79	N	-0.491294	-2.133419	-0.000015
N80	N	0.008706	-1.633419	0.499985
H81	H	-0.242703	-1.502404	-0.000035
H82	H	0.257297	-1.002404	0.499965
H83	H	-0.640101	-1.490001	-0.000032
H84	H	-0.140101	-0.990001	0.499968
C85	C	-0.683106	-2.015850	-0.000021
C86	C	-0.183106	-1.515850	0.499979
N87	N	-0.722533	-2.126211	-0.000018
N88	N	-0.222533	-1.626211	0.499982
