data_functionalizedCrystal
_audit_creation_method	'MofGen! by Chris Wilmer'
_symmetry_space_group_name_H-M	'P1'
_symmetry_Int_Tables_number	1
_symmetry_cell_setting	triclinic
loop_
_symmetry_equiv_pos_as_xyz
  x,y,z
_cell_length_a	12.759401
_cell_length_b	21.295417
_cell_length_c	12.759393
_cell_angle_alpha	90.039170
_cell_angle_beta	90.018496
_cell_angle_gamma	90.030668
loop_
_atom_site_label
_atom_site_type_symbol
_atom_site_fract_x
_atom_site_fract_y
_atom_site_fract_z
Zn1	Zn	1.606140	-0.250569	0.593926
Zn2	Zn	1.605986	-0.355853	0.418223
Zn3	Zn	1.430442	-0.250602	0.418265
Zn4	Zn	1.430382	-0.355805	0.593864
O5	O	1.518237	-0.303208	0.506069
O6	O	1.753141	-0.264542	0.570626
O7	O	1.582660	-0.341926	0.271207
O8	O	1.453838	-0.162509	0.441611
O9	O	1.753027	-0.341894	0.441538
O10	O	1.582923	-0.162484	0.570668
O11	O	1.453689	-0.264598	0.271238
O12	O	1.283413	-0.264551	0.441551
O13	O	1.453736	-0.341811	0.740893
O14	O	1.283369	-0.341843	0.570562
O15	O	1.582865	-0.264495	0.740939
O16	O	1.582602	-0.443936	0.441478
O17	O	1.453587	-0.443901	0.570521
C18	C	1.245270	-0.303196	0.506055
C19	C	1.128493	-0.303206	0.506074
C20	C	1.073636	-0.343516	0.573139
C21	C	0.963912	-0.343524	0.573151
C22	C	0.963912	-0.262910	0.439022
C23	C	1.073635	-0.262899	0.439017
C24	C	1.128495	-0.383823	0.640196
C25	C	1.073637	-0.424137	0.707266
C26	C	0.963913	-0.424145	0.707277
C27	C	0.909047	-0.383839	0.640219
C28	C	1.518100	-0.466759	0.506011
C29	C	1.518137	-0.536727	0.506021
C30	C	1.585375	-0.569592	0.438898
C31	C	1.585424	-0.635334	0.438921
C32	C	1.518217	-0.668210	0.506058
C33	C	1.450974	-0.635338	0.573195
C34	C	1.450934	-0.569596	0.573177
N35	N	1.426309	-0.771475	0.514062
N36	N	1.426350	-0.833927	0.514073
C37	C	1.518334	-0.866284	0.506118
N38	N	1.610278	-0.833832	0.498130
N39	N	1.610236	-0.771375	0.498114
C40	C	1.518253	-0.739495	0.506085
C41	C	1.585631	-0.970434	0.439016
C42	C	1.585682	-1.036178	0.439047
C43	C	1.451223	-1.036180	0.573315
C44	C	1.451181	-0.970438	0.573289
C45	C	1.518384	-0.937569	0.506134
C46	C	1.792271	-0.303220	0.506084
C47	C	1.909047	-0.303225	0.506091
C48	C	1.518311	-0.303144	0.780103
C49	C	1.518342	-0.303117	0.896880
C50	C	1.518404	-0.139017	0.506151
C51	C	1.518475	-0.069049	0.506185
C52	C	1.518225	-0.303225	0.233102
C53	C	1.518397	-0.303075	0.116326
C54	C	1.585589	-0.262855	0.951767
C55	C	1.585614	-0.262832	1.061491
C56	C	1.451143	-0.343339	1.061431
C57	C	1.451113	-0.343358	0.951709
C58	C	1.652818	-0.222613	0.896938
C59	C	1.720071	-0.182348	0.951825
C60	C	1.720096	-0.182325	1.061549
C61	C	1.652868	-0.222568	1.116386
H62	H	0.819702	-0.383844	0.640243
H63	H	1.652881	-0.222539	1.205731
F64	F	1.652800	-0.222636	0.780160
H65	H	1.118317	-0.456949	0.761869
H66	H	1.217838	-0.383822	0.640192
H67	H	1.396506	-1.062947	0.627983
H68	H	0.919251	-0.456967	0.761896
F69	F	1.791601	-0.139514	0.893463
F70	F	1.791671	-0.139473	1.119962
H71	H	0.919231	-0.230095	0.384426
F72	F	1.656990	-0.670318	0.367475
H73	H	1.396409	-0.376102	1.106088
F74	F	1.379541	-0.386209	0.893290
H75	H	1.396425	-0.943678	0.627944
F76	F	1.657153	-0.935450	0.367544
F77	F	1.656910	-0.534614	0.367437
F78	F	1.132021	-0.219997	0.367639
H79	H	1.396180	-0.542838	0.627838
F80	F	1.379451	-0.670327	0.644650
F81	F	1.657257	-1.071154	0.367608
