data_functionalizedCrystal
_audit_creation_method	'MofGen! by Chris Wilmer'
_symmetry_space_group_name_H-M	'P1'
_symmetry_Int_Tables_number	1
_symmetry_cell_setting	triclinic
loop_
_symmetry_equiv_pos_as_xyz
  x,y,z
_cell_length_a	15.995350
_cell_length_b	14.519709
_cell_length_c	12.996460
_cell_angle_alpha	89.992910
_cell_angle_beta	89.998063
_cell_angle_gamma	83.586260
loop_
_atom_site_label
_atom_site_type_symbol
_atom_site_fract_x
_atom_site_fract_y
_atom_site_fract_z
O1	O	1.111165	0.118875	-0.085482
O2	O	1.444498	0.452208	0.247851
O3	O	1.777831	0.785542	0.581185
O4	O	0.867411	0.133554	-0.085503
O5	O	1.200745	0.466887	0.247830
O6	O	1.534078	0.800221	0.581163
O7	O	0.995751	-0.008036	-0.085483
O8	O	1.329084	0.325298	0.247851
O9	O	1.662417	0.658631	0.581184
O10	O	0.982825	0.260465	-0.085502
O11	O	1.316159	0.593798	0.247831
O12	O	1.649492	0.927131	0.581164
O13	O	0.995737	-0.008044	0.085651
O14	O	1.329071	0.325290	0.418984
O15	O	1.662404	0.658623	0.752318
O16	O	0.867398	0.133546	0.085630
O17	O	1.200731	0.466880	0.418964
O18	O	1.534065	0.800213	0.752297
O19	O	1.111151	0.118867	0.085652
O20	O	1.444485	0.452200	0.418985
O21	O	1.777818	0.785534	0.752319
Cu22	Cu	0.989273	0.126206	0.101267
Cu23	Cu	1.322607	0.459539	0.434600
Cu24	Cu	1.655940	0.792873	0.767934
Cu25	Cu	0.989289	0.126215	-0.101118
Cu26	Cu	1.322623	0.459549	0.232215
Cu27	Cu	1.655956	0.792882	0.565548
O28	O	0.982812	0.260457	0.085631
O29	O	1.316145	0.593790	0.418965
O30	O	1.649479	0.927124	0.752298
C31	C	0.995142	-0.042398	0.000084
C32	C	1.328475	0.290935	0.333418
C33	C	1.661808	0.624268	0.666751
C34	C	0.993337	-0.144776	0.000085
C35	C	1.326670	0.188557	0.333418
C36	C	1.660003	0.521890	0.666751
C37	C	0.836209	0.132943	0.000061
C38	C	1.169542	0.466277	0.333394
C39	C	1.502876	0.799610	0.666728
C40	C	0.743256	0.131124	0.000053
C41	C	1.076589	0.464457	0.333386
C42	C	1.409923	0.797791	0.666720
C43	C	0.986691	-0.519660	0.000057
C44	C	1.320024	-0.186327	0.333391
C45	C	1.653358	0.147007	0.666724
C46	C	0.988537	-0.415355	0.000065
C47	C	1.321870	-0.082022	0.333399
C48	C	1.655203	0.251311	0.666732
C49	C	0.990014	-0.332221	0.000072
C50	C	1.323347	0.001112	0.333405
C51	C	1.656680	0.334445	0.666739
C52	C	0.991859	-0.227910	0.000078
C53	C	1.325193	0.105423	0.333411
C54	C	1.658526	0.438756	0.666745
C55	C	0.405499	0.124590	0.000075
C56	C	0.738832	0.457923	0.333408
C57	C	1.072165	0.791257	0.666742
C58	C	0.452782	0.023752	0.000464
C59	C	0.786115	0.357086	0.333797
C60	C	1.119448	0.690419	0.667131
C61	C	0.549475	0.025572	0.000071
C62	C	0.882808	0.358906	0.333404
C63	C	1.216141	0.692239	0.666738
C64	C	0.573064	0.127831	0.000065
C65	C	0.906397	0.461164	0.333398
C66	C	1.239731	0.794498	0.666731
C67	C	0.532059	0.177572	-0.097661
C68	C	0.865392	0.510905	0.235673
C69	C	1.198726	0.844239	0.569006
C70	C	0.435419	0.175039	-0.097735
C71	C	0.768753	0.508372	0.235598
C72	C	1.102086	0.841706	0.568931
C73	C	0.435068	0.177113	0.096876
C74	C	0.768402	0.510447	0.430209
C75	C	1.101735	0.843780	0.763543
C76	C	0.532014	0.177089	0.098160
C77	C	0.865347	0.510423	0.431494
C78	C	1.198680	0.843756	0.764827
C79	C	0.667764	0.129668	0.000055
C80	C	1.001098	0.463001	0.333389
C81	C	1.334431	0.796335	0.666722
C82	C	0.310798	0.122756	0.000077
C83	C	0.644131	0.456089	0.333411
C84	C	0.977465	0.789423	0.666744
C85	C	1.142354	0.119478	0.000085
C86	C	1.475687	0.452811	0.333419
C87	C	1.809020	0.786144	0.666752
C88	C	1.235307	0.121297	0.000087
C89	C	1.568640	0.454630	0.333420
C90	C	1.901973	0.787964	0.666753
C91	C	0.983421	0.294819	0.000062
C92	C	1.316754	0.628153	0.333395
C93	C	1.650088	0.961486	0.666729
C94	C	0.985226	0.397197	0.000055
C95	C	1.318559	0.730531	0.333388
C96	C	1.651893	1.063864	0.666722
N97	N	0.989268	0.126199	0.243614
N98	N	1.322602	0.459532	0.576948
N99	N	1.655935	0.792866	0.910281
N100	N	0.989301	0.126215	-0.243466
N101	N	1.322634	0.459548	0.089868
N102	N	1.655968	0.792882	0.423201
C103	C	0.989288	0.126216	0.663428
C104	C	1.322621	0.459549	0.996762
C105	C	1.655955	0.792883	1.330095
C106	C	0.989280	0.126214	0.546623
C107	C	1.322613	0.459548	0.879957
C108	C	1.655947	0.792881	1.213290
C109	C	0.989279	0.126208	0.453525
C110	C	1.322612	0.459542	0.786858
C111	C	1.655945	0.792875	1.120192
C112	C	0.989270	0.126205	0.336712
C113	C	1.322603	0.459538	0.670046
C114	C	1.655937	0.792872	1.003379
H115	H	0.577839	-0.013527	0.070125
H116	H	0.911173	0.319807	0.403458
H117	H	1.244506	0.653140	0.736792
H118	H	0.547490	0.251660	0.104058
H119	H	0.880823	0.584993	0.437392
H120	H	1.214157	0.918326	0.770725
H121	H	0.577279	-0.013784	-0.070099
H122	H	0.910612	0.319549	0.263234
H123	H	1.243946	0.652882	0.596568
C124	C	0.426226	-0.030455	-0.093673
C125	C	0.759559	0.302878	0.239661
C126	C	1.092893	0.636212	0.572994
N127	N	0.406220	-0.071282	-0.164577
N128	N	0.739554	0.262051	0.168757
N129	N	1.072887	0.595384	0.502090
H130	H	0.560387	0.143031	-0.170385
H131	H	0.893721	0.476364	0.162948
H132	H	1.227054	0.809697	0.496281
H133	H	0.417062	0.138772	-0.170783
H134	H	0.750396	0.472105	0.162551
H135	H	1.083729	0.805439	0.495884
C136	C	0.551297	0.279065	-0.102583
C137	C	0.884630	0.612398	0.230750
C138	C	1.217964	0.945731	0.564083
N139	N	0.565790	0.355509	-0.106290
N140	N	0.899123	0.688842	0.227043
N141	N	1.232457	1.022175	0.560377
C142	C	0.392001	0.275052	-0.103755
C143	C	0.725335	0.608385	0.229579
C144	C	1.058668	0.941719	0.562912
N145	N	0.359303	0.350380	-0.108299
N146	N	0.692636	0.683714	0.225034
N147	N	1.025969	1.017047	0.558367
H148	H	0.414478	0.144144	0.170949
H149	H	0.747811	0.477477	0.504283
H150	H	1.081144	0.810811	0.837616
C151	C	0.392308	0.277551	0.097766
C152	C	0.725641	0.610884	0.431099
C153	C	1.058974	0.944218	0.764432
N154	N	0.360095	0.353197	0.098429
N155	N	0.693428	0.686530	0.431762
N156	N	1.026762	1.019864	0.765096
C157	C	0.427661	-0.030707	0.095141
C158	C	0.760995	0.302626	0.428474
C159	C	1.094328	0.635960	0.761808
N160	N	0.408734	-0.071727	0.166453
N161	N	0.742067	0.261606	0.499787
N162	N	1.075400	0.594939	0.833120
C163	C	0.568804	0.128008	0.195831
C164	C	0.902138	0.461341	0.529165
C165	C	1.235471	0.794674	0.862498
N166	N	0.596513	0.091031	0.269396
N167	N	0.929847	0.424364	0.602729
N168	N	1.263180	0.757698	0.936062
