data_functionalizedCrystal
_audit_creation_method	'MofGen! by Chris Wilmer'
_symmetry_space_group_name_H-M	'P1'
_symmetry_Int_Tables_number	1
_symmetry_cell_setting	triclinic
loop_
_symmetry_equiv_pos_as_xyz
  x,y,z
_cell_length_a	17.077404
_cell_length_b	12.594516
_cell_length_c	17.077396
_cell_angle_alpha	89.976020
_cell_angle_beta	89.982480
_cell_angle_gamma	90.011439
loop_
_atom_site_label
_atom_site_type_symbol
_atom_site_fract_x
_atom_site_fract_y
_atom_site_fract_z
Zn1	Zn	1.200074	-0.423864	-0.443878
Zn2	Zn	1.700074	0.076136	0.056122
Zn3	Zn	1.200002	-0.601868	-0.312624
Zn4	Zn	1.700002	-0.101868	0.187376
Zn5	Zn	1.068811	-0.423889	-0.312625
Zn6	Zn	1.568811	0.076111	0.187375
Zn7	Zn	1.068790	-0.601787	-0.443847
Zn8	Zn	1.568790	-0.101787	0.056153
O9	O	1.134420	-0.512852	-0.378243
O10	O	1.634420	-0.012852	0.121757
O11	O	1.309912	-0.447500	-0.426479
O12	O	1.809912	0.052500	0.073521
O13	O	1.182578	-0.578303	-0.202777
O14	O	1.682578	-0.078303	0.297223
O15	O	1.086263	-0.274940	-0.330049
O16	O	1.586263	0.225060	0.169951
O17	O	1.309859	-0.578279	-0.330047
O18	O	1.809859	-0.078279	0.169953
O19	O	1.182701	-0.274922	-0.426480
O20	O	1.682701	0.225078	0.073520
O21	O	1.086193	-0.447543	-0.202778
O22	O	1.586193	0.052457	0.297222
O23	O	0.958962	-0.447464	-0.330019
O24	O	1.458962	0.052536	0.169981
O25	O	1.086226	-0.578141	-0.553698
O26	O	1.586226	-0.078141	-0.053698
O27	O	0.958946	-0.578165	-0.426427
O28	O	1.458946	-0.078165	0.073573
O29	O	1.182680	-0.447422	-0.553720
O30	O	1.682680	0.052578	-0.053720
O31	O	1.182558	-0.750803	-0.330017
O32	O	1.682558	-0.250803	0.169983
O33	O	1.086156	-0.750743	-0.426426
O34	O	1.586156	-0.250743	0.073574
C35	C	0.930472	-0.512809	-0.378221
C36	C	1.430472	-0.012809	0.121779
C37	C	0.843222	-0.512817	-0.378230
C38	C	1.343222	-0.012817	0.121770
C39	C	0.467420	-0.581060	-0.428387
C40	C	0.967420	-0.081060	0.071613
C41	C	0.549400	-0.581046	-0.428375
C42	C	1.049400	-0.081046	0.071625
C43	C	0.590373	-0.512880	-0.378256
C44	C	1.090373	-0.012880	0.121744
C45	C	0.549361	-0.444731	-0.328140
C46	C	1.049361	0.055269	0.171860
C47	C	0.467382	-0.444751	-0.328149
C48	C	0.967382	0.055249	0.171851
C49	C	0.720231	-0.444693	-0.328127
C50	C	1.220231	0.055307	0.171873
C51	C	0.802216	-0.444671	-0.328119
C52	C	1.302216	0.055329	0.171881
C53	C	0.802249	-0.580988	-0.428353
C54	C	1.302249	-0.080988	0.071647
C55	C	0.720270	-0.581008	-0.428362
C56	C	1.220270	-0.081008	0.071638
C57	C	0.679264	-0.512857	-0.378247
C58	C	1.179264	-0.012857	0.121753
C59	C	1.134368	-0.789393	-0.378236
C60	C	1.634368	-0.289393	0.121764
C61	C	1.134418	-0.907698	-0.378259
C62	C	1.634418	-0.407698	0.121741
C63	C	1.081980	-0.976958	-0.430658
C64	C	1.581980	-0.476958	0.069342
C65	C	1.062859	-1.047817	-0.359031
C66	C	1.562859	-0.547817	0.140969
C67	C	1.153611	-1.047638	-0.449899
C68	C	1.653611	-0.547638	0.050101
C69	C	1.115259	-0.977000	-0.306593
C70	C	1.615259	-0.477000	0.193407
C71	C	1.206044	-0.976814	-0.397509
C72	C	1.706044	-0.476814	0.102491
C73	C	1.186950	-1.047642	-0.325832
C74	C	1.686950	-0.547642	0.174168
C75	C	1.339164	-0.512896	-0.378266
C76	C	1.839164	-0.012896	0.121734
C77	C	1.426414	-0.512914	-0.378276
C78	C	1.926414	-0.012914	0.121724
C79	C	1.134459	-0.512770	-0.582988
C80	C	1.634459	-0.012770	-0.082988
C81	C	1.134476	-0.512734	-0.670237
C82	C	1.634476	-0.012734	-0.170237
C83	C	1.134493	-0.235231	-0.378268
C84	C	1.634493	0.264769	0.121732
C85	C	1.134524	-0.116926	-0.378279
C86	C	1.634524	0.383074	0.121721
C87	C	1.084303	-0.444640	-0.711227
C88	C	1.584303	0.055360	-0.211227
C89	C	1.084316	-0.444615	-0.793208
C90	C	1.584316	0.055385	-0.293208
C91	C	1.134506	-0.512682	-0.834197
C92	C	1.634506	-0.012682	-0.334197
C93	C	1.184681	-0.580784	-0.793201
C94	C	1.684681	-0.080784	-0.293201
C95	C	1.184663	-0.580813	-0.711222
C96	C	1.684663	-0.080813	-0.211222
C97	C	1.184715	-0.580717	-0.964071
C98	C	1.684715	-0.080717	-0.464071
C99	C	1.184733	-0.580688	-1.046056
C100	C	1.684733	-0.080688	-0.546056
C101	C	1.084367	-0.444520	-1.046057
C102	C	1.584367	0.055480	-0.546057
C103	C	1.084350	-0.444549	-0.964078
C104	C	1.584350	0.055451	-0.464078
C105	C	1.134526	-0.512650	-0.923088
C106	C	1.634526	-0.012650	-0.423088
C107	C	1.134425	-0.512857	-0.174295
C108	C	1.634425	-0.012857	0.325705
C109	C	1.134561	-0.512593	-0.087046
C110	C	1.634561	-0.012593	0.412954
H111	H	0.434066	-0.636563	-0.469204
H112	H	0.934066	-0.136563	0.030796
H113	H	0.433996	-0.389257	-0.287346
H114	H	0.933996	0.110743	0.212654
N115	N	0.678355	-0.375077	-0.276928
N116	N	1.178355	0.124923	0.223072
N117	N	0.714945	-0.314216	-0.232185
N118	N	1.214945	0.185784	0.267815
H119	H	0.685370	-0.265046	-0.196028
H120	H	1.185370	0.234954	0.303972
H121	H	1.037556	-0.945921	-0.474907
H122	H	1.537556	-0.445921	0.025093
H123	H	1.225580	-0.636163	-0.930700
H124	H	1.725580	-0.136163	-0.430700
N125	N	1.235949	-0.650293	-0.835086
N126	N	1.735949	-0.150293	-0.335086
N127	N	1.285985	-0.612825	-0.880839
N128	N	1.785985	-0.112825	-0.380839
H129	H	1.322197	-0.661911	-0.910422
H130	H	1.822197	-0.161911	-0.410422
N131	N	1.033056	-0.375058	-0.835066
N132	N	1.533056	0.124942	-0.335066
N133	N	0.988249	-0.314288	-0.798459
N134	N	1.488249	0.185712	-0.298459
H135	H	0.952042	-0.265161	-0.828020
H136	H	1.452042	0.234839	-0.328020
N137	N	0.844141	-0.650616	-0.479528
N138	N	1.344141	-0.150616	0.020472
N139	N	0.889866	-0.718386	-0.451814
N140	N	1.389866	-0.218386	0.048186
H141	H	0.919455	-0.767560	-0.487955
H142	H	1.419455	-0.267560	0.012045
H143	H	0.835573	-0.389154	-0.287316
H144	H	1.335573	0.110846	0.212684
H145	H	1.043484	-0.389119	-0.930707
H146	H	1.543484	0.110881	-0.430707
H147	H	0.582784	-0.636540	-0.469178
H148	H	1.082784	-0.136540	0.030822
H149	H	1.002336	-1.079029	-0.342765
H150	H	1.502336	-0.579029	0.157235
H151	H	0.582727	-0.389234	-0.287329
H152	H	1.082727	0.110766	0.212671
H153	H	0.686912	-0.636509	-0.469176
H154	H	1.186912	-0.136509	0.030824
H155	H	1.266553	-0.945605	-0.413809
H156	H	1.766553	-0.445605	0.086191
H157	H	1.098998	-0.946099	-0.245999
H158	H	1.598998	-0.446099	0.254001
N159	N	1.173911	-1.086567	-0.525893
N160	N	1.673911	-0.586567	-0.025893
N161	N	1.132205	-1.063902	-0.583666
N162	N	1.632205	-0.563902	-0.083666
H163	H	1.146535	-1.091393	-0.637339
H164	H	1.646535	-0.591393	-0.137339
N165	N	1.242648	-1.086342	-0.270205
N166	N	1.742648	-0.586342	0.229795
N167	N	1.313345	-1.062205	-0.276789
N168	N	1.813345	-0.562205	0.223211
H169	H	1.352680	-1.089540	-0.237502
H170	H	1.852680	-0.589540	0.262498
H171	H	1.043437	-0.389206	-0.677860
H172	H	1.543437	0.110794	-0.177860
H173	H	1.043513	-0.389068	-1.079435
H174	H	1.543513	0.110932	-0.579435
N175	N	1.235926	-0.650367	-0.669362
N176	N	1.735926	-0.150367	-0.169362
N177	N	1.308363	-0.643322	-0.678527
N178	N	1.808363	-0.143322	-0.178527
H179	H	1.344568	-0.692449	-0.648965
H180	H	1.844568	-0.192449	-0.148965
N181	N	1.236026	-0.650192	-1.087915
N182	N	1.736026	-0.150192	-0.587915
N183	N	1.280831	-0.710978	-1.051310
N184	N	1.780831	-0.210978	-0.551310
H185	H	1.317065	-0.760057	-1.080872
H186	H	1.817065	-0.260057	-0.580872
