data_functionalizedCrystal
_audit_creation_method	'MofGen! by Chris Wilmer'
_symmetry_space_group_name_H-M	'P1'
_symmetry_Int_Tables_number	1
_symmetry_cell_setting	triclinic
loop_
_symmetry_equiv_pos_as_xyz
  x,y,z
_cell_length_a	14.044209
_cell_length_b	14.044220
_cell_length_c	13.101039
_cell_angle_alpha	86.332523
_cell_angle_beta	93.659214
_cell_angle_gamma	93.188415
loop_
_atom_site_label
_atom_site_type_symbol
_atom_site_fract_x
_atom_site_fract_y
_atom_site_fract_z
O1	O	-1.281968	-0.225339	-0.085094
O2	O	-1.031968	0.024661	0.164906
O3	O	-0.781968	0.274661	0.414906
O4	O	-0.531968	0.524661	0.664906
O5	O	-1.005298	-0.217034	-0.085123
O6	O	-0.755298	0.032966	0.164877
O7	O	-0.505298	0.282966	0.414877
O8	O	-0.255298	0.532966	0.664877
O9	O	-1.139480	-0.082851	-0.085099
O10	O	-0.889480	0.167149	0.164901
O11	O	-0.639480	0.417149	0.414901
O12	O	-0.389480	0.667149	0.664901
O13	O	-1.147787	-0.359521	-0.085118
O14	O	-0.897787	-0.109521	0.164882
O15	O	-0.647787	0.140479	0.414882
O16	O	-0.397787	0.390479	0.664882
O17	O	-1.129854	-0.092496	0.085329
O18	O	-0.879854	0.157504	0.335329
O19	O	-0.629854	0.407504	0.585329
O20	O	-0.379854	0.657504	0.835329
O21	O	-0.995672	-0.226679	0.085305
O22	O	-0.745672	0.023321	0.335305
O23	O	-0.495672	0.273321	0.585305
O24	O	-0.245672	0.523321	0.835305
O25	O	-1.272342	-0.234984	0.085334
O26	O	-1.022342	0.015016	0.335334
O27	O	-0.772342	0.265016	0.585334
O28	O	-0.522342	0.515016	0.835334
Zn29	Zn	-1.132479	-0.232362	0.112379
Zn30	Zn	-0.882479	0.017638	0.362379
Zn31	Zn	-0.632479	0.267638	0.612379
Zn32	Zn	-0.382479	0.517638	0.862379
Zn33	Zn	-1.145161	-0.219655	-0.112168
Zn34	Zn	-0.895161	0.030345	0.137832
Zn35	Zn	-0.645161	0.280345	0.387832
Zn36	Zn	-0.395161	0.530345	0.637832
O37	O	-1.138161	-0.369166	0.085310
O38	O	-0.888161	-0.119166	0.335310
O39	O	-0.638161	0.130834	0.585310
O40	O	-0.388161	0.380834	0.835310
C41	C	-0.964864	-0.218221	0.000087
C42	C	-0.714864	0.031779	0.250087
C43	C	-0.464864	0.281779	0.500087
C44	C	-0.214864	0.531779	0.750087
C45	C	-0.858721	-0.207376	0.000077
C46	C	-0.608721	0.042624	0.250077
C47	C	-0.358721	0.292624	0.500077
C48	C	-0.108721	0.542624	0.750077
C49	C	-0.664383	-0.187553	0.000096
C50	C	-0.414383	0.062447	0.250096
C51	C	-0.164383	0.312447	0.500096
C52	C	0.085617	0.562447	0.750096
C53	C	-0.613253	-0.264467	0.000094
C54	C	-0.363253	-0.014467	0.250094
C55	C	-0.113253	0.235533	0.500094
C56	C	0.136747	0.485533	0.750094
C57	C	-0.505116	-0.253437	0.000105
C58	C	-0.255116	-0.003437	0.250105
C59	C	-0.005116	0.246563	0.500105
C60	C	0.244884	0.496563	0.750105
C61	C	-0.772529	-0.198581	0.000085
C62	C	-0.522529	0.051419	0.250085
C63	C	-0.272529	0.301419	0.500085
C64	C	-0.022529	0.551419	0.750085
N65	N	-1.123830	-0.241035	0.265626
N66	N	-0.873830	0.008965	0.515626
N67	N	-0.623830	0.258965	0.765626
N68	N	-0.373830	0.508965	1.015626
C69	C	-1.131031	-0.052052	0.000115
C70	C	-0.881031	0.197948	0.250115
C71	C	-0.631031	0.447948	0.500115
C72	C	-0.381031	0.697948	0.750115
C73	C	-1.120187	0.054091	0.000115
C74	C	-0.870187	0.304091	0.250115
C75	C	-0.620187	0.554091	0.500115
C76	C	-0.370187	0.804091	0.750115
C77	C	-0.312777	-0.233798	0.000118
C78	C	-0.062777	0.016202	0.250118
C79	C	0.187223	0.266202	0.500118
C80	C	0.437223	0.516202	0.750118
C81	C	-0.418920	-0.244648	0.000114
C82	C	-0.168920	0.005352	0.250114
C83	C	0.081080	0.255352	0.500114
C84	C	0.331080	0.505352	0.750114
C85	C	-1.146609	-0.399965	0.000093
C86	C	-0.896609	-0.149965	0.250093
C87	C	-0.646609	0.100035	0.500093
C88	C	-0.396609	0.350035	0.750093
C89	C	-1.157454	-0.506108	0.000087
C90	C	-0.907454	-0.256108	0.250087
C91	C	-0.657454	-0.006108	0.500087
C92	C	-0.407454	0.243892	0.750087
C93	C	-1.100361	0.248429	0.000099
C94	C	-0.850361	0.498429	0.250099
C95	C	-0.600361	0.748429	0.500099
C96	C	-0.350361	0.998429	0.750099
C97	C	-1.177275	0.299560	0.000103
C98	C	-0.927275	0.549560	0.250103
C99	C	-0.677275	0.799560	0.500103
C100	C	-0.427275	1.049560	0.750103
C101	C	-1.166244	0.407696	0.000094
C102	C	-0.916244	0.657696	0.250094
C103	C	-0.666244	0.907696	0.500094
C104	C	-0.416244	1.157696	0.750094
C105	C	-1.111391	0.140283	0.000108
C106	C	-0.861391	0.390283	0.250108
C107	C	-0.611391	0.640283	0.500108
C108	C	-0.361391	0.890283	0.750108
N109	N	-1.153817	-0.210975	-0.265415
N110	N	-0.903817	0.039025	-0.015415
N111	N	-0.653817	0.289025	0.234585
N112	N	-0.403817	0.539025	0.484585
C113	C	-1.112064	-0.252843	0.474666
C114	C	-0.862064	-0.002843	0.724666
C115	C	-0.612064	0.247157	0.974666
C116	C	-0.362064	0.497157	1.224666
C117	C	-1.165580	-0.199170	0.525551
C118	C	-0.915580	0.050830	0.775551
C119	C	-0.665580	0.300830	1.025551
C120	C	-0.415580	0.550830	1.275551
C121	C	-1.159033	-0.205740	0.641869
C122	C	-0.909033	0.044260	0.891869
C123	C	-0.659033	0.294260	1.141869
C124	C	-0.409033	0.544260	1.391869
C125	C	-1.118610	-0.246274	0.358338
C126	C	-0.868610	0.003726	0.608338
C127	C	-0.618610	0.253726	0.858338
C128	C	-0.368610	0.503726	1.108338
H129	H	-0.626945	-0.113426	0.000106
H130	H	-0.376945	0.136574	0.250106
H131	H	-0.126945	0.386574	0.500106
H132	H	0.123055	0.636574	0.750106
C133	C	-1.000220	0.298999	0.000096
C134	C	-0.750220	0.548999	0.250096
C135	C	-0.500220	0.798999	0.500096
C136	C	-0.250220	1.048999	0.750096
H137	H	-1.005851	0.366098	0.000103
H138	H	-0.755851	0.616098	0.250103
H139	H	-0.505851	0.866098	0.500103
H140	H	-0.255851	1.116098	0.750103
H141	H	-0.969864	0.284417	-0.059332
H142	H	-0.719864	0.534417	0.190668
H143	H	-0.469864	0.784417	0.440668
H144	H	-0.219864	1.034417	0.690668
H145	H	-0.963170	0.277699	0.059539
H146	H	-0.713170	0.527699	0.309539
H147	H	-0.463170	0.777699	0.559539
H148	H	-0.213170	1.027699	0.809539
H149	H	-1.061335	-0.303725	0.518454
H150	H	-0.811335	-0.053725	0.768454
H151	H	-0.561335	0.196275	1.018454
H152	H	-0.311335	0.446275	1.268454
C153	C	-0.663825	-0.364613	0.000065
C154	C	-0.413825	-0.114613	0.250065
C155	C	-0.163825	0.135387	0.500065
C156	C	0.086175	0.385387	0.750065
H157	H	-0.730925	-0.358987	0.000047
H158	H	-0.480925	-0.108987	0.250047
H159	H	-0.230925	0.141013	0.500047
H160	H	0.019075	0.391013	0.750047
H161	H	-0.642539	-0.401692	0.059489
H162	H	-0.392539	-0.151692	0.309489
H163	H	-0.142539	0.098308	0.559489
H164	H	0.107461	0.348308	0.809489
H165	H	-0.649224	-0.394936	-0.059383
H166	H	-0.399224	-0.144936	0.190617
H167	H	-0.149224	0.105064	0.440617
H168	H	0.100776	0.355064	0.690617
C169	C	-1.277422	0.248988	0.000137
C170	C	-1.027422	0.498988	0.250137
C171	C	-0.777422	0.748988	0.500137
C172	C	-0.527422	0.998988	0.750137
H173	H	-1.271796	0.181888	0.000153
H174	H	-1.021796	0.431888	0.250153
H175	H	-0.771796	0.681888	0.500153
H176	H	-0.521796	0.931888	0.750153
H177	H	-1.314494	0.270283	-0.059286
H178	H	-1.064494	0.520283	0.190714
H179	H	-0.814494	0.770283	0.440714
H180	H	-0.564494	1.020283	0.690714
H181	H	-1.307750	0.263581	0.059586
H182	H	-1.057750	0.513581	0.309586
H183	H	-0.807750	0.763581	0.559586
H184	H	-0.557750	1.013581	0.809586
C185	C	-1.234148	-0.130460	0.466398
C186	C	-0.984148	0.119540	0.716398
C187	C	-0.734148	0.369540	0.966398
C188	C	-0.484148	0.619540	1.216398
H189	H	-1.229629	-0.135018	0.394847
H190	H	-0.979629	0.114982	0.644847
H191	H	-0.729629	0.364982	0.894847
H192	H	-0.479629	0.614982	1.144847
H193	H	-1.217349	-0.066845	0.483907
H194	H	-0.967349	0.183155	0.733907
H195	H	-0.717349	0.433155	0.983907
H196	H	-0.467349	0.683155	1.233907
H197	H	-1.297785	-0.147155	0.483935
H198	H	-1.047785	0.102845	0.733935
H199	H	-0.797785	0.352845	0.983935
H200	H	-0.547785	0.602845	1.233935
