data_functionalizedCrystal
_audit_creation_method	'MofGen! by Chris Wilmer'
_symmetry_space_group_name_H-M	'P1'
_symmetry_Int_Tables_number	1
_symmetry_cell_setting	triclinic
loop_
_symmetry_equiv_pos_as_xyz
  x,y,z
_cell_length_a	10.723022
_cell_length_b	10.654551
_cell_length_c	9.798715
_cell_angle_alpha	89.999682
_cell_angle_beta	89.996609
_cell_angle_gamma	84.476294
loop_
_atom_site_label
_atom_site_type_symbol
_atom_site_fract_x
_atom_site_fract_y
_atom_site_fract_z
O1	O	1.657215	0.176137	-0.113473
O2	O	1.294065	0.193000	-0.113477
O3	O	1.483989	0.001828	-0.113475
O4	O	1.467291	0.367309	-0.113474
O5	O	1.483975	0.001828	0.113507
O6	O	1.294051	0.193000	0.113506
O7	O	1.657201	0.176137	0.113509
Zn8	Zn	1.475624	0.184568	0.149546
Zn9	Zn	1.475643	0.184569	-0.149513
O10	O	1.467277	0.367309	0.113508
C11	C	1.247558	0.191773	0.000014
C12	C	1.109003	0.188103	0.000012
C13	C	0.890841	0.291276	0.000010
C14	C	1.034044	0.295072	0.000012
C15	C	1.482756	-0.044970	0.000013
C16	C	1.479087	-0.184412	0.000003
C17	C	1.477373	-0.249924	-0.123722
C18	C	1.473915	-0.380944	-0.123716
C19	C	1.473889	-0.380930	0.123752
C20	C	1.477339	-0.249911	0.123745
C21	C	1.479122	-0.184425	-0.247464
C22	C	1.477410	-0.249937	-0.371199
C23	C	1.473951	-0.380957	-0.371193
C24	C	1.472205	-0.446465	-0.247451
C25	C	1.703708	0.177364	0.000016
C26	C	1.842263	0.181034	0.000009
C27	C	1.468511	0.414107	0.000017
C28	C	1.472180	0.553549	0.000017
N29	N	1.475620	0.184567	0.353645
N30	N	1.475656	0.184560	-0.353613
C31	C	1.555364	0.103945	0.421423
C32	C	1.555384	0.103941	0.578586
H33	H	0.826412	0.382848	0.000001
O34	O	1.468858	-0.573739	-0.247687
C35	C	1.467658	-0.617512	-0.383427
H36	H	1.509128	-0.546899	-0.453497
H37	H	1.525781	-0.712644	-0.390938
H38	H	1.367099	-0.628391	-0.415606
O39	O	1.636652	0.021596	0.351675
C40	C	1.568884	-0.056243	0.269019
H41	H	1.471733	-0.006886	0.247804
H42	H	1.620660	-0.075605	0.168459
H43	H	1.559462	-0.149179	0.323955
O44	O	1.479138	-0.186118	-0.491273
C45	C	1.482514	-0.056424	-0.464753
H46	H	1.522437	-0.043383	-0.358426
H47	H	1.544288	-0.014080	-0.543792
H48	H	1.383551	-0.006937	-0.470596
H49	H	1.623660	0.034922	0.636871
O50	O	1.083987	0.407654	-0.000236
C51	C	1.158512	0.416374	-0.117776
H52	H	1.127079	0.350522	-0.199935
H53	H	1.147833	0.517491	-0.157243
H54	H	1.260883	0.388163	-0.091196
O55	O	1.472341	-0.444408	-0.491504
C56	C	1.474588	-0.358492	-0.600714
H57	H	1.516486	-0.269959	-0.564441
H58	H	1.534077	-0.403806	-0.687247
H59	H	1.375022	-0.332239	-0.638766
H60	H	1.407385	0.253592	0.588110
O61	O	1.394064	0.266957	0.423003
C62	C	1.319936	0.341941	0.329469
H63	H	1.317841	0.290550	0.227574
H64	H	1.220511	0.360420	0.370880
H65	H	1.361512	0.435486	0.314319
H66	H	0.906691	0.089462	0.000000
H67	H	1.067186	0.093710	-0.000025
H68	H	1.472469	-0.434277	0.224497
H69	H	1.478707	-0.196567	0.224493
O70	O	1.482307	-0.057133	-0.247300
C71	C	1.375547	-0.000056	-0.179476
H72	H	1.337577	-0.071120	-0.107227
H73	H	1.402112	0.084610	-0.118651
H74	H	1.300627	0.032496	-0.257703
