data_functionalizedCrystal
_audit_creation_method	'MofGen! by Chris Wilmer'
_symmetry_space_group_name_H-M	'P1'
_symmetry_Int_Tables_number	1
_symmetry_cell_setting	triclinic
loop_
_symmetry_equiv_pos_as_xyz
  x,y,z
_cell_length_a	15.944551
_cell_length_b	15.944551
_cell_length_c	14.586319
_cell_angle_alpha	89.995256
_cell_angle_beta	90.000984
_cell_angle_gamma	83.498738
loop_
_atom_site_label
_atom_site_type_symbol
_atom_site_fract_x
_atom_site_fract_y
_atom_site_fract_z
O1	O	1.114523	0.108331	-0.076147
O2	O	0.869973	0.121687	-0.076170
O3	O	0.998926	-0.007266	-0.076149
O4	O	0.985570	0.237284	-0.076167
O5	O	0.998917	-0.007268	0.076331
O6	O	0.869964	0.121685	0.076311
O7	O	1.114514	0.108329	0.076334
Cu8	Cu	0.992238	0.115007	0.090245
Cu9	Cu	0.992249	0.115009	-0.090081
O10	O	0.985561	0.237282	0.076314
C11	C	0.838675	0.121132	0.000068
C12	C	0.745429	0.119470	0.000059
C13	C	0.530572	0.035565	0.000083
C14	C	0.469557	0.074528	-0.075101
C15	C	0.574703	0.116462	0.000070
C16	C	0.469570	0.074546	0.075233
C17	C	0.409790	0.113551	0.000085
C18	C	0.514916	0.155448	-0.075176
C19	C	0.514935	0.155454	0.075226
C20	C	0.453937	0.194476	0.000024
C21	C	0.669705	0.118137	0.000061
C22	C	0.314789	0.111883	0.000088
C23	C	0.998367	-0.038561	0.000091
C24	C	0.996705	-0.131807	0.000091
C25	C	0.912801	-0.346663	0.000071
C26	C	0.951759	-0.407682	0.075257
C27	C	0.993698	-0.302533	0.000084
C28	C	0.951787	-0.407663	-0.075077
C29	C	0.990787	-0.467445	0.000073
C30	C	1.032678	-0.362323	0.075332
C31	C	1.032695	-0.362298	-0.075069
C32	C	1.071711	-0.423298	0.000135
C33	C	0.995372	-0.207530	0.000091
C34	C	0.989119	-0.562446	0.000073
C35	C	1.145813	0.108885	0.000095
C36	C	1.239059	0.110547	0.000097
C37	C	0.986120	0.268577	0.000071
C38	C	0.987782	0.361823	0.000065
N39	N	0.992237	0.115005	0.217077
N40	N	0.992257	0.115005	-0.216913
C41	C	1.049356	0.057924	0.452092
C42	C	1.049359	0.057922	0.548074
C43	C	0.935132	0.172089	0.548065
C44	C	0.935126	0.172086	0.452086
C45	C	0.992243	0.115005	0.404102
C46	C	0.992251	0.115005	0.596063
C47	C	0.992253	0.115003	0.700130
C48	C	0.992240	0.115005	0.300028
H49	H	0.449450	0.040313	-0.138659
H50	H	1.095865	0.011440	0.587145
H51	H	0.888613	0.218568	0.413009
C52	C	1.112177	-0.004871	0.399310
C53	C	1.079351	-0.069130	0.333336
C54	C	1.142171	-0.131929	0.280556
C55	C	1.237818	-0.130468	0.293751
C56	C	1.270649	-0.066205	0.359728
C57	C	1.207829	-0.003407	0.412508
H58	H	1.008543	-0.070214	0.323565
H59	H	1.117867	-0.179500	0.231715
H60	H	1.284322	-0.176955	0.254681
H61	H	1.341457	-0.065121	0.369499
H62	H	1.232133	0.044164	0.461348
C63	C	0.542138	0.201635	0.161091
C64	C	0.506762	0.294171	0.178530
C65	C	0.533968	0.340344	0.264405
C66	C	0.596551	0.293981	0.332839
C67	C	0.631930	0.201440	0.315402
C68	C	0.604724	0.155267	0.229527
H69	H	0.460432	0.328496	0.127869
H70	H	0.507778	0.408849	0.277313
H71	H	0.616690	0.328161	0.396408
H72	H	0.678261	0.167115	0.366063
H73	H	0.630915	0.086762	0.216619
C74	C	1.078885	-0.335093	-0.160933
C75	C	1.171421	-0.370471	-0.178367
C76	C	1.217604	-0.343264	-0.264239
C77	C	1.171249	-0.280680	-0.332679
C78	C	1.078707	-0.245299	-0.315247
C79	C	1.032525	-0.272505	-0.229374
H80	H	1.205741	-0.416803	-0.127702
H81	H	1.286109	-0.369456	-0.277143
H82	H	1.205436	-0.260540	-0.396247
H83	H	1.044388	-0.198967	-0.365912
H84	H	0.964019	-0.246314	-0.216471
C85	C	0.575576	-0.055144	-0.000007
C86	C	0.523464	-0.130769	-0.000896
C87	C	0.568468	-0.221475	-0.000991
C88	C	0.665584	-0.236557	-0.000197
C89	C	0.717701	-0.160930	0.000692
C90	C	0.672697	-0.070224	0.000787
H91	H	0.451568	-0.119606	-0.001483
H92	H	0.529887	-0.277459	-0.001649
H93	H	0.698899	-0.303703	-0.000268
H94	H	0.789597	-0.172092	0.001279
H95	H	0.711278	-0.014240	0.001445
C96	C	0.541915	0.201627	-0.161148
C97	C	0.635727	0.211693	-0.177064
C98	C	0.662729	0.257866	-0.263037
C99	C	0.595920	0.293973	-0.333093
C100	C	0.502103	0.283908	-0.317179
C101	C	0.475100	0.237735	-0.231206
H102	H	0.685188	0.184964	-0.125202
H103	H	0.732180	0.265317	-0.274817
H104	H	0.615909	0.328153	-0.396736
H105	H	0.452642	0.310638	-0.369041
H106	H	0.405650	0.230285	-0.219426
H107	H	0.449480	0.040314	0.138793
C108	C	0.409124	0.285260	-0.000042
C109	C	0.423534	0.345440	-0.079643
C110	C	0.378714	0.436221	-0.079716
C111	C	0.319483	0.466822	-0.000188
C112	C	0.305070	0.406641	0.079419
C113	C	0.349890	0.315860	0.079492
H114	H	0.467382	0.322789	-0.138519
H115	H	0.389384	0.480771	-0.138647
H116	H	0.286305	0.534023	-0.000243
H117	H	0.261222	0.429292	0.138295
H118	H	0.339220	0.271310	0.138423
C119	C	0.905534	-0.434857	0.161116
C120	C	0.812525	-0.400664	0.177624
C121	C	0.766294	-0.427836	0.263479
C122	C	0.813072	-0.489202	0.332826
C123	C	0.906086	-0.523399	0.316321
C124	C	0.952317	-0.496227	0.230466
H125	H	0.777893	-0.355234	0.126287
H126	H	0.697439	-0.402521	0.275697
H127	H	0.778849	-0.509317	0.396381
H128	H	0.940718	-0.568829	0.367658
H129	H	1.021172	-0.521542	0.218248
C130	C	1.078856	-0.335327	0.161302
C131	C	1.032278	-0.273459	0.230284
C132	C	1.078452	-0.246462	0.316254
C133	C	1.171203	-0.281333	0.333241
C134	C	1.217786	-0.343205	0.264257
C135	C	1.171613	-0.370202	0.178287
H136	H	0.963613	-0.247642	0.217711
H137	H	1.043967	-0.200660	0.367321
H138	H	1.205384	-0.261348	0.396881
H139	H	1.286451	-0.369022	0.276830
H140	H	1.206097	-0.416004	0.127220
H141	H	0.845652	-0.313356	0.000140
H142	H	1.138919	-0.456457	0.000184
C143	C	0.905555	-0.434800	-0.160947
C144	C	0.812549	-0.400588	-0.177450
C145	C	0.766311	-0.427721	-0.263314
C146	C	0.813079	-0.489066	-0.332676
C147	C	0.906090	-0.523282	-0.316175
C148	C	0.952328	-0.496149	-0.230311
H149	H	0.777924	-0.355174	-0.126102
H150	H	0.697458	-0.402392	-0.275529
H151	H	0.778850	-0.509151	-0.396238
H152	H	0.940715	-0.568696	-0.367523
H153	H	1.021181	-0.521477	-0.218096
C154	C	0.872311	0.234883	0.600848
C155	C	0.872359	0.234939	0.706421
C156	C	0.809538	0.297738	0.759201
C157	C	0.746670	0.360480	0.706407
C158	C	0.746620	0.360426	0.600827
C159	C	0.809440	0.297628	0.548048
H160	H	0.918900	0.188492	0.745508
H161	H	0.809576	0.297777	0.837358
H162	H	0.700166	0.406967	0.745477
H163	H	0.700079	0.406874	0.561740
H164	H	0.809403	0.297588	0.469890
