data_functionalizedCrystal
_audit_creation_method	'MofGen! by Chris Wilmer'
_symmetry_space_group_name_H-M	'P1'
_symmetry_Int_Tables_number	1
_symmetry_cell_setting	triclinic
loop_
_symmetry_equiv_pos_as_xyz
  x,y,z
_cell_length_a	15.995292
_cell_length_b	15.995292
_cell_length_c	15.072220
_cell_angle_alpha	90.002061
_cell_angle_beta	89.986330
_cell_angle_gamma	83.468616
loop_
_atom_site_label
_atom_site_type_symbol
_atom_site_fract_x
_atom_site_fract_y
_atom_site_fract_z
O1	O	1.111004	0.107692	-0.073800
O2	O	0.867219	0.121071	-0.073796
O3	O	0.995801	-0.007511	-0.073799
O4	O	0.982422	0.236274	-0.073797
O5	O	0.995769	-0.007504	0.073766
O6	O	0.867187	0.121078	0.073769
O7	O	1.110972	0.107699	0.073765
Zn8	Zn	0.989075	0.114390	0.097196
Zn9	Zn	0.989116	0.114380	-0.097227
O10	O	0.982390	0.236281	0.073769
C11	C	0.836008	0.120530	-0.000013
C12	C	0.743055	0.118898	-0.000012
C13	C	0.405318	0.112896	-0.000022
C14	C	0.428611	0.205703	-0.000350
C15	C	0.525286	0.207467	-0.000014
C16	C	0.572873	0.115874	-0.000017
C17	C	0.543763	0.069479	0.084246
C18	C	0.446973	0.068362	0.084313
C19	C	0.447154	0.066459	-0.083496
C20	C	0.543646	0.069898	-0.084606
C21	C	0.667569	0.117552	-0.000012
C22	C	0.310622	0.111215	-0.000021
C23	C	0.995240	-0.038703	-0.000019
C24	C	0.993608	-0.131655	-0.000026
C25	C	0.987607	-0.469393	-0.000018
C26	C	1.080413	-0.446100	0.000310
C27	C	1.082177	-0.349424	-0.000025
C28	C	0.990584	-0.301837	-0.000021
C29	C	0.944204	-0.330933	-0.084284
C30	C	0.943086	-0.427723	-0.084352
C31	C	0.941155	-0.427572	0.083457
C32	C	0.944594	-0.331080	0.084568
C33	C	0.992263	-0.207141	-0.000026
C34	C	0.985926	-0.564088	-0.000019
C35	C	1.142183	0.108240	-0.000020
C36	C	1.235136	0.109873	-0.000027
C37	C	0.982951	0.267473	-0.000014
C38	C	0.984583	0.360426	-0.000013
N39	N	0.989052	0.114396	0.229885
N40	N	0.989146	0.114368	-0.229916
C41	C	0.989115	0.114377	0.589087
C42	C	0.920082	0.182948	0.551482
C43	C	0.920240	0.183198	0.448656
C44	C	0.989083	0.114386	0.410883
C45	C	1.076446	0.133450	0.448173
C46	C	1.076059	0.133938	0.551030
C47	C	0.971563	0.026539	0.551186
C48	C	0.969558	0.027125	0.448323
C49	C	0.989070	0.114390	0.310169
C50	C	0.989133	0.114375	0.689800
H51	H	0.563802	0.101703	0.146957
C52	C	0.935010	0.270514	0.586387
N53	N	0.946257	0.336468	0.612679
H54	H	0.854933	0.171779	0.576244
C55	C	1.097841	0.219011	0.413373
N56	N	1.113948	0.283460	0.387166
H57	H	0.975234	-0.454549	-0.147343
C58	C	0.551005	0.256504	-0.081648
N59	N	0.570374	0.293425	-0.143148
H60	H	1.129032	0.085962	0.575904
H61	H	0.420135	0.100499	0.147304
C62	C	1.033087	-0.045038	0.413609
N63	N	1.080949	-0.099389	0.387471
C64	C	0.390793	0.254030	-0.081985
N65	N	0.362302	0.290431	-0.143476
C66	C	0.427331	-0.023564	0.089485
N67	N	0.412541	-0.092801	0.093386
C68	C	0.408999	0.105738	-0.169781
N69	N	0.380261	0.135334	-0.234766
C70	C	1.147503	0.067776	0.415113
N71	N	1.201023	0.018308	0.390211
H72	H	0.909242	0.008203	0.577177
C73	C	0.935384	0.271258	0.415400
N74	N	0.946796	0.337587	0.390353
H75	H	0.855301	0.171843	0.423446
C76	C	0.389386	0.253766	0.080832
N77	N	0.359842	0.289965	0.141981
H78	H	1.091529	0.197997	0.575012
H79	H	0.875040	-0.442259	-0.088167
H80	H	1.021905	-0.024489	0.575503
H81	H	0.976438	-0.310882	-0.146996
C82	C	0.550126	0.256845	0.081738
N83	N	0.568834	0.294036	0.143320
H84	H	0.433175	-0.001854	-0.084068
C85	C	0.586861	-0.021564	0.088500
N86	N	0.619334	-0.090134	0.091709
H87	H	0.978366	-0.312518	0.146905
C88	C	0.568748	0.115527	-0.168823
N89	N	0.587663	0.149895	-0.232255
C90	C	0.588198	-0.020424	-0.091480
N91	N	0.621752	-0.088460	-0.096650
H92	H	1.118503	-0.330404	0.060376
H93	H	1.116172	-0.474101	0.060739
H94	H	0.905293	0.012657	0.423952
H95	H	1.116000	-0.475128	-0.059781
H96	H	1.118743	-0.331030	-0.060535
H97	H	0.876804	-0.299051	-0.087414
H98	H	0.877739	-0.298096	0.089660
C99	C	0.980417	-0.465745	0.169741
N100	N	1.009998	-0.494498	0.234726
C101	C	0.848872	-0.446466	0.084238
N102	N	0.779368	-0.460706	0.084822
