data_functionalizedCrystal
_audit_creation_method	'MofGen! by Chris Wilmer'
_symmetry_space_group_name_H-M	'P1'
_symmetry_Int_Tables_number	1
_symmetry_cell_setting	triclinic
loop_
_symmetry_equiv_pos_as_xyz
  x,y,z
_cell_length_a	21.295417
_cell_length_b	10.685912
_cell_length_c	10.685880
_cell_angle_alpha	99.083823
_cell_angle_beta	94.332822
_cell_angle_gamma	85.605280
loop_
_atom_site_label
_atom_site_type_symbol
_atom_site_fract_x
_atom_site_fract_y
_atom_site_fract_z
Zn1	Zn	-0.207451	-1.995643	-0.866709
Zn2	Zn	0.292549	-1.495643	-0.366709
Zn3	Zn	-0.305248	-1.979177	-0.654422
Zn4	Zn	0.194752	-1.479177	-0.154422
Zn5	Zn	-0.207480	-1.767081	-0.638170
Zn6	Zn	0.292520	-1.267081	-0.138170
Zn7	Zn	-0.320174	-1.783279	-0.850311
Zn8	Zn	0.179826	-1.283279	-0.350311
O9	O	-0.260088	-1.881295	-0.752403
O10	O	0.239912	-1.381295	-0.252403
O11	O	-0.214165	-2.171097	-0.852213
O12	O	0.285835	-1.671097	-0.352213
O13	O	-0.286044	-1.937372	-0.474642
O14	O	0.213956	-1.437372	0.025358
O15	O	-0.119384	-1.797512	-0.668547
O16	O	0.380616	-1.297512	-0.168547
O17	O	-0.286016	-2.159000	-0.696246
O18	O	0.213984	-1.659000	-0.196246
O19	O	-0.119363	-1.965436	-0.836454
O20	O	0.380637	-1.465436	-0.336454
O21	O	-0.214214	-1.781546	-0.462701
O22	O	0.285786	-1.281546	0.037299
O23	O	-0.228687	-1.591591	-0.652647
O24	O	0.271313	-1.091591	-0.152647
O25	O	-0.311455	-1.825120	-1.030111
O26	O	0.188545	-1.325120	-0.530111
O27	O	-0.311483	-1.603492	-0.808506
O28	O	0.188517	-1.103492	-0.308506
O29	O	-0.228638	-1.981143	-1.042158
O30	O	0.271362	-1.481143	-0.542158
O31	O	-0.395319	-1.953079	-0.680346
O32	O	0.104681	-1.453079	-0.180346
O33	O	-0.406285	-1.809153	-0.824265
O34	O	0.093715	-1.309153	-0.324265
C35	C	-0.271709	-1.551482	-0.727034
C36	C	0.228291	-1.051482	-0.227034
C37	C	-0.276696	-1.410389	-0.716212
C38	C	0.223304	-0.910389	-0.216212
C39	C	-0.423643	-1.881123	-0.752320
C40	C	0.076357	-1.381123	-0.252320
C41	C	-0.493610	-1.881169	-0.752336
C42	C	0.006390	-1.381169	-0.252336
C43	C	-0.520746	-1.956190	-0.677486
C44	C	-0.020746	-1.456190	-0.177486
C45	C	-0.586487	-1.956251	-0.677519
C46	C	-0.086487	-1.456251	-0.177519
C47	C	-0.625091	-1.881269	-0.752387
C48	C	-0.125091	-1.381269	-0.252387
C49	C	-0.597947	-1.806244	-0.827252
C50	C	-0.097947	-1.306244	-0.327252
C51	C	-0.532207	-1.806194	-0.827227
C52	C	-0.032207	-1.306194	-0.327227
N53	N	-0.732614	-1.770964	-0.753522
N54	N	-0.232614	-1.270964	-0.253522
N55	N	-0.795064	-1.771014	-0.753539
N56	N	-0.295064	-1.271014	-0.253539
C57	C	-0.823163	-1.881417	-0.752471
C58	C	-0.323163	-1.381417	-0.252471
N59	N	-0.786451	-1.991767	-0.751360
N60	N	-0.286451	-1.491767	-0.251360
N61	N	-0.723995	-1.991715	-0.751336
N62	N	-0.223995	-1.491715	-0.251336
C63	C	-0.696375	-1.881315	-0.752424
C64	C	-0.196375	-1.381315	-0.252424
C65	C	-0.921583	-1.956511	-0.677653
C66	C	-0.421583	-1.456511	-0.177653
C67	C	-0.987326	-1.956575	-0.677695
C68	C	-0.487326	-1.456575	-0.177695
C69	C	-0.998784	-1.806556	-0.827421
C70	C	-0.498784	-1.306556	-0.327421
C71	C	-0.933043	-1.806503	-0.827386
C72	C	-0.433043	-1.306503	-0.327386
C73	C	-0.894446	-1.881478	-0.752495
C74	C	-0.394446	-1.381478	-0.252495
C75	C	-0.095894	-1.881504	-0.752517
C76	C	0.404106	-1.381504	-0.252517
C77	C	-0.025924	-1.881593	-0.752565
C78	C	0.474076	-1.381593	-0.252565
C79	C	-0.271708	-1.906775	-1.083478
C80	C	0.228292	-1.406775	-0.583478
C81	C	-0.276660	-1.917633	-1.224563
C82	C	0.223340	-1.417633	-0.724563
C83	C	-0.248417	-1.212395	-0.777860
C84	C	0.251583	-0.712395	-0.277860
C85	C	-0.243431	-1.353488	-0.788679
C86	C	0.256569	-0.853488	-0.288679
C87	C	-0.248465	-1.855987	-0.422621
C88	C	0.251535	-1.355987	0.077379
C89	C	-0.243327	-1.845376	-0.281556
C90	C	0.256673	-1.345376	0.218444
H91	H	-0.489322	-2.017242	-0.616509
H92	H	0.010678	-1.517242	-0.116509
H93	H	-0.211132	-1.412720	-0.858998
H94	H	0.288868	-0.912720	-0.358998
N95	N	-0.200503	-1.752428	-1.203216
N96	N	0.299497	-1.252428	-0.703216
H97	H	-0.155629	-1.773957	-1.227769
H98	H	0.344371	-1.273957	-0.727769
H99	H	-0.214323	-1.663501	-1.219267
H100	H	0.285677	-1.163501	-0.719267
H101	H	-0.308989	-1.987811	-1.283710
H102	H	0.191011	-1.487811	-0.783710
H103	H	-0.629382	-1.745195	-0.888213
H104	H	-0.129382	-1.245195	-0.388213
N105	N	-0.319470	-1.331950	-0.623049
N106	N	0.180530	-0.831950	-0.123049
H107	H	-0.317087	-1.238895	-0.628261
H108	H	0.182913	-0.738895	-0.128261
H109	H	-0.364325	-1.356527	-0.644383
H110	H	0.135675	-0.856527	-0.144383
H111	H	-0.510113	-1.745102	-0.888180
H112	H	-0.010113	-1.245102	-0.388180
N113	N	-0.615766	-2.037171	-0.596787
N114	N	-0.115766	-1.537171	-0.096787
H115	H	-0.581340	-2.084660	-0.549343
H116	H	-0.081340	-1.584660	-0.049343
H117	H	-0.642836	-1.981033	-0.534050
H118	H	-0.142836	-1.481033	-0.034050
N119	N	-1.040406	-1.725679	-0.908180
N120	N	-0.540406	-1.225679	-0.408180
H121	H	-1.067893	-1.781769	-0.971022
H122	H	-0.567893	-1.281769	-0.471022
H123	H	-1.067942	-1.662948	-0.851954
H124	H	-0.567942	-1.162948	-0.351954
N125	N	-0.879948	-2.037374	-0.596886
N126	N	-0.379948	-1.537374	-0.096886
H127	H	-0.907117	-2.084918	-0.549480
H128	H	-0.407117	-1.584918	-0.049480
H129	H	-0.852375	-2.100033	-0.653104
H130	H	-0.352375	-1.600033	-0.153104
H131	H	-1.009418	-2.017674	-0.616746
H132	H	-0.509418	-1.517674	-0.116746
H133	H	-0.910947	-1.745408	-0.888330
H134	H	-0.410947	-1.245408	-0.388330
