data_functionalizedCrystal
_audit_creation_method	'MofGen! by Chris Wilmer'
_symmetry_space_group_name_H-M	'P1'
_symmetry_Int_Tables_number	1
_symmetry_cell_setting	triclinic
loop_
_symmetry_equiv_pos_as_xyz
  x,y,z
_cell_length_a	11.169417
_cell_length_b	18.101395
_cell_length_c	11.169409
_cell_angle_alpha	89.964384
_cell_angle_beta	89.979747
_cell_angle_gamma	90.032353
loop_
_atom_site_label
_atom_site_type_symbol
_atom_site_fract_x
_atom_site_fract_y
_atom_site_fract_z
Zn1	Zn	1.834798	-0.294745	-0.678505
Zn2	Zn	2.334798	0.205255	-0.178505
Zn3	Zn	1.834612	-0.418612	-0.477810
Zn4	Zn	2.334612	0.081388	0.022190
Zn5	Zn	1.634081	-0.294791	-0.477840
Zn6	Zn	2.134081	0.205209	0.022160
Zn7	Zn	1.634019	-0.418552	-0.678456
Zn8	Zn	2.134019	0.081448	-0.178456
O9	O	1.734377	-0.356675	-0.578153
O10	O	2.234377	0.143325	-0.078153
O11	O	2.002723	-0.311182	-0.651890
O12	O	2.502723	0.188818	-0.151890
O13	O	1.807960	-0.402231	-0.309864
O14	O	2.307960	0.097769	0.190136
O15	O	1.660811	-0.191152	-0.504492
O16	O	2.160811	0.308848	-0.004492
O17	O	2.002586	-0.402186	-0.504440
O18	O	2.502586	0.097814	-0.004440
O19	O	1.808276	-0.191119	-0.651919
O20	O	2.308276	0.308881	-0.151919
O21	O	1.660630	-0.311260	-0.309887
O22	O	2.160630	0.188740	0.190113
O23	O	1.466123	-0.311203	-0.504445
O24	O	1.966123	0.188797	-0.004445
O25	O	1.660704	-0.402085	-0.846412
O26	O	2.160704	0.097915	-0.346412
O27	O	1.466077	-0.402129	-0.651836
O28	O	1.966077	0.097871	-0.151836
O29	O	1.808216	-0.311125	-0.846448
O30	O	2.308216	0.188875	-0.346448
O31	O	1.807899	-0.522237	-0.504393
O32	O	2.307899	-0.022237	-0.004393
O33	O	1.660524	-0.522193	-0.651807
O34	O	2.160524	-0.022193	-0.151807
C35	C	1.422553	-0.356665	-0.578139
C36	C	1.922553	0.143335	-0.078139
C37	C	1.289153	-0.356679	-0.578162
C38	C	1.789153	0.143321	-0.078162
C39	C	1.734217	-0.549086	-0.578118
C40	C	2.234217	-0.049086	-0.078118
C41	C	1.734258	-0.631400	-0.578143
C42	C	2.234258	-0.131400	-0.078143
C43	C	1.734521	-0.930491	-0.578207
C44	C	2.234521	-0.430491	-0.078207
C45	C	1.642012	-0.899169	-0.671186
C46	C	2.142012	-0.399169	-0.171186
C47	C	1.641572	-0.813551	-0.670895
C48	C	2.141572	-0.313551	-0.170895
C49	C	1.734391	-0.782108	-0.578176
C50	C	2.234391	-0.282108	-0.078176
C51	C	1.700137	-0.813271	-0.451690
C52	C	2.200137	-0.313271	0.048310
C53	C	1.699541	-0.898916	-0.452246
C54	C	2.199541	-0.398916	0.047754
C55	C	1.861486	-0.898830	-0.610602
C56	C	2.361486	-0.398830	-0.110602
C57	C	1.860740	-0.813178	-0.613375
C58	C	2.360740	-0.313178	-0.113375
C59	C	1.734319	-0.698249	-0.578151
C60	C	2.234319	-0.198249	-0.078151
C61	C	1.734590	-1.014350	-0.578224
C62	C	2.234590	-0.514350	-0.078224
C63	C	2.047420	-0.356686	-0.578167
C64	C	2.547420	0.143314	-0.078167
C65	C	2.180820	-0.356690	-0.578174
C66	C	2.680820	0.143310	-0.078174
C67	C	1.734474	-0.356593	-0.891195
C68	C	2.234474	0.143407	-0.391195
C69	C	1.734515	-0.356558	-1.024596
C70	C	2.234515	0.143442	-0.524596
C71	C	1.734571	-0.163513	-0.578215
C72	C	2.234571	0.336487	-0.078215
C73	C	1.734654	-0.081199	-0.578241
C74	C	2.234654	0.418801	-0.078241
C75	C	1.734351	-0.356703	-0.266328
C76	C	2.234351	0.143297	0.233672
C77	C	1.734542	-0.356530	-0.132929
C78	C	2.234542	0.143470	0.367071
H79	H	1.663004	-0.792478	-0.764684
H80	H	2.163004	-0.292478	-0.264684
C81	C	1.958783	-0.784261	-0.528552
C82	C	2.458783	-0.284261	-0.028552
N83	N	2.032627	-0.762481	-0.464651
N84	N	2.532627	-0.262481	0.035349
H85	H	1.886570	-0.792807	-0.706463
H86	H	2.386570	-0.292807	-0.206463
C87	C	1.670668	-0.926922	-0.798303
C88	C	2.170668	-0.426922	-0.298303
N89	N	1.692252	-0.947832	-0.894050
N90	N	2.192252	-0.447832	-0.394050
C91	C	1.515642	-0.928325	-0.642555
C92	C	2.015642	-0.428325	-0.142555
N93	N	1.420460	-0.950284	-0.620983
N94	N	1.920460	-0.450284	-0.120983
H95	H	1.606730	-0.918963	-0.424804
H96	H	2.106730	-0.418963	0.075196
H97	H	1.547463	-0.793131	-0.649438
H98	H	2.047463	-0.293131	-0.149438
C99	C	1.786604	-0.926914	-0.355455
C100	C	2.286604	-0.426914	0.144545
N101	N	1.852171	-0.947999	-0.282547
N102	N	2.352171	-0.447999	0.217453
H103	H	1.765397	-0.792907	-0.380525
H104	H	2.265397	-0.292907	0.119475
C105	C	1.576075	-0.784395	-0.413955
C106	C	2.076075	-0.284395	0.086045
N107	N	1.482627	-0.762647	-0.385541
N108	N	1.982627	-0.262647	0.114459
H109	H	1.892713	-0.920369	-0.701263
H110	H	2.392713	-0.420369	-0.201263
C111	C	1.954600	-0.926198	-0.519121
C112	C	2.454600	-0.426198	-0.019121
N113	N	2.024724	-0.946816	-0.450215
N114	N	2.524724	-0.446816	0.049785
