data_functionalizedCrystal
_audit_creation_method	'MofGen! by Chris Wilmer'
_symmetry_space_group_name_H-M	'P1'
_symmetry_Int_Tables_number	1
_symmetry_cell_setting	triclinic
loop_
_symmetry_equiv_pos_as_xyz
  x,y,z
_cell_length_a	19.077409
_cell_length_b	17.637651
_cell_length_c	19.076919
_cell_angle_alpha	99.433464
_cell_angle_beta	85.523525
_cell_angle_gamma	103.923911
loop_
_atom_site_label
_atom_site_type_symbol
_atom_site_fract_x
_atom_site_fract_y
_atom_site_fract_z
Zn1	Zn	1.012774	-0.282861	0.306438
Zn2	Zn	0.995528	-0.409545	0.166607
Zn3	Zn	0.899624	-0.282887	0.193282
Zn4	Zn	0.871051	-0.420570	0.287259
O5	O	0.944744	-0.348966	0.238396
O6	O	1.109933	-0.295041	0.284752
O7	O	0.987547	-0.388140	0.072296
O8	O	0.933809	-0.172245	0.227482
O9	O	1.097263	-0.388115	0.182019
O10	O	1.016940	-0.172225	0.310617
O11	O	0.917087	-0.295085	0.091894
O12	O	0.796386	-0.305776	0.208885
O13	O	0.885110	-0.406906	0.387652
O14	O	0.775394	-0.406931	0.277930
O15	O	0.989233	-0.305731	0.401743
O16	O	0.959840	-0.521646	0.163422
O17	O	0.868388	-0.529746	0.252064
C18	C	0.760104	-0.357554	0.244221
C19	C	0.681110	-0.361247	0.246726
C20	C	0.235288	-0.387678	0.264737
C21	C	0.309511	-0.384213	0.262369
C22	C	0.357539	-0.329736	0.225326
C23	C	0.331341	-0.278727	0.190642
C24	C	0.257119	-0.282197	0.193006
C25	C	0.580690	-0.313708	0.214406
C26	C	0.654917	-0.310240	0.212047
C27	C	0.633081	-0.415728	0.283773
C28	C	0.558859	-0.419189	0.286137
C29	C	0.532667	-0.368183	0.251451
N30	N	0.433407	-0.326191	0.222906
N31	N	0.456800	-0.371732	0.253866
C32	C	0.909160	-0.554383	0.202782
C33	C	0.894002	-0.642260	0.187568
C34	C	1.060356	-0.930950	0.354185
C35	C	1.046090	-1.013524	0.339877
C36	C	0.959591	-1.013645	0.253220
C37	C	0.973853	-0.931069	0.267518
C38	C	1.024235	-0.889728	0.318002
C39	C	0.937732	-0.889847	0.231335
C40	C	0.951990	-0.807278	0.245635
C41	C	1.002368	-0.765932	0.296118
C42	C	1.038493	-0.807160	0.332302
C43	C	0.887346	-0.931189	0.180855
C44	C	0.851225	-0.889967	0.144672
C45	C	0.865486	-0.807397	0.158968
C46	C	0.915865	-0.766051	0.209451
C47	C	0.829361	-0.766169	0.122784
C48	C	0.843619	-0.683601	0.137084
C49	C	0.930122	-0.683482	0.223751
C50	C	1.130105	-0.340345	0.232549
C51	C	1.209095	-0.336671	0.230058
C52	C	0.935908	-0.357546	0.420778
C53	C	0.932142	-0.361202	0.498499
C54	C	0.980485	-0.142746	0.274164
C55	C	0.995716	-0.054867	0.289406
C56	C	0.953597	-0.340360	0.056732
C57	C	0.957538	-0.336475	-0.020953
C58	C	0.984582	-0.310246	0.542349
C59	C	0.981036	-0.313678	0.615376
C60	C	0.925052	-0.368072	0.644551
C61	C	0.872608	-0.419030	0.600696
C62	C	0.876152	-0.415593	0.527670
C63	C	0.908638	-0.383996	0.862166
C64	C	0.905099	-0.387431	0.935197
C65	C	1.013527	-0.282078	0.949872
C66	C	1.017068	-0.278649	0.876845
C67	C	0.964621	-0.329604	0.832996
N68	N	0.921427	-0.371583	0.719196
N69	N	0.968244	-0.326088	0.758353
H70	H	0.559374	-0.272178	0.186158
H71	H	0.918568	-1.047316	0.212118
H72	H	0.519758	-0.463551	0.316300
F73	F	1.044171	-0.252356	0.511305
H74	H	0.654415	-0.457255	0.312013
F75	F	0.706032	-0.252258	0.172615
F76	F	0.382459	-0.220752	0.151214
F77	F	0.813023	-0.476917	0.631748
H78	H	1.023739	-0.272186	0.651076
F79	F	0.845508	-0.445323	0.966245
H80	H	0.810201	-0.923638	0.103570
H81	H	0.875732	-0.998423	0.169221
F82	F	0.184179	-0.445656	0.304169
H83	H	0.833444	-0.457079	0.491969
H84	H	0.235795	-0.240659	0.164768
H85	H	0.865940	-0.425499	0.826471
H86	H	0.971155	-0.649821	0.264855
H87	H	1.013976	-0.698699	0.307759
H88	H	1.079525	-0.773498	0.373405
F89	F	1.113987	-0.886947	0.407908
H90	H	0.330833	-0.425750	0.290607
H91	H	1.075497	-1.047085	0.369356
F92	F	0.805177	-0.639727	0.098572
F93	F	0.775733	-0.810178	0.069067
F94	F	1.076654	-0.220757	0.845800
F95	F	1.069339	-0.227850	0.996544
