data_functionalizedCrystal
_audit_creation_method	'MofGen! by Chris Wilmer'
_symmetry_space_group_name_H-M	'P1'
_symmetry_Int_Tables_number	1
_symmetry_cell_setting	triclinic
loop_
_symmetry_equiv_pos_as_xyz
  x,y,z
_cell_length_a	19.377369
_cell_length_b	19.377372
_cell_length_c	19.377372
_cell_angle_alpha	86.411506
_cell_angle_beta	62.069167
_cell_angle_gamma	117.941843
loop_
_atom_site_label
_atom_site_type_symbol
_atom_site_fract_x
_atom_site_fract_y
_atom_site_fract_z
Zr1	Zr	0.939463	0.001256	0.435549
O2	O	1.070589	0.082286	0.306590
O3	O	0.808337	-0.000849	0.485587
O4	O	0.987395	0.130266	0.437727
O5	O	0.853721	-0.178116	0.380253
O6	O	1.025205	0.142252	0.529222
O7	O	0.891531	-0.048829	0.354449
O8	O	0.704902	-0.092289	0.614833
O9	O	1.174023	0.056425	0.294641
O10	O	0.890487	-0.020269	0.562517
O11	O	0.834053	-0.125699	0.513493
O12	O	1.044871	0.028672	0.457145
O13	O	0.988437	-0.076759	0.408120
Zr14	Zr	0.939461	-0.185824	0.622626
Zr15	Zr	0.999764	0.020373	0.581473
Zr16	Zr	0.879160	-0.204941	0.476703
Zr17	Zr	1.104428	-0.039989	0.416492
Zr18	Zr	0.774496	-0.144579	0.641683
O19	O	1.070587	-0.183718	0.572589
O20	O	1.156330	0.109468	0.514074
O21	O	0.984846	-0.210900	0.365105
O22	O	0.808335	-0.266854	0.751585
O23	O	0.894078	0.026333	0.693071
O24	O	0.722594	-0.294036	0.544101
O25	O	1.025203	-0.006452	0.677923
O26	O	0.891529	-0.314834	0.620448
O27	O	0.853719	-0.326820	0.528953
O28	O	0.987393	-0.135738	0.703726
O29	O	1.221955	0.071621	0.410631
O30	O	0.656969	-0.256188	0.647545
O31	O	0.704901	-0.240993	0.763534
O32	O	0.752834	-0.077093	0.730823
O33	O	1.126090	-0.107474	0.327352
O34	O	1.174022	-0.092279	0.443342
O35	O	0.834053	-0.213239	0.601031
O36	O	0.890487	-0.107809	0.650055
O37	O	1.044871	-0.058868	0.544683
O38	O	0.988437	-0.164299	0.495658
C39	C	0.733115	-0.040692	0.552925
C40	C	0.663083	-0.023183	0.561015
C41	C	1.014892	0.165638	0.477611
C42	C	1.040492	0.253174	0.460141
C43	C	0.864032	-0.350206	0.580564
C44	C	0.838432	-0.437742	0.598035
C45	C	0.285198	-0.240999	0.460015
C46	C	0.219319	-0.224603	0.467724
C47	C	0.278242	-0.114541	0.518902
C48	C	0.344123	-0.130931	0.511202
C49	C	0.347595	-0.194161	0.481757
C50	C	0.406521	-0.084093	0.532943
C51	C	0.472400	-0.100479	0.525238
C52	C	0.475881	-0.163703	0.495793
C53	C	0.413474	-0.210547	0.474052
C54	C	0.403052	-0.020860	0.562382
C55	C	0.465450	0.025979	0.584123
C56	C	0.531326	0.009589	0.576424
C57	C	0.534807	-0.053635	0.546979
C58	C	0.593732	0.056433	0.598165
C59	C	0.659611	0.040047	0.590460
C60	C	0.600686	-0.070021	0.539274
C61	C	1.145808	-0.143875	0.505250
C62	C	1.215840	-0.161385	0.497160
C63	C	0.864034	-0.116196	0.346560
C64	C	0.838434	-0.124312	0.284612
C65	C	0.721756	0.413338	0.677675
C66	C	0.745831	0.495598	0.661241
C67	C	0.906996	0.546679	0.551240
C68	C	0.882935	0.464422	0.567667
C69	C	0.790313	0.397757	0.630885
C70	C	0.951493	0.448841	0.520878
C71	C	0.927433	0.366591	0.537301
C72	C	0.834815	0.299922	0.600514
C73	C	0.766253	0.315507	0.647309
C74	C	1.044113	0.515507	0.457656
C75	C	1.112671	0.499925	0.410867
C76	C	1.088613	0.417675	0.427294
C77	C	0.995994	0.351006	0.490507
C78	C	1.157174	0.402089	0.380499
C79	C	1.133114	0.319839	0.396923
C80	C	0.971934	0.268755	0.506930
C81	C	1.157167	-0.023268	-0.194140
C82	C	1.133091	-0.030902	-0.252335
C83	C	0.971926	-0.081992	-0.142325
C84	C	0.995988	-0.074366	-0.084118
C85	C	1.088610	-0.045003	-0.110033
C86	C	0.927430	-0.096101	-0.000011
C87	C	0.951492	-0.088472	0.058189
C88	C	1.044110	-0.059108	0.032282
C89	C	1.112671	-0.037374	-0.051833
C90	C	0.834810	-0.125459	0.025901
C91	C	0.766253	-0.147194	0.110008
C92	C	0.790312	-0.139570	0.168211
C93	C	0.882930	-0.110206	0.142304
C94	C	0.721751	-0.161305	0.252326
C95	C	0.745812	-0.153675	0.310526
C96	C	0.906992	-0.102577	0.200505
C97	C	1.014890	-0.068371	0.711615
C98	C	1.040490	-0.060256	0.773564
C99	C	0.808543	-0.016780	0.735453
C100	C	0.764111	0.008845	0.805491
C101	C	0.657686	-0.298614	0.604402
C102	C	0.562053	-0.368641	0.629962
C103	C	0.733114	-0.274702	0.786929
C104	C	0.663081	-0.336613	0.874438
C105	C	1.145810	0.090134	0.271246
C106	C	1.215843	0.152045	0.183737
C107	C	1.070380	-0.167788	0.322722
C108	C	1.114813	-0.193413	0.252684
C109	C	1.221238	0.114046	0.453774
C110	C	1.316871	0.184073	0.428213
C111	C	0.743248	0.066583	0.792686
C112	C	0.701511	0.090677	0.858485
C113	C	0.680632	0.057028	0.937089
C114	C	0.701501	-0.000713	0.949892
C115	C	0.743243	-0.024801	0.884093
C116	C	0.517141	-0.447230	0.687662
C117	C	0.427290	-0.513038	0.711677
C118	C	0.382350	-0.500253	0.677996
C119	C	0.427271	-0.421657	0.620290
C120	C	0.517123	-0.355852	0.596271
C121	C	0.659653	-0.310652	0.941130
C122	C	0.593864	-0.368818	1.023357
C123	C	0.531499	-0.452942	1.038891
C124	C	0.534930	-0.478903	0.972192
C125	C	0.600723	-0.420739	0.889966
C126	C	1.219279	0.126082	0.117044
C127	C	1.285088	0.184243	0.034815
C128	C	1.347457	0.268366	0.019280
C129	C	1.344021	0.294329	0.085980
C130	C	1.278217	0.236168	0.168208
C131	C	1.135685	-0.251144	0.265486
C132	C	1.177447	-0.275220	0.199682
C133	C	1.198329	-0.241568	0.121077
C134	C	1.177456	-0.183831	0.108275
C135	C	1.135702	-0.159751	0.174077
C136	C	1.361783	0.171264	0.461909
C137	C	1.451634	0.237058	0.437908
C138	C	1.496574	0.315658	0.380206
C139	C	1.451654	0.328466	0.346509
C140	C	1.361802	0.262675	0.370515
H141	H	0.603511	-0.121510	0.515298
Cl142	Cl	1.508089	0.220935	0.480273
H143	H	1.275424	0.257318	0.222508
Cl144	Cl	0.675242	-0.043011	1.048715
H145	H	1.188082	0.554214	0.359393
Cl146	Cl	1.203709	-0.141537	0.009453
Cl147	Cl	0.289562	-0.320494	0.423005
H148	H	1.325243	0.273115	0.343069
Cl149	Cl	1.109448	-0.293456	0.364295
Cl150	Cl	0.140877	-0.283491	0.440385
H151	H	1.287871	0.163089	-0.019484
Cl152	Cl	1.609535	0.398358	0.350032
H153	H	0.710426	-0.242156	0.928497
Cl154	Cl	1.508169	0.427281	0.273962
H155	H	0.309187	-0.553843	0.697561
H156	H	0.760222	-0.071820	0.894531
Cl157	Cl	0.589562	-0.336162	1.107194
Cl158	Cl	1.430177	0.341475	-0.084097
H159	H	0.529528	-0.177041	0.489516
Cl160	Cl	0.628153	0.087318	1.019800
H161	H	0.690841	-0.171099	0.131097
H162	H	0.390727	-0.577028	0.758666
H163	H	0.390668	-0.411260	0.592872
Cl164	Cl	1.140881	0.020331	0.136552
H165	H	0.646341	-0.185204	0.273413
Cl166	Cl	0.659626	-0.180996	0.416265
Cl167	Cl	0.675280	0.163261	0.842372
H168	H	1.118706	-0.112745	0.163643
Cl169	Cl	0.573615	-0.463322	0.730018
Cl170	Cl	0.573570	-0.257055	0.523737
Cl171	Cl	0.649822	0.231696	0.726809
H172	H	0.646335	0.359055	0.729157
Cl173	Cl	0.448790	-0.526053	1.142267
H174	H	0.689995	0.508277	0.699345
H175	H	0.982406	-0.078695	0.179406
Cl176	Cl	1.422431	0.400089	0.066438
Cl177	Cl	0.456520	-0.584663	0.991734
Cl178	Cl	1.305305	0.072460	0.534452
H179	H	0.603501	-0.441888	0.835668
Cl180	Cl	1.023428	0.630491	0.471765
Cl181	Cl	1.203673	-0.347807	0.215795
H182	H	1.232328	-0.261182	0.067503
H183	H	0.896514	-0.105897	-0.121236
Cl184	Cl	1.074359	0.618908	0.437009
Cl185	Cl	0.589366	0.135926	0.635167
Cl186	Cl	1.219291	-0.003565	-0.358078
H187	H	0.275408	-0.063057	0.542873
Cl188	Cl	0.417839	-0.290042	0.437042
Cl189	Cl	0.320234	-0.000259	0.572061
H190	H	0.710419	0.078188	0.608163
Cl191	Cl	0.461078	0.105466	0.621135
H192	H	0.896514	0.214472	0.558412
H193	H	1.232584	0.456378	0.329022
Cl194	Cl	0.804563	0.196519	0.621158
Cl195	Cl	1.219306	0.300249	0.338111
H196	H	1.188085	-0.013491	-0.072931
Cl197	Cl	1.074362	-0.049513	0.105447
H198	H	1.232581	0.000614	-0.215239
H199	H	0.815225	-0.131663	-0.021494
H200	H	0.760253	0.093998	0.728686
