data_functionalizedCrystal
_audit_creation_method	'MofGen! by Chris Wilmer'
_symmetry_space_group_name_H-M	'P1'
_symmetry_Int_Tables_number	1
_symmetry_cell_setting	triclinic
loop_
_symmetry_equiv_pos_as_xyz
  x,y,z
_cell_length_a	17.019330
_cell_length_b	14.853569
_cell_length_c	13.330367
_cell_angle_alpha	89.994190
_cell_angle_beta	93.887920
_cell_angle_gamma	96.482661
loop_
_atom_site_label
_atom_site_type_symbol
_atom_site_fract_x
_atom_site_fract_y
_atom_site_fract_z
O1	O	-1.046809	0.114918	-0.173871
O2	O	-0.817160	0.129551	-0.154032
O3	O	-0.938118	-0.009011	-0.164472
O4	O	-0.925851	0.253481	-0.163431
O5	O	-0.938101	-0.009015	0.002377
O6	O	-0.817143	0.129548	0.012817
O7	O	-1.046792	0.114915	-0.007023
Cu8	Cu	-0.931965	0.122231	0.018132
Cu9	Cu	-0.931986	0.122235	-0.179186
O10	O	-0.925833	0.253477	0.003417
C11	C	-0.787762	0.128992	-0.068068
C12	C	-0.700190	0.127321	-0.060503
C13	C	-0.204896	0.117901	-0.013152
C14	C	-0.287179	0.119471	-0.020263
C15	C	-0.328331	0.120251	-0.114769
C16	C	-0.287194	0.119470	-0.202170
C17	C	-0.204912	0.117906	-0.195058
C18	C	-0.576771	0.124977	-0.140792
C19	C	-0.659059	0.126538	-0.147897
C20	C	-0.659038	0.126540	0.034011
C21	C	-0.576754	0.124972	0.041114
C22	C	-0.535624	0.124196	-0.046286
C23	C	-0.412438	0.121853	-0.122039
C24	C	-0.451518	0.122600	-0.039015
C25	C	-0.937553	-0.042600	-0.080999
C26	C	-0.935887	-0.142679	-0.080854
C27	C	-0.863254	-0.178863	-0.074578
C28	C	-1.006955	-0.200534	-0.087003
C29	C	-1.005392	-0.294564	-0.086872
C30	C	-0.932759	-0.330748	-0.080595
C31	C	-0.861688	-0.272901	-0.074450
C32	C	-1.076461	-0.352418	-0.093028
C33	C	-1.074901	-0.446454	-0.092899
C34	C	-1.002266	-0.482639	-0.086615
C35	C	-0.931193	-0.424786	-0.080468
C36	C	-0.858560	-0.460970	-0.074191
C37	C	-0.787485	-0.403118	-0.068036
C38	C	-0.789054	-0.309086	-0.068166
C39	C	-1.000698	-0.576671	-0.086486
C40	C	-0.856994	-0.555008	-0.074063
C41	C	-0.076191	0.115467	-0.092985
C42	C	-0.163765	0.117118	-0.100546
C43	C	-0.926398	0.287066	-0.080057
C44	C	-0.928065	0.387145	-0.080209
N45	N	-0.931957	0.122228	0.156914
N46	N	-0.932001	0.122231	-0.317969
C47	C	-0.878424	0.183566	0.634157
C48	C	-0.985570	0.060896	0.624878
C49	C	-0.985561	0.060894	0.519860
C50	C	-0.931983	0.122229	0.471986
C51	C	-0.878415	0.183567	0.529130
C52	C	-1.039134	-0.000437	0.462708
C53	C	-1.039128	-0.000442	0.357684
C54	C	-0.985546	0.060890	0.309808
C55	C	-0.931974	0.122230	0.366959
C56	C	-0.878397	0.183565	0.319085
C57	C	-0.824821	0.244901	0.376234
C58	C	-0.824833	0.244899	0.481255
C59	C	-0.985534	0.060893	0.204788
C60	C	-0.878388	0.183566	0.214058
H61	H	-0.543293	0.124342	-0.211960
H62	H	-1.135595	-0.322950	-0.098076
H63	H	-0.781214	0.294837	0.527792
F64	F	-1.076335	-0.638236	-0.093045
H65	H	-0.781201	0.294845	0.337243
F66	F	-0.456243	0.122673	-0.222618
F67	F	-1.042554	-0.004376	0.143972
H68	H	-1.029195	0.010963	0.663859
F69	F	-1.150543	-0.508015	-0.099444
F70	F	-0.821358	0.248845	0.163116
F71	F	-0.821404	0.248839	0.694977
H72	H	-1.082760	-0.050370	0.501690
H73	H	-0.692562	0.127180	-0.224859
F74	F	-0.787615	-0.117295	-0.068024
F75	F	-0.779686	-0.593509	-0.067375
H76	H	-0.320706	0.120110	-0.279119
H77	H	-1.082751	-0.050385	0.311159
H78	H	-0.728347	-0.432591	-0.062932
H79	H	-0.731189	-0.261976	-0.063158
F80	F	-0.407719	0.121776	0.061562
H81	H	-0.171395	0.117270	0.063806
H82	H	-1.066090	-0.171068	-0.092093
H83	H	-0.543256	0.124317	0.118071
F84	F	-0.330949	0.120309	0.072755
H85	H	-0.171424	0.117271	-0.266224
F86	F	-0.702816	0.127371	0.127023
