data_functionalizedCrystal
_audit_creation_method	'MofGen! by Chris Wilmer'
_symmetry_space_group_name_H-M	'P1'
_symmetry_Int_Tables_number	1
_symmetry_cell_setting	triclinic
loop_
_symmetry_equiv_pos_as_xyz
  x,y,z
_cell_length_a	17.637015
_cell_length_b	15.297621
_cell_length_c	15.296720
_cell_angle_alpha	88.384271
_cell_angle_beta	86.525204
_cell_angle_gamma	90.316735
loop_
_atom_site_label
_atom_site_type_symbol
_atom_site_fract_x
_atom_site_fract_y
_atom_site_fract_z
Zn1	Zn	-0.576217	-1.146699	-0.575095
Zn2	Zn	-0.682821	-1.152222	-0.400576
Zn3	Zn	-0.534623	-1.033279	-0.414271
Zn4	Zn	-0.675539	-0.981797	-0.523614
O5	O	-0.617300	-1.078499	-0.478389
O6	O	-0.610812	-1.266221	-0.567758
O7	O	-0.648803	-1.160300	-0.283595
O8	O	-0.436552	-1.067558	-0.462882
O9	O	-0.689134	-1.270279	-0.439540
O10	O	-0.467111	-1.150887	-0.581038
O11	O	-0.539922	-1.072913	-0.293657
O12	O	-0.532861	-0.907660	-0.412963
O13	O	-0.676723	-0.979815	-0.649241
O14	O	-0.636392	-0.869836	-0.493296
O15	O	-0.603752	-1.100967	-0.687064
O16	O	-0.785443	-1.110381	-0.389620
O17	O	-0.780093	-0.985170	-0.480016
C18	C	-0.579323	-0.857947	-0.449030
C19	C	-0.563097	-0.763586	-0.436485
C20	C	-0.809634	-1.042808	-0.427767
C21	C	-0.891931	-1.027611	-0.406150
C22	C	-0.733241	-0.418937	-0.568019
C23	C	-0.748492	-0.507593	-0.579802
C24	C	-0.702144	-0.571595	-0.543974
C25	C	-0.640544	-0.546934	-0.496361
C26	C	-0.625296	-0.458269	-0.484571
C27	C	-0.594199	-0.610928	-0.460526
C28	C	-0.532598	-0.586266	-0.412913
C29	C	-0.517352	-0.497610	-0.401126
C30	C	-0.563700	-0.433608	-0.436954
C31	C	-0.609447	-0.699592	-0.472315
C32	C	-0.501501	-0.738925	-0.388867
C33	C	-0.486251	-0.650269	-0.377085
C34	C	-0.992084	-0.962853	-0.314114
C35	C	-0.914754	-0.977137	-0.334434
C36	C	-0.946437	-1.063823	-0.457572
C37	C	-1.023771	-1.049550	-0.437259
C38	C	-1.046587	-0.999063	-0.365530
C39	C	-1.078275	-1.085760	-0.488675
C40	C	-1.155602	-1.071483	-0.468367
C41	C	-1.178425	-1.020996	-0.396642
C42	C	-1.123914	-0.984786	-0.345221
C43	C	-1.055456	-1.136241	-0.560408
C44	C	-1.109960	-1.172451	-0.611824
C45	C	-1.187289	-1.158180	-0.591513
C46	C	-1.210112	-1.107693	-0.519788
C47	C	-1.241799	-1.194390	-0.642934
C48	C	-1.319126	-1.180113	-0.622625
C49	C	-1.287439	-1.093416	-0.499480
C50	C	-0.424221	-1.114349	-0.529230
C51	C	-0.341943	-1.129626	-0.550896
C52	C	-0.644065	-1.034032	-0.699817
C53	C	-0.655470	-1.015083	-0.794176
C54	C	-0.655419	-0.299915	-0.507858
C55	C	-0.671645	-0.394275	-0.520402
C56	C	-0.535658	-1.213986	-1.138927
C57	C	-0.524944	-1.231795	-1.050273
C58	C	-0.557574	-1.177618	-0.986244
C59	C	-0.600921	-1.105630	-1.010879
C60	C	-0.611641	-1.087824	-1.099542
C61	C	-0.633558	-1.051456	-0.946859
C62	C	-0.676904	-0.979468	-0.971493
C63	C	-0.687622	-0.961665	-1.060148
C64	C	-0.654992	-1.015841	-1.124176
C65	C	-0.622838	-1.069263	-0.858196
C66	C	-0.698821	-0.943101	-0.818810
C67	C	-0.709535	-0.925292	-0.907465
C68	C	-0.590594	-1.122851	-0.257844
C69	C	-0.579008	-1.142003	-0.163562
H70	H	-0.714565	-0.643782	-0.553571
C71	C	-0.947017	-1.080596	-0.613122
C72	C	-0.921348	-1.119313	-0.536417
H73	H	-0.931524	-1.114852	-0.661797
H74	H	-1.000864	-1.077286	-0.608383
H75	H	-0.926059	-1.023395	-0.621214
H76	H	-0.942310	-1.176511	-0.528322
H77	H	-0.867489	-1.122632	-0.541156
C78	C	-0.784302	-0.932838	-0.691312
C79	C	-0.734690	-0.883544	-0.748436
H80	H	-0.806441	-0.896075	-0.647860
H81	H	-0.823166	-0.957610	-0.723364
H82	H	-0.756940	-0.978253	-0.663961
H83	H	-0.762054	-0.838133	-0.775792
H84	H	-0.695821	-0.858759	-0.716380
C85	C	-0.616390	-1.211731	-0.843606
C86	C	-0.545810	-1.197228	-0.888796
H87	H	-0.609126	-1.223854	-0.783446
H88	H	-0.646860	-1.161100	-0.849094
H89	H	-0.641045	-1.260088	-0.867623
H90	H	-0.521157	-1.148867	-0.864783
H91	H	-0.515327	-1.247864	-0.883303
H92	H	-0.744828	-0.866679	-0.927535
C93	C	-0.806812	-0.499339	-0.717573
C94	C	-0.816196	-0.534697	-0.632142
H95	H	-0.848611	-0.516076	-0.749888
H96	H	-0.804366	-0.437386	-0.715673
H97	H	-0.761101	-0.520588	-0.745099
H98	H	-0.861904	-0.513443	-0.604612
H99	H	-0.818651	-0.596663	-0.634037
H100	H	-0.722925	-0.903053	-1.080201
H101	H	-1.142493	-0.943680	-0.286808
H102	H	-0.770975	-0.366820	-0.597179
C103	C	-0.412179	-0.545396	-0.319830
C104	C	-0.449643	-0.470501	-0.348786
H105	H	-0.370376	-0.528658	-0.287523
H106	H	-0.446400	-0.580528	-0.283416
H107	H	-0.394343	-0.577787	-0.368919
H108	H	-0.467484	-0.438113	-0.299697
H109	H	-0.415416	-0.435354	-0.385201
C110	C	-1.005492	-1.232836	-0.697633
C111	C	-1.084875	-1.227949	-0.690664
H112	H	-0.990010	-1.267106	-0.746302
H113	H	-0.984544	-1.175642	-0.705744
H114	H	-0.988090	-1.259089	-0.645582
H115	H	-1.102277	-1.201690	-0.742713
H116	H	-1.105832	-1.285154	-0.682560
H117	H	-1.363505	-1.209587	-0.664502
C118	C	-0.667765	-0.691334	-0.610087
C119	C	-0.677150	-0.726696	-0.524658
H120	H	-0.709562	-0.708072	-0.642404
H121	H	-0.665319	-0.629382	-0.608186
H122	H	-0.622053	-0.712582	-0.637613
H123	H	-0.722859	-0.705444	-0.497129
H124	H	-0.679604	-0.788662	-0.526556
C125	C	-0.483082	-0.328018	-0.374642
C126	C	-0.546934	-0.336152	-0.424003
H127	H	-0.472731	-0.267851	-0.366654
H128	H	-0.492636	-0.356700	-0.319155
H129	H	-0.440571	-0.353975	-0.404651
H130	H	-0.589447	-0.310201	-0.393990
H131	H	-0.537384	-0.307459	-0.479499
C132	C	-0.476937	-0.892295	-0.369891
C133	C	-0.450549	-0.809269	-0.349484
H134	H	-0.445481	-0.935724	-0.345582
H135	H	-0.527638	-0.900112	-0.346218
H136	H	-0.475577	-0.897361	-0.431717
H137	H	-0.451915	-0.804201	-0.287657
H138	H	-0.399835	-0.801450	-0.373153
H139	H	-0.436095	-0.630176	-0.338317
C140	C	-0.420742	-1.273133	-1.204751
C141	C	-0.499797	-1.273533	-1.209305
H142	H	-0.398604	-1.309903	-1.248198
H143	H	-0.401849	-1.215197	-1.214545
H144	H	-0.408159	-1.294042	-1.148423
H145	H	-0.512380	-1.252617	-1.265631
H146	H	-0.518697	-1.331480	-1.199518
C147	C	-0.415332	-1.282065	-0.978391
C148	C	-0.477273	-1.310902	-1.023212
H149	H	-0.385896	-1.330903	-0.961687
H150	H	-0.384853	-1.243381	-1.015514
H151	H	-0.433242	-1.252366	-0.927565
H152	H	-0.459362	-1.340596	-1.074042
H153	H	-0.507757	-1.349601	-0.986088
H154	H	-0.663713	-1.001345	-1.196368
H155	H	-1.306017	-1.052310	-0.441066
H156	H	-1.241390	-1.009366	-0.380114
H157	H	-1.010662	-0.921747	-0.255700
H158	H	-0.870378	-0.947645	-0.292559
H159	H	-0.992491	-1.147866	-0.576939
C160	C	-1.242380	-1.211148	-0.798484
C161	C	-1.216708	-1.249872	-0.721783
H162	H	-1.226884	-1.245398	-0.847164
H163	H	-1.296227	-1.207843	-0.793744
H164	H	-1.221425	-1.153946	-0.806569
H165	H	-1.237667	-1.307073	-0.713695
H166	H	-1.162850	-1.253188	-0.726523
H167	H	-0.587543	-1.127875	-0.838148
