data_functionalizedCrystal
_audit_creation_method	'MofGen! by Chris Wilmer'
_symmetry_space_group_name_H-M	'P1'
_symmetry_Int_Tables_number	1
_symmetry_cell_setting	triclinic
loop_
_symmetry_equiv_pos_as_xyz
  x,y,z
_cell_length_a	13.032831
_cell_length_b	16.959454
_cell_length_c	13.034296
_cell_angle_alpha	82.791768
_cell_angle_beta	74.814550
_cell_angle_gamma	82.825094
loop_
_atom_site_label
_atom_site_type_symbol
_atom_site_fract_x
_atom_site_fract_y
_atom_site_fract_z
Zn1	Zn	1.700179	-0.400710	-0.806474
Zn2	Zn	1.677485	-0.547792	-0.628852
Zn3	Zn	1.499982	-0.400717	-0.606355
Zn4	Zn	1.522518	-0.517929	-0.783904
O5	O	1.600041	-0.466787	-0.706396
O6	O	1.845806	-0.432716	-0.801772
O7	O	1.635010	-0.540783	-0.477227
O8	O	1.526605	-0.290109	-0.632931
O9	O	1.829133	-0.540776	-0.671274
O10	O	1.673689	-0.290104	-0.779958
O11	O	1.504600	-0.432728	-0.460699
O12	O	1.354334	-0.403771	-0.611046
O13	O	1.565014	-0.489879	-0.935538
O14	O	1.370891	-0.489886	-0.741491
O15	O	1.695541	-0.403759	-0.952120
O16	O	1.656862	-0.654438	-0.649390
O17	O	1.543008	-0.632497	-0.763306
C18	C	1.324073	-0.443589	-0.671379
C19	C	1.206015	-0.433682	-0.656424
C20	C	1.161589	-0.471958	-0.714201
C21	C	1.039571	-0.461719	-0.698746
C22	C	1.599950	-0.672147	-0.706367
C23	C	1.600012	-0.760007	-0.706402
C24	C	1.540855	-1.120100	-0.765717
C25	C	1.659537	-1.142887	-0.647220
C26	C	1.659498	-1.060338	-0.647206
C27	C	1.600136	-1.007667	-0.706447
C28	C	1.540812	-1.037544	-0.765702
C29	C	1.718813	-1.030455	-0.587943
C30	C	1.718776	-0.947903	-0.587925
C31	C	1.659419	-0.895229	-0.647173
C32	C	1.600094	-0.925111	-0.706432
C33	C	1.540731	-0.872439	-0.765673
C34	C	1.481411	-0.902319	-0.824938
C35	C	1.481456	-0.984871	-0.824950
C36	C	1.659375	-0.812678	-0.647161
C37	C	1.540689	-0.789883	-0.765657
C38	C	1.877087	-0.490076	-0.741550
C39	C	1.995148	-0.500000	-0.756531
C40	C	1.635323	-0.443487	-0.983448
C41	C	1.650358	-0.433557	-1.101510
C42	C	1.600165	-0.260625	-0.706453
C43	C	1.600217	-0.172771	-0.706477
C44	C	1.592478	-0.471741	-1.145942
C45	C	1.608016	-0.461480	-1.267966
C46	C	1.564958	-0.489945	-0.430430
C47	C	1.550129	-0.499669	-0.312394
H48	H	1.213888	-0.512304	-0.775112
H49	H	1.531427	-0.512032	-1.093645
H50	H	1.047443	-0.540348	-0.817449
F51	F	1.730169	-0.380902	-1.169863
F52	F	1.137663	-0.380936	-0.576817
H53	H	1.433159	-1.009207	-0.873199
H54	H	1.492353	-0.747002	-0.813903
F55	F	1.418231	-0.846253	-0.887979
H56	H	1.489073	-0.539962	-1.260101
H57	H	0.987276	-0.421363	-0.637838
F58	F	1.781990	-1.086515	-0.524904
F59	F	1.687832	-0.408822	-1.336316
H60	H	1.492562	-1.144432	-0.813973
H61	H	1.707860	-1.185776	-0.598982
H62	H	1.767078	-0.923580	-0.539670
H63	H	1.707666	-0.788353	-0.598902
