data_functionalizedCrystal
_audit_creation_method	'MofGen! by Chris Wilmer'
_symmetry_space_group_name_H-M	'P1'
_symmetry_Int_Tables_number	1
_symmetry_cell_setting	triclinic
loop_
_symmetry_equiv_pos_as_xyz
  x,y,z
_cell_length_a	14.971486
_cell_length_b	14.971494
_cell_length_c	13.448316
_cell_angle_alpha	89.995115
_cell_angle_beta	89.998199
_cell_angle_gamma	83.615843
loop_
_atom_site_label
_atom_site_type_symbol
_atom_site_fract_x
_atom_site_fract_y
_atom_site_fract_z
O1	O	1.186951	0.116564	-0.082574
O2	O	1.686951	0.616564	0.417426
O3	O	0.926551	0.130523	-0.082600
O4	O	1.426551	0.630523	0.417400
O5	O	1.063726	-0.006656	-0.082584
O6	O	1.563726	0.493344	0.417416
O7	O	1.049776	0.253743	-0.082590
O8	O	1.549776	0.753743	0.417410
O9	O	1.063709	-0.006664	0.082800
O10	O	1.563709	0.493336	0.582800
O11	O	0.926534	0.130515	0.082784
O12	O	1.426534	0.630515	0.582784
O13	O	1.186934	0.116556	0.082810
O14	O	1.686934	0.616556	0.582810
Cu15	Cu	1.056732	0.123534	0.097898
Cu16	Cu	1.556732	0.623534	0.597898
Cu17	Cu	1.056753	0.123544	-0.097688
Cu18	Cu	1.556753	0.623544	0.402312
O19	O	1.049758	0.253735	0.082794
O20	O	1.549758	0.753735	0.582794
C21	C	0.893218	0.129895	0.000088
C22	C	1.393218	0.629895	0.500088
C23	C	0.793921	0.128024	0.000078
C24	C	1.293921	0.628024	0.500078
C25	C	0.736698	0.208613	0.000078
C26	C	1.236698	0.708613	0.500078
C27	C	0.643398	0.206850	0.000092
C28	C	1.143398	0.706850	0.500092
C29	C	0.607323	0.124497	0.000101
C30	C	1.107323	0.624497	0.500101
C31	C	0.664554	0.043902	0.000104
C32	C	1.164554	0.543902	0.500104
C33	C	0.757851	0.045666	0.000096
C34	C	1.257851	0.545666	0.500096
C35	C	0.470091	0.040231	0.000118
C36	C	0.970091	0.540231	0.500118
C37	C	0.376787	0.038466	0.000124
C38	C	0.876787	0.538466	0.500124
C39	C	0.355638	0.201415	0.000114
C40	C	0.855638	0.701415	0.500114
C41	C	0.448936	0.203179	0.000106
C42	C	0.948936	0.703179	0.500106
C43	C	0.506160	0.122583	0.000108
C44	C	1.006160	0.622583	0.500108
C45	C	1.063093	-0.039985	0.000106
C46	C	1.563093	0.460015	0.500106
C47	C	1.061219	-0.139281	0.000102
C48	C	1.561219	0.360719	0.500102
C49	C	1.060350	-0.185921	-0.090050
C50	C	1.560350	0.314079	0.409950
C51	C	1.058584	-0.279221	-0.090052
C52	C	1.558584	0.220779	0.409948
C53	C	1.057693	-0.325879	0.000100
C54	C	1.557693	0.174121	0.500100
C55	C	1.058559	-0.279232	0.090259
C56	C	1.558559	0.220768	0.590259
C57	C	1.060319	-0.185933	0.090259
C58	C	1.560319	0.314067	0.590259
C59	C	1.054893	-0.473695	0.090252
C60	C	1.554893	0.026305	0.590252
C61	C	1.053135	-0.567000	0.090252
C62	C	1.553135	-0.067000	0.590252
C63	C	1.053158	-0.566982	-0.090059
C64	C	1.553158	-0.066982	0.409941
C65	C	1.054918	-0.473684	-0.090059
C66	C	1.554918	0.026316	0.409941
C67	C	1.055786	-0.427043	0.000100
C68	C	1.555786	0.072957	0.500100
C69	C	1.220267	0.117184	0.000120
C70	C	1.720267	0.617184	0.500120
C71	C	1.319564	0.119055	0.000123
C72	C	1.819564	0.619055	0.500123
C73	C	1.050392	0.287064	0.000101
C74	C	1.550392	0.787064	0.500101
C75	C	1.052266	0.386360	0.000100
C76	C	1.552266	0.886360	0.500100
N77	N	1.056724	0.123527	0.235462
N78	N	1.556724	0.623527	0.735462
N79	N	1.056768	0.123545	-0.235252
N80	N	1.556768	0.623545	0.264748
C81	C	1.117484	0.062809	0.287510
C82	C	1.617484	0.562809	0.787510
C83	C	1.117490	0.062808	0.391613
C84	C	1.617490	0.562808	0.891613
C85	C	1.056739	0.123530	0.443667
C86	C	1.556739	0.623530	0.943667
C87	C	0.995973	0.184251	0.391612
C88	C	1.495973	0.684251	0.891612
C89	C	0.995963	0.184247	0.287510
C90	C	1.495963	0.684247	0.787510
C91	C	0.995997	0.184257	0.608592
C92	C	1.495997	0.684257	1.108592
C93	C	0.996007	0.184263	0.712700
C94	C	1.496007	0.684263	1.212700
C95	C	1.117524	0.062819	0.712694
C96	C	1.617524	0.562819	1.212694
C97	C	1.117515	0.062814	0.608593
C98	C	1.617515	0.562814	1.108593
C99	C	1.056749	0.123536	0.556545
C100	C	1.556749	0.623536	1.056545
H101	H	0.635174	-0.023152	0.000125
H102	H	1.135174	0.476848	0.500125
H103	H	1.052402	-0.604985	0.163661
H104	H	1.552402	-0.104985	0.663661
H105	H	0.804442	-0.019958	0.000096
H106	H	1.304442	0.480042	0.500096
F107	F	1.061242	-0.136296	0.186211
F108	F	1.561242	0.363704	0.686211
H109	H	1.061080	-0.147940	-0.163463
H110	H	1.561080	0.352060	0.336537
F111	F	0.530991	-0.045549	0.000123
F112	F	1.030991	0.454451	0.500123
H113	H	0.946503	0.233689	0.434000
H114	H	1.446503	0.733689	0.934000
F115	F	0.582501	0.292624	0.000088
F116	F	1.082501	0.792624	0.500088
F117	F	1.055818	-0.424059	0.186210
F118	F	1.555818	0.075941	0.686210
H119	H	1.052449	-0.604961	-0.163470
H120	H	1.552449	-0.104961	0.336530
H121	H	0.946512	0.233701	0.566218
H122	H	1.446512	0.733701	1.066218
H123	H	0.946485	0.233688	0.245134
H124	H	1.446485	0.733688	0.745134
F125	F	0.775082	0.296265	0.000062
F126	F	1.275082	0.796265	0.500062
H127	H	0.478304	0.270238	0.000090
H128	H	0.978304	0.770238	0.500090
H129	H	0.946537	0.233708	0.755077
H130	H	1.446537	0.733708	1.255077
F131	F	0.294735	0.287191	0.000114
F132	F	0.794735	0.787191	0.500114
F133	F	1.057601	-0.328890	0.186205
F134	F	1.557601	0.171110	0.686205
H135	H	0.347418	-0.028593	0.000132
H136	H	0.847418	0.471407	0.500132
F137	F	1.057660	-0.328854	-0.186004
F138	F	1.557660	0.171146	0.313996
H139	H	1.167001	0.013377	0.755078
H140	H	1.667001	0.513377	1.255078
H141	H	1.166959	0.013366	0.245134
H142	H	1.666959	0.513366	0.745134
F143	F	1.055874	-0.424029	-0.186008
F144	F	1.555874	0.075971	0.313992
H145	H	1.166965	0.013367	0.433990
H146	H	1.666965	0.513367	0.933990
H147	H	1.166987	0.013374	0.566211
H148	H	1.666987	0.513374	1.066211
