data_functionalizedCrystal
_audit_creation_method	'MofGen! by Chris Wilmer'
_symmetry_space_group_name_H-M	'P1'
_symmetry_Int_Tables_number	1
_symmetry_cell_setting	triclinic
loop_
_symmetry_equiv_pos_as_xyz
  x,y,z
_cell_length_a	17.640280
_cell_length_b	17.639054
_cell_length_c	17.639145
_cell_angle_alpha	87.862748
_cell_angle_beta	109.635155
_cell_angle_gamma	87.823438
loop_
_atom_site_label
_atom_site_type_symbol
_atom_site_fract_x
_atom_site_fract_y
_atom_site_fract_z
Zn1	Zn	0.035798	1.065742	0.670080
Zn2	Zn	0.535798	1.565742	1.170080
Zn3	Zn	-0.114452	1.126459	0.519860
Zn4	Zn	0.385548	1.626459	1.019860
Zn5	Zn	-0.014703	0.976242	0.509583
Zn6	Zn	0.485297	1.476242	1.009583
Zn7	Zn	-0.124622	0.976210	0.619506
Zn8	Zn	0.375378	1.476210	1.119506
O9	O	-0.054495	1.036163	0.579757
O10	O	0.445505	1.536163	1.079757
O11	O	0.041258	1.174133	0.675620
O12	O	0.541258	1.674133	1.175620
O13	O	-0.118099	1.131955	0.409625
O14	O	0.381901	1.631955	0.909625
O15	O	0.100878	0.962717	0.547738
O16	O	0.600878	1.462717	1.047738
O17	O	-0.069130	1.218740	0.565253
O18	O	0.430870	1.718740	1.065253
O19	O	0.137981	1.028473	0.665654
O20	O	0.637981	1.528473	1.165654
O21	O	-0.044814	1.021591	0.402075
O22	O	0.455186	1.521591	0.902075
O23	O	-0.054676	0.875901	0.498698
O24	O	0.445324	1.375901	0.998698
O25	O	-0.086464	0.962664	0.735086
O26	O	0.413536	1.462664	1.235086
O27	O	-0.135433	0.875878	0.579458
O28	O	0.364567	1.375878	1.079458
O29	O	0.031397	1.028443	0.772242
O30	O	0.531397	1.528443	1.272242
O31	O	-0.224683	1.131925	0.516213
O32	O	0.275317	1.631925	1.016213
O33	O	-0.232155	1.021538	0.589423
O34	O	0.267845	1.521538	1.089423
C35	C	-0.101638	0.849874	0.532475
C36	C	0.398362	1.349874	1.032475
C37	C	-0.121822	0.770179	0.512263
C38	C	0.378178	1.270179	1.012263
C39	C	-0.207674	0.681074	0.426254
C40	C	0.292326	1.181074	0.926254
C41	C	-0.188701	0.755957	0.445253
C42	C	0.311299	1.255957	0.945253
C43	C	-0.073892	0.709516	0.560304
C44	C	0.426108	1.209516	1.060304
C45	C	-0.092857	0.634628	0.541317
C46	C	0.407143	1.134628	1.041317
C47	C	-0.159749	0.620413	0.474290
C48	C	0.340251	1.120413	0.974290
C49	C	-0.044932	0.573967	0.589353
C50	C	0.455068	1.073967	1.089353
C51	C	-0.063894	0.499085	0.570365
C52	C	0.436106	0.999085	1.070365
C53	C	-0.130781	0.484864	0.503341
C54	C	0.369219	0.984864	1.003341
C55	C	-0.178710	0.545531	0.455302
C56	C	0.321290	1.045531	0.955302
C57	C	0.021962	0.588183	0.656376
C58	C	0.521962	1.088183	1.156376
C59	C	0.069888	0.527523	0.704413
C60	C	0.569888	1.027523	1.204413
C61	C	0.050923	0.452639	0.685428
C62	C	0.550923	0.952639	1.185428
C63	C	-0.015964	0.438418	0.618404
C64	C	0.484036	0.938418	1.118404
C65	C	0.098853	0.391972	0.733466
C66	C	0.598853	0.891972	1.233466
C67	C	0.079891	0.317090	0.714478
C68	C	0.579891	0.817090	1.214478
C69	C	-0.034926	0.363536	0.599415
C70	C	0.465074	0.863536	1.099415
C71	C	-0.256644	1.083332	0.548467
C72	C	0.243356	1.583332	1.048467
C73	C	-0.343103	1.103570	0.535124
C74	C	0.156897	1.603570	1.035124
C75	C	-0.647140	0.882642	0.681482
C76	C	-0.147140	1.382642	1.181482
C77	C	-0.728385	0.901666	0.668920
C78	C	-0.228385	1.401666	1.168920
C79	C	-0.720509	1.016645	0.592802
C80	C	-0.220509	1.516645	1.092802
C81	C	-0.639260	0.997633	0.605361
C82	C	-0.139260	1.497633	1.105361
C83	C	-0.602583	0.930630	0.649701
C84	C	-0.102583	1.430630	1.149701
C85	C	-0.594703	1.045620	0.573580
C86	C	-0.094703	1.545620	1.073580
C87	C	-0.513463	1.026607	0.586135
C88	C	-0.013463	1.526607	1.086135
C89	C	-0.476780	0.959606	0.630471
C90	C	0.023220	1.459606	1.130471
C91	C	-0.521342	0.911616	0.662256
C92	C	-0.021342	1.411616	1.162256
C93	C	-0.631384	1.112620	0.529235
C94	C	-0.131384	1.612620	1.029235
C95	C	-0.586827	1.160608	0.497454
C96	C	-0.086827	1.660608	0.997454
C97	C	-0.505584	1.141597	0.510014
C98	C	-0.005584	1.641597	1.010014
C99	C	-0.468900	1.074596	0.554350
C100	C	0.031100	1.574596	1.054350
C101	C	-0.461021	1.189587	0.478229
C102	C	0.038979	1.689587	0.978229
C103	C	-0.379781	1.170573	0.490784
C104	C	0.120219	1.670573	0.990784
C105	C	-0.387660	1.055583	0.566905
C106	C	0.112340	1.555583	1.066905
C107	C	0.148450	0.988826	0.611191
C108	C	0.648450	1.488826	1.111191
C109	C	0.234934	0.968654	0.624586
C110	C	0.734934	1.468654	1.124586
C111	C	-0.023035	0.988777	0.782682
C112	C	0.476965	1.488777	1.282682
C113	C	-0.009628	0.968584	0.869157
C114	C	0.490372	1.468584	1.369157
C115	C	-0.007168	1.223180	0.627224
C116	C	0.492832	1.723180	1.127224
C117	C	0.012999	1.302875	0.647452
C118	C	0.512999	1.802875	1.147452
C119	C	-0.156313	1.189485	1.173195
C120	C	0.343687	1.689485	1.673195
C121	C	-0.143709	1.170499	1.254450
C122	C	0.356291	1.670499	1.754450
C123	C	-0.067402	1.055585	1.246588
C124	C	0.432598	1.555585	1.746588
C125	C	-0.080003	1.074559	1.165329
C126	C	0.419997	1.574559	1.665329
C127	C	-0.124459	1.141510	1.128640
C128	C	0.375541	1.641510	1.628640
C129	C	-0.048149	1.026585	1.120774
C130	C	0.451851	1.526585	1.620774
C131	C	-0.060745	1.045560	1.039523
C132	C	0.439255	1.545560	1.539523
C133	C	-0.105196	1.112509	1.002829
C134	C	0.394804	1.612509	1.502829
C135	C	-0.137055	1.160485	1.047390
C136	C	0.362945	1.660485	1.547390
C137	C	-0.003689	0.959636	1.157466
C138	C	0.496311	1.459636	1.657466
C139	C	0.028166	0.911662	1.112911
C140	C	0.528166	1.411662	1.612911
C141	C	0.015565	0.930634	1.031657
C142	C	0.515565	1.430634	1.531657
C143	C	-0.028886	0.997583	0.994963
C144	C	0.471114	1.497583	1.494963
C145	C	0.047424	0.882658	0.987097
C146	C	0.547424	1.382658	1.487097
C147	C	0.034827	0.901633	0.905846
C148	C	0.534827	1.401633	1.405846
C149	C	-0.041483	1.016558	0.913712
C150	C	0.458517	1.516558	1.413712
C151	C	-0.085853	1.083365	1.377617
C152	C	0.414147	1.583365	1.877617
C153	C	-0.099261	1.103564	1.291143
C154	C	0.400739	1.603564	1.791143
H155	H	-0.146208	0.423889	0.487872
H156	H	0.353792	0.923889	0.987872
H157	H	-0.262149	0.669500	0.371680
H158	H	0.237851	1.169500	0.871680
O159	O	0.069184	0.849887	0.857787
O160	O	0.569184	1.349887	1.357787
H161	H	0.111159	0.881389	0.835056
H162	H	0.611159	1.381389	1.335056
H163	H	0.083626	0.828150	1.016984
H164	H	0.583626	1.328150	1.516984
H165	H	-0.192504	1.244008	1.143324
H166	H	0.307496	1.744008	1.643324
H167	H	0.153320	0.403558	0.788035
H168	H	0.653320	0.903558	1.288035
H169	H	-0.697535	1.128100	0.519017
H170	H	-0.197535	1.628100	1.019017
H171	H	0.064364	0.857152	1.142795
H172	H	0.564364	1.357152	1.642795
O173	O	-0.250858	0.530188	0.383010
O174	O	0.249142	1.030188	0.883010
H175	H	-0.281001	0.584949	0.352792
H176	H	0.218999	1.084949	0.852792
O177	O	0.142035	0.542859	0.776700
O178	O	0.642035	1.042859	1.276700
H179	H	0.134424	0.517382	0.832016
H180	H	0.634424	1.017382	1.332016
H181	H	-0.115449	1.127959	0.936670
H182	H	0.384551	1.627959	1.436670
H183	H	-0.227733	0.805348	0.406130
H184	H	0.272267	1.305348	0.906130
O185	O	-0.107072	0.348194	0.527121
O186	O	0.392928	0.848194	1.027121
H187	H	-0.162465	0.373736	0.534548
H188	H	0.337535	0.873736	1.034548
H189	H	-0.169651	1.209572	1.290726
H190	H	0.330349	1.709572	1.790726
O191	O	-0.331712	1.222346	0.456530
O192	O	0.168288	1.722346	0.956530
H193	H	-0.269059	1.197867	0.472712
H194	H	0.230941	1.697867	0.972712
H195	H	-0.357794	1.001026	0.603018
H196	H	0.142206	1.501026	1.103018
O197	O	-0.001749	0.724856	0.632594
O198	O	0.498251	1.224856	1.132594
H199	H	0.053643	0.699317	0.625160
H200	H	0.553643	1.199317	1.125160
O201	O	-0.089430	1.088772	0.874133
O202	O	0.410570	1.588772	1.374133
H203	H	-0.151191	1.087080	0.877149
H204	H	0.348809	1.587080	1.377149
H205	H	-0.173246	1.215009	1.017518
H206	H	0.326754	1.715009	1.517518
O207	O	-0.019437	0.983385	1.286166
O208	O	0.480563	1.483385	1.786166
H209	H	-0.016024	0.978251	1.350152
H210	H	0.483976	1.478251	1.850152
H211	H	0.006570	0.944192	1.223627
H212	H	0.506570	1.444192	1.723627
H213	H	0.037401	0.649158	0.671831
H214	H	0.537401	1.149158	1.171831
H215	H	-0.410631	0.944122	0.640686
H216	H	0.089369	1.444122	1.140686
O217	O	-0.481771	0.839348	0.710080
O218	O	0.018229	1.339348	1.210080
H219	H	-0.526402	0.809168	0.730071
H220	H	-0.026402	1.309168	1.230071
O221	O	0.131574	0.251655	0.766288
O222	O	0.631574	0.751655	1.266288
H223	H	0.181267	0.274120	0.816091
H224	H	0.681267	0.774120	1.316091
H225	H	-0.617273	0.828085	0.717595
H226	H	-0.117273	1.328085	1.217595
H227	H	-0.764657	0.862590	0.694814
H228	H	-0.264657	1.362590	1.194814
H229	H	-0.750384	1.071198	0.556697
H230	H	-0.250384	1.571198	1.056697
H231	H	-0.490899	1.244137	0.442121
H232	H	0.009101	1.744137	0.942121
O233	O	-0.626379	1.232888	0.449658
O234	O	-0.126379	1.732888	0.949658
H235	H	-0.690353	1.238056	0.446278
H236	H	-0.190353	1.738056	0.946278
