data_functionalizedCrystal
_audit_creation_method	'MofGen! by Chris Wilmer'
_symmetry_space_group_name_H-M	'P1'
_symmetry_Int_Tables_number	1
_symmetry_cell_setting	triclinic
loop_
_symmetry_equiv_pos_as_xyz
  x,y,z
_cell_length_a	21.395362
_cell_length_b	11.169416
_cell_length_c	11.169409
_cell_angle_alpha	89.972028
_cell_angle_beta	90.043300
_cell_angle_gamma	89.971030
loop_
_atom_site_label
_atom_site_type_symbol
_atom_site_fract_x
_atom_site_fract_y
_atom_site_fract_z
Zn1	Zn	0.957932	0.477202	0.679307
Zn2	Zn	0.957868	0.677942	0.478639
Zn3	Zn	0.853148	0.477327	0.478562
Zn4	Zn	0.853149	0.677897	0.679204
O5	O	0.905524	0.577592	0.578928
O6	O	1.045602	0.503797	0.652763
O7	O	0.943950	0.651401	0.310679
O8	O	0.867075	0.309361	0.505202
O9	O	1.045555	0.651280	0.505333
O10	O	0.944059	0.309269	0.652688
O11	O	0.867013	0.504011	0.310622
O12	O	0.765470	0.503967	0.505102
O13	O	0.867075	0.651203	0.847168
O14	O	0.765471	0.651325	0.652513
O15	O	0.944059	0.503753	0.847243
O16	O	0.943950	0.845886	0.505234
O17	O	0.867013	0.845853	0.652588
C18	C	0.742737	0.577656	0.578789
C19	C	0.673095	0.577712	0.578758
C20	C	0.640399	0.654543	0.655400
C21	C	0.574963	0.654513	0.655453
C22	C	0.542227	0.577665	0.578843
C23	C	0.574932	0.500819	0.502196
C24	C	0.640366	0.500843	0.502153
C25	C	0.438501	0.568034	0.470795
C26	C	0.373069	0.568020	0.470836
C27	C	0.340406	0.577587	0.578976
C28	C	0.373185	0.587194	0.687078
C29	C	0.438619	0.587217	0.687035
C30	C	0.471275	0.577631	0.578882
C31	C	0.236757	0.654390	0.655682
C32	C	0.171321	0.654352	0.655738
C33	C	0.171290	0.500665	0.502469
C34	C	0.236726	0.500696	0.502425
C35	C	0.269455	0.577565	0.579029
C36	C	0.905492	0.889417	0.578934
C37	C	0.905535	1.022817	0.578977
C38	C	1.068948	0.577529	0.579068
C39	C	1.138589	0.577502	0.579128
C40	C	0.905575	0.577459	0.891971
C41	C	0.905596	0.577402	1.025371
C42	C	0.905568	1.264550	0.578960
C43	C	0.905570	1.131150	0.579006
C44	C	0.905510	0.577638	0.267103
C45	C	0.905610	0.577356	0.133704
H46	H	0.667043	0.717134	0.717779
H47	H	0.666987	0.438274	0.439741
O48	O	0.543290	0.729258	0.729950
C49	C	0.586209	0.797078	0.797583
H50	H	0.632824	0.801204	0.748388
H51	H	0.593238	0.753231	0.888799
C52	C	0.503377	0.919751	0.875116
C53	C	0.560628	0.924827	0.814690
H54	H	0.487597	0.998551	0.885675
H55	H	0.474461	0.874057	0.829555
H56	H	0.509242	0.883206	0.951124
H57	H	0.554762	0.961357	0.738679
H58	H	0.589543	0.970530	0.860239
H59	H	0.548274	0.438247	0.439822
O60	O	0.341206	0.558914	0.365839
C61	C	0.303305	0.661048	0.350244
H62	H	0.323028	0.738289	0.405192
H63	H	0.253736	0.640389	0.381383
C64	C	0.277996	0.601309	0.149434
C65	C	0.302224	0.696182	0.216914
H66	H	0.277326	0.622979	0.067190
H67	H	0.303528	0.532497	0.159941
H68	H	0.236690	0.584103	0.175397
H69	H	0.343531	0.713376	0.190961
H70	H	0.276698	0.764998	0.206399
H71	H	0.465305	0.595037	0.775056
H72	H	0.346593	0.594983	0.775136
H73	H	0.144700	0.716915	0.718156
O74	O	0.139401	0.426156	0.428059
C75	C	0.074635	0.442599	0.444538
H76	H	0.065691	0.535246	0.483742
H77	H	0.056117	0.371452	0.508539
C78	C	0.051970	0.317728	0.274977
C79	C	0.040985	0.431523	0.323118
H80	H	0.031212	0.310891	0.200081
H81	H	0.095604	0.306646	0.263876
H82	H	0.036538	0.258451	0.328322
H83	H	0.056424	0.490797	0.269780
H84	H	-0.002648	0.442616	0.334207
H85	H	0.263347	0.438138	0.440008
O86	O	0.268459	0.729082	0.730217
C87	C	0.225564	0.796903	0.797867
H88	H	0.178941	0.747730	0.802131
H89	H	0.218545	0.888005	0.753781
C90	C	0.308433	0.874740	0.920320
C91	C	0.251171	0.814340	0.925566
H92	H	0.324229	0.885503	0.999089
H93	H	0.337333	0.829053	0.874741
H94	H	0.302577	0.950653	0.883576
H95	H	0.257030	0.738425	0.962295
H96	H	0.222274	0.860016	0.971154
H97	H	0.465089	0.560238	0.382729
