data_functionalizedCrystal
_audit_creation_method	'MofGen! by Chris Wilmer'
_symmetry_space_group_name_H-M	'P1'
_symmetry_Int_Tables_number	1
_symmetry_cell_setting	triclinic
loop_
_symmetry_equiv_pos_as_xyz
  x,y,z
_cell_length_a	14.519709
_cell_length_b	14.519731
_cell_length_c	9.130313
_cell_angle_alpha	89.997760
_cell_angle_beta	90.005376
_cell_angle_gamma	83.684499
loop_
_atom_site_label
_atom_site_type_symbol
_atom_site_fract_x
_atom_site_fract_y
_atom_site_fract_z
O1	O	1.223872	0.120886	-0.121612
O2	O	0.955396	0.135122	-0.121657
O3	O	1.096742	-0.006233	-0.121620
O4	O	1.082526	0.262241	-0.121649
O5	O	1.096740	-0.006229	0.121979
O6	O	0.955394	0.135126	0.121942
O7	O	1.223870	0.120890	0.121987
Cu8	Cu	1.089632	0.128008	0.144207
Cu9	Cu	1.089634	0.128004	-0.143877
O10	O	1.082524	0.262245	0.121950
C11	C	0.921035	0.134461	0.000137
C12	C	0.818654	0.132473	0.000120
C13	C	0.443757	0.125153	0.000187
C14	C	0.548065	0.127186	0.000168
C15	C	0.631202	0.128813	0.000152
C16	C	0.735517	0.130846	0.000136
C17	C	1.096075	-0.040591	0.000180
C18	C	1.094079	-0.142971	0.000180
C19	C	1.092457	-0.226115	0.000176
C20	C	1.090430	-0.330424	0.000165
C21	C	1.088822	-0.413563	0.000155
C22	C	1.086795	-0.517878	0.000146
C23	C	1.258230	0.121551	0.000190
C24	C	1.360612	0.123539	0.000197
C25	C	1.083191	0.296603	0.000147
C26	C	1.085187	0.398983	0.000137
N27	N	1.089637	0.128011	0.346829
N28	N	1.089636	0.127994	-0.346500
C29	C	1.152241	0.065440	0.423498
C30	C	1.152238	0.065429	0.576835
C31	C	1.027025	0.190568	0.576821
C32	C	1.027024	0.190574	0.423487
C33	C	1.214854	0.002877	0.346840
C34	C	1.277464	-0.059698	0.423509
C35	C	1.277461	-0.059709	0.576846
C36	C	1.214849	0.002855	0.653514
H37	H	1.214863	0.002882	0.221986
H38	H	1.328435	-0.110641	0.361078
H39	H	1.328434	-0.110666	0.639268
Cl40	Cl	1.214843	0.002829	0.846282
H41	H	0.976050	0.241506	0.639254
H42	H	0.976045	0.241524	0.361063
