data_functionalizedCrystal
_audit_creation_method	'MofGen! by Chris Wilmer'
_symmetry_space_group_name_H-M	'P1'
_symmetry_Int_Tables_number	1
_symmetry_cell_setting	triclinic
loop_
_symmetry_equiv_pos_as_xyz
  x,y,z
_cell_length_a	12.759400
_cell_length_b	12.594517
_cell_length_c	12.759393
_cell_angle_alpha	90.014978
_cell_angle_beta	90.031169
_cell_angle_gamma	90.014373
loop_
_atom_site_label
_atom_site_type_symbol
_atom_site_fract_x
_atom_site_fract_y
_atom_site_fract_z
Zn1	Zn	-0.418206	1.627286	0.593886
Zn2	Zn	0.081794	2.127286	1.093886
Zn3	Zn	-0.593924	1.627180	0.418207
Zn4	Zn	-0.093924	2.127180	0.918207
Zn5	Zn	-0.418260	1.449288	0.418236
Zn6	Zn	0.081740	1.949288	0.918236
Zn7	Zn	-0.593843	1.449277	0.593859
Zn8	Zn	-0.093843	1.949277	1.093859
O9	O	-0.506058	1.538258	0.506047
O10	O	-0.006058	2.038258	1.006047
O11	O	-0.441526	1.776218	0.570580
O12	O	0.058474	2.276218	1.070580
O13	O	-0.570679	1.603542	0.271190
O14	O	-0.070679	2.103542	0.771190
O15	O	-0.271232	1.472949	0.441559
O16	O	0.228768	1.972949	0.941559
O17	O	-0.570626	1.776140	0.441510
O18	O	-0.070626	2.276140	0.941510
O19	O	-0.271192	1.603723	0.570608
O20	O	0.228808	2.103723	1.070608
O21	O	-0.441619	1.472846	0.271211
O22	O	0.058381	1.972846	0.771211
O23	O	-0.441540	1.300341	0.441534
O24	O	0.058460	1.800341	0.941534
O25	O	-0.570487	1.472930	0.740884
O26	O	-0.070487	1.972930	1.240884
O27	O	-0.570540	1.300333	0.570563
O28	O	-0.070540	1.800333	1.070563
O29	O	-0.441447	1.603713	0.740903
O30	O	0.058553	2.103713	1.240903
O31	O	-0.740935	1.603532	0.441484
O32	O	-0.240935	2.103532	0.941484
O33	O	-0.740875	1.472828	0.570535
O34	O	-0.240875	1.972828	1.070535
C35	C	-0.506038	1.261717	0.506049
C36	C	-0.006038	1.761717	1.006049
C37	C	-0.506055	1.143411	0.506075
C38	C	-0.006055	1.643411	1.006075
C39	C	-0.779026	1.538196	0.506027
C40	C	-0.279026	2.038196	1.006027
C41	C	-0.895802	1.538267	0.506053
C42	C	-0.395802	2.038267	1.006053
C43	C	-0.576345	1.003421	0.576125
C44	C	-0.076345	1.503421	1.076125
C45	C	-0.601923	1.074191	0.480238
C46	C	-0.101923	1.574191	0.980238
C47	C	-0.480523	1.074213	0.601951
C48	C	0.019477	1.574213	1.101951
C49	C	-0.531716	1.003396	0.410107
C50	C	-0.031716	1.503396	0.910107
C51	C	-0.410272	1.003411	0.531884
C52	C	0.089728	1.503411	1.031884
C53	C	-0.435814	1.074149	0.435932
C54	C	0.064186	1.574149	0.935932
C55	C	-1.060284	1.606386	0.573340
C56	C	-0.560284	2.106386	1.073340
C57	C	-0.950560	1.606329	0.573310
C58	C	-0.450560	2.106329	1.073310
C59	C	-0.950774	1.470265	0.438814
C60	C	-0.450774	1.970265	0.938814
C61	C	-1.060496	1.470329	0.438840
C62	C	-0.560496	1.970329	0.938840
C63	C	-1.115036	1.674445	0.640608
C64	C	-0.615036	2.174445	1.140608
C65	C	-1.060071	1.742448	0.707846
C66	C	-0.560071	2.242448	1.207846
C67	C	-0.950347	1.742391	0.707817
C68	C	-0.450347	2.242391	1.207817
C69	C	-0.895588	1.674330	0.640549
C70	C	-0.395588	2.174330	1.140549
C71	C	-0.232025	1.538349	0.506090
C72	C	0.267975	2.038349	1.006090
C73	C	-0.115248	1.538388	0.506108
C74	C	0.384752	2.038388	1.006108
C75	C	-0.505952	1.538332	0.780080
C76	C	-0.005952	2.038332	1.280080
C77	C	-0.505907	1.538364	0.896857
C78	C	-0.005907	2.038364	1.396857
C79	C	-0.506079	1.815879	0.506045
C80	C	-0.006079	2.315879	1.006045
C81	C	-0.506088	1.934184	0.506044
C82	C	-0.006088	2.434184	1.006044
C83	C	-0.506088	1.538245	0.233079
C84	C	-0.006088	2.038245	0.733079
C85	C	-0.505837	1.538419	0.116303
C86	C	-0.005837	2.038419	0.616303
C87	C	-0.438710	1.606472	0.951731
C88	C	0.061290	2.106472	1.451731
C89	C	-0.438672	1.606497	1.061455
C90	C	0.061328	2.106497	1.561455
C91	C	-0.573038	1.470304	1.061422
C92	C	-0.073038	1.970304	1.561422
C93	C	-0.573070	1.470274	0.951700
C94	C	-0.073070	1.970274	1.451700
C95	C	-0.371547	1.674562	0.896888
C96	C	0.128453	2.174562	1.396888
C97	C	-0.304345	1.742676	0.951762
C98	C	0.195655	2.242676	1.451762
C99	C	-0.304307	1.742701	1.061486
C100	C	0.195693	2.242701	1.561486
C101	C	-0.371471	1.674612	1.116337
C102	C	0.128529	2.174612	1.616337
H103	H	-0.635818	0.972366	0.635302
H104	H	-0.135818	1.472366	1.135302
H105	H	-0.682938	1.105281	0.458388
H106	H	-0.182938	1.605281	0.958388
O107	O	-0.891711	1.396863	0.366269
O108	O	-0.391711	1.896863	0.866269
H109	H	-0.948366	1.349596	0.319513
H110	H	-0.448366	1.849596	0.819513
O111	O	-1.119792	1.396984	0.366334
O112	O	-0.619792	1.896984	0.866334
H113	H	-1.063288	1.349635	0.319567
H114	H	-0.563288	1.849635	0.819567
O115	O	-1.233380	1.674588	0.640617
O116	O	-0.733380	2.174588	1.140617
H117	H	-1.262302	1.653076	0.719844
H118	H	-0.762302	2.153076	1.219844
O119	O	-0.371586	1.674527	0.778544
O120	O	0.128414	2.174527	1.278544
H121	H	-0.313591	1.733309	0.749624
H122	H	0.186409	2.233309	1.249624
O123	O	-0.231908	1.816116	0.892612
O124	O	0.268092	2.316116	1.392612
H125	H	-0.243230	1.804667	0.807096
H126	H	0.256770	2.304667	1.307096
H127	H	-0.249580	1.798155	1.106162
H128	H	0.250420	2.298155	1.606162
O129	O	-0.371415	1.674630	1.234683
O130	O	0.128585	2.174630	1.734683
H131	H	-0.429402	1.615839	1.263601
H132	H	0.070598	2.115839	1.763601
O133	O	-0.645480	1.396871	1.120574
O134	O	-0.145480	1.896871	1.620574
H135	H	-0.634174	1.408341	1.206090
H136	H	-0.134174	1.908341	1.706090
H137	H	-0.627772	1.414798	0.907020
H138	H	-0.127772	1.914798	1.407020
H139	H	-0.376386	1.105009	0.376612
H140	H	0.123614	1.605009	0.876612
O141	O	-0.560467	0.962380	0.302654
O142	O	-0.060467	1.462380	0.802654
H143	H	-0.560295	0.874255	0.303495
H144	H	-0.060295	1.374255	0.803495
H145	H	-1.104663	1.797866	0.762607
H146	H	-0.604663	2.297866	1.262607
H147	H	-0.329280	0.972297	0.553762
H148	H	0.170720	1.472297	1.053762
H149	H	-0.905596	1.797769	0.762557
H150	H	-0.405596	2.297769	1.262557
O151	O	-0.451879	1.115409	0.709366
O152	O	0.048121	1.615409	1.209366
H153	H	-0.510325	1.087066	0.767375
H154	H	-0.010325	1.587066	1.267375
H155	H	-0.806243	1.674297	0.640522
H156	H	-0.306243	2.174297	1.140522
