data_functionalizedCrystal
_audit_creation_method	'MofGen! by Chris Wilmer'
_symmetry_space_group_name_H-M	'P1'
_symmetry_Int_Tables_number	1
_symmetry_cell_setting	triclinic
loop_
_symmetry_equiv_pos_as_xyz
  x,y,z
_cell_length_a	25.639243
_cell_length_b	25.639240
_cell_length_c	16.120297
_cell_angle_alpha	87.138170
_cell_angle_beta	87.124435
_cell_angle_gamma	90.035481
loop_
_atom_site_label
_atom_site_type_symbol
_atom_site_fract_x
_atom_site_fract_y
_atom_site_fract_z
Zn1	Zn	0.784287	-0.223117	0.471380
Zn2	Zn	1.284287	0.276883	0.971380
Zn3	Zn	0.788644	-0.306116	0.331947
Zn4	Zn	1.288644	0.193884	0.831947
Zn5	Zn	0.701287	-0.218702	0.331979
Zn6	Zn	1.201287	0.281298	0.831979
Zn7	Zn	0.696820	-0.310525	0.471305
Zn8	Zn	1.196820	0.189475	0.971305
O9	O	0.742760	-0.264615	0.401653
O10	O	1.242760	0.235385	0.901653
O11	O	0.858029	-0.234129	0.452902
O12	O	1.358029	0.265871	0.952902
O13	O	0.780750	-0.290828	0.215289
O14	O	1.280750	0.209172	0.715289
O15	O	0.712343	-0.146124	0.350516
O16	O	1.212343	0.353876	0.850516
O17	O	0.861231	-0.295109	0.350461
O18	O	1.361231	0.204891	0.850461
O19	O	0.773323	-0.149367	0.452933
O20	O	1.273323	0.350633	0.952933
O21	O	0.716569	-0.226605	0.215313
O22	O	1.216569	0.273395	0.715313
O23	O	0.627530	-0.230880	0.350443
O24	O	1.127530	0.269120	0.850443
O25	O	0.704729	-0.302622	0.587976
O26	O	1.204729	0.197378	1.087976
O27	O	0.624248	-0.298341	0.452805
O28	O	1.124248	0.201659	0.952805
O29	O	0.768991	-0.238404	0.588032
O30	O	1.268991	0.261596	1.088032
O31	O	0.776418	-0.379865	0.350388
O32	O	1.276418	0.120135	0.850388
O33	O	0.708954	-0.383104	0.452774
O34	O	1.208954	0.116896	0.952774
C35	C	0.606918	-0.264610	0.401619
C36	C	1.106918	0.235390	0.901619
C37	C	0.548804	-0.264621	0.401625
C38	C	1.048804	0.235379	0.901625
C39	C	0.742688	-0.400455	0.401587
C40	C	1.242688	0.099545	0.901587
C41	C	0.742704	-0.458569	0.401587
C42	C	1.242704	0.041431	0.901587
C43	C	0.186764	-0.232918	0.455082
C44	C	0.686764	0.267082	0.955082
C45	C	0.132160	-0.232918	0.455088
C46	C	0.632160	0.267082	0.955088
O47	O	0.102499	-0.205952	0.500498
O48	O	0.602499	0.294048	1.000498
N49	N	0.106520	-0.264614	0.401675
N50	N	0.606520	0.235386	0.901675
C51	C	0.135487	-0.296308	0.348249
C52	C	0.635487	0.203692	0.848249
O53	O	0.108664	-0.323268	0.302817
O54	O	0.608664	0.176732	0.802817
C55	C	0.190091	-0.296306	0.348240
C56	C	0.690091	0.203694	0.848240
C57	C	0.215728	-0.264611	0.401662
C58	C	0.715728	0.235389	0.901662
C59	C	0.212402	-0.201226	0.508499
C60	C	0.712402	0.298774	1.008499
C61	C	0.267002	-0.201227	0.508495
C62	C	0.767002	0.298773	1.008495
C63	C	0.295966	-0.232920	0.455074
C64	C	0.795966	0.267080	0.955074
C65	C	0.270328	-0.264613	0.401657
C66	C	0.770328	0.235387	0.901657
C67	C	0.219057	-0.327997	0.294810
C68	C	0.719057	0.172003	0.794810
C69	C	0.273664	-0.327991	0.294805
C70	C	0.773664	0.172009	0.794805
C71	C	0.299301	-0.296297	0.348227
C72	C	0.799301	0.203703	0.848227
C73	C	0.353893	-0.296307	0.348232
C74	C	0.853893	0.203693	0.848232
N75	N	0.379533	-0.264611	0.401644
N76	N	0.879533	0.235389	0.901644
C77	C	0.350569	-0.232918	0.455065
C78	C	0.850569	0.267082	0.955065
C79	C	0.020816	-0.296311	0.348270
C80	C	0.520816	0.203689	0.848270
C81	C	-0.033787	-0.296317	0.348282
C82	C	0.466213	0.203683	0.848282
C83	C	-0.037110	-0.232926	0.455120
C84	C	0.462890	0.267074	0.955120
C85	C	0.017493	-0.232923	0.455112
C86	C	0.517493	0.267077	0.955112
C87	C	0.046456	-0.264615	0.401682
C88	C	0.546456	0.235385	0.901682
C89	C	0.465235	-0.232923	0.455053
C90	C	0.965235	0.267077	0.955053
C91	C	0.519840	-0.232928	0.455046
C92	C	1.019840	0.267072	0.955046
C93	C	0.523159	-0.296317	0.348205
C94	C	1.023159	0.203683	0.848205
C95	C	0.468558	-0.296314	0.348215
C96	C	0.968558	0.203686	0.848215
C97	C	0.439597	-0.264613	0.401641
C98	C	0.939597	0.235387	0.901641
O99	O	0.383587	-0.323258	0.302843
O100	O	0.883587	0.176742	0.802843
O101	O	0.377400	-0.205957	0.500481
O102	O	0.877400	0.294043	1.000481
C103	C	0.774525	-0.820588	0.455077
C104	C	1.274525	-0.320588	0.955077
C105	C	0.774540	-0.875193	0.455094
C106	C	1.274540	-0.375193	0.955094
O107	O	0.801510	-0.904835	0.500507
O108	O	1.301510	-0.404835	1.000507
N109	N	0.742830	-0.900856	0.401733
N110	N	1.242830	-0.400856	0.901733
C111	C	0.711098	-0.871912	0.348357
C112	C	1.211098	-0.371912	0.848357
O113	O	0.684127	-0.898755	0.302972
O114	O	1.184127	-0.398755	0.802972
C115	C	0.711081	-0.817309	0.348345
C116	C	1.211081	-0.317309	0.848345
C117	C	0.742797	-0.791648	0.401704
C118	C	1.242797	-0.291648	0.901704
C119	C	0.806239	-0.794927	0.508433
C120	C	1.306239	-0.294927	1.008433
C121	C	0.806224	-0.740326	0.508414
C122	C	1.306224	-0.240326	1.008414
C123	C	0.774497	-0.711386	0.455041
C124	C	1.274497	-0.211386	0.955041
C125	C	0.742783	-0.737047	0.401686
C126	C	1.242783	-0.237047	0.901686
C127	C	0.679347	-0.788366	0.294974
C128	C	1.179347	-0.288366	0.794974
C129	C	0.679332	-0.733759	0.294967
C130	C	1.179332	-0.233759	0.794967
C131	C	0.711049	-0.708098	0.348326
C132	C	1.211049	-0.208098	0.848326
C133	C	0.711041	-0.653505	0.348294
C134	C	1.211041	-0.153505	0.848294
N135	N	0.742752	-0.627842	0.401655
N136	N	1.242752	-0.127842	0.901655
C137	C	0.774479	-0.656782	0.455029
C138	C	1.274479	-0.156782	0.955029
C139	C	0.711136	-0.986584	0.348388
C140	C	1.211136	-0.486584	0.848388
C141	C	0.711156	-1.041186	0.348395
C142	C	1.211156	-0.541186	0.848395
C143	C	0.774597	-1.044463	0.455134
C144	C	1.274597	-0.544463	0.955134
C145	C	0.774580	-0.989860	0.455121
C146	C	1.274580	-0.489860	0.955121
C147	C	0.742847	-0.960920	0.401749
C148	C	1.242847	-0.460920	0.901749
C149	C	0.774447	-0.542116	0.454986
C150	C	1.274447	-0.042116	0.954986
C151	C	0.774432	-0.487509	0.454961
C152	C	1.274432	0.012491	0.954961
C153	C	0.710989	-0.484238	0.348226
C154	C	1.210989	0.015762	0.848226
C155	C	0.711006	-0.538839	0.348248
C156	C	1.211006	-0.038839	0.848248
C157	C	0.742737	-0.567777	0.401635
C158	C	1.242737	-0.067777	0.901635
O159	O	0.684084	-0.623829	0.302908
O160	O	1.184084	-0.123829	0.802908
O161	O	0.801441	-0.629933	0.500415
O162	O	1.301441	-0.129933	1.000415
C163	C	0.879131	-0.264620	0.401686
C164	C	1.379131	0.235380	0.901686
C165	C	0.937245	-0.264622	0.401701
C166	C	1.437245	0.235378	0.901701
C167	C	0.735876	-0.271498	0.619099
C168	C	1.235876	0.228502	1.119099
C169	C	0.732942	-0.274431	0.711761
C170	C	1.232942	0.225569	1.211761
C171	C	0.742845	-0.128244	0.401736
C172	C	1.242845	0.371756	0.901736
C173	C	0.742882	-0.070131	0.401772
C174	C	1.242882	0.429869	0.901772
C175	C	0.749647	-0.257721	0.185052
C176	C	1.249647	0.242279	0.685052
C177	C	0.752682	-0.254641	0.092390
C178	C	1.252682	0.245359	0.592390
C179	C	0.727567	-0.279774	0.881417
C180	C	1.227567	0.220226	1.381417
C181	C	0.758055	-0.249299	0.922740
C182	C	1.258055	0.250701	1.422740
C183	C	0.755065	-0.252272	1.017142
C184	C	1.255065	0.247728	1.517142
C185	C	0.730557	-0.276801	0.787006
C186	C	1.230557	0.223199	1.287006
H187	H	0.441661	-0.207107	0.498555
H188	H	0.941661	0.292893	0.998555
H189	H	0.653520	-0.809249	0.251524
H190	H	1.153520	-0.309249	0.751524
N191	N	0.304900	-0.362178	0.237180
N192	N	0.804900	0.137822	0.737180
H193	H	0.343383	-0.357371	0.245277
H194	H	0.843383	0.142629	0.745277
H195	H	0.297235	-0.352096	0.177668
H196	H	0.797235	0.147904	0.677668
N197	N	0.795610	-0.211787	0.875690
N198	N	1.295610	0.288213	1.375690
H199	H	0.832491	-0.220380	0.890807
H200	H	1.332491	0.279620	1.390807
H201	H	0.787005	-0.174909	0.890814
H202	H	1.287005	0.325091	1.390814
N203	N	0.645104	-0.702546	0.237402
N204	N	1.145104	-0.202546	0.737402
H205	H	0.625017	-0.727091	0.203606
H206	H	1.125017	-0.227091	0.703606
H207	H	0.667618	-0.678665	0.198844
H208	H	1.167618	-0.178665	0.698844
N209	N	0.676950	-1.068856	0.290835
N210	N	1.176950	-0.568856	0.790835
H211	H	0.651636	-1.092591	0.324679
H212	H	1.151636	-0.592591	0.824679
H213	H	0.699481	-1.090253	0.252248
H214	H	1.199481	-0.590253	0.752248
H215	H	0.699221	-0.308095	0.916935
H216	H	1.199221	0.191905	1.416935
H217	H	0.685184	-0.559733	0.304792
H218	H	1.185184	-0.059733	0.804792
H219	H	0.198193	-0.353805	0.251307
H220	H	0.698193	0.146195	0.751307
N221	N	0.676912	-0.955372	0.290812
N222	N	1.176912	-0.455372	0.790812
H223	H	0.656830	-0.979920	0.257012
H224	H	1.156830	-0.479920	0.757012
H225	H	0.699428	-0.931491	0.252257
H226	H	1.199428	-0.431491	0.752257
H227	H	0.540711	-0.207119	0.498551
H228	H	1.040711	0.292881	0.998551
H229	H	0.188825	-0.175415	0.552001
H230	H	0.688825	0.324585	1.052001
N231	N	0.294650	-0.167041	0.566111
N232	N	0.794650	0.332959	1.066111
H233	H	0.268010	-0.146965	0.599948
H234	H	0.768010	0.353035	1.099948
H235	H	0.318386	-0.141738	0.532250
H236	H	0.818386	0.358262	1.032250
N237	N	0.045143	-0.198739	0.512730
N238	N	0.545143	0.301261	1.012730
H239	H	0.018504	-0.178665	0.546572
H240	H	0.518504	0.321335	1.046572
H241	H	0.068878	-0.173435	0.478869
H242	H	0.568878	0.326565	0.978869
N243	N	0.840425	-0.712655	0.565980
N244	N	1.340425	-0.212655	1.065980
H245	H	0.835605	-0.673671	0.557881
H246	H	1.335605	-0.173671	1.057881
H247	H	0.878184	-0.721763	0.553069
H248	H	1.378184	-0.221763	1.053069
N249	N	0.440902	-0.330505	0.290609
N250	N	0.940902	0.169495	0.790609
H251	H	0.467538	-0.350584	0.256770
H252	H	0.967538	0.149416	0.756770
H253	H	0.419477	-0.307965	0.252093
H254	H	0.919477	0.192035	0.752093
N255	N	-0.068349	-0.198735	0.512739
N256	N	0.431651	0.301265	1.012739
H257	H	-0.092234	-0.221239	0.551310
H258	H	0.407766	0.278761	1.051310
H259	H	-0.089890	-0.173409	0.478872
H260	H	0.410110	0.326591	0.978872
N261	N	-0.061436	-0.330508	0.290674
N262	N	0.438564	0.169492	0.790674
H263	H	-0.034797	-0.350584	0.256835
H264	H	0.465203	0.149416	0.756835
H265	H	-0.082863	-0.307971	0.252158
H266	H	0.417137	0.192029	0.752158
N267	N	0.052053	-0.330498	0.290643
N268	N	0.552053	0.169502	0.790643
H269	H	0.027520	-0.350576	0.256812
H270	H	0.527520	0.149424	0.756812
H271	H	0.073627	-0.355800	0.324496
H272	H	0.573627	0.144200	0.824496
N273	N	0.554403	-0.330499	0.290587
N274	N	1.054403	0.169501	0.790587
H275	H	0.592884	-0.325684	0.298692
H276	H	1.092884	0.174316	0.798692
H277	H	0.546740	-0.320414	0.231075
H278	H	1.046740	0.179586	0.731075
N279	N	0.808642	-0.459833	0.512513
N280	N	1.308642	0.040167	1.012513
H281	H	0.828741	-0.486455	0.546328
H282	H	1.328741	0.013545	1.046328
H283	H	0.786114	-0.438402	0.551054
H284	H	1.286114	0.061598	1.051054
H285	H	0.800282	-0.565671	0.498464
H286	H	1.300282	-0.065671	0.998464
N287	N	0.840448	-0.826137	0.566026
N288	N	1.340448	-0.326137	1.066026
H289	H	0.860528	-0.801587	0.599825
H290	H	1.360528	-0.301587	1.099825
H291	H	0.865748	-0.847714	0.532155
H292	H	1.365748	-0.347714	1.032155
H293	H	0.800406	-0.968970	0.498571
H294	H	1.300406	-0.468970	0.998571
N295	N	0.808819	-1.075683	0.512703
N296	N	1.308819	-0.575683	1.012703
H297	H	0.804013	-1.114167	0.504612
H298	H	1.304013	-0.614167	1.004612
H299	H	0.798763	-1.068011	0.572229
H300	H	1.298763	-0.568011	1.072229
H301	H	0.685158	-0.460666	0.304767
H302	H	1.185158	0.039334	0.804767
