data_functionalizedCrystal
_audit_creation_method	'MofGen! by Chris Wilmer'
_symmetry_space_group_name_H-M	'P1'
_symmetry_Int_Tables_number	1
_symmetry_cell_setting	triclinic
loop_
_symmetry_equiv_pos_as_xyz
  x,y,z
_cell_length_a	12.759401
_cell_length_b	18.101395
_cell_length_c	12.759393
_cell_angle_alpha	89.967605
_cell_angle_beta	89.981287
_cell_angle_gamma	90.032629
loop_
_atom_site_label
_atom_site_type_symbol
_atom_site_fract_x
_atom_site_fract_y
_atom_site_fract_z
Zn1	Zn	1.606124	-0.294763	-0.594006
Zn2	Zn	1.605971	-0.418623	-0.418321
Zn3	Zn	1.430429	-0.294803	-0.418342
Zn4	Zn	1.430364	-0.418571	-0.593958
O5	O	1.518222	-0.356690	-0.506157
O6	O	1.753124	-0.311199	-0.570713
O7	O	1.582649	-0.402236	-0.271302
O8	O	1.453826	-0.191165	-0.441673
O9	O	1.753012	-0.402198	-0.441637
O10	O	1.582908	-0.191136	-0.570733
O11	O	1.453679	-0.311266	-0.271318
O12	O	1.283399	-0.311216	-0.441626
O13	O	1.453715	-0.402109	-0.740986
O14	O	1.283352	-0.402148	-0.570651
O15	O	1.582845	-0.311149	-0.741021
O16	O	1.582585	-0.522249	-0.441590
O17	O	1.453568	-0.522211	-0.570630
C18	C	1.245255	-0.356681	-0.506136
C19	C	1.128478	-0.356695	-0.506152
C20	C	1.518081	-0.549101	-0.506126
C21	C	1.518117	-0.631415	-0.506148
C22	C	1.073619	-0.404115	-0.573229
C23	C	0.963894	-0.404118	-0.573250
C24	C	0.963899	-0.309278	-0.439107
C25	C	1.073621	-0.309272	-0.439092
C26	C	0.813983	-0.430691	-0.697109
C27	C	0.759120	-0.478123	-0.764177
C28	C	0.794687	-0.550395	-0.780122
C29	C	0.885117	-0.575251	-0.728983
C30	C	0.939974	-0.527823	-0.661907
C31	C	0.904408	-0.455540	-0.645982
C32	C	1.223535	-0.282707	-0.315232
C33	C	1.278394	-0.235282	-0.248150
C34	C	1.242828	-0.163008	-0.232194
C35	C	1.152396	-0.138156	-0.283315
C36	C	1.097536	-0.185580	-0.350397
C37	C	1.133109	-0.257853	-0.366354
C38	C	1.518348	-0.930506	-0.506204
C39	C	1.437362	-0.899187	-0.587594
C40	C	1.436977	-0.813569	-0.587340
C41	C	1.518233	-0.782123	-0.506177
C42	C	1.488255	-0.813282	-0.395451
C43	C	1.487733	-0.898927	-0.395938
C44	C	1.629490	-0.898845	-0.534565
C45	C	1.628836	-0.813194	-0.536994
C46	C	1.518171	-0.698264	-0.506155
C47	C	1.518408	-1.014365	-0.506219
C48	C	1.792255	-0.356700	-0.506178
C49	C	1.909032	-0.356704	-0.506187
C50	C	1.518290	-0.356619	-0.780190
C51	C	1.518319	-0.356589	-0.896967
C52	C	1.518392	-0.163528	-0.506211
C53	C	1.518464	-0.081214	-0.506234
C54	C	1.451104	-0.403930	-0.951812
C55	C	1.451141	-0.403902	-1.061536
C56	C	1.585612	-0.309186	-1.061560
C57	C	1.585579	-0.309218	-0.951838
C58	C	1.413569	-0.491196	-1.211466
C59	C	1.346337	-0.538531	-1.266315
C60	C	1.243802	-0.549906	-1.230699
C61	C	1.208477	-0.513936	-1.140236
C62	C	1.275704	-0.466596	-1.085393
C63	C	1.378253	-0.455235	-1.121007
C64	C	1.623140	-0.221923	-0.801906
C65	C	1.690362	-0.174578	-0.747061
C66	C	1.792899	-0.163196	-0.782675
C67	C	1.828220	-0.199153	-0.873141
C68	C	1.760998	-0.246497	-0.927987
C69	C	1.658462	-0.257881	-0.892365
C70	C	1.518215	-0.356708	-0.233189
C71	C	1.518389	-0.356529	-0.116413
H72	H	1.118280	-0.442728	-0.627836
H73	H	1.355481	-0.920776	-0.569045
H74	H	1.023906	-0.165337	-0.392029
Br75	Br	0.933370	-0.673346	-0.750607
Br76	Br	1.352322	-0.932343	-0.355894
H77	H	1.789763	-0.275772	-1.001653
H78	H	1.013599	-0.548060	-0.620270
Br79	Br	0.720232	-0.614764	-0.871148
Br80	Br	1.734735	-0.777503	-0.445400
H81	H	1.124978	-0.523195	-1.111252
Br82	Br	1.676887	-0.244899	-1.136035
Br83	Br	1.730063	-0.932615	-0.435781
H84	H	0.685493	-0.457879	-0.805816
Br85	Br	1.884126	-0.098935	-0.708246
Br86	Br	1.354275	-0.777650	-0.354686
H87	H	0.785022	-0.371839	-0.684144
Br88	Br	1.675045	-0.934750	-0.666846
H89	H	1.911711	-0.189880	-0.902144
Br90	Br	0.889444	-0.244922	-0.348102
H91	H	1.661592	-0.145295	-0.673404
H92	H	1.539647	-0.231191	-0.772897
H93	H	1.287500	-0.124398	-0.177561
Br94	Br	1.104113	-0.040071	-0.261652
H95	H	1.246942	-0.437308	-1.011742
Br96	Br	1.152560	-0.614144	-1.305141
H97	H	1.651443	-0.792826	-0.618482
Br98	Br	1.401112	-0.269017	-0.178750
Br99	Br	1.271703	-0.380839	-0.336737
Br100	Br	1.468235	-0.778448	-0.724183
Br101	Br	1.394276	-0.587347	-1.389080
H102	H	1.544161	-0.919647	-0.333229
Br103	Br	1.552738	-0.475774	-1.259797
Br104	Br	1.299667	-0.779527	-0.556037
Br105	Br	1.468305	-0.933426	-0.724886
H106	H	1.545386	-0.792914	-0.333156
H107	H	1.396330	-0.442498	-0.907139
