data_functionalizedCrystal
_audit_creation_method	'MofGen! by Chris Wilmer'
_symmetry_space_group_name_H-M	'P1'
_symmetry_Int_Tables_number	1
_symmetry_cell_setting	triclinic
loop_
_symmetry_equiv_pos_as_xyz
  x,y,z
_cell_length_a	10.723024
_cell_length_b	10.723024
_cell_length_c	15.186229
_cell_angle_alpha	89.997422
_cell_angle_beta	89.996943
_cell_angle_gamma	84.467869
loop_
_atom_site_label
_atom_site_type_symbol
_atom_site_fract_x
_atom_site_fract_y
_atom_site_fract_z
O1	O	1.657187	0.175026	-0.073220
O2	O	1.294034	0.191779	-0.073223
O3	O	1.483987	0.001826	-0.073219
O4	O	1.467234	0.364978	-0.073225
O5	O	1.483974	0.001823	0.073239
O6	O	1.294021	0.191776	0.073234
O7	O	1.657174	0.175023	0.073237
Zn8	Zn	1.475596	0.183399	0.096489
Zn9	Zn	1.475612	0.183403	-0.096475
O10	O	1.467221	0.364976	0.073232
C11	C	1.247528	0.190558	0.000005
C12	C	1.108974	0.186911	0.000004
C13	C	1.033991	0.293198	0.000001
C14	C	0.890788	0.289431	0.000000
C15	C	1.482762	-0.044675	0.000009
C16	C	1.479114	-0.183229	0.000006
C17	C	1.585401	-0.258212	0.000006
C18	C	1.581634	-0.401415	0.000002
C19	C	1.703680	0.176243	0.000007
C20	C	1.842234	0.179891	0.000002
C21	C	1.468447	0.411477	0.000003
C22	C	1.472094	0.550031	-0.000000
N23	N	1.475593	0.183396	0.228181
N24	N	1.475625	0.183396	-0.228168
C25	C	1.559733	0.099313	0.453906
C26	C	1.559737	0.099311	0.546096
C27	C	1.391475	0.267482	0.546101
C28	C	1.391466	0.267478	0.453913
C29	C	1.475602	0.183395	0.407818
C30	C	1.475615	0.183397	0.592196
C31	C	1.475619	0.183394	0.692152
C32	C	1.475598	0.183396	0.307855
H33	H	1.067152	0.093125	-0.000017
H34	H	0.826355	0.380421	-0.000005
O35	O	1.309692	0.349282	0.409273
C36	C	1.142747	0.516034	0.418999
C37	C	1.235307	0.423490	0.469663
H38	H	1.082566	0.576037	0.467801
H39	H	1.197087	0.578949	0.375853
H40	H	1.080004	0.461556	0.375824
H41	H	1.298073	0.477865	0.512885
H42	H	1.180890	0.360575	0.512753
O43	O	1.083727	0.405166	-0.000117
C44	C	1.100131	0.600253	-0.076022
C45	C	1.043702	0.473503	-0.075988
H46	H	1.067814	0.655529	-0.137366
H47	H	1.067706	0.655699	-0.014773
H48	H	1.206734	0.583322	-0.075977
H49	H	0.937097	0.490320	-0.076064
H50	H	1.076226	0.418098	-0.137231
O51	O	0.919212	0.071412	-0.000114
C52	C	1.082422	-0.056370	-0.076015
C53	C	0.995326	0.066541	-0.075983
H54	H	1.143965	-0.060360	-0.137358
H55	H	1.144147	-0.060383	-0.014766
H56	H	1.023558	-0.139409	-0.075971
H57	H	1.054092	0.149649	-0.076058
H58	H	0.933596	0.070444	-0.137227
O59	O	1.690225	-0.478221	0.000156
C60	C	1.883267	-0.542010	0.076001
C61	C	1.760318	-0.454973	0.075947
H62	H	1.939983	-0.523226	0.137262
H63	H	1.860960	-0.643832	0.076056
H64	H	1.939920	-0.523346	0.014681
H65	H	1.703605	-0.473526	0.137257
H66	H	1.782712	-0.353179	0.075847
O67	O	1.697186	-0.208125	0.000047
C68	C	1.802864	-0.019730	-0.000003
C69	C	1.676178	-0.076282	-0.000029
H70	H	1.785923	0.086872	-0.000083
H71	H	1.858237	-0.052027	0.061304
H72	H	1.858228	-0.052184	-0.061280
H73	H	1.620712	-0.043854	0.061206
H74	H	1.620900	-0.043990	-0.061377
H75	H	1.385328	-0.225051	-0.000001
O76	O	1.641498	0.017511	0.409265
C77	C	1.808434	-0.149248	0.418995
C78	C	1.715885	-0.056689	0.469657
H79	H	1.868618	-0.209245	0.467799
H80	H	1.754085	-0.212168	0.375868
H81	H	1.871176	-0.094784	0.375803
H82	H	1.653120	-0.111051	0.512897
H83	H	1.770312	0.006231	0.512729
H84	H	1.381099	-0.385544	0.000006
H85	H	1.628243	0.030842	0.583619
H86	H	1.322975	0.335943	0.583641
