data_functionalizedCrystal
_audit_creation_method	'MofGen! by Chris Wilmer'
_symmetry_space_group_name_H-M	'P1'
_symmetry_Int_Tables_number	1
_symmetry_cell_setting	triclinic
loop_
_symmetry_equiv_pos_as_xyz
  x,y,z
_cell_length_a	12.837943
_cell_length_b	10.654550
_cell_length_c	11.892095
_cell_angle_alpha	93.928097
_cell_angle_beta	85.689438
_cell_angle_gamma	89.656922
loop_
_atom_site_label
_atom_site_type_symbol
_atom_site_fract_x
_atom_site_fract_y
_atom_site_fract_z
O1	O	1.384377	0.319511	-0.093978
O2	O	1.082456	0.303370	-0.093985
O3	O	1.240358	0.129459	-0.093977
O4	O	1.226475	0.493422	-0.093986
O5	O	1.227192	0.143935	0.094030
O6	O	1.069290	0.317845	0.094022
O7	O	1.371211	0.333987	0.094029
Zn8	Zn	1.218160	0.328214	0.123876
Zn9	Zn	1.235507	0.309142	-0.123831
O10	O	1.213309	0.507898	0.094021
C11	C	1.037213	0.305155	0.000018
C12	C	0.922020	0.288892	0.000015
C13	C	0.682466	0.484397	0.000027
C14	C	0.574230	0.469123	0.000025
C15	C	0.597310	0.243071	0.000018
C16	C	0.705546	0.258345	0.000020
C17	C	0.748119	0.379012	0.000023
C18	C	0.856358	0.394285	0.000016
C19	C	0.879435	0.168234	0.000017
C20	C	0.771199	0.152960	0.000016
C21	C	1.232756	0.089788	0.000025
C22	C	1.229706	-0.049989	0.000021
C23	C	1.322676	-0.119329	0.000027
C24	C	1.319805	-0.250664	0.000019
C25	C	1.130985	-0.243306	0.000004
C26	C	1.133858	-0.111974	0.000004
C27	C	1.418525	-0.057343	0.000044
C28	C	1.511502	-0.126683	0.000050
C29	C	1.508631	-0.258018	0.000042
C30	C	1.412782	-0.320013	0.000028
C31	C	1.416454	0.332202	0.000024
C32	C	1.531648	0.348464	0.000019
C33	C	1.220912	0.547569	0.000017
C34	C	1.223962	0.687345	0.000013
N35	N	1.206330	0.341231	0.292929
N36	N	1.247346	0.296117	-0.292885
C37	C	1.329670	0.205471	0.529583
C38	C	1.321408	0.214579	0.647925
C39	C	1.181539	0.368549	0.647956
C40	C	1.189801	0.359440	0.529614
C41	C	1.263870	0.277900	0.470432
C42	C	1.272137	0.268799	0.352089
C43	C	1.132263	0.422761	0.352122
C44	C	1.124001	0.431870	0.470463
H45	H	0.891019	0.492538	0.000020
O46	O	0.551374	0.112936	0.000027
H47	H	0.615209	0.042215	0.000034
O48	O	0.725272	0.022820	0.000011
H49	H	0.746210	-0.022547	0.076642
O50	O	0.950245	0.054556	0.000019
H51	H	1.032661	0.085445	0.000027
O52	O	1.421617	0.084311	0.000057
H53	H	1.468494	0.111467	-0.076567
H54	H	1.063692	0.498255	0.518663
H55	H	1.410452	-0.426956	0.000009
H56	H	0.717130	0.582649	0.000027
O57	O	1.027609	-0.310165	-0.000003
H58	H	0.977523	-0.277285	0.076621
H59	H	1.058153	-0.055516	0.000001
O60	O	0.503415	0.582789	0.000037
H61	H	0.458907	0.575342	-0.076585
H62	H	1.374988	0.155599	0.696082
H63	H	1.584339	-0.314472	0.000036
O64	O	1.061278	0.500883	0.288327
H65	H	1.079459	0.480847	0.196093
H66	H	1.332450	0.202409	0.303903
O67	O	1.614882	-0.059833	0.000055
H68	H	1.615348	0.005712	0.076691
O69	O	1.409541	0.117524	0.465726
H70	H	1.488955	0.144999	0.488409
O71	O	1.101654	0.456491	0.711795
H72	H	1.106971	0.450655	0.804022
