data_functionalizedCrystal
_audit_creation_method	'MofGen! by Chris Wilmer'
_symmetry_space_group_name_H-M	'P1'
_symmetry_Int_Tables_number	1
_symmetry_cell_setting	triclinic
loop_
_symmetry_equiv_pos_as_xyz
  x,y,z
_cell_length_a	21.395362
_cell_length_b	17.640280
_cell_length_c	21.395356
_cell_angle_alpha	78.777041
_cell_angle_beta	89.964122
_cell_angle_gamma	78.812025
loop_
_atom_site_label
_atom_site_type_symbol
_atom_site_fract_x
_atom_site_fract_y
_atom_site_fract_z
Zn1	Zn	1.008265	-0.314325	-0.304300
Zn2	Zn	1.029397	-0.446492	-0.178379
Zn3	Zn	0.903504	-0.314384	-0.199492
Zn4	Zn	0.924663	-0.446486	-0.283085
O5	O	0.966457	-0.380422	-0.241314
O6	O	1.098742	-0.331835	-0.287640
O7	O	1.012686	-0.428995	-0.093498
O8	O	0.899701	-0.203779	-0.231110
O9	O	1.114268	-0.428938	-0.195126
O10	O	0.976669	-0.203735	-0.308112
O11	O	0.920193	-0.331936	-0.109009
O12	O	0.818636	-0.331930	-0.210538
O13	O	0.935764	-0.428928	-0.373581
O14	O	0.834182	-0.428985	-0.271953
O15	O	0.997186	-0.331829	-0.389168
O16	O	1.033204	-0.557089	-0.174554
O17	O	0.956256	-0.557085	-0.251481
C18	C	0.803676	-0.380464	-0.241235
C19	C	0.734041	-0.380501	-0.241213
C20	C	0.999336	-0.585764	-0.208438
C21	C	1.013459	-0.673610	-0.194394
C22	C	0.709450	-0.431104	-0.273121
C23	C	0.644011	-0.431085	-0.273152
C24	C	0.603168	-0.380470	-0.241262
C25	C	0.627766	-0.329857	-0.209353
C26	C	0.693202	-0.329872	-0.209328
C27	C	0.498431	-0.374115	-0.185874
C28	C	0.432997	-0.374106	-0.185896
C29	C	0.401339	-0.380419	-0.241340
C30	C	0.435127	-0.386758	-0.296759
C31	C	0.500563	-0.386773	-0.296734
C32	C	0.532212	-0.380448	-0.241286
C33	C	0.305792	-0.431004	-0.273284
C34	C	0.240352	-0.430979	-0.273317
C35	C	0.224108	-0.329755	-0.209512
C36	C	0.289546	-0.329776	-0.209485
C37	C	0.330385	-0.380404	-0.241370
C38	C	0.859424	-0.962650	-0.348231
C39	C	0.872696	-1.045195	-0.335015
C40	C	0.952871	-1.045134	-0.254992
C41	C	0.939608	-0.962588	-0.268204
C42	C	0.892884	-0.921352	-0.314823
C43	C	0.973068	-0.921290	-0.234796
C44	C	0.959803	-0.838751	-0.248004
C45	C	0.913080	-0.797509	-0.294621
C46	C	0.879619	-0.838813	-0.328032
C47	C	1.019789	-0.962527	-0.188173
C48	C	1.053249	-0.921229	-0.154766
C49	C	1.039988	-0.838688	-0.167977
C50	C	0.993264	-0.797447	-0.214593
C51	C	1.073448	-0.797384	-0.134566
C52	C	1.060184	-0.714845	-0.147774
C53	C	0.979999	-0.714908	-0.227802
C54	C	1.129874	-0.380380	-0.241394
C55	C	1.199513	-0.380363	-0.241428
C56	C	0.966478	-0.380371	-0.404746
C57	C	0.966487	-0.380349	-0.474390
C58	C	0.933468	-0.174278	-0.274333
C59	C	0.919409	-0.086432	-0.288403
C60	C	0.998508	-0.329664	-0.984324
C61	C	0.998506	-0.329684	-0.918886
C62	C	0.966524	-0.380244	-0.878046
C63	C	0.934555	-0.430804	-0.902647
C64	C	0.934563	-0.430789	-0.968083
C65	C	0.911063	-0.386523	-0.773346
C66	C	0.911053	-0.386532	-0.707912
C67	C	0.966500	-0.380295	-0.676217
C68	C	1.021956	-0.374031	-0.709967
C69	C	1.021965	-0.374016	-0.775404
C70	C	0.966512	-0.380266	-0.807090
C71	C	0.998469	-0.329763	-0.580667
C72	C	0.998469	-0.329787	-0.515226
C73	C	0.934511	-0.430904	-0.498989
C74	C	0.934517	-0.430883	-0.564428
C75	C	0.966495	-0.380309	-0.605263
C76	C	0.966463	-0.380415	-0.078528
C77	C	0.966540	-0.380214	-0.008919
H78	H	0.742697	-0.472329	-0.299085
Cl79	Cl	0.841335	-0.394398	-0.665491
H80	H	0.309569	-0.288573	-0.183498
H81	H	0.409352	-0.391897	-0.341907
H82	H	1.087429	-0.681220	-0.120569
Cl83	Cl	0.896547	-0.693744	-0.311371
Cl84	Cl	0.538223	-0.366181	-0.116166
H85	H	1.111487	-0.830971	-0.096604
Cl86	Cl	0.543036	-0.394737	-0.366402
H87	H	1.024538	-0.288517	-0.898857
H88	H	0.908473	-0.472074	-0.465737
H89	H	0.821381	-0.929075	-0.386198
Cl90	Cl	0.576420	-0.266223	-0.169267
Cl91	Cl	1.091670	-0.366204	-0.670128
H92	H	0.339044	-0.472224	-0.299250
Cl93	Cl	1.011610	-1.096980	-0.196388
H94	H	0.841576	-0.805238	-0.365999
Cl95	Cl	1.038738	-0.266116	-1.035652
H96	H	0.220331	-0.472185	-0.299305
Cl97	Cl	0.172767	-0.266120	-0.169426
Cl98	Cl	1.091680	-0.366155	-0.817829
H99	H	0.405492	-0.368949	-0.140770
H100	H	0.941956	-0.681332	-0.265769
H101	H	1.024506	-0.288581	-0.613917
Cl102	Cl	0.841348	-0.394354	-0.813186
Cl103	Cl	0.724118	-0.266251	-0.169211
Cl104	Cl	0.830620	-1.097110	-0.377012
H105	H	1.030589	-1.029735	-0.177422
Cl106	Cl	1.038665	-0.266237	-0.484306
H107	H	0.908516	-0.471972	-0.869391
Cl108	Cl	0.894325	-0.494434	-0.595349
Cl109	Cl	1.111988	-0.973075	-0.096162
Cl110	Cl	0.894371	-0.494343	-0.999004
H111	H	0.623985	-0.472292	-0.299138
