data_functionalizedCrystal
_audit_creation_method	'MofGen! by Chris Wilmer'
_symmetry_space_group_name_H-M	'P1'
_symmetry_Int_Tables_number	1
_symmetry_cell_setting	triclinic
loop_
_symmetry_equiv_pos_as_xyz
  x,y,z
_cell_length_a	14.519709
_cell_length_b	19.288867
_cell_length_c	12.996460
_cell_angle_alpha	89.995902
_cell_angle_beta	90.007090
_cell_angle_gamma	96.591393
loop_
_atom_site_label
_atom_site_type_symbol
_atom_site_fract_x
_atom_site_fract_y
_atom_site_fract_z
O1	O	0.115054	-0.921762	0.085533
O2	O	0.130572	-0.719558	0.085543
O3	O	-0.011460	-0.826021	0.085529
O4	O	0.257085	-0.815299	0.085548
O5	O	-0.011467	-0.826010	-0.085605
O6	O	0.130564	-0.719547	-0.085591
O7	O	0.115046	-0.921751	-0.085601
Cu8	Cu	0.122804	-0.820648	-0.101222
Cu9	Cu	0.122814	-0.820661	0.101164
O10	O	0.257077	-0.815288	-0.085586
C11	C	-0.045820	-0.825516	-0.000039
C12	C	-0.148192	-0.824018	-0.000039
C13	C	0.130068	-0.693674	-0.000022
C14	C	0.128568	-0.616565	-0.000019
C15	C	0.115550	-0.947635	-0.000033
C16	C	0.117050	-1.024744	-0.000030
C17	C	-0.523053	-0.818506	-0.000012
C18	C	-0.418754	-0.820037	-0.000020
C19	C	-0.335626	-0.821262	-0.000026
C20	C	-0.231321	-0.822793	-0.000032
C21	C	0.291438	-0.815793	-0.000017
C22	C	0.393810	-0.817290	-0.000010
C23	C	0.117770	-0.060967	0.093254
C24	C	0.119173	-0.133419	0.093257
C25	C	0.119875	-0.169645	-0.000027
C26	C	0.119150	-0.133413	-0.093323
C27	C	0.117737	-0.060963	-0.093324
C28	C	0.176124	-0.279170	-0.071492
C29	C	0.177543	-0.351618	-0.071486
C30	C	0.124229	-0.393106	-0.000027
C31	C	0.069509	-0.362135	0.071444
C32	C	0.068096	-0.289685	0.071443
C33	C	0.121407	-0.248205	-0.000036
C34	C	0.126470	-0.507890	0.093267
C35	C	0.127868	-0.580345	0.093267
C36	C	0.127854	-0.580336	-0.093316
C37	C	0.126446	-0.507884	-0.093314
C38	C	0.125759	-0.471665	-0.000019
N39	N	0.122797	-0.820644	-0.243569
C40	C	0.122815	-0.820660	-0.663383
C41	C	0.122813	-0.820653	-0.546578
C42	C	0.122807	-0.820652	-0.453480
C43	C	0.122804	-0.820645	-0.336667
N44	N	0.122813	-0.820671	0.243511
H45	H	0.117206	-0.031482	0.169221
N46	N	0.236545	-0.385019	-0.148584
H47	H	0.229352	-0.437210	-0.137741
H48	H	0.303680	-0.365802	-0.139033
H49	H	0.026098	-0.395913	0.129636
H50	H	0.219535	-0.245396	-0.129694
H51	H	0.128422	-0.609830	-0.169271
N52	N	0.125674	-0.468809	-0.193927
H53	H	0.125691	-0.502809	-0.253022
H54	H	0.182570	-0.433517	-0.198299
H55	H	0.119720	-0.162913	-0.169276
H56	H	0.117154	-0.031470	-0.169289
H57	H	0.023539	-0.264472	0.129635
N58	N	0.119949	-0.172501	0.193873
H59	H	0.119298	-0.138562	0.252973
H60	H	0.177695	-0.196999	0.197929
N61	N	0.125725	-0.468819	0.193884
H62	H	0.126387	-0.502764	0.252982
H63	H	0.067985	-0.444316	0.197946
H64	H	0.128447	-0.609837	0.169232
