data_functionalizedCrystal
_audit_creation_method	'MofGen! by Chris Wilmer'
_symmetry_space_group_name_H-M	'P1'
_symmetry_Int_Tables_number	1
_symmetry_cell_setting	triclinic
loop_
_symmetry_equiv_pos_as_xyz
  x,y,z
_cell_length_a	31.640172
_cell_length_b	17.052862
_cell_length_c	17.052862
_cell_angle_alpha	118.506848
_cell_angle_beta	89.995928
_cell_angle_gamma	70.263359
loop_
_atom_site_label
_atom_site_type_symbol
_atom_site_fract_x
_atom_site_fract_y
_atom_site_fract_z
Zr1	Zr	0.489849	0.816604	0.200346
O2	O	0.443173	0.944506	0.328485
O3	O	0.493881	0.665882	0.146154
O4	O	0.516529	0.783681	0.306961
O5	O	0.414349	0.860635	0.057791
O6	O	0.586084	0.783670	0.306944
O7	O	0.420524	0.826707	0.167677
O8	O	0.545569	0.572948	0.019289
O9	O	0.454863	1.071356	0.345446
O10	O	0.559924	0.736319	0.141044
O11	O	0.503407	0.761648	0.059049
O12	O	0.530073	0.900341	0.248379
O13	O	0.473557	0.925670	0.166385
Zr14	Zr	0.590931	0.870697	0.025063
Zr15	Zr	0.600781	0.816586	0.200319
Zr16	Zr	0.479999	0.870715	0.025090
Zr17	Zr	0.508493	1.018915	0.227397
Zr18	Zr	0.572287	0.668386	-0.001988
O19	O	0.586899	1.021419	0.079255
O20	O	0.600904	0.944480	0.328447
O21	O	0.429168	1.021445	0.079293
O22	O	0.637606	0.742795	-0.103076
O23	O	0.651611	0.665856	0.146116
O24	O	0.479876	0.742821	-0.103038
O25	O	0.666431	0.826666	0.167618
O26	O	0.564250	0.903620	-0.081552
O27	O	0.494695	0.903631	-0.081535
O28	O	0.660255	0.860594	0.057732
O29	O	0.543039	1.071342	0.345425
O30	O	0.537740	0.615959	-0.120016
O31	O	0.625916	0.615945	-0.120037
O32	O	0.633745	0.572934	0.019268
O33	O	0.447034	1.114367	0.206141
O34	O	0.535210	1.114353	0.206120
O35	O	0.550706	0.786959	-0.022970
O36	O	0.607223	0.761631	0.059024
O37	O	0.577372	0.925653	0.166360
O38	O	0.520856	0.950981	0.084365
C39	C	0.517069	0.590590	0.078867
C40	C	0.509153	0.504704	0.067383
C41	C	0.604847	0.209724	0.206225
C42	C	0.612282	0.290421	0.217021
C43	C	0.586501	0.343995	0.179612
C44	C	0.553282	0.316865	0.131406
C45	C	0.545843	0.236164	0.120615
C46	C	0.527498	0.370436	0.094003
C47	C	0.494279	0.343305	0.045797
C48	C	0.486841	0.262612	0.035007
C49	C	0.512623	0.209038	0.072416
C50	C	0.534937	0.451137	0.104794
C51	C	0.475933	0.477577	0.019184
C52	C	0.468497	0.396880	0.008388
C53	C	0.401631	0.843673	0.112738
C54	C	0.354538	0.843681	0.112749
C55	C	0.078105	0.758027	0.056659
C56	C	-0.098882	0.758014	0.056640
O57	O	-0.108518	0.685207	0.008960
N58	N	-0.136594	0.843630	0.112669
C59	C	-0.130057	0.929258	0.168702
O60	O	-0.166194	1.002082	0.216351
C61	C	0.046930	0.929272	0.168715
C62	C	0.084640	0.843648	0.112690
C63	C	0.115815	0.672410	0.000636
C64	C	0.160059	0.672413	0.000645
C65	C	0.166594	0.758034	0.056676
C66	C	0.128885	0.843651	0.112698
C67	C	0.053466	1.014900	0.224743
C68	C	0.097717	1.014897	0.224740
C69	C	0.135427	0.929273	0.168714
C70	C	0.179664	0.929275	0.168738
N71	N	0.217376	0.843658	0.112709
C72	C	0.210840	0.758038	0.056678
C73	C	-0.222976	0.929244	0.168693
C74	C	-0.267223	0.929240	0.168691
C75	C	-0.236045	0.757996	0.056627
C76	C	-0.191798	0.757999	0.056634
C77	C	-0.185265	0.843627	0.112664
C78	C	0.303756	0.758051	0.056702
C79	C	0.348003	0.758061	0.056718
C80	C	0.316821	0.929305	0.168778
C81	C	0.272578	0.929295	0.168766
C82	C	0.266048	0.843661	0.112720
O83	O	0.189334	1.002045	0.216385
O84	O	0.246983	0.685229	0.009022
C85	C	0.033861	0.758024	0.056650
C86	C	-0.003848	0.843641	0.112672
C87	C	0.002687	0.929262	0.168703
C88	C	-0.048095	0.843638	0.112670
C89	C	-0.054630	0.758017	0.056639
C90	C	-0.016918	0.672401	0.000610
C91	C	0.027326	0.672404	0.000619
C92	C	-0.035025	1.014879	0.224732
C93	C	-0.079268	1.014868	0.224719
C94	C	-0.085803	0.929248	0.168688
C95	C	0.679149	0.843628	0.112671
C96	C	0.726242	0.843620	0.112660
C97	C	0.552710	0.775966	0.331923
C98	C	0.556892	0.752994	0.406324
C99	C	0.563711	1.096711	0.146542
C100	C	0.571626	1.182597	0.158026
C101	C	0.506345	1.030721	0.840165
C102	C	0.502413	1.052307	0.770264
C103	C	0.516033	0.977481	0.679276
C104	C	0.533584	0.881064	0.658195
C105	C	0.537512	0.859476	0.728103
C106	C	0.547200	0.806236	0.567214
C107	C	0.564751	0.709820	0.546133
C108	C	0.568679	0.688236	0.616036
C109	C	0.555060	0.763062	0.707023
C110	C	0.543272	0.827824	0.497306
C111	C	0.574439	0.656580	0.385244
C112	C	0.578371	0.634994	0.455145
C113	C	0.528071	0.911335	0.893486
C114	C	0.523892	0.934307	0.819085
C115	C	0.655827	0.590567	0.078834
C116	C	0.695006	0.504673	0.067339
C117	C	0.504748	0.658275	-0.140351
C118	C	0.492652	0.595360	-0.226236
C119	C	0.643507	0.658252	-0.140385
C120	C	0.678504	0.595329	-0.226281
C121	C	0.437273	1.029049	0.365794
C122	C	0.402276	1.091972	0.451690
C123	C	0.424952	1.096734	0.146575
C124	C	0.385774	1.182628	0.158070
C125	C	0.576032	1.029026	0.365760
C126	C	0.588128	1.091941	0.451645
C127	C	0.688715	0.451122	0.104761
C128	C	0.725525	0.370421	0.093978
C129	C	0.768624	0.343269	0.045766
C130	C	0.774915	0.396829	0.008344
C131	C	0.738106	0.477532	0.019133
C132	C	0.511660	0.579029	-0.309389
C133	C	0.500293	0.519927	-0.390092
C134	C	0.469920	0.477152	-0.387641
C135	C	0.450909	0.493488	-0.304478
C136	C	0.462274	0.552594	-0.223777
C137	C	0.724445	0.552559	-0.223818
C138	C	0.757334	0.493446	-0.304519
C139	C	0.744280	0.477098	-0.387681
C140	C	0.698335	0.519876	-0.390141
C141	C	0.665448	0.578994	-0.309441
C142	C	0.356336	1.134752	0.449229
C143	C	0.323449	1.193890	0.529932
C144	C	0.336503	1.210242	0.613095
C145	C	0.382448	1.167459	0.615555
C146	C	0.415334	1.108327	0.534853
C147	C	0.392066	1.236185	0.120657
C148	C	0.355259	1.316902	0.131462
C149	C	0.312160	1.344056	0.179676
C150	C	0.305869	1.290493	0.217095
C151	C	0.342676	1.209782	0.206295
C152	C	0.618503	1.134699	0.449164
C153	C	0.629877	1.193805	0.529854
C154	C	0.610874	1.210158	0.613024
C155	C	0.580498	1.167393	0.615502
C156	C	0.569126	1.108282	0.534813
H157	H	0.561984	0.473219	0.144044
H158	H	0.427155	1.214086	0.081391
H159	H	0.639328	0.312509	0.256271
H160	H	-0.297924	0.998961	0.214323
H161	H	0.393071	1.180780	0.683276
H162	H	0.628041	0.613811	-0.311459
H163	H	0.270773	1.312615	0.256352
H164	H	0.592661	0.556491	0.437993
H165	H	0.620138	1.258292	0.678720
N166	N	0.464882	1.062165	0.537505
H167	H	0.484231	1.084554	0.512283
H168	H	0.468118	1.081508	0.602451
H169	H	0.794742	0.458619	-0.302500
N170	N	0.594528	0.431023	0.191248
H171	H	0.604106	0.420825	0.129509
H172	H	0.565361	0.490435	0.224600
N173	N	0.362049	1.374662	0.091099
H174	H	0.394937	1.345202	0.058910
H175	H	0.341157	1.373915	0.046192
N176	N	0.296713	0.665690	-0.003731
H177	H	0.276741	0.674568	-0.047408
H178	H	0.327336	0.611501	-0.039153
H179	H	0.544391	1.073474	0.536846
N180	N	0.560003	1.185035	0.705210
H181	H	0.571818	1.228974	0.755944
H182	H	0.525555	1.216474	0.716171
N183	N	0.589129	0.575866	0.287113
H184	H	0.583979	0.604171	0.246028
H185	H	0.622680	0.534700	0.274860
N186	N	0.744897	0.535283	-0.021236
H187	H	0.737422	0.604172	0.028854
H188	H	0.777789	0.505748	-0.053418
H189	H	0.653626	0.473223	0.144030
H190	H	0.190761	0.602688	-0.044973
H191	H	0.528981	0.906328	0.514479
N192	N	0.451013	0.233350	-0.016984
H193	H	0.465980	0.165638	-0.070896
H194	H	0.427256	0.235336	0.024224
H195	H	0.720394	0.326821	0.124453
N196	N	0.272463	1.431110	0.191322
H197	H	0.282992	1.460911	0.160298
H198	H	0.247222	1.410486	0.163217
H199	H	0.654611	1.228622	0.527819
N200	N	0.432670	0.367613	-0.043606
H201	H	0.431872	0.308362	-0.044764
H202	H	0.401720	0.422308	-0.012884
N203	N	0.342250	1.117120	0.359538
H204	H	0.308156	1.153203	0.370238
H205	H	0.358990	1.140685	0.330538
N206	N	0.684257	0.502238	-0.479839
H207	H	0.700967	0.525819	-0.508878
H208	H	0.692210	0.430761	-0.521509
N209	N	0.559304	0.739777	0.782418
H210	H	0.548016	0.801811	0.843253
H211	H	0.540314	0.700939	0.777186
N212	N	0.632644	0.151956	0.246585
H213	H	0.622888	0.096723	0.232438
H214	H	0.666195	0.125460	0.219639
N215	N	0.779755	0.413335	-0.474719
H216	H	0.810838	0.388722	-0.460531
H217	H	0.771678	0.356803	-0.517283
N218	N	0.448121	0.535354	-0.021164
H219	H	0.457875	0.590589	-0.007016
H220	H	0.453304	0.492204	-0.089273
N221	N	0.587614	0.584247	0.593303
H222	H	0.595651	0.540120	0.525058
H223	H	0.615982	0.571580	0.619867
N224	N	-0.119940	1.107226	0.285154
H225	H	-0.109081	1.161462	0.320645
H226	H	-0.141284	1.123664	0.246417
H227	H	-0.241373	0.688279	0.011009
H228	H	0.337547	1.166177	0.236760
N229	N	0.388677	0.665703	-0.003705
H230	H	0.377820	0.611465	-0.039201
H231	H	0.405407	0.674679	-0.047316
N232	N	0.104758	1.107258	0.285182
H233	H	0.124730	1.098369	0.328855
H234	H	0.120094	1.123745	0.246453
H235	H	0.506573	0.143322	0.063624
H236	H	-0.161096	0.688278	0.011006
N237	N	0.108772	0.580055	-0.059803
H238	H	0.139379	0.525827	-0.095287
H239	H	0.093407	0.563608	-0.021075
N240	N	0.639002	1.117071	0.359466
H241	H	0.659971	1.153129	0.370151
H242	H	0.657039	1.045588	0.317759
H243	H	-0.217664	0.998975	0.214325
H244	H	0.022768	1.084626	0.270365
N245	N	0.821402	0.367539	-0.043653
H246	H	0.843761	0.308286	-0.044807
H247	H	0.819059	0.352589	-0.107992
H248	H	0.286041	1.228715	0.527912
H249	H	-0.029710	1.084602	0.270361
N250	N	0.301030	1.274019	0.700135
H251	H	0.269947	1.298633	0.685948
H252	H	0.300347	1.235497	0.729989
N253	N	0.808324	0.256226	0.034135
H254	H	0.797794	0.226425	0.065159
H255	H	0.820177	0.207216	-0.032814
H256	H	0.446795	0.565880	-0.156074
N257	N	0.231899	1.021636	0.229195
H258	H	0.235092	1.046359	0.294863
H259	H	0.230498	1.071714	0.212447
N260	N	0.323875	1.021649	0.229214
H261	H	0.357627	1.008651	0.220710
H262	H	0.307025	1.071748	0.212507
H263	H	0.058027	0.602680	-0.045005
N264	N	0.544416	0.625169	-0.312041
H265	H	0.571915	0.602754	-0.286837
H266	H	0.554693	0.605839	-0.376986
N267	N	0.520801	0.502312	-0.479780
H268	H	0.541771	0.538372	-0.469081
H269	H	0.538840	0.430830	-0.521492
H270	H	-0.022246	0.602684	-0.045008
N271	N	0.457665	0.413400	-0.474687
H272	H	0.474319	0.409548	-0.527734
H273	H	0.466911	0.346477	-0.483603
N274	N	0.418153	0.447343	-0.301842
H275	H	0.413843	0.407418	-0.365589
H276	H	0.431041	0.404365	-0.275413
N277	N	0.511797	1.000757	0.603880
H278	H	0.498614	1.073190	0.631040
H279	H	0.543042	0.972280	0.565071
N280	N	0.738529	0.570173	-0.134130
H281	H	0.772624	0.534103	-0.144829
H282	H	0.730549	0.641653	-0.092419
N283	N	0.483489	1.156289	0.792997
H284	H	0.475460	1.200416	0.861242
H285	H	0.507242	1.168965	0.766427
H286	H	0.495255	1.091634	0.914248
