data_functionalizedCrystal
_audit_creation_method	'MofGen! by Chris Wilmer'
_symmetry_space_group_name_H-M	'P1'
_symmetry_Int_Tables_number	1
_symmetry_cell_setting	triclinic
loop_
_symmetry_equiv_pos_as_xyz
  x,y,z
_cell_length_a	14.044220
_cell_length_b	10.540539
_cell_length_c	13.101039
_cell_angle_alpha	93.398267
_cell_angle_beta	86.340132
_cell_angle_gamma	88.857185
loop_
_atom_site_label
_atom_site_type_symbol
_atom_site_fract_x
_atom_site_fract_y
_atom_site_fract_z
O1	O	1.264944	0.299850	-0.085096
O2	O	0.988901	0.288796	-0.085123
O3	O	1.133220	0.110253	-0.085108
O4	O	1.120625	0.478393	-0.085111
O5	O	1.122866	0.123087	0.085321
O6	O	0.978547	0.301630	0.085306
O7	O	1.254589	0.312683	0.085332
Zn8	Zn	1.114924	0.309194	0.112379
Zn9	Zn	1.128566	0.292285	-0.112169
O10	O	1.110270	0.491226	0.085317
C11	C	0.948377	0.290375	0.000088
C12	C	0.843054	0.275945	0.000078
C13	C	1.127098	0.069271	0.000105
C14	C	1.124273	-0.071963	0.000099
C15	C	0.650213	0.249565	0.000099
C16	C	0.593272	0.351908	0.000102
C17	C	0.485969	0.337230	0.000114
C18	C	0.757526	0.264241	0.000087
C19	C	1.016007	-0.266367	-0.000294
C20	C	1.018849	-0.119430	0.000090
C21	C	1.169094	-0.121162	0.097427
C22	C	1.165492	-0.268064	0.097509
C23	C	1.179411	-0.282960	-0.096300
C24	C	1.180460	-0.135977	-0.097587
C25	C	1.295114	0.311104	0.000119
C26	C	1.400437	0.325534	0.000123
C27	C	1.116392	0.532208	0.000103
C28	C	1.119218	0.673442	0.000102
N29	N	1.105620	0.320734	0.265626
N30	N	1.137878	0.280737	-0.265416
C31	C	1.092962	0.336445	0.474667
C32	C	1.150533	0.265029	0.525549
C33	C	1.143490	0.273771	0.641867
C34	C	1.100004	0.327705	0.358339
H35	H	0.618376	0.150932	0.000105
H36	H	1.038389	0.404149	0.518459
C37	C	0.635906	0.483325	0.000011
C38	C	0.735407	0.471946	-0.000038
C39	C	0.774719	0.592972	-0.000150
H40	H	0.611930	0.532781	0.059417
H41	H	0.619064	0.523678	-0.059455
H42	H	0.752240	0.431611	0.059422
H43	H	0.759409	0.422513	-0.059440
H44	H	0.757877	0.633326	-0.059616
H45	H	0.750736	0.642418	0.059257
H46	H	0.842234	0.585267	-0.000193
C47	C	0.971183	-0.075245	-0.092963
C48	C	0.939567	-0.180913	-0.150046
C49	C	0.895634	-0.140265	-0.235766
H50	H	1.015700	-0.030725	-0.134250
H51	H	0.918295	-0.020525	-0.071097
H52	H	0.992448	-0.235612	-0.171914
H53	H	0.895039	-0.225445	-0.108790
H54	H	0.842745	-0.085545	-0.213900
H55	H	0.940156	-0.095744	-0.277044
H56	H	0.874169	-0.211952	-0.274502
H57	H	1.147712	-0.104293	-0.169588
H58	H	1.205111	0.197322	0.481752
H59	H	0.970315	-0.295542	0.069103
H60	H	0.978603	-0.304433	-0.070090
C61	C	1.283406	-0.093817	-0.105211
C62	C	1.298934	-0.008916	-0.021962
C63	C	1.393764	0.029933	-0.028934
H64	H	1.295622	-0.052983	-0.167267
H65	H	1.324987	-0.165899	-0.104335
H66	H	1.257366	0.063154	-0.022847
H67	H	1.286739	-0.049722	0.040106
H68	H	1.435345	-0.042149	-0.028059
H69	H	1.405971	0.070762	-0.090994
H70	H	1.404315	0.087533	0.027552
H71	H	0.974402	-0.076477	0.069968
C72	C	1.109525	-0.303169	0.194537
C73	C	1.079274	-0.192169	0.252538
C74	C	1.027702	-0.224449	0.341920
H75	H	1.149068	-0.353001	0.233571
H76	H	1.055504	-0.350514	0.176786
H77	H	1.133288	-0.144844	0.270290
H78	H	1.039719	-0.142323	0.213535
H79	H	0.973681	-0.271795	0.324169
H80	H	1.067251	-0.274283	0.380945
H81	H	1.007163	-0.149143	0.381280
H82	H	1.241043	-0.308035	0.101931
C83	C	1.140064	-0.336961	-0.194780
C84	C	1.195252	-0.296346	-0.278960
C85	C	1.159031	-0.346080	-0.369688
H86	H	1.075888	-0.308030	-0.197920
H87	H	1.142251	-0.427191	-0.196089
H88	H	1.193055	-0.206135	-0.277652
H89	H	1.259428	-0.325276	-0.275853
H90	H	1.161218	-0.436310	-0.370997
H91	H	1.094855	-0.317145	-0.372818
H92	H	1.196475	-0.318540	-0.426814
C93	C	1.280931	-0.335982	-0.097235
C94	C	1.279454	-0.468950	-0.100947
C95	C	1.372952	-0.517845	-0.101815
H96	H	1.309314	-0.305552	-0.036879
H97	H	1.316973	-0.309398	-0.155679
H98	H	1.243426	-0.495523	-0.042509
H99	H	1.251090	-0.499415	-0.161299
H100	H	1.408993	-0.491260	-0.160259
H101	H	1.401327	-0.487405	-0.041458
H102	H	1.371962	-0.608067	-0.104343
H103	H	1.246295	-0.090708	0.101053
H104	H	1.129451	-0.076672	0.169848
