data_functionalizedCrystal
_audit_creation_method	'MofGen! by Chris Wilmer'
_symmetry_space_group_name_H-M	'P1'
_symmetry_Int_Tables_number	1
_symmetry_cell_setting	triclinic
loop_
_symmetry_equiv_pos_as_xyz
  x,y,z
_cell_length_a	19.077105
_cell_length_b	19.121063
_cell_length_c	19.076919
_cell_angle_alpha	85.393653
_cell_angle_beta	89.923776
_cell_angle_gamma	90.263052
loop_
_atom_site_label
_atom_site_type_symbol
_atom_site_fract_x
_atom_site_fract_y
_atom_site_fract_z
Zn1	Zn	1.043169	-0.339734	0.454309
Zn2	Zn	1.293169	-0.089734	0.704309
Zn3	Zn	1.543169	0.160266	0.954309
Zn4	Zn	1.793169	0.410266	1.204309
Zn5	Zn	1.042790	-0.452646	0.341419
Zn6	Zn	1.292790	-0.202646	0.591419
Zn7	Zn	1.542790	0.047354	0.841419
Zn8	Zn	1.792790	0.297354	1.091419
Zn9	Zn	0.930805	-0.330327	0.331718
Zn10	Zn	1.180805	-0.080327	0.581718
Zn11	Zn	1.430805	0.169673	0.831718
Zn12	Zn	1.680805	0.419673	1.081718
Zn13	Zn	0.920631	-0.452222	0.454155
Zn14	Zn	1.170631	-0.202222	0.704155
Zn15	Zn	1.420631	0.047778	0.954155
Zn16	Zn	1.670631	0.297778	1.204155
O17	O	0.984349	-0.393732	0.395400
O18	O	1.234349	-0.143732	0.645400
O19	O	1.484349	0.106268	0.895400
O20	O	1.734349	0.356268	1.145400
O21	O	1.141268	-0.358826	0.443459
O22	O	1.391268	-0.108826	0.693459
O23	O	1.641268	0.141174	0.943459
O24	O	1.891268	0.391174	1.193459
O25	O	1.032035	-0.432660	0.241647
O26	O	1.282035	-0.182660	0.491647
O27	O	1.532035	0.067340	0.741647
O28	O	1.782035	0.317340	0.991647
O29	O	0.950127	-0.233307	0.343985
O30	O	1.200127	0.016693	0.593985
O31	O	1.450127	0.266693	0.843985
O32	O	1.700127	0.516693	1.093985
O33	O	1.140989	-0.441782	0.360519
O34	O	1.390989	-0.191782	0.610519
O35	O	1.640989	0.058218	0.860519
O36	O	1.890989	0.308218	1.110519
O37	O	1.032681	-0.240219	0.434052
O38	O	1.282681	0.009781	0.684052
O39	O	1.532681	0.259781	0.934052
O40	O	1.782681	0.509781	1.184052
O41	O	0.949760	-0.342793	0.234520
O42	O	1.199760	-0.092793	0.484520
O43	O	1.449760	0.157207	0.734520
O44	O	1.699760	0.407207	0.984520
O45	O	0.831307	-0.342382	0.343835
O46	O	1.081307	-0.092382	0.593835
O47	O	1.331307	0.157618	0.843835
O48	O	1.581307	0.407618	1.093835
O49	O	0.932786	-0.441060	0.552660
O50	O	1.182786	-0.191060	0.802660
O51	O	1.432786	0.058940	1.052660
O52	O	1.682786	0.308940	1.302660
O53	O	0.823831	-0.431938	0.433788
O54	O	1.073831	-0.181938	0.683788
O55	O	1.323831	0.068062	0.933788
O56	O	1.573831	0.318062	1.183788
O57	O	1.022815	-0.358416	0.552774
O58	O	1.272815	-0.108416	0.802774
O59	O	1.522815	0.141584	1.052774
O60	O	1.772815	0.391584	1.302774
O61	O	1.022169	-0.550857	0.360369
O62	O	1.272169	-0.300857	0.610369
O63	O	1.522169	-0.050857	0.860369
O64	O	1.772169	0.199143	1.110369
O65	O	0.932419	-0.550546	0.443195
O66	O	1.182419	-0.300546	0.693195
O67	O	1.432419	-0.050546	0.943195
O68	O	1.682419	0.199454	1.193195
C69	C	0.802120	-0.386094	0.387742
C70	C	1.052120	-0.136094	0.637742
C71	C	1.302120	0.113906	0.887742
C72	C	1.552120	0.363906	1.137742
C73	C	0.724160	-0.382844	0.384484
C74	C	0.974160	-0.132844	0.634484
C75	C	1.224160	0.117156	0.884484
C76	C	1.474160	0.367156	1.134484
C77	C	0.683661	-0.428009	0.429719
C78	C	0.933661	-0.178009	0.679719
C79	C	1.183661	0.071991	0.929719
C80	C	1.433661	0.321991	1.179719
C81	C	0.610410	-0.424946	0.426660
C82	C	0.860410	-0.174946	0.676660
C83	C	1.110410	0.075054	0.926660
C84	C	1.360410	0.325054	1.176660
C85	C	0.577659	-0.376721	0.378362
C86	C	0.827659	-0.126721	0.628362
C87	C	1.077659	0.123279	0.878362
C88	C	1.327659	0.373279	1.128362
C89	C	0.618164	-0.331551	0.333125
C90	C	0.868164	-0.081551	0.583125
C91	C	1.118164	0.168449	0.833125
C92	C	1.368164	0.418449	1.083125
C93	C	0.691414	-0.334611	0.336188
C94	C	0.941414	-0.084611	0.586188
C95	C	1.191414	0.165389	0.836188
C96	C	1.441414	0.415389	1.086188
C97	C	0.359002	-0.362559	0.364190
C98	C	0.609002	-0.112559	0.614190
C99	C	0.859002	0.137441	0.864190
C100	C	1.109002	0.387441	1.114190
C101	C	0.285746	-0.359503	0.361130
C102	C	0.535746	-0.109503	0.611130
C103	C	0.785746	0.140497	0.861130
C104	C	1.035746	0.390497	1.111130
C105	C	0.277998	-0.452898	0.454666
C106	C	0.527998	-0.202898	0.704666
C107	C	0.777998	0.047102	0.954666
C108	C	1.027998	0.297102	1.204666
C109	C	0.351249	-0.455957	0.457722
C110	C	0.601249	-0.205957	0.707722
C111	C	0.851249	0.044043	0.957722
C112	C	1.101249	0.294043	1.207722
C113	C	0.391747	-0.410784	0.412487
C114	C	0.641747	-0.160784	0.662487
C115	C	0.891747	0.089216	0.912487
C116	C	1.141747	0.339216	1.162487
N117	N	0.502785	-0.373590	0.375233
N118	N	0.752785	-0.123590	0.625233
N119	N	1.002785	0.126410	0.875233
N120	N	1.252785	0.376410	1.125233
N121	N	0.466620	-0.413912	0.415620
N122	N	0.716620	-0.163912	0.665620
N123	N	0.966620	0.086088	0.915620
N124	N	1.216620	0.336088	1.165620
C125	C	0.976167	-0.576182	0.402834
C126	C	1.226167	-0.326182	0.652834
C127	C	1.476167	-0.076182	0.902834
C128	C	1.726167	0.173818	1.152834
C129	C	0.972730	-0.654239	0.406041
C130	C	1.222730	-0.404239	0.656041
C131	C	1.472730	-0.154239	0.906041
C132	C	1.722730	0.095761	1.156041
C133	C	1.017877	-0.691052	0.364463
C134	C	1.267877	-0.441052	0.614463
C135	C	1.517877	-0.191052	0.864463
C136	C	1.767877	0.058948	1.114463
C137	C	1.014648	-0.764395	0.367483
C138	C	1.264648	-0.514395	0.617483
C139	C	1.514648	-0.264395	0.867483
C140	C	1.764648	-0.014395	1.117483
C141	C	0.966269	-0.800923	0.412078
C142	C	1.216269	-0.550923	0.662078
C143	C	1.466269	-0.300923	0.912078
C144	C	1.716269	-0.050923	1.162078
C145	C	0.921120	-0.764105	0.453660
C146	C	1.171120	-0.514105	0.703660
C147	C	1.421120	-0.264105	0.953660
C148	C	1.671120	-0.014105	1.203660
C149	C	0.924353	-0.690764	0.450644
C150	C	1.174353	-0.440764	0.700644
C151	C	1.424353	-0.190764	0.950644
C152	C	1.674353	0.059236	1.200644
C153	C	0.954173	-1.022359	0.423346
C154	C	1.204173	-0.772359	0.673346
C155	C	1.454173	-0.522359	0.923346
C156	C	1.704173	-0.272359	1.173346
C157	C	0.950942	-1.095705	0.426358
C158	C	1.200942	-0.845705	0.676358
C159	C	1.450942	-0.595705	0.926358
C160	C	1.700942	-0.345705	1.176358
C161	C	1.044471	-1.095990	0.340181
C162	C	1.294471	-0.845990	0.590181
C163	C	1.544471	-0.595990	0.840181
C164	C	1.794471	-0.345990	1.090181
C165	C	1.047697	-1.022647	0.337165
C166	C	1.297697	-0.772647	0.587165
C167	C	1.547697	-0.522647	0.837165
C168	C	1.797697	-0.272647	1.087165
C169	C	1.002551	-0.985836	0.378750
C170	C	1.252551	-0.735836	0.628750
C171	C	1.502551	-0.485836	0.878750
C172	C	1.752551	-0.235836	1.128750
C173	C	0.962966	-0.875891	0.415164
C174	C	1.212966	-0.625891	0.665164
C175	C	1.462966	-0.375891	0.915164
C176	C	1.712966	-0.125891	1.165164
C177	C	1.005857	-0.910869	0.375667
C178	C	1.255857	-0.660869	0.625667
C179	C	1.505857	-0.410869	0.875667
C180	C	1.755857	-0.160869	1.125667
C181	C	1.167289	-0.401401	0.403088
C182	C	1.417289	-0.151401	0.653088
C183	C	1.667289	0.098599	0.903088
C184	C	1.917289	0.348599	1.153088
C185	C	1.245247	-0.404669	0.406365
C186	C	1.495247	-0.154669	0.656365
C187	C	1.745247	0.095331	0.906365
C188	C	1.995247	0.345331	1.156365
C189	C	0.976708	-0.400740	0.578967
C190	C	1.226708	-0.150740	0.828967
C191	C	1.476708	0.099260	1.078967
C192	C	1.726708	0.349260	1.328967
C193	C	0.973452	-0.403726	0.657192
C194	C	1.223452	-0.153726	0.907192
C195	C	1.473452	0.096274	1.157192
C196	C	1.723452	0.346274	1.407192
C197	C	0.992581	-0.210571	0.387953
C198	C	1.242581	0.039429	0.637953
C199	C	1.492581	0.289429	0.887953
C200	C	1.742581	0.539429	1.137953
C201	C	0.996089	-0.132518	0.384780
C202	C	1.246089	0.117482	0.634780
C203	C	1.496089	0.367482	0.884780
C204	C	1.746089	0.617482	1.134780
C205	C	0.992003	-0.386702	0.212547
C206	C	1.242003	-0.136702	0.462547
C207	C	1.492003	0.113298	0.712547
C208	C	1.742003	0.363298	0.962547
C209	C	0.995403	-0.383524	0.134320
C210	C	1.245403	-0.133524	0.384320
C211	C	1.495403	0.116476	0.634320
C212	C	1.745403	0.366476	0.884320
C213	C	1.018793	-0.362103	0.694003
C214	C	1.268793	-0.112103	0.944003
C215	C	1.518793	0.137897	1.194003
C216	C	1.768793	0.387897	1.444003
C217	C	1.015725	-0.364906	0.767503
C218	C	1.265725	-0.114906	1.017503
C219	C	1.515725	0.135094	1.267503
C220	C	1.765725	0.385094	1.517503
C221	C	0.967319	-0.409336	0.804192
C222	C	1.217319	-0.159336	1.054192
C223	C	1.467319	0.090664	1.304192
C224	C	1.717319	0.340664	1.554192
C225	C	0.921973	-0.450962	0.767376
C226	C	1.171973	-0.200962	1.017376
C227	C	1.421973	0.049038	1.267376
C228	C	1.671973	0.299038	1.517376
C229	C	0.925038	-0.448154	0.693877
C230	C	1.175038	-0.198154	0.943877
C231	C	1.425038	0.051846	1.193877
C232	C	1.675038	0.301846	1.443877
C233	C	0.953123	-0.422342	1.024005
C234	C	1.203123	-0.172342	1.274005
C235	C	1.453123	0.077658	1.524005
C236	C	1.703123	0.327658	1.774005
C237	C	0.950063	-0.425148	1.097510
C238	C	1.200063	-0.175148	1.347510
C239	C	1.450063	0.074852	1.597510
C240	C	1.700063	0.324852	1.847510
C241	C	1.043814	-0.339090	1.097632
C242	C	1.293814	-0.089090	1.347632
C243	C	1.543814	0.160910	1.597632
C244	C	1.793814	0.410910	1.847632
C245	C	1.046877	-0.336290	1.024131
C246	C	1.296877	-0.086290	1.274131
C247	C	1.546877	0.163710	1.524131
C248	C	1.796877	0.413710	1.774131
C249	C	1.001529	-0.377913	0.987321
C250	C	1.251529	-0.127913	1.237321
C251	C	1.501529	0.122087	1.487321
C252	C	1.751529	0.372087	1.737321
N253	N	0.964183	-0.412204	0.879321
N254	N	1.214183	-0.162204	1.129321
N255	N	1.464183	0.087796	1.379321
N256	N	1.714183	0.337796	1.629321
N257	N	1.004662	-0.375041	0.912193
N258	N	1.254662	-0.125041	1.162193
N259	N	1.504662	0.124959	1.412193
N260	N	1.754662	0.374959	1.662193
H261	H	0.245016	-0.489674	0.491494
H262	H	0.495016	-0.239674	0.741494
H263	H	0.745016	0.010326	0.991494
H264	H	0.995016	0.260326	1.241494
F265	F	0.898537	-0.472436	1.136555
F266	F	1.148537	-0.222436	1.386555
F267	F	1.398537	0.027564	1.636555
F268	F	1.648537	0.277564	1.886555
F269	F	0.876778	-0.492454	0.654700
F270	F	1.126778	-0.242454	0.904700
F271	F	1.376778	0.007546	1.154700
F272	F	1.626778	0.257546	1.404700
F273	F	0.250893	-0.308177	0.309718
F274	F	0.500893	-0.058177	0.559718
F275	F	0.750893	0.191823	0.809718
F276	F	1.000893	0.441823	1.059718
F277	F	0.567311	-0.473017	0.474806
F278	F	0.817311	-0.223017	0.724806
F279	F	1.067311	0.026983	0.974806
F280	F	1.317311	0.276983	1.224806
H281	H	0.911554	-1.125446	0.462685
H282	H	1.161554	-0.875446	0.712685
H283	H	1.411554	-0.625446	0.962685
H284	H	1.661554	-0.375446	1.212685
F285	F	0.906123	-0.983191	0.467604
F286	F	1.156123	-0.733191	0.717604
F287	F	1.406123	-0.483191	0.967604
F288	F	1.656123	-0.233191	1.217604
H289	H	0.591493	-0.292282	0.293803
H290	H	0.841493	-0.042282	0.543803
H291	H	1.091493	0.207718	0.793803
H292	H	1.341493	0.457718	1.043803
H293	H	1.051411	-0.794364	0.333625
H294	H	1.301411	-0.544364	0.583625
H295	H	1.551411	-0.294364	0.833625
H296	H	1.801411	-0.044364	1.083625
F297	F	0.869635	-0.802984	0.501126
F298	F	1.119635	-0.552984	0.751126
F299	F	1.369635	-0.302984	1.001126
F300	F	1.619635	-0.052984	1.251126
H301	H	1.058212	-0.325924	0.664136
H302	H	1.308212	-0.075924	0.914136
H303	H	1.558212	0.174076	1.164136
H304	H	1.808212	0.424076	1.414136
H305	H	0.887591	-0.660792	0.484502
H306	H	1.137591	-0.410792	0.734502
H307	H	1.387591	-0.160792	0.984502
H308	H	1.637591	0.089208	1.234502
H309	H	1.045250	-0.881126	0.339361
H310	H	1.295250	-0.631126	0.589361
H311	H	1.545250	-0.381126	0.839361
H312	H	1.795250	-0.131126	1.089361
F313	F	1.099196	-0.983776	0.289709
F314	F	1.349196	-0.733776	0.539709
F315	F	1.599196	-0.483776	0.789709
F316	F	1.849196	-0.233776	1.039709
H317	H	1.081228	-1.125969	0.306326
H318	H	1.331228	-0.875969	0.556326
H319	H	1.581228	-0.625969	0.806326
H320	H	1.831228	-0.375969	1.056326
H321	H	1.086296	-0.300112	0.994264
H322	H	1.336296	-0.050112	1.244264
H323	H	1.586296	0.199888	1.494264
H324	H	1.836296	0.449888	1.744264
H325	H	0.377909	-0.495228	0.497049
H326	H	0.627909	-0.245228	0.747049
H327	H	0.877909	0.004772	0.997049
H328	H	1.127909	0.254772	1.247049
H329	H	0.391967	-0.325781	0.327352
H330	H	0.641967	-0.075781	0.577352
H331	H	0.891967	0.174219	0.827352
H332	H	1.141967	0.424219	1.077352
H333	H	0.923575	-0.905641	0.451472
H334	H	1.173575	-0.655641	0.701472
H335	H	1.423575	-0.405641	0.951472
H336	H	1.673575	-0.155641	1.201472
H337	H	0.724388	-0.297829	0.299356
H338	H	0.974388	-0.047829	0.549356
H339	H	1.224388	0.202171	0.799356
H340	H	1.474388	0.452171	1.049356
F341	F	1.069365	-0.652182	0.316994
F342	F	1.319365	-0.402182	0.566994
F343	F	1.569365	-0.152182	0.816994
F344	F	1.819365	0.097818	1.066994
H345	H	1.052648	-0.331013	0.797471
H346	H	1.302648	-0.081013	1.047471
H347	H	1.552648	0.168987	1.297471
H348	H	1.802648	0.418987	1.547471
F349	F	1.092071	-0.294794	1.136812
F350	F	1.342071	-0.044794	1.386812
F351	F	1.592071	0.205206	1.636812
F352	F	1.842071	0.455206	1.886812
H353	H	0.916207	-0.456245	0.994044
H354	H	1.166207	-0.206245	1.244044
H355	H	1.416207	0.043755	1.494044
H356	H	1.666207	0.293755	1.744044
H357	H	0.710321	-0.467281	0.469046
H358	H	0.960321	-0.217281	0.719046
H359	H	1.210321	0.032719	0.969046
H360	H	1.460321	0.282719	1.219046
F361	F	0.870453	-0.498245	0.806425
F362	F	1.120453	-0.248245	1.056425
F363	F	1.370453	0.001755	1.306425
F364	F	1.620453	0.251755	1.556425
