data_functionalizedCrystal
_audit_creation_method	'MofGen! by Chris Wilmer'
_symmetry_space_group_name_H-M	'P1'
_symmetry_Int_Tables_number	1
_symmetry_cell_setting	triclinic
loop_
_symmetry_equiv_pos_as_xyz
  x,y,z
_cell_length_a	14.971482
_cell_length_b	15.944493
_cell_length_c	14.048226
_cell_angle_alpha	89.999441
_cell_angle_beta	89.994098
_cell_angle_gamma	83.543826
loop_
_atom_site_label
_atom_site_type_symbol
_atom_site_fract_x
_atom_site_fract_y
_atom_site_fract_z
O1	O	1.186807	0.109451	-0.079136
O2	O	1.686807	0.609451	0.420864
O3	O	0.926389	0.122563	-0.079139
O4	O	1.426389	0.622563	0.420861
O5	O	1.063736	-0.006264	-0.079145
O6	O	1.563736	0.493736	0.420855
O7	O	1.049459	0.238279	-0.079129
O8	O	1.549459	0.738279	0.420871
O9	O	1.063720	-0.006272	0.079176
O10	O	1.563720	0.493728	0.579176
O11	O	0.926373	0.122556	0.079183
O12	O	1.426373	0.622556	0.579183
O13	O	1.186790	0.109444	0.079186
O14	O	1.686790	0.609444	0.579186
Zn15	Zn	1.056579	0.115999	0.104321
Zn16	Zn	1.556579	0.615999	0.604321
Zn17	Zn	1.056600	0.116009	-0.104274
Zn18	Zn	1.556600	0.616009	0.395726
O19	O	1.049443	0.238271	0.079192
O20	O	1.549443	0.738271	0.579192
C21	C	0.893057	0.121974	0.000021
C22	C	1.393057	0.621974	0.500021
C23	C	0.793762	0.120218	0.000020
C24	C	1.293762	0.620218	0.500020
C25	C	0.747109	0.119387	0.086321
C26	C	1.247109	0.619387	0.586321
C27	C	0.653813	0.117724	0.086322
C28	C	1.153813	0.617724	0.586322
C29	C	0.607170	0.116898	0.000020
C30	C	1.107170	0.616898	0.500020
C31	C	0.653830	0.117727	-0.086288
C32	C	1.153830	0.617727	0.413712
C33	C	0.747125	0.119384	-0.086288
C34	C	1.247125	0.619384	0.413712
C35	C	0.459372	0.114275	-0.086282
C36	C	0.959372	0.614275	0.413718
C37	C	0.366070	0.112620	-0.086283
C38	C	0.866070	0.612620	0.413717
C39	C	0.366060	0.112616	0.086328
C40	C	0.866060	0.612616	0.586328
C41	C	0.459356	0.114273	0.086328
C42	C	0.959356	0.614273	0.586328
C43	C	0.506008	0.115103	0.000019
C44	C	1.006008	0.615103	0.500019
C45	C	1.063145	-0.037563	0.000012
C46	C	1.563145	0.462437	0.500012
C47	C	1.061395	-0.130813	-0.000000
C48	C	1.561395	0.369187	0.500000
C49	C	1.142241	-0.366497	0.000019
C50	C	1.642241	0.133503	0.500019
C51	C	1.098652	-0.417103	-0.078042
C52	C	1.598652	0.082897	0.421958
C53	C	1.058154	-0.301538	0.000011
C54	C	1.558154	0.198462	0.500011
C55	C	1.098616	-0.417086	0.078050
C56	C	1.598616	0.082914	0.578050
C57	C	1.055029	-0.466450	0.000027
C58	C	1.555029	0.033550	0.500027
C59	C	1.014587	-0.350915	-0.078114
C60	C	1.514587	0.149085	0.421886
C61	C	1.014564	-0.350895	0.078049
C62	C	1.514564	0.149105	0.578049
C63	C	0.970913	-0.401467	-0.000031
C64	C	1.470913	0.098533	0.499969
C65	C	1.059956	-0.206536	0.000001
C66	C	1.559956	0.293464	0.500001
C67	C	1.053219	-0.561449	0.000029
C68	C	1.553219	-0.061449	0.500029
C69	C	1.220122	0.110033	0.000024
C70	C	1.720122	0.610033	0.500024
C71	C	1.319417	0.111789	0.000019
C72	C	1.819417	0.611789	0.500019
C73	C	1.050035	0.269570	0.000033
C74	C	1.550035	0.769570	0.500033
C75	C	1.051784	0.362821	0.000039
C76	C	1.551784	0.862821	0.500039
N77	N	1.056570	0.115991	0.246682
N78	N	1.556570	0.615991	0.746682
N79	N	1.056616	0.116009	-0.246635
N80	N	1.556616	0.616009	0.253365
C81	C	1.117407	0.058970	0.296497
C82	C	1.617407	0.558970	0.796497
C83	C	1.117413	0.058970	0.396155
C84	C	1.617413	0.558970	0.896155
C85	C	1.056586	0.115995	0.445995
C86	C	1.556586	0.615995	0.945995
C87	C	0.995743	0.173019	0.396173
C88	C	1.495743	0.673019	0.896173
C89	C	0.995734	0.173015	0.296517
C90	C	1.495734	0.673015	0.796517
C91	C	0.995769	0.173025	0.603887
C92	C	1.495769	0.673025	1.103887
C93	C	0.995779	0.173031	0.703550
C94	C	1.495779	0.673031	1.203550
C95	C	1.117448	0.058980	0.703525
C96	C	1.617448	0.558980	1.203525
C97	C	1.117439	0.058976	0.603869
C98	C	1.617439	0.558976	1.103869
C99	C	1.056597	0.116001	0.554054
C100	C	1.556597	0.616001	1.054054
H101	H	0.497329	0.114950	0.156603
H102	H	0.997329	0.614950	0.656603
H103	H	1.166950	0.012538	0.436714
H104	H	1.666950	0.512538	0.936714
N105	N	0.603492	0.116825	0.179403
N106	N	1.103492	0.616825	0.679403
H107	H	0.647274	0.117008	0.234075
H108	H	1.147274	0.617008	0.734075
H109	H	0.557948	0.168472	0.183454
H110	H	1.057948	0.668472	0.683454
H111	H	1.214671	-0.350801	-0.000059
H112	H	1.714671	0.149199	0.499941
H113	H	0.615846	0.117048	-0.156557
H114	H	1.115846	0.617048	0.343443
N115	N	0.930116	0.234521	0.242791
N116	N	1.430116	0.734521	0.742791
H117	H	0.964278	0.271765	0.201431
H118	H	1.464278	0.771765	0.701431
H119	H	0.890532	0.202296	0.201514
H120	H	1.390532	0.702296	0.701514
N121	N	1.182999	-0.002553	0.242747
N122	N	1.682999	0.497447	0.742747
H123	H	1.173761	0.006091	0.172056
H124	H	1.673761	0.506091	0.672056
H125	H	1.246454	0.007235	0.260145
H126	H	1.746454	0.507235	0.760145
N127	N	0.797413	0.120287	0.179405
N128	N	1.297413	0.620287	0.679405
H129	H	0.753698	0.119507	0.234077
H130	H	1.253698	0.619507	0.734077
H131	H	0.843386	0.068943	0.183164
H132	H	1.343386	0.568943	0.683164
H133	H	1.166988	0.012548	0.744090
H134	H	1.666988	0.512548	1.244090
H135	H	1.166973	0.012545	0.563289
H136	H	1.666973	0.512545	1.063289
N137	N	1.145692	-0.455401	-0.165460
N138	N	1.645692	0.044599	0.334540
H139	H	1.210371	-0.442975	-0.165403
H140	H	1.710371	0.057025	0.334597
H141	H	1.143561	-0.518486	-0.165069
H142	H	1.643561	-0.018486	0.334931
N143	N	0.967581	-0.312789	-0.165625
N144	N	1.467581	0.187211	0.334375
H145	H	0.969093	-0.249622	-0.165104
H146	H	1.469093	0.250378	0.334896
H147	H	0.999115	-0.337542	-0.224468
H148	H	1.499115	0.162458	0.275532
H149	H	0.946247	0.219466	0.744125
H150	H	1.446247	0.719466	1.244125
N151	N	0.874913	-0.422088	-0.000105
N152	N	1.374913	0.077912	0.499895
H153	H	0.843281	-0.397789	-0.059100
H154	H	1.343281	0.102211	0.440900
H155	H	0.874350	-0.485367	0.000484
H156	H	1.374350	0.014633	0.500484
N157	N	0.967552	-0.312577	0.165465
N158	N	1.467552	0.187423	0.665465
H159	H	0.999381	-0.336765	0.224403
H160	H	1.499381	0.163235	0.724403
H161	H	0.968603	-0.249361	0.164390
H162	H	1.468603	0.250639	0.664390
H163	H	0.497354	0.114952	-0.156564
H164	H	0.997354	0.614952	0.343436
N165	N	1.145659	-0.455369	0.165465
N166	N	1.645659	0.044631	0.665465
H167	H	1.210336	-0.442935	0.165391
H168	H	1.710336	0.057065	0.665391
H169	H	1.114493	-0.430333	0.224376
H170	H	1.614493	0.069667	0.724376
N171	N	0.797449	0.120274	-0.179370
N172	N	1.297449	0.620274	0.320630
H173	H	0.753746	0.119499	-0.234043
H174	H	1.253746	0.619499	0.265957
H175	H	0.828898	0.172991	-0.183131
H176	H	1.328898	0.672991	0.316869
N177	N	0.930146	0.234534	0.550162
N178	N	1.430146	0.734534	1.050162
H179	H	0.964314	0.271776	0.508804
H180	H	1.464314	0.771776	1.008804
H181	H	0.890561	0.202313	0.508882
H182	H	1.390561	0.702313	1.008882
N183	N	0.315744	0.111724	0.179418
N184	N	0.815744	0.611724	0.679418
H185	H	0.249410	0.111731	0.166327
H186	H	0.749410	0.611731	0.666327
H187	H	0.338448	0.059382	0.216526
H188	H	0.838448	0.559382	0.716526
N189	N	0.315758	0.111734	-0.179363
N190	N	0.815758	0.611734	0.320637
H191	H	0.359468	0.112506	-0.234039
H192	H	0.859468	0.612506	0.265961
H193	H	0.284308	0.059016	-0.183119
H194	H	0.784308	0.559016	0.316881
N195	N	0.930141	0.234524	0.449934
N196	N	1.430141	0.734524	0.949934
H197	H	0.940425	0.294157	0.432582
H198	H	1.440425	0.794157	0.932582
H199	H	0.866690	0.224678	0.432589
H200	H	1.366690	0.724678	0.932589
