data_functionalizedCrystal
_audit_creation_method	'MofGen! by Chris Wilmer'
_symmetry_space_group_name_H-M	'P1'
_symmetry_Int_Tables_number	1
_symmetry_cell_setting	triclinic
loop_
_symmetry_equiv_pos_as_xyz
  x,y,z
_cell_length_a	19.077236
_cell_length_b	19.077078
_cell_length_c	17.077396
_cell_angle_alpha	87.735096
_cell_angle_beta	92.321175
_cell_angle_gamma	94.710072
loop_
_atom_site_label
_atom_site_type_symbol
_atom_site_fract_x
_atom_site_fract_y
_atom_site_fract_z
Zn1	Zn	1.066453	-0.237446	0.502323
Zn2	Zn	1.566453	0.262554	1.002323
Zn3	Zn	1.061620	-0.355343	0.376108
Zn4	Zn	1.561620	0.144657	0.876108
Zn5	Zn	0.948561	-0.242196	0.365991
Zn6	Zn	1.448561	0.257804	0.865991
Zn7	Zn	0.943786	-0.360025	0.502252
Zn8	Zn	1.443786	0.139975	1.002252
O9	O	1.005105	-0.298753	0.436668
O10	O	1.505105	0.201247	0.936668
O11	O	1.164464	-0.249138	0.489844
O12	O	1.664464	0.250862	0.989844
O13	O	1.046599	-0.340363	0.264919
O14	O	1.546599	0.159637	0.764919
O15	O	0.968221	-0.142914	0.379872
O16	O	1.468221	0.357086	0.879872
O17	O	1.160914	-0.335756	0.397114
O18	O	1.660914	0.164244	0.897114
O19	O	1.054835	-0.139424	0.480034
O20	O	1.554835	0.360576	0.980034
O21	O	0.963535	-0.257234	0.257486
O22	O	1.463535	0.242766	0.757486
O23	O	0.849275	-0.261774	0.379803
O24	O	1.349275	0.238226	0.879803
O25	O	0.960082	-0.343736	0.612108
O26	O	1.460082	0.156264	1.112108
O27	O	0.845767	-0.348342	0.479913
O28	O	1.345767	0.151658	0.979913
O29	O	1.050205	-0.253677	0.612160
O30	O	1.550205	0.246323	1.112160
O31	O	1.041968	-0.454616	0.397046
O32	O	1.541968	0.045384	0.897046
O33	O	0.955396	-0.458056	0.489723
O34	O	1.455396	0.041944	0.989723
C35	C	0.821942	-0.306082	0.428753
C36	C	1.321942	0.193918	0.928753
C37	C	0.743583	-0.309235	0.425386
C38	C	1.243583	0.190765	0.925386
C39	C	0.997659	-0.481915	0.444492
C40	C	1.497659	0.018085	0.944492
C41	C	0.994537	-0.560270	0.447869
C42	C	1.494537	-0.060270	0.947869
C43	C	0.972149	-1.001520	0.472112
C44	C	1.472149	-0.501520	0.972112
C45	C	0.975082	-0.927897	0.468931
C46	C	1.475082	-0.427897	0.968931
C47	C	1.021655	-0.889272	0.419126
C48	C	1.521655	-0.389272	0.919126
C49	C	1.065304	-0.924274	0.372505
C50	C	1.565304	-0.424274	0.872505
C51	C	1.062375	-0.997895	0.375690
C52	C	1.562375	-0.497895	0.875690
C53	C	1.035257	-0.668893	0.404433
C54	C	1.535257	-0.168893	0.904433
C55	C	1.038182	-0.595267	0.401249
C56	C	1.538182	-0.095267	0.901249
C57	C	0.947960	-0.598895	0.497677
C58	C	1.447960	-0.098895	0.997677
C59	C	0.945031	-0.672517	0.500854
C60	C	1.445031	-0.172517	1.000854
C61	C	0.988683	-0.707513	0.454236
C62	C	1.488683	-0.207513	0.954236
N63	N	1.024652	-0.814018	0.415872
N64	N	1.524652	-0.314018	0.915872
N65	N	0.985689	-0.782765	0.457495
N66	N	1.485689	-0.282765	0.957495
C67	C	0.708616	-0.265690	0.472163
C68	C	1.208616	0.234310	0.972163
C69	C	0.634990	-0.268649	0.468992
C70	C	1.134990	0.231351	0.968992
C71	C	0.596332	-0.315157	0.419048
C72	C	1.096332	0.184843	0.919048
C73	C	0.631304	-0.358704	0.372266
C74	C	1.131304	0.141296	0.872266
C75	C	0.704929	-0.355741	0.375433
C76	C	1.204929	0.144259	0.875433
C77	C	0.375938	-0.328843	0.404387
C78	C	0.875938	0.171157	0.904387
C79	C	0.302308	-0.331804	0.401225
C80	C	0.802308	0.168196	0.901225
C81	C	0.306000	-0.241748	0.497951
C82	C	0.806000	0.258252	0.997951
C83	C	0.379626	-0.238792	0.501117
C84	C	0.879626	0.261208	1.001117
C85	C	0.414592	-0.282337	0.454332
C86	C	0.914592	0.217663	0.954332
N87	N	0.521074	-0.318184	0.415808
N88	N	1.021074	0.181816	0.915808
N89	N	0.489848	-0.279305	0.457568
N90	N	0.989848	0.220695	0.957568
C91	C	1.188983	-0.291395	0.444616
C92	C	1.688983	0.208605	0.944616
C93	C	1.267342	-0.288259	0.448002
C94	C	1.767342	0.211741	0.948002
C95	C	1.005150	-0.298699	0.641412
C96	C	1.505150	0.201301	1.141412
C97	C	1.005169	-0.298676	0.728662
C98	C	1.505169	0.201324	1.228662
C99	C	1.012600	-0.114874	0.428832
C100	C	1.512600	0.385126	0.928832
C101	C	1.015793	-0.036516	0.425493
C102	C	1.515793	0.463484	0.925493
C103	C	1.005103	-0.298754	0.232721
C104	C	1.505103	0.201246	0.732721
C105	C	1.005229	-0.298572	0.145469
C106	C	1.505229	0.201428	0.645469
C107	C	1.052098	-0.251779	0.769681
C108	C	1.552098	0.248221	1.269681
C109	C	1.052107	-0.251755	0.851660
C110	C	1.552107	0.248245	1.351660
C111	C	1.005191	-0.298632	0.892621
C112	C	1.505191	0.201368	1.392621
C113	C	0.958257	-0.345532	0.851596
C114	C	1.458257	0.154468	1.351596
C115	C	0.958244	-0.345552	0.769618
C116	C	1.458244	0.154448	1.269618
C117	C	0.958287	-0.345488	1.022466
C118	C	1.458287	0.154512	1.522466
C119	C	0.958300	-0.345470	1.104450
C120	C	1.458300	0.154530	1.604450
C121	C	1.052149	-0.251692	1.104509
C122	C	1.552149	0.248308	1.604509
C123	C	1.052137	-0.251712	1.022530
C124	C	1.552137	0.248288	1.522530
C125	C	1.005204	-0.298612	0.981511
C126	C	1.505204	0.201388	1.481511
H127	H	0.934225	-1.032963	0.512670
H128	H	1.434225	-0.532963	1.012670
F129	F	1.102100	-0.201777	1.148164
F130	F	1.602100	0.298223	1.648164
F131	F	1.081715	-0.706128	0.354816
F132	F	1.581715	-0.206128	0.854816
F133	F	1.102078	-0.201864	0.895314
F134	F	1.602078	0.298136	1.395314
F135	F	0.742142	-0.402088	0.325647
F136	F	1.242142	0.097912	0.825647
F137	F	1.087747	-0.554161	0.348229
F138	F	1.587747	-0.054161	0.848229
F139	F	0.749753	-0.216193	0.525324
F140	F	1.249753	0.283807	1.025324
F141	F	0.908322	-0.395420	0.895191
F142	F	1.408322	0.104580	1.395191
H143	H	0.920023	-0.383734	0.736221
H144	H	1.420023	0.116266	1.236221
H145	H	0.411097	-0.200923	0.541790
H146	H	0.911097	0.299077	1.041790
F147	F	0.413142	-0.375175	0.354579
F148	F	0.913142	0.124825	0.854579
H149	H	1.090345	-0.213544	0.989183
H150	H	1.590345	0.286456	1.489183
F151	F	0.597779	-0.222303	0.518781
F152	F	1.097779	0.277697	1.018781
F153	F	1.102037	-0.201888	0.726095
F154	F	1.602037	0.298112	1.226095
H155	H	0.920095	-0.383640	1.137798
H156	H	1.420095	0.116360	1.637798
H157	H	0.920058	-0.383669	0.989070
H158	H	1.420058	0.116331	1.489070
H159	H	1.097917	-1.026388	0.337730
H160	H	1.597917	-0.526388	0.837730
H161	H	0.277523	-0.206296	0.536040
H162	H	0.777523	0.293704	1.036040
F163	F	0.590159	-0.408197	0.319107
F164	F	1.090159	0.091803	0.819107
F165	F	0.895469	-0.713619	0.553873
F166	F	1.395469	-0.213619	1.053873
F167	F	0.928631	-0.890654	0.518553
F168	F	1.428631	-0.390654	1.018553
H169	H	0.912421	-0.570395	0.535632
H170	H	1.412421	-0.070395	1.035632
F171	F	1.114876	-0.883164	0.319503
F172	F	1.614876	-0.383164	0.819503
F173	F	0.261166	-0.381320	0.348080
F174	F	0.761166	0.118680	0.848080
