data_functionalizedCrystal
_audit_creation_method	'MofGen! by Chris Wilmer'
_symmetry_space_group_name_H-M	'P1'
_symmetry_Int_Tables_number	1
_symmetry_cell_setting	triclinic
loop_
_symmetry_equiv_pos_as_xyz
  x,y,z
_cell_length_a	17.699104
_cell_length_b	10.654551
_cell_length_c	16.776229
_cell_angle_alpha	89.996205
_cell_angle_beta	89.991971
_cell_angle_gamma	83.888440
loop_
_atom_site_label
_atom_site_type_symbol
_atom_site_fract_x
_atom_site_fract_y
_atom_site_fract_z
O1	O	1.005079	0.158933	-0.066299
O2	O	0.784834	0.179567	-0.066297
O3	O	0.900020	-0.013577	-0.066299
O4	O	0.889893	0.352077	-0.066298
O5	O	0.900005	-0.013589	0.066278
O6	O	0.784819	0.179555	0.066280
O7	O	1.005064	0.158921	0.066277
Zn8	Zn	0.894939	0.169237	0.087328
Zn9	Zn	0.894959	0.169252	-0.087348
O10	O	0.889878	0.352066	0.066279
C11	C	0.756625	0.178817	-0.000008
C12	C	0.672594	0.176586	-0.000008
C13	C	0.148364	0.277373	-0.000016
C14	C	0.227321	0.279462	-0.000018
C15	C	0.275217	0.166080	-0.000018
C16	C	0.244153	0.050600	-0.000024
C17	C	0.165197	0.048512	-0.000027
C18	C	0.562573	0.059017	-0.000011
C19	C	0.641533	0.061114	-0.000005
C20	C	0.624696	0.289968	-0.000002
C21	C	0.545740	0.287880	-0.000005
C22	C	0.514683	0.172401	-0.000015
C23	C	0.429069	0.170137	-0.000014
C24	C	0.360830	0.168342	-0.000013
C25	C	0.899269	-0.060368	-0.000012
C26	C	0.897044	-0.199772	-0.000017
C27	C	0.896008	-0.265260	-0.072284
C28	C	0.893911	-0.396244	-0.072280
C29	C	0.893888	-0.396242	0.072262
C30	C	0.895980	-0.265259	0.072258
C31	C	0.897072	-0.199773	-0.144559
C32	C	0.896038	-0.265261	-0.216831
C33	C	0.893940	-0.396245	-0.216827
C34	C	0.892878	-0.461741	-0.144551
C35	C	1.033273	0.159671	-0.000013
C36	C	1.117304	0.161903	-0.000019
C37	C	0.890629	0.398856	-0.000009
C38	C	0.892855	0.538261	-0.000009
N39	N	0.894930	0.169225	0.206539
N40	N	0.894974	0.169254	-0.206559
C41	C	0.945951	0.083736	0.248255
C42	C	0.945955	0.083735	0.331707
C43	C	0.894942	0.169230	0.373442
C44	C	0.843916	0.254723	0.331720
C45	C	0.843909	0.254717	0.248269
C46	C	0.843944	0.254748	0.668267
C47	C	0.843957	0.254750	0.751723
C48	C	0.945990	0.083765	0.751705
C49	C	0.945982	0.083759	0.668255
C50	C	0.894954	0.169248	0.626540
C51	C	0.894949	0.169246	0.536051
C52	C	0.894950	0.169238	0.463929
H53	H	0.109371	0.369703	-0.000010
H54	H	0.987494	0.014121	0.214281
O55	O	0.654831	0.402179	0.000139
C56	C	0.664553	0.598450	0.068802
C57	C	0.630392	0.471410	0.068749
H58	H	0.644795	0.654470	0.124259
H59	H	0.729215	0.580546	0.068852
H60	H	0.644897	0.654422	0.013295
H61	H	0.649990	0.415373	0.124246
H62	H	0.565734	0.489402	0.068658
H63	H	0.139911	-0.045516	-0.000032
H64	H	0.252605	0.373490	-0.000023
O65	O	0.892832	-0.459661	0.142537
C66	C	0.893084	-0.445853	0.285903
C67	C	0.894260	-0.373873	0.206374
H68	H	0.894254	-0.376529	0.337535
H69	H	0.839221	-0.495494	0.289574
H70	H	0.944965	-0.518854	0.289472
H71	H	0.842416	-0.300813	0.202751
H72	H	0.948157	-0.324319	0.202736
H73	H	0.680530	-0.031222	-0.000008
H74	H	0.537296	-0.035012	-0.000017
O75	O	0.893031	-0.460020	-0.286977
C76	C	0.956156	-0.622269	-0.370879
C77	C	0.957266	-0.550167	-0.291395
H78	H	1.008092	-0.695152	-0.374485
H79	H	0.902338	-0.672032	-0.374507
H80	H	0.957238	-0.552927	-0.422519
H81	H	0.956212	-0.619425	-0.239710
H82	H	1.011080	-0.500385	-0.287837
O83	O	0.995597	0.000657	0.372107
C84	C	1.096793	-0.168960	0.363282
C85	C	1.040619	-0.074925	0.317432
H86	H	1.133197	-0.230111	0.319098
H87	H	1.134932	-0.114859	0.402313
H88	H	1.063792	-0.231587	0.402390
H89	H	1.073558	-0.012274	0.278281
H90	H	1.002481	-0.129105	0.278452
O91	O	0.499247	0.398054	-0.000148
C92	C	0.460747	0.593058	-0.068814
C93	C	0.513429	0.468318	-0.068756
H94	H	0.472206	0.649913	-0.124269
H95	H	0.398965	0.571807	-0.068868
H96	H	0.472105	0.649844	-0.013306
H97	H	0.502139	0.411471	-0.124255
H98	H	0.575194	0.489658	-0.068661
O99	O	0.290569	-0.059658	-0.000063
C100	C	0.298930	-0.286878	-0.000023
C101	C	0.246279	-0.162103	0.000001
H102	H	0.263143	-0.369738	0.000045
H103	H	0.336310	-0.291701	-0.055518
H104	H	0.336322	-0.291562	0.055448
H105	H	0.208840	-0.157336	-0.055434
H106	H	0.208950	-0.157333	0.055532
H107	H	0.898782	-0.093120	-0.144570
O108	O	0.896958	-0.201489	-0.286988
C109	C	0.833836	-0.039258	-0.370901
C110	C	0.832719	-0.111351	-0.291408
H111	H	0.781897	0.033617	-0.374508
H112	H	0.887652	0.010513	-0.374543
H113	H	0.832765	-0.108607	-0.422532
H114	H	0.833762	-0.042086	-0.239732
H115	H	0.778907	-0.161141	-0.287836
O116	O	0.995458	0.000445	0.627816
C117	C	1.038614	-0.218100	0.602535
C118	C	0.982531	-0.123820	0.648322
H119	H	1.028193	-0.318588	0.619110
H120	H	1.029903	-0.203665	0.535697
H121	H	1.099311	-0.201830	0.618945
H122	H	0.921812	-0.140032	0.631979
H123	H	0.991309	-0.138277	0.715149
O124	O	0.794290	0.337673	0.792230
C125	C	0.663081	0.411538	0.817768
C126	C	0.719239	0.317547	0.771858
H127	H	0.602390	0.395317	0.801301
H128	H	0.671790	0.396858	0.884587
H129	H	0.673496	0.512097	0.801361
H130	H	0.708858	0.216951	0.788198
H131	H	0.710517	0.332338	0.705050
H132	H	0.802396	0.324358	0.634309
H133	H	0.891159	-0.568394	-0.144554
H134	H	0.896807	-0.211935	0.131103
H135	H	0.802377	0.324331	0.365705
O136	O	0.995657	0.000828	0.792191
C137	C	1.126869	-0.073076	0.817653
C138	C	1.070706	0.020936	0.771773
H139	H	1.187557	-0.056869	0.801150
H140	H	1.118179	-0.058404	0.884477
H141	H	1.116439	-0.173628	0.801257
H142	H	1.081101	0.121524	0.788103
H143	H	1.079408	0.006153	0.704961
H144	H	0.802362	0.324330	0.214304
