data_functionalizedCrystal
_audit_creation_method	'MofGen! by Chris Wilmer'
_symmetry_space_group_name_H-M	'P1'
_symmetry_Int_Tables_number	1
_symmetry_cell_setting	triclinic
loop_
_symmetry_equiv_pos_as_xyz
  x,y,z
_cell_length_a	15.995288
_cell_length_b	11.792254
_cell_length_c	10.268362
_cell_angle_alpha	90.004525
_cell_angle_beta	89.999236
_cell_angle_gamma	96.167309
loop_
_atom_site_label
_atom_site_type_symbol
_atom_site_fract_x
_atom_site_fract_y
_atom_site_fract_z
O1	O	-0.114817	1.505908	0.108285
O2	O	-0.126634	1.175466	0.108286
O3	O	0.001124	1.349757	0.108292
O4	O	-0.242575	1.331617	0.108279
O5	O	0.001130	1.349742	-0.108309
O6	O	-0.126628	1.175451	-0.108314
O7	O	-0.114812	1.505892	-0.108316
Cu8	Cu	-0.120720	1.340670	-0.128092
Cu9	Cu	-0.120726	1.340688	0.128063
O10	O	-0.242570	1.331602	-0.108321
C11	C	-0.125887	1.133174	-0.000013
C12	C	-0.123659	1.007181	-0.000012
C13	C	-0.121848	0.904860	-0.000007
C14	C	-0.119585	0.776493	-0.000006
C15	C	0.032326	1.349012	-0.000004
C16	C	0.125289	1.346801	0.000009
C17	C	0.295492	1.342718	-0.000004
C18	C	0.342391	1.466814	-0.000002
C19	C	0.439089	1.464556	-0.000498
C20	C	0.463068	1.338700	-0.000015
C21	C	0.422218	1.277122	-0.123460
C22	C	0.325570	1.280256	-0.123558
C23	C	0.325296	1.278436	0.122766
C24	C	0.422241	1.278454	0.124383
C25	C	0.557774	1.336423	-0.000026
C26	C	0.200785	1.344992	-0.000002
C27	C	0.726230	1.332362	-0.000023
C28	C	0.633271	1.334617	-0.000028
C29	C	-0.115559	1.548184	-0.000013
C30	C	-0.117787	1.674178	-0.000005
N31	N	-0.120715	1.340666	-0.308258
C32	C	-0.120724	1.340683	-0.573929
C33	C	-0.120721	1.340670	-0.426091
N34	N	-0.120724	1.340702	0.308229
H35	H	0.467331	1.512942	0.087971
H36	H	0.322499	1.515968	-0.088327
H37	H	0.323682	1.516682	0.088521
C38	C	0.411622	1.570695	-0.192488
C39	C	0.476394	1.529564	-0.120660
H40	H	0.434654	1.610821	-0.266680
H41	H	0.383376	1.620655	-0.139702
H42	H	0.372917	1.508496	-0.219813
H43	H	0.515097	1.591764	-0.093327
H44	H	0.504654	1.479601	-0.173456
C45	C	0.232856	1.144267	-0.243046
C46	C	0.282559	1.157246	-0.130678
H47	H	0.206304	1.068328	-0.247441
H48	H	0.267285	1.159689	-0.317680
H49	H	0.191261	1.195970	-0.240209
H50	H	0.324158	1.105548	-0.133519
H51	H	0.248128	1.141811	-0.056025
H52	H	0.307048	1.324619	-0.216186
C53	C	0.490993	1.129079	-0.021596
C54	C	0.441826	1.152284	-0.129207
H55	H	0.503102	1.052011	-0.025150
H56	H	0.461163	1.141194	0.056281
H57	H	0.542065	1.178286	-0.022954
H58	H	0.390750	1.103083	-0.127843
H59	H	0.471655	1.140158	-0.207104
C60	C	0.195520	1.155618	0.129094
C61	C	0.282952	1.154927	0.124393
H62	H	0.169378	1.079371	0.130100
H63	H	0.177277	1.194020	0.054704
H64	H	0.180609	1.193916	0.205682
H65	H	0.297863	1.116636	0.047800
H66	H	0.301202	1.116509	0.198790
H67	H	0.450379	1.319365	-0.215674
C68	C	0.252999	1.426111	0.218298
C69	C	0.297376	1.333597	0.249121
H70	H	0.235767	1.460175	0.296301
H71	H	0.204909	1.400194	0.167919
H72	H	0.288231	1.480716	0.169788
H73	H	0.262142	1.278988	0.297623
H74	H	0.345472	1.359512	0.299521
C75	C	0.422052	1.284901	0.358096
C76	C	0.458834	1.339186	0.247677
H77	H	0.444634	1.322414	0.434208
H78	H	0.433613	1.207569	0.359220
H79	H	0.362962	1.287923	0.355753
H80	H	0.517923	1.336157	0.250015
H81	H	0.447279	1.416538	0.246554
H82	H	0.438005	1.186699	0.132209
