data_functionalizedCrystal
_audit_creation_method	'MofGen! by Chris Wilmer'
_symmetry_space_group_name_H-M	'P1'
_symmetry_Int_Tables_number	1
_symmetry_cell_setting	triclinic
loop_
_symmetry_equiv_pos_as_xyz
  x,y,z
_cell_length_a	6.817900
_cell_length_b	7.190410
_cell_length_c	14.858572
_cell_angle_alpha	89.894915
_cell_angle_beta	75.475997
_cell_angle_gamma	119.389325
loop_
_atom_site_label
_atom_site_type_symbol
_atom_site_fract_x
_atom_site_fract_y
_atom_site_fract_z
V1	V	4.125830	0.296432	-0.289293
V2	V	4.625830	0.796432	0.210707
O3	O	4.021815	-0.012864	-0.284469
O4	O	4.521815	0.487136	0.215531
O5	O	4.162884	0.586446	-0.286657
O6	O	4.662884	1.086446	0.213343
O7	O	4.081303	0.292478	-0.415764
O8	O	4.581303	0.792478	0.084236
O9	O	4.103961	0.283139	-0.154469
O10	O	4.603961	0.783139	0.345531
V11	V	4.597883	0.259365	-0.273247
V12	V	5.097883	0.759365	0.226753
O13	O	4.412248	0.377741	-0.324492
O14	O	4.912248	0.877741	0.175508
O15	O	4.761662	0.178056	-0.238048
O16	O	5.261662	0.678056	0.261952
O17	O	4.337622	-0.030649	-0.275883
O18	O	4.837622	0.469351	0.224117
O19	O	4.819295	0.568660	-0.278071
O20	O	5.319295	1.068660	0.221929
O21	O	4.737149	0.272657	-0.408071
O22	O	5.237149	0.772657	0.091929
O23	O	4.419204	0.263319	-0.146776
O24	O	4.919204	0.763319	0.353224
C25	C	3.924481	0.282138	-0.446611
C26	C	4.424481	0.782138	0.053389
C27	C	3.969924	0.280825	-0.549997
C28	C	4.469924	0.780825	-0.049997
C29	C	4.142274	0.898678	-0.280603
C30	C	4.642274	1.398678	0.219397
C31	C	4.028541	0.657121	-0.281923
C32	C	4.528541	1.157121	0.218077
C33	C	4.136249	0.276024	-0.928576
C34	C	4.636249	0.776024	-0.428576
C35	C	4.089964	0.277360	-0.823243
C36	C	4.589964	0.777360	-0.323243
C37	C	4.053089	0.278426	-0.739290
C38	C	4.553089	0.778426	-0.239290
C39	C	4.006800	0.279758	-0.633950
C40	C	4.506800	0.779758	-0.133950
C41	C	4.239369	0.273665	-0.115924
C42	C	4.739369	0.773665	0.384076
C43	C	4.173162	0.274968	-0.012538
C44	C	4.673162	0.774968	0.487462
