data_functionalizedCrystal
_audit_creation_method	'MofGen! by Chris Wilmer'
_symmetry_space_group_name_H-M	'P1'
_symmetry_Int_Tables_number	1
_symmetry_cell_setting	triclinic
loop_
_symmetry_equiv_pos_as_xyz
  x,y,z
_cell_length_a	14.853567
_cell_length_b	16.992701
_cell_length_c	16.053802
_cell_angle_alpha	87.243340
_cell_angle_beta	92.572962
_cell_angle_gamma	87.151050
loop_
_atom_site_label
_atom_site_type_symbol
_atom_site_fract_x
_atom_site_fract_y
_atom_site_fract_z
O1	O	0.187610	1.043903	-0.069424
O2	O	0.687610	1.543903	0.430576
O3	O	0.185515	0.815616	-0.069424
O4	O	0.685515	1.315616	0.430576
O5	O	0.055763	0.935858	-0.069427
O6	O	0.555763	1.435858	0.430573
O7	O	0.317362	0.923662	-0.069422
O8	O	0.817362	1.423662	0.430578
O9	O	0.062873	0.929239	0.069432
O10	O	0.562873	1.429239	0.569432
O11	O	0.192625	0.808997	0.069435
O12	O	0.692625	1.308997	0.569435
O13	O	0.194720	1.037285	0.069435
O14	O	0.694720	1.537285	0.569435
Zn15	Zn	0.194802	0.922090	0.091482
Zn16	Zn	0.694802	1.422090	0.591482
Zn17	Zn	0.185433	0.930810	-0.091471
Zn18	Zn	0.685433	1.430810	0.408529
O19	O	0.324472	0.917043	0.069437
O20	O	0.824472	1.417043	0.569437
C21	C	0.186372	0.783091	0.000005
C22	C	0.686372	1.283091	0.500005
C23	C	0.178323	0.696038	0.000004
C24	C	0.678323	1.196038	0.500004
C25	C	0.124237	0.207020	0.000000
C26	C	0.624237	0.707020	0.500000
C27	C	0.131808	0.288814	0.000006
C28	C	0.631808	0.788814	0.500006
C29	C	0.217054	0.320450	0.000003
C30	C	0.717054	0.820450	0.500003
C31	C	0.294735	0.270287	0.000005
C32	C	0.794735	0.770287	0.500005
C33	C	0.287163	0.188494	0.000005
C34	C	0.787163	0.688494	0.500005
C35	C	0.248432	0.564082	0.000006
C36	C	0.748432	1.064082	0.500006
C37	C	0.255998	0.645881	0.000003
C38	C	0.755998	1.145881	0.500003
C39	C	0.093070	0.664403	0.000006
C40	C	0.593070	1.164403	0.500006
C41	C	0.085506	0.582608	0.000001
C42	C	0.585506	1.082608	0.500001
C43	C	0.163187	0.532451	0.000007
C44	C	0.663187	1.032451	0.500007
N45	N	0.224794	0.404057	0.000006
N46	N	0.724794	0.904057	0.500006
N47	N	0.155446	0.448845	0.000010
N48	N	0.655446	0.948845	0.500010
C49	C	0.025690	0.931996	0.000000
C50	C	0.525690	1.431996	0.500000
C51	C	-0.074511	0.930340	-0.000007
C52	C	0.425489	1.430340	0.499993
C53	C	-0.492580	0.851913	0.000009
C54	C	0.007420	1.351913	0.500009
C55	C	-0.503777	0.994763	0.000009
C56	C	-0.003777	1.494763	0.500009
C57	C	-0.409633	0.996320	0.000004
C58	C	0.090367	1.496320	0.500004
C59	C	-0.356959	0.925673	0.000003
C60	C	0.143041	1.425673	0.500003
C61	C	-0.398428	0.853468	0.000007
C62	C	0.101572	1.353468	0.500007
C63	C	-0.368156	1.068524	0.000009
C64	C	0.131844	1.568524	0.500009
C65	C	-0.274008	1.070084	0.000005
C66	C	0.225992	1.570084	0.500005
C67	C	-0.221332	0.999436	-0.000002
C68	C	0.278668	1.499436	0.499998
C69	C	-0.262806	0.927228	0.000001
C70	C	0.237194	1.427228	0.500001
C71	C	-0.210132	0.856581	-0.000001
C72	C	0.289868	1.356581	0.499999
C73	C	-0.251605	0.784372	-0.000004
C74	C	0.248395	1.284372	0.499996
C75	C	-0.345752	0.782820	-0.000001
C76	C	0.154248	1.282820	0.499999
C77	C	-0.127185	1.000988	-0.000006
C78	C	0.372815	1.500988	0.499994
C79	C	-0.115980	0.858136	-0.000003
C80	C	0.384020	1.358136	0.499997
C81	C	0.354545	0.920905	0.000008
C82	C	0.854545	1.420905	0.500008
C83	C	0.454745	0.922561	0.000010
C84	C	0.954745	1.422561	0.500010
C85	C	0.193863	1.069810	0.000004
C86	C	0.693863	1.569810	0.500004
C87	C	0.201912	1.156863	-0.000001
C88	C	0.701912	1.656863	0.499999
N89	N	0.201195	0.916145	0.216342
N90	N	0.701195	1.416145	0.716342
N91	N	0.179033	0.936762	-0.216331
N92	N	0.679033	1.436762	0.283669
C93	C	0.146008	0.967327	0.260035
C94	C	0.646008	1.467327	0.760035
C95	C	0.150489	0.963175	0.347442
C96	C	0.650489	1.463175	0.847442
C97	C	0.210163	0.907845	0.391154
C98	C	0.710163	1.407845	0.891154
C99	C	0.265353	0.856657	0.347455
C100	C	0.765353	1.356657	0.847455
C101	C	0.260866	0.860806	0.260050
C102	C	0.760866	1.360806	0.760050
C103	C	0.229736	0.889723	0.652564
C104	C	0.729736	1.389723	1.152564
C105	C	0.234220	0.885580	0.739976
C106	C	0.734220	1.385580	1.239976
C107	C	0.119355	0.992097	0.739956
C108	C	0.619355	1.492097	1.239956
C109	C	0.114878	0.996244	0.652549
C110	C	0.614878	1.496244	1.152549
C111	C	0.170064	0.945054	0.608858
C112	C	0.670064	1.445054	1.108858
N113	N	0.214748	0.903601	0.480498
N114	N	0.714748	1.403601	0.980498
N115	N	0.165474	0.949294	0.519516
N116	N	0.665474	1.449294	1.019516
H117	H	0.325419	0.671635	0.000013
H118	H	0.825419	1.171635	0.500013
O119	O	-0.006444	0.548497	0.000009
O120	O	0.493556	1.048497	0.500009
H121	H	-0.016698	0.514380	-0.056591
H122	H	0.483302	1.014380	0.443409
H123	H	-0.546669	1.052281	0.000017
H124	H	-0.046669	1.552281	0.500017
H125	H	0.074424	1.033773	0.775538
H126	H	0.574424	1.533773	1.275538
O127	O	-0.059174	0.781932	0.000001
O128	O	0.440826	1.281932	0.500001
H129	H	-0.018915	0.781915	-0.056598
H130	H	0.481085	1.281915	0.443402
H131	H	0.364144	0.296051	0.000008
H132	H	0.864144	0.796051	0.500008
H133	H	0.029827	0.705249	0.000002
H134	H	0.529827	1.205249	0.500002
H135	H	0.068556	0.329649	0.000010
H136	H	0.568556	0.829649	0.500010
O137	O	0.298589	0.825898	0.787121
O138	O	0.798589	1.325898	1.287121
H139	H	0.292444	0.831624	0.855239
H140	H	0.792444	1.331624	1.355239
O141	O	-0.229288	1.147966	-0.000004
O142	O	0.270712	1.647966	0.499996
H143	H	-0.183763	1.149404	0.056591
H144	H	0.316237	1.649404	0.556591
H145	H	0.274673	0.848044	0.616998
H146	H	0.774673	1.348044	1.116998
H147	H	0.097419	1.012386	0.224450
H148	H	0.597419	1.512386	0.724450
H149	H	0.105551	1.004851	0.383016
H150	H	0.605551	1.504851	0.883016
O151	O	0.329722	0.796981	0.394596
O152	O	0.829722	1.296981	0.894596
H153	H	0.323580	0.802700	0.462715
H154	H	0.823580	1.302700	0.962715
H155	H	0.054820	0.181269	-0.000003
H156	H	0.554820	0.681269	0.499997
O157	O	0.332212	0.509989	0.000008
O158	O	0.832212	1.009989	0.500008
H159	H	0.392758	0.545732	-0.000002
H160	H	0.892758	1.045732	0.499998
H161	H	0.305804	0.819127	0.224476
H162	H	0.805804	1.319127	0.724476
O163	O	0.050507	1.055915	0.605402
O164	O	0.550507	1.555915	1.105402
H165	H	0.012877	1.090803	0.650469
H166	H	0.512877	1.590803	1.150469
O167	O	0.370940	0.134390	0.000000
O168	O	0.870940	0.634390	0.500000
H169	H	0.431489	0.170128	-0.000009
H170	H	0.931489	0.670128	0.499991
H171	H	-0.208705	0.726851	0.000001
H172	H	0.291295	1.226851	0.500001
H173	H	-0.093421	1.059778	0.000003
H174	H	0.406579	1.559778	0.500003
H175	H	-0.526352	0.793123	0.000003
H176	H	-0.026352	1.293123	0.500003
O177	O	-0.390480	0.704942	0.000014
O178	O	0.109520	1.204942	0.500014
H179	H	-0.464794	0.715731	0.000030
H180	H	0.035206	1.215731	0.500030
O181	O	-0.424963	1.144719	0.000022
O182	O	0.075037	1.644719	0.500022
H183	H	-0.497397	1.131505	0.000017
H184	H	0.002603	1.631505	0.500017
