data_functionalizedCrystal
_audit_creation_method	'MofGen! by Chris Wilmer'
_symmetry_space_group_name_H-M	'P1'
_symmetry_Int_Tables_number	1
_symmetry_cell_setting	triclinic
loop_
_symmetry_equiv_pos_as_xyz
  x,y,z
_cell_length_a	15.297475
_cell_length_b	16.959454
_cell_length_c	15.297908
_cell_angle_alpha	80.344119
_cell_angle_beta	107.359593
_cell_angle_gamma	80.323279
loop_
_atom_site_label
_atom_site_type_symbol
_atom_site_fract_x
_atom_site_fract_y
_atom_site_fract_z
Zn1	Zn	1.512718	-0.661370	0.771455
Zn2	Zn	2.012718	-0.161370	1.271455
Zn3	Zn	1.485714	-0.765878	0.615943
Zn4	Zn	1.985714	-0.265878	1.115943
Zn5	Zn	1.330301	-0.606047	0.589099
Zn6	Zn	1.830301	-0.106047	1.089099
Zn7	Zn	1.357164	-0.765808	0.744542
Zn8	Zn	1.857164	-0.265808	1.244542
O9	O	1.421474	-0.699776	0.680260
O10	O	1.921474	-0.199776	1.180260
O11	O	1.639276	-0.698416	0.773324
O12	O	2.139276	-0.198416	1.273324
O13	O	1.442555	-0.721552	0.482246
O14	O	1.942555	-0.221552	0.982246
O15	O	1.354558	-0.502788	0.613318
O16	O	1.854558	-0.002788	1.113318
O17	O	1.619437	-0.775197	0.659069
O18	O	2.119437	-0.275197	1.159069
O19	O	1.488579	-0.543434	0.747294
O20	O	1.988579	-0.043434	1.247294
O21	O	1.328374	-0.604125	0.462523
O22	O	1.828374	-0.104125	0.962523
O23	O	1.203724	-0.604057	0.587221
O24	O	1.703724	-0.104057	1.087221
O25	O	1.400342	-0.775078	0.878248
O26	O	1.900342	-0.275078	1.378248
O27	O	1.223460	-0.721433	0.701425
O28	O	1.723460	-0.221433	1.201425
O29	O	1.514626	-0.698348	0.898022
O30	O	2.014626	-0.198348	1.398022
O31	O	1.468603	-0.876466	0.632973
O32	O	1.968603	-0.376466	1.132973
O33	O	1.374158	-0.876415	0.727454
O34	O	1.874158	-0.376415	1.227454
C35	C	1.179848	-0.656735	0.638490
C36	C	1.679848	-0.156735	1.138490
C37	C	1.076484	-0.638344	0.620643
C38	C	1.576484	-0.138344	1.120643
C39	C	0.826256	-0.831220	0.807818
C40	C	1.326256	-0.331220	1.307818
C41	C	0.923372	-0.848504	0.824584
C42	C	1.423372	-0.348504	1.324584
C43	C	0.961655	-0.795965	0.773601
C44	C	1.461655	-0.295965	1.273601
C45	C	0.902812	-0.726140	0.705848
C46	C	1.402812	-0.226140	1.205848
C47	C	0.805685	-0.708858	0.689075
C48	C	1.305685	-0.208858	1.189075
C49	C	0.941084	-0.673603	0.654858
C50	C	1.441084	-0.173603	1.154858
C51	C	0.882241	-0.603778	0.587105
C52	C	1.382241	-0.103778	1.087105
C53	C	0.785125	-0.586499	0.570336
C54	C	1.285125	-0.086499	1.070336
C55	C	0.746842	-0.639037	0.621319
C56	C	1.246842	-0.139037	1.121319
C57	C	1.038211	-0.690886	0.671630
C58	C	1.538211	-0.190886	1.171630
C59	C	1.017640	-0.568524	0.552887
C60	C	1.517640	-0.068524	1.052887
C61	C	0.920524	-0.551240	0.536121
C62	C	1.420524	-0.051240	1.036121
C63	C	1.421394	-0.905125	0.680230
C64	C	1.921394	-0.405125	1.180230
C65	C	1.421450	-0.992996	0.680264
C66	C	1.921450	-0.492996	1.180264
C67	C	1.372382	-1.364492	0.729465
C68	C	1.872382	-0.864492	1.229465
C69	C	1.470842	-1.364520	0.631194
C70	C	1.970842	-0.864520	1.131194
C71	C	1.470808	-1.281967	0.631180
C72	C	1.970808	-0.781967	1.131180
C73	C	1.421559	-1.240672	0.680308
C74	C	1.921559	-0.740672	1.180308
C75	C	1.372344	-1.281930	0.729450
C76	C	1.872344	-0.781930	1.229450
C77	C	1.520015	-1.240700	0.582031
C78	C	2.020015	-0.740700	1.082031
C79	C	1.519982	-1.158141	0.582014
C80	C	2.019982	-0.658141	1.082014
C81	C	1.470738	-1.116847	0.631148
C82	C	1.970738	-0.616847	1.131148
C83	C	1.421521	-1.158110	0.680293
C84	C	1.921521	-0.658110	1.180293
C85	C	1.372272	-1.116815	0.729421
C86	C	1.872272	-0.616815	1.229421
C87	C	1.323061	-1.158079	0.778572
C88	C	1.823061	-0.658079	1.278572
C89	C	1.323100	-1.240635	0.778584
C90	C	1.823100	-0.740635	1.278584
C91	C	1.470699	-1.034290	0.631136
C92	C	1.970699	-0.534290	1.131136
C93	C	1.372235	-1.034254	0.729406
C94	C	1.872235	-0.534254	1.229406
C95	C	1.664044	-0.742986	0.722193
C96	C	2.164044	-0.242986	1.222193
C97	C	1.767412	-0.761399	0.740062
C98	C	2.267412	-0.261399	1.240062
C99	C	1.463493	-0.742876	0.922821
C100	C	1.963493	-0.242876	1.422821
C101	C	1.481398	-0.761243	1.026187
C102	C	1.981398	-0.261243	1.526187
C103	C	1.421584	-0.493632	0.680314
C104	C	1.921584	0.006368	1.180314
C105	C	1.421631	-0.405786	0.680337
C106	C	1.921631	0.094214	1.180337
C107	C	1.379673	-0.656796	0.438651
C108	C	1.879673	-0.156796	0.938651
C109	C	1.361948	-0.638238	0.335317
C110	C	1.861948	-0.138238	0.835317
C111	C	1.294088	-0.568468	1.276493
C112	C	1.794088	-0.068468	1.776493
C113	C	1.277266	-0.551204	1.179376
C114	C	1.777266	-0.051204	1.679376
C115	C	1.328297	-0.603712	1.141074
C116	C	1.828297	-0.103712	1.641074
C117	C	1.396154	-0.673487	1.199898
C118	C	1.896154	-0.173487	1.699898
C119	C	1.412982	-0.690750	1.297025
C120	C	1.912982	-0.190750	1.797025
C121	C	1.447192	-0.725994	1.161606
C122	C	1.947192	-0.225994	1.661606
C123	C	1.515048	-0.795769	1.220430
C124	C	2.015048	-0.295769	1.720430
C125	C	1.531873	-0.813029	1.317547
C126	C	2.031873	-0.313029	1.817547
C127	C	1.480842	-0.760520	1.355850
C128	C	1.980842	-0.260520	1.855850
C129	C	1.430363	-0.708732	1.064479
C130	C	1.930363	-0.208732	1.564479
C131	C	1.549258	-0.831014	1.085011
C132	C	2.049258	-0.331014	1.585011
C133	C	1.566080	-0.848278	1.182128
C134	C	2.066080	-0.348278	1.682128
H135	H	1.048809	-0.525743	0.511370
H136	H	1.548809	-0.025743	1.011370
C137	C	1.268888	-1.112644	0.832610
C138	C	1.768888	-0.612644	1.332610
N139	N	1.228087	-1.078419	0.873311
N140	N	1.728087	-0.578419	1.373311
H141	H	1.375115	-0.651919	1.016594
H142	H	1.875115	-0.151919	1.516594
H143	H	1.086112	-0.747738	0.726796
H144	H	1.586112	-0.247738	1.226796
C145	C	0.988091	-0.925311	0.899108
C146	C	1.488091	-0.425311	1.399108
N147	N	1.036839	-0.983166	0.955243
N148	N	1.536839	-0.483166	1.455243
C149	C	1.309784	-0.584723	1.034241
C150	C	1.809784	-0.084723	1.534241
N151	N	1.295833	-0.570420	0.953770
N152	N	1.795833	-0.070420	1.453770
H153	H	0.737215	-0.529649	0.515158
H154	H	1.237215	-0.029649	1.015158
C155	C	1.574169	-1.286124	0.527978
C156	C	2.074169	-0.786124	1.027978
N157	N	1.614957	-1.320341	0.487261
N158	N	2.114957	-0.820341	0.987261
C159	C	1.237967	-0.510714	1.318634
C160	C	1.737967	-0.010714	1.818634
N161	N	1.195694	-0.467209	1.350375
N162	N	1.695694	0.032791	1.850375
C163	C	1.525002	-1.409944	0.577146
C164	C	2.025002	-0.909944	1.077146
N165	N	1.565796	-1.444160	0.536433
N166	N	2.065796	-0.944160	1.036433
C167	C	1.574108	-1.112757	0.527941
C168	C	2.074108	-0.612757	1.027941
N169	N	1.614875	-1.078572	0.487211
N170	N	2.114875	-0.578572	0.987211
H171	H	0.795075	-0.873993	0.849316
H172	H	1.295075	-0.373993	1.349316
C173	C	1.499335	-0.779512	1.462682
C174	C	1.999335	-0.279512	1.962682
N175	N	1.513260	-0.793816	1.543149
N176	N	2.013260	-0.293816	2.043149
C177	C	1.202624	-0.474455	1.114677
C178	C	1.702624	0.025545	1.614677
N179	N	1.146397	-0.416645	1.065943
N180	N	1.646397	0.083355	1.565943
C181	C	1.318247	-1.409880	0.783524
C182	C	1.818247	-0.909880	1.283524
N183	N	1.277470	-1.444067	0.824239
N184	N	1.777470	-0.944067	1.324239
H185	H	1.587134	-0.869840	1.365441
H186	H	2.087134	-0.369840	1.865441
C187	C	1.524829	-0.988905	0.577075
C188	C	2.024829	-0.488905	1.077075
N189	N	1.565606	-0.954722	0.536356
N190	N	2.065606	-0.454722	1.036356
C191	C	1.068483	-0.814991	0.792030
C192	C	1.568483	-0.314991	1.292030
N193	N	1.148950	-0.829327	0.805910
N194	N	1.648950	-0.329327	1.305910
C195	C	1.268960	-1.286028	0.832632
C196	C	1.768960	-0.786028	1.332632
N197	N	1.228177	-1.320219	0.873336
N198	N	1.728177	-0.820219	1.373336
H199	H	0.667763	-0.624967	0.607674
H200	H	1.167763	-0.124967	1.107674
H201	H	0.872601	-0.494387	0.480956
H202	H	1.372601	0.005613	0.980956
C203	C	1.640569	-0.925130	1.246820
C204	C	2.140569	-0.425130	1.746820
N205	N	1.696618	-0.983053	1.295537
N206	N	2.196618	-0.483053	1.795537
H207	H	1.332134	-1.000638	0.769416
H208	H	1.832134	-0.500638	1.269416
C209	C	1.605395	-0.888778	1.042883
C210	C	2.105395	-0.388778	1.542883
N211	N	1.647674	-0.932282	1.011146
N212	N	2.147674	-0.432282	1.511146
