data_functionalizedCrystal
_audit_creation_method	'MofGen! by Chris Wilmer'
_symmetry_space_group_name_H-M	'P1'
_symmetry_Int_Tables_number	1
_symmetry_cell_setting	triclinic
loop_
_symmetry_equiv_pos_as_xyz
  x,y,z
_cell_length_a	12.837943
_cell_length_b	12.837942
_cell_length_c	11.892095
_cell_angle_alpha	94.302569
_cell_angle_beta	85.689438
_cell_angle_gamma	94.828940
loop_
_atom_site_label
_atom_site_type_symbol
_atom_site_fract_x
_atom_site_fract_y
_atom_site_fract_z
O1	O	1.408367	0.266110	-0.093982
O2	O	1.105234	0.252667	-0.093989
O3	O	1.250078	0.107822	-0.093979
O4	O	1.263522	0.410955	-0.093992
O5	O	1.237999	0.119879	0.094028
O6	O	1.093155	0.264723	0.094018
O7	O	1.396288	0.278167	0.094025
Zn8	Zn	1.242803	0.273359	0.123871
Zn9	Zn	1.258718	0.257474	-0.123836
O10	O	1.251443	0.423011	0.094014
C11	C	1.060125	0.254153	0.000014
C12	C	0.943710	0.240609	0.000011
C13	C	0.718835	0.403439	0.000020
C14	C	0.609453	0.390717	0.000019
C15	C	0.615561	0.202446	0.000015
C16	C	0.724943	0.215167	0.000017
C17	C	0.776577	0.315667	0.000017
C18	C	0.885961	0.328387	0.000011
C19	C	0.892066	0.140117	0.000015
C20	C	0.782684	0.127395	0.000014
C21	C	1.239497	0.074781	0.000024
C22	C	1.225953	-0.041634	0.000022
C23	C	1.388784	-0.266509	0.000002
C24	C	1.376062	-0.375892	-0.000000
C25	C	1.187791	-0.369784	0.000007
C26	C	1.200512	-0.260402	0.000009
C27	C	1.301011	-0.208768	0.000008
C28	C	1.313731	-0.099383	0.000019
C29	C	1.125461	-0.093278	0.000018
C30	C	1.112740	-0.202660	0.000016
C31	C	1.441397	0.276680	0.000020
C32	C	1.557812	0.290224	0.000015
C33	C	1.262024	0.456052	0.000009
C34	C	1.275569	0.572467	0.000004
N35	N	1.231950	0.284200	0.292925
N36	N	1.269579	0.246626	-0.292889
C37	C	1.345098	0.171130	0.529580
C38	C	1.337519	0.178716	0.647922
C39	C	1.209210	0.306952	0.647951
C40	C	1.216788	0.299366	0.529610
C41	C	1.284736	0.231454	0.470428
C42	C	1.292319	0.223874	0.352085
C43	C	1.164005	0.352104	0.352116
C44	C	1.156426	0.359690	0.470458
H45	H	0.573495	0.120630	0.000108
H46	H	1.347647	0.168579	0.303901
H47	H	1.400430	0.115841	0.481394
C48	C	1.077253	-0.426590	-0.000014
H49	H	1.026797	-0.376538	-0.000022
H50	H	1.064159	-0.464945	0.065537
H51	H	1.072605	-0.473323	-0.065595
C52	C	1.403920	0.112363	0.712986
H53	H	1.445475	0.070838	0.660787
H54	H	1.359003	0.068007	0.759162
H55	H	1.448267	0.157314	0.759137
H56	H	1.153882	0.362237	0.696151
C57	C	1.081696	0.434391	0.535563
H58	H	1.085831	0.430276	0.614515
H59	H	1.011947	0.414851	0.516184
H60	H	1.101223	0.504146	0.516164
H61	H	0.740628	0.045572	0.000026
C62	C	0.955579	0.043561	0.000012
H63	H	0.909159	-0.018112	0.000002
H64	H	0.994170	0.048807	0.065570
H65	H	1.002582	0.040411	-0.065562
H66	H	1.114857	0.401227	0.303941
C67	C	1.499322	-0.209704	0.000010
H68	H	1.494326	-0.136289	0.000021
H69	H	1.540133	-0.233083	-0.065548
H70	H	1.531696	-0.224683	0.065584
C71	C	1.002198	-0.259458	0.000012
H72	H	0.951747	-0.209401	0.000009
H73	H	0.989110	-0.297807	0.065569
H74	H	0.997535	-0.306197	-0.065563
H75	H	0.928000	0.410219	0.000013
H76	H	0.562444	0.462191	0.000024
C77	C	0.775636	0.513979	0.000011
H78	H	0.725581	0.564433	0.000014
H79	H	0.822392	0.518647	-0.065551
H80	H	0.813966	0.527061	0.065582
C81	C	1.472608	-0.439409	-0.000009
H82	H	1.450642	-0.511950	-0.000020
H83	H	1.509167	-0.418539	0.065548
H84	H	1.517574	-0.426937	-0.065584
H85	H	1.395563	-0.057344	0.000022
C86	C	1.028908	-0.029761	0.000016
H87	H	1.050876	0.042779	0.000009
H88	H	0.983932	-0.042233	0.065575
H89	H	0.992362	-0.050634	-0.065557
