data_functionalizedCrystal
_audit_creation_method	'MofGen! by Chris Wilmer'
_symmetry_space_group_name_H-M	'P1'
_symmetry_Int_Tables_number	1
_symmetry_cell_setting	triclinic
loop_
_symmetry_equiv_pos_as_xyz
  x,y,z
_cell_length_a	10.654550
_cell_length_b	16.992695
_cell_length_c	9.730223
_cell_angle_alpha	89.995280
_cell_angle_beta	89.999957
_cell_angle_gamma	87.576577
loop_
_atom_site_label
_atom_site_type_symbol
_atom_site_fract_x
_atom_site_fract_y
_atom_site_fract_z
O1	O	1.677361	0.110190	-0.114188
O2	O	1.312790	0.120688	-0.114214
O3	O	1.493614	0.001288	-0.114190
O4	O	1.496537	0.229590	-0.114212
O5	O	1.493601	0.001285	0.114390
O6	O	1.312777	0.120685	0.114366
O7	O	1.677349	0.110187	0.114391
Zn8	Zn	1.495061	0.115435	0.150671
Zn9	Zn	1.495078	0.115439	-0.150493
O10	O	1.496525	0.229586	0.114368
C11	C	1.265919	0.119916	0.000073
C12	C	1.126277	0.117609	0.000064
C13	C	1.489848	-0.027946	0.000099
C14	C	1.478628	-0.115051	0.000098
C15	C	1.052866	0.187910	0.000061
C16	C	0.921658	0.185738	0.000085
C17	C	0.937282	0.042959	0.000109
C18	C	1.068488	0.045132	0.000095
C19	C	1.586879	-0.164703	0.000107
C20	C	1.576330	-0.246547	0.000093
C21	C	1.457529	-0.278738	0.000080
C22	C	1.349270	-0.229080	0.000067
C23	C	1.359820	-0.147237	0.000071
C24	C	1.413802	-0.522573	0.000058
C25	C	1.403260	-0.604422	0.000059
C26	C	1.630321	-0.621884	0.000082
C27	C	1.640861	-0.540039	0.000094
C28	C	1.532602	-0.490388	0.000074
N29	N	1.446743	-0.362395	0.000071
N30	N	1.543389	-0.406733	0.000074
C31	C	1.724220	0.110959	0.000102
C32	C	1.863862	0.113265	0.000102
C33	C	1.500291	0.258821	0.000075
C34	C	1.511510	0.345926	0.000068
N35	N	1.495059	0.115432	0.356207
N36	N	1.495089	0.115437	-0.356030
C37	C	1.575159	0.062584	0.428144
C38	C	1.575171	0.062584	0.572026
C39	C	1.414980	0.168287	0.572024
C40	C	1.414962	0.168282	0.428144
H41	H	0.861892	0.242984	0.000086
H42	H	1.099913	0.246926	0.000046
O43	O	1.308516	-0.474462	0.000118
C44	C	1.201402	-0.520428	0.000082
H45	H	1.227171	-0.581330	0.043353
H46	H	1.165372	-0.526441	-0.109579
C47	C	1.066606	-0.405445	0.036581
C48	C	1.098254	-0.480245	0.089738
H49	H	1.002976	-0.380658	0.091879
H50	H	1.138769	-0.374476	0.036600
H51	H	1.036588	-0.410466	-0.054802
H52	H	1.128286	-0.475222	0.181113
H53	H	1.026093	-0.511212	0.089736
H54	H	1.640376	0.019549	0.369576
H55	H	0.890215	-0.016050	0.000142
H56	H	1.128262	-0.012119	0.000101
O57	O	1.653102	0.011221	0.641692
C58	C	1.723763	-0.035438	0.547340
H59	H	1.728393	-0.003265	0.444771
H60	H	1.677124	-0.093958	0.532053
C61	C	1.852008	-0.090333	0.729454
C62	C	1.857704	-0.050814	0.603481
H63	H	1.934628	-0.099821	0.764086
H64	H	1.804400	-0.058901	0.793023
H65	H	1.813137	-0.139095	0.716698
H66	H	1.896560	-0.002049	0.616241
H67	H	1.905322	-0.082239	0.539915
H68	H	1.252539	-0.255296	0.000048
H69	H	1.683620	-0.138501	0.000126
H70	H	1.664480	-0.286971	0.000104
H71	H	1.737601	-0.513836	0.000105
O72	O	1.337306	0.219599	0.642119
C73	C	1.354476	0.208261	0.784538
H74	H	1.451435	0.179520	0.804181
H75	H	1.279418	0.168501	0.825394
C76	C	1.224563	0.323711	0.834260
C77	C	1.343654	0.288416	0.858387
H78	H	1.217882	0.373153	0.879816
H79	H	1.212990	0.331348	0.738310
H80	H	1.162028	0.290570	0.868307
H81	H	1.406185	0.321553	0.824325
H82	H	1.355236	0.280786	0.954333
O83	O	1.337110	0.219698	0.358469
C84	C	1.266404	0.266337	0.452811
H85	H	1.318018	0.267531	0.555367
H86	H	1.170513	0.240319	0.468134
C87	C	1.185587	0.349351	0.270668
C88	C	1.248986	0.350823	0.396626
H89	H	1.174837	0.401464	0.236010
H90	H	1.233219	0.317927	0.207106
H91	H	1.105685	0.327665	0.283455
H92	H	1.328891	0.372498	0.383835
H93	H	1.201367	0.382252	0.460185
H94	H	1.718458	-0.662318	0.000096
H95	H	1.306513	-0.630628	0.000070
H96	H	1.271671	-0.106811	0.000064
