data_functionalizedCrystal
_audit_creation_method	'MofGen! by Chris Wilmer'
_symmetry_space_group_name_H-M	'P1'
_symmetry_Int_Tables_number	1
_symmetry_cell_setting	triclinic
loop_
_symmetry_equiv_pos_as_xyz
  x,y,z
_cell_length_a	25.639243
_cell_length_b	25.639240
_cell_length_c	25.639233
_cell_angle_alpha	89.974071
_cell_angle_beta	89.984038
_cell_angle_gamma	90.035481
loop_
_atom_site_label
_atom_site_type_symbol
_atom_site_fract_x
_atom_site_fract_y
_atom_site_fract_z
Zn1	Zn	0.799247	-0.208176	-0.295630
Zn2	Zn	1.299247	0.291824	0.204370
Zn3	Zn	0.799179	-0.295595	-0.208183
Zn4	Zn	1.299179	0.204405	0.291817
Zn5	Zn	0.711823	-0.208180	-0.208203
Zn6	Zn	1.211823	0.291820	0.291797
Zn7	Zn	0.711777	-0.295587	-0.295582
Zn8	Zn	1.211777	0.204413	0.204418
O9	O	0.755506	-0.251885	-0.251900
O10	O	1.255506	0.248115	0.248100
O11	O	0.872403	-0.219775	-0.284041
O12	O	1.372403	0.280225	0.215959
O13	O	0.787582	-0.284004	-0.135020
O14	O	1.287582	0.215996	0.364980
O15	O	0.723467	-0.135014	-0.219829
O16	O	1.223467	0.364986	0.280171
O17	O	0.872353	-0.284001	-0.219794
O18	O	1.372353	0.215999	0.280206
O19	O	0.787697	-0.135012	-0.284061
O20	O	1.287697	0.364988	0.215939
O21	O	0.723402	-0.219781	-0.135035
O22	O	1.223402	0.280219	0.364965
O23	O	0.638652	-0.219772	-0.219783
O24	O	1.138652	0.280228	0.280217
O25	O	0.723389	-0.283987	-0.368754
O26	O	1.223389	0.216013	0.131246
O27	O	0.638618	-0.283990	-0.283980
O28	O	1.138618	0.216010	0.216020
O29	O	0.787653	-0.219767	-0.368789
O30	O	1.287653	0.280233	0.131211
O31	O	0.787538	-0.368759	-0.219749
O32	O	1.287538	0.131241	0.280251
O33	O	0.723324	-0.368753	-0.283960
O34	O	1.223324	0.131247	0.216040
C35	C	0.619664	-0.251881	-0.251879
C36	C	1.119664	0.248119	0.248121
C37	C	0.561550	-0.251892	-0.251882
C38	C	1.061550	0.248108	0.248118
C39	C	0.201207	-0.218495	-0.285409
C40	C	0.701207	0.281505	0.214591
C41	C	0.146603	-0.218494	-0.285412
C42	C	0.646603	0.281506	0.214588
O43	O	0.118383	-0.190088	-0.313891
O44	O	0.618383	0.309912	0.186109
N45	N	0.119267	-0.251883	-0.251914
N46	N	0.619267	0.248117	0.248086
C47	C	0.146539	-0.285271	-0.218407
C48	C	0.646539	0.214729	0.281593
O49	O	0.118274	-0.313670	-0.189914
O50	O	0.618274	0.186330	0.310086
C51	C	0.201142	-0.285268	-0.218401
C52	C	0.701142	0.214732	0.281599
C53	C	0.228475	-0.251881	-0.251905
C54	C	0.728475	0.248119	0.248095
C55	C	0.228540	-0.185109	-0.318909
C56	C	0.728540	0.314891	0.181091
C57	C	0.283140	-0.185111	-0.318907
C58	C	0.783140	0.314889	0.181093
C59	C	0.310408	-0.218497	-0.285403
C60	C	0.810408	0.281503	0.214597
C61	C	0.283076	-0.251882	-0.251903
C62	C	0.783076	0.248118	0.248097
C63	C	0.228413	-0.318653	-0.184892
C64	C	0.728413	0.181347	0.315108
C65	C	0.283020	-0.318647	-0.184889
C66	C	0.783020	0.181353	0.315111
C67	C	0.310353	-0.285260	-0.218393
C68	C	0.810353	0.214740	0.281607
C69	C	0.364944	-0.285270	-0.218396
C70	C	0.864944	0.214730	0.281604
N71	N	0.392279	-0.251881	-0.251894
N72	N	0.892279	0.248119	0.248106
C73	C	0.365011	-0.218494	-0.285398
C74	C	0.865011	0.281506	0.214602
C75	C	0.031869	-0.285273	-0.218420
C76	C	0.531869	0.214727	0.281580
C77	C	-0.022734	-0.285279	-0.218428
C78	C	0.477266	0.214721	0.281572
C79	C	-0.022667	-0.218501	-0.285432
C80	C	0.477333	0.281499	0.214568
C81	C	0.031937	-0.218498	-0.285427
C82	C	0.531937	0.281502	0.214573
C83	C	0.059204	-0.251884	-0.251918
C84	C	0.559204	0.248116	0.248082
C85	C	0.479676	-0.218500	-0.285390
C86	C	0.979676	0.281500	0.214610
C87	C	0.534282	-0.218506	-0.285386
C88	C	1.034282	0.281494	0.214614
C89	C	0.534210	-0.285281	-0.218380
C90	C	1.034210	0.214719	0.281620
C91	C	0.479609	-0.285278	-0.218385
C92	C	0.979609	0.214722	0.281615
C93	C	0.452344	-0.251883	-0.251892
C94	C	0.952344	0.248117	0.248108
O95	O	0.393198	-0.313659	-0.189930
O96	O	0.893198	0.186341	0.310070
O97	O	0.393283	-0.190095	-0.313881
O98	O	0.893283	0.309905	0.186119
C99	C	0.755433	-0.387727	-0.251859
C100	C	1.255433	0.112273	0.248141
C101	C	0.755449	-0.445841	-0.251859
C102	C	1.255449	0.054159	0.248141
C103	C	0.788967	-0.806164	-0.285405
C104	C	1.288967	-0.306164	0.214595
C105	C	0.788983	-0.860769	-0.285416
C106	C	1.288983	-0.360769	0.214584
O107	O	0.817394	-0.888972	-0.313897
O108	O	1.317394	-0.388972	0.186103
N109	N	0.755579	-0.888124	-0.251950
N110	N	1.255579	-0.388124	0.248050
C111	C	0.722154	-0.860871	-0.218475
C112	C	1.222154	-0.360871	0.281525
O113	O	0.693742	-0.889153	-0.190011
O114	O	1.193742	-0.389153	0.309989
C115	C	0.722136	-0.806268	-0.218467
C116	C	1.222136	-0.306268	0.281533
C117	C	0.755546	-0.778916	-0.251932
C118	C	1.255546	-0.278916	0.248068
C119	C	0.822374	-0.778812	-0.318867
C120	C	1.322374	-0.278812	0.181133
C121	C	0.822359	-0.724212	-0.318856
C122	C	1.322359	-0.224212	0.181144
C123	C	0.788938	-0.696963	-0.285383
C124	C	1.288938	-0.196963	0.214617
C125	C	0.755531	-0.724315	-0.251920
C126	C	1.255531	-0.224315	0.248080
C127	C	0.688708	-0.779017	-0.184996
C128	C	1.188708	-0.279017	0.315004
C129	C	0.688693	-0.724410	-0.184991
C130	C	1.188693	-0.224410	0.315009
C131	C	0.722103	-0.697058	-0.218455
C132	C	1.222103	-0.197058	0.281545
C133	C	0.722095	-0.642466	-0.218435
C134	C	1.222095	-0.142466	0.281565
N135	N	0.755499	-0.615112	-0.251901
N136	N	1.255499	-0.115112	0.248099
C137	C	0.788920	-0.642360	-0.285375
C138	C	1.288920	-0.142360	0.214625
C139	C	0.722193	-0.975542	-0.218494
C140	C	1.222193	-0.475542	0.281506
C141	C	0.722213	-1.030144	-0.218499
C142	C	1.222213	-0.530144	0.281501
C143	C	0.789041	-1.030038	-0.285441
C144	C	1.289041	-0.530038	0.214559
C145	C	0.789024	-0.975435	-0.285433
C146	C	1.289024	-0.475435	0.214567
C147	C	0.755597	-0.948187	-0.251960
C148	C	1.255597	-0.448187	0.248040
C149	C	0.788887	-0.527695	-0.285348
C150	C	1.288887	-0.027695	0.214652
C151	C	0.788870	-0.473090	-0.285332
C152	C	1.288870	0.026910	0.214668
C153	C	0.722040	-0.473201	-0.218392
C154	C	1.222040	0.026799	0.281608
C155	C	0.722058	-0.527801	-0.218406
C156	C	1.222058	-0.027801	0.281594
C157	C	0.755483	-0.555047	-0.251888
C158	C	1.255483	-0.055047	0.248112
O159	O	0.693697	-0.614229	-0.189971
O160	O	1.193697	-0.114229	0.310029
O161	O	0.817322	-0.614072	-0.313839
O162	O	1.317322	-0.114072	0.186161
C163	C	0.891879	-0.251888	-0.251921
C164	C	1.391879	0.248112	0.248079
C165	C	0.949993	-0.251890	-0.251930
C166	C	1.449993	0.248110	0.248070
C167	C	0.755523	-0.251875	-0.388273
C168	C	1.255523	0.248125	0.111727
C169	C	0.755530	-0.251871	-0.446387
C170	C	1.255530	0.248129	0.053613
C171	C	0.755595	-0.115511	-0.251952
C172	C	1.255595	0.384489	0.248048
C173	C	0.755633	-0.057397	-0.251975
C174	C	1.255633	0.442603	0.248025
C175	C	0.789035	-0.218333	-0.806774
C176	C	1.289035	0.281667	-0.306774
C177	C	0.789041	-0.218318	-0.861378
C178	C	1.289041	0.281682	-0.361378
O179	O	0.817486	-0.189864	-0.889635
O180	O	1.317486	0.310136	-0.389635
N181	N	0.755588	-0.251749	-0.888669
N182	N	1.255588	0.248251	-0.388669
C183	C	0.722122	-0.285192	-0.861354
C184	C	1.222122	0.214808	-0.361354
O185	O	0.693668	-0.313626	-0.889581
O186	O	1.193668	0.186374	-0.389581
C187	C	0.722114	-0.285204	-0.806750
C188	C	1.222114	0.214796	-0.306750
C189	C	0.755573	-0.251775	-0.779462
C190	C	1.255573	0.248225	-0.279462
C191	C	0.822491	-0.184906	-0.779485
C192	C	1.322491	0.315094	-0.279485
C193	C	0.822485	-0.184921	-0.724884
C194	C	1.322485	0.315079	-0.224884
C195	C	0.789023	-0.218363	-0.697572
C196	C	1.289023	0.281637	-0.197572
C197	C	0.755567	-0.251790	-0.724861
C198	C	1.255567	0.248210	-0.224861
C199	C	0.688646	-0.318644	-0.779436
C200	C	1.188646	0.181356	-0.279436
C201	C	0.688640	-0.318653	-0.724828
C202	C	1.188640	0.181347	-0.224828
C203	C	0.722099	-0.285223	-0.697540
C204	C	1.222099	0.214777	-0.197540
C205	C	0.722099	-0.285247	-0.642949
C206	C	1.222099	0.214753	-0.142949
N207	N	0.755552	-0.251817	-0.615657
N208	N	1.255552	0.248183	-0.115657
C209	C	0.789014	-0.218375	-0.642969
C210	C	1.289014	0.281625	-0.142969
C211	C	0.722143	-0.285165	-0.976024
C212	C	1.222143	0.214835	-0.476024
C213	C	0.722154	-0.285157	-1.030627
C214	C	1.222154	0.214843	-0.530627
C215	C	0.789072	-0.218282	-1.030647
C216	C	1.289072	0.281718	-0.530647
C217	C	0.789063	-0.218293	-0.976044
C218	C	1.289063	0.281707	-0.476044
C219	C	0.755596	-0.251735	-0.948733
C220	C	1.255596	0.248265	-0.448733
C221	C	0.789000	-0.218410	-0.528304
C222	C	1.289000	0.281590	-0.028304
C223	C	0.788992	-0.218429	-0.473699
C224	C	1.288992	0.281571	0.026301
C225	C	0.722072	-0.285302	-0.473683
C226	C	1.222072	0.214698	0.026317
C227	C	0.722081	-0.285285	-0.528283
C228	C	1.222081	0.214715	-0.028283
C229	C	0.755547	-0.251834	-0.555593
C230	C	1.255547	0.248166	-0.055593
O231	O	0.693668	-0.313686	-0.614657
O232	O	1.193668	0.186314	-0.114657
O233	O	0.817459	-0.189941	-0.614735
O234	O	1.317459	0.310059	-0.114735
C235	C	0.755520	-0.251856	-0.116057
C236	C	1.255520	0.248144	0.383943
C237	C	0.755614	-0.251713	-0.057943
C238	C	1.255614	0.248287	0.442057
H239	H	-0.044878	-0.191315	-0.312711
H240	H	0.455122	0.308685	0.187289
N241	N	0.856668	-0.150737	-0.807378
N242	N	1.356668	0.349263	-0.307378
N243	N	0.853232	-0.102493	-0.801286
N244	N	1.353232	0.397507	-0.301286
H245	H	0.877374	-0.078360	-0.820982
H246	H	1.377374	0.421640	-0.320982
H247	H	0.694857	-0.550072	-0.191153
H248	H	1.194857	-0.050072	0.308847
H249	H	0.816308	-0.191071	-0.953829
H250	H	1.316308	0.308929	-0.453829
N251	N	0.654556	-0.696578	-0.150790
N252	N	1.154556	-0.196578	0.349210
N253	N	0.672964	-0.666116	-0.117481
N254	N	1.172964	-0.166116	0.382519
H255	H	0.648856	-0.646461	-0.093325
H256	H	1.148856	-0.146461	0.406675
N257	N	0.200495	-0.352745	-0.150662
N258	N	0.700495	0.147255	0.349338
N259	N	0.151742	-0.352744	-0.150657
N260	N	0.651742	0.147256	0.349343
H261	H	0.132025	-0.376821	-0.126478
H262	H	0.632025	0.123179	0.373522
N263	N	0.856521	-0.806648	-0.353053
N264	N	1.356521	-0.306648	0.146947
N265	N	0.856544	-0.855401	-0.353059
N266	N	1.356544	-0.355401	0.146941
H267	H	0.880665	-0.875058	-0.377201
H268	H	1.380665	-0.375058	0.122799
N269	N	0.687892	-0.319418	-0.556161
N270	N	1.187892	0.180582	-0.056161
N271	N	0.639651	-0.315931	-0.550049
N272	N	1.139651	0.184069	-0.050049
H273	H	0.615497	-0.340030	-0.569738
H274	H	1.115497	0.159970	-0.069738
N275	N	0.823184	-0.184235	-0.556186
N276	N	1.323184	0.315765	-0.056186
N277	N	0.853049	-0.154394	-0.531806
N278	N	1.353049	0.345606	-0.031806
H279	H	0.877193	-0.130259	-0.551497
H280	H	1.377193	0.369741	-0.051497
N281	N	0.654462	-0.352797	-0.807288
N282	N	1.154462	0.147203	-0.307288
N283	N	0.606219	-0.349329	-0.801172
N284	N	1.106219	0.150671	-0.301172
H285	H	0.582074	-0.373453	-0.820840
H286	H	1.082074	0.126547	-0.320840
N287	N	0.562192	-0.184399	-0.319616
N288	N	1.062192	0.315601	0.180384
N289	N	0.537835	-0.154592	-0.349526
N290	N	1.037835	0.345408	0.150474
H291	H	0.557545	-0.130504	-0.373701
H292	H	1.057545	0.369496	0.126299
H293	H	0.556421	-0.312465	-0.191103
H294	H	1.056421	0.187535	0.308897
H295	H	0.694830	-0.312531	-0.451436
H296	H	1.194830	0.187469	0.048564
N297	N	0.451839	-0.184390	-0.319623
N298	N	0.951839	0.315610	0.180377
N299	N	0.476258	-0.154590	-0.349533
N300	N	0.976258	0.345410	0.150467
H301	H	0.456599	-0.130503	-0.373715
H302	H	0.956599	0.369497	0.126285
H303	H	0.694830	-0.451006	-0.191137
H304	H	1.194830	0.048994	0.308863
N305	N	0.823181	-1.057885	-0.319629
N306	N	1.323181	-0.557885	0.180371
N307	N	0.823187	-1.106638	-0.319627
N308	N	1.323187	-0.606638	0.180373
H309	H	0.847297	-1.126307	-0.343770
H310	H	1.347297	-0.626307	0.156230
N311	N	0.654577	-0.806955	-0.150822
N312	N	1.154577	-0.306955	0.349178
N313	N	0.654585	-0.855707	-0.150830
N314	N	1.154585	-0.355707	0.349170
H315	H	0.630476	-0.875439	-0.126695
H316	H	1.130476	-0.375439	0.373305
H317	H	0.816241	-0.191207	-0.451483
H318	H	1.316241	0.308793	0.048517
H319	H	0.305389	-0.157922	-0.346188
H320	H	0.805389	0.342078	0.153812
H321	H	0.206344	-0.157919	-0.346192
H322	H	0.706344	0.342081	0.153808
N323	N	0.823251	-0.184124	-1.058560
N324	N	1.323251	0.315876	-0.558560
N325	N	0.823248	-0.184121	-1.107312
N326	N	1.323248	0.315879	-0.607312
H327	H	0.847385	-0.159998	-1.127027
H328	H	1.347385	0.340002	-0.627027
H329	H	0.054187	-0.191310	-0.312708
H330	H	0.554187	0.308690	0.187292
H331	H	0.457354	-0.312470	-0.191110
H332	H	0.957354	0.187530	0.308890
N333	N	0.310864	-0.352751	-0.150653
N334	N	0.810864	0.147249	0.349347
N335	N	0.286449	-0.382554	-0.120743
N336	N	0.786449	0.117446	0.379257
H337	H	0.306112	-0.406639	-0.096563
H338	H	0.806112	0.093361	0.403437
N339	N	-0.050642	-0.319395	-0.184210
N340	N	0.449358	0.180605	0.315790
N341	N	-0.026282	-0.349202	-0.154302
N342	N	0.473718	0.150798	0.345698
H343	H	-0.045990	-0.373296	-0.130132
H344	H	0.454010	0.126704	0.369868
H345	H	0.849730	-0.157699	-0.702671
H346	H	1.349730	0.342301	-0.202671
H347	H	0.054066	-0.312464	-0.191135
H348	H	0.554066	0.187536	0.308865
N349	N	0.687979	-0.319300	-1.058506
N350	N	1.187979	0.180700	-0.558506
N351	N	0.687983	-0.319286	-1.107258
N352	N	1.187983	0.180714	-0.607258
H353	H	0.663843	-0.343399	-1.126947
H354	H	1.163843	0.156601	-0.626947
N355	N	0.687952	-0.319325	-0.948130
N356	N	1.187952	0.180675	-0.448130
N357	N	0.639710	-0.315854	-0.954227
N358	N	1.139710	0.184146	-0.454227
H359	H	0.615561	-0.339978	-0.934529
H360	H	1.115561	0.160022	-0.434529
H361	H	0.695013	-1.052410	-0.191243
H362	H	1.195013	-0.552410	0.308757
N363	N	0.823005	-0.445159	-0.319517
N364	N	1.323005	0.054841	0.180483
N365	N	0.852843	-0.469499	-0.349401
N366	N	1.352843	0.030501	0.150599
H367	H	0.876950	-0.449775	-0.373545
H368	H	1.376950	0.050225	0.126455
N369	N	0.823031	-0.555513	-0.319553
N370	N	1.323031	-0.055513	0.180447
N371	N	0.852854	-0.531076	-0.349424
N372	N	1.352854	-0.031076	0.150576
H373	H	0.876971	-0.550721	-0.373580
H374	H	1.376971	-0.050721	0.126420
N375	N	0.856490	-0.696285	-0.353044
N376	N	1.356490	-0.196285	0.146956
N377	N	0.886324	-0.720629	-0.382926
N378	N	1.386324	-0.220629	0.117074
H379	H	0.910430	-0.700909	-0.407074
H380	H	1.410430	-0.200909	0.092926
H381	H	0.816228	-0.953168	-0.312683
H382	H	1.316228	-0.453168	0.187317
N383	N	0.688044	-0.947720	-0.184295
N384	N	1.188044	-0.447720	0.315705
N385	N	0.658223	-0.972155	-0.154420
N386	N	1.158223	-0.472155	0.345580
H387	H	0.634105	-0.952508	-0.130267
H388	H	1.134105	-0.452508	0.369733
H389	H	0.661380	-0.345880	-0.702595
H390	H	1.161380	0.154120	-0.202595
