data_functionalizedCrystal
_audit_creation_method	'MofGen! by Chris Wilmer'
_symmetry_space_group_name_H-M	'P1'
_symmetry_Int_Tables_number	1
_symmetry_cell_setting	triclinic
loop_
_symmetry_equiv_pos_as_xyz
  x,y,z
_cell_length_a	14.044191
_cell_length_b	14.044190
_cell_length_c	9.798715
_cell_angle_alpha	90.008237
_cell_angle_beta	90.001336
_cell_angle_gamma	93.191777
loop_
_atom_site_label
_atom_site_type_symbol
_atom_site_fract_x
_atom_site_fract_y
_atom_site_fract_z
O1	O	1.277177	0.230199	0.113453
O2	O	1.000505	0.221886	0.113470
O3	O	1.134685	0.087706	0.113435
O4	O	1.142997	0.364379	0.113488
O5	O	1.134674	0.087704	-0.113547
O6	O	1.000494	0.221884	-0.113513
O7	O	1.277166	0.230197	-0.113529
Zn8	Zn	1.138828	0.226040	-0.149559
Zn9	Zn	1.138843	0.226043	0.149500
O10	O	1.142986	0.364377	-0.113494
C11	C	0.964877	0.218249	-0.000020
C12	C	0.858734	0.207401	-0.000015
C13	C	0.613277	0.264502	-0.000017
C14	C	0.664400	0.187585	-0.000030
C15	C	0.772537	0.198614	-0.000021
C16	C	0.505130	0.253475	-0.000026
C17	C	1.131043	0.052083	-0.000060
C18	C	1.120195	-0.054060	-0.000071
C19	C	1.177296	-0.299517	-0.000021
C20	C	1.100379	-0.248394	-0.000026
C21	C	1.111408	-0.140257	-0.000051
C22	C	1.166269	-0.407664	0.000004
C23	C	1.312794	0.233834	-0.000036
C24	C	1.418937	0.244682	-0.000032
C25	C	1.146628	0.400000	0.000004
C26	C	1.157476	0.506143	0.000024
N27	N	1.138825	0.226039	-0.353659
C28	C	1.198666	0.285594	-0.421429
C29	C	1.198681	0.285594	-0.578591
N30	N	1.138853	0.226038	0.353600
H31	H	0.650720	0.338629	0.000001
N32	N	1.074597	0.162050	-0.573303
N33	N	1.078265	0.074017	-0.589167
H34	H	1.032887	0.028822	-0.537530
N35	N	1.007385	-0.295375	-0.000035
N36	N	0.982598	-0.350182	-0.095708
H37	H	0.916923	-0.383367	-0.095721
H38	H	1.251423	-0.262074	-0.000040
H39	H	1.249891	0.336578	-0.363097
H40	H	0.626955	0.113453	0.000052
H41	H	1.249909	0.336587	-0.636872
H42	H	1.087607	0.175049	-0.411990
