data_functionalizedCrystal
_audit_creation_method	'MofGen! by Chris Wilmer'
_symmetry_space_group_name_H-M	'P1'
_symmetry_Int_Tables_number	1
_symmetry_cell_setting	triclinic
loop_
_symmetry_equiv_pos_as_xyz
  x,y,z
_cell_length_a	9.065218
_cell_length_b	14.472310
_cell_length_c	9.065215
_cell_angle_alpha	89.999982
_cell_angle_beta	85.015291
_cell_angle_gamma	90.013153
loop_
_atom_site_label
_atom_site_type_symbol
_atom_site_fract_x
_atom_site_fract_y
_atom_site_fract_z
O1	O	1.960419	0.076841	0.216347
O2	O	2.460419	0.576841	0.716347
O3	O	1.531134	0.076842	0.234094
O4	O	2.031134	0.576842	0.734094
O5	O	1.754651	0.076838	0.010578
O6	O	2.254651	0.576838	0.510578
O7	O	1.736901	0.076846	0.439863
O8	O	2.236901	0.576846	0.939863
O9	O	1.754593	-0.076844	0.010590
O10	O	2.254593	0.423156	0.510590
O11	O	1.531075	-0.076840	0.234106
O12	O	2.031075	0.423160	0.734106
O13	O	1.960360	-0.076841	0.216360
O14	O	2.460360	0.423159	0.716360
Cu15	Cu	1.745713	-0.090873	0.225234
Cu16	Cu	2.245713	0.409127	0.725234
Cu17	Cu	1.745781	0.090874	0.225219
Cu18	Cu	2.245781	0.590874	0.725219
O19	O	1.736842	-0.076836	0.439876
O20	O	2.236842	0.423164	0.939876
C21	C	1.476118	0.000002	0.232394
C22	C	1.976118	0.500002	0.732394
C23	C	1.312275	0.000002	0.227295
C24	C	1.812275	0.500002	0.727295
N25	N	1.745675	-0.218703	0.225244
N26	N	2.245675	0.281297	0.725244
C27	C	1.745779	-0.592795	0.225213
C28	C	2.245779	-0.092795	0.725213
C29	C	1.625767	-0.553626	0.344400
C30	C	2.125767	-0.053626	0.844400
C31	C	1.626054	-0.446538	0.344845
C32	C	2.126054	0.053462	0.844845
C33	C	1.745726	-0.407204	0.225228
C34	C	2.245726	0.092796	0.725228
C35	C	1.900135	-0.446040	0.260913
C36	C	2.400135	0.053960	0.760913
C37	C	1.899464	-0.553162	0.261763
C38	C	2.399464	-0.053162	0.761763
C39	C	1.712751	-0.553327	0.070002
C40	C	2.212751	-0.053327	0.570002
C41	C	1.709234	-0.446199	0.070987
C42	C	2.209234	0.053801	0.570987
C43	C	1.745706	-0.302315	0.225234
C44	C	2.245706	0.197685	0.725234
C45	C	1.745810	-0.697683	0.225211
C46	C	2.245810	-0.197683	0.725211
C47	C	2.015376	0.000002	0.218059
C48	C	2.515376	0.500002	0.718059
C49	C	2.179219	0.000008	0.223159
C50	C	2.679219	0.500008	0.723159
C51	C	1.752917	-0.000002	-0.044403
C52	C	2.252917	0.499998	0.455597
C53	C	1.747819	0.000001	-0.208246
C54	C	2.247819	0.500001	0.291754
N55	N	1.745830	0.218705	0.225198
N56	N	2.245830	0.718705	0.725198
C57	C	1.738576	0.000006	0.494856
C58	C	2.238576	0.500006	0.994856
C59	C	1.743674	0.000009	0.658699
C60	C	2.243674	0.500009	1.158699
H61	H	1.510692	-0.579414	0.323161
H62	H	2.010692	-0.079414	0.823161
O63	O	1.937592	-0.586249	0.411784
O64	O	2.437592	-0.086249	0.911784
H65	H	2.039601	-0.628924	0.398499
H66	H	2.539601	-0.128924	0.898499
H67	H	1.646791	-0.580534	0.458887
H68	H	2.146791	-0.080534	0.958887
O69	O	1.654283	-0.412566	0.497349
O70	O	2.154283	0.087434	0.997349
H71	H	1.667798	-0.472650	0.571065
H72	H	2.167798	0.027350	1.071065
O73	O	1.558757	-0.412584	0.035184
O74	O	2.058757	0.087416	0.535184
H75	H	1.570424	-0.372008	-0.069080
H76	H	2.070424	0.127992	0.430920
O77	O	2.021455	-0.587492	0.151307
O78	O	2.521455	-0.087492	0.651307
H79	H	2.080675	-0.527580	0.097529
H80	H	2.580675	-0.027580	0.597529
O81	O	1.817306	-0.410764	-0.052223
O82	O	2.317306	0.089236	0.447777
H83	H	1.899085	-0.364601	-0.005238
H84	H	2.399085	0.135399	0.494762
H85	H	1.991660	-0.420559	0.176498
H86	H	2.491660	0.079441	0.676498
O87	O	1.566675	-0.589157	0.025244
O88	O	2.066675	-0.089157	0.525244
H89	H	1.545947	-0.560339	-0.084525
H90	H	2.045947	-0.060339	0.415475
O91	O	1.939112	-0.410506	0.409253
O92	O	2.439112	0.089494	0.909253
H93	H	1.943953	-0.333883	0.406575
H94	H	2.443953	0.166117	0.906575
O95	O	1.474106	-0.411747	0.316312
O96	O	1.974106	0.088253	0.816312
H97	H	1.399755	-0.471435	0.302076
H98	H	1.899755	0.028565	0.802076
O99	O	1.828626	-0.586882	-0.047532
O100	O	2.328626	-0.086882	0.452468
H101	H	1.909360	-0.631452	0.004250
H102	H	2.409360	-0.131452	0.504250
