data_functionalizedCrystal
_audit_creation_method	'MofGen! by Chris Wilmer'
_symmetry_space_group_name_H-M	'P1'
_symmetry_Int_Tables_number	1
_symmetry_cell_setting	triclinic
loop_
_symmetry_equiv_pos_as_xyz
  x,y,z
_cell_length_a	12.759395
_cell_length_b	14.908520
_cell_length_c	14.908308
_cell_angle_alpha	83.639235
_cell_angle_beta	86.719697
_cell_angle_gamma	93.322116
loop_
_atom_site_label
_atom_site_type_symbol
_atom_site_fract_x
_atom_site_fract_y
_atom_site_fract_z
Zn1	Zn	1.544176	-0.389837	0.532516
Zn2	Zn	1.544056	-0.532483	0.389887
Zn3	Zn	1.379244	-0.381144	0.381180
Zn4	Zn	1.357689	-0.541160	0.541202
O5	O	1.456291	-0.461156	0.461196
O6	O	1.691180	-0.408766	0.513605
O7	O	1.531164	-0.505137	0.262071
O8	O	1.410193	-0.255632	0.393976
O9	O	1.691092	-0.513567	0.408816
O10	O	1.531368	-0.262019	0.505162
O11	O	1.410077	-0.393949	0.255674
O12	O	1.229364	-0.402363	0.402398
O13	O	1.373457	-0.528357	0.666710
O14	O	1.213529	-0.519927	0.519965
O15	O	1.510467	-0.417180	0.660329
O16	O	1.510264	-0.660299	0.417238
O17	O	1.373341	-0.666674	0.528408
C18	C	1.439478	-0.696330	0.474730
C19	C	1.432379	-0.796940	0.480550
C20	C	1.183326	-0.461144	0.461180
C21	C	1.066547	-0.461162	0.461196
C22	C	1.561749	-0.979303	0.375818
C23	C	1.555082	-1.073836	0.381284
C24	C	1.412385	-1.080539	0.496951
C25	C	1.419052	-0.986007	0.491486
C26	C	1.493735	-0.935392	0.430916
C27	C	1.500396	-0.840858	0.425447
C28	C	1.357704	-0.847563	0.541118
C29	C	1.351038	-0.942095	0.546583
C30	C	1.050095	-0.583757	0.583442
C31	C	0.987008	-0.645062	0.644569
C32	C	0.877285	-0.645073	0.644580
C33	C	0.830648	-0.583772	0.583461
C34	C	0.893735	-0.522467	0.522335
C35	C	1.003459	-0.522464	0.522328
C36	C	0.910186	-0.399869	0.400094
C37	C	1.019909	-0.399860	0.400076
C38	C	0.863548	-0.338568	0.338974
C39	C	0.926635	-0.277266	0.277842
C40	C	1.036365	-0.277257	0.277832
C41	C	1.082996	-0.338555	0.338950
C42	C	1.730323	-0.461168	0.461213
C43	C	1.847099	-0.461174	0.461220
C44	C	1.439571	-0.474706	0.697280
C45	C	1.432446	-0.480480	0.797885
C46	C	1.473198	-0.225064	0.447629
C47	C	1.480402	-0.124456	0.441847
C48	C	1.473012	-0.447593	0.226027
C49	C	1.480359	-0.441564	0.125408
C50	C	1.561725	-0.375542	0.980288
C51	C	1.555033	-0.380965	1.074815
C52	C	1.412368	-0.496742	1.081467
C53	C	1.419059	-0.491320	0.986940
C54	C	1.493741	-0.430719	0.936354
C55	C	1.500436	-0.425302	0.841825
C56	C	1.357767	-0.541074	0.848479
C57	C	1.351075	-0.546497	0.943006
H58	H	1.622552	-0.938092	0.326494
H59	H	1.351565	-0.546080	1.122671
N60	N	1.201339	-0.338545	0.338946
H61	H	1.234231	-0.290407	0.290951
H62	H	1.224429	-0.399680	0.325799
N63	N	1.270489	-0.996695	0.611901
H64	H	1.197594	-0.979496	0.596830
H65	H	1.283408	-0.983900	0.675608
N66	N	1.270510	-0.611838	0.997568
H67	H	1.276578	-0.606896	1.064117
H68	H	1.283391	-0.675541	0.984773
H69	H	1.561248	-0.375958	0.800639
H70	H	1.302412	-0.586006	0.812699
N71	N	0.876336	-0.211165	0.211916
H72	H	0.797255	-0.220476	0.221198
H73	H	0.899084	-0.221453	0.148057
H74	H	1.561203	-0.799648	0.376126
H75	H	1.610468	-1.109584	0.336420
H76	H	1.087725	-0.227329	0.228062
H77	H	1.351589	-1.121765	0.546270
H78	H	1.610390	-0.336032	1.110582
N79	N	1.284334	-0.800203	0.600544
H80	H	1.299884	-0.732636	0.587891
H81	H	1.294875	-0.820398	0.666156
N82	N	1.168439	-0.583755	0.583418
H83	H	1.188411	-0.631891	0.631407
H84	H	1.198050	-0.522619	0.596560
H85	H	1.622538	-0.326203	0.939100
H86	H	1.024993	-0.694971	0.694332
H87	H	0.825919	-0.694989	0.694359
H88	H	0.741304	-0.583779	0.583483
H89	H	0.774205	-0.338578	0.338992
