data_functionalizedCrystal
_audit_creation_method	'MofGen! by Chris Wilmer'
_symmetry_space_group_name_H-M	'P1'
_symmetry_Int_Tables_number	1
_symmetry_cell_setting	triclinic
loop_
_symmetry_equiv_pos_as_xyz
  x,y,z
_cell_length_a	19.188879
_cell_length_b	14.971486
_cell_length_c	13.448316
_cell_angle_alpha	89.998199
_cell_angle_beta	90.016397
_cell_angle_gamma	96.630896
loop_
_atom_site_label
_atom_site_type_symbol
_atom_site_fract_x
_atom_site_fract_y
_atom_site_fract_z
O1	O	-0.090990	1.186446	-0.082600
O2	O	0.242343	1.519779	0.250734
O3	O	0.575676	1.853112	0.584067
O4	O	-0.101886	0.925985	-0.082629
O5	O	0.231447	1.259319	0.250704
O6	O	0.564780	1.592652	0.584037
O7	O	0.005196	1.063755	-0.082582
O8	O	0.338529	1.397089	0.250751
O9	O	0.671862	1.730422	0.584084
O10	O	-0.198072	1.048675	-0.082647
O11	O	0.135261	1.382009	0.250687
O12	O	0.468595	1.715342	0.584020
O13	O	0.005202	1.063738	0.082801
O14	O	0.338536	1.397071	0.416135
O15	O	0.671869	1.730405	0.749468
O16	O	-0.101880	0.925968	0.082754
O17	O	0.231454	1.259301	0.416088
O18	O	0.564787	1.592635	0.749421
O19	O	-0.090984	1.186428	0.082784
O20	O	0.242350	1.519762	0.416117
O21	O	0.575683	1.853095	0.749451
Cu22	Cu	-0.096431	1.056197	0.097870
Cu23	Cu	0.236902	1.389530	0.431203
Cu24	Cu	0.570236	1.722863	0.764537
Cu25	Cu	-0.096439	1.056217	-0.097715
Cu26	Cu	0.236894	1.389550	0.235618
Cu27	Cu	0.570228	1.722884	0.568951
O28	O	-0.198066	1.048658	0.082737
O29	O	0.135268	1.381992	0.416071
O30	O	0.468601	1.715325	0.749404
C31	C	-0.101396	0.892655	0.000059
C32	C	0.231938	1.225988	0.333393
C33	C	0.565271	1.559321	0.666726
C34	C	-0.099936	0.793366	0.000049
C35	C	0.233398	1.126699	0.333383
C36	C	0.566731	1.460032	0.666716
C37	C	-0.162843	0.735793	0.000031
C38	C	0.170490	1.069127	0.333364
C39	C	0.503823	1.402460	0.666698
C40	C	-0.161467	0.642501	0.000046
C41	C	0.171866	0.975835	0.333380
C42	C	0.505200	1.309168	0.666713
C43	C	-0.097182	0.606784	0.000073
C44	C	0.236151	0.940117	0.333406
C45	C	0.569484	1.273450	0.666739
C46	C	-0.034270	0.664363	0.000094
C47	C	0.299064	0.997697	0.333428
C48	C	0.632397	1.331030	0.666761
C49	C	-0.035647	0.757653	0.000086
C50	C	0.297687	1.090987	0.333419
C51	C	0.631020	1.424320	0.666753
C52	C	-0.031404	0.469917	0.000109
C53	C	0.301929	0.803250	0.333442
C54	C	0.635263	1.136583	0.666775
C55	C	-0.030027	0.376620	0.000115
C56	C	0.303307	0.709954	0.333448
C57	C	0.636640	1.043287	0.666782
C58	C	-0.157224	0.354765	0.000069
C59	C	0.176109	0.688098	0.333402
C60	C	0.509442	1.021431	0.666736
C61	C	-0.158601	0.448055	0.000061
C62	C	0.174732	0.781388	0.333394
C63	C	0.508065	1.114721	0.666727
C64	C	-0.095688	0.505628	0.000080
C65	C	0.237645	0.838961	0.333414
C66	C	0.570978	1.172295	0.666747
C67	C	-0.224082	1.049148	0.000037
C68	C	0.109251	1.382481	0.333371
C69	C	0.442585	1.715814	0.666704
C70	C	-0.301593	1.050591	0.000013
C71	C	0.031740	1.383924	0.333347
C72	C	0.365074	1.717258	0.666680
C73	C	-0.337974	1.051282	0.090169
C74	C	-0.004641	1.384615	0.423502
C75	C	0.328693	1.717949	0.756836
C76	C	-0.410802	1.052663	0.090187
C77	C	-0.077468	1.385996	0.423520
C78	C	0.255865	1.719329	0.756853
C79	C	-0.447243	1.053370	0.000043
C80	C	-0.113910	1.386703	0.333376
C81	C	0.219423	1.720037	0.666710
C82	C	-0.410854	1.052674	-0.090125
C83	C	-0.077521	1.386007	0.243209
C84	C	0.255813	1.719340	0.576542
C85	C	-0.338029	1.051284	-0.090140
C86	C	-0.004696	1.384618	0.243194
C87	C	0.328638	1.717951	0.576527
N88	N	-0.556437	1.106460	-0.067030
N89	N	-0.223103	1.439794	0.266304
N90	N	0.110230	1.773127	0.599637
N91	N	-0.625617	1.107782	-0.067009
N92	N	-0.292284	1.441116	0.266324
N93	N	0.041049	1.774449	0.599657
C94	C	-0.666662	1.057555	0.000082
C95	C	-0.333328	1.390888	0.333416
C96	C	0.000005	1.724222	0.666749
N97	N	-0.635911	1.005967	0.067168
N98	N	-0.302577	1.339300	0.400502
N99	N	0.030756	1.672634	0.733835
N100	N	-0.566723	1.004649	0.067151
N101	N	-0.233390	1.337982	0.400484
N102	N	0.099944	1.671315	0.733818
C103	C	-0.526210	1.054876	0.000049
C104	C	-0.192877	1.388210	0.333382
C105	C	0.140457	1.721543	0.666716
C106	C	-0.782011	1.059742	0.090263
C107	C	-0.448677	1.393075	0.423597
C108	C	-0.115344	1.726408	0.756930
C109	C	-0.854840	1.061117	0.090277
C110	C	-0.521507	1.394450	0.423610
C111	C	-0.188173	1.727783	0.756944
C112	C	-0.854890	1.061137	-0.090037
C113	C	-0.521557	1.394470	0.243297
C114	C	-0.188223	1.727804	0.576630
C115	C	-0.782063	1.059753	-0.090048
C116	C	-0.448730	1.393086	0.243285
C117	C	-0.115396	1.726420	0.576619
C118	C	-0.745627	1.059060	0.000105
C119	C	-0.412294	1.392393	0.333438
C120	C	-0.078961	1.725726	0.666772
C121	C	0.031212	1.063266	0.000115
C122	C	0.364545	1.396599	0.333449
C123	C	0.697879	1.729933	0.666782
C124	C	0.108723	1.061823	0.000133
C125	C	0.442056	1.395156	0.333466
C126	C	0.775390	1.728489	0.666799
C127	C	-0.091474	1.219759	0.000093
C128	C	0.241859	1.553092	0.333427
C129	C	0.575193	1.886426	0.666760
C130	C	-0.092934	1.319048	0.000097
C131	C	0.240399	1.652381	0.333430
C132	C	0.573732	1.985715	0.666763
N133	N	-0.096425	1.056189	0.235434
N134	N	0.236908	1.389522	0.568768
N135	N	0.570242	1.722855	0.902101
N136	N	-0.096439	1.056232	-0.235280
N137	N	0.236894	1.389565	0.098054
N138	N	0.570227	1.722899	0.431387
C139	C	-0.049029	1.117212	0.287496
C140	C	0.284305	1.450546	0.620829
C141	C	0.617638	1.783879	0.954162
C142	C	-0.049028	1.117218	0.391599
C143	C	0.284305	1.450551	0.724932
C144	C	0.617638	1.783884	1.058265
C145	C	-0.096428	1.056204	0.443639
C146	C	0.236905	1.389537	0.776972
C147	C	0.570239	1.722870	1.110306
C148	C	-0.143827	0.995174	0.391571
C149	C	0.189507	1.328507	0.724904
C150	C	0.522840	1.661840	1.058237
C151	C	-0.143823	0.995165	0.287469
C152	C	0.189510	1.328498	0.620803
C153	C	0.522843	1.661831	0.954136
C154	C	-0.143831	0.995199	0.608551
C155	C	0.189502	1.328532	0.941884
C156	C	0.522835	1.661865	1.275217
C157	C	-0.143836	0.995209	0.712659
C158	C	0.189498	1.328542	1.045992
C159	C	0.522831	1.661875	1.379326
C160	C	-0.049036	1.117252	0.712680
C161	C	0.284297	1.450585	1.046014
C162	C	0.617630	1.783918	1.379347
C163	C	-0.049033	1.117243	0.608579
C164	C	0.284300	1.450576	0.941912
C165	C	0.617634	1.783909	1.275246
C166	C	-0.096433	1.056214	0.556518
C167	C	0.236901	1.389547	0.889851
C168	C	0.570234	1.722880	1.223184
H169	H	-0.215191	0.764867	0.000009
H170	H	0.118142	1.098200	0.333342
H171	H	0.451475	1.431533	0.666675
H172	H	-0.884460	1.061677	0.163696
H173	H	-0.551127	1.395011	0.497029
H174	H	-0.217794	1.728344	0.830363
H175	H	0.015579	0.804529	0.000100
H176	H	0.348913	1.137862	0.333434
H177	H	0.682246	1.471195	0.666767
H178	H	-0.308313	1.050716	0.163579
H179	H	0.025021	1.384050	0.496912
H180	H	0.358354	1.717383	0.830245
H181	H	-0.308408	1.050720	-0.163558
H182	H	0.024925	1.384054	0.169776
H183	H	0.358259	1.717387	0.503109
H184	H	-0.010442	1.166943	0.755075
H185	H	0.322891	1.500276	1.088408
H186	H	0.656225	1.833610	1.421741
H187	H	-0.182427	0.945499	0.566166
H188	H	0.150906	1.278833	0.899499
H189	H	0.484240	1.612166	1.232832
F190	F	-0.194284	0.930267	0.768037
F191	F	0.139049	1.263600	1.101370
F192	F	0.472382	1.596934	1.434704
H193	H	-0.210948	0.477133	0.000030
H194	H	0.122386	0.810466	0.333363
H195	H	0.455719	1.143799	0.666696
F196	F	-0.228422	0.581232	0.000022
F197	F	0.104911	0.914565	0.333356
F198	F	0.438244	1.247899	0.666689
F199	F	-0.194267	0.930212	0.232063
F200	F	0.139066	1.263546	0.565397
F201	F	0.472399	1.596879	0.898730
F202	F	0.001417	1.182164	0.447006
F203	F	0.334750	1.515498	0.780340
F204	F	0.668084	1.848831	1.113673
H205	H	-0.440431	1.053209	0.163605
H206	H	-0.107097	1.386542	0.496938
H207	H	0.226236	1.719875	0.830271
F208	F	0.001410	1.182185	0.553193
F209	F	0.334744	1.515518	0.886527
F210	F	0.668077	1.848851	1.219860
H211	H	0.019826	0.516791	0.000126
H212	H	0.353160	0.850124	0.333460
H213	H	0.686493	1.183458	0.666793
H214	H	-0.208450	0.307884	0.000057
H215	H	0.124883	0.641217	0.333391
H216	H	0.458216	0.974550	0.666724
H217	H	-0.440530	1.053246	-0.163520
H218	H	-0.107197	1.386580	0.169813
H219	H	0.226137	1.719913	0.503146
H220	H	0.022320	0.347542	0.000138
H221	H	0.355653	0.680876	0.333471
H222	H	0.688986	1.014209	0.666805
F223	F	-0.194270	0.930233	0.446956
F224	F	0.139063	1.263566	0.780290
F225	F	0.472396	1.596899	1.113623
F226	F	-0.743231	1.059000	0.186210
F227	F	-0.409898	1.392333	0.519544
F228	F	-0.076564	1.725667	0.852877
H229	H	0.018072	0.635275	0.000130
H230	H	0.351406	0.968608	0.333463
H231	H	0.684739	1.301941	0.666797
F232	F	-0.893672	1.061861	-0.185975
F233	F	-0.560339	1.395195	0.147358
F234	F	-0.227005	1.728528	0.480691
H235	H	-0.752441	1.059196	-0.163463
H236	H	-0.419107	1.392530	0.169871
H237	H	-0.085774	1.725863	0.503204
H238	H	-0.010433	1.166901	0.245131
H239	H	0.322900	1.500234	0.578465
H240	H	0.656233	1.833567	0.911798
