data_functionalizedCrystal
_audit_creation_method	'MofGen! by Chris Wilmer'
_symmetry_space_group_name_H-M	'P1'
_symmetry_Int_Tables_number	1
_symmetry_cell_setting	triclinic
loop_
_symmetry_equiv_pos_as_xyz
  x,y,z
_cell_length_a	18.215405
_cell_length_b	18.215407
_cell_length_c	12.827893
_cell_angle_alpha	90.002980
_cell_angle_beta	90.013979
_cell_angle_gamma	90.022344
loop_
_atom_site_label
_atom_site_type_symbol
_atom_site_fract_x
_atom_site_fract_y
_atom_site_fract_z
Zn1	Zn	-0.293162	1.124971	0.590777
Zn2	Zn	0.206838	1.624971	1.090777
Zn3	Zn	-0.416198	1.124909	0.416017
Zn4	Zn	0.083802	1.624909	0.916017
Zn5	Zn	-0.293144	1.001933	0.416053
Zn6	Zn	0.206856	1.501933	0.916053
Zn7	Zn	-0.416186	1.001869	0.590719
Zn8	Zn	0.083814	1.501869	1.090719
O9	O	-0.354673	1.063421	0.503392
O10	O	0.145327	1.563421	1.003392
O11	O	-0.309496	1.227947	0.567604
O12	O	0.190504	1.727947	1.067604
O13	O	-0.399872	1.108597	0.269786
O14	O	0.100128	1.608597	0.769786
O15	O	-0.190162	1.018307	0.439270
O16	O	0.309838	1.518307	0.939270
O17	O	-0.399889	1.227902	0.439208
O18	O	0.100111	1.727902	0.939208
O19	O	-0.190175	1.108702	0.567639
O20	O	0.309825	1.608702	1.067639
O21	O	-0.309465	1.018247	0.269812
O22	O	0.190535	1.518247	0.769812
O23	O	-0.309453	0.898941	0.439214
O24	O	0.190547	1.398941	0.939214
O25	O	-0.399869	1.018198	0.736963
O26	O	0.100131	1.518198	1.236963
O27	O	-0.399852	0.898893	0.567540
O28	O	0.100148	1.398893	1.067540
O29	O	-0.309484	1.108640	0.737005
O30	O	0.190516	1.608640	1.237005
O31	O	-0.519180	1.108535	0.439152
O32	O	-0.019180	1.608535	0.939152
O33	O	-0.519172	1.018138	0.567505
O34	O	-0.019172	1.518138	1.067505
C35	C	-0.354650	0.872214	0.503375
C36	C	0.145350	1.372214	1.003375
C37	C	-0.354658	0.790415	0.503393
C38	C	0.145342	1.290415	1.003393
C39	C	-0.401820	0.525353	0.570119
C40	C	0.098180	1.025353	1.070119
C41	C	-0.401814	0.602211	0.570114
C42	C	0.098186	1.102211	1.070114
C43	C	-0.307541	0.602230	0.436682
C44	C	0.192459	1.102230	0.936682
C45	C	-0.307552	0.525372	0.436683
C46	C	0.192448	1.025372	0.936683
C47	C	-0.354690	0.486936	0.503407
C48	C	0.145310	0.986936	1.003407
C49	C	-0.354673	0.640652	0.503402
C50	C	0.145327	1.140652	1.003402
C51	C	-0.354666	0.723986	0.503396
C52	C	0.145334	1.223986	1.003396
C53	C	-0.354699	0.403597	0.503412
C54	C	0.145301	0.903597	1.003412
C55	C	-0.545879	1.063343	0.503341
C56	C	-0.045879	1.563343	1.003341
C57	C	-0.627678	1.063377	0.503355
C58	C	-0.127678	1.563377	1.003355
C59	C	-0.815852	1.110557	0.436644
C60	C	-0.315852	1.610557	0.936644
C61	C	-0.892710	1.110590	0.436670
C62	C	-0.392710	1.610590	0.936670
C63	C	-0.892741	1.016378	0.570214
C64	C	-0.392741	1.516378	1.070214
C65	C	-0.815884	1.016350	0.570193
C66	C	-0.315884	1.516350	1.070193
C67	C	-0.777441	1.063438	0.503402
C68	C	-0.277441	1.563438	1.003402
C69	C	-0.931157	1.063499	0.503448
C70	C	-0.431157	1.563499	1.003448
C71	C	-1.014491	1.063535	0.503476
C72	C	-0.514491	1.563535	1.003476
C73	C	-0.694102	1.063404	0.503376
C74	C	-0.194102	1.563404	1.003376
C75	C	-0.162720	1.063519	0.503465
C76	C	0.337280	1.563519	1.003465
C77	C	-0.080921	1.063560	0.503496
C78	C	0.419079	1.563560	1.003496
C79	C	-0.354677	1.063419	0.775962
C80	C	0.145323	1.563419	1.275962
C81	C	-0.354679	1.063418	0.892115
C82	C	0.145321	1.563418	1.392115
C83	C	-0.354696	1.255373	0.503408
C84	C	0.145304	1.755373	1.003408
C85	C	-0.354706	1.337172	0.503415
C86	C	0.145294	1.837172	1.003415
C87	C	-0.309960	1.108167	0.943920
C88	C	0.190040	1.608167	1.443920
C89	C	-0.309961	1.108167	1.063971
C90	C	0.190039	1.608167	1.563971
C91	C	-0.354684	1.063417	1.231882
C92	C	0.145316	1.563417	1.731882
C93	C	-0.354682	1.063418	1.115728
C94	C	0.145318	1.563418	1.615728
H95	H	-0.269172	0.494093	0.382353
H96	H	0.230828	0.994093	0.882353
H97	H	-0.271677	1.146480	1.108522
H98	H	0.228323	1.646480	1.608522
H99	H	-0.784553	1.148900	0.382261
H100	H	-0.284553	1.648900	0.882261
C101	C	-0.916225	1.235254	0.385959
C102	C	-0.416225	1.735254	0.885959
C103	C	-0.934903	1.162407	0.363285
C104	C	-0.434903	1.662407	0.863285
H105	H	-0.942262	1.267250	0.340648
H106	H	-0.442262	1.767250	0.840648
H107	H	-0.928803	1.245977	0.456179
H108	H	-0.428803	1.745977	0.956179
H109	H	-0.864943	1.241939	0.376409
H110	H	-0.364943	1.741939	0.876409
H111	H	-0.986184	1.155720	0.372842
H112	H	-0.486184	1.655720	0.872842
H113	H	-0.922330	1.151680	0.293048
H114	H	-0.422330	1.651680	0.793048
H115	H	-0.392973	1.025107	1.071184
H116	H	0.107027	1.525107	1.571184
C117	C	-1.010573	0.974583	0.629533
C118	C	-0.510573	1.474583	1.129533
C119	C	-0.935001	0.964613	0.643617
C120	C	-0.435001	1.464613	1.143617
H121	H	-1.036659	0.942619	0.674845
H122	H	-0.536659	1.442619	1.174845
H123	H	-1.023124	1.024018	0.644900
H124	H	-0.523124	1.524018	1.144900
H125	H	-1.023188	0.963861	0.559305
H126	H	-0.523188	1.463861	1.059305
H127	H	-0.922384	0.975340	0.713844
H128	H	-0.422384	1.475340	1.213844
H129	H	-0.922444	0.915166	0.628257
H130	H	-0.422444	1.415166	1.128257
H131	H	-0.784608	0.977979	0.624561
H132	H	-0.284608	1.477979	1.124561
C133	C	-0.182870	0.625915	0.386071
C134	C	0.317130	1.125915	0.886071
C135	C	-0.255725	0.644477	0.363340
C136	C	0.244275	1.144477	0.863340
H137	H	-0.150881	0.651992	0.340785
H138	H	0.349119	1.151992	0.840785
H139	H	-0.172174	0.638523	0.456299
H140	H	0.327826	1.138523	0.956299
H141	H	-0.176144	0.574641	0.376525
H142	H	0.323856	1.074641	0.876525
H143	H	-0.262453	0.695750	0.372893
H144	H	0.237547	1.195750	0.872893
H145	H	-0.266425	0.631874	0.293094
H146	H	0.233575	1.131874	0.793094
H147	H	-0.271670	1.146475	0.899396
H148	H	0.228330	1.646475	1.399396
H149	H	-0.392962	1.025102	0.936639
H150	H	0.107038	1.525102	1.436639
C151	C	-0.437860	0.501691	0.746985
C152	C	0.062140	1.001691	1.246985
C153	C	-0.453636	0.483102	0.643457
C154	C	0.046364	0.983102	1.143457
H155	H	-0.469854	0.475610	0.792259
H156	H	0.030146	0.975610	1.292259
H157	H	-0.388437	0.489106	0.762394
H158	H	0.111563	0.989106	1.262394
H159	H	-0.444602	0.552964	0.756517
H160	H	0.055398	1.052964	1.256517
H161	H	-0.446889	0.431829	0.633923
H162	H	0.053111	0.931829	1.133923
H163	H	-0.503071	0.495682	0.628043
H164	H	-0.003071	0.995682	1.128043
H165	H	-0.440193	0.633487	0.624437
H166	H	0.059807	1.133487	1.124437
