data_functionalizedCrystal
_audit_creation_method	'MofGen! by Chris Wilmer'
_symmetry_space_group_name_H-M	'P1'
_symmetry_Int_Tables_number	1
_symmetry_cell_setting	triclinic
loop_
_symmetry_equiv_pos_as_xyz
  x,y,z
_cell_length_a	23.532407
_cell_length_b	23.532357
_cell_length_c	22.010155
_cell_angle_alpha	89.998697
_cell_angle_beta	89.996931
_cell_angle_gamma	82.838485
loop_
_atom_site_label
_atom_site_type_symbol
_atom_site_fract_x
_atom_site_fract_y
_atom_site_fract_z
O1	O	0.755251	0.069129	-0.050457
O2	O	0.589386	0.079132	-0.050475
O3	O	0.677335	-0.008803	-0.050453
O4	O	0.667302	0.157064	-0.050479
O5	O	0.677319	-0.008790	0.050597
O6	O	0.589370	0.079145	0.050575
O7	O	0.755235	0.069142	0.050594
Cu8	Cu	0.672301	0.074145	0.059811
Cu9	Cu	0.672320	0.074129	-0.059693
O10	O	0.667286	0.157077	0.050571
C11	C	0.568162	0.078884	0.000048
C12	C	0.504945	0.078118	0.000041
C13	C	0.677076	-0.030013	0.000074
C14	C	0.676322	-0.093232	0.000080
C15	C	0.105834	0.125353	0.000061
C16	C	0.046434	0.124641	0.000065
O17	O	0.009681	0.168428	0.000080
N18	N	0.023817	0.072364	0.000072
C19	C	0.060604	0.020794	0.000082
O20	O	0.035912	-0.023737	0.000089
C21	C	0.120003	0.021506	0.000082
C22	C	0.142616	0.073787	0.000069
C23	C	0.128448	0.177629	0.000048
C24	C	0.187844	0.178341	0.000043
C25	C	0.224626	0.126775	0.000051
C26	C	0.202012	0.074498	0.000064
C27	C	0.156788	-0.030063	0.000096
C28	C	0.216191	-0.029346	0.000097
C29	C	0.238804	0.022935	0.000084
C30	C	0.298190	0.023644	0.000067
N31	N	0.320807	0.075922	0.000059
C32	C	0.284025	0.127487	0.000052
C33	C	-0.064139	0.019303	0.000082
C34	C	-0.123536	0.018590	0.000077
C35	C	-0.137702	0.122437	0.000061
C36	C	-0.078303	0.123149	0.000062
C37	C	-0.041522	0.071580	0.000074
C38	C	0.408761	0.128977	0.000041
C39	C	0.468163	0.129684	0.000033
C40	C	0.482324	0.025837	0.000052
C41	C	0.422927	0.025130	0.000056
C42	C	0.386147	0.076704	0.000053
O43	O	0.334977	-0.020120	0.000054
O44	O	0.308725	0.172011	0.000052
C45	C	0.671594	-0.485250	-0.055036
C46	C	0.670877	-0.544650	-0.055040
O47	O	0.670494	-0.575372	-0.101885
N48	N	0.670512	-0.574354	0.000042
C49	C	0.670859	-0.544655	0.055131
O50	O	0.670483	-0.575374	0.101982
C51	C	0.671572	-0.485256	0.055134
C52	C	0.671943	-0.455556	0.000048
C53	C	0.671963	-0.455550	-0.110117
C54	C	0.672682	-0.396155	-0.110113
C55	C	0.673030	-0.366460	-0.055029
C56	C	0.672661	-0.396160	0.000052
C57	C	0.671915	-0.455557	0.110222
C58	C	0.672628	-0.396154	0.110220
C59	C	0.672998	-0.366454	0.055135
C60	C	0.673728	-0.307070	0.055141
N61	N	0.674092	-0.277366	0.000059
C62	C	0.673743	-0.307061	-0.055026
C63	C	0.669361	-0.669396	0.055121
C64	C	0.668652	-0.728795	0.055118
C65	C	0.668668	-0.728786	-0.055053
C66	C	0.669381	-0.669387	-0.055050
C67	C	0.669725	-0.639692	0.000039
C68	C	0.675252	-0.182327	-0.055014
C69	C	0.675973	-0.122927	-0.055005
C70	C	0.675954	-0.122941	0.055166
C71	C	0.675236	-0.182336	0.055157
C72	C	0.674883	-0.212027	0.000063
O73	O	0.674109	-0.276310	0.101962
O74	O	0.674112	-0.276333	-0.101869
C75	C	0.776459	0.069390	0.000070
C76	C	0.839676	0.070156	0.000072
C77	C	0.667545	0.178287	0.000043
C78	C	0.668300	0.241506	0.000033
N79	N	0.672292	0.074155	0.143864
N80	N	0.672334	0.074114	-0.143745
C81	C	0.711266	0.035197	0.563653
C82	C	0.711269	0.035193	0.627260
O83	O	0.744383	0.002076	0.660160
N84	N	0.672320	0.074117	0.659071
C85	C	0.633362	0.113044	0.627270
O86	O	0.600233	0.146152	0.660168
C87	C	0.633357	0.113045	0.563663
C88	C	0.672312	0.074122	0.531857
C89	C	0.750218	-0.003724	0.531846
C90	C	0.750216	-0.003719	0.468243
C91	C	0.711262	0.035206	0.436446
C92	C	0.672310	0.074127	0.468253
C93	C	0.594397	0.151969	0.531864
C94	C	0.594395	0.151966	0.468253
C95	C	0.633350	0.113043	0.436446
C96	C	0.633354	0.113056	0.372854
N97	N	0.672303	0.074132	0.341044
C98	C	0.711257	0.035207	0.372840
C99	C	0.633374	0.113039	0.760848
C100	C	0.633382	0.113041	0.824453
C101	C	0.711288	0.035189	0.824439
C102	C	0.711283	0.035190	0.760833
C103	C	0.672323	0.074115	0.729038
C104	C	0.711250	0.035220	0.239269
C105	C	0.711246	0.035230	0.175660
C106	C	0.633338	0.113080	0.175679
C107	C	0.633344	0.113073	0.239282
C108	C	0.672302	0.074138	0.271076
O109	O	0.600255	0.146155	0.339914
O110	O	0.744376	0.002100	0.339935
H111	H	0.486571	0.172259	0.000022
O112	O	-0.173496	0.172493	-0.000024
C113	C	-0.248762	0.231961	-0.052398
C114	C	-0.208268	0.175251	-0.052369
H115	H	-0.276878	0.234214	-0.094720
H116	H	-0.276966	0.234233	-0.010136
H117	H	-0.222388	0.269442	-0.052375
H118	H	-0.234597	0.137738	-0.052413
H119	H	-0.180063	0.173029	-0.094627
H120	H	0.743006	0.003493	0.850339
H121	H	0.743004	0.003495	0.734939
O122	O	0.787890	-0.041619	0.437256
C123	C	0.822065	-0.076489	0.339272
C124	C	0.779471	-0.033430	0.374283
H125	H	0.815265	-0.069890	0.288352
H126	H	0.867735	-0.069514	0.351608
H127	H	0.814702	-0.121972	0.351945
H128	H	0.786781	0.012071	0.361629
H129	H	0.733816	-0.040454	0.361944
O130	O	0.595477	0.150945	0.144880
C131	C	0.518174	0.228133	0.151589
C132	C	0.561032	0.185295	0.186546
H133	H	0.490305	0.255907	0.185260
H134	H	0.542561	0.256501	0.121823
H135	H	0.489899	0.203670	0.121796
H136	H	0.589318	0.209710	0.216371
H137	H	0.536609	0.156927	0.216273
H138	H	0.601628	0.144773	0.265180
H139	H	0.378821	0.170974	0.000040
O140	O	0.668392	-0.757684	0.108610
C141	C	0.716882	-0.831513	0.172545
C142	C	0.717263	-0.798834	0.111949
H143	H	0.756384	-0.864798	0.175259
H144	H	0.717289	-0.800115	0.211940
H145	H	0.676663	-0.853847	0.175277
H146	H	0.757476	-0.776499	0.109158
H147	H	0.716826	-0.830259	0.072583
H148	H	0.742970	0.003534	0.149765
H149	H	0.138388	-0.072635	0.000107
H150	H	0.669642	-0.645223	0.099983
O151	O	0.518118	-0.024214	-0.000020
C152	C	0.593394	-0.083695	-0.052372
C153	C	0.552896	-0.026987	-0.052366
H154	H	0.621513	-0.085961	-0.094696
H155	H	0.621593	-0.085951	-0.010111
H156	H	0.567022	-0.121178	-0.052332
H157	H	0.579223	0.010528	-0.052427
H158	H	0.524695	-0.024781	-0.094623
O159	O	0.674927	-0.211078	-0.108586
C160	C	0.674964	-0.204777	-0.217858
C161	C	0.675350	-0.172149	-0.157233
H162	H	0.675294	-0.173315	-0.257206
H163	H	0.714495	-0.238019	-0.220666
H164	H	0.634771	-0.227153	-0.220582
H165	H	0.715517	-0.149738	-0.154469
H166	H	0.635792	-0.138939	-0.154452
H167	H	0.206249	0.220913	0.000032
H168	H	0.601667	0.144742	0.850346
O169	O	0.788118	-0.041559	0.562633
C170	C	0.865373	-0.118792	0.555885
C171	C	0.822485	-0.075966	0.520949
H172	H	0.893162	-0.146629	0.522199
H173	H	0.893723	-0.094377	0.585639
H174	H	0.840954	-0.147101	0.585686
H175	H	0.846857	-0.047646	0.491115
H176	H	0.794136	-0.100416	0.491233
O177	O	0.595611	0.150884	0.729898
C178	C	0.583026	0.228764	0.658127
C179	C	0.625854	0.185929	0.693124
H180	H	0.607461	0.257118	0.628397
H181	H	0.554721	0.204358	0.628310
H182	H	0.555183	0.256556	0.691806
H183	H	0.653735	0.158126	0.659489
H184	H	0.654120	0.210370	0.722950
O185	O	0.092665	0.227688	-0.000044
C186	C	0.017424	0.287172	-0.052438
C187	C	0.057899	0.230449	-0.052395
H188	H	-0.010686	0.289428	-0.094765
H189	H	-0.010786	0.289460	-0.010181
H190	H	0.043813	0.324641	-0.052418
H191	H	0.031556	0.192948	-0.052436
H192	H	0.086111	0.228210	-0.094648
H193	H	0.562667	0.183662	0.442369
O194	O	0.556498	0.189800	0.562657
C195	C	0.479242	0.267033	0.555930
C196	C	0.522125	0.224209	0.520983
H197	H	0.451448	0.294871	0.522252
H198	H	0.450897	0.242617	0.585693
H199	H	0.503666	0.295340	0.585723
H200	H	0.497747	0.195890	0.491156
H201	H	0.550469	0.248660	0.491258
H202	H	-0.059896	0.165721	0.000054
H203	H	0.246136	-0.071341	0.000108
H204	H	-0.141942	-0.023982	0.000078
H205	H	-0.034193	-0.022694	0.000087
O206	O	0.674990	-0.211227	0.108652
C207	C	0.723507	-0.285046	0.172580
C208	C	0.723866	-0.252372	0.111980
H209	H	0.763012	-0.318327	0.175285
H210	H	0.723922	-0.253643	0.211971
H211	H	0.683291	-0.307384	0.175330
H212	H	0.764075	-0.230032	0.109170
H213	H	0.723420	-0.283801	0.072618
O214	O	0.401023	-0.025690	-0.000018
C215	C	0.394925	-0.114656	-0.052372
C216	C	0.419776	-0.057130	-0.052362
H217	H	0.410068	-0.140087	-0.094694
H218	H	0.410117	-0.140155	-0.010109
H219	H	0.346154	-0.106293	-0.052336
H220	H	0.468548	-0.065441	-0.052419
H221	H	0.404540	-0.031648	-0.094621
O222	O	0.673008	-0.367392	-0.163678
C223	C	0.672975	-0.373678	-0.272951
C224	C	0.672595	-0.406316	-0.212330
H225	H	0.672653	-0.405136	-0.312302
H226	H	0.633437	-0.340444	-0.275752
H227	H	0.713162	-0.351292	-0.275675
H228	H	0.632435	-0.428737	-0.209566
H229	H	0.712159	-0.439518	-0.209554
O230	O	0.676187	-0.094045	0.108654
C231	C	0.627640	-0.020209	0.172543
C232	C	0.627306	-0.052904	0.111954
H233	H	0.588131	0.013069	0.175226
H234	H	0.627215	-0.051600	0.211945
H235	H	0.667852	0.002134	0.175295
H236	H	0.587101	-0.075249	0.109143
H237	H	0.627762	-0.021486	0.072581
H238	H	0.671677	-0.479721	-0.154976
H239	H	0.676276	-0.098748	-0.099864
H240	H	0.742973	0.003516	0.265148
H241	H	0.669681	-0.645209	-0.099905
H242	H	0.671615	-0.479729	0.155079
H243	H	0.668382	-0.752974	-0.099906
H244	H	0.672900	-0.371979	0.155081
