data_functionalizedCrystal
_audit_creation_method	'MofGen! by Chris Wilmer'
_symmetry_space_group_name_H-M	'P1'
_symmetry_Int_Tables_number	1
_symmetry_cell_setting	triclinic
loop_
_symmetry_equiv_pos_as_xyz
  x,y,z
_cell_length_a	18.760487
_cell_length_b	20.875641
_cell_length_c	20.875641
_cell_angle_alpha	60.089808
_cell_angle_beta	90.036576
_cell_angle_gamma	62.461161
loop_
_atom_site_label
_atom_site_type_symbol
_atom_site_fract_x
_atom_site_fract_y
_atom_site_fract_z
Zr1	Zr	0.719298	0.694374	-0.105387
O2	O	0.614840	0.820611	-0.208707
O3	O	0.747411	0.563120	-0.070441
O4	O	0.757909	0.687144	-0.203907
O5	O	0.600509	0.704040	0.026317
O6	O	0.875209	0.687148	-0.203845
O7	O	0.604343	0.696587	-0.075241
O8	O	0.856432	0.465293	0.034902
O9	O	0.619286	0.925896	-0.212431
O10	O	0.851664	0.618969	-0.059445
O11	O	0.761262	0.624528	0.016299
O12	O	0.773621	0.770550	-0.140840
O13	O	0.683219	0.776109	-0.065096
Zr14	Zr	0.900263	0.706268	0.056684
Zr15	Zr	0.906379	0.694381	-0.105288
Zr16	Zr	0.713182	0.706261	0.056585
Zr17	Zr	0.726389	0.862292	-0.111326
Zr18	Zr	0.893173	0.538351	0.062623
O19	O	0.872150	0.837523	0.021738
O20	O	0.880845	0.820621	-0.208565
O21	O	0.606145	0.837513	0.021596
O22	O	1.004721	0.580032	0.160004
O23	O	1.013416	0.563130	-0.070299
O24	O	0.738716	0.580022	0.159862
O25	O	1.019052	0.696603	-0.075020
O26	O	0.861652	0.713499	0.155204
O27	O	0.744352	0.713494	0.155142
O28	O	1.015218	0.704056	0.026537
O29	O	0.767991	0.925902	-0.212352
O30	O	0.851571	0.474741	0.163648
O31	O	1.000275	0.474747	0.163728
O32	O	1.005136	0.465298	0.034982
O33	O	0.614425	0.935345	-0.083685
O34	O	0.763129	0.935350	-0.083606
O35	O	0.845940	0.630093	0.092137
O36	O	0.936342	0.624534	0.016393
O37	O	0.858299	0.776115	-0.065003
O38	O	0.767898	0.781674	0.010742
C39	C	0.800911	0.490282	-0.016923
C40	C	0.797901	0.418996	-0.014402
C41	C	0.843673	0.382604	-0.052755
C42	C	0.840847	0.315620	-0.050379
C43	C	0.792243	0.285032	-0.009654
C44	C	0.746469	0.321427	0.028705
C45	C	0.749301	0.388406	0.026332
C46	C	0.778718	0.085021	0.001685
C47	C	0.775888	0.018038	0.004052
C48	C	0.870267	0.012234	-0.075031
C49	C	0.873090	0.079219	-0.077403
C50	C	0.827320	0.115604	-0.039041
N51	N	0.789350	0.216565	-0.007226
N52	N	0.830218	0.184066	-0.041465
C53	C	0.575771	0.700313	-0.024476
C54	C	0.496350	0.700310	-0.024519
C55	C	0.119785	0.779458	-0.066708
C56	C	0.201267	0.621205	0.018270
C57	C	0.275892	0.621199	0.018206
C58	C	0.272465	0.700323	-0.024318
C59	C	0.194415	0.779454	-0.066776
C60	C	0.353947	0.542069	0.060657
C61	C	0.428578	0.542059	0.060593
C62	C	0.425152	0.621185	0.018074
C63	C	0.347096	0.700319	-0.024386
C64	C	0.343669	0.779444	-0.066909
C65	C	0.265613	0.858580	-0.109364
C66	C	0.190989	0.858580	-0.109295
C67	C	0.499776	0.621185	0.018005
C68	C	0.418300	0.779440	-0.066977
C69	C	1.043790	0.700330	-0.024227
C70	C	1.123211	0.700333	-0.024185
C71	C	0.817430	0.685452	-0.226954
C72	C	0.820026	0.680406	-0.295715
C73	C	0.818650	0.910361	-0.031780
C74	C	0.821660	0.981647	-0.034301
C75	C	0.780510	0.757157	-0.370507
C76	C	0.782960	0.752410	-0.435112
C77	C	0.824923	0.670912	-0.424925
C78	C	0.864444	0.594155	-0.350125
C79	C	0.861998	0.598903	-0.285521
C80	C	0.836610	0.648228	-0.613585
C81	C	0.839051	0.643486	-0.678196
C82	C	0.757568	0.801742	-0.763179
C83	C	0.755122	0.806482	-0.698570
C84	C	0.794647	0.729726	-0.623776
N85	N	0.827426	0.666058	-0.490961
N86	N	0.792148	0.734580	-0.557742
C87	C	0.802131	0.715190	0.178251
C88	C	0.799535	0.720237	0.247012
C89	C	1.034921	0.490291	-0.016798
C90	C	1.111331	0.419008	-0.014235
C91	C	0.793262	0.505151	0.185679
C92	C	0.787655	0.438911	0.256961
C93	C	1.027271	0.505159	0.185804
C94	C	1.101086	0.438923	0.257128
C95	C	0.592290	0.895483	-0.234507
C96	C	0.518476	0.961719	-0.305832
C97	C	0.584640	0.910352	-0.031905
C98	C	0.508230	0.981635	-0.034468
C99	C	0.826299	0.895492	-0.234382
C100	C	0.831906	0.961731	-0.305665
C101	C	1.103014	0.382627	-0.052624
C102	C	1.174803	0.315658	-0.050231
C103	C	1.254910	0.285066	-0.009444
C104	C	1.263226	0.321454	0.028947
C105	C	1.191437	0.388426	0.026549
C106	C	0.829223	0.410711	0.330030
C107	C	0.823952	0.348482	0.397013
C108	C	0.777118	0.314450	0.390927
C109	C	0.735545	0.342657	0.317851
C110	C	0.740811	0.404889	0.250869
C111	C	1.182946	0.404916	0.251086
C112	C	1.252310	0.342689	0.318096
C113	C	1.239812	0.314466	0.391149
C114	C	1.157943	0.348479	0.397190
C115	C	1.088581	0.410710	0.330180
C116	C	0.436615	0.995735	-0.299789
C117	C	0.367252	1.057982	-0.366800
C118	C	0.379751	1.086209	-0.439854
C119	C	0.461619	1.052192	-0.445895
C120	C	0.530981	0.989950	-0.378884
C121	C	0.516548	1.018022	0.003914
C122	C	0.444760	1.085009	0.001503
C123	C	0.364654	1.115602	-0.039287
C124	C	0.356337	1.079212	-0.077675
C125	C	0.428125	1.012231	-0.075267
C126	C	0.878748	0.995743	-0.299553
C127	C	0.884032	1.057974	-0.366524
C128	C	0.842469	1.086195	-0.439606
C129	C	0.795625	1.052177	-0.445716
C130	C	0.790347	0.989943	-0.378745
H131	H	0.907532	-0.017398	-0.106262
H132	H	0.898615	0.527797	-0.341835
H133	H	0.706963	0.427842	0.191376
C134	C	0.722424	-0.015611	0.048853
H135	H	0.727286	-0.060705	0.044761
H136	H	0.741923	-0.037925	0.101839
H137	H	0.665071	0.031042	0.027580
H138	H	0.873221	0.577117	-0.669893
C139	C	0.303447	1.154662	-0.513558
H140	H	0.252906	1.170865	-0.499489
H141	H	0.306737	1.204785	-0.544644
H142	H	0.303615	1.130554	-0.542003
C143	C	0.475357	1.083240	-0.526255
H144	H	0.422318	1.125172	-0.565292
H145	H	0.507680	1.108957	-0.532844
H146	H	0.504534	1.034739	-0.530209
H147	H	0.912668	0.104121	-0.110565
H148	H	0.492127	0.477623	0.095161
C149	C	1.144205	0.317419	0.477551
H150	H	1.197243	0.275479	0.516589
H151	H	1.115016	0.365906	0.481518
H152	H	1.111892	0.291689	0.484129
H153	H	0.451548	1.114627	0.032765
H154	H	0.291105	1.104132	-0.110885
C155	C	0.771337	0.245991	0.464611
H156	H	0.802811	0.234067	0.508997
H157	H	0.714049	0.267934	0.463818
H158	H	0.793606	0.193724	0.466484
H159	H	0.857810	0.325523	0.456508
C160	C	0.924473	0.964705	-0.219170
H161	H	0.914622	0.922773	-0.180153
H162	H	0.983273	0.938990	-0.212548
H163	H	0.903723	1.013209	-0.215217
H164	H	0.741452	0.114635	0.032925
H165	H	0.878119	0.285989	-0.081609
C166	C	0.684041	0.305207	0.311166
H167	H	0.686873	0.264097	0.361527
H168	H	0.626963	0.351304	0.282590
H169	H	0.706532	0.277093	0.285268
H170	H	0.706899	0.296514	0.061868
C171	C	0.897136	0.416248	-0.097553
H172	H	0.892263	0.461357	-0.093480
H173	H	0.954485	0.369599	-0.076284
H174	H	0.877632	0.438560	-0.150542
C175	C	0.698948	0.428441	0.068518
H176	H	0.669589	0.400638	0.093106
H177	H	0.736513	0.420212	0.106363
H178	H	0.659663	0.489172	0.032103
C179	C	0.714098	0.886168	-0.845447
H180	H	0.688753	0.935384	-0.842261
H181	H	0.754698	0.887610	-0.872395
H182	H	0.672011	0.887604	-0.872437
C183	C	0.418963	0.972201	-0.117479
H184	H	0.360972	1.000013	-0.142107
H185	H	0.448047	0.980422	-0.155295
H186	H	0.442205	0.911472	-0.081071
H187	H	0.563325	0.556755	0.052578
C188	C	0.880077	0.563799	-0.531322
H189	H	0.905408	0.514584	-0.534510
H190	H	0.922161	0.562357	-0.504326
H191	H	0.839468	0.562361	-0.504379
C192	C	0.880732	0.448146	0.336740
H193	H	0.904718	0.422440	0.389854
H194	H	0.924406	0.435445	0.313598
H195	H	0.844835	0.509655	0.310920
C196	C	1.196711	0.435954	0.170736
H197	H	1.255403	0.406788	0.176745
H198	H	1.170056	0.423002	0.144259
H199	H	1.173181	0.497223	0.141639
H200	H	0.922175	1.085666	-0.361534
H201	H	1.318966	0.315001	0.313164
H202	H	1.296298	0.263793	0.445707
H203	H	0.581768	0.993118	0.037135
H204	H	0.415499	0.843875	-0.101596
C205	C	0.261851	0.945614	-0.156095
H206	H	0.317476	0.934273	-0.150038
H207	H	0.234160	0.975544	-0.209343
H208	H	0.231607	0.980714	-0.137708
C209	C	0.905462	0.514477	-0.203251
H210	H	0.930797	0.465259	-0.206434
H211	H	0.947543	0.513041	-0.176258
H212	H	0.864854	0.513039	-0.176307
C213	C	0.105133	0.945618	-0.155999
H214	H	0.061181	0.934285	-0.149876
H215	H	0.099332	0.980762	-0.137681
H216	H	0.101913	0.975495	-0.209264
C217	C	0.998536	0.448107	0.336833
H218	H	0.959009	0.489217	0.286466
H219	H	0.988961	0.401983	0.365382
H220	H	0.992084	0.476209	0.362751
C221	C	0.708971	0.896128	-0.709777
H222	H	0.713169	0.887963	-0.660589
H223	H	0.733975	0.927863	-0.737800
H224	H	0.651287	0.927860	-0.737846
H225	H	0.056229	0.843888	-0.101271
C226	C	0.285692	1.189277	-0.041929
H227	H	0.236788	1.202294	-0.071722
H228	H	0.282867	1.171018	0.009255
H229	H	0.288704	1.239980	-0.064962
H230	H	0.204050	0.556785	0.052888
C231	C	0.357712	0.455040	0.107424
H232	H	0.302088	0.466379	0.101390
H233	H	0.387960	0.419902	0.089076
H234	H	0.385400	0.425153	0.160668
C235	C	0.734356	0.846806	-0.381719
H236	H	0.711181	0.891835	-0.435518
H237	H	0.690365	0.851953	-0.358309
H238	H	0.773060	0.851944	-0.358260
H239	H	0.750784	0.814909	-0.496009
C240	C	0.422855	0.964697	-0.219438
H241	H	0.475883	0.922750	-0.180387
H242	H	0.393671	1.013197	-0.215488
H243	H	0.390526	0.938984	-0.212865
C244	C	1.351344	0.287790	0.073817
H245	H	1.392900	0.242686	0.069750
H246	H	1.360676	0.334428	0.052595
H247	H	1.354824	0.265465	0.126799
C248	C	1.200593	0.428440	0.068779
H249	H	1.146371	0.472714	0.061509
H250	H	1.227611	0.384171	0.122543
H251	H	1.233441	0.453139	0.048324
C252	C	0.277207	1.095383	-0.360141
H253	H	0.279703	1.069642	-0.307035
H254	H	0.249750	1.156887	-0.385940
H255	H	0.246620	1.082674	-0.383330
H256	H	0.597634	0.962254	-0.383813
C257	C	0.749903	1.083234	-0.526108
H258	H	0.759752	1.125177	-0.565112
H259	H	0.770640	1.034747	-0.530079
H260	H	0.691097	1.108961	-0.532735
H261	H	0.846774	1.136871	-0.494131
C262	C	0.738804	0.952548	-0.385474
H263	H	0.741608	0.911440	-0.335126
H264	H	0.681736	0.998676	-0.414057
H265	H	0.761279	0.924446	-0.411384
H266	H	1.037794	0.407533	-0.085848
H267	H	1.168015	0.286039	-0.081493
H268	H	1.313357	0.230532	-0.007496
