data_functionalizedCrystal
_audit_creation_method	'MofGen! by Chris Wilmer'
_symmetry_space_group_name_H-M	'P1'
_symmetry_Int_Tables_number	1
_symmetry_cell_setting	triclinic
loop_
_symmetry_equiv_pos_as_xyz
  x,y,z
_cell_length_a	14.971482
_cell_length_b	15.625429
_cell_length_c	13.448316
_cell_angle_alpha	71.916250
_cell_angle_beta	89.993798
_cell_angle_gamma	83.938134
loop_
_atom_site_label
_atom_site_type_symbol
_atom_site_fract_x
_atom_site_fract_y
_atom_site_fract_z
O1	O	1.186971	0.117472	-0.125031
O2	O	0.926573	0.131544	-0.130110
O3	O	1.063727	-0.006723	-0.080251
O4	O	1.049817	0.255739	-0.174890
O5	O	1.063710	-0.006731	0.085136
O6	O	0.926556	0.131536	0.035277
O7	O	1.186954	0.117463	0.040356
Cu8	Cu	1.056753	0.124499	0.052918
Cu9	Cu	1.056774	0.124509	-0.142671
O10	O	1.049799	0.255730	-0.009503
C11	C	0.893239	0.130911	-0.047190
C12	C	0.793942	0.129027	-0.046512
C13	C	0.747288	0.128135	0.043961
C14	C	0.653989	0.126350	0.044606
C15	C	0.607345	0.125464	-0.045227
C16	C	0.654006	0.126353	-0.135706
C17	C	0.747304	0.128132	-0.136347
C18	C	0.459544	0.122649	-0.134364
C19	C	0.366239	0.120872	-0.133724
C20	C	0.366228	0.120868	0.046589
C21	C	0.459526	0.122646	0.045948
C22	C	0.506181	0.123537	-0.044533
C23	C	1.063088	-0.040316	0.014552
C24	C	1.061199	-0.140399	0.050633
C25	C	1.055008	-0.469538	-0.281424
C26	C	1.053229	-0.563580	-0.247489
C27	C	1.053210	-0.563576	-0.067196
C28	C	1.054994	-0.469532	-0.101115
C29	C	1.055891	-0.422520	-0.208231
C30	C	1.055877	-0.422514	-0.027922
C31	C	1.057656	-0.328478	-0.061840
C32	C	1.058551	-0.281459	-0.168951
C33	C	1.057670	-0.328483	-0.242148
C34	C	1.054973	-0.469527	0.079192
C35	C	1.055857	-0.422509	0.152386
C36	C	1.057642	-0.328472	0.118469
C37	C	1.058537	-0.281453	0.011358
C38	C	1.058523	-0.281447	0.191666
C39	C	1.060301	-0.187411	0.157749
C40	C	1.060316	-0.187416	-0.022560
C41	C	1.220287	0.118096	-0.042566
C42	C	1.319585	0.119980	-0.043250
C43	C	1.050438	0.289323	-0.104308
C44	C	1.052328	0.389406	-0.140396
N45	N	1.056745	0.124491	0.190485
N46	N	1.056788	0.124509	-0.280236
C47	C	1.117496	0.063291	0.264593
C48	C	1.117502	0.063291	0.368697
C49	C	1.056760	0.124495	0.398688
C50	C	0.996003	0.185697	0.324571
C51	C	0.995994	0.185693	0.220471
C52	C	0.996028	0.185703	0.541549
C53	C	0.996038	0.185709	0.645655
C54	C	1.117536	0.063301	0.689775
C55	C	1.117527	0.063297	0.585675
C56	C	1.056770	0.124501	0.511564
H57	H	0.497527	0.123375	-0.208043
H58	H	1.166991	0.013465	0.561256
F59	F	0.931331	0.250827	0.141600
H60	H	1.166963	0.013456	0.240183
H61	H	1.052476	-0.601865	0.020018
H62	H	1.166969	0.013457	0.429038
H63	H	1.059990	-0.204887	-0.196565
F64	F	0.604339	0.125413	0.140896
F65	F	0.509165	0.123598	0.141554
H66	H	1.167005	0.013467	0.750122
H67	H	1.061002	-0.149125	0.217349
F68	F	0.316575	0.119919	0.142886
F69	F	1.058638	-0.278446	-0.356153
F70	F	0.931386	0.250849	0.677566
F71	F	0.316599	0.119928	-0.229332
H72	H	1.055122	-0.460799	0.239599
H73	H	1.052501	-0.601858	-0.307100
H74	H	0.616022	0.125625	-0.208847
F75	F	0.796957	0.129078	-0.232640
H76	H	1.057783	-0.319737	0.278879
H77	H	1.061055	-0.149138	-0.109783
H78	H	1.055747	-0.431259	-0.368647
H79	H	1.053515	-0.546096	0.106804
F80	F	0.931360	0.250842	0.462679
F81	F	0.931352	0.250832	0.356492
H82	H	0.785257	0.128864	0.117110
