data_functionalizedCrystal
_audit_creation_method	'MofGen! by Chris Wilmer'
_symmetry_space_group_name_H-M	'P1'
_symmetry_Int_Tables_number	1
_symmetry_cell_setting	triclinic
loop_
_symmetry_equiv_pos_as_xyz
  x,y,z
_cell_length_a	6.394984
_cell_length_b	10.723024
_cell_length_c	9.798715
_cell_angle_alpha	90.000034
_cell_angle_beta	90.005100
_cell_angle_gamma	94.518389
loop_
_atom_site_label
_atom_site_type_symbol
_atom_site_fract_x
_atom_site_fract_y
_atom_site_fract_z
O1	O	0.293034	-1.660287	0.113477
O2	O	0.321082	-1.297432	0.113482
O3	O	0.003067	-1.484013	0.113475
O4	O	0.611049	-1.473705	0.113484
O5	O	0.003043	-1.484013	-0.113507
O6	O	0.321058	-1.297431	-0.113501
O7	O	0.293010	-1.660286	-0.113505
Zn8	Zn	0.307030	-1.478858	-0.149541
Zn9	Zn	0.307062	-1.478859	0.149518
O10	O	0.611025	-1.473704	-0.113499
C11	C	0.319029	-1.250910	-0.000009
C12	C	0.312922	-1.112291	-0.000007
C13	C	0.925207	-1.481963	-0.000020
C14	C	0.688880	-1.475751	-0.000017
C15	C	0.295063	-1.706808	-0.000011
C16	C	0.301170	-1.845427	-0.000004
N17	N	0.307068	-1.478861	0.353617
N18	N	0.307008	-1.478867	-0.353641
C19	C	0.490867	-1.039195	-0.000004
C20	C	0.484559	-0.895925	-0.000002
C21	C	0.173244	-1.557372	0.421392
C22	C	0.173210	-1.557376	0.578554
H23	H	0.647881	-1.082681	-0.000010
Cl24	Cl	0.719765	-0.798945	0.000013
H25	H	0.155908	-1.068805	0.000026
H26	H	0.058703	-1.624591	0.363067
H27	H	0.148827	-0.908237	0.000002
Cl28	Cl	-0.003700	-1.661152	0.668533
Cl29	Cl	0.483902	-1.375074	0.556389
Cl30	Cl	0.483940	-1.375090	0.443660
