data_functionalizedCrystal
_audit_creation_method	'MofGen! by Chris Wilmer'
_symmetry_space_group_name_H-M	'P1'
_symmetry_Int_Tables_number	1
_symmetry_cell_setting	triclinic
loop_
_symmetry_equiv_pos_as_xyz
  x,y,z
_cell_length_a	14.044220
_cell_length_b	9.016244
_cell_length_c	10.540539
_cell_angle_alpha	90.004647
_cell_angle_beta	88.857185
_cell_angle_gamma	89.997227
loop_
_atom_site_label
_atom_site_type_symbol
_atom_site_fract_x
_atom_site_fract_y
_atom_site_fract_z
O1	O	1.259777	0.123169	0.306265
O2	O	0.983733	0.123208	0.295214
O3	O	1.128052	0.123186	0.116670
O4	O	1.115457	0.123191	0.484809
O5	O	1.128046	-0.123495	0.116654
O6	O	0.983726	-0.123473	0.295199
O7	O	1.259771	-0.123511	0.306250
Cu8	Cu	1.121748	-0.146016	0.300723
Cu9	Cu	1.121755	0.145712	0.300741
O10	O	1.115451	-0.123490	0.484794
C11	C	0.948382	-0.000128	0.290368
C12	C	0.843059	-0.000113	0.275939
C13	C	0.650219	-0.000143	0.249558
C14	C	0.593279	-0.000148	0.351900
C15	C	0.485976	-0.000164	0.337222
C16	C	0.757532	-0.000126	0.264235
N17	N	1.121750	-0.351202	0.300710
C18	C	1.199240	-0.586200	0.205586
C19	C	1.199031	-0.414309	0.205173
C20	C	1.022586	-0.413614	0.260554
C21	C	1.023046	-0.585559	0.259878
C22	C	1.142555	-0.585708	0.436262
C23	C	1.144793	-0.413752	0.435616
C24	C	1.295121	-0.000173	0.311095
C25	C	1.400444	-0.000178	0.325525
C26	C	1.127105	-0.000152	0.069264
C27	C	1.124279	-0.000143	-0.071970
N28	N	1.121761	0.350899	0.300744
C29	C	1.015989	0.000425	-0.266345
C30	C	1.018854	-0.000130	-0.119437
C31	C	1.175010	-0.141017	-0.128507
C32	C	1.171412	-0.141135	-0.275416
C33	C	1.173563	0.139386	-0.275700
C34	C	1.174534	0.141249	-0.128620
C35	C	1.116398	-0.000149	0.532200
C36	C	1.119224	-0.000147	0.673434
H37	H	1.272715	-0.372112	0.230742
H38	H	1.217746	-0.372962	0.465828
N39	N	1.128072	0.272026	-0.081965
N40	N	1.091509	0.361050	-0.157748
H41	H	1.058704	0.453418	-0.124787
N42	N	1.182294	-0.362797	0.079262
N43	N	1.107108	-0.397177	0.024990
H44	H	1.095309	-0.360822	-0.063953
N45	N	0.610270	-0.000156	0.125827
N46	N	0.521894	-0.000167	0.113931
H47	H	0.493669	-0.000172	0.026547
N48	N	1.130785	0.273354	-0.319590
N49	N	1.178434	0.362498	-0.385804
H50	H	1.148215	0.457109	-0.416801
H51	H	1.186051	-0.629427	0.105832
N52	N	1.000213	-0.635897	0.135473
N53	N	0.922298	-0.601488	0.088312
H54	H	0.906171	-0.637032	0.000447
N55	N	1.291984	-0.638055	0.237376
N56	N	1.302066	-0.721982	0.330531
H57	H	1.367570	-0.758610	0.352990
N58	N	0.948479	-0.637747	0.342774
N59	N	0.896261	-0.547175	0.400935
H60	H	0.843591	-0.584026	0.459469
H61	H	1.252431	-0.146265	-0.098327
N62	N	0.948473	-0.362335	0.344599
N63	N	0.967959	-0.279017	0.435244
H64	H	0.915619	-0.242798	0.494605
H65	H	1.092086	-0.370791	0.510607
H66	H	1.003971	-0.370564	0.162434
H67	H	1.213369	-0.629070	0.472086
H68	H	1.251397	0.149745	-0.096627
N69	N	1.269092	0.140535	-0.325274
N70	N	1.297144	0.039145	-0.397757
H71	H	1.364610	0.039940	-0.432770
H72	H	0.625117	-0.000139	0.450542
N73	N	1.071709	-0.636742	0.525289
N74	N	1.075359	-0.598650	0.639115
H75	H	1.025323	-0.634701	0.701984
H76	H	0.978936	0.100854	-0.080864
H77	H	0.974347	0.101449	-0.299149
N78	N	0.963961	-0.125584	-0.309516
N79	N	1.002581	-0.215808	-0.384442
H80	H	0.965839	-0.304805	-0.414936
N81	N	0.968419	-0.127017	-0.072170
N82	N	0.930998	-0.215444	-0.147707
H83	H	0.895377	-0.305066	-0.114327
H84	H	1.247232	-0.147536	-0.315719
N85	N	1.124370	-0.273231	-0.315544
N86	N	1.094418	-0.364690	-0.235067
H87	H	1.061192	-0.457986	-0.263400
H88	H	1.139764	-0.245841	-0.089477
