data_functionalizedCrystal
_audit_creation_method	'MofGen! by Chris Wilmer'
_symmetry_space_group_name_H-M	'P1'
_symmetry_Int_Tables_number	1
_symmetry_cell_setting	triclinic
loop_
_symmetry_equiv_pos_as_xyz
  x,y,z
_cell_length_a	16.625548
_cell_length_b	10.686285
_cell_length_c	16.625539
_cell_angle_alpha	94.392139
_cell_angle_beta	89.979432
_cell_angle_gamma	94.367355
loop_
_atom_site_label
_atom_site_type_symbol
_atom_site_fract_x
_atom_site_fract_y
_atom_site_fract_z
Zn1	Zn	1.257390	0.502308	-0.431351
Zn2	Zn	1.590723	0.835641	-0.098018
Zn3	Zn	1.924057	1.168975	0.235316
Zn4	Zn	1.267674	0.713328	-0.286201
Zn5	Zn	1.601007	1.046662	0.047132
Zn6	Zn	1.934340	1.379995	0.380465
Zn7	Zn	1.122554	0.502356	-0.296529
Zn8	Zn	1.455887	0.835689	0.036804
Zn9	Zn	1.789221	1.169023	0.370137
Zn10	Zn	1.132899	0.713256	-0.420995
Zn11	Zn	1.466232	1.046589	-0.087661
Zn12	Zn	1.799566	1.379923	0.245672
O13	O	1.195129	0.607812	-0.358769
O14	O	1.528463	0.941145	-0.025436
O15	O	1.861796	1.274479	0.307898
O16	O	1.371587	0.530310	-0.412109
O17	O	1.704920	0.863644	-0.078775
O18	O	2.038254	1.196977	0.254558
O19	O	1.248398	0.685393	-0.174736
O20	O	1.581731	1.018726	0.158597
O21	O	1.915064	1.352059	0.491930
O22	O	1.131807	0.325774	-0.323070
O23	O	1.465141	0.659108	0.010263
O24	O	1.798474	0.992441	0.343597
O25	O	1.379142	0.685346	-0.305468
O26	O	1.712476	1.018680	0.027866
O27	O	2.045809	1.352013	0.361199
O28	O	1.230871	0.325739	-0.422123
O29	O	1.564204	0.659072	-0.088790
O30	O	1.897537	0.992406	0.244544
O31	O	1.141779	0.530392	-0.182324
O32	O	1.475112	0.863726	0.151009
O33	O	1.808446	1.197059	0.484342
O34	O	1.011094	0.530322	-0.313028
O35	O	1.344427	0.863655	0.020305
O36	O	1.677760	1.196989	0.353639
O37	O	1.149439	0.685223	-0.535203
O38	O	1.482772	1.018556	-0.201870
O39	O	1.816105	1.351889	0.131463
O40	O	1.018694	0.685269	-0.404472
O41	O	1.352027	1.018603	-0.071139
O42	O	1.685361	1.351936	0.262194
O43	O	1.240902	0.530240	-0.542812
O44	O	1.574235	0.863573	-0.209479
O45	O	1.907568	1.196907	0.123854
O46	O	1.258429	0.889894	-0.295425
O47	O	1.591762	1.223227	0.037908
O48	O	1.925095	1.556561	0.371241
O49	O	1.159410	0.889841	-0.394458
O50	O	1.492744	1.223174	-0.061124
O51	O	1.826077	1.556507	0.272209
C52	C	1.211180	0.935651	-0.342715
C53	C	1.544513	1.268985	-0.009381
C54	C	1.877847	1.602318	0.323952
C55	C	1.218120	1.075902	-0.335873
C56	C	1.551454	1.409236	-0.002540
C57	C	1.884787	1.742569	0.330793
C58	C	0.985637	0.607794	-0.358747
C59	C	1.318971	0.941127	-0.025414
C60	C	1.652304	1.274461	0.307919
C61	C	0.896017	0.607817	-0.358756
C62	C	1.229351	0.941150	-0.025422
C63	C	1.562684	1.274483	0.307911
C64	C	1.195177	0.607718	-0.569083
C65	C	1.528510	0.941051	-0.235749
C66	C	1.861844	1.274385	0.097584
C67	C	1.195197	0.607678	-0.658706
C68	C	1.528531	0.941011	-0.325372
C69	C	1.861864	1.274345	0.007961
C70	C	0.567842	0.607825	-0.358790
C71	C	0.901176	0.941158	-0.025457
C72	C	1.234509	1.274492	0.307877
C73	C	0.659150	0.607819	-0.358778
C74	C	0.992484	0.941152	-0.025445
C75	C	1.325817	1.274486	0.307889
C76	C	0.731927	0.607821	-0.358772
C77	C	1.065260	0.941155	-0.025439
C78	C	1.398594	1.274488	0.307895
C79	C	0.823241	0.607814	-0.358762
C80	C	1.156574	0.941148	-0.025428
C81	C	1.489908	1.274481	0.307905
C82	C	1.405439	0.607831	-0.358791
C83	C	1.738772	0.941164	-0.025458
C84	C	2.072106	1.274498	0.307875
C85	C	1.495061	0.607839	-0.358801
C86	C	1.828394	0.941172	-0.025467
C87	C	2.161727	1.274506	0.307866
C88	C	1.179038	0.278693	-0.374904
C89	C	1.512371	0.612026	-0.041571
C90	C	1.845704	0.945359	0.291763
C91	C	1.172181	0.138442	-0.381780
C92	C	1.505514	0.471775	-0.048446
C93	C	1.838847	0.805108	0.284887
C94	C	1.195228	0.607537	-0.986889
C95	C	1.528561	0.940870	-0.653555
C96	C	1.861894	1.274203	-0.320222
C97	C	1.195217	0.607580	-0.895578
C98	C	1.528551	0.940913	-0.562245
C99	C	1.861884	1.274247	-0.228911
C100	C	1.195213	0.607608	-0.822800
C101	C	1.528546	0.940942	-0.489467
C102	C	1.861880	1.274275	-0.156133
C103	C	1.195202	0.607650	-0.731484
C104	C	1.528535	0.940983	-0.398150
C105	C	1.861868	1.274316	-0.064817
C106	C	1.195124	0.607815	-0.149278
C107	C	1.528457	0.941148	0.184055
C108	C	1.861790	1.274481	0.517389
C109	C	1.195242	0.607499	-0.059673
C110	C	1.528575	0.940832	0.273660
C111	C	1.861909	1.274166	0.606994
H112	H	1.127541	1.084689	-0.426317
H113	H	1.460874	1.418022	-0.092983
H114	H	1.794207	1.751356	0.240350
H115	H	1.262758	1.129662	-0.291328
H116	H	1.596091	1.462996	0.042005
H117	H	1.929424	1.796329	0.375338
