data_functionalizedCrystal
_audit_creation_method	'MofGen! by Chris Wilmer'
_symmetry_space_group_name_H-M	'P1'
_symmetry_Int_Tables_number	1
_symmetry_cell_setting	triclinic
loop_
_symmetry_equiv_pos_as_xyz
  x,y,z
_cell_length_a	12.759401
_cell_length_b	25.639239
_cell_length_c	12.759393
_cell_angle_alpha	89.963997
_cell_angle_beta	89.981287
_cell_angle_gamma	90.040211
loop_
_atom_site_label
_atom_site_type_symbol
_atom_site_fract_x
_atom_site_fract_y
_atom_site_fract_z
Zn1	Zn	1.606068	-0.208104	-0.593980
Zn2	Zn	2.106068	0.291896	-0.093980
Zn3	Zn	1.605893	-0.295549	-0.418283
Zn4	Zn	2.105893	0.204451	0.081717
Zn5	Zn	1.430374	-0.208132	-0.418315
Zn6	Zn	1.930374	0.291868	0.081685
Zn7	Zn	1.430285	-0.295513	-0.593921
Zn8	Zn	1.930285	0.204487	-0.093921
O9	O	1.518155	-0.251824	-0.506125
O10	O	2.018155	0.248176	-0.006125
O11	O	1.753066	-0.219708	-0.570685
O12	O	2.253066	0.280292	-0.070685
O13	O	1.582573	-0.283980	-0.271266
O14	O	2.082573	0.216020	0.228734
O15	O	1.453791	-0.134963	-0.441656
O16	O	1.953791	0.365037	0.058344
O17	O	1.752937	-0.283953	-0.441601
O18	O	2.252937	0.216047	0.058399
O19	O	1.582873	-0.134943	-0.570716
O20	O	2.082873	0.365057	-0.070716
O21	O	1.453620	-0.219755	-0.271290
O22	O	1.953620	0.280245	0.228710
O23	O	1.283341	-0.219720	-0.441598
O24	O	1.783341	0.280280	0.058402
O25	O	1.453640	-0.283891	-0.740950
O26	O	1.953640	0.216109	-0.240950
O27	O	1.283276	-0.283918	-0.570615
O28	O	1.783276	0.216082	-0.070615
O29	O	1.582787	-0.219672	-0.740993
O30	O	2.082787	0.280328	-0.240993
O31	O	1.582487	-0.368710	-0.441544
O32	O	2.082487	0.131290	0.058456
O33	O	1.453469	-0.368683	-0.570584
O34	O	1.953469	0.131317	-0.070584
C35	C	1.245188	-0.251818	-0.506104
C36	C	1.745188	0.248182	-0.006104
C37	C	1.128411	-0.251828	-0.506120
C38	C	1.628411	0.248172	-0.006120
C39	C	1.073543	-0.285307	-0.573193
C40	C	1.573543	0.214693	-0.073193
C41	C	0.963819	-0.285309	-0.573214
C42	C	1.463819	0.214691	-0.073214
C43	C	0.963841	-0.218352	-0.439079
C44	C	1.463841	0.281648	0.060921
C45	C	1.073563	-0.218347	-0.439065
C46	C	1.573563	0.281653	0.060935
C47	C	0.813902	-0.304070	-0.697071
C48	C	1.313902	0.195930	-0.197071
C49	C	0.759030	-0.337557	-0.764135
C50	C	1.259030	0.162443	-0.264135
C51	C	0.794584	-0.388581	-0.780073
C52	C	1.294584	0.111419	-0.280073
C53	C	0.885009	-0.406129	-0.728931
C54	C	1.385009	0.093871	-0.228931
C55	C	0.939875	-0.372645	-0.661860
C56	C	1.439875	0.127355	-0.161860
C57	C	0.904322	-0.321613	-0.645942
C58	C	1.404322	0.178387	-0.145942
C59	C	1.223481	-0.199592	-0.315206
C60	C	1.723481	0.300408	0.184794
C61	C	1.278350	-0.166110	-0.248129
C62	C	1.778350	0.333890	0.251871
C63	C	1.242798	-0.115085	-0.232180
C64	C	1.742798	0.384915	0.267820
C65	C	1.152370	-0.097538	-0.283303
C66	C	1.652370	0.402462	0.216697
C67	C	1.097501	-0.131020	-0.350380
C68	C	1.597501	0.368980	0.149620
C69	C	1.133061	-0.182045	-0.366331
C70	C	1.633061	0.317955	0.133669
C71	C	1.517978	-0.387667	-0.506077
C72	C	2.017978	0.112333	-0.006077
C73	C	1.517999	-0.445781	-0.506091
C74	C	2.017999	0.054219	-0.006091
C75	C	1.585510	-0.806146	-0.439048
C76	C	2.085510	-0.306146	0.060952
C77	C	1.585551	-0.860750	-0.439062
C78	C	2.085551	-0.360750	0.060938
O79	O	1.642768	-0.888988	-0.382007
O80	O	2.142768	-0.388988	0.117993
N81	N	1.518340	-0.888064	-0.506194
N82	N	2.018340	-0.388064	-0.006194
C83	C	1.451091	-0.860770	-0.573324
C84	C	1.951091	-0.360770	-0.073324
O85	O	1.393927	-0.889016	-0.630428
O86	O	1.893927	-0.389016	-0.130428
C87	C	1.451056	-0.806167	-0.573315
C88	C	1.951056	-0.306167	-0.073315
C89	C	1.518264	-0.778856	-0.506171
C90	C	2.018264	-0.278856	-0.006171
C91	C	1.652713	-0.778835	-0.371910
C92	C	2.152713	-0.278835	0.128090
C93	C	1.652671	-0.724234	-0.371895
C94	C	2.152671	-0.224234	0.128105
C95	C	1.585425	-0.696944	-0.439018
C96	C	2.085425	-0.196944	0.060982
C97	C	1.518222	-0.724255	-0.506156
C98	C	2.018222	-0.224255	-0.006156
C99	C	1.383814	-0.778874	-0.640449
C100	C	1.883814	-0.278874	-0.140449
C101	C	1.383786	-0.724267	-0.640435
C102	C	1.883786	-0.224267	-0.140435
C103	C	1.450994	-0.696956	-0.573291
C104	C	1.950994	-0.196956	-0.073291
C105	C	1.450934	-0.642365	-0.573263
C106	C	1.950934	-0.142365	-0.073263
N107	N	1.518145	-0.615052	-0.506131
N108	N	2.018145	-0.115052	-0.006131
C109	C	1.585391	-0.642341	-0.439008
C110	C	2.085391	-0.142341	0.060992
C111	C	1.451170	-0.975441	-0.573341
C112	C	1.951170	-0.475441	-0.073341
C113	C	1.451199	-1.030043	-0.573346
C114	C	1.951199	-0.530043	-0.073346
C115	C	1.585660	-1.030019	-0.439085
C116	C	2.085660	-0.530019	0.060915
C117	C	1.585625	-0.975416	-0.439075
C118	C	2.085625	-0.475416	0.060925
C119	C	1.518381	-0.948127	-0.506208
C120	C	2.018381	-0.448127	-0.006208
C121	C	1.585296	-0.527676	-0.438981
C122	C	2.085296	-0.027676	0.061019
C123	C	1.585244	-0.473071	-0.438969
C124	C	2.085244	0.026929	0.061031
C125	C	1.450788	-0.473100	-0.573233
C126	C	1.950788	0.026900	-0.073233
C127	C	1.450835	-0.527700	-0.573242
C128	C	1.950835	-0.027700	-0.073242
C129	C	1.518097	-0.554987	-0.506112
C130	C	2.018097	-0.054987	-0.006112
O131	O	1.393749	-0.614093	-0.630292
O132	O	1.893749	-0.114093	-0.130292
O133	O	1.642554	-0.614088	-0.381925
O134	O	2.142554	-0.114088	0.118075
C135	C	1.792188	-0.251831	-0.506146
C136	C	2.292188	0.248169	-0.006146
C137	C	1.908965	-0.251834	-0.506156
C138	C	2.408965	0.248166	-0.006156
C139	C	1.518223	-0.251774	-0.780158
C140	C	2.018223	0.248226	-0.280158
C141	C	1.518252	-0.251753	-0.896935
C142	C	2.018252	0.248247	-0.396935
C143	C	1.518361	-0.115451	-0.506196
C144	C	2.018361	0.384549	-0.006196
C145	C	1.518449	-0.057337	-0.506226
C146	C	2.018449	0.442663	-0.006226
C147	C	1.451028	-0.285176	-0.951776
C148	C	1.951028	0.214824	-0.451776
C149	C	1.451065	-0.285156	-1.061500
C150	C	1.951065	0.214844	-0.561500
C151	C	1.585554	-0.218286	-1.061533
C152	C	2.085554	0.281714	-0.561533
C153	C	1.585521	-0.218309	-0.951811
C154	C	2.085521	0.281691	-0.451811
C155	C	1.413477	-0.346786	-1.211422
C156	C	1.913477	0.153214	-0.711422
C157	C	1.346236	-0.380205	-1.266267
C158	C	1.846236	0.119795	-0.766267
C159	C	1.243699	-0.388236	-1.230650
C160	C	1.743699	0.111764	-0.730650
C161	C	1.208381	-0.362841	-1.140190
C162	C	1.708381	0.137159	-0.640190
C163	C	1.275616	-0.329418	-1.085351
C164	C	1.775616	0.170582	-0.585351
C165	C	1.378168	-0.321397	-1.120966
C166	C	1.878168	0.178603	-0.620966
C167	C	1.623099	-0.156678	-0.801886
C168	C	2.123099	0.343322	-0.301886
C169	C	1.690329	-0.123253	-0.747045
C170	C	2.190329	0.376747	-0.247045
C171	C	1.792868	-0.115217	-0.782660
C172	C	2.292868	0.384783	-0.282660
C173	C	1.828182	-0.140602	-0.873124
C174	C	2.328182	0.359398	-0.373124
C175	C	1.760952	-0.174028	-0.927965
C176	C	2.260952	0.325972	-0.427965
C177	C	1.658414	-0.182065	-0.892342
C178	C	2.158414	0.317935	-0.392342
C179	C	1.518148	-0.251837	-0.233157
C180	C	2.018148	0.248163	0.266843
C181	C	1.518322	-0.251711	-0.116381
C182	C	2.018322	0.248289	0.383619
H183	H	0.685407	-0.323264	-0.805775
H184	H	1.185407	0.176736	-0.305775
Cl185	Cl	1.670197	-1.064336	-0.354699
Cl186	Cl	2.170197	-0.564336	0.145301
H187	H	1.329081	-0.801101	-0.695120
H188	H	1.829081	-0.301101	-0.195120
H189	H	0.784952	-0.262519	-0.684111
H190	H	1.284952	0.237481	-0.184111
Cl191	Cl	1.268086	-0.263769	-0.335120
Cl192	Cl	1.768086	0.236231	0.164880
H193	H	1.396461	-1.052275	-0.628011
H194	H	1.896461	-0.552275	-0.128011
H195	H	1.023875	-0.116729	-0.392014
H196	H	1.523875	0.383271	0.107986
H197	H	1.639973	-0.450836	-0.384288
H198	H	2.139973	0.049164	0.115712
H199	H	1.123410	-0.055993	-0.270300
H200	H	1.623410	0.444007	0.229700
Cl201	Cl	1.366617	-0.941140	-0.657737
Cl202	Cl	1.866617	-0.441140	-0.157737
H203	H	1.329028	-0.702051	-0.695106
H204	H	1.829028	-0.202051	-0.195106
H205	H	1.396034	-0.450872	-0.627881
H206	H	1.896034	0.049128	-0.127881
H207	H	0.919170	-0.191094	-0.384484
H208	H	1.419170	0.308906	0.115516
Cl209	Cl	1.231227	-0.297495	-0.971637
Cl210	Cl	1.731227	0.202505	-0.471637
H211	H	1.789711	-0.194696	-1.001628
H212	H	2.289711	0.305304	-0.501628
Cl213	Cl	1.366466	-0.327222	-0.882793
Cl214	Cl	1.866466	0.172778	-0.382793
H215	H	1.640070	-0.549887	-0.384320
H216	H	2.140070	-0.049887	0.115680
H217	H	1.707400	-0.702001	-0.317224
H218	H	2.207400	-0.202001	0.182776
Cl219	Cl	1.494192	-0.166787	-0.757095
Cl220	Cl	1.994192	0.333213	-0.257095
Cl221	Cl	1.737263	-0.813132	-0.287516
Cl222	Cl	2.237263	-0.313132	0.212484
Cl223	Cl	1.542392	-0.336700	-1.256195
Cl224	Cl	2.042392	0.163300	-0.756195
Cl225	Cl	1.366322	-0.562035	-0.657631
Cl226	Cl	1.866322	-0.062035	-0.157631
H227	H	1.124880	-0.369377	-1.111205
H228	H	1.624880	0.130623	-0.611205
Cl229	Cl	0.929690	-0.470281	-0.748957
Cl230	Cl	1.429690	0.029719	-0.248957
H231	H	1.911676	-0.134056	-0.902127
H232	H	2.411676	0.365944	-0.402127
Cl233	Cl	1.877384	-0.073192	-0.713718
Cl234	Cl	2.377384	0.426808	-0.213718
H235	H	1.118197	-0.312568	-0.627796
H236	H	1.618197	0.187432	-0.127796
Cl237	Cl	1.311768	-0.072996	-0.147837
Cl238	Cl	1.811768	0.427004	0.352163
H239	H	1.661564	-0.102579	-0.673391
H240	H	2.161564	0.397421	-0.173391
Cl241	Cl	1.670112	-0.176243	-1.130527
Cl242	Cl	2.170112	0.323757	-0.630527
Cl243	Cl	1.159170	-0.430247	-1.299601
Cl244	Cl	1.659170	0.069753	-0.799601
Cl245	Cl	0.725605	-0.430676	-0.864389
Cl246	Cl	1.225605	0.069324	-0.364389
H247	H	1.640352	-0.953182	-0.384401
H248	H	2.140352	-0.453182	0.115599
H249	H	1.013496	-0.386932	-0.620221
H250	H	1.513496	0.113068	-0.120221
Cl251	Cl	1.392022	-0.188172	-0.183843
Cl252	Cl	1.892022	0.311828	0.316157
H253	H	1.375001	-0.400881	-1.339920
H254	H	1.875001	0.099119	-0.839920
