data_functionalizedCrystal
_audit_creation_method	'MofGen! by Chris Wilmer'
_symmetry_space_group_name_H-M	'P1'
_symmetry_Int_Tables_number	1
_symmetry_cell_setting	triclinic
loop_
_symmetry_equiv_pos_as_xyz
  x,y,z
_cell_length_a	12.759401
_cell_length_b	19.121111
_cell_length_c	12.759393
_cell_angle_alpha	87.593924
_cell_angle_beta	89.980404
_cell_angle_gamma	87.529528
loop_
_atom_site_label
_atom_site_type_symbol
_atom_site_fract_x
_atom_site_fract_y
_atom_site_fract_z
Zn1	Zn	1.588322	0.279574	-0.611788
Zn2	Zn	1.580674	0.397040	-0.443589
Zn3	Zn	1.412619	0.279609	-0.436129
Zn4	Zn	1.405077	0.396989	-0.619227
O5	O	1.496673	0.338303	-0.527683
O6	O	1.734328	0.295163	-0.589484
O7	O	1.558337	0.381499	-0.295581
O8	O	1.442284	0.181320	-0.453195
O9	O	1.728709	0.381465	-0.465910
O10	O	1.571372	0.181294	-0.582251
O11	O	1.434867	0.295222	-0.290100
O12	O	1.264598	0.295172	-0.460409
O13	O	1.429429	0.381377	-0.765259
O14	O	1.259057	0.381411	-0.594930
O15	O	1.564059	0.295113	-0.759794
O16	O	1.551024	0.495318	-0.473123
O17	O	1.422013	0.495280	-0.602164
C18	C	1.223707	0.338290	-0.527668
C19	C	1.106929	0.338302	-0.527688
C20	C	0.939473	0.383285	-0.597639
C21	C	1.049198	0.383278	-0.597628
C22	C	1.054930	0.293336	-0.457747
C23	C	0.945207	0.293348	-0.457754
C24	C	1.484899	0.520783	-0.539283
C25	C	1.479957	0.598849	-0.544281
C26	C	1.544857	0.635520	-0.479500
C27	C	1.540216	0.708871	-0.484206
C28	C	1.470670	0.745549	-0.553689
C29	C	1.405767	0.708872	-0.618477
C30	C	1.410414	0.635523	-0.613775
C31	C	1.453281	0.967018	-0.571248
C32	C	1.448637	1.040373	-0.575943
C33	C	1.583088	1.040367	-0.441673
C34	C	1.587724	0.967016	-0.436973
C35	C	1.522826	0.930345	-0.501765
C36	C	1.465922	0.820526	-0.558499
C37	C	1.527579	0.855370	-0.496960
C38	C	1.770705	0.338316	-0.527699
C39	C	1.887482	0.338322	-0.527706
C40	C	1.508513	1.155110	-0.516075
C41	C	1.513537	1.077045	-0.511162
C42	C	1.496756	0.338235	-0.801713
C43	C	1.496791	0.338207	-0.918487
C44	C	1.566898	0.293282	-0.970505
C45	C	1.566918	0.293251	-1.080227
C46	C	1.426720	0.383077	-1.085905
C47	C	1.426696	0.383103	-0.976185
C48	C	1.496654	0.338319	-0.254717
C49	C	1.496835	0.338150	-0.137930
H50	H	0.902875	0.256732	-0.400801
F51	F	1.641497	0.245497	-0.909102
F52	F	1.391907	0.859567	-0.632445
F53	F	1.352128	0.430859	-1.147320
H54	H	0.892476	0.419906	-0.654598
H55	H	1.091524	0.419892	-0.654573
F56	F	1.609295	0.747897	-0.415260
F57	F	1.641543	0.245441	-1.135583
F58	F	1.652157	1.079400	-0.372727
F59	F	1.374601	1.079407	-0.649889
H60	H	1.644354	0.937154	-0.380395
F61	F	1.352070	0.430918	-0.920821
F62	F	1.116375	0.245472	-0.383307
H63	H	1.601485	0.605662	-0.422915
H64	H	1.400436	0.937166	-0.624003
H65	H	1.349146	0.738741	-0.675056
F66	F	1.341342	0.596494	-0.682727
F67	F	1.601598	0.816334	-0.423018
