data_functionalizedCrystal
_audit_creation_method	'MofGen! by Chris Wilmer'
_symmetry_space_group_name_H-M	'P1'
_symmetry_Int_Tables_number	1
_symmetry_cell_setting	triclinic
loop_
_symmetry_equiv_pos_as_xyz
  x,y,z
_cell_length_a	23.532361
_cell_length_b	23.532407
_cell_length_c	10.268362
_cell_angle_alpha	89.990068
_cell_angle_beta	89.999693
_cell_angle_gamma	82.839173
loop_
_atom_site_label
_atom_site_type_symbol
_atom_site_fract_x
_atom_site_fract_y
_atom_site_fract_z
O1	O	0.755277	0.069009	-0.108183
O2	O	0.589410	0.079040	-0.108216
O3	O	0.677345	-0.008908	-0.108174
O4	O	0.667341	0.156957	-0.108224
O5	O	0.677337	-0.008912	0.108426
O6	O	0.589402	0.079036	0.108385
O7	O	0.755269	0.069005	0.108418
Cu8	Cu	0.672335	0.074021	0.128179
Cu9	Cu	0.672344	0.074025	-0.127977
O10	O	0.667334	0.156953	0.108376
C11	C	0.568189	0.078787	0.000081
C12	C	0.504971	0.078032	0.000069
C13	C	0.677086	-0.030126	0.000129
C14	C	0.676320	-0.093343	0.000139
C15	C	0.231731	0.074730	-0.117991
C16	C	0.291131	0.075445	-0.117995
O17	O	0.321860	0.075797	-0.218406
N18	N	0.320832	0.075804	0.000075
C19	C	0.291132	0.075443	0.118155
O20	O	0.321850	0.075813	0.218582
C21	C	0.231734	0.074724	0.118157
C22	C	0.202035	0.074370	0.000080
C23	C	0.202032	0.074376	-0.236059
C24	C	0.142636	0.073662	-0.236055
C25	C	0.112940	0.073303	-0.117983
C26	C	0.142639	0.073657	0.000084
C27	C	0.202035	0.074358	0.236236
C28	C	0.142633	0.073639	0.236228
C29	C	0.112934	0.073285	0.118151
C30	C	0.053546	0.072583	0.118159
N31	N	0.023845	0.072224	0.000090
C32	C	0.053541	0.072584	-0.117981
C33	C	0.415872	0.076952	0.118142
C34	C	0.475269	0.077675	0.118141
C35	C	0.475264	0.077676	-0.118009
C36	C	0.415866	0.076957	-0.118007
C37	C	0.386171	0.076593	0.000073
C38	C	-0.071194	0.071085	-0.117964
C39	C	-0.130595	0.070373	-0.117950
C40	C	-0.130585	0.070369	0.118200
C41	C	-0.071189	0.071084	0.118186
C42	C	-0.041495	0.071440	0.000094
O43	O	0.022780	0.072228	0.218519
O44	O	0.022817	0.072205	-0.218391
C45	C	0.723555	-0.492454	0.000077
C46	C	0.722844	-0.551854	0.000067
O47	O	0.766630	-0.588606	0.000028
N48	N	0.670566	-0.574471	0.000058
C49	C	0.618997	-0.537685	0.000045
O50	O	0.574465	-0.562377	0.000035
C51	C	0.619709	-0.478286	0.000046
C52	C	0.671990	-0.455672	0.000068
C53	C	0.775832	-0.469839	0.000098
C54	C	0.776543	-0.410443	0.000111
C55	C	0.724977	-0.373662	0.000102
C56	C	0.672701	-0.396276	0.000081
C57	C	0.568140	-0.441501	0.000024
C58	C	0.568857	-0.382099	0.000023
C59	C	0.621137	-0.359485	0.000046
C60	C	0.621847	-0.300099	0.000084
N61	N	0.674124	-0.277481	0.000094
C62	C	0.725690	-0.314263	0.000103
C63	C	0.617505	-0.662427	0.000041
C64	C	0.616793	-0.721825	0.000050
C65	C	0.720640	-0.735990	0.000069
C66	C	0.721352	-0.676591	0.000070
C67	C	0.669783	-0.639810	0.000051
C68	C	0.727179	-0.189526	0.000130
C69	C	0.727886	-0.130124	0.000148
C70	C	0.624039	-0.115965	0.000121
C71	C	0.623332	-0.175361	0.000110
C72	C	0.674907	-0.212141	0.000110
O73	O	0.578083	-0.263312	0.000118
O74	O	0.770214	-0.289562	0.000096
C75	C	0.776489	0.069258	0.000119
C76	C	0.839708	0.070014	0.000122
C77	C	0.667592	0.178171	0.000070
C78	C	0.668358	0.241388	0.000052
N79	N	0.672333	0.074017	0.308345
N80	N	0.672351	0.074024	-0.308143
C81	C	0.672341	0.074024	0.574015
C82	C	0.672335	0.074022	0.426177
H83	H	-0.047024	0.071376	-0.214126
C84	C	0.864138	-0.500179	-0.111215
C85	C	0.832521	-0.510262	0.000115
H86	H	0.899139	-0.525129	-0.111191
H87	H	0.842696	-0.507009	-0.186743
H88	H	0.872029	-0.461562	-0.111202
H89	H	0.824626	-0.548879	0.000097
H90	H	0.853967	-0.503437	0.075662
C91	C	-0.124625	0.070444	-0.351381
C92	C	-0.163240	0.069982	-0.247749
H93	H	-0.144777	0.070198	-0.431508
H94	H	-0.105991	0.103936	-0.346480
H95	H	-0.096922	0.037505	-0.346444
H96	H	-0.190940	0.102923	-0.252681
H97	H	-0.181882	0.036486	-0.252652
H98	H	-0.154775	0.070079	0.214330
C99	C	0.558049	-0.587420	0.111384
C100	C	0.560816	-0.621998	0.000039
H101	H	0.523053	-0.562461	0.111374
H102	H	0.559929	-0.610893	0.186902
H103	H	0.589285	-0.565448	0.111375
H104	H	0.529582	-0.643973	0.000053
H105	H	0.558931	-0.598522	-0.075498
H106	H	0.118461	0.073372	-0.332205
H107	H	0.226206	0.074644	0.332388
C108	C	0.002296	0.022922	0.255192
C109	C	-0.038537	0.071478	0.247971
H110	H	0.022453	0.023165	0.335314
H111	H	-0.016348	-0.010564	0.250304
H112	H	0.028480	0.023242	0.184864
H113	H	-0.064724	0.071156	0.318295
H114	H	-0.019893	0.104972	0.252872
H115	H	0.226205	0.074667	-0.332212
C116	C	0.148609	0.073705	0.469656
C117	C	0.109993	0.073241	0.366029
H118	H	0.128458	0.073464	0.549786
H119	H	0.176308	0.040770	0.464748
H120	H	0.167245	0.107201	0.464720
H121	H	0.091361	0.039742	0.370959
H122	H	0.082284	0.106180	0.370939
H123	H	0.762627	-0.765949	0.000072
C124	C	0.355771	0.027179	0.255197
C125	C	0.383235	0.076557	0.247950
H126	H	0.335628	0.026934	0.335339
H127	H	0.329578	0.026867	0.184901
H128	H	0.383484	-0.005752	0.250289
H129	H	0.355522	0.109489	0.252849
H130	H	0.409431	0.076875	0.318266
H131	H	0.391688	0.076669	-0.214156
C132	C	0.566322	0.078767	-0.222852
C133	C	0.507915	0.078065	-0.247799
H134	H	0.586479	0.079004	-0.302976
H135	H	0.571517	0.112099	-0.174362
H136	H	0.580581	0.045667	-0.174318
H137	H	0.493655	0.111168	-0.296326
H138	H	0.502716	0.044730	-0.296310
C139	C	0.829900	-0.197545	0.000169
C140	C	0.783871	-0.229949	0.000141
H141	H	0.864897	-0.222501	0.000190
H142	H	0.828019	-0.174077	-0.075358
H143	H	0.828003	-0.174087	0.075709
H144	H	0.785765	-0.253404	-0.075404
H145	H	0.785752	-0.253426	0.075676
H146	H	0.574220	-0.740232	0.000054
C147	C	0.469293	0.077600	0.351562
C148	C	0.507909	0.078068	0.247935
H149	H	0.489444	0.077837	0.431692
H150	H	0.441594	0.110536	0.346636
H151	H	0.450657	0.044104	0.346644
H152	H	0.526542	0.111566	0.252847
H153	H	0.535618	0.045129	0.252864
C154	C	0.788940	-0.071533	-0.111171
C155	C	0.785356	-0.105267	0.000166
H156	H	0.824417	-0.056186	-0.111155
H157	H	0.786507	-0.094403	-0.186694
H158	H	0.758330	-0.041126	-0.111156
H159	H	0.815964	-0.135677	0.000146
H160	H	0.787795	-0.082395	0.075709
C161	C	0.837597	-0.351863	-0.111229
C162	C	0.834012	-0.385591	0.000115
H163	H	0.873077	-0.336522	-0.111224
H164	H	0.835158	-0.374735	-0.186747
H165	H	0.806991	-0.321451	-0.111215
H166	H	0.864616	-0.416005	0.000096
H167	H	0.836457	-0.362718	0.075653
C168	C	0.465568	-0.421508	-0.000035
C169	C	0.510670	-0.466347	-0.000013
H170	H	0.430086	-0.436848	-0.000068
H171	H	0.468002	-0.398646	0.075500
H172	H	0.468022	-0.398628	-0.075567
H173	H	0.508218	-0.489225	0.075525
H174	H	0.508234	-0.489220	-0.075556
C175	C	0.823926	-0.696572	0.000081
C176	C	0.778820	-0.651737	0.000075
H177	H	0.859405	-0.681229	0.000072
H178	H	0.821485	-0.719446	0.075613
H179	H	0.821482	-0.719442	-0.075454
H180	H	0.781262	-0.628869	0.075615
H181	H	0.781262	-0.628853	-0.075466
H182	H	0.526862	-0.352154	0.000005
C183	C	0.520755	-0.155391	0.000078
C184	C	0.565865	-0.200222	0.000083
H185	H	0.485278	-0.170737	0.000042
H186	H	0.523187	-0.132532	0.075620
H187	H	0.523205	-0.132505	-0.075447
H188	H	0.563418	-0.223106	0.075614
H189	H	0.563433	-0.223091	-0.075467
H190	H	0.582056	-0.086007	0.000119
