data_functionalizedCrystal
_audit_creation_method	'MofGen! by Chris Wilmer'
_symmetry_space_group_name_H-M	'P1'
_symmetry_Int_Tables_number	1
_symmetry_cell_setting	triclinic
loop_
_symmetry_equiv_pos_as_xyz
  x,y,z
_cell_length_a	29.839134
_cell_length_b	29.839131
_cell_length_c	29.839125
_cell_angle_alpha	90.017709
_cell_angle_beta	90.012189
_cell_angle_gamma	90.021992
loop_
_atom_site_label
_atom_site_type_symbol
_atom_site_fract_x
_atom_site_fract_y
_atom_site_fract_z
Zn1	Zn	0.686719	-0.179149	0.254008
Zn2	Zn	0.686652	-0.254261	0.178878
Zn3	Zn	0.611602	-0.179121	0.178890
Zn4	Zn	0.611550	-0.254227	0.253979
O5	O	0.649131	-0.216690	0.216439
O6	O	0.749578	-0.189139	0.244048
O7	O	0.676690	-0.244296	0.116012
O8	O	0.621617	-0.116257	0.188872
O9	O	0.749528	-0.244324	0.188851
O10	O	0.676805	-0.116278	0.244060
O11	O	0.621551	-0.189090	0.116021
O12	O	0.548728	-0.189058	0.188844
O13	O	0.621528	-0.244266	0.316850
O14	O	0.548690	-0.244238	0.244011
O15	O	0.676755	-0.189106	0.316871
O16	O	0.676639	-0.317124	0.188823
O17	O	0.621462	-0.317099	0.243999
C18	C	0.532408	-0.216641	0.216426
C19	C	0.482474	-0.216632	0.216431
C20	C	0.125909	-0.188015	0.245237
C21	C	0.313582	-0.187979	0.245226
O22	O	0.337865	-0.163591	0.269715
N23	N	0.337029	-0.216661	0.216442
C24	C	0.313555	-0.245357	0.187660
O25	O	0.337804	-0.269755	0.163181
C26	C	0.125883	-0.245395	0.187673
C27	C	0.102438	-0.216707	0.216456
C28	C	0.102464	-0.159330	0.274017
C29	C	0.055548	-0.159338	0.274018
C30	C	0.032078	-0.188030	0.245238
C31	C	0.055522	-0.216715	0.216457
C32	C	0.102409	-0.274092	0.158894
C33	C	0.055488	-0.274100	0.158901
C34	C	0.032044	-0.245412	0.187684
C35	C	-0.014864	-0.245415	0.187677
N36	N	-0.038311	-0.216732	0.216461
C37	C	-0.014840	-0.188040	0.245242
C38	C	0.412085	-0.245334	0.187655
C39	C	0.459003	-0.245324	0.187651
C40	C	0.459027	-0.187947	0.245218
C41	C	0.412108	-0.187955	0.245219
C42	C	0.388638	-0.216652	0.216439
C43	C	-0.113366	-0.188058	0.245240
C44	C	-0.160286	-0.188067	0.245237
C45	C	-0.160305	-0.245445	0.187672
C46	C	-0.113390	-0.245435	0.187674
C47	C	-0.089921	-0.216740	0.216461
O48	O	-0.039176	-0.269794	0.163204
O49	O	-0.039098	-0.163652	0.269725
C50	C	0.172824	-0.188007	0.245236
C51	C	0.196269	-0.216692	0.216455
C52	C	0.172798	-0.245384	0.187675
C53	C	0.243187	-0.216682	0.216451
C54	C	0.266657	-0.187990	0.245231
C55	C	0.243210	-0.159308	0.274016
C56	C	0.196295	-0.159315	0.274016
C57	C	0.196245	-0.274067	0.158891
C58	C	0.243161	-0.274056	0.158892
C59	C	0.266631	-0.245364	0.187672
C60	C	0.649050	-0.333412	0.216416
C61	C	0.649056	-0.383347	0.216422
C62	C	0.677914	-0.692990	0.187750
C63	C	0.677969	-0.880663	0.187767
O64	O	0.702440	-0.904928	0.163373
N65	N	0.649224	-0.904132	0.216472
C66	C	0.620465	-0.880679	0.245177
O67	O	0.596020	-0.904946	0.269596
C68	C	0.620412	-0.693007	0.245162
C69	C	0.649156	-0.669541	0.216452
C70	C	0.706655	-0.669524	0.159043
C71	C	0.706640	-0.622609	0.159037
C72	C	0.677882	-0.599159	0.187738
C73	C	0.649140	-0.622625	0.216446
C74	C	0.591656	-0.669555	0.273868
C75	C	0.591646	-0.622634	0.273863
C76	C	0.620390	-0.599168	0.245153
C77	C	0.620367	-0.552260	0.245141
N78	N	0.649112	-0.528792	0.216437
C79	C	0.677869	-0.552242	0.187735
C80	C	0.620494	-0.979209	0.245183
C81	C	0.620507	-1.026127	0.245186
C82	C	0.678012	-1.026109	0.187777
C83	C	0.677996	-0.979190	0.187772
C84	C	0.649239	-0.955741	0.216478
C85	C	0.677834	-0.453716	0.187725
C86	C	0.677814	-0.406796	0.187720
C87	C	0.620311	-0.406819	0.245131
C88	C	0.620329	-0.453734	0.245134
C89	C	0.649094	-0.477182	0.216429
O90	O	0.595912	-0.527966	0.269527
O91	O	0.702318	-0.527966	0.163327
C92	C	0.677930	-0.739906	0.187756
C93	C	0.649188	-0.763372	0.216463
C94	C	0.620430	-0.739922	0.245165
C95	C	0.649200	-0.810289	0.216467
C96	C	0.677958	-0.833739	0.187765
C97	C	0.706703	-0.810271	0.159060
C98	C	0.706687	-0.763355	0.159054
C99	C	0.591685	-0.763390	0.273870
C100	C	0.591703	-0.810306	0.273873
C101	C	0.620461	-0.833755	0.245171
C102	C	0.766309	-0.216738	0.216451
C103	C	0.816244	-0.216759	0.216457
C104	C	0.649143	-0.216686	0.333617
C105	C	0.649148	-0.216684	0.383551
C106	C	0.649225	-0.099511	0.216471
C107	C	0.649264	-0.049577	0.216484
C108	C	0.649145	-0.216661	0.099716
C109	C	0.649227	-0.216536	0.049782
C110	C	0.677935	-0.187887	0.693209
C111	C	0.677957	-0.187849	0.880882
O112	O	0.702399	-0.163407	0.905159
N113	N	0.649208	-0.216564	0.904337
C114	C	0.620449	-0.245288	0.880870
O115	O	0.595993	-0.269708	0.905126
C116	C	0.620424	-0.245324	0.693198
C117	C	0.649179	-0.216610	0.669746
C118	C	0.706687	-0.159175	0.669757
C119	C	0.706683	-0.159187	0.622841
C120	C	0.677927	-0.187910	0.599378
C121	C	0.649175	-0.216622	0.622830
C122	C	0.591663	-0.274045	0.669732
C123	C	0.591659	-0.274051	0.622811
C124	C	0.620414	-0.245337	0.599359
C125	C	0.620415	-0.245356	0.552451
N126	N	0.649164	-0.216642	0.528997
C127	C	0.677920	-0.187918	0.552460
C128	C	0.620464	-0.245268	0.979401
C129	C	0.620471	-0.245260	1.026319
C130	C	0.677979	-0.187820	1.026327
C131	C	0.677974	-0.187830	0.979409
C132	C	0.649213	-0.216553	0.955946
C133	C	0.677910	-0.187945	0.453934
C134	C	0.677904	-0.187961	0.407015
C135	C	0.620395	-0.245399	0.407010
C136	C	0.620401	-0.245385	0.453926
C137	C	0.649160	-0.216655	0.477386
O138	O	0.595982	-0.269782	0.528146
O139	O	0.702365	-0.163495	0.528196
C140	C	0.677939	-0.187875	0.740124
C141	C	0.649187	-0.216587	0.763577
C142	C	0.620431	-0.245310	0.740113
C143	C	0.649194	-0.216579	0.810494
C144	C	0.677950	-0.187856	0.833958
C145	C	0.706699	-0.159141	0.810503
C146	C	0.706695	-0.159152	0.763588
C147	C	0.591682	-0.274025	0.763568
C148	C	0.591689	-0.274011	0.810483
C149	C	0.620445	-0.245288	0.833947
H150	H	0.701220	-0.387692	0.164340
H151	H	0.392980	-0.268703	0.164217
H152	H	-0.094264	-0.164691	0.268682
H153	H	0.036464	-0.135980	0.297458
O154	O	0.563785	-0.301976	0.599969
C155	C	0.589339	-0.331017	0.572840
H156	H	0.623397	-0.315188	0.565818
H157	H	0.571033	-0.337038	0.539844
H158	H	0.594249	-0.364308	0.590920
O159	O	0.032641	-0.301914	0.130921
C160	C	0.005509	-0.276301	0.101940
H161	H	-0.001511	-0.242279	0.117843
H162	H	-0.027487	-0.294599	0.095887
H163	H	0.023586	-0.271314	0.068657
O164	O	0.563686	-0.301950	0.692437
C165	C	0.538313	-0.327305	0.661657
H166	H	0.536778	-0.308906	0.628216
H167	H	0.502911	-0.332075	0.675202
H168	H	0.554732	-0.361434	0.656665
O169	O	0.592431	-0.273294	0.476640
C170	C	0.567060	-0.298659	0.445867
H171	H	0.565519	-0.280266	0.412423
H172	H	0.531660	-0.303433	0.459416
H173	H	0.583485	-0.332787	0.440880
H174	H	0.701388	-0.164449	0.960317
O175	O	0.592527	-0.273320	0.384159
C176	C	0.618084	-0.302356	0.357028
H177	H	0.652144	-0.286527	0.350016
H178	H	0.599784	-0.308368	0.324028
H179	H	0.622990	-0.335651	0.375101
O180	O	0.481761	-0.160034	0.273192
C181	C	0.451012	-0.134728	0.298612
H182	H	0.417561	-0.133144	0.280219
H183	H	0.464581	-0.099338	0.303472
H184	H	0.446029	-0.151236	0.332701
O185	O	0.734668	-0.131319	0.740786
C186	C	0.763657	-0.156904	0.713634
H187	H	0.766414	-0.192286	0.727766
H188	H	0.798240	-0.140662	0.713108
H189	H	0.749760	-0.158451	0.678075
H190	H	0.597076	-0.960121	0.268559
O191	O	0.173544	-0.131498	0.302043
C192	C	0.185033	-0.141376	0.346798
H193	H	0.197920	-0.177268	0.348998
H194	H	0.154188	-0.137542	0.369006
H195	H	0.212279	-0.117306	0.358579
O196	O	-0.183108	-0.160262	0.273222
C197	C	-0.210238	-0.185887	0.302201
H198	H	-0.217280	-0.219910	0.286295
H199	H	-0.243223	-0.167601	0.308258
H200	H	-0.192147	-0.190872	0.335483
H201	H	0.730097	-0.135805	0.603751
H202	H	0.121569	-0.135965	0.297456
O203	O	0.266035	-0.131501	0.302022
C204	C	0.293183	-0.157122	0.330979
H205	H	0.279032	-0.192510	0.333690
H206	H	0.293734	-0.140927	0.365583
H207	H	0.328736	-0.158647	0.317081
O208	O	0.734654	-0.740633	0.131153
C209	C	0.760028	-0.771399	0.105817
H210	H	0.761575	-0.804833	0.124227
H211	H	0.795425	-0.757826	0.101055
H212	H	0.743602	-0.776416	0.071683
H213	H	0.597044	-0.268660	0.960302
O214	O	0.734568	-0.131189	0.833319
C215	C	0.709011	-0.102168	0.860466
H216	H	0.673630	-0.099384	0.846318
H217	H	0.725284	-0.067600	0.861008
H218	H	0.707452	-0.116053	0.896021
O219	O	0.563712	-0.301921	0.833193
C220	C	0.538340	-0.327280	0.802417
H221	H	0.536803	-0.308885	0.768973
H222	H	0.502939	-0.332051	0.815963
H223	H	0.554761	-0.361409	0.797427
O224	O	0.705867	-0.159928	1.049193
C225	C	0.699709	-0.166088	1.095632
H226	H	0.665031	-0.180795	1.102029
H227	H	0.702774	-0.132435	1.113470
H228	H	0.726343	-0.190014	1.108949
H229	H	0.568265	-0.297416	0.744469
H230	H	0.568229	-0.603544	0.297240
O231	O	0.705962	-0.956466	0.159870
C232	C	0.731334	-0.987230	0.134531
H233	H	0.732883	-1.020666	0.152938
H234	H	0.766732	-0.973657	0.129768
H235	H	0.714907	-0.992245	0.100397
O236	O	0.481754	-0.273252	0.159736
C237	C	0.470272	-0.318042	0.169470
H238	H	0.457387	-0.320364	0.205358
H239	H	0.501120	-0.340228	0.165556
H240	H	0.443026	-0.329753	0.145367
O241	O	0.592500	-0.273170	1.049028
C242	C	0.567127	-0.298528	1.018252
H243	H	0.565585	-0.280130	0.984810
H244	H	0.531727	-0.303304	1.031801
H245	H	0.583551	-0.332656	1.013258
O246	O	0.592567	-1.048850	0.273114
C247	C	0.567177	-1.018086	0.298436
H248	H	0.585571	-0.984630	0.300002
H249	H	0.562363	-1.031628	0.333830
H250	H	0.533068	-1.013124	0.281953
O251	O	-0.090682	-0.273343	0.159700
C252	C	-0.121462	-0.298660	0.134289
H253	H	-0.154904	-0.300242	0.152686
H254	H	-0.107919	-0.334049	0.129438
H255	H	-0.126451	-0.282162	0.100197
H256	H	0.121490	-0.297452	0.135456
O257	O	-0.183130	-0.273364	0.159782
C258	C	-0.210276	-0.302410	0.185315
H259	H	-0.196124	-0.305232	0.220691
H260	H	-0.210825	-0.336962	0.169009
H261	H	-0.245830	-0.288525	0.186892
H262	H	0.393023	-0.164594	0.268656
O263	O	0.173399	-0.301876	0.130910
C264	C	0.146268	-0.276261	0.101930
H265	H	0.139247	-0.242241	0.117837
H266	H	0.113272	-0.294558	0.095874
H267	H	0.164347	-0.271270	0.068648
H268	H	0.701258	-0.472801	0.164352
O269	O	0.265863	-0.301967	0.130915
C270	C	0.235080	-0.327284	0.105508
H271	H	0.201640	-0.328866	0.123909
H272	H	0.248622	-0.362673	0.100656
H273	H	0.230087	-0.310786	0.071416
O274	O	0.734609	-0.599887	0.131138
C275	C	0.759984	-0.630653	0.105804
H276	H	0.761528	-0.664088	0.124212
H277	H	0.795383	-0.617081	0.101047
H278	H	0.743562	-0.635667	0.071668
O279	O	0.705960	-1.048961	0.159965
C280	C	0.699810	-1.095403	0.166134
H281	H	0.685033	-1.101792	0.200777
H282	H	0.733478	-1.113203	0.163171
H283	H	0.675946	-1.108767	0.139444
O284	O	0.734544	-0.692363	0.131163
C285	C	0.709019	-0.719540	0.102113
H286	H	0.674952	-0.726578	0.117904
H287	H	0.727338	-0.752525	0.096145
H288	H	0.704126	-0.701493	0.068801
O289	O	0.563721	-0.692273	0.301802
C290	C	0.538335	-0.661505	0.327123
H291	H	0.556729	-0.628049	0.328684
H292	H	0.533524	-0.675043	0.362520
H293	H	0.504223	-0.656544	0.310643
O294	O	0.592392	-0.476463	0.273063
C295	C	0.566997	-0.445702	0.298384
H296	H	0.585384	-0.412242	0.299948
H297	H	0.562188	-0.459242	0.333780
H298	H	0.532886	-0.440748	0.281903
O299	O	0.592444	-0.384013	0.273059
C300	C	0.618001	-0.356838	0.302082
H301	H	0.653384	-0.370958	0.304887
H302	H	0.601733	-0.356295	0.336643
H303	H	0.619552	-0.321286	0.288185
H304	H	0.730117	-0.829371	0.135689
H305	H	0.568292	-0.829408	0.297251
H306	H	0.568268	-0.744302	0.297242
O307	O	0.705789	-0.159999	0.384256
C308	C	0.696011	-0.115220	0.395737
H309	H	0.660122	-0.112938	0.408627
H310	H	0.699897	-0.093029	0.364887
H311	H	0.720105	-0.103482	0.422978
O312	O	0.705869	-0.160101	0.476769
C313	C	0.734877	-0.185683	0.503901
H314	H	0.719004	-0.219719	0.510931
H315	H	0.740920	-0.167376	0.536893
H316	H	0.768161	-0.190641	0.485818
O317	O	0.734666	-0.131258	0.692475
C318	C	0.760029	-0.105914	0.661705
H319	H	0.761557	-0.124326	0.628260
H320	H	0.795434	-0.101136	0.675257
H321	H	0.743607	-0.071787	0.656718
