data_functionalizedCrystal
_audit_creation_method	'MofGen! by Chris Wilmer'
_symmetry_space_group_name_H-M	'P1'
_symmetry_Int_Tables_number	1
_symmetry_cell_setting	triclinic
loop_
_symmetry_equiv_pos_as_xyz
  x,y,z
_cell_length_a	6.817900
_cell_length_b	17.982865
_cell_length_c	27.923559
_cell_angle_alpha	96.858716
_cell_angle_beta	98.965071
_cell_angle_gamma	102.450232
loop_
_atom_site_label
_atom_site_type_symbol
_atom_site_fract_x
_atom_site_fract_y
_atom_site_fract_z
V1	V	-3.971536	-0.106499	-0.151479
V2	V	-3.471536	0.393501	0.348521
O3	O	-3.965421	0.004003	-0.148381
O4	O	-3.465421	0.504003	0.351619
O5	O	-3.918313	-0.210097	-0.150649
O6	O	-3.418313	0.289903	0.349351
O7	O	-3.901384	-0.105350	-0.217450
O8	O	-3.401384	0.394650	0.282550
O9	O	-3.982468	-0.101469	-0.081117
O10	O	-3.482468	0.398531	0.418883
V11	V	-4.458607	-0.093224	-0.143038
V12	V	-3.958607	0.406776	0.356962
O13	O	-4.225011	-0.135619	-0.169994
O14	O	-3.725011	0.364381	0.330006
O15	O	-4.655330	-0.064104	-0.124522
O16	O	-4.155330	0.435896	0.375478
O17	O	-4.288623	0.010374	-0.143868
O18	O	-3.788623	0.510374	0.356132
O19	O	-4.582119	-0.203725	-0.146136
O20	O	-4.082119	0.296275	0.353864
O21	O	-4.565072	-0.098253	-0.213399
O22	O	-4.065072	0.401747	0.286601
O23	O	-4.305552	-0.094373	-0.077067
O24	O	-3.805552	0.405627	0.422933
C25	C	-3.762845	-0.235337	-0.148312
C26	C	-3.262845	0.264663	0.351688
C27	C	-3.800471	-0.320033	-0.148073
C28	C	-3.300471	0.179967	0.351927
C29	C	-4.006365	-0.828701	-0.102109
C30	C	-3.506365	-0.328701	0.397891
C31	C	-3.971010	-0.749122	-0.102340
C32	C	-3.471010	-0.249122	0.397660
C33	C	-3.978350	-0.720538	-0.146907
C34	C	-3.478350	-0.220538	0.353093
C35	C	-4.021029	-0.771538	-0.191247
C36	C	-3.521029	-0.271538	0.308753
C37	C	-4.056369	-0.851116	-0.191015
C38	C	-3.556369	-0.351116	0.308985
C39	C	-3.878504	-0.450612	-0.192182
C40	C	-3.378504	0.049388	0.307818
C41	C	-3.843166	-0.371028	-0.192410
C42	C	-3.343166	0.128972	0.307590
C43	C	-3.793146	-0.348618	-0.103506
C44	C	-3.293146	0.151382	0.396494
C45	C	-3.828486	-0.428195	-0.103274
C46	C	-3.328486	0.071805	0.396726
C47	C	-3.871150	-0.479188	-0.147614
C48	C	-3.371150	0.020812	0.352386
C49	C	-3.909482	-0.565477	-0.147363
C50	C	-3.409482	-0.065477	0.352637
C51	C	-3.940033	-0.634252	-0.147159
C52	C	-3.440033	-0.134252	0.352841
C53	C	-3.741249	-0.101721	-0.233523
C54	C	-3.241249	0.398279	0.266477
C55	C	-3.765144	-0.101467	-0.287456
C56	C	-3.265144	0.398533	0.212544
C57	C	-3.948045	-0.169807	-0.628976
C58	C	-3.448045	0.330193	-0.128976
C59	C	-4.037958	-0.168898	-0.831683
C60	C	-3.537958	0.331102	-0.331683
O61	O	-4.078999	-0.228163	-0.863906
O62	O	-3.578999	0.271837	-0.363906
N63	N	-4.014706	-0.098960	-0.849961
N64	N	-3.514706	0.401040	-0.349961
C65	C	-3.968985	-0.029245	-0.817559
C66	C	-3.468985	0.470755	-0.317559
O67	O	-3.951292	0.030261	-0.837758
O68	O	-3.451292	0.530261	-0.337758
C69	C	-3.879088	-0.030155	-0.614854
C70	C	-3.379088	0.469845	-0.114854
C71	C	-3.902323	-0.100097	-0.596578
C72	C	-3.402323	0.399903	-0.096578
C73	C	-3.971280	-0.239743	-0.610701
C74	C	-3.471280	0.260257	-0.110701
C75	C	-3.948792	-0.239969	-0.560027
C76	C	-3.448792	0.260031	-0.060027
C77	C	-3.903069	-0.170259	-0.527629
C78	C	-3.403069	0.329741	-0.027629
C79	C	-3.879835	-0.100323	-0.545904
C80	C	-3.379835	0.399677	-0.045904
C81	C	-3.833382	0.039559	-0.582453
C82	C	-3.333382	0.539559	-0.082453
C83	C	-3.810914	0.039325	-0.531774
C84	C	-3.310914	0.539325	-0.031774
C85	C	-3.834149	-0.030617	-0.513499
C86	C	-3.334149	0.469383	-0.013499
C87	C	-3.811624	-0.030839	-0.462833
C88	C	-3.311624	0.469161	0.037167
N89	N	-3.834876	-0.100777	-0.444554
N90	N	-3.334876	0.399223	0.055446
C91	C	-3.880599	-0.170487	-0.476952
C92	C	-3.380599	0.329513	0.023048
C93	C	-4.016181	-0.028773	-0.923983
C94	C	-3.516181	0.471227	-0.423983
C95	C	-4.038652	-0.028545	-0.974659
C96	C	-3.538652	0.471455	-0.474659
C97	C	-4.107627	-0.168198	-0.988780
C98	C	-3.607627	0.331802	-0.488780
C99	C	-4.085141	-0.168425	-0.938103
C100	C	-3.585141	0.331575	-0.438103
C101	C	-4.039433	-0.098710	-0.905705
C102	C	-3.539433	0.401290	-0.405705
C103	C	-3.833368	-0.170957	-0.370533
C104	C	-3.333368	0.329043	0.129467
C105	C	-3.810866	-0.171177	-0.319854
C106	C	-3.310866	0.328823	0.180146
C107	C	-3.741904	-0.031524	-0.305738
C108	C	-3.241904	0.468476	0.194262
C109	C	-3.764393	-0.031304	-0.356413
C110	C	-3.264393	0.468696	0.143587
C111	C	-3.810134	-0.101026	-0.388810
C112	C	-3.310134	0.398974	0.111190
O113	O	-3.770608	0.028393	-0.430582
O114	O	-3.270608	0.528393	0.069418
O115	O	-3.898328	-0.229986	-0.456745
O116	O	-3.398328	0.270014	0.043255
C117	C	-3.970533	-0.169581	-0.679650
C118	C	-3.470533	0.330419	-0.179650
C119	C	-3.947299	-0.099644	-0.697926
C120	C	-3.447299	0.400356	-0.197926
C121	C	-3.901576	-0.029935	-0.665528
C122	C	-3.401576	0.470065	-0.165528
C123	C	-3.969770	-0.099417	-0.748602
C124	C	-3.469770	0.400583	-0.248602
C125	C	-4.015492	-0.169127	-0.781000
C126	C	-3.515492	0.330873	-0.281000
C127	C	-4.038744	-0.239064	-0.762722
C128	C	-3.538744	0.260936	-0.262722
C129	C	-4.016256	-0.239290	-0.712048
C130	C	-3.516256	0.260710	-0.212048
C131	C	-3.878324	0.040003	-0.683806
C132	C	-3.378324	0.540003	-0.183806
C133	C	-3.900813	0.040224	-0.734481
C134	C	-3.400813	0.540224	-0.234481
C135	C	-3.946536	-0.029486	-0.766879
C136	C	-3.446536	0.470514	-0.266879
C137	C	-4.107434	0.035610	-0.146203
C138	C	-3.607434	0.535610	0.353797
C139	C	-4.049045	0.120305	-0.146445
C140	C	-3.549045	0.620305	0.353555
C141	C	-4.129030	-0.098005	-0.060991
C142	C	-3.629030	0.401995	0.439009
C143	C	-4.084374	-0.098255	-0.007057
C144	C	-3.584374	0.401745	0.492943
H145	H	-3.758393	-0.307089	-0.067403
H146	H	-3.258393	0.192911	0.432597
H147	H	-4.104063	-0.225377	-0.923227
H148	H	-3.604063	0.274623	-0.423227
H149	H	-4.144853	-0.224958	-1.015167
H150	H	-3.644853	0.275042	-0.515167
Cl151	Cl	-4.009395	0.059387	-0.997627
Cl152	Cl	-3.509395	0.559387	-0.497627
Cl153	Cl	-3.852392	-0.335097	-0.248443
Cl154	Cl	-3.352392	0.164903	0.251557
H155	H	-3.814442	0.096513	-0.597323
H156	H	-3.314442	0.596513	-0.097323
Cl157	Cl	-3.890863	-0.258609	-0.411253
Cl158	Cl	-3.390863	0.241391	0.088747
H159	H	-3.822515	-0.451463	-0.066983
H160	H	-3.322515	0.048537	0.433017
H161	H	-3.978961	0.028001	-0.897609
H162	H	-3.478961	0.528001	-0.397609
Cl163	Cl	-3.684419	0.056106	-0.265000
Cl164	Cl	-3.184419	0.556106	0.235000
Cl165	Cl	-3.753483	0.126971	-0.491049
Cl166	Cl	-3.253483	0.626971	0.008951
Cl167	Cl	-4.110049	-0.915224	-0.246755
Cl168	Cl	-3.610049	-0.415224	0.253245
H169	H	-3.841098	0.096770	-0.657432
H170	H	-3.341098	0.596770	-0.157432
H171	H	-3.745483	0.025648	-0.371293
H172	H	-3.245483	0.525648	0.128707
Cl173	Cl	-4.096231	-0.326698	-0.803461
Cl174	Cl	-3.596231	0.173302	-0.303461
H175	H	-3.936265	-0.707605	-0.066237
H176	H	-3.436265	-0.207605	0.433763
Cl177	Cl	-3.840080	-0.259110	-0.296883
Cl178	Cl	-3.340080	0.240890	0.203117
H179	H	-4.035180	-0.296244	-0.697174
H180	H	-3.535180	0.203756	-0.197174
Cl181	Cl	-3.931961	-0.514703	-0.247921
Cl182	Cl	-3.431961	-0.014703	0.252079
Cl183	Cl	-3.871581	0.128160	-0.757448
Cl184	Cl	-3.371581	0.628160	-0.257448
H185	H	-3.967726	-0.296923	-0.545152
H186	H	-3.467726	0.203077	-0.045152
Cl187	Cl	-3.997144	-0.864626	-0.046077
Cl188	Cl	-3.497144	-0.364626	0.453923
H189	H	-4.026990	-0.748259	-0.227535
H190	H	-3.526990	-0.248259	0.272465
Cl191	Cl	-4.028761	-0.327390	-0.651422
Cl192	Cl	-3.528761	0.172610	-0.151422
