data_functionalizedCrystal
_audit_creation_method	'MofGen! by Chris Wilmer'
_symmetry_space_group_name_H-M	'P1'
_symmetry_Int_Tables_number	1
_symmetry_cell_setting	triclinic
loop_
_symmetry_equiv_pos_as_xyz
  x,y,z
_cell_length_a	16.625546
_cell_length_b	19.076919
_cell_length_c	19.077105
_cell_angle_alpha	90.076224
_cell_angle_beta	87.718759
_cell_angle_gamma	92.269917
loop_
_atom_site_label
_atom_site_type_symbol
_atom_site_fract_x
_atom_site_fract_y
_atom_site_fract_z
Zn1	Zn	-0.390077	-0.440407	1.058283
Zn2	Zn	0.109923	0.059593	1.558283
Zn3	Zn	-0.519720	-0.322896	1.062927
Zn4	Zn	-0.019720	0.177104	1.562927
Zn5	Zn	-0.379275	-0.318200	0.945500
Zn6	Zn	0.120725	0.181800	1.445500
Zn7	Zn	-0.519234	-0.435649	0.940748
Zn8	Zn	-0.019234	0.064351	1.440748
O9	O	-0.452076	-0.379288	1.001864
O10	O	0.047924	0.120712	1.501864
O11	O	-0.411998	-0.428775	1.157231
O12	O	0.088002	0.071225	1.657231
O13	O	-0.496773	-0.223942	1.051282
O14	O	0.003227	0.276058	1.551282
O15	O	-0.267879	-0.334437	0.960506
O16	O	0.232121	0.165563	1.460506
O17	O	-0.507246	-0.342441	1.160642
O18	O	-0.007246	0.157559	1.660642
O19	O	-0.275815	-0.424222	1.043367
O20	O	0.224185	0.075778	1.543367
O21	O	-0.393589	-0.220492	0.965009
O22	O	0.106411	0.279508	1.465009
O23	O	-0.393117	-0.329824	0.846538
O24	O	0.106883	0.170176	1.346538
O25	O	-0.506418	-0.534611	0.952407
O26	O	-0.006418	-0.034611	1.452407
O27	O	-0.495944	-0.416113	0.843047
O28	O	0.004056	0.083887	1.343047
O29	O	-0.411527	-0.538107	1.038759
O30	O	0.088473	-0.038107	1.538759
O31	O	-0.632485	-0.337827	1.046674
O32	O	-0.132485	0.162173	1.546674
O33	O	-0.632127	-0.420666	0.956910
O34	O	-0.132127	0.079334	1.456910
C35	C	-0.661563	-0.379256	1.001799
C36	C	-0.161563	0.120744	1.501799
C37	C	-0.751186	-0.379268	1.001834
C38	C	-0.251186	0.120732	1.501834
C39	C	-0.443306	-0.371943	0.819296
C40	C	0.056694	0.128057	1.319296
C41	C	-0.439575	-0.368817	0.741192
C42	C	0.060425	0.131183	1.241192
C43	C	-0.460123	-0.562568	0.994535
C44	C	0.039877	-0.062568	1.494535
C45	C	-0.463552	-0.640671	0.991412
C46	C	0.036448	-0.140671	1.491412
C47	C	-1.079371	-0.379346	1.001954
C48	C	-0.579371	0.120654	1.501954
C49	C	-0.988060	-0.379327	1.001918
C50	C	-0.488060	0.120673	1.501918
C51	C	-0.915281	-0.379307	1.001894
C52	C	-0.415281	0.120693	1.501894
C53	C	-0.823965	-0.379288	1.001859
C54	C	-0.323965	0.120712	1.501859
C55	C	-0.241774	-0.379336	1.001948
C56	C	0.258226	0.120664	1.501948
C57	C	-0.152155	-0.379357	1.001984
C58	C	0.347845	0.120643	1.501984
C59	C	-0.415760	-0.679185	1.034901
C60	C	0.084240	-0.179185	1.534901
C61	C	-0.418978	-0.752571	1.031958
C62	C	0.081022	-0.252571	1.531958
C63	C	-0.469993	-0.787441	0.985529
C64	C	0.030007	-0.287441	1.485529
C65	C	-0.517786	-0.748922	0.942035
C66	C	-0.017786	-0.248922	1.442035
C67	C	-0.514563	-0.675537	0.944975
C68	C	-0.014563	-0.175537	1.444975
C69	C	-0.484926	-1.006722	0.971911
C70	C	0.015074	-0.506722	1.471911
C71	C	-0.488147	-1.080112	0.968976
C72	C	0.011853	-0.580112	1.468976
C73	C	-0.389338	-1.083755	1.058898
C74	C	0.110662	-0.583755	1.558898
C75	C	-0.386123	-1.010369	1.061837
C76	C	0.113877	-0.510369	1.561837
C77	C	-0.433913	-0.971856	1.018341
C78	C	0.066087	-0.471856	1.518341
N79	N	-0.473286	-0.862453	0.982521
N80	N	0.026714	-0.362453	1.482521
N81	N	-0.430616	-0.896846	1.021346
N82	N	0.069384	-0.396846	1.521346
C83	C	-0.444005	-0.196723	1.009205
C84	C	0.055995	0.303277	1.509205
C85	C	-0.440356	-0.118626	1.012465
C86	C	0.059644	0.381374	1.512465
C87	C	-0.491432	-0.412204	0.702702
C88	C	0.008568	0.087796	1.202702
C89	C	-0.487916	-0.409270	0.629314
C90	C	0.012084	0.090730	1.129314
C91	C	-0.432544	-0.362946	0.594418
C92	C	0.067456	0.137054	1.094418
C93	C	-0.380681	-0.319557	0.632913
C94	C	0.119319	0.180443	1.132913
C95	C	-0.384194	-0.322495	0.706299
C96	C	0.115806	0.177505	1.206299
C97	C	-0.416284	-0.349354	0.375130
C98	C	0.083716	0.150646	0.875130
C99	C	-0.412776	-0.346418	0.301739
C100	C	0.087224	0.153582	0.801739
C101	C	-0.520010	-0.436133	0.298145
C102	C	-0.020010	0.063867	0.798145
C103	C	-0.523522	-0.439063	0.371533
C104	C	-0.023522	0.060937	0.871533
C105	C	-0.471655	-0.395677	0.410021
C106	C	0.028345	0.104323	0.910021
N107	N	-0.428950	-0.359945	0.519405
N108	N	0.071050	0.140055	1.019405
N109	N	-0.475247	-0.398682	0.485034
N110	N	0.024753	0.101318	0.985034
C111	C	-0.460881	-0.386662	1.185146
C112	C	0.039119	0.113338	1.685146
C113	C	-0.464634	-0.389805	1.263249
C114	C	0.035366	0.110195	1.763249
H115	H	-0.374221	-0.650799	1.072711
H116	H	0.125779	-0.150799	1.572711
H117	H	-0.341962	-0.287168	0.737637
H118	H	0.158038	0.212832	1.237637
C119	C	-0.366405	-0.794933	1.079801
C120	C	0.133595	-0.294933	1.579801
N121	N	-0.326804	-0.826840	1.115839
N122	N	0.173196	-0.326840	1.615839
C123	C	-0.552346	-0.463165	0.741080
C124	C	-0.052346	0.036835	1.241080
N125	N	-0.598226	-0.501552	0.769985
N126	N	-0.098226	-0.001552	1.269985
C127	C	-0.584438	-0.490020	0.409913
C128	C	-0.084438	0.009980	0.909913
N129	N	-0.630325	-0.528399	0.438821
N130	N	-0.130325	-0.028399	0.938821
C131	C	-0.544267	-1.118468	0.917895
C132	C	-0.044267	-0.618468	1.417895
N133	N	-0.586535	-1.147357	0.879424
N134	N	-0.086535	-0.647357	1.379424
C135	C	-0.329994	-0.972017	1.112906
C136	C	0.170006	-0.472017	1.612906
N137	N	-0.287716	-0.943130	1.151371
N138	N	0.212284	-0.443130	1.651371
H139	H	-0.553472	-0.644180	0.909554
H140	H	-0.053472	-0.144180	1.409554
H141	H	-0.559320	-0.777319	0.904228
H142	H	-0.059320	-0.277319	1.404228
C143	C	-0.336762	-1.126125	1.106733
C144	C	0.163238	-0.626125	1.606733
N145	N	-0.297155	-1.158038	1.142760
N146	N	0.202845	-0.658038	1.642760
H147	H	-0.530145	-0.444600	0.597979
H148	H	-0.030145	0.055400	1.097979
H149	H	-0.523853	-0.975374	0.936503
H150	H	-0.023853	-0.475374	1.436503
H151	H	-0.367677	-0.308699	0.273329
H152	H	0.132323	0.191301	0.773329
H153	H	-0.562235	-0.471456	0.266800
H154	H	-0.062235	0.028544	0.766800
C155	C	-0.359234	-0.301623	0.417459
C156	C	0.140766	0.198377	0.917459
N157	N	-0.316262	-0.265669	0.449343
N158	N	0.183738	0.234331	0.949343
H159	H	-0.335593	-0.281842	0.604495
H160	H	0.164407	0.218158	1.104495
