data_functionalizedCrystal
_audit_creation_method	'MofGen! by Chris Wilmer'
_symmetry_space_group_name_H-M	'P1'
_symmetry_Int_Tables_number	1
_symmetry_cell_setting	triclinic
loop_
_symmetry_equiv_pos_as_xyz
  x,y,z
_cell_length_a	19.288867
_cell_length_b	10.540539
_cell_length_c	18.366186
_cell_angle_alpha	89.995944
_cell_angle_beta	89.992441
_cell_angle_gamma	83.831280
loop_
_atom_site_label
_atom_site_type_symbol
_atom_site_fract_x
_atom_site_fract_y
_atom_site_fract_z
O1	O	0.922408	0.158357	-0.060521
O2	O	1.422408	0.658357	0.439479
O3	O	0.720291	0.179715	-0.060527
O4	O	1.220291	0.679715	0.439473
O5	O	0.825961	-0.015773	-0.060523
O6	O	1.325961	0.484227	0.439477
O7	O	0.816738	0.353845	-0.060525
O8	O	1.316738	0.853845	0.439475
O9	O	0.825943	-0.015783	0.060576
O10	O	1.325943	0.484217	0.560576
O11	O	0.720272	0.179705	0.060572
O12	O	1.220272	0.679705	0.560572
O13	O	0.922390	0.158348	0.060579
O14	O	1.422390	0.658348	0.560579
Zn15	Zn	0.821328	0.169025	0.079802
Zn16	Zn	1.321328	0.669025	0.579802
Zn17	Zn	0.821352	0.169037	-0.079751
Zn18	Zn	1.321352	0.669037	0.420249
O19	O	0.816720	0.353836	0.060574
O20	O	1.316720	0.853836	0.560574
C21	C	0.694400	0.179022	0.000021
C22	C	1.194400	0.679022	0.500021
C23	C	0.617283	0.176958	0.000019
C24	C	1.117283	0.676958	0.500019
C25	C	0.825260	-0.063066	0.000025
C26	C	1.325260	0.436934	0.500025
C27	C	0.823191	-0.203968	0.000021
C28	C	1.323191	0.296032	0.500021
C29	C	0.061628	0.162095	-0.065984
C30	C	0.561628	0.662095	0.434016
C31	C	0.134089	0.164027	-0.065987
C32	C	0.634089	0.664027	0.434013
C33	C	0.170314	0.164994	0.000024
C34	C	0.670314	0.664994	0.500024
C35	C	0.134075	0.163995	0.066043
C36	C	0.634075	0.663995	0.566043
C37	C	0.061617	0.162051	0.066044
C38	C	0.561617	0.662051	0.566044
C39	C	0.280150	0.242414	0.050597
C40	C	0.780150	0.742414	0.550597
C41	C	0.352607	0.244366	0.050593
C42	C	0.852607	0.744366	0.550593
C43	C	0.393800	0.170986	0.000025
C44	C	0.893800	0.670986	0.500025
C45	C	0.362526	0.095669	-0.050553
C46	C	0.862526	0.595669	0.449447
C47	C	0.290068	0.093725	-0.050552
C48	C	0.790068	0.593725	0.449448
C49	C	0.248883	0.167101	0.000031
C50	C	0.748883	0.667101	0.500031
C51	C	0.508601	0.174070	-0.065993
C52	C	1.008601	0.674070	0.434007
C53	C	0.581063	0.175994	-0.065993
C54	C	1.081063	0.675994	0.434007
C55	C	0.581047	0.175975	0.066039
C56	C	1.081047	0.675975	0.566039
C57	C	0.508587	0.174038	0.066037
C58	C	1.008587	0.674038	0.566037
C59	C	0.472367	0.173092	0.000019
C60	C	0.972367	0.673092	0.500019
C61	C	0.743902	-0.385628	-0.000253
C62	C	1.243902	0.114372	0.499747
C63	C	0.745999	-0.239057	0.000020
C64	C	1.245999	0.260943	0.500020
C65	C	0.860328	-0.266458	0.069176
C66	C	1.360328	0.233542	0.569176
C67	C	0.857694	-0.412944	0.069234
C68	C	1.357694	0.087056	0.569234
C69	C	0.859284	-0.413486	-0.068478
C70	C	1.359284	0.086514	0.431522
C71	C	0.859996	-0.266520	-0.069392
C72	C	1.359996	0.233480	0.430608
C73	C	0.948280	0.159040	0.000028
C74	C	1.448280	0.659040	0.500028
C75	C	1.025398	0.161104	0.000026
C76	C	1.525398	0.661104	0.500026
C77	C	0.817421	0.401128	0.000024
C78	C	1.317421	0.901128	0.500024
C79	C	0.819490	0.542030	0.000023
C80	C	1.319490	1.042030	0.500023
N81	N	0.821317	0.169016	0.188694
N82	N	1.321317	0.669016	0.688694
N83	N	0.821369	0.169037	-0.188642
N84	N	1.321369	0.669037	0.311358
C85	C	0.868124	0.082496	0.226796
C86	C	1.368124	0.582496	0.726796
C87	C	0.868128	0.082490	0.303024
C88	C	1.368128	0.582490	0.803024
C89	C	0.821333	0.169026	0.341146
C90	C	1.321333	0.669026	0.841146
C91	C	0.774517	0.255552	0.303035
C92	C	1.274517	0.755552	0.803035
C93	C	0.774510	0.255547	0.226808
C94	C	1.274510	0.755547	0.726808
C95	C	0.812806	0.284680	0.461906
C96	C	1.312806	0.784680	0.961906
C97	C	0.812819	0.284687	0.538131
C98	C	1.312819	0.784687	1.038131
C99	C	0.821352	0.169042	0.576254
C100	C	1.321352	0.669042	1.076254
C101	C	0.829888	0.053384	0.538143
C102	C	1.329888	0.553384	1.038143
C103	C	0.829881	0.053379	0.461916
C104	C	1.329881	0.553379	0.961916
C105	C	0.821335	0.169041	0.423801
C106	C	1.321335	0.669041	0.923801
C107	C	0.868166	0.082509	0.697011
C108	C	1.368166	0.582509	1.197011
C109	C	0.868166	0.082501	0.773240
C110	C	1.368166	0.582501	1.273240
C111	C	0.774558	0.255575	0.773250
C112	C	1.274558	0.755575	1.273250
C113	C	0.774556	0.255571	0.697022
C114	C	1.274556	0.755571	1.197022
C115	C	0.821363	0.169039	0.658907
C116	C	1.321363	0.669039	1.158907
H117	H	0.032144	0.161319	-0.119741
H118	H	0.532144	0.661319	0.380259
Br119	Br	0.630236	0.177319	-0.155586
Br120	Br	1.130236	0.677319	0.344414
Br121	Br	0.459442	0.172779	-0.155586
Br122	Br	0.959442	0.672779	0.344414
H123	H	0.378062	0.305725	0.091761
H124	H	0.878062	0.805725	0.591761
H125	H	0.805845	0.378859	0.430872
H126	H	1.305845	0.878859	0.930872
Br127	Br	0.817651	-0.465122	-0.155841
Br128	Br	1.317651	0.034878	0.344159
Br129	Br	0.841458	-0.103575	0.410196
Br130	Br	1.341458	0.396425	0.910196
H131	H	0.610541	0.176758	0.119786
H132	H	1.110541	0.676758	0.619786
Br133	Br	0.710981	0.372974	0.175093
Br134	Br	1.210981	0.872974	0.675093
Br135	Br	0.459411	0.172712	0.155627
Br136	Br	0.959411	0.672712	0.655627
Br137	Br	0.815093	-0.196589	-0.154676
Br138	Br	1.315093	0.303411	0.345324
H139	H	0.396064	0.035920	-0.091733
H140	H	0.896064	0.535920	0.408267
H141	H	0.246617	0.302163	0.091784
H142	H	0.746617	0.802163	0.591784
Br143	Br	0.711042	0.373004	0.824981
Br144	Br	1.211042	0.873004	1.324981
Br145	Br	0.183236	0.165297	0.155630
Br146	Br	0.683236	0.665297	0.655630
H147	H	0.713417	-0.413545	-0.049845
H148	H	1.213417	0.086455	0.450155
H149	H	0.163593	0.164841	-0.119742
H150	H	0.663593	0.664841	0.380258
Br151	Br	0.012443	0.160709	0.155636
Br152	Br	0.512443	0.660709	0.655636
H153	H	0.836837	-0.040785	0.569181
H154	H	1.336837	0.459215	1.069181
H155	H	0.906278	0.012046	0.665977
H156	H	1.406278	0.512046	1.165977
H157	H	0.736415	0.326009	0.334078
H158	H	1.236415	0.826009	0.834078
Br159	Br	0.953798	-0.228231	-0.076357
Br160	Br	1.453798	0.271769	0.423643
H161	H	0.906235	0.012034	0.195765
H162	H	1.406235	0.512034	0.695765
Br163	Br	0.697294	-0.166950	-0.082606
Br164	Br	1.197294	0.333050	0.417394
H165	H	0.915039	-0.461954	-0.068941
H166	H	1.415039	0.038046	0.431059
Br167	Br	0.693124	-0.435458	0.081686
Br168	Br	1.193124	0.064542	0.581686
H169	H	0.716557	-0.196649	0.049673
H170	H	1.216557	0.303351	0.549673
Br171	Br	0.954812	-0.231313	0.073469
Br172	Br	1.454812	0.268687	0.573469
H173	H	0.264609	0.032397	-0.091733
H174	H	0.764609	0.532397	0.408267
H175	H	0.906245	0.012033	0.334052
H176	H	1.406245	0.512033	0.834052
H177	H	0.906279	0.012040	0.804264
H178	H	1.406279	0.512040	1.304264
Br179	Br	0.811920	-0.458940	0.155391
Br180	Br	1.311920	0.041060	0.655391
H181	H	0.913208	-0.462149	0.072373
H182	H	1.413208	0.037851	0.572373
H183	H	0.834516	-0.223288	0.120637
H184	H	1.334516	0.276712	0.620637
H185	H	0.736444	0.326029	0.665997
H186	H	1.236444	0.826029	1.165997
Br187	Br	0.801242	0.441648	0.589845
Br188	Br	1.301242	0.941648	1.089845
