data_functionalizedCrystal
_audit_creation_method	'MofGen! by Chris Wilmer'
_symmetry_space_group_name_H-M	'P1'
_symmetry_Int_Tables_number	1
_symmetry_cell_setting	triclinic
loop_
_symmetry_equiv_pos_as_xyz
  x,y,z
_cell_length_a	6.817900
_cell_length_b	10.773890
_cell_length_c	16.015572
_cell_angle_alpha	78.657260
_cell_angle_beta	104.485554
_cell_angle_gamma	96.645716
loop_
_atom_site_label
_atom_site_type_symbol
_atom_site_fract_x
_atom_site_fract_y
_atom_site_fract_z
V1	V	-3.981582	-0.050502	-0.268981
O2	O	-4.005349	0.128722	-0.265315
O3	O	-3.899367	-0.221603	-0.265743
O4	O	-3.929007	0.005691	-0.386931
O5	O	-3.975504	-0.100146	-0.143288
V6	V	-4.470132	-0.035613	-0.254117
O7	O	-4.231812	-0.083163	-0.301587
O8	O	-4.670099	-0.002952	-0.221512
O9	O	-4.329140	0.135488	-0.257355
O10	O	-4.563762	-0.214837	-0.257784
O11	O	-4.593607	0.014031	-0.379810
O12	O	-4.299500	-0.091806	-0.136167
C13	C	-3.736277	-0.265046	-0.261139
C14	C	-3.750315	-0.404566	-0.259278
C15	C	-3.774085	0.024892	-0.415725
C16	C	-3.812159	0.069704	-0.512140
C17	C	-3.928276	-0.470961	-0.262512
C18	C	-3.942790	-0.615163	-0.260589
C19	C	-4.022186	-0.328045	-0.886530
C20	C	-4.057975	-0.285897	-0.977123
C21	C	-4.024082	-0.067837	-0.954194
C22	C	-3.988280	-0.109967	-0.863597
C23	C	-3.987337	-0.240072	-0.829772
C24	C	-3.953431	-0.021994	-0.806840
C25	C	-3.917642	-0.064121	-0.716251
C26	C	-3.916702	-0.194221	-0.682419
C27	C	-3.951549	-0.282200	-0.739184
C28	C	-3.954389	0.108111	-0.840666
C29	C	-3.919540	0.196085	-0.783909
C30	C	-3.883736	0.153958	-0.693318
C31	C	-3.882796	0.023858	-0.659487
C32	C	-3.848890	0.241937	-0.636554
C33	C	-3.813101	0.199809	-0.545965
C34	C	-3.847007	-0.018270	-0.568898
C35	C	-4.155572	0.178923	-0.261956
C36	C	-4.120770	0.318445	-0.263823
C37	C	-4.117764	-0.111013	-0.107369
C38	C	-4.058930	-0.155819	-0.010952
H39	H	-3.801165	-0.665070	-0.256401
H40	H	-4.086342	-0.357546	-1.023333
C41	C	-3.845946	-0.161383	-0.531680
H42	H	-3.819626	-0.173866	-0.469599
H43	H	-3.974363	-0.202009	-0.554023
H44	H	-3.743153	-0.196556	-0.548445
H45	H	-4.021391	-0.433990	-0.858988
H46	H	-3.849683	0.347869	-0.664109
C47	C	-4.312102	-0.614147	-0.269484
H48	H	-4.277250	-0.526072	-0.270027
H49	H	-4.409997	-0.625763	-0.321668
H50	H	-4.367075	-0.649011	-0.220233
C51	C	-3.993773	0.154458	-0.940312
H52	H	-3.989377	0.244540	-0.952329
H53	H	-3.892538	0.126444	-0.962260
H54	H	-4.123741	0.120995	-0.967821
H55	H	-3.950754	-0.388144	-0.711642
C56	C	-3.920569	0.339192	-0.821122
H57	H	-3.946860	0.351684	-0.883202
H58	H	-4.023324	0.374382	-0.804351
H59	H	-3.792119	0.379795	-0.798777
C60	C	-3.558996	-0.471984	-0.253608
H61	H	-3.593846	-0.560062	-0.253051
H62	H	-3.503993	-0.437126	-0.302846
H63	H	-3.461119	-0.460371	-0.201413
C64	C	-3.774758	0.296575	-0.483529
H65	H	-3.780424	0.380095	-0.516647
H66	H	-3.875686	0.281958	-0.450500
H67	H	-3.644481	0.287385	-0.444927
H68	H	-3.887566	-0.228519	-0.608656
C69	C	-4.119592	-0.403545	-0.268174
H70	H	-4.084736	-0.315470	-0.268718
H71	H	-4.217486	-0.415160	-0.320358
H72	H	-4.174568	-0.438406	-0.218924
H73	H	-4.024862	0.038096	-0.981747
