data_functionalizedCrystal
_audit_creation_method	'MofGen! by Chris Wilmer'
_symmetry_space_group_name_H-M	'P1'
_symmetry_Int_Tables_number	1
_symmetry_cell_setting	triclinic
loop_
_symmetry_equiv_pos_as_xyz
  x,y,z
_cell_length_a	15.944493
_cell_length_b	19.188925
_cell_length_c	14.421503
_cell_angle_alpha	90.004633
_cell_angle_beta	89.992936
_cell_angle_gamma	83.308796
loop_
_atom_site_label
_atom_site_type_symbol
_atom_site_fract_x
_atom_site_fract_y
_atom_site_fract_z
O1	O	1.114221	0.089846	-0.077099
O2	O	1.614221	0.589846	0.422901
O3	O	0.869623	0.100990	-0.077103
O4	O	1.369623	0.600990	0.422897
O5	O	0.998983	-0.006221	-0.077095
O6	O	1.498983	0.493779	0.422905
O7	O	0.984861	0.197057	-0.077106
O8	O	1.484861	0.697057	0.422894
O9	O	0.998962	-0.006205	0.077128
O10	O	1.498962	0.493795	0.577128
O11	O	0.869602	0.101006	0.077120
O12	O	1.369602	0.601006	0.577120
O13	O	1.114200	0.089862	0.077125
O14	O	1.614200	0.589862	0.577125
Cu15	Cu	0.991899	0.095435	0.091204
Cu16	Cu	1.491899	0.595435	0.591204
Cu17	Cu	0.991924	0.095416	-0.091183
Cu18	Cu	1.491924	0.595416	0.408817
O19	O	0.984840	0.197073	0.077117
O20	O	1.484840	0.697073	0.577117
C21	C	0.838319	0.100543	0.000008
C22	C	1.338319	0.600543	0.500008
C23	C	0.745076	0.099177	0.000006
C24	C	1.245076	0.599177	0.500006
C25	C	0.509078	0.162284	0.000002
C26	C	1.009078	0.662284	0.500002
C27	C	0.458638	0.128261	0.076049
C28	C	0.958638	0.628261	0.576049
C29	C	0.574364	0.096647	0.000008
C30	C	1.074364	0.596647	0.500008
C31	C	0.458663	0.128229	-0.076004
C32	C	0.958663	0.628229	0.423996
C33	C	0.409464	0.094207	0.000006
C34	C	0.909464	0.594207	0.500006
C35	C	0.525152	0.062641	0.076117
C36	C	1.025152	0.562641	0.576117
C37	C	0.525181	0.062619	-0.076003
C38	C	1.025181	0.562619	0.423997
C39	C	0.474773	0.028548	0.000061
C40	C	0.974773	0.528548	0.500061
C41	C	0.669359	0.098054	0.000010
C42	C	1.169359	0.598054	0.500010
C43	C	0.314472	0.092795	0.000011
C44	C	0.814472	0.592795	0.500011
C45	C	0.998516	-0.032225	0.000016
C46	C	1.498516	0.467775	0.500016
C47	C	0.997145	-0.109733	0.000014
C48	C	1.497145	0.390267	0.500014
C49	C	1.063873	-0.671342	-0.000009
C50	C	1.563873	-0.171342	0.499991
C51	C	1.065168	-0.598516	-0.000000
C52	C	1.565168	-0.098516	0.500000
C53	C	0.989263	-0.553765	-0.000002
C54	C	1.489263	-0.053765	0.499998
C55	C	0.912058	-0.581845	0.000012
C56	C	1.412058	-0.081845	0.500012
C57	C	0.910765	-0.654670	0.000013
C58	C	1.410765	-0.154670	0.500013
N59	N	0.934319	-0.433222	-0.052496
N60	N	1.434319	0.066778	0.447504
N61	N	0.935552	-0.364042	-0.052499
N62	N	1.435552	0.135958	0.447501
C63	C	0.993154	-0.334346	-0.000002
C64	C	1.493154	0.165654	0.499998
N65	N	1.049489	-0.376446	0.052486
N66	N	1.549489	0.123554	0.552486
N67	N	1.048258	-0.445633	0.052484
N68	N	1.548258	0.054367	0.552484
C69	C	0.990657	-0.474797	-0.000002
C70	C	1.490657	0.025203	0.499998
C71	C	1.071759	-0.227308	-0.000000
C72	C	1.571759	0.272692	0.500000
C73	C	1.073051	-0.154480	0.000014
C74	C	1.573051	0.345520	0.500014
C75	C	0.919939	-0.137810	0.000017
C76	C	1.419939	0.362190	0.500017
C77	C	0.918649	-0.210637	0.000012
C78	C	1.418649	0.289363	0.500012
C79	C	0.994561	-0.255381	-0.000001
C80	C	1.494561	0.244619	0.499999
C81	C	1.145504	0.090309	0.000012
C82	C	1.645504	0.590309	0.500012
C83	C	1.238747	0.091675	0.000007
C84	C	1.738747	0.591675	0.500007
C85	C	0.985307	0.223077	0.000004
C86	C	1.485307	0.723077	0.500004
C87	C	0.986678	0.300585	-0.000000
C88	C	1.486678	0.800585	0.500000
N89	N	0.991887	0.095448	0.219486
N90	N	1.491887	0.595448	0.719486
N91	N	0.991943	0.095398	-0.219464
N92	N	1.491943	0.595398	0.280536
C93	C	0.932061	0.145000	0.469136
C94	C	1.432061	0.645000	0.969136
C95	C	1.007912	0.158542	0.530939
C96	C	1.507912	0.658542	1.030939
C97	C	0.991908	0.095431	0.408647
C98	C	1.491908	0.595431	0.908647
C99	C	0.916076	0.081906	0.530938
C100	C	1.416076	0.581906	1.030938
C101	C	0.991921	0.095417	0.591369
C102	C	1.491921	0.595417	1.091369
C103	C	1.067797	0.109005	0.469090
C104	C	1.567797	0.609005	0.969090
C105	C	0.975911	0.032341	0.469083
C106	C	1.475911	0.532341	0.969083
C107	C	1.051817	0.045856	0.530858
C108	C	1.551817	0.545856	1.030858
C109	C	0.991899	0.095442	0.303386
C110	C	1.491899	0.595442	0.803386
C111	C	0.991938	0.095406	0.696627
C112	C	1.491938	0.595406	1.196627
H113	H	0.429629	0.155956	-0.140286
H114	H	0.929629	0.655956	0.359714
C115	C	1.144184	0.185615	0.378611
C116	C	1.644184	0.685615	0.878611
C117	C	1.154390	0.124574	0.432611
C118	C	1.654390	0.624574	0.932611
H119	H	1.197640	0.195243	0.356104
H120	H	1.697640	0.695243	0.856104
H121	H	1.108038	0.179141	0.327760
H122	H	1.608038	0.679141	0.827760
H123	H	1.119963	0.223862	0.415355
H124	H	1.619963	0.723862	0.915355
H125	H	1.178605	0.086326	0.395865
H126	H	1.678605	0.586326	0.895865
H127	H	1.190549	0.131044	0.483469
H128	H	1.690549	0.631044	0.983469
H129	H	0.554075	0.034945	0.140472
H130	H	1.054075	0.534945	0.640472
C131	C	0.529410	-0.093459	0.000923
C132	C	1.029410	0.406541	0.500923
C133	C	0.454181	-0.047835	0.000129
C134	C	0.954181	0.452165	0.500129
H135	H	0.516696	-0.140614	0.000976
H136	H	1.016696	0.359386	0.500976
H137	H	0.561674	-0.085501	-0.052608
H138	H	1.061674	0.414499	0.447392
H139	H	0.560874	-0.085211	0.054951
H140	H	1.060874	0.414789	0.554951
H141	H	0.422720	-0.056080	-0.053903
H142	H	0.922720	0.443920	0.446097
H143	H	0.421904	-0.055797	0.053665
H144	H	0.921904	0.444203	0.553665
C145	C	0.805454	0.169951	0.379116
C146	C	1.305454	0.669951	0.879116
C147	C	0.863808	0.201629	0.432538
C148	C	1.363808	0.701629	0.932538
H149	H	0.763319	0.204913	0.356527
H150	H	1.263319	0.704913	0.856527
H151	H	0.833673	0.145986	0.328323
H152	H	1.333673	0.645986	0.828323
H153	H	0.779783	0.137480	0.416276
H154	H	1.279783	0.637480	0.916276
H155	H	0.889484	0.234097	0.395377
H156	H	1.389484	0.734097	0.895377
H157	H	0.835585	0.225606	0.483339
H158	H	1.335585	0.725606	0.983339
H159	H	1.102489	0.003929	0.557789
H160	H	1.602489	0.503929	1.057789
C161	C	1.163328	-0.082255	-0.079272
C162	C	1.663328	0.417745	0.420728
C163	C	1.157910	-0.123619	0.000005
C164	C	1.657910	0.376381	0.500005
H165	H	1.215715	-0.063200	-0.079273
H166	H	1.715715	0.436800	0.420727
H167	H	1.159645	-0.110321	-0.133044
H168	H	1.659645	0.389679	0.366956
H169	H	1.118302	-0.045184	-0.079253
H170	H	1.618302	0.454816	0.420747
H171	H	1.202932	-0.160693	-0.000018
H172	H	1.702932	0.339307	0.499982
H173	H	1.161601	-0.095552	0.053791
H174	H	1.661601	0.404448	0.553791
C175	C	1.215345	-0.680499	-0.000006
C176	C	1.715345	-0.180499	0.499994
C177	C	1.147314	-0.720525	-0.000006
C178	C	1.647314	-0.220525	0.499994
H179	H	1.266858	-0.710865	0.000004
H180	H	1.766858	-0.210865	0.500004
H181	H	1.212672	-0.651757	-0.053787
H182	H	1.712672	-0.151757	0.446213
H183	H	1.212650	-0.651739	0.053776
H184	H	1.712650	-0.151739	0.553776
H185	H	1.150006	-0.749282	-0.053792
H186	H	1.650006	-0.249282	0.446208
H187	H	1.149989	-0.749279	0.053780
H188	H	1.649989	-0.249279	0.553780
C189	C	1.100025	0.222384	0.621030
C190	C	1.600025	0.722384	1.121030
C191	C	1.026192	0.230555	0.567633
C192	C	1.526192	0.730555	1.067633
H193	H	1.111306	0.266844	0.643677
H194	H	1.611306	0.766844	1.143677
H195	H	1.092883	0.192088	0.671783
H196	H	1.592883	0.692088	1.171783
H197	H	1.145962	0.202690	0.583834
H198	H	1.645962	0.702690	1.083834
H199	H	0.980254	0.250245	0.604831
H200	H	1.480254	0.750245	1.104831
H201	H	1.033329	0.260863	0.516873
H202	H	1.533329	0.760863	1.016873
C203	C	1.155431	-0.526285	-0.079300
C204	C	1.655431	-0.026285	0.420700
C205	C	1.150023	-0.567643	-0.000017
C206	C	1.650023	-0.067643	0.499983
H207	H	1.207815	-0.507223	-0.079307
H208	H	1.707815	-0.007223	0.420693
H209	H	1.151751	-0.554355	-0.133068
H210	H	1.651751	-0.054355	0.366932
H211	H	1.110400	-0.489218	-0.079284
H212	H	1.610400	0.010782	0.420716
H213	H	1.195051	-0.604713	-0.000037
H214	H	1.695051	-0.104713	0.499963
H215	H	1.153712	-0.539571	0.053765
H216	H	1.653712	-0.039571	0.553765
H217	H	0.850256	-0.545404	0.000013
H218	H	1.350256	-0.045404	0.500013
C219	C	0.878107	-0.053702	0.463528
C220	C	1.378107	0.446298	0.963528
C221	C	0.957599	-0.039651	0.432363
C222	C	1.457599	0.460349	0.932363
H223	H	0.866794	-0.098145	0.440851
H224	H	1.366794	0.401855	0.940851
H225	H	0.877467	-0.054105	0.529383
H226	H	1.377467	0.445895	1.029383
H227	H	0.836147	-0.018389	0.441470
H228	H	1.336147	0.481611	0.941470
H229	H	0.999560	-0.074962	0.454426
H230	H	1.499560	0.425038	0.954426
H231	H	0.958246	-0.039254	0.366495
H232	H	1.458246	0.460746	0.866495
C233	C	0.496133	0.272828	0.079828
C234	C	0.996133	0.772828	0.579828
C235	C	0.529901	0.238604	0.000096
C236	C	1.029901	0.738604	0.500096
H237	H	0.508995	0.319942	0.079890
H238	H	1.008995	0.819942	0.579890
H239	H	0.436616	0.272471	0.080375
H240	H	0.936616	0.772471	0.580375
H241	H	0.519898	0.249287	0.133292
H242	H	1.019898	0.749287	0.633292
H243	H	0.506131	0.262143	-0.053369
H244	H	1.006131	0.762143	0.446631
H245	H	0.589430	0.238965	-0.000460
H246	H	1.089430	0.738965	0.499540
H247	H	0.554240	0.034914	-0.140294
H248	H	1.054240	0.534914	0.359706
H249	H	0.847902	-0.677525	0.000022
H250	H	1.347902	-0.177525	0.500022
C251	C	0.830661	0.065999	0.664695
C252	C	1.330661	0.565999	1.164695
C253	C	0.829498	0.066466	0.567611
C254	C	1.329498	0.566466	1.067611
H255	H	0.777207	0.056475	0.687330
H256	H	1.277207	0.556475	1.187330
H257	H	0.873109	0.030735	0.685821
H258	H	1.373109	0.530735	1.185821
H259	H	0.842441	0.110476	0.686773
H260	H	1.342441	0.610476	1.186773
H261	H	0.817723	0.021987	0.545532
H262	H	1.317723	0.521987	1.045532
H263	H	0.787036	0.101732	0.546476
H264	H	1.287036	0.601732	1.046476
C265	C	0.331946	0.163432	0.162307
C266	C	0.831946	0.663432	0.662307
C267	C	0.419405	0.165691	0.162825
C268	C	0.919405	0.665691	0.662825
H269	H	0.307728	0.186541	0.215878
H270	H	0.807728	0.686541	0.715878
H271	H	0.308308	0.186271	0.108310
H272	H	0.808308	0.686271	0.608310
H273	H	0.320488	0.115947	0.162397
H274	H	0.820488	0.615947	0.662397
H275	H	0.430863	0.213176	0.162728
H276	H	0.930863	0.713176	0.662728
H277	H	0.443051	0.142853	0.216837
H278	H	0.943051	0.642853	0.716837
H279	H	1.133571	-0.263741	-0.000010
H280	H	1.633571	0.236259	0.499990
H281	H	0.855789	-0.233493	0.000012
H282	H	1.355789	0.266507	0.500012
C283	C	0.853936	-0.018776	0.000007
C284	C	1.353936	0.481224	0.500007
C285	C	0.836502	-0.088627	0.000011
C286	C	1.336502	0.411373	0.500011
H287	H	0.802423	0.011588	-0.000000
H288	H	1.302423	0.511588	0.500000
H289	H	0.885588	-0.010266	0.053786
H290	H	1.385588	0.489734	0.553786
H291	H	0.885611	-0.010278	-0.053777
H292	H	1.385611	0.489722	0.446223
H293	H	0.804832	-0.097127	0.053798
H294	H	1.304832	0.402873	0.553798
H295	H	0.804836	-0.097141	-0.053774
H296	H	1.304836	0.402859	0.446226
