data_functionalizedCrystal
_audit_creation_method	'MofGen! by Chris Wilmer'
_symmetry_space_group_name_H-M	'P1'
_symmetry_Int_Tables_number	1
_symmetry_cell_setting	triclinic
loop_
_symmetry_equiv_pos_as_xyz
  x,y,z
_cell_length_a	17.640112
_cell_length_b	12.645330
_cell_length_c	12.645324
_cell_angle_alpha	89.968234
_cell_angle_beta	101.174612
_cell_angle_gamma	101.241872
loop_
_atom_site_label
_atom_site_type_symbol
_atom_site_fract_x
_atom_site_fract_y
_atom_site_fract_z
Zn1	Zn	1.208349	-0.094024	-0.272303
Zn2	Zn	1.708349	0.405976	0.227697
Zn3	Zn	1.208260	-0.271357	-0.095067
Zn4	Zn	1.708260	0.228643	0.404933
Zn5	Zn	1.076172	-0.129956	-0.130832
Zn6	Zn	1.576172	0.370044	0.369168
Zn7	Zn	1.076159	-0.307121	-0.308047
Zn8	Zn	1.576159	0.192879	0.191953
O9	O	1.142235	-0.200615	-0.201562
O10	O	1.642235	0.299385	0.298438
O11	O	1.318939	-0.087543	-0.218865
O12	O	1.818939	0.412457	0.281135
O13	O	1.190707	-0.252671	0.048527
O14	O	1.690707	0.247329	0.548527
O15	O	1.093748	0.023169	-0.149608
O16	O	1.593748	0.523169	0.350392
O17	O	1.318873	-0.217829	-0.088651
O18	O	1.818873	0.282171	0.411349
O19	O	1.190858	0.049568	-0.253545
O20	O	1.690858	0.549568	0.246455
O21	O	1.093662	-0.148784	0.022251
O22	O	1.593662	0.351216	0.522251
O23	O	0.965569	-0.183462	-0.184267
O24	O	1.465569	0.316538	0.315733
O25	O	1.093726	-0.278783	-0.451644
O26	O	1.593726	0.221217	0.048356
O27	O	0.965560	-0.313625	-0.314466
O28	O	1.465560	0.186375	0.185534
O29	O	1.190846	-0.122221	-0.425383
O30	O	1.690846	0.377779	0.074617
O31	O	1.190694	-0.424460	-0.123310
O32	O	1.690694	0.075540	0.376690
O33	O	1.093640	-0.450736	-0.279786
O34	O	1.593640	0.049264	0.220214
C35	C	0.936887	-0.256324	-0.257127
C36	C	1.436887	0.243676	0.242873
C37	C	0.849038	-0.280182	-0.280923
C38	C	1.349038	0.219818	0.219077
C39	C	0.560029	-0.019348	-0.020796
C40	C	1.060029	0.480652	0.479204
C41	C	0.477481	-0.041788	-0.043170
C42	C	0.977481	0.458212	0.456830
C43	C	0.477526	-0.177512	-0.178513
C44	C	0.977526	0.322488	0.321487
C45	C	0.560075	-0.155080	-0.156153
C46	C	1.060075	0.344920	0.343847
C47	C	0.601320	-0.075998	-0.077293
C48	C	1.101320	0.424002	0.422707
C49	C	0.601366	-0.211730	-0.212650
C50	C	1.101366	0.288270	0.287350
C51	C	0.683908	-0.189303	-0.190289
C52	C	1.183908	0.310697	0.309711
C53	C	0.725159	-0.110227	-0.111430
C54	C	1.225159	0.389773	0.388570
C55	C	0.683862	-0.053571	-0.054932
C56	C	1.183862	0.446429	0.445068
C57	C	0.560119	-0.290818	-0.291505
C58	C	1.060119	0.209182	0.208495
C59	C	0.601410	-0.347468	-0.348002
C60	C	1.101410	0.152532	0.151998
C61	C	0.683954	-0.325036	-0.325646
C62	C	1.183954	0.174964	0.174354
C63	C	0.725205	-0.245959	-0.246787
C64	C	1.225205	0.254041	0.253213
C65	C	0.725251	-0.381692	-0.382145
C66	C	1.225251	0.118308	0.117855
C67	C	0.807793	-0.359265	-0.359783
C68	C	1.307793	0.140735	0.140217
C69	C	0.807747	-0.223532	-0.224426
C70	C	1.307747	0.276468	0.275574
C71	C	1.142177	-0.476060	-0.201563
C72	C	1.642177	0.023940	0.298437
C73	C	1.142225	-0.593877	-0.201579
C74	C	1.642225	-0.093877	0.298421
C75	C	1.081420	-0.777947	-0.300202
C76	C	1.581420	-0.277947	0.199798
C77	C	1.081109	-0.655472	-0.300022
C78	C	1.581109	-0.155472	0.199978
C79	C	1.119675	-0.644605	-0.095962
C80	C	1.619675	-0.144605	0.404038
C81	C	1.119304	-0.767304	-0.096562
C82	C	1.619304	-0.267304	0.403438
C83	C	1.225952	-0.738240	-0.207566
C84	C	1.725952	-0.238240	0.292434
C85	C	1.225439	-0.615772	-0.210148
C86	C	1.725439	-0.115772	0.289852
C87	C	1.348385	-0.144688	-0.145781
C88	C	1.848385	0.355312	0.354219
C89	C	1.436234	-0.120856	-0.122011
C90	C	1.936234	0.379144	0.377989
C91	C	1.142294	-0.200483	-0.478052
C92	C	1.642294	0.299517	0.021948
C93	C	1.142320	-0.200427	-0.595875
C94	C	1.642320	0.299573	-0.095875
C95	C	1.142315	0.075912	-0.201579
C96	C	1.642315	0.575912	0.298421
C97	C	1.142348	0.193751	-0.201586
C98	C	1.642348	0.693751	0.298414
C99	C	1.203655	-0.102107	-0.746854
C100	C	1.703655	0.397893	-0.246854
C101	C	1.203459	-0.101866	-0.624347
C102	C	1.703459	0.398134	-0.124347
C103	C	1.059054	-0.192667	-0.662896
C104	C	1.559054	0.307333	-0.162896
C105	C	1.059427	-0.191946	-0.785394
C106	C	1.559427	0.308054	-0.285394
C107	C	1.163574	-0.306811	-0.757319
C108	C	1.663574	0.193189	-0.257319
C109	C	1.165395	-0.305752	-0.634220
C110	C	1.665395	0.194248	-0.134220
C111	C	1.142222	-0.200657	0.073864
C112	C	1.642222	0.299343	0.573864
C113	C	1.142350	-0.200372	0.191728
C114	C	1.642350	0.299628	0.691728
H115	H	0.841331	-0.159120	-0.160226
H116	H	1.341331	0.340880	0.339774
H117	H	1.019828	-0.825565	-0.298162
H118	H	1.519828	-0.325565	0.201838
H119	H	1.271345	-0.754916	-0.135465
H120	H	1.771345	-0.254916	0.364535
H121	H	1.019129	-0.643060	-0.297845
H122	H	1.519129	-0.143060	0.202155
H123	H	0.717446	0.010842	0.009269
H124	H	1.217446	0.510842	0.509269
H125	H	0.691657	-0.446088	-0.446345
H126	H	1.191657	0.053912	0.053655
H127	H	1.058189	-0.812584	-0.088867
H128	H	1.558189	-0.312584	0.411133
H129	H	1.123989	-0.381081	-0.614778
H130	H	1.623989	0.118919	-0.114778
H131	H	0.492908	-0.309075	-0.309709
H132	H	0.992908	0.190925	0.190291
H133	H	1.226671	-0.312014	-0.588559
H134	H	1.726671	0.187986	-0.088559
H135	H	1.265201	-0.104121	-0.577561
H136	H	1.765201	0.395879	-0.077561
H137	H	0.792370	-0.091971	-0.093223
H138	H	1.292370	0.408029	0.406777
H139	H	0.593613	0.045065	0.043404
H140	H	1.093613	0.545065	0.543404
H141	H	0.443865	0.004357	0.002835
H142	H	0.943865	0.504357	0.502835
H143	H	1.273224	-0.572160	-0.141754
H144	H	1.773224	-0.072160	0.358246
H145	H	1.246522	-0.763492	-0.282080
H146	H	1.746522	-0.263492	0.217920
H147	H	1.161756	-0.785447	-0.021795
H148	H	1.661756	-0.285447	0.478205
H149	H	0.567817	-0.411860	-0.412207
H150	H	1.067817	0.088140	0.087793
H151	H	1.041436	-0.114812	-0.818874
H152	H	1.541436	0.385188	-0.318874
H153	H	1.242445	-0.581997	-0.287766
H154	H	1.742445	-0.081997	0.212234
H155	H	1.118925	-0.379749	-0.798399
H156	H	1.618925	0.120251	-0.298399
H157	H	0.841413	-0.405394	-0.405790
H158	H	1.341413	0.094606	0.094210
H159	H	1.223230	-0.318258	-0.772153
H160	H	1.723230	0.181742	-0.272153
H161	H	1.265603	-0.104068	-0.759575
H162	H	1.765603	0.395932	-0.259575
H163	H	0.443933	-0.241904	-0.242717
H164	H	0.943933	0.258096	0.257283
H165	H	1.095218	-0.621479	-0.379044
H166	H	1.595218	-0.121479	0.120956
H167	H	1.095400	-0.803555	-0.379530
H168	H	1.595400	-0.303555	0.120470
H169	H	1.162645	-0.603792	-0.021470
H170	H	1.662645	-0.103792	0.478530
H171	H	1.189406	-0.022565	-0.598839
H172	H	1.689406	0.477435	-0.098839
H173	H	1.059197	-0.630409	-0.087657
H174	H	1.559197	-0.130409	0.412343
H175	H	1.189783	-0.023217	-0.781433
H176	H	1.689783	0.476783	-0.281433
H177	H	1.012194	-0.261631	-0.827828
H178	H	1.512194	0.238369	-0.327828
H179	H	1.012133	-0.263027	-0.646432
H180	H	1.512133	0.236973	-0.146432
H181	H	1.040734	-0.116538	-0.637161
H182	H	1.540734	0.383462	-0.137161
