data_functionalizedCrystal
_audit_creation_method	'MofGen! by Chris Wilmer'
_symmetry_space_group_name_H-M	'P1'
_symmetry_Int_Tables_number	1
_symmetry_cell_setting	triclinic
loop_
_symmetry_equiv_pos_as_xyz
  x,y,z
_cell_length_a	8.559649
_cell_length_b	15.995350
_cell_length_c	7.681481
_cell_angle_alpha	84.260013
_cell_angle_beta	94.913240
_cell_angle_gamma	76.635520
loop_
_atom_site_label
_atom_site_type_symbol
_atom_site_fract_x
_atom_site_fract_y
_atom_site_fract_z
O1	O	2.105023	-0.019508	-0.146402
O2	O	1.639818	0.023734	-0.146408
O3	O	1.885137	-0.120592	-0.146403
O4	O	1.859704	0.124818	-0.146407
O5	O	1.915332	-0.138392	0.146455
O6	O	1.670013	0.005934	0.146450
O7	O	2.135218	-0.037308	0.146457
Zn8	Zn	1.907409	-0.018513	0.192951
Zn9	Zn	1.867627	0.004939	-0.192902
O10	O	1.889898	0.107018	0.146452
C11	C	1.595386	0.018111	0.000020
C12	C	1.418005	0.027866	0.000017
C13	C	1.899183	-0.160619	0.000023
C14	C	1.896030	-0.253366	0.000013
C15	C	1.884710	-0.590386	0.000019
C16	C	1.709930	-0.531678	-0.000641
C17	C	1.713151	-0.435230	0.000019
C18	C	1.890325	-0.423187	0.000015
C19	C	1.993741	-0.479970	0.167249
C20	C	1.989366	-0.576332	0.167389
C21	C	1.958639	-0.556680	-0.165646
C22	C	1.958369	-0.459598	-0.167856
C23	C	1.893508	-0.328694	0.000018
C24	C	1.881533	-0.684880	0.000027
C25	C	2.179650	-0.031685	0.000025
C26	C	2.357029	-0.041439	0.000016
C27	C	1.875853	0.147046	0.000022
C28	C	1.879005	0.239793	0.000020
N29	N	1.934572	-0.034520	0.456286
N30	N	1.840477	0.020939	-0.456237
H31	H	1.633053	-0.395166	-0.119861
O32	O	1.467619	-0.129924	0.000018
H33	H	1.457150	-0.172609	0.119378
H34	H	1.334498	0.094668	0.000007
O35	O	1.713231	0.095923	0.444177
H36	H	1.592250	0.091192	0.479504
H37	H	2.030642	-0.091125	0.531494
O38	O	1.601021	-0.540632	-0.159467
H39	H	1.670291	-0.587023	-0.239635
O40	O	1.634121	-0.561293	0.157338
H41	H	1.720385	-0.617643	0.236327
O42	O	1.639261	-0.402173	0.159101
H43	H	1.601098	-0.455095	0.235869
H44	H	1.939418	-0.598191	0.292403
O45	O	2.128137	-0.449446	-0.181244
H46	H	2.211114	-0.514156	-0.179605
O47	O	2.160303	-0.630597	0.177479
H48	H	2.245724	-0.587961	0.182250
H49	H	2.087336	-0.596656	-0.166773
O50	O	2.167008	-0.472845	0.175520
H51	H	2.181283	-0.428648	0.060249
O52	O	1.931477	-0.447305	0.332116
H53	H	1.826933	-0.390668	0.295370
H54	H	1.888448	-0.565843	-0.292399
H55	H	1.882609	-0.420778	-0.291571
