data_functionalizedCrystal
_audit_creation_method	'MofGen! by Chris Wilmer'
_symmetry_space_group_name_H-M	'P1'
_symmetry_Int_Tables_number	1
_symmetry_cell_setting	triclinic
loop_
_symmetry_equiv_pos_as_xyz
  x,y,z
_cell_length_a	13.635800
_cell_length_b	13.167930
_cell_length_c	11.102300
_cell_angle_alpha	82.075380
_cell_angle_beta	71.394150
_cell_angle_gamma	105.754568
loop_
_atom_site_label
_atom_site_type_symbol
_atom_site_fract_x
_atom_site_fract_y
_atom_site_fract_z
V1	V	-2.053688	-0.148894	0.413815
O2	O	-2.035381	0.007155	0.387869
O3	O	-2.040036	-0.295232	0.428363
O4	O	-2.042111	-0.146603	0.586366
O5	O	-2.033292	-0.142502	0.228772
V6	V	-2.292500	-0.130229	0.389572
O7	O	-2.190788	-0.189838	0.466996
O8	O	-2.380499	-0.089285	0.336391
O9	O	-2.194549	0.016109	0.375024
O10	O	-2.369506	-0.286278	0.415518
O11	O	-2.371595	-0.136621	0.574615
O12	O	-2.192474	-0.132519	0.217021
C13	C	-1.964694	-0.330906	0.426319
C14	C	-1.994258	-0.450539	0.439363
V15	V	-1.553688	-0.148894	0.413815
O16	O	-1.535381	0.007155	0.387869
O17	O	-1.540036	-0.295232	0.428363
O18	O	-1.542111	-0.146603	0.586366
O19	O	-1.533292	-0.142502	0.228772
V20	V	-1.792500	-0.130229	0.389572
O21	O	-1.690788	-0.189838	0.466996
O22	O	-1.880499	-0.089285	0.336391
O23	O	-1.694549	0.016109	0.375024
O24	O	-1.869506	-0.286278	0.415518
O25	O	-1.871595	-0.136621	0.574615
O26	O	-1.692474	-0.132519	0.217021
C27	C	-1.990085	-0.644607	0.227454
C28	C	-2.017863	-0.757012	0.239705
C29	C	-2.077598	-0.787757	0.476113
C30	C	-2.049821	-0.675352	0.463863
C31	C	-2.006063	-0.603780	0.339529
C32	C	-1.978278	-0.491372	0.327280
C33	C	-2.038021	-0.522120	0.563688
C34	C	-2.065798	-0.634525	0.575938
C35	C	-1.967340	-0.141314	0.627866
C36	C	-1.998585	-0.140410	0.769042
C37	C	-2.101563	0.051778	0.377066
C38	C	-2.061618	0.171410	0.364030
C39	C	-2.098916	-0.137812	0.175515
C40	C	-2.057289	-0.138711	0.034337
C41	C	-1.464694	-0.330906	0.426319
C42	C	-1.494258	-0.450539	0.439363
C43	C	-1.467340	-0.141314	0.627866
C44	C	-1.498585	-0.140410	0.769042
C45	C	-2.105195	-0.145360	0.842474
C46	C	-2.134547	-0.144506	0.975122
C47	C	-1.950669	-0.133757	0.960894
C48	C	-1.921317	-0.134603	0.828246
C49	C	-1.601563	0.051778	0.377066
C50	C	-1.561618	0.171410	0.364030
C51	C	-1.598916	-0.137812	0.175515
C52	C	-1.557289	-0.138711	0.034337
C53	C	-1.600083	-0.512207	0.452486
C54	C	-1.627882	-0.624619	0.464762
C55	C	-1.549852	-0.675358	0.463907
C56	C	-1.444019	-0.613682	0.450786
C57	C	-1.416224	-0.501274	0.438519
C58	C	-1.628287	0.233077	0.350910
C59	C	-1.590761	0.345488	0.338640
C60	C	-1.486568	0.396227	0.339499
C61	C	-1.419894	0.334552	0.352616
C62	C	-1.457417	0.222145	0.364876
C63	C	-1.605195	-0.145360	0.842474
C64	C	-1.634547	-0.144506	0.975122
C65	C	-1.450669	-0.133757	0.960894
C66	C	-1.421317	-0.134603	0.828246
H67	H	-1.942642	-0.433099	0.226041
O68	O	-2.238040	-0.149125	1.046452
C69	C	-2.350613	-0.060777	1.176238
C70	C	-2.233348	-0.055397	1.095469
H71	H	-2.346857	0.014981	1.215913
H72	H	-2.400823	-0.065005	1.111171
H73	H	-2.390973	-0.136345	1.261507
H74	H	-2.192892	0.020163	1.010194
H75	H	-2.183217	-0.051229	1.160625
H76	H	-1.713129	0.191780	0.350210
O77	O	-1.392810	0.162107	0.377816
C78	C	-1.373609	0.014307	0.512163
C79	C	-1.446905	0.082190	0.497663
H80	H	-1.417306	-0.050307	0.609066
H81	H	-1.356524	-0.026882	0.427583
H82	H	-1.292688	0.069918	0.510606
H83	H	-1.527870	0.026654	0.499253
H84	H	-1.463899	0.123391	0.582240
O85	O	-1.318649	0.383993	0.353268
C86	C	-1.139476	0.519143	0.235201
C87	C	-1.254094	0.463256	0.234289
H88	H	-1.087243	0.583222	0.139006
H89	H	-1.148004	0.559773	0.320494
H90	H	-1.098301	0.455740	0.246753
H91	H	-1.295332	0.526590	0.222696
H92	H	-1.245492	0.422603	0.149012
H93	H	-1.714060	-0.674820	0.475441
H94	H	-1.645066	0.395689	0.327963
O95	O	-1.675846	-0.462837	0.453480
C96	C	-1.779637	-0.356959	0.560149
C97	C	-1.693794	-0.412787	0.559146
H98	H	-1.794192	-0.316499	0.645587
H99	H	-1.748322	-0.292749	0.464068
H100	H	-1.860014	-0.420374	0.571581
H101	H	-1.613390	-0.349452	0.547764
H102	H	-1.725200	-0.477017	0.655227
O103	O	-1.680109	-0.150844	0.784770
C104	C	-1.726432	-0.064338	0.615024
C105	C	-1.641485	-0.058006	0.680226
H106	H	-1.695246	0.010722	0.530505
H107	H	-1.739312	-0.140615	0.576035
H108	H	-1.807674	-0.067778	0.690338
H109	H	-1.560194	-0.054523	0.604988
H110	H	-1.628699	0.018260	0.719244
O111	O	-1.738179	-0.149514	1.046459
C112	C	-1.931604	-0.252080	1.127434
C113	C	-1.814295	-0.246561	1.046637
H114	H	-1.993178	-0.330525	1.127581
H115	H	-1.939398	-0.250548	1.232451
H116	H	-1.949084	-0.179201	1.082003
H117	H	-1.796738	-0.319425	1.091954
H118	H	-1.806560	-0.248040	0.941625
H119	H	-2.004851	-0.790248	0.148441
H120	H	-1.330049	-0.451071	0.427828
O121	O	-1.317831	-0.129986	0.756850
C122	C	-1.205308	-0.218492	0.627286
C123	C	-1.322556	-0.223825	0.708058
H124	H	-1.209087	-0.294361	0.587838
H125	H	-1.164861	-0.143022	0.541881
H126	H	-1.155164	-0.214172	0.692431
H127	H	-1.372789	-0.228185	0.643021
H128	H	-1.362916	-0.299282	0.793474
O129	O	-1.947641	-0.575231	0.106590
C130	C	-1.891268	-0.556592	-0.126606
C131	C	-1.939364	-0.635280	0.010195
H132	H	-1.884539	-0.605108	-0.204581
H133	H	-1.947358	-0.507431	-0.132959
H134	H	-1.806219	-0.498965	-0.143555
H135	H	-2.024401	-0.692973	0.027234
H136	H	-1.883196	-0.684362	0.016482
O137	O	-1.368242	-0.662955	0.450165
C138	C	-1.247923	-0.702573	0.554221
C139	C	-1.333749	-0.646745	0.555110
H140	H	-1.219993	-0.689467	0.639043
H141	H	-1.285939	-0.793524	0.565315
H142	H	-1.174237	-0.665989	0.457574
H143	H	-1.407460	-0.683239	0.651736
H144	H	-1.295649	-0.555795	0.543945
H145	H	-2.113244	-0.846050	0.577340
O146	O	-1.450189	0.505450	0.327412
C147	C	-1.405543	0.684365	0.193625
C148	C	-1.446770	0.560698	0.207155
H149	H	-1.402744	0.729070	0.096391
H150	H	-1.463637	0.705568	0.277877
H151	H	-1.319644	0.710011	0.196561
H152	H	-1.532652	0.534964	0.204186
H153	H	-1.388602	0.539564	0.122908
H154	H	-1.387765	-0.129032	1.009115
H155	H	-2.101433	-0.692813	0.677167
H156	H	-2.051025	-0.488867	0.654947
H157	H	-2.168113	-0.150086	0.794274
H158	H	-1.572498	-0.766889	0.473896
O159	O	-1.875674	-0.127984	1.018515
C160	C	-1.774771	-0.027100	1.131666
C161	C	-1.859737	-0.033513	1.066480
H162	H	-1.761842	0.049286	1.170439
H163	H	-1.805947	-0.102046	1.216335
H164	H	-1.693556	-0.023759	1.056387
H165	H	-1.940978	-0.036819	1.141661
H166	H	-1.828469	0.041432	0.981787
H167	H	-1.834497	-0.130564	0.768452
