data_functionalizedCrystal
_audit_creation_method	'MofGen! by Chris Wilmer'
_symmetry_space_group_name_H-M	'P1'
_symmetry_Int_Tables_number	1
_symmetry_cell_setting	triclinic
loop_
_symmetry_equiv_pos_as_xyz
  x,y,z
_cell_length_a	14.971486
_cell_length_b	14.853567
_cell_length_c	13.448316
_cell_angle_alpha	89.997194
_cell_angle_beta	89.998199
_cell_angle_gamma	83.624529
loop_
_atom_site_label
_atom_site_type_symbol
_atom_site_fract_x
_atom_site_fract_y
_atom_site_fract_z
O1	O	1.186969	0.117488	-0.082569
O2	O	1.686969	0.617488	0.417431
O3	O	0.926571	0.131557	-0.082595
O4	O	1.426571	0.631557	0.417405
O5	O	1.063725	-0.006709	-0.082584
O6	O	1.563725	0.493291	0.417416
O7	O	1.049814	0.255753	-0.082580
O8	O	1.549814	0.755753	0.417420
O9	O	1.063708	-0.006717	0.082800
O10	O	1.563708	0.493283	0.582800
O11	O	0.926554	0.131549	0.082789
O12	O	1.426554	0.631549	0.582789
O13	O	1.186951	0.117479	0.082815
O14	O	1.686951	0.617479	0.582815
Cu15	Cu	1.056751	0.124513	0.097903
Cu16	Cu	1.556751	0.624513	0.597903
Cu17	Cu	1.056771	0.124523	-0.097683
Cu18	Cu	1.556771	0.624523	0.402317
O19	O	1.049797	0.255745	0.082804
O20	O	1.549797	0.755745	0.582804
C21	C	0.893238	0.130924	0.000093
C22	C	1.393238	0.630924	0.500093
C23	C	0.793940	0.129038	0.000083
C24	C	1.293940	0.629038	0.500083
C25	C	0.736730	0.210265	0.000086
C26	C	1.236730	0.710265	0.500086
C27	C	0.643430	0.208488	0.000101
C28	C	1.143430	0.708488	0.500101
C29	C	0.607342	0.125483	0.000106
C30	C	1.107342	0.625483	0.500106
C31	C	0.664560	0.044249	0.000106
C32	C	1.164560	0.544249	0.500106
C33	C	0.757858	0.046027	0.000098
C34	C	1.257858	0.546027	0.500098
C35	C	0.470097	0.040549	0.000119
C36	C	0.970097	0.540549	0.500119
C37	C	0.376793	0.038771	0.000125
C38	C	0.876793	0.538771	0.500125
C39	C	0.355669	0.203010	0.000122
C40	C	0.855669	0.703010	0.500122
C41	C	0.448967	0.204788	0.000114
C42	C	0.948967	0.704788	0.500114
C43	C	0.506178	0.123554	0.000113
C44	C	1.006178	0.623554	0.500113
C45	C	1.063087	-0.040301	0.000105
C46	C	1.563087	0.459699	0.500105
C47	C	1.061198	-0.140385	0.000096
C48	C	1.561198	0.359615	0.500096
C49	C	0.971740	-0.552902	0.000106
C50	C	1.471740	-0.052902	0.500106
C51	C	1.134683	-0.574213	0.000122
C52	C	1.634683	-0.074213	0.500122
C53	C	1.136459	-0.480180	0.000116
C54	C	1.636459	0.019820	0.500116
C55	C	1.055874	-0.422503	0.000107
C56	C	1.555874	0.077497	0.500107
C57	C	0.973514	-0.458860	0.000103
C58	C	1.473514	0.041140	0.500103
C59	C	1.218818	-0.443816	0.000130
C60	C	1.718818	0.056184	0.500130
C61	C	1.220597	-0.349777	0.000126
C62	C	1.720597	0.150223	0.500126
C63	C	1.140012	-0.292099	0.000109
C64	C	1.640012	0.207901	0.500109
C65	C	1.057648	-0.328461	0.000104
C66	C	1.557648	0.171539	0.500104
C67	C	0.977064	-0.270784	0.000095
C68	C	1.477064	0.229216	0.500095
C69	C	0.894699	-0.307144	0.000083
C70	C	1.394699	0.192856	0.500083
C71	C	0.892928	-0.401181	0.000087
C72	C	1.392928	0.098819	0.500087
C73	C	1.141782	-0.198061	0.000105
C74	C	1.641782	0.301939	0.500105
C75	C	0.978837	-0.176741	0.000092
C76	C	1.478837	0.323259	0.500092
C77	C	1.220285	0.118113	0.000124
C78	C	1.720285	0.618113	0.500124
C79	C	1.319582	0.119998	0.000128
C80	C	1.819582	0.619998	0.500128
C81	C	1.050436	0.289338	0.000113
C82	C	1.550436	0.789338	0.500113
C83	C	1.052325	0.389421	0.000115
C84	C	1.552325	0.889421	0.500115
N85	N	1.056743	0.124505	0.235467
N86	N	1.556743	0.624505	0.735467
N87	N	1.056786	0.124524	-0.235247
N88	N	1.556786	0.624524	0.264753
C89	C	1.117494	0.063307	0.287512
C90	C	1.617494	0.563307	0.787512
C91	C	1.117500	0.063306	0.391615
C92	C	1.617500	0.563306	0.891615
C93	C	1.056758	0.124509	0.443672
C94	C	1.556758	0.624509	0.943672
C95	C	0.996001	0.185711	0.391619
C96	C	1.496001	0.685711	0.891619
C97	C	0.995991	0.185707	0.287518
C98	C	1.495991	0.685707	0.787518
C99	C	0.996025	0.185717	0.608599
C100	C	1.496025	0.685717	1.108599
C101	C	0.996036	0.185723	0.712708
C102	C	1.496036	0.685723	1.212708
C103	C	1.117534	0.063316	0.712697
C104	C	1.617534	0.563316	1.212697
C105	C	1.117525	0.063312	0.608595
C106	C	1.617525	0.563312	1.108595
C107	C	1.056768	0.124515	0.556550
C108	C	1.556768	0.624515	1.056550
H109	H	0.804439	-0.020116	0.000095
H110	H	1.304439	0.479884	0.500095
H111	H	0.516677	-0.025600	0.000120
H112	H	1.016677	0.474400	0.500120
O113	O	0.807787	-0.244927	0.000076
O114	O	1.307787	0.255073	0.500076
H115	H	0.768375	-0.257861	0.067484
H116	H	1.268375	0.242139	0.567484
H117	H	1.167003	0.013483	0.755078
H118	H	1.667003	0.513483	1.255078
O119	O	1.305731	-0.506019	0.000155
O120	O	1.805731	-0.006019	0.500155
H121	H	1.290659	-0.577516	0.000146
H122	H	1.790659	-0.077516	0.500146
H123	H	0.946572	0.235560	0.755087
H124	H	1.446572	0.735560	1.255087
O125	O	0.337872	-0.050757	0.000149
O126	O	0.837872	0.449243	0.500149
H127	H	0.263384	-0.038342	0.000147
H128	H	0.763384	0.461658	0.500147
O129	O	0.882911	-0.592119	0.000100
O130	O	1.382911	-0.092119	0.500100
H131	H	0.844193	-0.568964	-0.067315
H132	H	1.344193	-0.068964	0.432685
H133	H	0.766104	0.277858	0.000081
H134	H	1.266104	0.777858	0.500081
O135	O	0.930455	0.251713	0.231393
O136	O	1.430455	0.751713	0.731393
H137	H	0.886931	0.213677	0.183992
H138	H	1.386931	0.713677	0.683992
H139	H	0.913214	-0.129786	0.000080
H140	H	1.413214	0.370214	0.500080
O141	O	0.804097	-0.440395	0.000095
O142	O	1.304097	0.059605	0.500095
H143	H	0.816404	-0.515475	0.000116
H144	H	1.316404	-0.015475	0.500116
O145	O	0.930486	0.251710	0.552452
O146	O	1.430486	0.751710	1.052452
H147	H	0.968177	0.295583	0.504997
H148	H	1.468177	0.795583	1.004997
H149	H	1.200291	-0.621179	0.000138
H150	H	1.700291	-0.121179	0.500138
O151	O	1.182994	-0.002728	0.231375
O152	O	1.682994	0.497272	0.731375
H153	H	1.172782	0.007547	0.150242
H154	H	1.672782	0.507547	0.650242
O155	O	0.581723	0.296098	0.000108
O156	O	1.081723	0.796098	0.500108
H157	H	0.594553	0.335815	-0.067307
H158	H	1.094553	0.835815	0.432693
O159	O	0.293968	0.290630	0.000139
O160	O	0.793968	0.790630	0.500139
H161	H	0.250943	0.293750	-0.067257
H162	H	0.750943	0.793750	0.432743
O163	O	0.487896	0.294312	0.000122
O164	O	0.987896	0.794312	0.500122
H165	H	0.432441	0.350501	0.000139
H166	H	0.932441	0.850501	0.500139
H167	H	1.208842	-0.168461	0.000122
H168	H	1.708842	0.331539	0.500122
H169	H	0.635171	-0.023335	0.000124
H170	H	1.135171	0.476665	0.500124
H171	H	0.946539	0.235541	0.434009
H172	H	1.446539	0.735541	0.934009
H173	H	1.287664	-0.320181	0.000134
H174	H	1.787664	0.179819	0.500134
O175	O	1.183039	-0.002684	0.447754
O176	O	1.683039	0.497316	0.947754
H177	H	1.225288	-0.045230	0.394067
H178	H	1.725288	0.454770	0.894067
O179	O	1.183033	-0.002700	0.552442
O180	O	1.683033	0.497300	1.052442
H181	H	1.225276	-0.045265	0.606120
H182	H	1.725276	0.454735	1.106120
