data_functionalizedCrystal
_audit_creation_method	'MofGen! by Chris Wilmer'
_symmetry_space_group_name_H-M	'P1'
_symmetry_Int_Tables_number	1
_symmetry_cell_setting	triclinic
loop_
_symmetry_equiv_pos_as_xyz
  x,y,z
_cell_length_a	17.699104
_cell_length_b	14.853559
_cell_length_c	16.176319
_cell_angle_alpha	89.995393
_cell_angle_beta	89.991696
_cell_angle_gamma	83.461486
loop_
_atom_site_label
_atom_site_type_symbol
_atom_site_fract_x
_atom_site_fract_y
_atom_site_fract_z
O1	O	1.004362	0.114098	-0.068759
O2	O	1.504362	0.614098	0.431241
O3	O	0.784024	0.128911	-0.068757
O4	O	1.284024	0.628911	0.431243
O5	O	0.900082	-0.009747	-0.068757
O6	O	1.400082	0.490253	0.431243
O7	O	0.888304	0.252756	-0.068759
O8	O	1.388304	0.752756	0.431241
O9	O	0.900066	-0.009756	0.068736
O10	O	1.400066	0.490244	0.568736
O11	O	0.784008	0.128902	0.068736
O12	O	1.284008	0.628902	0.568736
O13	O	1.004346	0.114089	0.068734
O14	O	1.504346	0.614089	0.568734
Cu15	Cu	0.894175	0.121495	0.081289
Cu16	Cu	1.394175	0.621495	0.581289
Cu17	Cu	0.894194	0.121506	-0.081312
Cu18	Cu	1.394194	0.621506	0.418688
O19	O	0.888288	0.252747	0.068734
O20	O	1.388288	0.752747	0.568734
C21	C	0.755818	0.128373	-0.000010
C22	C	1.255818	0.628373	0.499990
C23	C	0.671796	0.126771	-0.000009
C24	C	1.171796	0.626771	0.499991
C25	C	0.147111	0.199126	-0.000018
C26	C	0.647111	0.699126	0.499982
C27	C	0.226059	0.200626	-0.000021
C28	C	0.726059	0.700626	0.499979
C29	C	0.274467	0.119228	-0.000020
C30	C	0.774467	0.619228	0.499980
C31	C	0.243925	0.036326	-0.000025
C32	C	0.743925	0.536326	0.499975
C33	C	0.164978	0.034827	-0.000029
C34	C	0.664978	0.534827	0.499971
C35	C	0.562306	0.042368	-0.000012
C36	C	1.062306	0.542368	0.499988
C37	C	0.641257	0.043874	-0.000006
C38	C	1.141257	0.543874	0.499994
C39	C	0.623387	0.208167	-0.000004
C40	C	1.123387	0.708167	0.499996
C41	C	0.544440	0.206669	-0.000007
C42	C	1.044440	0.706669	0.499993
C43	C	0.513905	0.123767	-0.000017
C44	C	1.013905	0.623767	0.499983
C45	C	0.428301	0.122141	-0.000016
C46	C	0.928301	0.622141	0.499984
C47	C	0.360070	0.120853	-0.000015
C48	C	0.860070	0.620853	0.499985
C49	C	0.899541	-0.043338	-0.000012
C50	C	1.399541	0.456662	0.499988
C51	C	0.897946	-0.143416	-0.000017
C52	C	1.397946	0.356584	0.499983
C53	C	0.891185	-0.566562	-0.074964
C54	C	1.391185	-0.066562	0.425036
C55	C	0.891167	-0.566567	0.074936
C56	C	1.391167	-0.066567	0.574936
C57	C	0.892673	-0.472539	0.074937
C58	C	1.392673	0.027461	0.574937
C59	C	0.893433	-0.425518	-0.000014
C60	C	1.393433	0.074482	0.499986
C61	C	0.892688	-0.472525	-0.074966
C62	C	1.392688	0.027475	0.425034
C63	C	0.893410	-0.425523	0.149887
C64	C	1.393410	0.074477	0.649887
C65	C	0.894915	-0.331489	0.149891
C66	C	1.394915	0.168511	0.649891
C67	C	0.895681	-0.284468	0.074939
C68	C	1.395681	0.215532	0.574939
C69	C	0.894937	-0.331481	-0.000016
C70	C	1.394937	0.168519	0.499984
C71	C	0.895697	-0.284461	-0.074967
C72	C	1.395697	0.215539	0.425033
C73	C	0.894958	-0.331473	-0.149922
C74	C	1.394958	0.168527	0.350078
C75	C	0.893454	-0.425504	-0.149918
C76	C	1.393454	0.074496	0.350082
C77	C	0.897185	-0.190437	0.074934
C78	C	1.397185	0.309563	0.574934
C79	C	0.897201	-0.190424	-0.074968
C80	C	1.397201	0.309576	0.425032
C81	C	1.032552	0.114628	-0.000015
C82	C	1.532552	0.614628	0.499985
C83	C	1.116573	0.116230	-0.000021
C84	C	1.616573	0.616230	0.499979
C85	C	0.888828	0.286339	-0.000013
C86	C	1.388828	0.786339	0.499987
C87	C	0.890424	0.386417	-0.000013
C88	C	1.390424	0.886417	0.499987
N89	N	0.894168	0.121487	0.195655
N90	N	1.394168	0.621487	0.695655
N91	N	0.894208	0.121506	-0.195677
N92	N	1.394208	0.621506	0.304323
C93	C	0.945574	0.060114	0.238919
C94	C	1.445574	0.560114	0.738919
C95	C	0.945578	0.060114	0.325466
C96	C	1.445578	0.560114	0.825466
C97	C	0.894178	0.121490	0.368747
C98	C	1.394178	0.621490	0.868747
C99	C	0.842767	0.182866	0.325477
C100	C	1.342767	0.682866	0.825477
C101	C	0.842760	0.182862	0.238932
C102	C	1.342760	0.682862	0.738932
C103	C	0.842793	0.182883	0.674505
C104	C	1.342793	0.682883	1.174505
C105	C	0.842805	0.182884	0.761057
C106	C	1.342805	0.682884	1.261057
C107	C	0.945610	0.060134	0.761039
C108	C	1.445610	0.560134	1.261039
C109	C	0.945603	0.060130	0.674494
C110	C	1.445603	0.560130	1.174494
C111	C	0.894190	0.121502	0.631231
C112	C	1.394190	0.621502	1.131231
C113	C	0.894185	0.121502	0.537387
C114	C	1.394185	0.621502	1.037387
C115	C	0.894186	0.121496	0.462590
C116	C	1.394186	0.621496	0.962590
H117	H	0.648258	0.275671	0.000000
H118	H	1.148258	0.775671	0.500000
H119	H	0.107702	0.265410	-0.000012
H120	H	0.607702	0.765410	0.499988
C121	C	0.259068	0.290721	0.000029
C122	C	0.759068	0.790721	0.500029
C123	C	0.199777	0.361684	0.000056
C124	C	0.699777	0.861684	0.500056
C125	C	0.230154	0.444695	0.000113
C126	C	0.730154	0.944695	0.500113
H127	H	0.289488	0.294859	-0.047904
H128	H	0.789488	0.794859	0.452096
H129	H	0.289465	0.294762	0.047996
H130	H	0.789465	0.794762	0.547996
H131	H	0.169392	0.357644	-0.047906
H132	H	0.669392	0.857644	0.452094
H133	H	0.169351	0.357576	0.047986
H134	H	0.669351	0.857576	0.547986
H135	H	0.260552	0.448737	0.048080
H136	H	0.760552	0.948737	0.548080
H137	H	0.260574	0.448824	-0.047821
H138	H	0.760574	0.948824	0.452179
H139	H	0.189931	0.492854	0.000139
H140	H	0.689931	0.992854	0.500139
H141	H	0.680671	-0.022414	-0.000008
H142	H	1.180671	0.477586	0.499992
H143	H	0.890543	-0.604856	0.135958
H144	H	1.390543	-0.104856	0.635958
H145	H	0.505029	0.272951	-0.000004
H146	H	1.005029	0.772951	0.499996
H147	H	0.987460	0.010155	0.639257
H148	H	1.487460	0.510155	1.139257
C149	C	0.786924	0.249359	0.372574
C150	C	1.286924	0.749359	0.872574
C151	C	0.740569	0.201400	0.422296
C152	C	1.240569	0.701400	0.922296
C153	C	0.689125	0.262626	0.465701
C154	C	1.189125	0.762626	0.965701
H155	H	0.756231	0.285937	0.334507
H156	H	1.256231	0.785937	0.834507
H157	H	0.814169	0.286840	0.406371
H158	H	1.314169	0.786840	0.906371
H159	H	0.713325	0.163936	0.388503
H160	H	1.213325	0.663936	0.888503
H161	H	0.771240	0.164826	0.460378
H162	H	1.271240	0.664826	0.960378
H163	H	0.716370	0.300106	0.499497
H164	H	1.216370	0.800106	0.999497
H165	H	0.658438	0.299200	0.427628
H166	H	1.158438	0.799200	0.927628
H167	H	0.657672	0.230095	0.499448
H168	H	1.157672	0.730095	0.999448
H169	H	0.537454	-0.025135	-0.000018
H170	H	1.037454	0.474865	0.499982
C171	C	1.001386	-0.006655	0.807908
C172	C	1.501386	0.493345	1.307908
C173	C	0.989037	-0.095229	0.786848
C174	C	1.489037	0.404771	1.286848
C175	C	1.040408	-0.156775	0.829998
C176	C	1.540408	0.343225	1.329998
H177	H	0.994082	0.002006	0.865663
H178	H	1.494082	0.502006	1.365663
H179	H	1.051920	0.003010	0.793696
H180	H	1.551920	0.503010	1.293696
H181	H	0.938515	-0.104890	0.801066
H182	H	1.438515	0.395110	1.301066
H183	H	0.996347	-0.103919	0.729101
H184	H	1.496347	0.396081	1.229101
H185	H	1.090942	-0.147110	0.815785
H186	H	1.590942	0.352890	1.315785
H187	H	1.033099	-0.148106	0.887750
H188	H	1.533099	0.351894	1.387750
H189	H	1.032041	-0.216880	0.815709
H190	H	1.532041	0.283120	1.315709
C191	C	0.895812	-0.280258	-0.231210
C192	C	1.395812	0.219742	0.268790
C193	C	0.897295	-0.187850	-0.215161
C194	C	1.397295	0.312150	0.284839
C195	C	0.898087	-0.140641	-0.290020
C196	C	1.398087	0.359359	0.209980
H197	H	0.851481	-0.288595	-0.262062
H198	H	1.351481	0.211405	0.237938
H199	H	0.939687	-0.302574	-0.262021
H200	H	1.439687	0.197426	0.237979
H201	H	0.853425	-0.165542	-0.184363
H202	H	1.353425	0.334458	0.315637
H203	H	0.941624	-0.179486	-0.184321
H204	H	1.441624	0.320514	0.315679
H205	H	0.941962	-0.162956	-0.320831
H206	H	1.441962	0.337044	0.179169
H207	H	0.853755	-0.148985	-0.320866
H208	H	1.353755	0.351015	0.179134
H209	H	0.899101	-0.077939	-0.279140
H210	H	1.399101	0.422061	0.220860
H211	H	0.283345	-0.029950	-0.000030
H212	H	0.783345	0.470050	0.499970
H213	H	0.140116	-0.032676	-0.000033
H214	H	0.640116	0.467324	0.499967
H215	H	0.897770	-0.152161	0.135962
H216	H	1.397770	0.347839	0.635962
H217	H	0.800947	0.232866	0.796295
H218	H	1.300947	0.732866	1.296295
C219	C	1.001414	-0.006626	0.192081
C220	C	1.501414	0.493374	0.692081
C221	C	1.046419	-0.060390	0.248498
C222	C	1.546419	0.439610	0.748498
C223	C	1.097860	-0.121894	0.205384
C224	C	1.597860	0.378106	0.705384
H225	H	1.033020	0.025652	0.158304
H226	H	1.533020	0.525652	0.658304
H227	H	0.974169	-0.044169	0.158349
H228	H	1.474169	0.455831	0.658349
H229	H	1.073663	-0.022852	0.282216
H230	H	1.573663	0.477148	0.782216
H231	H	1.014834	-0.092689	0.282277
H232	H	1.514834	0.407311	0.782277
H233	H	1.070615	-0.159437	0.171652
H234	H	1.570615	0.340563	0.671652
H235	H	1.129461	-0.089608	0.171609
H236	H	1.629461	0.410392	0.671609
H237	H	1.128397	-0.158385	0.243657
H238	H	1.628397	0.341615	0.743657
H239	H	0.987436	0.010139	0.360691
H240	H	1.487436	0.510139	0.860691
H241	H	0.800931	0.232856	0.639288
H242	H	1.300931	0.732856	1.139288
H243	H	0.897823	-0.152147	-0.136004
H244	H	1.397823	0.347853	0.363996
C245	C	0.892603	-0.476701	-0.231206
C246	C	1.392603	0.023299	0.268794
C247	C	0.891099	-0.569109	-0.215160
C248	C	1.391099	-0.069109	0.284840
C249	C	0.890301	-0.616301	-0.290020
C250	C	1.390301	-0.116301	0.209980
H251	H	0.936940	-0.468372	-0.262067
H252	H	1.436940	0.031628	0.237933
H253	H	0.848733	-0.454366	-0.262006
H254	H	1.348733	0.045634	0.237994
H255	H	0.934964	-0.591437	-0.184372
H256	H	1.434964	-0.091437	0.315628
H257	H	0.846765	-0.577466	-0.184311
H258	H	1.346765	-0.077466	0.315689
H259	H	0.846432	-0.593966	-0.320821
H260	H	1.346432	-0.093966	0.179179
H261	H	0.934639	-0.607964	-0.320876
H262	H	1.434639	-0.107964	0.179124
H263	H	0.889274	-0.679003	-0.279143
H264	H	1.389274	-0.179003	0.220857
H265	H	0.890586	-0.604844	-0.135991
H266	H	1.390586	-0.104844	0.364009
C267	C	0.786915	0.249600	0.192105
C268	C	1.286915	0.749600	0.692105
C269	C	0.741917	0.303369	0.248531
C270	C	1.241917	0.803369	0.748531
C271	C	0.690468	0.364865	0.205426
C272	C	1.190468	0.864865	0.705426
H273	H	0.755305	0.217315	0.158354
H274	H	1.255305	0.717315	0.658354
H275	H	0.814155	0.287139	0.158349
H276	H	1.314155	0.787139	0.658349
H277	H	0.714680	0.265834	0.282273
H278	H	1.214680	0.765834	0.782273
H279	H	0.773506	0.335674	0.282284
H280	H	1.273506	0.835674	0.782284
H281	H	0.717707	0.402405	0.171670
H282	H	1.217707	0.902405	0.671670
H283	H	0.658863	0.332573	0.171676
H284	H	1.158863	0.832573	0.671676
H285	H	0.659936	0.401360	0.243704
H286	H	1.159936	0.901360	0.743704
H287	H	0.892787	-0.463814	0.210908
H288	H	1.392787	0.036186	0.710908
C289	C	0.895765	-0.280622	0.231354
C290	C	1.395765	0.219378	0.731354
C291	C	0.894797	-0.341932	0.296991
C292	C	1.394797	0.158068	0.796991
C293	C	0.895595	-0.295107	0.372046
C294	C	1.395595	0.204893	0.872046
H295	H	0.852266	-0.236964	0.234593
H296	H	1.352266	0.263036	0.734593
H297	H	0.940473	-0.250940	0.234509
H298	H	1.440473	0.249060	0.734509
H299	H	0.850094	-0.371599	0.293837
H300	H	1.350094	0.128401	0.793837
H301	H	0.938292	-0.385592	0.293779
H302	H	1.438292	0.114408	0.793779
H303	H	0.940303	-0.265424	0.375201
H304	H	1.440303	0.234576	0.875201
H305	H	0.852095	-0.251450	0.375276
H306	H	1.352095	0.248550	0.875276
H307	H	0.894945	-0.336699	0.416590
H308	H	1.394945	0.163301	0.916590
