data_functionalizedCrystal
_audit_creation_method	'MofGen! by Chris Wilmer'
_symmetry_space_group_name_H-M	'P1'
_symmetry_Int_Tables_number	1
_symmetry_cell_setting	triclinic
loop_
_symmetry_equiv_pos_as_xyz
  x,y,z
_cell_length_a	13.897449
_cell_length_b	18.101395
_cell_length_c	13.897441
_cell_angle_alpha	90.030698
_cell_angle_beta	90.020733
_cell_angle_gamma	90.032384
loop_
_atom_site_label
_atom_site_type_symbol
_atom_site_fract_x
_atom_site_fract_y
_atom_site_fract_z
Zn1	Zn	1.474613	-0.294781	0.545380
Zn2	Zn	1.807946	0.038553	0.878714
Zn3	Zn	2.141279	0.371886	1.212047
Zn4	Zn	1.474469	-0.418636	0.384082
Zn5	Zn	1.807802	-0.085303	0.717415
Zn6	Zn	2.141136	0.248030	1.050748
Zn7	Zn	1.313302	-0.294816	0.384099
Zn8	Zn	1.646635	0.038517	0.717432
Zn9	Zn	1.979969	0.371851	1.050766
Zn10	Zn	1.313246	-0.418588	0.545334
Zn11	Zn	1.646579	-0.085254	0.878668
Zn12	Zn	1.979913	0.248079	1.212001
O13	O	1.393907	-0.356705	0.464724
O14	O	1.727241	-0.023372	0.798057
O15	O	2.060574	0.309961	1.131390
O16	O	1.609575	-0.311216	0.523996
O17	O	1.942909	0.022117	0.857329
O18	O	2.276242	0.355451	1.190663
O19	O	1.453053	-0.402246	0.249102
O20	O	1.786386	-0.068913	0.582435
O21	O	2.119720	0.264420	0.915769
O22	O	1.334784	-0.191178	0.405520
O23	O	1.668117	0.142155	0.738853
O24	O	2.001450	0.475488	1.072186
O25	O	1.609470	-0.402212	0.405490
O26	O	1.942803	-0.068879	0.738824
O27	O	2.276136	0.264454	1.072157
O28	O	1.453298	-0.191152	0.524013
O29	O	1.786631	0.142181	0.857346
O30	O	2.119965	0.475514	1.190679
O31	O	1.334644	-0.311276	0.249115
O32	O	1.667978	0.022057	0.582448
O33	O	2.001311	0.355391	0.915782
O34	O	1.178313	-0.311229	0.405475
O35	O	1.511646	0.022104	0.738808
O36	O	1.844979	0.355438	1.072142
O37	O	1.334688	-0.402129	0.680322
O38	O	1.668022	-0.068796	1.013655
O39	O	2.001355	0.264537	1.346989
O40	O	1.178272	-0.402164	0.523934
O41	O	1.511605	-0.068830	0.857267
O42	O	1.844938	0.264503	1.190600
O43	O	1.453244	-0.311169	0.680356
O44	O	1.786577	0.022164	1.013689
O45	O	2.119910	0.355498	1.347023
O46	O	1.452999	-0.522263	0.405445
O47	O	1.786332	-0.188929	0.738779
O48	O	2.119665	0.144404	1.072112
O49	O	1.334549	-0.522227	0.523917
O50	O	1.667882	-0.188894	0.857250
O51	O	2.001215	0.144440	1.190584
C52	C	1.143293	-0.356695	0.464702
C53	C	1.476626	-0.023362	0.798035
C54	C	1.809960	0.309971	1.131368
C55	C	1.036079	-0.356709	0.464715
C56	C	1.369412	-0.023376	0.798049
C57	C	1.702746	0.309958	1.131382
C58	C	0.839784	-0.356712	0.464741
C59	C	1.173117	-0.023378	0.798074
C60	C	1.506451	0.309955	1.131407
C61	C	0.949016	-0.356708	0.464724
C62	C	1.282350	-0.023374	0.798057
C63	C	1.615683	0.309959	1.131390
C64	C	1.393778	-0.549116	0.464695
C65	C	1.727112	-0.215782	0.798029
C66	C	2.060445	0.117551	1.131362
C67	C	1.393811	-0.631430	0.464716
C68	C	1.727145	-0.298097	0.798049
C69	C	2.060478	0.035237	1.131382
C70	C	1.394023	-0.930521	0.464767
C71	C	1.727356	-0.597187	0.798101
C72	C	2.060690	-0.263854	1.131434
C73	C	1.319670	-0.899204	0.539492
C74	C	1.653004	-0.565871	0.872825
C75	C	1.986337	-0.232537	1.206158
C76	C	1.319317	-0.813586	0.539258
C77	C	1.652650	-0.480253	0.872591
C78	C	1.985984	-0.146919	1.205925
C79	C	1.393918	-0.782138	0.464743
C80	C	1.727251	-0.448805	0.798076
C81	C	2.060585	-0.115472	1.131409
C82	C	1.366392	-0.813295	0.363084
C83	C	1.699725	-0.479961	0.696417
C84	C	2.033059	-0.146628	1.029750
C85	C	1.365913	-0.898940	0.363531
C86	C	1.699246	-0.565607	0.696864
C87	C	2.032579	-0.232273	1.030198
C88	C	1.496064	-0.898862	0.490807
C89	C	1.829398	-0.565528	0.824141
C90	C	2.162731	-0.232195	1.157474
C91	C	1.495464	-0.813210	0.493037
C92	C	1.828798	-0.479877	0.826370
C93	C	2.162131	-0.146544	1.159703
C94	C	1.393860	-0.698279	0.464722
C95	C	1.727194	-0.364945	0.798056
C96	C	2.060527	-0.031612	1.131389
C97	C	1.394078	-1.014380	0.464781
C98	C	1.727412	-0.681047	0.798114
C99	C	2.060745	-0.347714	1.131448
C100	C	1.645500	-0.356716	0.464746
C101	C	1.978834	-0.023382	0.798080
C102	C	2.312167	0.309951	1.131413
C103	C	1.752714	-0.356720	0.464756
C104	C	2.086048	-0.023387	0.798089
C105	C	2.419381	0.309947	1.131423
C106	C	1.393976	-0.356640	0.716317
C107	C	1.727309	-0.023306	1.049650
C108	C	2.060642	0.310027	1.382984
C109	C	1.394005	-0.356612	0.823531
C110	C	1.727338	-0.023279	1.156864
C111	C	2.060672	0.310055	1.490198
C112	C	1.394063	-0.163543	0.464773
C113	C	1.727397	0.169790	0.798107
C114	C	2.060730	0.503123	1.131440
C115	C	1.394130	-0.081229	0.464795
C116	C	1.727463	0.252104	0.798128
C117	C	2.060796	0.585438	1.131461
C118	C	1.393895	-0.356717	0.214109
C119	C	1.727228	-0.023384	0.547443
C120	C	2.060561	0.309950	0.880776
C121	C	1.394052	-0.356536	0.106896
C122	C	1.727386	-0.023203	0.440229
C123	C	2.060719	0.310130	0.773563
C124	C	1.394031	-0.356562	1.019826
C125	C	1.727365	-0.023228	1.353160
C126	C	2.060698	0.310105	1.686493
C127	C	1.394014	-0.356592	0.910594
C128	C	1.727347	-0.023258	1.243927
C129	C	2.060680	0.310075	1.577260
H130	H	1.336539	-0.792518	0.614637
H131	H	1.669872	-0.459185	0.947970
H132	H	2.003206	-0.125851	1.281304
Br133	Br	1.592689	-0.777518	0.408945
Br134	Br	1.926022	-0.444184	0.742278
Br135	Br	2.259355	-0.110851	1.075612
Br136	Br	1.348083	-0.933446	0.665541
Br137	Br	1.681416	-0.600113	0.998874
Br138	Br	2.014749	-0.266779	1.332208
Br139	Br	1.530066	-0.779268	0.617736
Br140	Br	1.863399	-0.445934	0.951069
Br141	Br	2.196732	-0.112601	1.284402
H142	H	1.417719	-0.919659	0.305957
H143	H	1.751052	-0.586326	0.639291
H144	H	2.084385	-0.252992	0.972624
H145	H	1.418843	-0.792926	0.305891
H146	H	1.752176	-0.459593	0.639224
H147	H	2.085510	-0.126259	0.972557
H148	H	1.521159	-0.920406	0.563673
H149	H	1.854492	-0.587072	0.897007
H150	H	2.187826	-0.253739	1.230340
H151	H	1.244495	-0.920792	0.522460
H152	H	1.577828	-0.587459	0.855794
H153	H	1.911162	-0.254126	1.189127
Br154	Br	1.241590	-0.932354	0.326764
Br155	Br	1.574923	-0.599021	0.660097
Br156	Br	1.908256	-0.265688	0.993431
Br157	Br	1.588399	-0.932630	0.400113
Br158	Br	1.921732	-0.599296	0.733446
Br159	Br	2.255066	-0.265963	1.066780
H160	H	1.243682	-0.793165	0.522009
H161	H	1.577015	-0.459832	0.855343
H162	H	1.910348	-0.126498	1.188676
Br163	Br	1.243382	-0.777662	0.325655
Br164	Br	1.576716	-0.444328	0.658989
Br165	Br	1.910049	-0.110995	0.992322
