data_functionalizedCrystal
_audit_creation_method	'MofGen! by Chris Wilmer'
_symmetry_space_group_name_H-M	'P1'
_symmetry_Int_Tables_number	1
_symmetry_cell_setting	triclinic
loop_
_symmetry_equiv_pos_as_xyz
  x,y,z
_cell_length_a	17.699077
_cell_length_b	10.489716
_cell_length_c	16.776229
_cell_angle_alpha	89.997416
_cell_angle_beta	89.993415
_cell_angle_gamma	83.904856
loop_
_atom_site_label
_atom_site_type_symbol
_atom_site_fract_x
_atom_site_fract_y
_atom_site_fract_z
O1	O	1.005128	0.161261	-0.066271
O2	O	0.784885	0.182254	-0.066274
O3	O	0.900028	-0.013936	-0.066275
O4	O	0.889985	0.357451	-0.066269
O5	O	0.900012	-0.013948	0.066302
O6	O	0.784870	0.182242	0.066303
O7	O	1.005112	0.161249	0.066306
Zn8	Zn	0.894988	0.171744	0.087354
Zn9	Zn	0.895009	0.171760	-0.087321
O10	O	0.889970	0.357439	0.066307
C11	C	0.756675	0.181497	0.000014
C12	C	0.672642	0.179245	0.000013
C13	C	0.633160	0.178177	0.072281
C14	C	0.554203	0.176039	0.072282
C15	C	0.514730	0.174980	0.000013
C16	C	0.554219	0.176044	-0.072260
C17	C	0.633175	0.178172	-0.072260
C18	C	0.235800	0.167460	-0.072262
C19	C	0.156838	0.165336	-0.072256
C20	C	0.156829	0.165328	0.072280
C21	C	0.235784	0.167456	0.072280
C22	C	0.275266	0.168513	0.000007
C23	C	0.360880	0.170828	0.000007
C24	C	0.429118	0.172674	0.000013
C25	C	0.899265	-0.061460	0.000011
C26	C	0.897008	-0.203049	0.000004
C27	C	0.967617	-0.302037	0.000012
C28	C	0.930313	-0.378697	-0.065354
C29	C	0.930282	-0.378673	0.065356
C30	C	0.859734	-0.277844	-0.065416
C31	C	0.859712	-0.277814	0.065353
C32	C	0.822357	-0.354424	-0.000029
C33	C	1.033322	0.162006	0.000016
C34	C	1.117355	0.164259	0.000013
C35	C	0.890732	0.404963	0.000020
C36	C	0.892989	0.546552	0.000022
N37	N	0.894980	0.171732	0.206565
N38	N	0.895023	0.171761	-0.206533
C39	C	0.945981	0.084895	0.248282
C40	C	0.945985	0.084894	0.331734
C41	C	0.894992	0.171737	0.373468
C42	C	0.843985	0.258579	0.331746
C43	C	0.843978	0.258573	0.248295
C44	C	0.844013	0.258604	0.668293
C45	C	0.844025	0.258606	0.751749
C46	C	0.946020	0.084925	0.751732
C47	C	0.946013	0.084919	0.668281
C48	C	0.895004	0.171755	0.626566
C49	C	0.894999	0.171754	0.536078
C50	C	0.895000	0.171746	0.463955
H51	H	1.029035	-0.278504	-0.000054
H52	H	0.267919	0.168325	0.131128
H53	H	0.829925	-0.233747	0.120617
H54	H	0.124673	0.164461	0.131129
O55	O	0.824086	-0.225558	-0.131364
C56	C	0.707500	-0.193516	-0.206346
C57	C	0.747766	-0.252773	-0.131620
H58	H	0.645793	-0.215520	-0.206587
H59	H	0.709496	-0.085246	-0.205839
H60	H	0.737425	-0.235990	-0.261971
H61	H	0.717872	-0.210400	-0.075956
H62	H	0.745777	-0.361042	-0.132198
O63	O	0.995531	0.000382	0.792169
C64	C	1.038656	-0.221501	0.817737
C65	C	0.982557	-0.125904	0.771880
H66	H	1.028176	-0.323624	0.801364
H67	H	1.099378	-0.205119	0.801303
H68	H	1.029911	-0.206523	0.884546
H69	H	0.991233	-0.140825	0.705061
H70	H	0.921856	-0.142310	0.788381
H71	H	0.267937	0.168317	-0.131111
O72	O	0.794373	0.342982	0.372160
C73	C	0.693229	0.515298	0.363363
C74	C	0.749363	0.419758	0.317497
H75	H	0.656834	0.577414	0.319188
H76	H	0.655080	0.460373	0.402422
H77	H	0.726260	0.578897	0.402444
H78	H	0.716394	0.356135	0.278373
H79	H	0.787512	0.474763	0.278489
O80	O	0.749076	-0.382441	-0.000033
C81	C	0.664626	-0.548129	0.000524
C82	C	0.747647	-0.516576	0.000554
H83	H	0.663444	-0.656576	0.000982
H84	H	0.634294	-0.504931	0.055734
H85	H	0.634676	-0.506222	-0.055229
H86	H	0.777662	-0.558476	0.056270
H87	H	0.777923	-0.559751	-0.054693
H88	H	0.124702	0.164472	-0.131110
O89	O	0.794409	0.343010	0.792168
C90	C	0.693259	0.515318	0.783384
C91	C	0.749392	0.419787	0.737511
H92	H	0.656859	0.577434	0.739214
H93	H	0.655115	0.460386	0.822445
H94	H	0.726291	0.578918	0.822463
H95	H	0.716422	0.356163	0.698388
H96	H	0.787535	0.474798	0.698500
H97	H	0.802481	0.329311	0.634335
O98	O	0.965809	-0.431078	-0.131364
C99	C	0.969521	-0.437290	-0.274906
C100	C	0.929257	-0.377852	-0.200221
H101	H	0.939976	-0.394301	-0.330595
H102	H	1.031401	-0.416230	-0.274888
H103	H	0.966965	-0.545426	-0.274520
H104	H	0.931754	-0.269707	-0.200558
H105	H	0.867396	-0.399014	-0.200267
O106	O	0.965951	-0.431069	0.131263
C107	C	1.082808	-0.464517	0.205695
C108	C	1.042495	-0.405092	0.131039
H109	H	1.144705	-0.443560	0.205530
H110	H	1.053379	-0.421439	0.261429
H111	H	1.080193	-0.572639	0.205365
H112	H	1.045099	-0.296972	0.131291
H113	H	1.071936	-0.448270	0.075338
H114	H	0.802447	0.329283	0.214330
H115	H	0.522062	0.175148	0.131130
O116	O	0.671388	0.179145	0.142555
C117	C	0.663031	0.178975	0.285921
C118	C	0.619649	0.177853	0.206391
H119	H	0.621216	0.177959	0.337553
H120	H	0.706424	0.090722	0.289587
H121	H	0.693569	0.269178	0.289495
H122	H	0.589065	0.087710	0.202764
H123	H	0.576298	0.266167	0.202759
O124	O	0.515946	0.175193	-0.142512
C125	C	0.483779	0.285062	-0.266024
C126	C	0.527171	0.286163	-0.186500
H127	H	0.492826	0.374784	-0.301603
H128	H	0.505760	0.196318	-0.301723
H129	H	0.420573	0.283302	-0.253589
H130	H	0.590384	0.287968	-0.198862
H131	H	0.505127	0.374897	-0.150826
H132	H	0.665320	0.179044	-0.131109
O133	O	0.995609	0.000506	0.372133
C134	C	1.096766	-0.171786	0.363309
C135	C	1.040614	-0.076268	0.317459
H136	H	1.133157	-0.233901	0.319125
H137	H	1.134918	-0.116843	0.402342
H138	H	1.063751	-0.235389	0.402415
H139	H	1.073568	-0.012641	0.278309
H140	H	1.002463	-0.131290	0.278477
H141	H	0.987509	0.014182	0.214307
O142	O	0.995386	0.000320	0.627719
C143	C	1.010340	-0.174281	0.533757
C144	C	0.954382	-0.078397	0.579584
H145	H	0.977211	-0.237966	0.494841
H146	H	1.048520	-0.119646	0.494555
H147	H	1.046725	-0.236275	0.578000
H148	H	0.917947	-0.016377	0.535398
H149	H	0.916255	-0.133110	0.618798
