data_functionalizedCrystal
_audit_creation_method	'MofGen! by Chris Wilmer'
_symmetry_space_group_name_H-M	'P1'
_symmetry_Int_Tables_number	1
_symmetry_cell_setting	triclinic
loop_
_symmetry_equiv_pos_as_xyz
  x,y,z
_cell_length_a	21.295418
_cell_length_b	13.897448
_cell_length_c	13.897441
_cell_angle_alpha	90.029627
_cell_angle_beta	89.961054
_cell_angle_gamma	89.966493
loop_
_atom_site_label
_atom_site_type_symbol
_atom_site_fract_x
_atom_site_fract_y
_atom_site_fract_z
Zn1	Zn	0.962382	0.383586	-0.545905
Zn2	Zn	0.962317	0.544905	-0.384606
Zn3	Zn	0.857114	0.383670	-0.384566
Zn4	Zn	0.857098	0.544885	-0.545802
O5	O	0.909728	0.464262	-0.465220
O6	O	1.050463	0.404958	-0.524569
O7	O	0.948341	0.523560	-0.249619
O8	O	0.871112	0.248677	-0.405995
O9	O	1.050415	0.523479	-0.406063
O10	O	0.948452	0.248616	-0.524530
O11	O	0.871049	0.405102	-0.249590
O12	O	0.769023	0.405083	-0.405894
O13	O	0.871085	0.523445	-0.680797
O14	O	0.769011	0.523527	-0.524353
O15	O	0.948437	0.404939	-0.680873
O16	O	0.948325	0.679884	-0.405963
O17	O	0.871022	0.679870	-0.524393
C18	C	0.746176	0.464312	-0.465109
C19	C	0.676208	0.464357	-0.465084
C20	C	0.909682	0.714876	-0.465192
C21	C	0.909720	0.822090	-0.465212
C22	C	0.909766	0.464181	-0.716813
C23	C	0.909783	0.464146	-0.824027
C24	C	0.643352	0.526113	-0.526674
C25	C	0.577609	0.526089	-0.526717
C26	C	0.544726	0.464320	-0.465154
C27	C	0.577590	0.402552	-0.403560
C28	C	0.643331	0.402571	-0.403525
N29	N	0.441453	0.456790	-0.380787
N30	N	0.379002	0.456778	-0.380822
C31	C	0.346651	0.464258	-0.465256
N32	N	0.379111	0.471770	-0.549654
N33	N	0.441568	0.471787	-0.549618
C34	C	0.473440	0.464292	-0.465185
C35	C	0.242509	0.525991	-0.526898
C36	C	0.176765	0.525961	-0.526943
C37	C	0.176747	0.402429	-0.403777
C38	C	0.242490	0.402455	-0.403740
C39	C	0.275367	0.464241	-0.465300
C40	C	1.073918	0.464211	-0.465332
C41	C	1.143886	0.464190	-0.465380
C42	C	0.909791	0.212669	-0.465269
C43	C	0.909818	0.105455	-0.465290
C44	C	0.909786	1.018385	-0.465273
C45	C	0.909747	0.909153	-0.465242
C46	C	0.909796	0.464119	-0.911097
C47	C	0.909814	0.464075	-1.020330
C48	C	0.909726	0.464273	-0.214606
C49	C	0.909831	0.464036	-0.107392
H50	H	0.550852	0.576377	-0.576874
H51	H	0.269279	0.576297	-0.577028
N52	N	0.676931	0.589234	-0.589546
N53	N	0.669536	0.678229	-0.582989
H54	H	0.693252	0.722810	-0.627393
N55	N	0.676906	0.339504	-0.340604
N56	N	0.735603	0.339536	-0.340576
H57	H	0.759317	0.294997	-0.296136
N58	N	0.276065	0.339394	-0.340817
N59	N	0.334762	0.339421	-0.340792
H60	H	0.358476	0.294881	-0.296351
H61	H	0.150015	0.576248	-0.577102
N62	N	0.143156	0.339327	-0.340907
N63	N	0.084459	0.339312	-0.340951
H64	H	0.060731	0.294740	-0.296553
H65	H	0.550812	0.352258	-0.353436
