data_functionalizedCrystal
_audit_creation_method	'MofGen! by Chris Wilmer'
_symmetry_space_group_name_H-M	'P1'
_symmetry_Int_Tables_number	1
_symmetry_cell_setting	triclinic
loop_
_symmetry_equiv_pos_as_xyz
  x,y,z
_cell_length_a	17.077404
_cell_length_b	12.594516
_cell_length_c	17.077396
_cell_angle_alpha	90.023145
_cell_angle_beta	90.019501
_cell_angle_gamma	90.016278
loop_
_atom_site_label
_atom_site_type_symbol
_atom_site_fract_x
_atom_site_fract_y
_atom_site_fract_z
Zn1	Zn	1.200092	-0.423736	0.443872
Zn2	Zn	1.700092	0.076264	0.943872
Zn3	Zn	1.200015	-0.601736	0.312618
Zn4	Zn	1.700015	-0.101736	0.812618
Zn5	Zn	1.068824	-0.423773	0.312620
Zn6	Zn	1.568824	0.076227	0.812620
Zn7	Zn	1.068807	-0.601673	0.443842
Zn8	Zn	1.568807	-0.101673	0.943842
O9	O	1.134434	-0.512730	0.378238
O10	O	1.634434	-0.012730	0.878238
O11	O	1.309929	-0.447359	0.426473
O12	O	1.809929	0.052641	0.926473
O13	O	1.182586	-0.578171	0.202771
O14	O	1.682586	-0.078171	0.702771
O15	O	1.086276	-0.274822	0.330044
O16	O	1.586276	0.225178	0.830044
O17	O	1.309872	-0.578135	0.330041
O18	O	1.809872	-0.078135	0.830041
O19	O	1.182718	-0.274795	0.426474
O20	O	1.682718	0.225205	0.926474
O21	O	1.086201	-0.447422	0.202773
O22	O	1.586201	0.052578	0.702773
O23	O	0.958975	-0.447361	0.330015
O24	O	1.458975	0.052639	0.830015
O25	O	1.086248	-0.578027	0.553693
O26	O	1.586248	-0.078027	1.053693
O27	O	0.958963	-0.578064	0.426423
O28	O	1.458963	-0.078064	0.926423
O29	O	1.182702	-0.447297	0.553715
O30	O	1.682702	0.052703	1.053715
O31	O	1.182571	-0.750674	0.330012
O32	O	1.682571	-0.250674	0.830012
O33	O	1.086173	-0.750627	0.426421
O34	O	1.586173	-0.250627	0.926421
C35	C	0.930487	-0.512710	0.378216
C36	C	1.430487	-0.012710	0.878216
C37	C	0.843237	-0.512728	0.378226
C38	C	1.343237	-0.012728	0.878226
C39	C	1.134383	-0.789271	0.378230
C40	C	1.634383	-0.289271	0.878230
C41	C	1.134433	-0.907576	0.378253
C42	C	1.634433	-0.407576	0.878253
C43	C	0.802261	-0.580887	0.428345
C44	C	1.302261	-0.080887	0.928345
C45	C	0.720280	-0.580890	0.428357
C46	C	1.220280	-0.080890	0.928357
C47	C	0.679277	-0.512737	0.378246
C48	C	1.179277	-0.012737	0.878246
C49	C	0.720259	-0.444570	0.328125
C50	C	1.220259	0.055430	0.828125
C51	C	0.802238	-0.444563	0.328117
C52	C	1.302238	0.055437	0.828117
C53	C	0.549389	-0.444591	0.328144
C54	C	1.049389	0.055409	0.828144
C55	C	0.467404	-0.444599	0.328150
C56	C	0.967404	0.055401	0.828150
C57	C	0.467431	-0.580917	0.428384
C58	C	0.967431	-0.080917	0.928384
C59	C	0.549410	-0.580910	0.428376
C60	C	1.049410	-0.080910	0.928376
C61	C	0.590386	-0.512745	0.378253
C62	C	1.090386	-0.012745	0.878253
C63	C	1.081997	-0.976843	0.430653
C64	C	1.581997	-0.476843	0.930653
C65	C	1.062873	-1.047703	0.359026
C66	C	1.562873	-0.547703	0.859026
C67	C	1.153628	-1.047515	0.449893
C68	C	1.653628	-0.547515	0.949893
C69	C	1.115271	-0.976878	0.306587
C70	C	1.615271	-0.476878	0.806587
C71	C	1.206059	-0.976684	0.397503
C72	C	1.706059	-0.476684	0.897503
C73	C	1.186963	-1.047512	0.325826
C74	C	1.686963	-0.547512	0.825826
C75	C	1.339179	-0.512750	0.378260
C76	C	1.839179	-0.012750	0.878260
C77	C	1.426428	-0.512758	0.378269
C78	C	1.926428	-0.012758	0.878269
C79	C	1.134482	-0.512651	0.582982
C80	C	1.634482	-0.012651	1.082982
C81	C	1.134502	-0.512618	0.670232
C82	C	1.634502	-0.012618	1.170232
C83	C	1.134507	-0.235109	0.378263
C84	C	1.634507	0.264891	0.878263
C85	C	1.134539	-0.116803	0.378273
C86	C	1.634539	0.383197	0.878273
C87	C	1.134432	-0.512731	0.174290
C88	C	1.634432	-0.012731	0.674290
C89	C	1.134564	-0.512465	0.087041
C90	C	1.634564	-0.012465	0.587041
C91	C	1.184728	-0.444541	0.711235
C92	C	1.684728	0.055459	1.211235
C93	C	1.184737	-0.444506	0.793216
C94	C	1.684737	0.055494	1.293216
C95	C	1.134524	-0.512553	0.834192
C96	C	1.634524	-0.012553	1.334192
C97	C	1.084293	-0.580633	0.793183
C98	C	1.584293	-0.080633	1.293183
C99	C	1.084281	-0.580662	0.711204
C100	C	1.584281	-0.080662	1.211204
C101	C	1.084325	-0.580569	0.964053
C102	C	1.584325	-0.080569	1.464053
C103	C	1.084339	-0.580541	1.046038
C104	C	1.584339	-0.080541	1.546038
C105	C	1.184782	-0.444412	1.046065
C106	C	1.684782	0.055588	1.546065
C107	C	1.184769	-0.444442	0.964086
C108	C	1.684769	0.055558	1.464086
C109	C	1.134538	-0.512523	0.923083
C110	C	1.634538	-0.012523	1.423083
H111	H	0.835640	-0.636389	0.469149
H112	H	1.335640	-0.136389	0.969149
H113	H	0.835599	-0.389055	0.287309
H114	H	1.335599	0.110945	0.787309
H115	H	1.266570	-0.945468	0.413803
H116	H	1.766570	-0.445468	0.913803
O117	O	1.238893	-0.371153	0.667042
O118	O	1.738893	0.128847	1.167042
H119	H	1.203771	-0.317015	0.629685
H120	H	1.703771	0.182985	1.129685
H121	H	1.231351	-1.078346	0.281470
H122	H	1.731351	-0.578346	0.781470
O123	O	0.982699	-1.089020	0.337458
O124	O	1.482699	-0.589020	0.837458
H125	H	0.983625	-1.177139	0.337110
H126	H	1.483625	-0.677139	0.837110
O127	O	0.423237	-0.654597	0.482328
O128	O	0.923237	-0.154597	0.982328
H129	H	0.465522	-0.702055	0.517120
H130	H	0.965522	-0.202055	1.017120
O131	O	1.238953	-0.370976	1.090290
O132	O	1.738953	0.129024	1.590290
H133	H	1.300554	-0.389254	1.074574
H134	H	1.800554	0.110746	1.574574
H135	H	1.169821	-1.078543	0.510470
H136	H	1.669821	-0.578543	1.010470
H137	H	1.099008	-0.945978	0.245994
H138	H	1.599008	-0.445978	0.745994
O139	O	1.238932	-0.371058	0.919886
O140	O	1.738932	0.128942	1.419886
H141	H	1.225494	-0.287511	0.935617
H142	H	1.725494	0.212489	1.435617
O143	O	1.238911	-0.371083	0.837442
O144	O	1.738911	0.128917	1.337442
H145	H	1.300510	-0.389365	0.821723
H146	H	1.800510	0.110635	1.321723
O147	O	0.676166	-0.654505	0.482408
O148	O	1.176166	-0.154505	0.982408
H149	H	0.638832	-0.607052	0.522472
H150	H	1.138832	-0.107052	1.022472
O151	O	0.423174	-0.371083	0.274112
O152	O	0.923174	0.128917	0.774112
H153	H	0.465438	-0.323668	0.239267
H154	H	0.965438	0.176332	0.739267
O155	O	0.593589	-0.371081	0.274077
O156	O	1.093589	0.128919	0.774077
H157	H	0.551306	-0.323702	0.239224
H158	H	1.051306	0.176298	0.739224
H159	H	0.582793	-0.636412	0.469177
H160	H	1.082793	-0.136412	0.969177
O161	O	1.030175	-0.653922	1.090239
O162	O	1.530175	-0.153922	1.590239
H163	H	0.995235	-0.701256	1.047956
H164	H	1.495235	-0.201256	1.547956
H165	H	1.037575	-0.945811	0.474902
H166	H	1.537575	-0.445811	0.974902
O167	O	0.676027	-0.371089	0.274062
O168	O	1.176027	0.128911	0.774062
H169	H	0.638685	-0.317007	0.309254
H170	H	1.138685	0.182993	0.809254
H171	H	1.043410	-0.635991	0.930671
H172	H	1.543410	-0.135991	1.430671
H173	H	1.043406	-0.636034	0.826552
H174	H	1.543406	-0.136034	1.326552
H175	H	1.043374	-0.636087	0.677820
H176	H	1.543374	-0.136087	1.177820
