data_functionalizedCrystal
_audit_creation_method	'MofGen! by Chris Wilmer'
_symmetry_space_group_name_H-M	'P1'
_symmetry_Int_Tables_number	1
_symmetry_cell_setting	triclinic
loop_
_symmetry_equiv_pos_as_xyz
  x,y,z
_cell_length_a	17.019311
_cell_length_b	19.188924
_cell_length_c	16.098538
_cell_angle_alpha	92.711427
_cell_angle_beta	83.390489
_cell_angle_gamma	83.269696
loop_
_atom_site_label
_atom_site_type_symbol
_atom_site_fract_x
_atom_site_fract_y
_atom_site_fract_z
O1	O	1.053778	0.082446	-0.144832
O2	O	1.553778	0.582446	0.355168
O3	O	0.823228	0.094528	-0.128300
O4	O	1.323228	0.594528	0.371700
O5	O	0.945159	-0.013179	-0.137034
O6	O	1.445159	0.486821	0.362966
O7	O	0.931848	0.190153	-0.136099
O8	O	1.431848	0.690153	0.363901
O9	O	0.938036	-0.006911	0.001989
O10	O	1.438036	0.493089	0.501989
O11	O	0.816106	0.100795	0.010723
O12	O	1.316106	0.600795	0.510723
O13	O	1.046656	0.088713	-0.005809
O14	O	1.546656	0.588713	0.494191
Zn15	Zn	0.930250	0.095749	0.024530
Zn16	Zn	1.430250	0.595749	0.524530
Zn17	Zn	0.939634	0.087492	-0.158639
Zn18	Zn	1.439634	0.587492	0.341361
O19	O	0.924725	0.196420	0.002924
O20	O	1.424725	0.696420	0.502924
C21	C	0.790171	0.097326	-0.056674
C22	C	1.290171	0.597326	0.443326
C23	C	0.702283	0.096318	-0.050371
C24	C	1.202283	0.596318	0.449629
C25	C	0.205007	0.090812	-0.010925
C26	C	0.705007	0.590812	0.489075
C27	C	0.287587	0.091759	-0.016849
C28	C	0.787587	0.591759	0.483151
C29	C	0.332761	0.088811	-0.095594
C30	C	0.832761	0.588811	0.404406
C31	C	0.295349	0.084923	-0.168419
C32	C	0.795349	0.584923	0.331581
C33	C	0.212770	0.083981	-0.162495
C34	C	0.712770	0.583981	0.337505
C35	C	0.582292	0.091488	-0.117273
C36	C	1.082292	0.591488	0.382727
C37	C	0.664877	0.092429	-0.123192
C38	C	1.164877	0.592429	0.376808
C39	C	0.657109	0.099266	0.028380
C40	C	1.157109	0.599266	0.528380
C41	C	0.574529	0.098320	0.034297
C42	C	1.074529	0.598320	0.534297
C43	C	0.537124	0.094435	-0.038529
C44	C	1.037124	0.594435	0.461471
C45	C	0.417172	0.089777	-0.101650
C46	C	0.917172	0.589777	0.398350
C47	C	0.452714	0.093475	-0.032471
C48	C	0.952714	0.593475	0.467529
C49	C	0.941167	-0.036055	-0.067491
C50	C	1.441167	0.463945	0.432509
C51	C	0.939876	-0.113558	-0.067396
C52	C	1.439876	0.386442	0.432604
C53	C	0.943156	-0.153372	-0.143134
C54	C	1.443156	0.346628	0.356866
C55	C	0.941931	-0.226193	-0.143053
C56	C	1.441931	0.273807	0.356947
C57	C	0.937443	-0.259199	-0.067230
C58	C	1.437443	0.240801	0.432770
C59	C	0.934158	-0.219375	0.008519
C60	C	1.434158	0.280625	0.508519
C61	C	0.935375	-0.146555	0.008436
C62	C	1.435375	0.353445	0.508436
N63	N	0.977699	-0.376385	-0.013923
N64	N	1.477699	0.123615	0.486077
N65	N	0.976545	-0.445562	-0.013849
N66	N	1.476545	0.054438	0.486151
C67	C	0.933776	-0.478603	-0.066975
C68	C	1.433776	0.021397	0.433025
N69	N	0.892215	-0.439856	-0.120191
N70	N	1.392215	0.060144	0.379809
N71	N	0.893372	-0.370673	-0.120267
N72	N	1.393372	0.129327	0.379733
C73	C	0.936123	-0.338161	-0.067131
C74	C	1.436123	0.161839	0.432869
C75	C	0.935728	-0.597379	-0.142630
C76	C	1.435728	-0.097379	0.357370
C77	C	0.934498	-0.670200	-0.142545
C78	C	1.434498	-0.170200	0.357455
C79	C	0.926733	-0.663382	0.009028
C80	C	1.426733	-0.163382	0.509028
C81	C	0.927954	-0.590560	0.008942
C82	C	1.427954	-0.090560	0.508942
C83	C	0.932456	-0.557564	-0.066890
C84	C	1.432456	-0.057564	0.433110
C85	C	1.079713	0.085915	-0.077438
C86	C	1.579713	0.585915	0.422562
C87	C	1.167601	0.086922	-0.083746
C88	C	1.667601	0.586922	0.416254
C89	C	0.928717	0.219297	-0.066621
C90	C	1.428717	0.719297	0.433379
C91	C	0.930009	0.296799	-0.066721
C92	C	1.430009	0.796799	0.433279
N93	N	0.923851	0.101384	0.149537
N94	N	1.423851	0.601384	0.649537
N95	N	0.946039	0.081852	-0.283647
N96	N	1.446039	0.581852	0.216353
C97	C	0.975622	0.055685	0.189414
C98	C	1.475622	0.555685	0.689414
C99	C	0.971153	0.059634	0.276923
C100	C	1.471153	0.559634	0.776923
C101	C	0.914917	0.109285	0.324553
C102	C	1.414917	0.609285	0.824553
C103	C	0.863140	0.154986	0.284671
C104	C	1.363140	0.654986	0.784671
C105	C	0.867606	0.151034	0.197164
C106	C	1.367606	0.651034	0.697164
C107	C	0.898728	0.123600	0.588963
C108	C	1.398728	0.623600	1.088963
C109	C	0.894268	0.127551	0.676476
C110	C	1.394268	0.627551	1.176476
C111	C	1.002281	0.032197	0.668722
C112	C	1.502281	0.532197	1.168722
C113	C	1.006745	0.028252	0.581213
C114	C	1.506745	0.528252	1.081213
C115	C	0.954965	0.073950	0.541339
C116	C	1.454965	0.573950	1.041339
C117	C	0.910349	0.113323	0.414002
C118	C	1.410349	0.613323	0.914002
C119	C	0.959530	0.069908	0.451892
C120	C	1.459530	0.569908	0.951892
H121	H	0.168232	0.093216	0.053197
H122	H	0.668232	0.593216	0.553197
Cl123	Cl	0.839654	0.175743	0.473883
Cl124	Cl	1.339654	0.675743	0.973883
H125	H	0.946818	-0.126511	-0.204882
H126	H	1.446818	0.373489	0.295118
H127	H	0.415930	0.095879	0.031642
H128	H	0.915930	0.595879	0.531642
Cl129	Cl	0.946055	-0.276256	-0.238274
Cl130	Cl	1.446055	0.223744	0.261726
H131	H	0.930502	-0.246253	0.070255
H132	H	1.430502	0.253747	0.570255
H133	H	0.701655	0.090033	-0.187318
H134	H	1.201655	0.590033	0.312682
H135	H	0.932700	-0.114137	0.070114
H136	H	1.432700	0.385863	0.570114
H137	H	0.318040	0.094925	0.042449
H138	H	0.818040	0.594925	0.542449
Cl139	Cl	0.517743	0.102042	0.133294
Cl140	Cl	1.017743	0.602042	0.633294
H141	H	0.551847	0.088323	-0.176573
H142	H	1.051847	0.588323	0.323427
Cl143	Cl	0.352139	0.081217	-0.267413
Cl144	Cl	0.852139	0.581217	0.232587
Cl145	Cl	0.923831	-0.540505	0.104162
Cl146	Cl	1.423831	-0.040505	0.604162
Cl147	Cl	0.792438	0.217403	0.344547
Cl148	Cl	1.292438	0.717403	0.844547
Cl149	Cl	0.941379	-0.555893	-0.237959
Cl150	Cl	1.441379	-0.055893	0.262041
H151	H	0.825447	0.188246	0.164697
H152	H	1.325447	0.688246	0.664697
H153	H	1.005315	0.029479	0.413109
H154	H	1.505315	0.529479	0.913109
Cl155	Cl	0.165745	0.079095	-0.254045
Cl156	Cl	0.665745	0.579095	0.245955
Cl157	Cl	0.473970	0.086062	-0.200641
Cl158	Cl	0.973970	0.586062	0.299359
H159	H	0.856569	0.160811	0.556504
H160	H	1.356569	0.660811	1.056504
Cl161	Cl	0.938616	-0.720253	-0.237768
Cl162	Cl	1.438616	-0.220253	0.262232
Cl163	Cl	1.067368	-0.025252	0.718855
Cl164	Cl	1.567368	0.474748	1.218855
H165	H	0.923072	-0.690254	0.070765
H166	H	1.423072	-0.190254	0.570765
Cl167	Cl	0.704137	0.104155	0.119926
Cl168	Cl	1.204137	0.604155	0.619926
Cl169	Cl	0.823565	0.189977	0.736349
Cl170	Cl	1.323565	0.689977	1.236349
Cl171	Cl	1.046327	-0.006734	0.129545
Cl172	Cl	1.546327	0.493266	0.629545
H173	H	1.013309	0.022421	0.309390
H174	H	1.513309	0.522421	0.809390
Cl175	Cl	1.077444	-0.034167	0.521335
Cl176	Cl	1.577444	0.465833	1.021335
