data_functionalizedCrystal
_audit_creation_method	'MofGen! by Chris Wilmer'
_symmetry_space_group_name_H-M	'P1'
_symmetry_Int_Tables_number	1
_symmetry_cell_setting	triclinic
loop_
_symmetry_equiv_pos_as_xyz
  x,y,z
_cell_length_a	18.101398
_cell_length_b	11.169416
_cell_length_c	11.169409
_cell_angle_alpha	90.030874
_cell_angle_beta	90.028498
_cell_angle_gamma	90.005607
loop_
_atom_site_label
_atom_site_type_symbol
_atom_site_fract_x
_atom_site_fract_y
_atom_site_fract_z
Zn1	Zn	1.132258	-0.477861	0.678833
Zn2	Zn	1.632258	0.022139	1.178833
Zn3	Zn	1.132190	-0.678602	0.478155
Zn4	Zn	1.632190	-0.178602	0.978155
Zn5	Zn	1.008408	-0.477915	0.478137
Zn6	Zn	1.508408	0.022085	0.978137
Zn7	Zn	1.008413	-0.678485	0.678769
Zn8	Zn	1.508413	-0.178485	1.178769
O9	O	1.070317	-0.578216	0.578473
O10	O	1.570317	-0.078216	1.078473
O11	O	1.235882	-0.504517	0.652246
O12	O	1.735882	-0.004517	1.152246
O13	O	1.115740	-0.652052	0.310202
O14	O	1.615740	-0.152052	0.810202
O15	O	1.024864	-0.309958	0.504778
O16	O	1.524864	0.190042	1.004778
O17	O	1.235832	-0.652000	0.504809
O18	O	1.735832	-0.152000	1.004809
O19	O	1.115856	-0.309919	0.652229
O20	O	1.615856	0.190081	1.152229
O21	O	1.024798	-0.504608	0.310189
O22	O	1.524798	-0.004608	0.810189
O23	O	0.904776	-0.504494	0.504717
O24	O	1.404776	-0.004494	1.004717
O25	O	1.024872	-0.651800	0.846727
O26	O	1.524872	-0.151800	1.346727
O27	O	0.904779	-0.651852	0.652121
O28	O	1.404779	-0.151852	1.152121
O29	O	1.115861	-0.504403	0.846774
O30	O	1.615861	-0.004403	1.346774
O31	O	1.115744	-0.846536	0.504748
O32	O	1.615744	-0.346536	1.004748
O33	O	1.024806	-0.846450	0.652138
O34	O	1.524806	-0.346450	1.152138
C35	C	1.070288	-0.890040	0.578464
C36	C	1.570288	-0.390040	1.078464
C37	C	1.070343	-1.023440	0.578500
C38	C	1.570343	-0.523440	1.078500
C39	C	0.877907	-0.578167	0.578411
C40	C	1.377907	-0.078167	1.078411
C41	C	0.795593	-0.578175	0.578412
C42	C	1.295593	-0.078175	1.078412
C43	C	0.496502	-0.578250	0.578513
C44	C	0.996502	-0.078250	1.078513
C45	C	0.527800	-0.485073	0.486223
C46	C	1.027800	0.014927	0.986223
C47	C	0.613418	-0.485323	0.485829
C48	C	1.113418	0.014677	0.985829
C49	C	0.644884	-0.578212	0.578463
C50	C	1.144884	-0.078212	1.078463
C51	C	0.613793	-0.704644	0.543918
C52	C	1.113793	-0.204644	1.043918
C53	C	0.528148	-0.704127	0.543277
C54	C	1.028148	-0.204127	1.043277
C55	C	0.528115	-0.546093	0.705565
C56	C	1.028115	-0.046093	1.205565
C57	C	0.613765	-0.543278	0.704872
C58	C	1.113765	-0.043278	1.204872
C59	C	0.728744	-0.578198	0.578437
C60	C	1.228744	-0.078198	1.078437
C61	C	0.412642	-0.578272	0.578536
C62	C	0.912642	-0.078272	1.078536
C63	C	1.263479	-0.578265	0.578537
C64	C	1.763479	-0.078265	1.078537
C65	C	1.345793	-0.578287	0.578564
C66	C	1.845793	-0.078287	1.078564
C67	C	1.070374	-0.578082	0.891516
C68	C	1.570374	-0.078082	1.391516
C69	C	1.070399	-0.578026	1.024916
C70	C	1.570399	-0.078026	1.524916
C71	C	1.070367	-0.265173	0.578509
C72	C	1.570367	0.234827	1.078509
C73	C	1.070388	-0.131773	0.578524
C74	C	1.570388	0.368227	1.078524
C75	C	1.070303	-0.578262	0.266649
C76	C	1.570303	-0.078262	0.766649
C77	C	1.070423	-0.577981	0.133249
C78	C	1.570423	-0.077981	0.633249
H79	H	0.634439	-0.391568	0.507481
H80	H	1.134439	0.108432	1.007481
H81	H	0.635188	-0.606196	0.777318
H82	H	1.135188	-0.106196	1.277318
H83	H	0.635210	-0.732385	0.452040
H84	H	1.135210	-0.232385	0.952040
H85	H	0.634090	-0.450238	0.730920
H86	H	1.134090	0.049762	1.230920
Cl87	Cl	0.496011	-0.339875	0.519278
Cl88	Cl	0.996011	0.160125	1.019278
H89	H	0.507877	-0.613960	0.774330
H90	H	1.007877	-0.113960	1.274330
H91	H	0.506251	-0.506092	0.392626
H92	H	1.006251	-0.006092	0.892626
H93	H	0.634176	-0.775929	0.609035
H94	H	1.134176	-0.275929	1.109035
H95	H	0.633872	-0.506583	0.391684
H96	H	1.133872	-0.006583	0.891684
Cl97	Cl	0.494785	-0.406224	0.754059
Cl98	Cl	0.994785	0.093776	1.254059
H99	H	0.508138	-0.731395	0.450396
H100	H	1.008138	-0.231395	0.950396
Cl101	Cl	0.496180	-0.814947	0.642523
Cl102	Cl	0.996180	-0.314947	1.142523
