data_functionalizedCrystal
_audit_creation_method	'MofGen! by Chris Wilmer'
_symmetry_space_group_name_H-M	'P1'
_symmetry_Int_Tables_number	1
_symmetry_cell_setting	triclinic
loop_
_symmetry_equiv_pos_as_xyz
  x,y,z
_cell_length_a	6.817900
_cell_length_b	17.982959
_cell_length_c	11.168152
_cell_angle_alpha	94.260703
_cell_angle_beta	108.508980
_cell_angle_gamma	102.451857
loop_
_atom_site_label
_atom_site_type_symbol
_atom_site_fract_x
_atom_site_fract_y
_atom_site_fract_z
V1	V	-4.079256	-0.105424	-0.394227
V2	V	-3.579256	0.394576	0.105773
O3	O	-4.070938	0.005054	-0.386180
O4	O	-3.570938	0.505054	0.113820
O5	O	-4.025442	-0.209027	-0.392052
O6	O	-3.525442	0.290973	0.107948
O7	O	-4.056017	-0.103808	-0.565924
O8	O	-3.556017	0.396192	-0.065924
O9	O	-4.040152	-0.100893	-0.211104
O10	O	-3.540152	0.399107	0.288896
V11	V	-4.560325	-0.092209	-0.372260
V12	V	-4.060325	0.407791	0.127740
O13	O	-4.345897	-0.134412	-0.442412
O14	O	-3.845897	0.365588	0.057588
O15	O	-4.743880	-0.063221	-0.324075
O16	O	-4.243880	0.436779	0.175925
O17	O	-4.390931	0.011394	-0.374435
O18	O	-3.890931	0.511394	0.125565
O19	O	-4.686039	-0.202687	-0.380307
O20	O	-4.186039	0.297313	0.119693
O21	O	-4.716825	-0.096740	-0.555383
O22	O	-4.216825	0.403260	-0.055383
O23	O	-4.360356	-0.093825	-0.200563
O24	O	-3.860356	0.406175	0.299437
C25	C	-3.868312	-0.234283	-0.385968
C26	C	-3.368312	0.265717	0.114032
C27	C	-3.905768	-0.318979	-0.385334
C28	C	-3.405768	0.181021	0.114666
C29	C	-4.106208	-0.362651	-0.391355
C30	C	-3.606208	0.137349	0.108645
C31	C	-4.141394	-0.442233	-0.390767
C32	C	-3.641394	0.057767	0.109233
C33	C	-3.976132	-0.478141	-0.384150
C34	C	-3.476132	0.021859	0.115850
C35	C	-3.775678	-0.434464	-0.378133
C36	C	-3.275678	0.065536	0.121867
C37	C	-3.740500	-0.354884	-0.378730
C38	C	-3.240500	0.145116	0.121270
C39	C	-3.917546	-0.755400	-0.375728
C40	C	-3.417546	-0.255400	0.124272
C41	C	-3.952739	-0.834985	-0.375128
C42	C	-3.452739	-0.334985	0.124872
C43	C	-4.318440	-0.842748	-0.387765
C44	C	-3.818440	-0.342748	0.112235
C45	C	-4.283261	-0.763168	-0.388362
C46	C	-3.783261	-0.263168	0.111638
C47	C	-4.082815	-0.719499	-0.382352
C48	C	-3.582815	-0.219499	0.117648
C49	C	-4.044666	-0.633208	-0.382991
C50	C	-3.544666	-0.133208	0.117009
C51	C	-4.014274	-0.564430	-0.383501
C52	C	-3.514274	-0.064430	0.116499
C53	C	-3.907312	-0.100064	-0.607757
C54	C	-3.407312	0.399936	-0.107757
C55	C	-3.969560	-0.099428	-0.748125
C56	C	-3.469560	0.400572	-0.248125
C57	C	-3.823523	-0.095531	-0.804576
C58	C	-3.323523	0.404469	-0.304576
C59	C	-3.887855	-0.094873	-0.949653
C60	C	-3.387855	0.405127	-0.449653
C61	C	-4.211403	0.036646	-0.380516
C62	C	-3.711403	0.536646	0.119484
C63	C	-4.153186	0.121342	-0.381157
C64	C	-3.653186	0.621342	0.118843
C65	C	-4.172402	-0.097571	-0.158723
C66	C	-3.672402	0.402429	0.341277
C67	C	-4.089393	-0.098203	-0.018354
C68	C	-3.589393	0.401797	0.481646
H69	H	-3.577286	-0.319328	-0.373833
H70	H	-3.077286	0.180672	0.126167
Cl71	Cl	-4.236137	-0.103834	-0.839322
Cl72	Cl	-3.736137	0.396166	-0.339322
Cl73	Cl	-3.665554	-0.700510	-0.368161
Cl74	Cl	-3.165554	-0.200510	0.131839
H75	H	-3.650871	-0.092685	-0.745503
H76	H	-3.150871	0.407315	-0.245503
H77	H	-4.240781	-0.333419	-0.396731
H78	H	-3.740781	0.166581	0.103269
Cl79	Cl	-3.694967	-0.089714	-1.024633
Cl80	Cl	-3.194967	0.410286	-0.524633
Cl81	Cl	-3.567923	-0.479607	-0.369822
Cl82	Cl	-3.067923	0.020393	0.130178
H83	H	-4.214325	-0.101540	-0.969792
H84	H	-3.714325	0.398460	-0.469792
Cl85	Cl	-4.491021	-0.718029	-0.396664
Cl86	Cl	-3.991021	-0.218029	0.103336
Cl87	Cl	-4.570439	-0.897652	-0.395325
Cl88	Cl	-4.070439	-0.397652	0.104675
Cl89	Cl	-3.744964	-0.880125	-0.366810
Cl90	Cl	-3.244964	-0.380125	0.133190
Cl91	Cl	-4.393383	-0.497130	-0.398333
Cl92	Cl	-3.893383	0.002870	0.101667
