data_functionalizedCrystal
_audit_creation_method	'MofGen! by Chris Wilmer'
_symmetry_space_group_name_H-M	'P1'
_symmetry_Int_Tables_number	1
_symmetry_cell_setting	triclinic
loop_
_symmetry_equiv_pos_as_xyz
  x,y,z
_cell_length_a	27.731994
_cell_length_b	27.732048
_cell_length_c	10.868271
_cell_angle_alpha	89.989927
_cell_angle_beta	90.001770
_cell_angle_gamma	82.631595
loop_
_atom_site_label
_atom_site_type_symbol
_atom_site_fract_x
_atom_site_fract_y
_atom_site_fract_z
O1	O	0.640944	0.057393	-0.102160
O2	O	0.500147	0.066165	-0.102203
O3	O	0.574918	-0.008619	-0.102157
O4	O	0.566173	0.132177	-0.102206
O5	O	0.574912	-0.008621	0.102488
O6	O	0.500141	0.066163	0.102442
O7	O	0.640938	0.057390	0.102485
Zn8	Zn	0.570539	0.061776	0.134955
Zn9	Zn	0.570547	0.061779	-0.134673
O10	O	0.566167	0.132174	0.102439
C11	C	0.482137	0.065984	0.000114
C12	C	0.428480	0.065442	0.000099
C13	C	0.574732	-0.026627	0.000169
C14	C	0.574179	-0.080282	0.000179
C15	C	0.095758	0.062024	0.111700
C16	C	-0.105900	0.059963	0.111714
O17	O	-0.131975	0.059674	0.206585
N18	N	-0.131111	0.059708	0.000163
C19	C	-0.105905	0.059966	-0.111400
O20	O	-0.131975	0.059697	-0.206282
C21	C	0.095753	0.062024	-0.111414
C22	C	0.120961	0.062283	0.000145
C23	C	0.120967	0.062283	0.223250
C24	C	0.171378	0.062801	0.223245
C25	C	0.196581	0.063060	0.111690
C26	C	0.171372	0.062801	0.000140
C27	C	0.120959	0.062278	-0.222976
C28	C	0.171377	0.062792	-0.222969
C29	C	0.196585	0.063051	-0.111410
C30	C	0.246986	0.063579	-0.111419
N31	N	0.272198	0.063833	0.000132
C32	C	0.246995	0.063574	0.111687
C33	C	-0.211778	0.058886	-0.111386
C34	C	-0.262192	0.058373	-0.111383
C35	C	-0.262184	0.058369	0.111733
C36	C	-0.211769	0.058886	0.111728
C37	C	-0.186566	0.059141	0.000166
C38	C	0.352862	0.064662	0.111669
C39	C	0.403277	0.065182	0.111654
C40	C	0.403265	0.065184	-0.111461
C41	C	0.352853	0.064666	-0.111447
C42	C	0.327654	0.064404	0.000128
O43	O	0.273094	0.063862	-0.206240
O44	O	0.273076	0.063832	0.206554
C45	C	0.045347	0.061506	0.111704
C46	C	0.020139	0.061247	0.000155
C47	C	0.045342	0.061507	-0.111400
C48	C	-0.030275	0.060734	0.000158
C49	C	-0.055478	0.060475	0.111712
C50	C	-0.030267	0.060729	0.223264
C51	C	0.020145	0.061247	0.223259
C52	C	0.020130	0.061252	-0.222952
C53	C	-0.030281	0.060735	-0.222938
C54	C	-0.055484	0.060475	-0.111383
C55	C	0.614884	-0.419105	0.000128
C56	C	0.612833	-0.620764	0.000111
O57	O	0.650055	-0.652027	0.000068
N58	N	0.568496	-0.639879	0.000098
C59	C	0.524670	-0.608576	0.000082
O60	O	0.486912	-0.629462	0.000059
C61	C	0.526721	-0.406918	0.000091
C62	C	0.571061	-0.387805	0.000116
C63	C	0.659220	-0.399992	0.000152
C64	C	0.659732	-0.349580	0.000163
C65	C	0.615908	-0.318281	0.000151
C66	C	0.571573	-0.337394	0.000127
C67	C	0.482895	-0.375615	0.000066
C68	C	0.483412	-0.325198	0.000066
C69	C	0.527751	-0.306086	0.000090
C70	C	0.528262	-0.255683	0.000126
N71	N	0.572598	-0.236567	0.000138
C72	C	0.616421	-0.267867	0.000151
C73	C	0.523596	-0.714450	0.000080
C74	C	0.523083	-0.764864	0.000080
C75	C	0.611246	-0.777049	0.000106
C76	C	0.611759	-0.726633	0.000115
C77	C	0.567932	-0.695335	0.000092
C78	C	0.617494	-0.161998	0.000175
C79	C	0.618002	-0.111581	0.000191
C80	C	0.529839	-0.099401	0.000159
C81	C	0.529331	-0.149813	0.000149
C82	C	0.573162	-0.181111	0.000153
O83	O	0.491060	-0.224391	0.000155
O84	O	0.654174	-0.246971	0.000147
C85	C	0.614372	-0.469517	0.000117
C86	C	0.570036	-0.488629	0.000094
C87	C	0.526213	-0.457330	0.000081
C88	C	0.569523	-0.539043	0.000094
C89	C	0.613346	-0.570343	0.000106
C90	C	0.657683	-0.551228	0.000118
C91	C	0.658195	-0.500816	0.000129
C92	C	0.481876	-0.476445	0.000069
C93	C	0.481367	-0.526857	0.000059
C94	C	0.525191	-0.558157	0.000072
C95	C	0.658949	0.057571	0.000165
C96	C	0.712605	0.058114	0.000172
C97	C	0.566353	0.150182	0.000110
C98	C	0.566906	0.203837	0.000092
N99	N	0.570537	0.061773	0.318969
N100	N	0.570552	0.061778	-0.318687
C101	C	0.570544	0.061778	0.569975
C102	C	0.570538	0.061777	0.430298
H103	H	0.423799	0.065395	0.202502
O104	O	0.328325	0.064474	0.219972
C105	C	0.293380	0.106062	0.226654
H106	H	0.283887	0.119946	0.129794
H107	H	0.259236	0.096280	0.273892
H108	H	0.308758	0.135588	0.281680
O109	O	0.096435	0.061958	-0.331266
C110	C	0.073078	0.019771	-0.337935
H111	H	0.067452	0.005735	-0.241070
H112	H	0.036326	0.028824	-0.385168
H113	H	0.096567	-0.009358	-0.392957
H114	H	0.493226	-0.165375	0.000163
H115	H	0.494160	-0.073908	0.000153
H116	H	0.447722	-0.299716	0.000045
H117	H	0.653186	-0.187475	0.000174
O118	O	0.653773	-0.807526	0.000053
C119	C	0.643806	-0.856119	0.000076
H120	H	0.605850	-0.857758	-0.038662
H121	H	0.671758	-0.879169	-0.059346
H122	H	0.645753	-0.870725	0.098252
O123	O	0.438305	-0.545443	0.000252
C124	C	0.435363	-0.574262	0.106209
H125	H	0.460527	-0.562539	0.180312
H126	H	0.396367	-0.569445	0.141758
H127	H	0.446815	-0.614105	0.082239
H128	H	0.486977	-0.780420	0.000081
H129	H	0.446189	-0.450966	0.000056
O130	O	0.096553	0.061968	0.331703
C131	C	0.114661	0.020208	0.399571
H132	H	0.153191	0.006616	0.367831
H133	H	0.115097	0.029647	0.501617
H134	H	0.090338	-0.009406	0.384145
O135	O	0.044639	0.061581	0.331596
C136	C	0.068020	0.103752	0.338260
H137	H	0.048782	0.132872	0.274944
H138	H	0.066645	0.117812	0.436922
H139	H	0.107538	0.094674	0.308304
H140	H	-0.282713	0.058159	0.202565
H141	H	0.694908	-0.425472	0.000157
O142	O	0.427720	0.065523	-0.219850
C143	C	0.409604	0.107270	-0.287755
H144	H	0.391693	0.136401	-0.222504
H145	H	0.440816	0.121667	-0.338351
H146	H	0.381654	0.097501	-0.357321
O147	O	0.702790	-0.330994	0.000388
C148	C	0.705726	-0.302194	0.106357
H149	H	0.680556	-0.313930	0.180437
H150	H	0.744719	-0.307019	0.141934
H151	H	0.694276	-0.262347	0.082392
O152	O	-0.187378	0.059158	-0.219875
C153	C	-0.220445	0.058812	-0.318318
H154	H	-0.258496	0.073754	-0.285600
H155	H	-0.209132	0.082439	-0.396354
H156	H	-0.220446	0.019963	-0.352606
O157	O	-0.054799	0.060569	-0.331284
C158	C	-0.089764	0.102142	-0.337981
H159	H	-0.078625	0.131573	-0.274691
H160	H	-0.092278	0.116191	-0.436655
H161	H	-0.126662	0.092279	-0.308014
O162	O	0.480975	-0.684118	0.000124
C163	C	0.441738	-0.711807	0.000086
H164	H	0.454302	-0.749532	0.038828
H165	H	0.411054	-0.692988	0.059498
H166	H	0.428131	-0.715289	-0.098094
H167	H	0.693365	-0.576720	0.000134
H168	H	0.694301	-0.485260	0.000149
O169	O	0.654872	-0.708150	0.000072
C170	C	0.693438	-0.746592	0.000117
H171	H	0.680146	-0.780739	-0.038623
H172	H	0.724419	-0.736290	-0.059291
H173	H	0.706935	-0.753833	0.098300
O174	O	-0.054763	0.060389	0.331599
C175	C	-0.078140	0.018214	0.338258
H176	H	-0.058895	-0.010898	0.274963
H177	H	-0.076770	0.004146	0.436925
H178	H	-0.117656	0.027291	0.308274
O179	O	0.195924	0.062981	0.331537
C180	C	0.230865	0.021390	0.338243
H181	H	0.240353	0.007511	0.241391
H182	H	0.265012	0.031166	0.385474
H183	H	0.215486	-0.008137	0.393285
O184	O	-0.286722	0.058061	-0.219672
C185	C	-0.310082	0.015877	-0.226352
H186	H	-0.315706	0.001837	-0.129492
H187	H	-0.346835	0.024935	-0.273578
H188	H	-0.286597	-0.013250	-0.281387
H189	H	0.446789	-0.391167	0.000039
H190	H	0.191894	0.063000	-0.313819
O191	O	-0.187293	0.059047	0.220127
C192	C	-0.193835	0.017046	0.288017
H193	H	-0.203647	-0.012365	0.222751
H194	H	-0.158739	0.003324	0.338631
H195	H	-0.224409	0.026217	0.357565
O196	O	0.328320	0.064354	-0.219736
C197	C	0.304966	0.022166	-0.226416
H198	H	0.299345	0.008124	-0.129557
H199	H	0.268213	0.031219	-0.273640
H200	H	0.328455	-0.006958	-0.281453
O201	O	0.044530	0.061526	-0.331432
C202	C	0.011464	0.061177	-0.429876
H203	H	-0.026588	0.076115	-0.397158
H204	H	0.022774	0.084807	-0.507910
H205	H	0.011467	0.022329	-0.464166
O206	O	0.661118	-0.093097	0.000156
C207	C	0.699686	-0.131537	0.000190
H208	H	0.686397	-0.165683	-0.038564
H209	H	0.730667	-0.121229	-0.059212
H210	H	0.713183	-0.138783	0.098371
