data_functionalizedCrystal
_audit_creation_method	'MofGen! by Chris Wilmer'
_symmetry_space_group_name_H-M	'P1'
_symmetry_Int_Tables_number	1
_symmetry_cell_setting	triclinic
loop_
_symmetry_equiv_pos_as_xyz
  x,y,z
_cell_length_a	12.759401
_cell_length_b	12.594516
_cell_length_c	12.759393
_cell_angle_alpha	89.970826
_cell_angle_beta	89.980326
_cell_angle_gamma	90.015216
loop_
_atom_site_label
_atom_site_type_symbol
_atom_site_fract_x
_atom_site_fract_y
_atom_site_fract_z
Zn1	Zn	1.606245	-0.423703	-0.594033
Zn2	Zn	1.606135	-0.601722	-0.418361
Zn3	Zn	1.430547	-0.423755	-0.418369
Zn4	Zn	1.430532	-0.601637	-0.593999
O5	O	1.518365	-0.512704	-0.506191
O6	O	1.753252	-0.447331	-0.570741
O7	O	1.582804	-0.578172	-0.271341
O8	O	1.453906	-0.274803	-0.441689
O9	O	1.753171	-0.578121	-0.441675
O10	O	1.582991	-0.274764	-0.570749
O11	O	1.453800	-0.447421	-0.271347
O12	O	1.283524	-0.447338	-0.441656
O13	O	1.453880	-0.577976	-0.741024
O14	O	1.283513	-0.578027	-0.570690
O15	O	1.582976	-0.447248	-0.741050
O16	O	1.582789	-0.750657	-0.441642
O17	O	1.453773	-0.750594	-0.570682
C18	C	1.245397	-0.512680	-0.506170
C19	C	1.128621	-0.512695	-0.506187
C20	C	1.073734	-0.444556	-0.439122
C21	C	0.964010	-0.444581	-0.439135
C22	C	0.964069	-0.580886	-0.573288
C23	C	1.073791	-0.580866	-0.573269
C24	C	0.813998	-0.406431	-0.315320
C25	C	0.759108	-0.338276	-0.248264
C26	C	0.794718	-0.234394	-0.232301
C27	C	0.885218	-0.198646	-0.283409
C28	C	0.940103	-0.266795	-0.350472
C29	C	0.904494	-0.370692	-0.366416
C30	C	1.223805	-0.619005	-0.697085
C31	C	1.278692	-0.687150	-0.764155
C32	C	1.243083	-0.791034	-0.780129
C33	C	1.152580	-0.826779	-0.729040
C34	C	1.097693	-0.758633	-0.661970
C35	C	1.133309	-0.654750	-0.645994
C36	C	1.518296	-0.789245	-0.506180
C37	C	1.518363	-0.907551	-0.506211
C38	C	1.448184	-0.976808	-0.576347
C39	C	1.422585	-1.047678	-0.480480
C40	C	1.544058	-1.047480	-0.602094
C41	C	1.492713	-0.976862	-0.410293
C42	C	1.614230	-0.976657	-0.531973
C43	C	1.588667	-1.047495	-0.436040
C44	C	1.792398	-0.512729	-0.506211
C45	C	1.909175	-0.512740	-0.506220
C46	C	1.518438	-0.512597	-0.780224
C47	C	1.518469	-0.512551	-0.897001
C48	C	1.518463	-0.235083	-0.506224
C49	C	1.518504	-0.116778	-0.506238
C50	C	1.451321	-0.444456	-0.951865
C51	C	1.451346	-0.444423	-1.061589
C52	C	1.585676	-0.580583	-1.061575
C53	C	1.585645	-0.580620	-0.951853
C54	C	1.327496	-0.406329	-1.211538
C55	C	1.260357	-0.338218	-1.266407
C56	C	1.244255	-0.234372	-1.230812
C57	C	1.295308	-0.198616	-1.140352
C58	C	1.362455	-0.266721	-1.085489
C59	C	1.378536	-0.370582	-1.121082
C60	C	1.709496	-0.618703	-0.801902
C61	C	1.776649	-0.686804	-0.747037
C62	C	1.792761	-0.790652	-0.782629
C63	C	1.741727	-0.826405	-0.873093
C64	C	1.674575	-0.758303	-0.927958
C65	C	1.658460	-0.654457	-0.892358
C66	C	1.518352	-0.512735	-0.233223
C67	C	1.518524	-0.512481	-0.116447
H68	H	1.118373	-0.389045	-0.384501
H69	H	1.404025	-0.237608	-1.011841
O70	O	1.721593	-0.935541	-0.560882
H71	H	1.715740	-0.885805	-0.632479
O72	O	1.619514	-0.796871	-1.025521
H73	H	1.678672	-0.820784	-1.084773
H74	H	1.189589	-0.178915	-1.275494
H75	H	1.754851	-0.910964	-0.902077
O76	O	1.376341	-0.648583	-0.819191
H77	H	1.443855	-0.698869	-0.795872
H78	H	1.470943	-0.945971	-0.329194
O79	O	1.692805	-0.506559	-0.763580
H80	H	1.717990	-0.449857	-0.825271
H81	H	1.648075	-1.078337	-0.376671
H82	H	1.013780	-0.237686	-0.392092
O83	O	1.378863	-0.371046	-0.892705
H84	H	1.425894	-0.316909	-0.842738
O85	O	0.923625	-0.086596	-0.266187
H86	H	0.862110	-0.029653	-0.291137
O87	O	1.344856	-0.518344	-1.249921
H88	H	1.298089	-0.531752	-1.322047
H89	H	1.565733	-1.078499	-0.683171
H90	H	1.341578	-1.078897	-0.458712
O91	O	1.278337	-0.086444	-1.102244
H92	H	1.223205	-0.045037	-1.155688
H93	H	1.218790	-0.367340	-1.340060
H94	H	1.847453	-0.846096	-0.737954
H95	H	1.640368	-0.636002	-1.106248
O96	O	1.369436	-0.935674	-0.654790
H97	H	1.329768	-1.003683	-0.693326
O98	O	1.831692	-0.648253	-0.649458
H99	H	1.809194	-0.564604	-0.633911
H100	H	0.750019	-0.178901	-0.177702
H101	H	0.785002	-0.491024	-0.328301
O102	O	0.661517	-0.376834	-0.193115
H103	H	0.645989	-0.460533	-0.215456
H104	H	1.287774	-0.846512	-0.834757
O105	O	1.000087	-0.797185	-0.606846
H106	H	0.984548	-0.880875	-0.629210
H107	H	1.123581	-0.911367	-0.742053
O108	O	1.262207	-0.506950	-0.679855
H109	H	1.334349	-0.493538	-0.726664
H110	H	0.919414	-0.636388	-0.627905
