data_functionalizedCrystal
_audit_creation_method	'MofGen! by Chris Wilmer'
_symmetry_space_group_name_H-M	'P1'
_symmetry_Int_Tables_number	1
_symmetry_cell_setting	triclinic
loop_
_symmetry_equiv_pos_as_xyz
  x,y,z
_cell_length_a	19.805407
_cell_length_b	19.805405
_cell_length_c	19.805399
_cell_angle_alpha	90.030709
_cell_angle_beta	89.989546
_cell_angle_gamma	89.967368
loop_
_atom_site_label
_atom_site_type_symbol
_atom_site_fract_x
_atom_site_fract_y
_atom_site_fract_z
Zn1	Zn	1.034718	0.269357	-0.382595
Zn2	Zn	1.034638	0.382548	-0.269404
Zn3	Zn	0.921538	0.269391	-0.269433
Zn4	Zn	0.921496	0.382522	-0.382563
O5	O	0.978097	0.325955	-0.325999
O6	O	1.129424	0.284369	-0.367582
O7	O	1.019619	0.367563	-0.174691
O8	O	0.936602	0.174670	-0.284470
O9	O	1.129365	0.367530	-0.284420
O10	O	1.019755	0.174645	-0.367610
O11	O	0.936525	0.284427	-0.174712
O12	O	0.826816	0.284401	-0.284438
O13	O	0.936531	0.367485	-0.477284
O14	O	0.826785	0.367518	-0.367555
O15	O	1.019715	0.284344	-0.477308
O16	O	1.019578	0.477261	-0.284389
O17	O	0.936454	0.477242	-0.367527
C18	C	0.802241	0.325961	-0.325997
C19	C	0.727009	0.325980	-0.326012
C20	C	0.978021	0.501811	-0.325966
C21	C	0.978051	0.577043	-0.325975
C22	C	0.978127	0.325908	-0.502542
C23	C	0.978140	0.325888	-0.577774
C24	C	1.154640	0.325949	-0.326001
C25	C	1.229872	0.325946	-0.326002
C26	C	1.265248	0.282650	-0.369299
C27	C	1.335936	0.282657	-0.369303
C28	C	1.371248	0.325957	-0.326007
C29	C	1.335867	0.369258	-0.282708
C30	C	1.265180	0.369254	-0.282708
C31	C	1.620940	0.369274	-0.282709
C32	C	1.691632	0.369273	-0.282711
C33	C	1.691697	0.282677	-0.369304
C34	C	1.621010	0.282673	-0.369304
C35	C	1.585635	0.325976	-0.326008
C36	C	1.508987	0.325970	-0.326005
C37	C	1.447895	0.325961	-0.326006
C38	C	0.978192	0.149412	-0.326046
C39	C	0.978233	0.074180	-0.326067
C40	C	1.021376	0.612374	-0.282730
C41	C	1.021404	0.683063	-0.282745
C42	C	0.978104	0.718418	-0.326002
C43	C	0.934777	0.683081	-0.369251
C44	C	0.934752	0.612394	-0.369239
C45	C	0.934877	0.968155	-0.369301
C46	C	0.934904	1.038847	-0.369308
C47	C	1.021529	1.038823	-0.282807
C48	C	1.021504	0.968136	-0.282795
C49	C	0.978180	0.932805	-0.326047
C50	C	0.978150	0.856157	-0.326031
C51	C	0.978130	0.795065	-0.326015
C52	C	0.934885	0.282594	-0.613128
C53	C	0.934894	0.282581	-0.683817
C54	C	0.978162	0.325858	-0.719149
C55	C	1.021419	0.369156	-0.683790
C56	C	1.021406	0.369172	-0.613102
C57	C	1.021473	0.369093	-0.968863
C58	C	1.021484	0.369072	-1.039555
C59	C	0.934961	0.282502	-1.039577
C60	C	0.934948	0.282518	-0.968890
C61	C	0.978202	0.325818	-0.933537
C62	C	0.978190	0.325833	-0.856888
C63	C	0.978178	0.325841	-0.795796
C64	C	0.978107	0.325953	-0.150143
C65	C	0.978225	0.325782	-0.074911
H66	H	1.236502	0.247386	-0.404552
H67	H	0.899717	0.247275	-0.940126
O68	O	1.068091	0.574247	-0.236082
H69	H	1.060796	0.519158	-0.243337
O70	O	1.068132	0.721172	-0.236101
H71	H	1.056543	0.707658	-0.182968
H72	H	0.899669	0.247330	-0.712599
H73	H	1.364736	0.247403	-0.404562
H74	H	1.720381	0.404536	-0.247453
O75	O	1.373954	0.415956	-0.236008
H76	H	1.360364	0.469076	-0.247605
H77	H	0.899740	0.247247	-1.068371
O78	O	0.888136	0.930065	-0.415945
H79	H	0.918387	0.897813	-0.450414
H80	H	1.592147	0.404532	-0.247453
O81	O	0.888202	1.076987	-0.415966
H82	H	0.899779	1.063383	-0.469097
O83	O	1.227019	0.415947	-0.236005
H84	H	1.263447	0.446051	-0.205893
O85	O	1.582922	0.235972	-0.416001
H86	H	1.619397	0.205870	-0.446114
O87	O	1.729849	0.235974	-0.416010
H88	H	1.784935	0.243253	-0.408745
H89	H	0.899524	0.711873	-0.404474
O90	O	0.888216	0.235914	-0.575025
H91	H	0.918525	0.201480	-0.542836
O92	O	0.888016	0.574289	-0.415880
H93	H	0.918276	0.542037	-0.450342
H94	H	1.056720	0.404316	-1.068321
O95	O	1.068210	0.930001	-0.236145
H96	H	1.098348	0.966446	-0.206081
H97	H	1.056808	1.067598	-0.247592
H98	H	1.056685	0.404358	-0.940087
H99	H	1.056633	0.404421	-0.584318
H100	H	1.056645	0.404397	-0.712563
