data_functionalizedCrystal
_audit_creation_method	'MofGen! by Chris Wilmer'
_symmetry_space_group_name_H-M	'P1'
_symmetry_Int_Tables_number	1
_symmetry_cell_setting	triclinic
loop_
_symmetry_equiv_pos_as_xyz
  x,y,z
_cell_length_a	6.817900
_cell_length_b	11.102289
_cell_length_c	9.582906
_cell_angle_alpha	90.973325
_cell_angle_beta	111.207526
_cell_angle_gamma	108.605707
loop_
_atom_site_label
_atom_site_type_symbol
_atom_site_fract_x
_atom_site_fract_y
_atom_site_fract_z
V1	V	-4.142625	-0.175309	-0.466603
O2	O	-4.101066	0.008969	-0.457721
O3	O	-4.119189	-0.348133	-0.463411
O4	O	-4.132968	-0.172373	-0.670104
O5	O	-4.087192	-0.168007	-0.249597
V6	V	-4.617998	-0.153296	-0.440647
O7	O	-4.421761	-0.223598	-0.523538
O8	O	-4.789059	-0.105007	-0.383711
O9	O	-4.418227	0.019528	-0.443838
O10	O	-4.776954	-0.337574	-0.449529
O11	O	-4.790828	-0.160598	-0.657653
O12	O	-4.404449	-0.156231	-0.237145
C13	C	-3.969010	-0.390271	-0.456050
C14	C	-4.031393	-0.531556	-0.454797
C15	C	-4.245206	-0.604396	-0.461674
C16	C	-4.303817	-0.737149	-0.460510
C17	C	-3.934777	-0.724208	-0.445585
C18	C	-3.876175	-0.591459	-0.446760
C19	C	-4.458266	-0.611868	-0.470284
C20	C	-4.516876	-0.744620	-0.469120
C21	C	-3.986584	-0.166071	-0.719706
C22	C	-4.060136	-0.164814	-0.886069
C23	C	-4.231749	0.061660	-0.451195
C24	C	-4.148606	0.202943	-0.452458
C25	C	-4.214174	-0.162538	-0.187536
C26	C	-4.119859	-0.163789	-0.021171
H27	H	-4.451302	-0.558760	-0.364768
C28	C	-4.775159	-0.702672	-0.705163
C29	C	-4.619038	-0.585740	-0.617215
H30	H	-4.874397	-0.686538	-0.795872
H31	H	-4.858535	-0.748215	-0.649941
H32	H	-4.698417	-0.752555	-0.729340
H33	H	-4.695779	-0.535861	-0.593028
H34	H	-4.535653	-0.540177	-0.672448
C35	C	-4.554717	-0.666263	-0.248576
C36	C	-4.576930	-0.778497	-0.331117
H37	H	-4.591775	-0.687180	-0.163378
H38	H	-4.653043	-0.627088	-0.311140
H39	H	-4.404251	-0.608415	-0.215210
H40	H	-4.727401	-0.836342	-0.364493
H41	H	-4.478602	-0.817692	-0.268542
H42	H	-3.702082	-0.532159	-0.441178
H43	H	-3.808413	-0.772998	-0.439043
H44	H	-4.656073	-0.802361	-0.579989
