data_functionalizedCrystal
_audit_creation_method	'MofGen! by Chris Wilmer'
_symmetry_space_group_name_H-M	'P1'
_symmetry_Int_Tables_number	1
_symmetry_cell_setting	triclinic
loop_
_symmetry_equiv_pos_as_xyz
  x,y,z
_cell_length_a	19.188930
_cell_length_b	23.532357
_cell_length_c	17.666332
_cell_angle_alpha	89.987974
_cell_angle_beta	89.976766
_cell_angle_gamma	82.986534
loop_
_atom_site_label
_atom_site_type_symbol
_atom_site_fract_x
_atom_site_fract_y
_atom_site_fract_z
O1	O	0.925907	0.071104	-0.063201
O2	O	1.425907	0.571104	0.436799
O3	O	0.722563	0.080675	-0.063150
O4	O	1.222563	0.580675	0.436850
O5	O	0.830385	-0.007031	-0.063161
O6	O	1.330385	0.492969	0.436839
O7	O	0.818085	0.158810	-0.063189
O8	O	1.318085	0.658810	0.436811
O9	O	0.830366	-0.007036	0.062735
O10	O	1.330366	0.492964	0.562735
O11	O	0.722544	0.080671	0.062747
O12	O	1.222544	0.580671	0.562747
O13	O	0.925888	0.071099	0.062696
O14	O	1.425888	0.571099	0.562696
Cu15	Cu	0.824215	0.075885	0.074217
Cu16	Cu	1.324215	0.575885	0.574217
Cu17	Cu	0.824237	0.075890	-0.074671
Cu18	Cu	1.324237	0.575890	0.425329
O19	O	0.818066	0.158806	0.062707
O20	O	1.318066	0.658806	0.562707
C21	C	0.696544	0.080363	-0.000195
C22	C	1.196544	0.580363	0.499805
C23	C	0.619042	0.079433	-0.000175
C24	C	1.119042	0.579433	0.499825
C25	C	0.573943	0.130896	-0.000196
C26	C	1.073943	0.630896	0.499804
C27	C	0.501122	0.130022	-0.000204
C28	C	1.001122	0.630022	0.499796
C29	C	0.473404	0.077681	-0.000206
C30	C	0.973404	0.577681	0.499794
C31	C	0.518513	0.026211	-0.000182
C32	C	1.018513	0.526211	0.499818
C33	C	0.591333	0.027087	-0.000166
C34	C	1.091333	0.527087	0.499834
N35	N	0.365567	0.037675	-0.043078
N36	N	0.865567	0.537675	0.456922
N37	N	0.296391	0.036847	-0.043095
N38	N	0.796391	0.536847	0.456905
C39	C	0.254004	0.075040	-0.000252
C40	C	0.754004	0.575040	0.499748
N41	N	0.283406	0.114101	0.042598
N42	N	0.783406	0.614101	0.542598
N43	N	0.352587	0.114931	0.042611
N44	N	0.852587	0.614931	0.542611
C45	C	0.394445	0.076726	-0.000223
C46	C	0.894445	0.576726	0.499777
C47	C	0.129944	0.125559	-0.000281
C48	C	0.629944	0.625559	0.499719
C49	C	0.057122	0.124683	-0.000284
C50	C	0.557122	0.624683	0.499716
C51	C	0.074515	0.020871	-0.000270
C52	C	0.574515	0.520871	0.499730
C53	C	0.147335	0.021749	-0.000259
C54	C	0.647335	0.521749	0.499741
C55	C	0.175045	0.074094	-0.000268
C56	C	0.675045	0.574094	0.499732
C57	C	0.830068	-0.028251	-0.000211
C58	C	1.330068	0.471749	0.499789
C59	C	0.829143	-0.091471	-0.000203
C60	C	1.329143	0.408529	0.499797
C61	C	0.823346	-0.483492	-0.068869
C62	C	1.323346	0.016508	0.431131
C63	C	0.822467	-0.542894	-0.068873
C64	C	1.322467	-0.042894	0.431127
O65	O	0.821997	-0.573609	-0.127237
O66	O	1.321997	-0.073609	0.372763
N67	N	0.822021	-0.572608	-0.000248
N68	N	1.322021	-0.072608	0.499752
C69	C	0.822447	-0.542918	0.068387
C70	C	1.322447	-0.042918	0.568387
O71	O	0.821986	-0.573647	0.126757
O72	O	1.321986	-0.073647	0.626757
C73	C	0.823321	-0.483517	0.068390
C74	C	1.323321	0.016483	0.568390
C75	C	0.823774	-0.453806	-0.000240
C76	C	1.323774	0.046194	0.499760
C77	C	0.823799	-0.453781	-0.137493
C78	C	1.323799	0.046219	0.362507
C79	C	0.824679	-0.394384	-0.137489
C80	C	1.324679	0.105616	0.362511
C81	C	0.825107	-0.364698	-0.068860
C82	C	1.325107	0.135302	0.431140
C83	C	0.824655	-0.394409	-0.000236
C84	C	1.324655	0.105591	0.499764
C85	C	0.823742	-0.453827	0.137023
C86	C	1.323742	0.046173	0.637023
C87	C	0.824616	-0.394422	0.137021
C88	C	1.324616	0.105578	0.637021
C89	C	0.825069	-0.364711	0.068391
C90	C	1.325069	0.135289	0.568391
C91	C	0.825963	-0.305326	0.068397
C92	C	1.325963	0.194674	0.568397
N93	N	0.826410	-0.275611	-0.000228
N94	N	1.326410	0.224389	0.499772
C95	C	0.825982	-0.305297	-0.068857
C96	C	1.325982	0.194703	0.431143
C97	C	0.820609	-0.667663	0.068374
C98	C	1.320609	-0.167663	0.568374
C99	C	0.819740	-0.727063	0.068372
C100	C	1.319740	-0.227063	0.568372
C101	C	0.819759	-0.727035	-0.068888
C102	C	1.319759	-0.227035	0.431112
C103	C	0.820633	-0.667634	-0.068885
C104	C	1.320633	-0.167634	0.431115
C105	C	0.821056	-0.637949	-0.000251
C106	C	1.321056	-0.137949	0.499749
C107	C	0.827831	-0.180559	-0.068842
C108	C	1.327831	0.319441	0.431158
C109	C	0.828715	-0.121157	-0.068832
C110	C	1.328715	0.378843	0.431168
C111	C	0.828692	-0.121190	0.068427
C112	C	1.328692	0.378810	0.568427
C113	C	0.827812	-0.180588	0.068417
C114	C	1.327812	0.319412	0.568417
C115	C	0.827380	-0.210270	-0.000224
C116	C	1.327380	0.289730	0.499776
O117	O	0.826431	-0.274573	0.126731
O118	O	1.326431	0.225427	0.626731
O119	O	0.826433	-0.274560	-0.127218
O120	O	1.326433	0.225440	0.372782
C121	C	0.951908	0.071411	-0.000261
C122	C	1.451908	0.571411	0.499739
C123	C	1.029409	0.072342	-0.000286
C124	C	1.529409	0.572342	0.499714
C125	C	0.818383	0.180025	-0.000245
C126	C	1.318383	0.680025	0.499755
C127	C	0.819308	0.243246	-0.000257
C128	C	1.319308	0.743246	0.499743
N129	N	0.824204	0.075880	0.178936
N130	N	1.324204	0.575880	0.678936
N131	N	0.824253	0.075890	-0.179390
N132	N	1.324253	0.575890	0.320610
C133	C	0.871963	0.037063	0.218541
C134	C	1.371963	0.537063	0.718541
C135	C	0.871967	0.037060	0.297789
C136	C	1.371967	0.537060	0.797789
C137	C	0.824219	0.075885	0.337428
C138	C	1.324219	0.575885	0.837428
C139	C	0.776451	0.114705	0.297814
C140	C	1.276451	0.614705	0.797814
C141	C	0.776444	0.114703	0.218568
C142	C	1.276444	0.614703	0.718568
N143	N	0.814971	0.126301	0.461840
N144	N	1.314971	0.626301	0.961840
N145	N	0.814982	0.126301	0.537120
N146	N	1.314982	0.626301	1.037120
C147	C	0.824237	0.075893	0.576192
C148	C	1.324237	0.575893	1.076192
N149	N	0.833495	0.025482	0.537140
N150	N	1.333495	0.525482	1.037140
N151	N	0.833487	0.025482	0.461853
N152	N	1.333487	0.525482	0.961853
C153	C	0.824221	0.075891	0.423357
C154	C	1.324221	0.575891	0.923357
C155	C	0.872003	0.037069	0.701726
C156	C	1.372003	0.537069	1.201726
C157	C	0.872002	0.037065	0.780975
C158	C	1.372002	0.537065	1.280975
C159	C	0.776490	0.114715	0.780999
C160	C	1.276490	0.614715	1.280999
C161	C	0.776487	0.114714	0.701752
C162	C	1.276487	0.614714	1.201752
C163	C	0.824248	0.075891	0.662120
C164	C	1.324248	0.575891	1.162120
H165	H	0.020402	0.166592	-0.000297
H166	H	0.520402	0.666592	0.499703
O167	O	0.635245	-0.022854	-0.000119
O168	O	1.135245	0.477146	0.499881
C169	C	0.705460	-0.010857	-0.000130
C170	C	1.205460	0.489143	0.499870
H171	H	0.707920	0.033868	0.023701
H172	H	1.207920	0.533868	0.523701
H173	H	0.726565	-0.013065	-0.060526
H174	H	1.226565	0.486935	0.439474
C175	C	0.747304	-0.110120	0.019982
C176	C	1.247304	0.389880	0.519982
C177	C	0.750326	-0.055189	0.049258
C178	C	1.250326	0.444811	0.549258
H179	H	0.774981	-0.137467	0.050444
H180	H	1.274981	0.362533	0.550444
H181	H	0.700000	-0.118203	0.019987
H182	H	1.200000	0.381797	0.519987
H183	H	0.764891	-0.111952	-0.030347
H184	H	1.264891	0.388048	0.469653
H185	H	0.732732	-0.053356	0.099583
H186	H	1.232732	0.446644	0.599583
H187	H	0.797629	-0.047106	0.049263
H188	H	1.297629	0.452894	0.549263
O189	O	0.819181	-0.755879	0.135061
O190	O	1.319181	-0.255879	0.635061
C191	C	0.758920	-0.734745	0.176828
C192	C	1.258920	-0.234745	0.676828
H193	H	0.716900	-0.713797	0.136676
H194	H	1.216900	-0.213797	0.636676
H195	H	0.773097	-0.701760	0.219608
H196	H	1.273097	-0.201760	0.719608
C197	C	0.782315	-0.810244	0.268214
C198	C	1.282315	-0.310244	0.768214
C199	C	0.730703	-0.784519	0.218898
C200	C	1.230703	-0.284519	0.718898
H201	H	0.764911	-0.840946	0.294168
H202	H	1.264911	-0.340946	0.794168
H203	H	0.822916	-0.824481	0.240077
H204	H	1.322916	-0.324481	0.740077
H205	H	0.794125	-0.782751	0.303858
H206	H	1.294125	-0.282751	0.803858
H207	H	0.718901	-0.812010	0.183250
H208	H	1.218901	-0.312010	0.683250
H209	H	0.690100	-0.770287	0.247030
H210	H	1.190100	-0.270287	0.747030
O211	O	0.821124	-0.638778	0.135002
O212	O	1.321124	-0.138778	0.635002
C213	C	0.882116	-0.611036	0.139111
C214	C	1.382116	-0.111036	0.639111
H215	H	0.902417	-0.604321	0.079522
H216	H	1.402417	-0.104321	0.579522
H217	H	0.924124	-0.638565	0.172959
H218	H	1.424124	-0.138565	0.672959
C219	C	0.839640	-0.560866	0.251558
C220	C	1.339640	-0.060866	0.751558
C221	C	0.864570	-0.552614	0.178369
C222	C	1.364570	-0.052614	0.678369
H223	H	0.828818	-0.524830	0.275777
H224	H	1.328818	-0.024830	0.775777
H225	H	0.798549	-0.579558	0.248792
H226	H	1.298549	-0.079558	0.748792
H227	H	0.874650	-0.583809	0.279755
H228	H	1.374650	-0.083809	0.779755
H229	H	0.829557	-0.529678	0.150171
H230	H	1.329557	-0.029678	0.650171
H231	H	0.905655	-0.533917	0.181131
H232	H	1.405655	-0.033917	0.681131
O233	O	0.829121	-0.092381	-0.135570
O234	O	1.329121	0.407619	0.364430
C235	C	0.828569	-0.131327	-0.196142
C236	C	1.328569	0.368673	0.303858
H237	H	0.805832	-0.171257	-0.176016
H238	H	1.305832	0.328743	0.323984
H239	H	0.884500	-0.143763	-0.217258
H240	H	1.384500	0.356237	0.282742
C241	C	0.811055	-0.054090	-0.285689
C242	C	1.311055	0.445910	0.214311
C243	C	0.783122	-0.103131	-0.260972
C244	C	1.283122	0.396869	0.239028
H245	H	0.783024	-0.036697	-0.325681
H246	H	1.283024	0.463303	0.174319
H247	H	0.811429	-0.027851	-0.244881
H248	H	1.311429	0.472149	0.255119
H249	H	0.857664	-0.064460	-0.303280
H250	H	1.357664	0.435540	0.196720
H251	H	0.736518	-0.092760	-0.243372
H252	H	1.236518	0.407240	0.256628
H253	H	0.782739	-0.129367	-0.301778
H254	H	1.282739	0.370633	0.198222
O255	O	0.918331	-0.000727	0.336192
O256	O	1.418331	0.499273	0.836192
C257	C	0.907380	-0.057086	0.316872
C258	C	1.407380	0.442914	0.816872
H259	H	0.880469	-0.056968	0.259346
H260	H	1.380469	0.443032	0.759346
H261	H	0.872753	-0.074624	0.361496
H262	H	1.372753	0.425376	0.861496
C263	C	1.011595	-0.095262	0.383853
C264	C	1.511595	0.404738	0.883853
C265	C	0.978548	-0.095117	0.313195
C266	C	1.478548	0.404883	0.813195
H267	H	1.055494	-0.118723	0.381588
H268	H	1.555494	0.381277	0.881588
H269	H	1.018972	-0.057292	0.396872
H270	H	1.518972	0.442708	0.896872
H271	H	0.982733	-0.109876	0.421032
H272	H	1.482733	0.390124	0.921032
H273	H	1.007406	-0.080497	0.276019
H274	H	1.507406	0.419503	0.776019
H275	H	0.971178	-0.133086	0.300170
H276	H	1.471178	0.366914	0.800170
O277	O	0.191248	-0.028191	-0.000217
O278	O	0.691248	0.471809	0.499783
C279	C	0.261463	-0.016195	-0.000225
C280	C	0.761463	0.483805	0.499775
H281	H	0.263923	0.028530	0.023609
H282	H	0.763923	0.528530	0.523609
H283	H	0.282570	-0.018401	-0.060620
H284	H	0.782570	0.481599	0.439380
C285	C	0.303304	-0.115459	0.019883
C286	C	0.803304	0.384541	0.519883
C287	C	0.306327	-0.060529	0.049163
C288	C	0.806327	0.439471	0.549163
H289	H	0.330980	-0.142807	0.050345
H290	H	0.830980	0.357193	0.550345
H291	H	0.255999	-0.123541	0.019886
H292	H	0.755999	0.376459	0.519886
H293	H	0.320892	-0.117289	-0.030446
H294	H	0.820892	0.382711	0.469554
H295	H	0.288731	-0.058697	0.099487
H296	H	0.788731	0.441303	0.599487
H297	H	0.353630	-0.052447	0.049170
H298	H	0.853630	0.447553	0.549170
H299	H	0.910891	0.005455	0.669457
H300	H	1.410891	0.505455	1.169457
O301	O	0.730134	0.152507	0.819413
O302	O	1.230134	0.652507	1.319413
C303	C	0.741086	0.208864	0.800041
C304	C	1.241086	0.708864	1.300041
H305	H	0.767993	0.208740	0.742488
H306	H	1.267993	0.708740	1.242488
H307	H	0.775714	0.226407	0.844618
H308	H	1.275714	0.726407	1.344618
C309	C	0.636874	0.247048	0.867092
C310	C	1.136874	0.747048	1.367092
C311	C	0.669917	0.246896	0.796403
C312	C	1.169917	0.746896	1.296403
H313	H	0.592974	0.270509	0.864851
H314	H	1.092974	0.770509	1.364851
H315	H	0.629497	0.209080	0.880147
H316	H	1.129497	0.709080	1.380147
H317	H	0.665738	0.261666	0.904232
H318	H	1.165738	0.761666	1.404232
H319	H	0.641057	0.232272	0.759266
H320	H	1.141057	0.732272	1.259266
H321	H	0.677287	0.284863	0.783342
H322	H	1.177287	0.784863	1.283342
H323	H	0.824949	-0.370254	0.192912
H324	H	1.324949	0.129746	0.692912
H325	H	0.737552	0.146313	0.186321
H326	H	1.237552	0.646313	0.686321
H327	H	0.152506	0.168182	-0.000277
H328	H	0.652506	0.668182	0.499723
O329	O	0.827348	-0.209362	0.135150
O330	O	1.327348	0.290638	0.635150
C331	C	0.827937	-0.170421	0.195724
C332	C	1.327937	0.329579	0.695724
H333	H	0.806466	-0.125659	0.175610
H334	H	1.306466	0.374341	0.675610
H335	H	0.884050	-0.170233	0.216814
H336	H	1.384050	0.329767	0.716814
C337	C	0.808158	-0.243584	0.285276
C338	C	1.308158	0.256416	0.785276
C339	C	0.781781	-0.188607	0.260574
C340	C	1.281781	0.311393	0.760574
H341	H	0.779689	-0.254803	0.325281
H342	H	1.279689	0.245197	0.825281
H343	H	0.807764	-0.269820	0.244467
H344	H	1.307764	0.230180	0.744467
H345	H	0.854918	-0.243420	0.302846
H346	H	1.354918	0.256580	0.802846
H347	H	0.735025	-0.188774	0.242996
H348	H	1.235025	0.311226	0.742996
H349	H	0.782166	-0.162372	0.301381
H350	H	1.282166	0.337628	0.801381
H351	H	0.823374	-0.478007	0.192909
H352	H	1.323374	0.021993	0.692909
O353	O	0.047631	-0.029987	-0.000138
O354	O	0.547631	0.470013	0.499862
C355	C	0.070694	-0.061358	0.065063
C356	C	0.570694	0.438642	0.565063
H357	H	0.085601	-0.030750	0.110636
H358	H	0.585601	0.469250	0.610636
H359	H	0.118391	-0.093214	0.050334
H360	H	0.618391	0.406786	0.550334
C361	C	-0.006991	-0.131535	0.038648
C362	C	0.493009	0.368465	0.538648
C363	C	0.011312	-0.093941	0.094624
C364	C	0.511312	0.406059	0.594624
H365	H	-0.043619	-0.151635	0.056881
H366	H	0.456381	0.348365	0.556881
H367	H	-0.022528	-0.110401	-0.005281
H368	H	0.477472	0.389599	0.494719
H369	H	0.032761	-0.158076	0.026379
H370	H	0.532761	0.341924	0.526379
H371	H	-0.028437	-0.067396	0.106885
H372	H	0.471563	0.432604	0.606885
H373	H	0.026841	-0.115071	0.138556
H374	H	0.526841	0.384929	0.638556
H375	H	0.910891	0.005452	0.813222
H376	H	1.410891	0.505452	1.313222
O377	O	0.730041	0.152342	0.336401
O378	O	1.230041	0.652342	0.836401
C379	C	0.687185	0.121927	0.382262
C380	C	1.187185	0.621927	0.882262
H381	H	0.715317	0.077305	0.394133
H382	H	1.215317	0.577305	0.894133
H383	H	0.635610	0.118159	0.351754
H384	H	1.135610	0.618159	0.851754
C385	C	0.637488	0.208875	0.442956
C386	C	1.137488	0.708875	0.942956
C387	C	0.672043	0.154071	0.457541
C388	C	1.172043	0.654071	0.957541
H389	H	0.628144	0.228704	0.489390
H390	H	1.128144	0.728704	0.989390
H391	H	0.666359	0.229366	0.412057
H392	H	1.166359	0.729366	0.912057
H393	H	0.594513	0.205727	0.417530
H394	H	1.094513	0.705727	0.917530
H395	H	0.715021	0.157220	0.482958
H396	H	1.215021	0.657220	0.982958
H397	H	0.643179	0.133581	0.488447
H398	H	1.143179	0.633581	0.988447
H399	H	0.821002	-0.643448	-0.124769
H400	H	1.321002	-0.143448	0.375231
H401	H	0.829044	-0.097010	0.124303
H402	H	1.329044	0.402990	0.624303
H403	H	0.596499	0.173520	-0.000204
H404	H	1.096499	0.673520	0.499796
H405	H	0.464395	0.171931	-0.000218
H406	H	0.964395	0.671931	0.499782
H407	H	0.910851	0.005450	0.186275
H408	H	1.410851	0.505450	0.686275
H409	H	0.827476	-0.204720	-0.124737
H410	H	1.327476	0.295280	0.375263
H411	H	0.495941	-0.016405	-0.000194
H412	H	0.995941	0.483595	0.499806
H413	H	0.825046	-0.370199	-0.193375
H414	H	1.325046	0.129801	0.306625
H415	H	0.823448	-0.477945	-0.193382
H416	H	1.323448	0.022055	0.306618
H417	H	0.819408	-0.751216	-0.124769
H418	H	1.319408	-0.251216	0.375231
H419	H	0.737600	0.146325	0.669504
H420	H	1.237600	0.646325	1.169504
