data_functionalizedCrystal
_audit_creation_method	'MofGen! by Chris Wilmer'
_symmetry_space_group_name_H-M	'P1'
_symmetry_Int_Tables_number	1
_symmetry_cell_setting	triclinic
loop_
_symmetry_equiv_pos_as_xyz
  x,y,z
_cell_length_a	16.109318
_cell_length_b	14.586319
_cell_length_c	11.792254
_cell_angle_alpha	89.996031
_cell_angle_beta	96.166420
_cell_angle_gamma	89.999925
loop_
_atom_site_label
_atom_site_type_symbol
_atom_site_fract_x
_atom_site_fract_y
_atom_site_fract_z
O1	O	1.103814	0.076164	-0.145978
O2	O	0.861840	0.076183	-0.164113
O3	O	0.988693	0.076167	0.010175
O4	O	0.976960	0.076181	-0.320266
O5	O	0.988684	-0.076314	0.010178
O6	O	0.861831	-0.076298	-0.164110
O7	O	1.103805	-0.076316	-0.145976
Cu8	Cu	0.982817	-0.090230	-0.155043
Cu9	Cu	0.982827	0.090096	-0.155046
O10	O	0.976951	-0.076300	-0.320263
C11	C	0.830857	-0.000055	-0.163373
C12	C	0.738552	-0.000048	-0.161161
C13	C	0.439449	0.083053	-0.154016
C14	C	0.526180	0.083058	-0.156087
C15	C	0.526189	-0.083184	-0.156069
C16	C	0.439461	-0.083189	-0.153989
C17	C	0.396092	-0.000068	-0.152969
C18	C	0.569552	-0.000057	-0.157120
C19	C	0.663590	-0.000052	-0.159366
C20	C	0.302049	-0.000073	-0.150720
N21	N	0.982816	-0.217062	-0.155040
C22	C	1.039005	-0.452075	-0.077891
C23	C	1.039008	-0.548056	-0.077888
C24	C	0.926640	-0.548051	-0.232192
C25	C	0.926634	-0.452072	-0.232188
C26	C	0.982821	-0.404086	-0.155039
C27	C	0.982830	-0.596047	-0.155040
C28	C	0.982832	-0.700114	-0.155038
C29	C	0.982818	-0.300013	-0.155040
C30	C	1.134787	-0.000076	-0.146715
C31	C	1.227092	-0.000077	-0.148928
C32	C	0.977695	-0.000058	-0.362549
C33	C	0.979907	-0.000053	-0.488543
N34	N	0.982835	0.216928	-0.155039
C35	C	0.987950	-0.000073	0.052461
C36	C	0.985737	-0.000072	0.178455
C37	C	0.983940	-0.000069	0.280776
C38	C	0.981692	-0.000060	0.409143
H39	H	0.404159	-0.150880	-0.153135
H40	H	1.084755	-0.413007	-0.015070
H41	H	0.561510	-0.150859	-0.156902
C42	C	0.391744	0.174483	-0.152879
C43	C	0.412658	0.243052	-0.054671
C44	C	0.364956	0.334485	-0.053529
C45	C	0.296339	0.357349	-0.150596
C46	C	0.275421	0.288778	-0.248812
C47	C	0.323124	0.197345	-0.249953
H48	H	0.463456	0.226129	0.017191
H49	H	0.380441	0.385246	0.019177
H50	H	0.261027	0.425033	-0.149751
H51	H	0.224624	0.305701	-0.320673
H52	H	0.307639	0.146584	-0.322659
C53	C	0.864842	-0.600836	-0.317062
C54	C	0.864889	-0.706410	-0.317138
C55	C	0.803091	-0.759191	-0.402014
C56	C	0.741246	-0.706399	-0.486814
C57	C	0.741196	-0.600819	-0.486742
C58	C	0.802994	-0.548038	-0.401866
H59	H	0.910673	-0.745495	-0.254361
H60	H	0.803128	-0.837348	-0.402068
H61	H	0.695499	-0.745471	-0.549645
H62	H	0.695412	-0.561734	-0.549519
H63	H	0.802956	-0.469881	-0.401812
H64	H	0.561478	0.150744	-0.156938
H65	H	1.084756	-0.587126	-0.015066
H66	H	0.880878	-0.412997	-0.295012
