data_functionalizedCrystal
_audit_creation_method	'MofGen! by Chris Wilmer'
_symmetry_space_group_name_H-M	'P1'
_symmetry_Int_Tables_number	1
_symmetry_cell_setting	triclinic
loop_
_symmetry_equiv_pos_as_xyz
  x,y,z
_cell_length_a	25.639239
_cell_length_b	25.639243
_cell_length_c	25.639234
_cell_angle_alpha	90.020836
_cell_angle_beta	89.975416
_cell_angle_gamma	89.958634
loop_
_atom_site_label
_atom_site_type_symbol
_atom_site_fract_x
_atom_site_fract_y
_atom_site_fract_z
Zn1	Zn	-0.208147	-0.799250	-0.295656
Zn2	Zn	0.041853	-0.549250	-0.045656
Zn3	Zn	0.291853	-0.299250	0.204344
Zn4	Zn	0.541853	-0.049250	0.454344
Zn5	Zn	-0.295575	-0.799166	-0.208221
Zn6	Zn	-0.045575	-0.549166	0.041779
Zn7	Zn	0.204425	-0.299166	0.291779
Zn8	Zn	0.454425	-0.049166	0.541779
Zn9	Zn	-0.208159	-0.711819	-0.208230
Zn10	Zn	0.041841	-0.461819	0.041770
Zn11	Zn	0.291841	-0.211819	0.291770
Zn12	Zn	0.541841	0.038181	0.541770
Zn13	Zn	-0.295557	-0.711771	-0.295620
Zn14	Zn	-0.045557	-0.461771	-0.045620
Zn15	Zn	0.204443	-0.211771	0.204380
Zn16	Zn	0.454443	0.038229	0.454380
O17	O	-0.251859	-0.755502	-0.251932
O18	O	-0.001859	-0.505502	-0.001932
O19	O	0.248141	-0.255502	0.248068
O20	O	0.498141	-0.005502	0.498068
O21	O	-0.219747	-0.872404	-0.284069
O22	O	0.030253	-0.622404	-0.034069
O23	O	0.280253	-0.372404	0.215931
O24	O	0.530253	-0.122404	0.465931
O25	O	-0.283991	-0.787564	-0.135057
O26	O	-0.033991	-0.537564	0.114943
O27	O	0.216009	-0.287564	0.364943
O28	O	0.466009	-0.037564	0.614943
O29	O	-0.134992	-0.723472	-0.219846
O30	O	0.115008	-0.473472	0.030154
O31	O	0.365008	-0.223472	0.280154
O32	O	0.615008	0.026528	0.530154
O33	O	-0.283979	-0.872342	-0.219831
O34	O	-0.033979	-0.622342	0.030169
O35	O	0.216021	-0.372342	0.280169
O36	O	0.466021	-0.122342	0.530169
O37	O	-0.134983	-0.787707	-0.284078
O38	O	0.115017	-0.537707	-0.034078
O39	O	0.365017	-0.287707	0.215922
O40	O	0.615017	-0.037707	0.465922
O41	O	-0.219767	-0.723391	-0.135063
O42	O	0.030233	-0.473391	0.114937
O43	O	0.280233	-0.223391	0.364937
O44	O	0.530233	0.026609	0.614937
O45	O	-0.219750	-0.638647	-0.219811
O46	O	0.030250	-0.388647	0.030189
O47	O	0.280250	-0.138647	0.280189
O48	O	0.530250	0.111353	0.530189
O49	O	-0.283950	-0.723391	-0.368790
O50	O	-0.033950	-0.473391	-0.118790
O51	O	0.216050	-0.223391	0.131210
O52	O	0.466050	0.026609	0.381210
O53	O	-0.283961	-0.638613	-0.284016
O54	O	-0.033961	-0.388613	-0.034016
O55	O	0.216039	-0.138613	0.215984
O56	O	0.466039	0.111387	0.465984
O57	O	-0.219730	-0.787661	-0.368817
O58	O	0.030270	-0.537661	-0.118817
O59	O	0.280270	-0.287661	0.131183
O60	O	0.530270	-0.037661	0.381183
O61	O	-0.368738	-0.787518	-0.219795
O62	O	-0.118738	-0.537518	0.030205
O63	O	0.131262	-0.287518	0.280205
O64	O	0.381262	-0.037518	0.530205
O65	O	-0.368725	-0.723310	-0.284007
O66	O	-0.118725	-0.473310	-0.034007
O67	O	0.131275	-0.223310	0.215993
O68	O	0.381275	0.026690	0.465993
C69	C	-0.251856	-0.619659	-0.251911
C70	C	-0.001856	-0.369659	-0.001911
C71	C	0.248144	-0.119659	0.248089
C72	C	0.498144	0.130341	0.498089
C73	C	-0.251867	-0.561545	-0.251914
C74	C	-0.001867	-0.311545	-0.001914
C75	C	0.248133	-0.061545	0.248086
C76	C	0.498133	0.188455	0.498086
C77	C	-0.218466	-0.201208	-0.285436
C78	C	0.031534	0.048792	-0.035436
C79	C	0.281534	0.298792	0.214564
C80	C	0.531534	0.548792	0.464564
C81	C	-0.218465	-0.146604	-0.285439
C82	C	0.031535	0.103396	-0.035439
C83	C	0.281535	0.353396	0.214561
C84	C	0.531535	0.603396	0.464561
O85	O	-0.190057	-0.118390	-0.313915
O86	O	0.059943	0.131610	-0.063915
O87	O	0.309943	0.381610	0.186085
O88	O	0.559943	0.631610	0.436085
N89	N	-0.251857	-0.119263	-0.251946
N90	N	-0.001857	0.130737	-0.001946
N91	N	0.248143	0.380737	0.248054
N92	N	0.498143	0.630737	0.498054
C93	C	-0.285249	-0.146528	-0.218443
C94	C	-0.035249	0.103472	0.031557
C95	C	0.214751	0.353472	0.281557
C96	C	0.464751	0.603472	0.531557
O97	O	-0.313651	-0.118258	-0.189954
O98	O	-0.063651	0.131742	0.060046
O99	O	0.186349	0.381742	0.310046
O100	O	0.436349	0.631742	0.560046
C101	C	-0.285246	-0.201131	-0.218437
C102	C	-0.035246	0.048869	0.031563
C103	C	0.214754	0.298869	0.281563
C104	C	0.464754	0.548869	0.531563
C105	C	-0.251855	-0.228470	-0.251937
C106	C	-0.001855	0.021530	-0.001937
C107	C	0.248145	0.271530	0.248063
C108	C	0.498145	0.521530	0.498063
C109	C	-0.185077	-0.228547	-0.318933
C110	C	0.064923	0.021453	-0.068933
C111	C	0.314923	0.271453	0.181067
C112	C	0.564923	0.521453	0.431067
C113	C	-0.185078	-0.283148	-0.318930
C114	C	0.064922	-0.033148	-0.068930
C115	C	0.314922	0.216852	0.181070
C116	C	0.564922	0.466852	0.431070
C117	C	-0.218468	-0.310410	-0.285431
C118	C	0.031532	-0.060410	-0.035431
C119	C	0.281532	0.189590	0.214569
C120	C	0.531532	0.439590	0.464569
C121	C	-0.251857	-0.283071	-0.251934
C122	C	-0.001857	-0.033071	-0.001934
C123	C	0.248143	0.216929	0.248066
C124	C	0.498143	0.466929	0.498066
C125	C	-0.318634	-0.228396	-0.184932
C126	C	-0.068634	0.021604	0.065068
C127	C	0.181366	0.271604	0.315068
C128	C	0.431366	0.521604	0.565068
C129	C	-0.318629	-0.283003	-0.184929
C130	C	-0.068629	-0.033003	0.065071
C131	C	0.181371	0.216997	0.315071
C132	C	0.431371	0.466997	0.565071
C133	C	-0.285238	-0.310342	-0.218429
C134	C	-0.035238	-0.060342	0.031571
C135	C	0.214762	0.189658	0.281571
C136	C	0.464762	0.439658	0.531571
C137	C	-0.285248	-0.364933	-0.218433
C138	C	-0.035248	-0.114933	0.031567
C139	C	0.214752	0.135067	0.281567
C140	C	0.464752	0.385067	0.531567
N141	N	-0.251855	-0.392275	-0.251926
N142	N	-0.001855	-0.142275	-0.001926
N143	N	0.248145	0.107725	0.248074
N144	N	0.498145	0.357725	0.498074
C145	C	-0.218466	-0.365013	-0.285425
C146	C	0.031534	-0.115013	-0.035425
C147	C	0.281534	0.134987	0.214575
C148	C	0.531534	0.384987	0.464575
C149	C	-0.285251	-0.031857	-0.218456
C150	C	-0.035251	0.218143	0.031544
C151	C	0.214749	0.468143	0.281544
C152	C	0.464749	0.718143	0.531544
C153	C	-0.285256	0.022745	-0.218464
C154	C	-0.035256	0.272745	0.031536
C155	C	0.214744	0.522745	0.281536
C156	C	0.464744	0.772745	0.531536
C157	C	-0.218472	0.022665	-0.285460
C158	C	0.031528	0.272665	-0.035460
C159	C	0.281528	0.522665	0.214540
C160	C	0.531528	0.772665	0.464540
C161	C	-0.218469	-0.031938	-0.285454
C162	C	0.031531	0.218062	-0.035454
C163	C	0.281531	0.468062	0.214546
C164	C	0.531531	0.718062	0.464546
C165	C	-0.251858	-0.059199	-0.251950
C166	C	-0.001858	0.190801	-0.001950
C167	C	0.248142	0.440801	0.248050
C168	C	0.498142	0.690801	0.498050
C169	C	-0.218471	-0.479678	-0.285418
C170	C	0.031529	-0.229678	-0.035418
C171	C	0.281529	0.020322	0.214582
C172	C	0.531529	0.270322	0.464582
C173	C	-0.218477	-0.534283	-0.285414
C174	C	0.031523	-0.284283	-0.035414
C175	C	0.281523	-0.034283	0.214586
C176	C	0.531523	0.215717	0.464586
C177	C	-0.285259	-0.534199	-0.218416
C178	C	-0.035259	-0.284199	0.031584
C179	C	0.214741	-0.034199	0.281584
C180	C	0.464741	0.215801	0.531584
C181	C	-0.285256	-0.479598	-0.218422
C182	C	-0.035256	-0.229598	0.031578
C183	C	0.214744	0.020402	0.281578
C184	C	0.464744	0.270402	0.531578
C185	C	-0.251857	-0.452339	-0.251924
C186	C	-0.001857	-0.202339	-0.001924
C187	C	0.248143	0.047661	0.248076
C188	C	0.498143	0.297661	0.498076
O189	O	-0.313640	-0.393182	-0.189970
O190	O	-0.063640	-0.143182	0.060030
O191	O	0.186360	0.106818	0.310030
O192	O	0.436360	0.356818	0.560030
O193	O	-0.190063	-0.393290	-0.313905
O194	O	0.059937	-0.143290	-0.063905
O195	O	0.309937	0.106710	0.186095
O196	O	0.559937	0.356710	0.436095
C197	C	-0.387702	-0.755414	-0.251908
C198	C	-0.137702	-0.505414	-0.001908
C199	C	0.112298	-0.255414	0.248092
C200	C	0.362298	-0.005414	0.498092
C201	C	-0.445816	-0.755424	-0.251915
C202	C	-0.195816	-0.505424	-0.001915
C203	C	0.054184	-0.255424	0.248085
C204	C	0.304184	-0.005424	0.498085
C205	C	-0.806173	-0.789022	-0.218554
C206	C	-0.556173	-0.539022	0.031446
C207	C	-0.306173	-0.289022	0.281446
C208	C	-0.056173	-0.039022	0.531446
C209	C	-0.860777	-0.789042	-0.218561
C210	C	-0.610777	-0.539042	0.031439
C211	C	-0.360777	-0.289042	0.281439
C212	C	-0.110777	-0.039042	0.531439
O213	O	-0.889009	-0.817518	-0.190169
O214	O	-0.639009	-0.567518	0.059831
O215	O	-0.389009	-0.317518	0.309831
O216	O	-0.139009	-0.067518	0.559831
N217	N	-0.888098	-0.755594	-0.251966
N218	N	-0.638098	-0.505594	-0.001966
N219	N	-0.388098	-0.255594	0.248034
N220	N	-0.138098	-0.005594	0.498034
C221	C	-0.860812	-0.722126	-0.285371
C222	C	-0.610812	-0.472126	-0.035371
C223	C	-0.360812	-0.222126	0.214629
C224	C	-0.110812	0.027874	0.464629
O225	O	-0.889065	-0.693677	-0.313786
O226	O	-0.639065	-0.443677	-0.063786
O227	O	-0.389065	-0.193677	0.186214
O228	O	-0.139065	0.056323	0.436214
C229	C	-0.806209	-0.722109	-0.285366
C230	C	-0.556209	-0.472109	-0.035366
C231	C	-0.306209	-0.222109	0.214634
C232	C	-0.056209	0.027891	0.464634
C233	C	-0.778891	-0.755556	-0.251955
C234	C	-0.528891	-0.505556	-0.001955
C235	C	-0.278891	-0.255556	0.248045
C236	C	-0.028891	-0.005556	0.498045
C237	C	-0.778855	-0.822467	-0.185145
C238	C	-0.528855	-0.572467	0.064855
C239	C	-0.278855	-0.322467	0.314855
C240	C	-0.028855	-0.072467	0.564855
C241	C	-0.724254	-0.822446	-0.185137
C242	C	-0.474254	-0.572446	0.064863
C243	C	-0.224254	-0.322446	0.314863
C244	C	0.025746	-0.072446	0.564863
C245	C	-0.696972	-0.788980	-0.218538
C246	C	-0.446972	-0.538980	0.031462
C247	C	-0.196972	-0.288980	0.281462
C248	C	0.053028	-0.038980	0.531462
C249	C	-0.724290	-0.755535	-0.251947
C250	C	-0.474290	-0.505535	-0.001947
C251	C	-0.224290	-0.255535	0.248053
C252	C	0.025710	-0.005535	0.498053
C253	C	-0.778924	-0.688644	-0.318773
C254	C	-0.528924	-0.438644	-0.068773
C255	C	-0.278924	-0.188644	0.181227
C256	C	-0.028924	0.061356	0.431227
C257	C	-0.724317	-0.688630	-0.318766
C258	C	-0.474317	-0.438630	-0.068766
C259	C	-0.224317	-0.188630	0.181234
C260	C	0.025683	0.061370	0.431234
C261	C	-0.696999	-0.722077	-0.285354
C262	C	-0.446999	-0.472077	-0.035354
C263	C	-0.196999	-0.222077	0.214646
C264	C	0.053001	0.027923	0.464646
C265	C	-0.642407	-0.722048	-0.285341
C266	C	-0.392407	-0.472048	-0.035341
C267	C	-0.142407	-0.222048	0.214659
C268	C	0.107593	0.027952	0.464659
N269	N	-0.615086	-0.755497	-0.251935
N270	N	-0.365086	-0.505497	-0.001935
N271	N	-0.115086	-0.255497	0.248065
N272	N	0.134914	-0.005497	0.498065
C273	C	-0.642369	-0.788963	-0.218534
C274	C	-0.392369	-0.538963	0.031466
C275	C	-0.142369	-0.288963	0.281466
C276	C	0.107631	-0.038963	0.531466
C277	C	-0.975483	-0.722165	-0.285379
C278	C	-0.725483	-0.472165	-0.035379
C279	C	-0.475483	-0.222165	0.214621
C280	C	-0.225483	0.027835	0.464621
C281	C	-1.030085	-0.722179	-0.285382
C282	C	-0.780085	-0.472179	-0.035382
C283	C	-0.530085	-0.222179	0.214618
C284	C	-0.280085	0.027821	0.464618
C285	C	-1.030047	-0.789097	-0.218572
C286	C	-0.780047	-0.539097	0.031428
C287	C	-0.530047	-0.289097	0.281428
C288	C	-0.280047	-0.039097	0.531428
C289	C	-0.975443	-0.789080	-0.218567
C290	C	-0.725443	-0.539080	0.031433
C291	C	-0.475443	-0.289080	0.281433
C292	C	-0.225443	-0.039080	0.531433
C293	C	-0.948162	-0.755614	-0.251973
C294	C	-0.698162	-0.505614	-0.001973
C295	C	-0.448162	-0.255614	0.248027
C296	C	-0.198162	-0.005614	0.498027
C297	C	-0.527704	-0.788916	-0.218520
C298	C	-0.277704	-0.538916	0.031480
C299	C	-0.027704	-0.288916	0.281480
C300	C	0.222296	-0.038916	0.531480
C301	C	-0.473098	-0.788890	-0.218514
C302	C	-0.223098	-0.538890	0.031486
C303	C	0.026902	-0.288890	0.281486
C304	C	0.276902	-0.038890	0.531486
C305	C	-0.473142	-0.721975	-0.285326
C306	C	-0.223142	-0.471975	-0.035326
C307	C	0.026858	-0.221975	0.214674
C308	C	0.276858	0.028025	0.464674
C309	C	-0.527742	-0.721998	-0.285330
C310	C	-0.277742	-0.471998	-0.035330
C311	C	-0.027742	-0.221998	0.214670
C312	C	0.222258	0.028002	0.464670
C313	C	-0.555022	-0.755473	-0.251926
C314	C	-0.305022	-0.505473	-0.001926
C315	C	-0.055022	-0.255473	0.248074
C316	C	0.194978	-0.005473	0.498074
O317	O	-0.614141	-0.693588	-0.313719
O318	O	-0.364141	-0.443588	-0.063719
O319	O	-0.114141	-0.193588	0.186281
O320	O	0.135859	0.056412	0.436281
O321	O	-0.614109	-0.817412	-0.190128
O322	O	-0.364109	-0.567412	0.059872
O323	O	-0.114109	-0.317412	0.309872
O324	O	0.135891	-0.067412	0.559872
C325	C	-0.115486	-0.755604	-0.251967
C326	C	0.134514	-0.505604	-0.001967
C327	C	0.384514	-0.255604	0.248033
C328	C	0.634514	-0.005604	0.498033
C329	C	-0.057372	-0.755648	-0.251982
C330	C	0.192628	-0.505648	-0.001982
C331	C	0.442628	-0.255648	0.248018
C332	C	0.692628	-0.005648	0.498018
C333	C	-0.251836	-0.755530	-0.388305
C334	C	-0.001836	-0.505530	-0.138305
C335	C	0.248164	-0.255530	0.111695
C336	C	0.498164	-0.005530	0.361695
C337	C	-0.251827	-0.755542	-0.446419
C338	C	-0.001827	-0.505542	-0.196419
C339	C	0.248173	-0.255542	0.053581
C340	C	0.498173	-0.005542	0.303581
C341	C	-0.251863	0.108125	-0.251953
C342	C	-0.001863	0.358125	-0.001953
C343	C	0.248137	0.608125	0.248047
C344	C	0.498137	0.858125	0.498047
C345	C	-0.251864	0.050011	-0.251961
C346	C	-0.001864	0.300011	-0.001961
C347	C	0.248136	0.550011	0.248039
C348	C	0.498136	0.800011	0.498039
C349	C	-0.285225	-0.788971	-0.697601
C350	C	-0.035225	-0.538971	-0.447601
C351	C	0.214775	-0.288971	-0.197601
C352	C	0.464775	-0.038971	0.052399
C353	C	-0.285236	-0.788966	-0.642997
C354	C	-0.035236	-0.538966	-0.392997
C355	C	0.214764	-0.288966	-0.142997
C356	C	0.464764	-0.038966	0.107003
O357	O	-0.313690	-0.817364	-0.614751
O358	O	-0.063690	-0.567364	-0.364751
O359	O	0.186310	-0.317364	-0.114751
O360	O	0.436310	-0.067364	0.135249
N361	N	-0.251801	-0.755553	-0.615693
N362	N	-0.001801	-0.505553	-0.365693
N363	N	0.248199	-0.255553	-0.115693
N364	N	0.498199	-0.005553	0.134307
C365	C	-0.218357	-0.722141	-0.642996
C366	C	0.031643	-0.472141	-0.392996
C367	C	0.281643	-0.222141	-0.142996
C368	C	0.531643	0.027859	0.107004
O369	O	-0.189920	-0.693720	-0.614757
O370	O	0.060080	-0.443720	-0.364757
O371	O	0.310080	-0.193720	-0.114757
O372	O	0.560080	0.056280	0.135243
C373	C	-0.218349	-0.722144	-0.697599
C374	C	0.031651	-0.472144	-0.447599
C375	C	0.281651	-0.222144	-0.197599
C376	C	0.531651	0.027856	0.052401
C377	C	-0.251782	-0.755562	-0.724900
C378	C	-0.001782	-0.505562	-0.474900
C379	C	0.248218	-0.255562	-0.224900
C380	C	0.498218	-0.005562	0.025100
C381	C	-0.318656	-0.822386	-0.724903
C382	C	-0.068656	-0.572386	-0.474903
C383	C	0.181344	-0.322386	-0.224903
C384	C	0.431344	-0.072386	0.025097
C385	C	-0.318644	-0.822392	-0.779503
C386	C	-0.068644	-0.572392	-0.529503
C387	C	0.181356	-0.322392	-0.279503
C388	C	0.431356	-0.072392	-0.029503
C389	C	-0.285201	-0.788983	-0.806802
C390	C	-0.035201	-0.538983	-0.556802
C391	C	0.214799	-0.288983	-0.306802
C392	C	0.464799	-0.038983	-0.056802
C393	C	-0.251771	-0.755568	-0.779501
C394	C	-0.001771	-0.505568	-0.529501
C395	C	0.248229	-0.255568	-0.279501
C396	C	0.498229	-0.005568	-0.029501
C397	C	-0.184908	-0.688729	-0.724901
C398	C	0.065092	-0.438729	-0.474901
C399	C	0.315092	-0.188729	-0.224901
C400	C	0.565092	0.061271	0.025099
C401	C	-0.184904	-0.688735	-0.779508
C402	C	0.065096	-0.438735	-0.529508
C403	C	0.315096	-0.188735	-0.279508
C404	C	0.565096	0.061265	-0.029508
C405	C	-0.218337	-0.722153	-0.806810
C406	C	0.031663	-0.472153	-0.556810
C407	C	0.281663	-0.222153	-0.306810
C408	C	0.531663	0.027847	-0.056810
C409	C	-0.218316	-0.722165	-0.861401
C410	C	0.031684	-0.472165	-0.611401
C411	C	0.281684	-0.222165	-0.361401
C412	C	0.531684	0.027835	-0.111401
N413	N	-0.251751	-0.755578	-0.888705
N414	N	-0.001751	-0.505578	-0.638705
N415	N	0.248249	-0.255578	-0.388705
N416	N	0.498249	-0.005578	-0.138705
C417	C	-0.285194	-0.788986	-0.861406
C418	C	-0.035194	-0.538986	-0.611406
C419	C	0.214806	-0.288986	-0.361406
C420	C	0.464806	-0.038986	-0.111406
C421	C	-0.218377	-0.722136	-0.528325
C422	C	0.031623	-0.472136	-0.278325
C423	C	0.281623	-0.222136	-0.028325
C424	C	0.531623	0.027864	0.221675
C425	C	-0.218382	-0.722135	-0.473723
C426	C	0.031618	-0.472135	-0.223723
C427	C	0.281618	-0.222135	0.026277
C428	C	0.531618	0.027865	0.276277
C429	C	-0.285261	-0.788959	-0.473728
C430	C	-0.035261	-0.538959	-0.223728
C431	C	0.214739	-0.288959	0.026272
C432	C	0.464739	-0.038959	0.276272
C433	C	-0.285253	-0.788962	-0.528331
C434	C	-0.035253	-0.538962	-0.278331
C435	C	0.214747	-0.288962	-0.028331
C436	C	0.464747	-0.038962	0.221669
C437	C	-0.251812	-0.755548	-0.555629
C438	C	-0.001812	-0.505548	-0.305629
C439	C	0.248188	-0.255548	-0.055629
C440	C	0.498188	-0.005548	0.194371
C441	C	-0.285166	-0.788997	-0.976071
C442	C	-0.035166	-0.538997	-0.726071
C443	C	0.214834	-0.288997	-0.476071
C444	C	0.464834	-0.038997	-0.226071
C445	C	-0.285150	-0.789002	-1.030676
C446	C	-0.035150	-0.539002	-0.780676
C447	C	0.214850	-0.289002	-0.530676
C448	C	0.464850	-0.039002	-0.280676
C449	C	-0.218272	-0.722176	-1.030667
C450	C	0.031728	-0.472176	-0.780667
C451	C	0.281728	-0.222176	-0.530667
C452	C	0.531728	0.027824	-0.280667
C453	C	-0.218287	-0.722173	-0.976066
C454	C	0.031713	-0.472173	-0.726066
C455	C	0.281713	-0.222173	-0.476066
C456	C	0.531713	0.027827	-0.226066
C457	C	-0.251738	-0.755585	-0.948769
C458	C	-0.001738	-0.505585	-0.698769
C459	C	0.248262	-0.255585	-0.448769
C460	C	0.498262	-0.005585	-0.198769
O461	O	-0.189878	-0.693780	-0.889681
O462	O	0.060122	-0.443780	-0.639681
O463	O	0.310122	-0.193780	-0.389681
O464	O	0.560122	0.056220	-0.139681
O465	O	-0.313631	-0.817397	-0.889651
O466	O	-0.063631	-0.567397	-0.639651
O467	O	0.186369	-0.317397	-0.389651
O468	O	0.436369	-0.067397	-0.139651
C469	C	-0.251845	-0.755503	-0.116089
C470	C	-0.001845	-0.505503	0.133911
C471	C	0.248155	-0.255503	0.383911
C472	C	0.498155	-0.005503	0.633911
C473	C	-0.251707	-0.755593	-0.057975
C474	C	-0.001707	-0.505593	0.192025
C475	C	0.248293	-0.255593	0.442025
C476	C	0.498293	-0.005593	0.692025
H477	H	-0.312451	-0.457338	-0.191150
H478	H	-0.062451	-0.207338	0.058850
H479	H	0.187549	0.042662	0.308850
H480	H	0.437549	0.292662	0.558850
H481	H	-0.702015	-0.849683	-0.157932
H482	H	-0.452015	-0.599683	0.092068
H483	H	-0.202015	-0.349683	0.342068
H484	H	0.047985	-0.099683	0.592068
Cl485	Cl	-0.327233	-0.066123	-0.176335
Cl486	Cl	-0.077233	0.183877	0.073665
Cl487	Cl	0.172767	0.433877	0.323665
Cl488	Cl	0.422767	0.683877	0.573665
Cl489	Cl	-0.561990	-0.830998	-0.176524
Cl490	Cl	-0.311990	-0.580998	0.073476
Cl491	Cl	-0.061990	-0.330998	0.323476
Cl492	Cl	0.188010	-0.080998	0.573476
H493	H	-0.312375	-0.816217	-1.052903
H494	H	-0.062375	-0.566217	-0.802903
H495	H	0.187625	-0.316217	-0.552903
H496	H	0.437625	-0.066217	-0.302903
Cl497	Cl	-0.176498	-0.568649	-0.327532
Cl498	Cl	0.073502	-0.318649	-0.077532
Cl499	Cl	0.323502	-0.068649	0.172468
Cl500	Cl	0.573502	0.181351	0.422468
Cl501	Cl	-1.064421	-0.680123	-0.327381
Cl502	Cl	-0.814421	-0.430123	-0.077381
Cl503	Cl	-0.564421	-0.180123	0.172619
Cl504	Cl	-0.314421	0.069877	0.422619
Cl505	Cl	-0.813143	-0.864545	-0.143149
Cl506	Cl	-0.563143	-0.614545	0.106851
Cl507	Cl	-0.313143	-0.364545	0.356851
Cl508	Cl	-0.063143	-0.114545	0.606851
Cl509	Cl	-0.176232	-0.680179	-1.064996
Cl510	Cl	0.073768	-0.430179	-0.814996
Cl511	Cl	0.323768	-0.180179	-0.564996
Cl512	Cl	0.573768	0.069821	-0.314996
Cl513	Cl	-0.941106	-0.831130	-0.176563
Cl514	Cl	-0.691106	-0.581130	0.073437
Cl515	Cl	-0.441106	-0.331130	0.323437
Cl516	Cl	-0.191106	-0.081130	0.573437
H517	H	-0.157887	-0.305402	-0.346208
H518	H	0.092113	-0.055402	-0.096208
H519	H	0.342113	0.194598	0.153792
H520	H	0.592113	0.444598	0.403792
Cl521	Cl	-1.064355	-0.831168	-0.176581
Cl522	Cl	-0.814355	-0.581168	0.073419
Cl523	Cl	-0.564355	-0.331168	0.323419
Cl524	Cl	-0.314355	-0.081168	0.573419
Cl525	Cl	-0.438834	-0.679908	-0.327316
Cl526	Cl	-0.188834	-0.429908	-0.077316
Cl527	Cl	0.061166	-0.179908	0.172684
Cl528	Cl	0.311166	0.070092	0.422684
Cl529	Cl	-0.176490	-0.066301	-0.327568
Cl530	Cl	0.073510	0.183699	-0.077568
Cl531	Cl	0.323510	0.433699	0.172432
Cl532	Cl	0.573510	0.683699	0.422432
H533	H	-0.191274	-0.457490	-0.312697
H534	H	0.058726	-0.207490	-0.062697
H535	H	0.308726	0.042510	0.187303
H536	H	0.558726	0.292510	0.437303
Cl537	Cl	-0.327286	-0.830974	-0.562647
Cl538	Cl	-0.077286	-0.580974	-0.312647
Cl539	Cl	0.172714	-0.330974	-0.062647
Cl540	Cl	0.422714	-0.080974	0.187353
H541	H	-0.312402	-0.816208	-0.953853
H542	H	-0.062402	-0.566208	-0.703853
H543	H	0.187598	-0.316208	-0.453853
H544	H	0.437598	-0.066208	-0.203853
Cl545	Cl	-0.941192	-0.680086	-0.327376
Cl546	Cl	-0.691192	-0.430086	-0.077376
Cl547	Cl	-0.441192	-0.180086	0.172624
Cl548	Cl	-0.191192	0.069914	0.422624
H549	H	-0.801157	-0.661405	-0.345978
H550	H	-0.551157	-0.411405	-0.095978
H551	H	-0.301157	-0.161405	0.154022
H552	H	-0.051157	0.088595	0.404022
H553	H	-0.702107	-0.661379	-0.345971
H554	H	-0.452107	-0.411379	-0.095971
H555	H	-0.202107	-0.161379	0.154029
H556	H	0.047893	0.088621	0.404029
H557	H	-0.157684	-0.661516	-0.702682
H558	H	0.092316	-0.411516	-0.452682
H559	H	0.342316	-0.161516	-0.202682
H560	H	0.592316	0.088484	0.047318
Cl561	Cl	-0.360683	-0.864399	-0.813817
Cl562	Cl	-0.110683	-0.614399	-0.563817
Cl563	Cl	0.139317	-0.364399	-0.313817
Cl564	Cl	0.389317	-0.114399	-0.063817
Cl565	Cl	-0.142856	-0.646729	-0.813822
Cl566	Cl	0.107144	-0.396729	-0.563822
Cl567	Cl	0.357144	-0.146729	-0.313822
Cl568	Cl	0.607144	0.103271	-0.063822
Cl569	Cl	-0.143096	-0.194285	-0.361052
Cl570	Cl	0.106904	0.055715	-0.111052
Cl571	Cl	0.356904	0.305715	0.138948
Cl572	Cl	0.606904	0.555715	0.388948
Cl573	Cl	-0.438759	-0.830942	-0.176508
Cl574	Cl	-0.188759	-0.580942	0.073492
Cl575	Cl	0.061241	-0.330942	0.323492
Cl576	Cl	0.311241	-0.080942	0.573492
H577	H	-0.191283	0.044871	-0.312735
H578	H	0.058717	0.294871	-0.062735
H579	H	0.308717	0.544871	0.187265
H580	H	0.558717	0.794871	0.437265
Cl581	Cl	-0.327240	0.057107	-0.176353
Cl582	Cl	-0.077240	0.307107	0.073647
Cl583	Cl	0.172760	0.557107	0.323647
Cl584	Cl	0.422760	0.807107	0.573647
Cl585	Cl	-0.360604	-0.194041	-0.142805
Cl586	Cl	-0.110604	0.055959	0.107195
Cl587	Cl	0.139396	0.305959	0.357195
Cl588	Cl	0.389396	0.555959	0.607195
H589	H	-0.549986	-0.694764	-0.312538
H590	H	-0.299986	-0.444764	-0.062538
H591	H	-0.049986	-0.194764	0.187462
H592	H	0.200014	0.055236	0.437462
H593	H	-0.345818	-0.305196	-0.157645
H594	H	-0.095818	-0.055196	0.092355
H595	H	0.154182	0.194804	0.342355
H596	H	0.404182	0.444804	0.592355
H597	H	-0.312445	-0.556405	-0.191143
H598	H	-0.062445	-0.306405	0.058857
H599	H	0.187555	-0.056405	0.308857
H600	H	0.437555	0.193595	0.558857
Cl601	Cl	-0.360703	-0.864392	-0.690594
Cl602	Cl	-0.110703	-0.614392	-0.440594
Cl603	Cl	0.139297	-0.364392	-0.190594
Cl604	Cl	0.389297	-0.114392	0.059406
Cl605	Cl	-0.176250	-0.680167	-0.941743
Cl606	Cl	0.073750	-0.430167	-0.691743
Cl607	Cl	0.323750	-0.180167	-0.441743
Cl608	Cl	0.573750	0.069833	-0.191743
Cl609	Cl	-0.327306	-0.830957	-0.439399
Cl610	Cl	-0.077306	-0.580957	-0.189399
Cl611	Cl	0.172694	-0.330957	0.060601
Cl612	Cl	0.422694	-0.080957	0.310601
H613	H	-0.191151	-0.694929	-0.451499
H614	H	0.058849	-0.444929	-0.201499
H615	H	0.308849	-0.194929	0.048501
H616	H	0.558849	0.055071	0.298501
H617	H	-0.191139	-0.694928	-0.550548
H618	H	0.058861	-0.444928	-0.300548
H619	H	0.308861	-0.194928	-0.050548
H620	H	0.558861	0.055072	0.199452
