data_functionalizedCrystal
_audit_creation_method	'MofGen! by Chris Wilmer'
_symmetry_space_group_name_H-M	'P1'
_symmetry_Int_Tables_number	1
_symmetry_cell_setting	triclinic
loop_
_symmetry_equiv_pos_as_xyz
  x,y,z
_cell_length_a	18.101398
_cell_length_b	18.101397
_cell_length_c	18.101390
_cell_angle_alpha	89.964458
_cell_angle_beta	89.975319
_cell_angle_gamma	90.015732
loop_
_atom_site_label
_atom_site_type_symbol
_atom_site_fract_x
_atom_site_fract_y
_atom_site_fract_z
Zn1	Zn	1.132178	-0.294895	-0.418825
Zn2	Zn	1.465512	0.038439	-0.085492
Zn3	Zn	1.798845	0.371772	0.247841
Zn4	Zn	1.132096	-0.418752	-0.294978
Zn5	Zn	1.465430	-0.085418	0.038355
Zn6	Zn	1.798763	0.247915	0.371689
Zn7	Zn	1.008337	-0.294918	-0.294986
Zn8	Zn	1.341670	0.038415	0.038347
Zn9	Zn	1.675003	0.371748	0.371680
Zn10	Zn	1.008311	-0.418689	-0.418767
Zn11	Zn	1.341644	-0.085355	-0.085433
Zn12	Zn	1.674978	0.247978	0.247900
O13	O	1.070231	-0.356813	-0.356889
O14	O	1.403564	-0.023480	-0.023556
O15	O	1.736897	0.309853	0.309778
O16	O	1.235800	-0.311341	-0.402418
O17	O	1.569134	0.021992	-0.069084
O18	O	1.902467	0.355326	0.264249
O19	O	1.115656	-0.402361	-0.191346
O20	O	1.448989	-0.069028	0.141987
O21	O	1.782323	0.264305	0.475320
O22	O	1.024809	-0.191282	-0.311442
O23	O	1.358143	0.142051	0.021891
O24	O	1.691476	0.475384	0.355225
O25	O	1.235740	-0.402338	-0.311428
O26	O	1.569074	-0.069005	0.021906
O27	O	1.902407	0.264328	0.355239
O28	O	1.115795	-0.191265	-0.402426
O29	O	1.449129	0.142068	-0.069092
O30	O	1.782462	0.475402	0.264241
O31	O	1.024730	-0.311381	-0.191352
O32	O	1.358063	0.021952	0.141981
O33	O	1.691397	0.355285	0.475314
O34	O	0.904700	-0.311320	-0.311385
O35	O	1.238034	0.022013	0.021948
O36	O	1.571367	0.355346	0.355282
O37	O	1.024766	-0.402231	-0.522407
O38	O	1.358099	-0.068898	-0.189074
O39	O	1.691433	0.264436	0.144259
O40	O	0.904682	-0.402254	-0.402326
O41	O	1.238015	-0.068921	-0.068993
O42	O	1.571348	0.264413	0.264341
O43	O	1.115771	-0.311280	-0.522450
O44	O	1.449104	0.022053	-0.189117
O45	O	1.782437	0.355387	0.144216
O46	O	1.115631	-0.522376	-0.311371
O47	O	1.448964	-0.189043	0.021963
O48	O	1.782298	0.144290	0.355296
O49	O	1.024686	-0.522330	-0.402318
O50	O	1.358020	-0.188997	-0.068984
O51	O	1.691353	0.144337	0.264349
C52	C	0.877820	-0.356783	-0.356850
C53	C	1.211153	-0.023450	-0.023517
C54	C	1.544487	0.309883	0.309816
C55	C	0.795506	-0.356788	-0.356851
C56	C	1.128839	-0.023455	-0.023518
C57	C	1.462173	0.309878	0.309815
C58	C	0.496415	-0.356835	-0.356914
C59	C	0.829748	-0.023501	-0.023580
C60	C	1.163082	0.309832	0.309753
C61	C	0.527727	-0.299336	-0.299975
C62	C	0.861061	0.033998	0.033358
C63	C	1.194394	0.367331	0.366691
C64	C	0.613345	-0.299490	-0.299732
C65	C	0.946679	0.033843	0.033601
C66	C	1.280012	0.367177	0.366934
C67	C	0.644798	-0.356811	-0.356883
C68	C	0.978131	-0.023478	-0.023549
C69	C	1.311464	0.309856	0.309784
C70	C	0.613694	-0.434824	-0.335555
C71	C	0.947027	-0.101491	-0.002221
C72	C	1.280360	0.231842	0.331112
C73	C	0.528049	-0.434505	-0.335159
C74	C	0.861382	-0.101171	-0.001825
C75	C	1.194715	0.232162	0.331508
C76	C	0.528026	-0.336998	-0.435314
C77	C	0.861360	-0.003665	-0.101981
C78	C	1.194693	0.329668	0.231353
C79	C	0.613677	-0.335261	-0.434886
C80	C	0.947010	-0.001928	-0.101553
C81	C	1.280344	0.331405	0.231780
C82	C	0.728657	-0.356802	-0.356867
C83	C	1.061990	-0.023469	-0.023533
C84	C	1.395324	0.309864	0.309800
C85	C	0.412556	-0.356848	-0.356928
C86	C	0.745889	-0.023515	-0.023595
C87	C	1.079222	0.309818	0.309739
C88	C	1.070167	-0.549224	-0.356853
C89	C	1.403501	-0.215891	-0.023520
C90	C	1.736834	0.117443	0.309814
C91	C	1.070208	-0.631538	-0.356863
C92	C	1.403541	-0.298205	-0.023529
C93	C	1.736875	0.035129	0.309804
C94	C	1.070302	-0.930629	-0.356930
C95	C	1.403636	-0.597296	-0.023597
C96	C	1.736969	-0.263962	0.309737
C97	C	1.127363	-0.899302	-0.299555
C98	C	1.460696	-0.565969	0.033778
C99	C	1.794029	-0.232635	0.367111
C100	C	1.127560	-0.813684	-0.299704
C101	C	1.460894	-0.480350	0.033629
C102	C	1.794227	-0.147017	0.366962
C103	C	1.070256	-0.782246	-0.356896
C104	C	1.403589	-0.448913	-0.023563
C105	C	1.736922	-0.115580	0.309771
C106	C	1.091412	-0.813249	-0.434959
C107	C	1.424745	-0.479915	-0.101625
C108	C	1.758079	-0.146582	0.231708
C109	C	1.091854	-0.898894	-0.434646
C110	C	1.425187	-0.565560	-0.101313
C111	C	1.758520	-0.232227	0.232021
C112	C	0.991933	-0.899133	-0.336918
C113	C	1.325267	-0.565800	-0.003584
C114	C	1.658600	-0.232467	0.329749
C115	C	0.992321	-0.813484	-0.335175
C116	C	1.325654	-0.480151	-0.001842
C117	C	1.658987	-0.146817	0.331491
C118	C	1.070228	-0.698387	-0.356881
C119	C	1.403561	-0.365054	-0.023548
C120	C	1.736894	-0.031720	0.309785
C121	C	1.070332	-1.014488	-0.356950
C122	C	1.403665	-0.681155	-0.023617
C123	C	1.736999	-0.347822	0.309717
C124	C	1.263392	-0.356844	-0.356928
C125	C	1.596726	-0.023511	-0.023595
C126	C	1.930059	0.309823	0.309738
C127	C	1.345707	-0.356857	-0.356945
C128	C	1.679040	-0.023524	-0.023612
C129	C	2.012373	0.309809	0.309722
C130	C	1.070275	-0.356746	-0.550051
C131	C	1.403608	-0.023413	-0.216718
C132	C	1.736941	0.309921	0.116616
C133	C	1.070293	-0.356717	-0.632365
C134	C	1.403627	-0.023384	-0.299032
C135	C	1.736960	0.309950	0.034301
C136	C	1.070314	-0.163652	-0.356941
C137	C	1.403648	0.169682	-0.023608
C138	C	1.736981	0.503015	0.309725
C139	C	1.070350	-0.081337	-0.356964
C140	C	1.403683	0.251996	-0.023630
C141	C	1.737017	0.585329	0.309703
C142	C	1.070333	-0.356671	-0.931456
C143	C	1.403667	-0.023338	-0.598123
C144	C	1.737000	0.309996	-0.264790
C145	C	1.127780	-0.299648	-0.900158
C146	C	1.461113	0.033685	-0.566825
C147	C	1.794446	0.367018	-0.233492
C148	C	1.127600	-0.299437	-0.814540
C149	C	1.460934	0.033897	-0.481207
C150	C	1.794267	0.367230	-0.147873
C151	C	1.070314	-0.356694	-0.783074
C152	C	1.403647	-0.023360	-0.449740
C153	C	1.736981	0.309973	-0.116407
C154	C	0.992293	-0.335484	-0.814141
C155	C	1.325627	-0.002151	-0.480808
C156	C	1.658960	0.331183	-0.147475
C157	C	0.992637	-0.335057	-0.899787
C158	C	1.325971	-0.001723	-0.566453
C159	C	1.659304	0.331610	-0.233120
C160	C	1.090221	-0.435050	-0.899867
C161	C	1.423554	-0.101716	-0.566533
C162	C	1.756887	0.231617	-0.233200
C163	C	1.091933	-0.434650	-0.814217
C164	C	1.425266	-0.101317	-0.480884
C165	C	1.758599	0.232017	-0.147550
C166	C	1.070299	-0.356708	-0.699214
C167	C	1.403632	-0.023375	-0.365881
C168	C	1.736965	0.309959	-0.032548
C169	C	1.070344	-0.356655	-1.015316
C170	C	1.403677	-0.023321	-0.681983
C171	C	1.737010	0.310012	-0.348649
C172	C	1.070229	-0.356827	-0.164479
C173	C	1.403563	-0.023494	0.168855
C174	C	1.736896	0.309839	0.502188
C175	C	1.070354	-0.356648	-0.082165
C176	C	1.403687	-0.023314	0.251168
C177	C	1.737021	0.310019	0.584502
H178	H	0.507146	-0.241309	-0.313197
H179	H	0.840480	0.092024	0.020136
H180	H	1.173813	0.425358	0.353469
H181	H	0.508040	-0.451326	-0.277844
H182	H	0.841373	-0.117993	0.055489
H183	H	1.174706	0.215340	0.388822
F184	F	0.640086	-0.316627	-0.223799
F185	F	0.973419	0.016706	0.109535
F186	F	1.306753	0.350039	0.442868
F187	F	0.971465	-0.787006	-0.260089
F188	F	1.304798	-0.453673	0.073245
F189	F	1.638132	-0.120340	0.406578
H190	H	0.506444	-0.281101	-0.454705
H191	H	0.839778	0.052232	-0.121371
H192	H	1.173111	0.385566	0.211962
F193	F	1.166983	-0.455554	-0.787682
F194	F	1.500316	-0.122221	-0.454349
F195	F	1.833649	0.211113	-0.121016
H196	H	1.185612	-0.793144	-0.312946
H197	H	1.518945	-0.459810	0.020388
H198	H	1.852278	-0.126477	0.353721
H199	H	1.185454	-0.312720	-0.793536
H200	H	1.518787	0.020614	-0.460203
H201	H	1.852121	0.353947	-0.126870
H202	H	0.634067	-0.478814	-0.375728
H203	H	0.967400	-0.145480	-0.042394
H204	H	1.300733	0.187853	0.290939
F205	F	1.203647	-0.316791	-0.927095
F206	F	1.536981	0.016542	-0.593762
F207	F	1.870314	0.349875	-0.260428
H208	H	0.947519	-0.792092	-0.373903
H209	H	1.280853	-0.458758	-0.040570
H210	H	1.614186	-0.125425	0.292763
F211	F	1.039884	-0.925978	-0.492422
F212	F	1.373218	-0.592645	-0.159088
F213	F	1.706551	-0.259312	0.174245
H214	H	0.507778	-0.378878	-0.477738
H215	H	0.841111	-0.045545	-0.144405
H216	H	1.174445	0.287788	0.188928
H217	H	0.972687	-0.920797	-0.280981
H218	H	1.306020	-0.587464	0.052352
H219	H	1.639353	-0.254130	0.385685
F220	F	0.936364	-0.925614	-0.391536
F221	F	1.269697	-0.592280	-0.058203
F222	F	1.603030	-0.258947	0.275131
H223	H	1.048383	-0.477538	-0.920111
H224	H	1.381717	-0.144204	-0.586778
H225	H	1.715050	0.189129	-0.253445
H226	H	0.948329	-0.375737	-0.793757
H227	H	1.281663	-0.042404	-0.460423
H228	H	1.614996	0.290929	-0.127090
F229	F	0.641685	-0.457194	-0.261449
F230	F	0.975018	-0.123860	0.071885
F231	F	1.308352	0.209473	0.405218
H232	H	0.634010	-0.277852	-0.450968
H233	H	0.967344	0.055481	-0.117635
H234	H	1.300677	0.388815	0.215698
H235	H	0.635090	-0.374088	-0.479583
H236	H	0.968423	-0.040755	-0.146250
H237	H	1.301756	0.292579	0.187084
F238	F	1.110221	-0.786288	-0.224057
F239	F	1.443555	-0.452955	0.109276
F240	F	1.776888	-0.119621	0.442610
H241	H	1.114781	-0.241908	-0.921697
H242	H	1.448115	0.091425	-0.588364
H243	H	1.781448	0.424759	-0.255031
F244	F	1.166728	-0.924936	-0.456801
F245	F	1.500061	-0.591602	-0.123468
F246	F	1.833395	-0.258269	0.209866
H247	H	1.051123	-0.792882	-0.478857
H248	H	1.384456	-0.459549	-0.145524
H249	H	1.717789	-0.126216	0.187810
F250	F	0.499551	-0.316270	-0.224486
F251	F	0.832885	0.017063	0.108847
F252	F	1.166218	0.350396	0.442181
F253	F	0.934782	-0.386971	-0.926848
F254	F	1.268115	-0.053638	-0.593515
F255	F	1.601449	0.279696	-0.260181
F256	F	1.110393	-0.223542	-0.787779
F257	F	1.443726	0.109791	-0.454446
F258	F	1.777059	0.443124	-0.121112
F259	F	0.970576	-0.260177	-0.925920
F260	F	1.303909	0.073156	-0.592587
F261	F	1.637243	0.406489	-0.259253
H262	H	0.507335	-0.478797	-0.374821
H263	H	0.840668	-0.145464	-0.041488
H264	H	1.174002	0.187870	0.291845
H265	H	1.114287	-0.919949	-0.241500
H266	H	1.447620	-0.586616	0.091833
H267	H	1.780953	-0.253282	0.425167
F268	F	0.969859	-0.261425	-0.786128
F269	F	1.303193	0.071908	-0.452795
F270	F	1.636526	0.405241	-0.119461
F271	F	1.041218	-0.493168	-0.786222
F272	F	1.374551	-0.159835	-0.452889
F273	F	1.707885	0.173498	-0.119555
F274	F	1.202827	-0.927364	-0.316664
F275	F	1.536160	-0.594030	0.016670
F276	F	1.869494	-0.260697	0.350003
F277	F	1.165448	-0.785143	-0.457491
F278	F	1.498782	-0.451810	-0.124158
F279	F	1.832115	-0.118477	0.209176
H280	H	0.634375	-0.241640	-0.313102
H281	H	0.967709	0.091693	0.020232
H282	H	1.301042	0.425027	0.353565
F283	F	1.163309	-0.460264	-0.928112
F284	F	1.496643	-0.126931	-0.594778
F285	F	1.829976	0.206402	-0.261445
