data_functionalizedCrystal
_audit_creation_method	'MofGen! by Chris Wilmer'
_symmetry_space_group_name_H-M	'P1'
_symmetry_Int_Tables_number	1
_symmetry_cell_setting	triclinic
loop_
_symmetry_equiv_pos_as_xyz
  x,y,z
_cell_length_a	15.995292
_cell_length_b	15.995350
_cell_length_c	14.472311
_cell_angle_alpha	89.992543
_cell_angle_beta	89.994888
_cell_angle_gamma	83.480495
loop_
_atom_site_label
_atom_site_type_symbol
_atom_site_fract_x
_atom_site_fract_y
_atom_site_fract_z
O1	O	1.111015	0.107701	-0.076861
O2	O	1.611015	0.607701	0.423139
O3	O	0.867233	0.121079	-0.076857
O4	O	1.367233	0.621079	0.423143
O5	O	0.995787	-0.007499	-0.076858
O6	O	1.495787	0.492501	0.423142
O7	O	0.982460	0.236279	-0.076860
O8	O	1.482460	0.736279	0.423140
O9	O	0.995779	-0.007515	0.076824
O10	O	1.495779	0.492485	0.576824
O11	O	0.867224	0.121063	0.076825
O12	O	1.367224	0.621063	0.576825
O13	O	1.111006	0.107685	0.076821
O14	O	1.611006	0.607685	0.576821
Cu15	Cu	0.989114	0.114372	0.090855
Cu16	Cu	1.489114	0.614372	0.590855
Cu17	Cu	0.989124	0.114392	-0.090892
Cu18	Cu	1.489124	0.614392	0.409108
O19	O	0.982451	0.236263	0.076822
O20	O	1.482451	0.736263	0.576822
C21	C	0.836033	0.120527	-0.000016
C22	C	1.336033	0.620527	0.499984
C23	C	0.743080	0.118894	-0.000014
C24	C	1.243080	0.618894	0.499986
C25	C	0.405341	0.112893	-0.000025
C26	C	0.905341	0.612893	0.499975
C27	C	0.428654	0.205697	-0.000368
C28	C	0.928654	0.705697	0.499632
C29	C	0.525329	0.207461	-0.000018
C30	C	1.025329	0.707461	0.499982
C31	C	0.572897	0.115871	-0.000020
C32	C	1.072897	0.615871	0.499980
C33	C	0.543791	0.069464	0.087737
C34	C	1.043791	0.569464	0.587737
C35	C	0.447000	0.068347	0.087807
C36	C	0.947000	0.568347	0.587807
C37	C	0.447154	0.066470	-0.086958
C38	C	0.947154	0.566470	0.413042
C39	C	0.543647	0.069909	-0.088114
C40	C	1.043647	0.569909	0.411886
C41	C	0.667593	0.117549	-0.000014
C42	C	1.167593	0.617549	0.499986
C43	C	0.310646	0.111212	-0.000024
C44	C	0.810646	0.611212	0.499976
C45	C	0.995232	-0.038702	-0.000019
C46	C	1.495232	0.461298	0.499981
C47	C	0.993580	-0.131652	-0.000024
C48	C	1.493580	0.368348	0.499976
C49	C	0.987648	-0.469398	-0.000021
C50	C	1.487648	0.030602	0.499979
C51	C	0.896094	-0.421945	-0.000364
C52	C	1.396094	0.078055	0.499636
C53	C	0.897746	-0.325255	-0.000018
C54	C	1.397746	0.174745	0.499982
C55	C	0.990591	-0.301838	-0.000023
C56	C	1.490591	0.198162	0.499977
C57	C	1.035744	-0.342934	0.087734
C58	C	1.535744	0.157066	0.587734
C59	C	1.033444	-0.439570	0.087808
C60	C	1.533444	0.060430	0.587808
C61	C	1.035345	-0.439910	-0.086958
C62	C	1.535345	0.060090	0.413042
C63	C	1.035323	-0.342964	-0.088117
C64	C	1.535323	0.157036	0.411883
C65	C	0.992259	-0.207141	-0.000021
C66	C	1.492259	0.292859	0.499979
C67	C	0.985983	-0.564095	-0.000017
C68	C	1.485983	-0.064095	0.499983
C69	C	1.142206	0.108237	-0.000023
C70	C	1.642206	0.608237	0.499977
C71	C	1.235159	0.109870	-0.000030
C72	C	1.735159	0.609870	0.499970
C73	C	0.983006	0.267466	-0.000019
C74	C	1.483006	0.767466	0.499981
C75	C	0.984658	0.360416	-0.000020
C76	C	1.484658	0.860416	0.499980
N77	N	0.989114	0.114358	0.218686
N78	N	1.489114	0.614358	0.718686
C79	C	0.989127	0.114385	0.592777
C80	C	1.489127	0.614385	1.092777
C81	C	1.058137	0.045815	0.553582
C82	C	1.558137	0.545815	1.053582
C83	C	1.057957	0.045562	0.446494
C84	C	1.557957	0.545562	0.946494
C85	C	0.989121	0.114372	0.407186
C86	C	1.489121	0.614372	0.907186
C87	C	0.901762	0.095309	0.446079
C88	C	1.401762	0.595309	0.946079
C89	C	0.902171	0.094824	0.553200
C90	C	1.402171	0.594824	1.053200
C91	C	1.006689	0.202220	0.553281
C92	C	1.506689	0.702220	1.053281
C93	C	1.008672	0.201631	0.446153
C94	C	1.508672	0.701631	0.946153
C95	C	0.989112	0.114366	0.302298
C96	C	1.489112	0.614366	0.802298
C97	C	0.989130	0.114389	0.697665
C98	C	1.489130	0.614389	1.197665
N99	N	0.989135	0.114398	0.781278
N100	N	1.489135	0.614398	1.281278
H101	H	0.399632	0.241263	0.062213
H102	H	0.899632	0.741263	0.562213
Br103	Br	1.110600	0.232760	0.598284
Br104	Br	1.610600	0.732760	1.098284
H105	H	0.961666	0.255046	0.419393
H106	H	1.461666	0.755046	0.919393
H107	H	0.400661	0.241475	-0.063303
H108	H	0.900661	0.741475	0.436697
H109	H	1.103030	-0.327616	-0.093420
H110	H	1.603030	0.172384	0.406580
Br111	Br	1.166742	0.064425	0.596495
Br112	Br	1.666742	0.564425	1.096495
Br113	Br	0.814102	0.176333	0.403649
Br114	Br	1.314102	0.676333	0.903649
Br115	Br	1.166187	0.064493	0.402659
Br116	Br	1.666187	0.564493	0.902659
Br117	Br	1.039711	-0.062216	0.598460
Br118	Br	1.539711	0.437784	1.098460
Br119	Br	1.147853	-0.492869	-0.087949
Br120	Br	1.647853	0.007131	0.412051
H121	H	0.862252	-0.296819	-0.062926
H122	H	1.362252	0.203181	0.437074
H123	H	0.885903	0.031982	0.419260
H124	H	1.385903	0.531982	0.919260
H125	H	0.432450	0.000302	0.091792
H126	H	0.932450	0.500302	0.591792
Br127	Br	0.980761	-0.296986	-0.196342
Br128	Br	1.480761	0.203014	0.303658
Br129	Br	1.115780	0.225751	0.403777
Br130	Br	1.615780	0.725751	0.903777
Br131	Br	0.399956	0.114836	-0.197823
Br132	Br	0.899956	0.614836	0.302177
H133	H	0.956366	0.253248	0.578633
H134	H	1.456366	0.753248	1.078633
H135	H	1.046736	-0.019621	0.420878
H136	H	1.546736	0.480379	0.920878
Br137	Br	0.598592	-0.041519	-0.096952
Br138	Br	1.098592	0.458481	0.403048
H139	H	0.544359	0.243800	-0.062928
H140	H	1.044359	0.743800	0.437072
Br141	Br	0.978551	-0.470078	0.197149
Br142	Br	1.478551	0.029922	0.697149
Br143	Br	0.556006	0.268375	0.105015
Br144	Br	1.056006	0.768375	0.605015
Br145	Br	0.835191	-0.454999	0.103626
Br146	Br	1.335191	0.045001	0.603626
H147	H	0.886692	0.030767	0.578196
H148	H	1.386692	0.530767	1.078196
H149	H	0.420180	0.100473	0.153408
H150	H	0.920180	0.600473	0.653408
Br151	Br	0.814010	0.174897	0.596424
Br152	Br	1.314010	0.674897	1.096424
H153	H	0.575659	0.002065	0.090999
H154	H	1.075659	0.502065	0.590999
Br155	Br	0.835102	-0.452803	-0.105259
Br156	Br	1.335102	0.047197	0.394741
H157	H	0.562220	0.103699	-0.153037
H158	H	1.062220	0.603699	0.346963
Br159	Br	0.577215	0.123151	0.196596
Br160	Br	1.077215	0.623151	0.696596
Br161	Br	0.423840	-0.047386	-0.087947
Br162	Br	0.923840	0.452614	0.412053
Br163	Br	1.145473	-0.493347	0.094450
Br164	Br	1.645473	0.006653	0.594450
Br165	Br	0.838173	-0.278802	0.105011
Br166	Br	1.338173	0.221198	0.605011
H167	H	1.004376	-0.314553	0.153044
H168	H	1.504376	0.185447	0.653044
H169	H	1.103954	-0.328823	0.090994
H170	H	1.603954	0.171177	0.590994
H171	H	1.005415	-0.460436	-0.153473
H172	H	1.505415	0.039564	0.346527
