data_functionalizedCrystal
_audit_creation_method	'MofGen! by Chris Wilmer'
_symmetry_space_group_name_H-M	'P1'
_symmetry_Int_Tables_number	1
_symmetry_cell_setting	triclinic
loop_
_symmetry_equiv_pos_as_xyz
  x,y,z
_cell_length_a	21.395364
_cell_length_b	21.395361
_cell_length_c	21.395355
_cell_angle_alpha	89.978489
_cell_angle_beta	89.974323
_cell_angle_gamma	90.024740
loop_
_atom_site_label
_atom_site_type_symbol
_atom_site_fract_x
_atom_site_fract_y
_atom_site_fract_z
Zn1	Zn	-0.957859	0.249611	0.354267
Zn2	Zn	-0.957761	0.354371	0.249484
Zn3	Zn	-0.853074	0.249600	0.249502
Zn4	Zn	-0.853043	0.354344	0.354222
O5	O	-0.905434	0.301981	0.301869
O6	O	-1.045524	0.263523	0.340379
O7	O	-0.943847	0.340479	0.161809
O8	O	-0.867028	0.161924	0.263425
O9	O	-1.045452	0.340490	0.263395
O10	O	-0.944013	0.161932	0.340396
O11	O	-0.866933	0.263505	0.161822
O12	O	-0.765392	0.263479	0.263382
O13	O	-0.866975	0.340444	0.441906
O14	O	-0.765369	0.340433	0.340320
O15	O	-0.943983	0.263497	0.441939
O16	O	-0.943817	0.442045	0.263352
O17	O	-0.866881	0.442025	0.340302
C18	C	-0.742647	0.301952	0.301848
C19	C	-0.673006	0.301955	0.301854
C20	C	-0.171246	0.261977	0.342013
C21	C	-0.236681	0.261975	0.342015
C22	C	-0.269367	0.301981	0.301870
C23	C	-0.236612	0.342005	0.261733
C24	C	-0.171178	0.342011	0.261737
C25	C	-0.373004	0.306836	0.245405
C26	C	-0.438437	0.306826	0.245399
C27	C	-0.471188	0.301966	0.301857
C28	C	-0.438498	0.297104	0.358322
C29	C	-0.373064	0.297110	0.358326
C30	C	-0.340320	0.301980	0.301861
C31	C	-0.574888	0.261945	0.341996
C32	C	-0.640324	0.261947	0.341998
C33	C	-0.640254	0.341974	0.261711
C34	C	-0.574818	0.341976	0.261714
C35	C	-0.542139	0.301958	0.301856
C36	C	-0.905352	0.464769	0.301834
C37	C	-0.905374	0.534410	0.301840
C38	C	-0.905486	0.301969	0.465292
C39	C	-0.905509	0.301963	0.534933
C40	C	-0.068858	0.302003	0.301885
C41	C	-0.138499	0.301993	0.301879
C42	C	-0.905535	0.138558	0.301918
C43	C	-0.905577	0.068917	0.301938
C44	C	-0.945470	0.567113	0.261813
C45	C	-0.945499	0.632548	0.261827
C46	C	-0.905421	0.665279	0.301861
C47	C	-0.865322	0.632568	0.341896
C48	C	-0.865298	0.567134	0.341886
C49	C	-0.849006	0.768988	0.306770
C50	C	-0.849029	0.834421	0.306777
C51	C	-0.905494	0.867099	0.301898
C52	C	-0.961938	0.834337	0.297000
C53	C	-0.961915	0.768903	0.296990
C54	C	-0.905442	0.736231	0.301878
C55	C	-0.945625	0.970754	0.261884
C56	C	-0.945655	1.036191	0.261903
C57	C	-0.865472	1.036209	0.341969
C58	C	-0.865448	0.970774	0.341954
C59	C	-0.905523	0.938051	0.301908
C60	C	-0.905419	0.301949	0.139081
C61	C	-0.905518	0.301778	0.069440
C62	C	-0.945605	0.261895	0.567665
C63	C	-0.945604	0.261868	0.633100
C64	C	-0.905513	0.301921	0.665802
C65	C	-0.865409	0.341991	0.633063
C66	C	-0.865407	0.342013	0.567629
C67	C	-0.900538	0.358335	0.769464
C68	C	-0.900544	0.358315	0.834897
C69	C	-0.905517	0.301854	0.867623
C70	C	-0.910497	0.245412	0.834907
C71	C	-0.910494	0.245434	0.769473
C72	C	-0.905511	0.301902	0.736754
C73	C	-0.945615	0.261754	0.971307
C74	C	-0.945610	0.261726	1.036743
C75	C	-0.865418	0.341854	1.036704
C76	C	-0.865420	0.341877	0.971269
C77	C	-0.905522	0.301827	0.938574
H78	H	-0.144516	0.374598	0.229054
C79	C	-0.915966	0.183300	0.870900
N80	N	-0.920086	0.136519	0.898013
H81	H	-0.803068	0.861091	0.310759
C82	C	-1.024056	0.870278	0.291639
N83	N	-1.070841	0.897352	0.287601
H84	H	-0.548279	0.229361	0.374682
C85	C	-0.336984	0.312183	0.183293
N86	N	-0.309855	0.316211	0.136512
H87	H	-0.832753	0.374640	0.540979
H88	H	-0.978152	0.659180	0.229232
H89	H	-0.144643	0.229394	0.374703
C90	C	-0.989766	1.072164	0.217867
N91	N	-1.022990	1.099259	0.184696
H92	H	-0.896320	0.404301	0.742825
C93	C	-0.989720	0.217644	1.072748
N94	N	-1.022945	0.184442	1.099866
C95	C	-0.821351	0.934800	0.386000
N96	N	-0.788142	0.907704	0.419185
H97	H	-0.832766	0.374600	0.659693
C98	C	-0.821195	0.531160	0.385929
N99	N	-0.787979	0.504063	0.419105
H100	H	-0.978259	0.944110	0.229278
C101	C	-0.821319	0.385913	1.072673
N102	N	-0.788101	0.419098	1.099767
H103	H	-0.263349	0.229386	0.374696
C104	C	-0.821387	1.072209	0.386009
N105	N	-0.788181	1.099327	0.419182
C106	C	-0.786884	0.733048	0.312122
N107	N	-0.740095	0.705979	0.316147
C108	C	-0.337108	0.291755	0.420435
N109	N	-0.310026	0.287720	0.467217
C110	C	-0.538795	0.385988	0.217553
N111	N	-0.511663	0.419140	0.184288
C112	C	-0.821233	0.668572	0.385932
N113	N	-0.788025	0.695691	0.419102
C114	C	-0.474389	0.312172	0.183287
N115	N	-0.501467	0.316199	0.136502
C116	C	-0.989709	0.217831	0.531704
N117	N	-1.022927	0.184639	0.504617
C118	C	-0.989718	0.217793	0.669112
N119	N	-1.022947	0.184596	0.696234
H120	H	-0.914547	0.199476	0.742838
H121	H	-0.978264	0.229140	0.944685
H122	H	-0.465163	0.293144	0.404295
H123	H	-0.978103	0.540471	0.229207
H124	H	-0.832773	0.374508	0.944619
C125	C	-0.676346	0.217923	0.386151
N126	N	-0.703478	0.184761	0.419406
H127	H	-0.896494	0.404274	0.861529
H128	H	-0.263229	0.374580	0.229048
H129	H	-0.666866	0.374554	0.229029
H130	H	-1.007873	0.742229	0.293003
