data_functionalizedCrystal
_audit_creation_method	'MofGen! by Chris Wilmer'
_symmetry_space_group_name_H-M	'P1'
_symmetry_Int_Tables_number	1
_symmetry_cell_setting	triclinic
loop_
_symmetry_equiv_pos_as_xyz
  x,y,z
_cell_length_a	17.699083
_cell_length_b	11.026607
_cell_length_c	16.176319
_cell_angle_alpha	89.996049
_cell_angle_beta	89.998611
_cell_angle_gamma	95.934516
loop_
_atom_site_label
_atom_site_type_symbol
_atom_site_fract_x
_atom_site_fract_y
_atom_site_fract_z
O1	O	1.025155	0.153399	-0.068626
O2	O	0.807518	0.173357	-0.068652
O3	O	0.898299	-0.013222	-0.068638
O4	O	0.934374	0.339978	-0.068640
O5	O	0.898282	-0.013234	0.068855
O6	O	0.807501	0.173345	0.068841
O7	O	1.025137	0.153387	0.068867
Cu8	Cu	0.916317	0.163365	0.081408
Cu9	Cu	0.916338	0.163379	-0.081193
O10	O	0.934357	0.339966	0.068853
C11	C	0.779214	0.172636	0.000091
C12	C	0.694902	0.170490	0.000080
C13	C	0.661328	0.280008	0.000080
C14	C	0.582106	0.277985	0.000091
C15	C	0.536460	0.166443	0.000096
C16	C	0.570039	0.056917	0.000099
C17	C	0.649259	0.058941	0.000094
C18	C	0.250554	0.048751	0.000119
C19	C	0.171329	0.046735	0.000121
C20	C	0.183402	0.267794	0.000116
C21	C	0.262621	0.269819	0.000111
C22	C	0.296194	0.160293	0.000118
C23	C	0.382094	0.162488	0.000108
C24	C	0.450561	0.164247	0.000100
C25	C	0.891635	-0.058419	0.000106
C26	C	0.871796	-0.193075	0.000101
C27	C	0.926576	-0.267042	0.000107
C28	C	0.906072	-0.406216	0.000101
C29	C	1.053441	0.154108	0.000122
C30	C	1.137754	0.156254	0.000127
C31	C	0.941021	0.385163	0.000107
C32	C	0.960860	0.519819	0.000106
N33	N	0.916308	0.163354	0.195773
N34	N	0.916352	0.163380	-0.195559
C35	C	0.956526	0.080771	0.239044
C36	C	0.956530	0.080770	0.325591
C37	C	0.916320	0.163358	0.368866
C38	C	0.876097	0.245946	0.325590
C39	C	0.876089	0.245940	0.239044
C40	C	0.876126	0.245969	0.674618
C41	C	0.876138	0.245970	0.761169
C42	C	0.956566	0.080798	0.761165
C43	C	0.956559	0.080792	0.674619
C44	C	0.916333	0.163375	0.631350
C45	C	0.916328	0.163374	0.537506
C46	C	0.916328	0.163366	0.462709
H47	H	0.988654	-0.227333	0.000119
H48	H	0.989274	0.013523	0.203815
C49	C	0.500023	0.403963	0.070766
C50	C	0.545199	0.398368	0.000083
H51	H	0.477242	0.478290	0.070761
H52	H	0.461506	0.337250	0.070769
H53	H	0.530687	0.400165	0.118706
H54	H	0.514534	0.402157	-0.047857
H55	H	0.583721	0.465100	0.000072
H56	H	0.989318	0.013551	0.796403
C57	C	0.788124	0.381275	0.000058
C58	C	0.711499	0.402620	0.000069
H59	H	0.819095	0.456974	0.000047
H60	H	0.798628	0.336200	0.048003
H61	H	0.798618	0.336190	-0.047891
H62	H	0.701005	0.447697	0.048022
H63	H	0.700991	0.447714	-0.047881
H64	H	0.134166	-0.044102	0.000127
C65	C	0.751930	-0.207278	-0.070599
C66	C	0.787989	-0.246667	0.000086
H67	H	0.700192	-0.240370	-0.070609
H68	H	0.754713	-0.120792	-0.070589
H69	H	0.776424	-0.233980	-0.118537
H70	H	0.763498	-0.219958	0.048025
H71	H	0.785201	-0.333172	0.000083
H72	H	0.299783	0.360648	0.000103
H73	H	0.989277	0.013523	0.360821
C74	C	0.629374	-0.159777	0.000086
C75	C	0.686167	-0.061444	0.000086
H76	H	0.652160	-0.234099	0.000078
H77	H	0.598730	-0.155976	0.048032
H78	H	0.598724	-0.155954	-0.047862
H79	H	0.716814	-0.065263	0.048038
H80	H	0.716824	-0.065248	-0.047865
H81	H	0.989305	0.013545	0.639387
C82	C	0.796613	0.409226	0.752486
C83	C	0.831927	0.336747	0.808739
H84	H	0.769317	0.465258	0.781855
H85	H	0.834042	0.452805	0.718724
H86	H	0.762519	0.358766	0.718736
H87	H	0.866025	0.387207	0.842485
H88	H	0.794494	0.293165	0.842516
H89	H	0.843374	0.313212	0.639395
C90	C	1.048764	-0.299101	0.000122
C91	C	1.044671	-0.426599	0.000119
H92	H	1.100505	-0.266024	0.000135
H93	H	1.024296	-0.272397	-0.047825
H94	H	1.024276	-0.272414	0.048070
H95	H	1.069155	-0.453286	-0.047832
H96	H	1.069150	-0.453313	0.048071
C97	C	0.230653	-0.169964	0.000120
C98	C	0.287450	-0.071638	0.000120
H99	H	0.253435	-0.244290	0.000116
H100	H	0.200007	-0.166156	0.048064
H101	H	0.200006	-0.166140	-0.047830
H102	H	0.318094	-0.075458	0.048074
H103	H	0.318109	-0.075449	-0.047829
H104	H	0.843353	0.313187	0.360829
H105	H	0.156058	0.356975	0.000115
H106	H	0.532868	-0.033903	0.000115
C107	C	0.796596	0.409222	0.247736
C108	C	0.831885	0.336724	0.191478
H109	H	0.769308	0.465272	0.218369
H110	H	0.762506	0.358786	0.281498
H111	H	0.834045	0.452792	0.281485
H112	H	0.794435	0.293147	0.157732
H113	H	0.865977	0.387167	0.157702
H114	H	0.843990	-0.445918	0.000088
