data_functionalizedCrystal
_audit_creation_method	'MofGen! by Chris Wilmer'
_symmetry_space_group_name_H-M	'P1'
_symmetry_Int_Tables_number	1
_symmetry_cell_setting	triclinic
loop_
_symmetry_equiv_pos_as_xyz
  x,y,z
_cell_length_a	13.897448
_cell_length_b	13.897449
_cell_length_c	11.169409
_cell_angle_alpha	89.975859
_cell_angle_beta	90.035576
_cell_angle_gamma	89.982475
loop_
_atom_site_label
_atom_site_type_symbol
_atom_site_fract_x
_atom_site_fract_y
_atom_site_fract_z
Zn1	Zn	-0.383941	-1.474715	0.678654
Zn2	Zn	-0.133941	-1.224715	0.928654
Zn3	Zn	0.116059	-0.974715	1.178654
Zn4	Zn	0.366059	-0.724715	1.428654
Zn5	Zn	-0.545277	-1.474605	0.477959
Zn6	Zn	-0.295277	-1.224605	0.727959
Zn7	Zn	-0.045277	-0.974605	0.977959
Zn8	Zn	0.204723	-0.724605	1.227959
Zn9	Zn	-0.383997	-1.313400	0.477973
Zn10	Zn	-0.133997	-1.063400	0.727973
Zn11	Zn	0.116003	-0.813400	0.977973
Zn12	Zn	0.366003	-0.563400	1.227973
Zn13	Zn	-0.545195	-1.313386	0.678589
Zn14	Zn	-0.295195	-1.063386	0.928589
Zn15	Zn	-0.045195	-0.813386	1.178589
Zn16	Zn	0.204805	-0.563386	1.428589
O17	O	-0.464602	-1.394027	0.578294
O18	O	-0.214602	-1.144027	0.828294
O19	O	0.035398	-0.894027	1.078294
O20	O	0.285398	-0.644027	1.328294
O21	O	-0.405353	-1.609682	0.652053
O22	O	-0.155353	-1.359682	0.902053
O23	O	0.094647	-1.109682	1.152053
O24	O	0.344647	-0.859682	1.402053
O25	O	-0.523940	-1.453181	0.310011
O26	O	-0.273940	-1.203181	0.560011
O27	O	-0.023940	-0.953181	0.810011
O28	O	0.226060	-0.703181	1.060011
O29	O	-0.249008	-1.334851	0.504627
O30	O	0.000992	-1.084851	0.754627
O31	O	0.250992	-0.834851	1.004627
O32	O	0.500992	-0.584851	1.254627
O33	O	-0.523886	-1.609601	0.504603
O34	O	-0.273886	-1.359601	0.754603
O35	O	-0.023886	-1.109601	1.004603
O36	O	0.226114	-0.859601	1.254603
O37	O	-0.248967	-1.453368	0.652066
O38	O	0.001033	-1.203368	0.902066
O39	O	0.251033	-0.953368	1.152066
O40	O	0.501033	-0.703368	1.402066
O41	O	-0.405448	-1.334745	0.310022
O42	O	-0.155448	-1.084745	0.560022
O43	O	0.094552	-0.834745	0.810022
O44	O	0.344552	-0.584745	1.060022
O45	O	-0.405369	-1.178417	0.504564
O46	O	-0.155369	-0.928417	0.754564
O47	O	0.094631	-0.678417	1.004564
O48	O	0.344631	-0.428417	1.254564
O49	O	-0.523747	-1.334826	0.846548
O50	O	-0.273747	-1.084826	1.096548
O51	O	-0.023747	-0.834826	1.346548
O52	O	0.226253	-0.584826	1.596548
O53	O	-0.523801	-1.178406	0.651956
O54	O	-0.273801	-0.928406	0.901956
O55	O	-0.023801	-0.678406	1.151956
O56	O	0.226199	-0.428406	1.401956
O57	O	-0.405274	-1.453354	0.846595
O58	O	-0.155274	-1.203354	1.096595
O59	O	0.094726	-0.953354	1.346595
O60	O	0.344726	-0.703354	1.596595
O61	O	-0.680248	-1.453167	0.504541
O62	O	-0.430248	-1.203167	0.754541
O63	O	-0.180248	-0.953167	1.004541
O64	O	0.069752	-0.703167	1.254541
O65	O	-0.680188	-1.334720	0.651942
O66	O	-0.430188	-1.084720	0.901942
O67	O	-0.180188	-0.834720	1.151942
O68	O	0.069812	-0.584720	1.401942
C69	C	-0.715217	-1.393956	0.578259
C70	C	-0.465217	-1.143956	0.828259
C71	C	-0.215217	-0.893956	1.078259
C72	C	0.034783	-0.643956	1.328259
C73	C	-0.822431	-1.394014	0.578285
C74	C	-0.572431	-1.144014	0.828285
C75	C	-0.322431	-0.894014	1.078285
C76	C	-0.072431	-0.644014	1.328285
C77	C	-0.464583	-1.143412	0.578255
C78	C	-0.214583	-0.893412	0.828255
C79	C	0.035417	-0.643412	1.078255
C80	C	0.285417	-0.393412	1.328255
C81	C	-0.464598	-1.036198	0.578267
C82	C	-0.214598	-0.786198	0.828267
C83	C	0.035402	-0.536198	1.078267
C84	C	0.285402	-0.286198	1.328267
C85	C	-1.018726	-1.394116	0.578360
C86	C	-0.768726	-1.144116	0.828360
C87	C	-0.518726	-0.894116	1.078360
C88	C	-0.268726	-0.644116	1.328360
C89	C	-0.909493	-1.394057	0.578322
C90	C	-0.659493	-1.144057	0.828322
C91	C	-0.409493	-0.894057	1.078322
C92	C	-0.159493	-0.644057	1.328322
C93	C	-0.464597	-0.839903	0.578289
C94	C	-0.214597	-0.589903	0.828289
C95	C	0.035403	-0.339903	1.078289
C96	C	0.285403	-0.089903	1.328289
C97	C	-0.464595	-0.949136	0.578273
C98	C	-0.214595	-0.699136	0.828273
C99	C	0.035405	-0.449136	1.078273
C100	C	0.285405	-0.199136	1.328273
C101	C	-0.213009	-1.394123	0.578355
C102	C	0.036991	-1.144123	0.828355
C103	C	0.286991	-0.894123	1.078355
C104	C	0.536991	-0.644123	1.328355
C105	C	-0.105796	-1.394165	0.578381
C106	C	0.144204	-1.144165	0.828381
C107	C	0.394204	-0.894165	1.078381
C108	C	0.644204	-0.644165	1.328381
C109	C	-0.464495	-1.394101	0.891337
C110	C	-0.214495	-1.144101	1.141337
C111	C	0.035505	-0.894101	1.391337
C112	C	0.285505	-0.644101	1.641337
C113	C	-0.464450	-1.394132	1.024737
C114	C	-0.214450	-1.144132	1.274737
C115	C	0.035550	-0.894132	1.524737
C116	C	0.285550	-0.644132	1.774737
C117	C	-0.464616	-0.645619	0.578322
C118	C	-0.214616	-0.395619	0.828322
C119	C	0.035384	-0.145619	1.078322
C120	C	0.285384	0.104381	1.328322
C121	C	-0.464606	-0.752833	0.578305
C122	C	-0.214606	-0.502833	0.828305
C123	C	0.035394	-0.252833	1.078305
C124	C	0.285394	-0.002833	1.328305
C125	C	-0.464640	-1.394008	0.266469
C126	C	-0.214640	-1.144008	0.516469
C127	C	0.035360	-0.894008	0.766469
C128	C	0.285360	-0.644008	1.016469
C129	C	-0.464413	-1.394164	0.133070
C130	C	-0.214413	-1.144164	0.383070
C131	C	0.035587	-0.894164	0.633070
C132	C	0.285587	-0.644164	0.883070
