data_functionalizedCrystal
_audit_creation_method	'MofGen! by Chris Wilmer'
_symmetry_space_group_name_H-M	'P1'
_symmetry_Int_Tables_number	1
_symmetry_cell_setting	triclinic
loop_
_symmetry_equiv_pos_as_xyz
  x,y,z
_cell_length_a	15.995350
_cell_length_b	19.288859
_cell_length_c	18.366186
_cell_angle_alpha	89.990083
_cell_angle_beta	90.002118
_cell_angle_gamma	96.686950
loop_
_atom_site_label
_atom_site_type_symbol
_atom_site_fract_x
_atom_site_fract_y
_atom_site_fract_z
O1	O	-0.104427	0.921626	-0.060557
O2	O	0.395573	1.421626	0.439443
O3	O	-0.118522	0.719402	-0.060555
O4	O	0.381478	1.219402	0.439445
O5	O	0.010434	0.826042	-0.060559
O6	O	0.510434	1.326042	0.439441
O7	O	-0.233383	0.814986	-0.060553
O8	O	0.266617	1.314986	0.439447
O9	O	0.010440	0.826024	0.060540
O10	O	0.510440	1.326024	0.560540
O11	O	-0.118516	0.719384	0.060544
O12	O	0.381484	1.219384	0.560544
O13	O	-0.104420	0.921608	0.060542
O14	O	0.395580	1.421608	0.560542
Zn15	Zn	-0.111467	0.820493	0.079770
Zn16	Zn	0.388533	1.320493	0.579770
Zn17	Zn	-0.111476	0.820517	-0.079783
Zn18	Zn	0.388524	1.320517	0.420217
O19	O	-0.233377	0.814968	0.060546
O20	O	0.266623	1.314968	0.560546
C21	C	-0.118067	0.693515	-0.000005
C22	C	0.381933	1.193515	0.499995
C23	C	-0.116708	0.616408	-0.000004
C24	C	0.383292	1.116408	0.499996
C25	C	-0.183181	0.052540	-0.000004
C26	C	0.316819	0.552540	0.499996
C27	C	-0.184465	0.124989	-0.000008
C28	C	0.315535	0.624989	0.499992
C29	C	-0.108799	0.169500	-0.000008
C30	C	0.391201	0.669500	0.499992
C31	C	-0.031843	0.141555	-0.000023
C32	C	0.468157	0.641555	0.499977
C33	C	-0.030561	0.069106	-0.000027
C34	C	0.469439	0.569106	0.499973
C35	C	-0.052366	0.290617	0.042420
C36	C	0.447634	0.790617	0.542420
C37	C	-0.053651	0.363064	0.042428
C38	C	0.446349	0.863064	0.542428
C39	C	-0.112750	0.392956	-0.000000
C40	C	0.387250	0.892956	0.500000
C41	C	-0.170578	0.350390	-0.042427
C42	C	0.329422	0.850390	0.457573
C43	C	-0.169296	0.277942	-0.042431
C44	C	0.330704	0.777942	0.457569
C45	C	-0.110181	0.248059	-0.000005
C46	C	0.389819	0.748059	0.499995
C47	C	-0.191093	0.499451	0.000006
C48	C	0.308907	0.999451	0.500006
C49	C	-0.192374	0.571902	-0.000003
C50	C	0.307626	1.071902	0.499997
C51	C	-0.039751	0.588467	-0.000011
C52	C	0.460249	1.088467	0.499989
C53	C	-0.038472	0.516016	-0.000010
C54	C	0.461528	1.016016	0.499990
C55	C	-0.114146	0.471513	0.000002
C56	C	0.385854	0.971513	0.500002
C57	C	-0.264573	0.815434	-0.000003
C58	C	0.235427	1.315434	0.499997
C59	C	-0.357518	0.816805	-0.000001
C60	C	0.142482	1.316805	0.499999
C61	C	-0.695247	0.821726	-0.000012
C62	C	-0.195247	1.321726	0.499988
C63	C	-0.647525	0.897673	-0.000284
C64	C	-0.147525	1.397673	0.499716
C65	C	-0.550840	0.896302	-0.000007
C66	C	-0.050840	1.396302	0.499993
C67	C	-0.527696	0.819285	-0.000007
C68	C	-0.027696	1.319285	0.499993
C69	C	-0.568917	0.781814	0.069144
C70	C	-0.068917	1.281814	0.569144
C71	C	-0.665546	0.783722	0.069198
C72	C	-0.165546	1.283722	0.569198
C73	C	-0.665907	0.782174	-0.068514
C74	C	-0.165907	1.282174	0.431486
C75	C	-0.568961	0.782192	-0.069424
C76	C	-0.068961	1.282192	0.430576
C77	C	-0.433004	0.817901	-0.000002
C78	C	0.066996	1.317901	0.499998
C79	C	-0.789940	0.823107	-0.000013
C80	C	-0.289940	1.323107	0.499987
C81	C	0.041630	0.825576	-0.000012
C82	C	0.541630	1.325576	0.499988
C83	C	0.134575	0.824206	-0.000018
C84	C	0.634575	1.324206	0.499982
C85	C	-0.104876	0.947495	-0.000010
C86	C	0.395124	1.447495	0.499990
C87	C	-0.106235	1.024602	-0.000015
C88	C	0.393765	1.524602	0.499985
N89	N	-0.111461	0.820482	0.188661
N90	N	0.388539	1.320482	0.688661
N91	N	-0.111475	0.820534	-0.188674
N92	N	0.388525	1.320534	0.311326
C93	C	-0.054387	0.867718	0.226760
C94	C	0.445613	1.367718	0.726760
C95	C	-0.054383	0.867722	0.302988
C96	C	0.445617	1.367722	0.802988
C97	C	-0.111468	0.820497	0.341114
C98	C	0.388532	1.320497	0.841114
C99	C	-0.168546	0.773253	0.303006
C100	C	0.331454	1.273253	0.803006
C101	C	-0.168543	0.773245	0.226780
C102	C	0.331457	1.273245	0.726780
C103	C	-0.187759	0.811397	0.461876
C104	C	0.312241	1.311397	0.961876
C105	C	-0.187764	0.811410	0.538101
C106	C	0.312236	1.311410	1.038101
C107	C	-0.111479	0.820517	0.576222
C108	C	0.388521	1.320517	1.076222
C109	C	-0.035185	0.829627	0.538108
C110	C	0.464815	1.329627	1.038108
C111	C	-0.035182	0.829619	0.461881
C112	C	0.464818	1.329619	0.961881
C113	C	-0.111478	0.820500	0.423769
C114	C	0.388522	1.320500	0.923769
C115	C	-0.054396	0.867760	0.696975
C116	C	0.445604	1.367760	1.196975
C117	C	-0.054391	0.867760	0.773204
C118	C	0.445609	1.367760	1.273204
C119	C	-0.168561	0.773294	0.773222
C120	C	0.331439	1.273294	1.273222
C121	C	-0.168559	0.773291	0.696994
C122	C	0.331441	1.273291	1.196994
C123	C	-0.111477	0.820528	0.658875
C124	C	0.388523	1.320528	1.158875
H125	H	-0.247125	0.147740	0.000008
H126	H	0.252875	0.647740	0.500008
Br127	Br	-0.719190	0.688843	-0.069290
Br128	Br	-0.219190	1.188843	0.430710
H129	H	-0.665930	0.928032	-0.049882
H130	H	-0.165930	1.428032	0.450118
Br131	Br	-0.246025	0.709195	0.824958
Br132	Br	0.253975	1.209195	1.324958
H133	H	-0.667082	0.927913	0.048982
H134	H	-0.167082	1.427913	0.548982
H135	H	-0.555007	0.725231	0.071716
H136	H	-0.055007	1.225231	0.571716
Br137	Br	-0.246014	0.709156	0.354746
Br138	Br	0.253986	1.209156	0.854746
H139	H	-0.006568	0.397716	0.076978
H140	H	0.493432	0.897716	0.576978
H141	H	-0.553808	0.726030	-0.073602
H142	H	-0.053808	1.226030	0.426398
Br143	Br	-0.699992	0.823565	-0.155877
Br144	Br	-0.199992	1.323565	0.344123
H145	H	-0.698006	0.727963	0.072342
H146	H	-0.198006	1.227963	0.572342
Br147	Br	-0.246005	0.709134	0.175070
Br148	Br	0.253995	1.209134	0.675070
Br149	Br	-0.504204	0.945695	0.082760
Br150	Br	-0.004204	1.445695	0.582760
H151	H	-0.007914	0.906222	0.665938
H152	H	0.492086	1.406222	1.165938
Br153	Br	-0.291301	0.799106	0.410149
Br154	Br	0.208699	1.299106	0.910149
Br155	Br	-0.695884	0.829236	0.155357
Br156	Br	-0.195884	1.329236	0.655357
Br157	Br	-0.293790	0.439049	0.000021
Br158	Br	0.206210	0.939049	0.500021
H159	H	-0.007905	0.906188	0.334013
H160	H	0.492095	1.406188	0.834013
Br161	Br	-0.285880	-0.007855	0.000004
Br162	Br	0.214120	0.492145	0.500004
Br163	Br	-0.247769	0.220176	-0.100010
Br164	Br	0.252231	0.720176	0.399990
Br165	Br	0.027896	0.250063	0.099957
Br166	Br	0.527896	0.750063	0.599957
H167	H	-0.007906	0.906179	0.195726
H168	H	0.492094	1.406179	0.695726
H169	H	0.029764	0.177800	-0.000026
H170	H	0.529764	0.677800	0.499974
Br171	Br	-0.246022	0.709184	0.645283
Br172	Br	0.253978	1.209184	1.145283
H173	H	-0.218704	0.374726	-0.076975
H174	H	0.281296	0.874726	0.423025
H175	H	0.026938	0.837034	0.430852
H176	H	0.526938	1.337034	0.930852
H177	H	-0.540446	0.807830	0.120608
H178	H	-0.040446	1.307830	0.620608
Br179	Br	0.073873	0.031189	-0.000047
Br180	Br	0.573873	0.531189	0.499953
Br181	Br	-0.296810	0.609818	0.000001
Br182	Br	0.203190	1.109818	0.500001
H183	H	-0.007910	0.906223	0.804225
H184	H	0.492090	1.406223	1.304225
Br185	Br	-0.523286	0.827791	-0.154694
Br186	Br	-0.023286	1.327791	0.345306
Br187	Br	0.062941	0.648866	-0.000027
Br188	Br	0.562941	1.148866	0.499973
H189	H	-0.522304	0.925759	-0.049575
H190	H	-0.022304	1.425759	0.450425
H191	H	0.026933	0.837042	0.569144
H192	H	0.526933	1.337042	1.069144
Br193	Br	-0.291302	0.799055	0.589820
Br194	Br	0.208698	1.299055	1.089820
H195	H	0.024186	0.493271	-0.000015
H196	H	0.524186	0.993271	0.499985
