data_functionalizedCrystal
_audit_creation_method	'MofGen! by Chris Wilmer'
_symmetry_space_group_name_H-M	'P1'
_symmetry_Int_Tables_number	1
_symmetry_cell_setting	triclinic
loop_
_symmetry_equiv_pos_as_xyz
  x,y,z
_cell_length_a	16.625547
_cell_length_b	16.625546
_cell_length_c	12.827885
_cell_angle_alpha	89.964876
_cell_angle_beta	89.974319
_cell_angle_gamma	90.022405
loop_
_atom_site_label
_atom_site_type_symbol
_atom_site_fract_x
_atom_site_fract_y
_atom_site_fract_z
Zn1	Zn	1.232687	-0.320964	-0.590983
Zn2	Zn	1.566021	0.012369	-0.257650
Zn3	Zn	1.899354	0.345703	0.075683
Zn4	Zn	1.232589	-0.455818	-0.416227
Zn5	Zn	1.565922	-0.122485	-0.082894
Zn6	Zn	1.899255	0.210849	0.250439
Zn7	Zn	1.097847	-0.321003	-0.416238
Zn8	Zn	1.431180	0.012330	-0.082905
Zn9	Zn	1.764514	0.345664	0.250429
Zn10	Zn	1.097820	-0.455758	-0.590908
Zn11	Zn	1.431153	-0.122425	-0.257575
Zn12	Zn	1.764486	0.210909	0.075758
O13	O	1.165236	-0.388386	-0.503589
O14	O	1.498569	-0.055052	-0.170256
O15	O	1.831902	0.278281	0.163077
O16	O	1.345507	-0.338861	-0.567828
O17	O	1.678840	-0.005528	-0.234495
O18	O	2.012173	0.327805	0.098838
O19	O	1.214685	-0.437976	-0.269993
O20	O	1.548018	-0.104643	0.063341
O21	O	1.881352	0.228691	0.396674
O22	O	1.115787	-0.208165	-0.439454
O23	O	1.449120	0.125168	-0.106121
O24	O	1.782454	0.458501	0.227213
O25	O	1.345434	-0.437938	-0.439436
O26	O	1.678767	-0.104605	-0.106103
O27	O	2.012101	0.228729	0.227231
O28	O	1.214853	-0.208137	-0.567839
O29	O	1.548187	0.125197	-0.234505
O30	O	1.881520	0.458530	0.098828
O31	O	1.115691	-0.338928	-0.270000
O32	O	1.449024	-0.005595	0.063333
O33	O	1.782358	0.327739	0.396666
O34	O	0.985011	-0.338870	-0.439381
O35	O	1.318344	-0.005537	-0.106048
O36	O	1.651678	0.327797	0.227285
O37	O	1.115740	-0.437836	-0.737154
O38	O	1.449073	-0.104502	-0.403821
O39	O	1.782407	0.228831	-0.070488
O40	O	0.984991	-0.437874	-0.567711
O41	O	1.318324	-0.104540	-0.234378
O42	O	1.651658	0.228793	0.098956
O43	O	1.214827	-0.338803	-0.737209
O44	O	1.548160	-0.005470	-0.403876
O45	O	1.881493	0.327864	-0.070543
O46	O	1.214658	-0.568643	-0.439363
O47	O	1.547992	-0.235309	-0.106030
O48	O	1.881325	0.098024	0.227303
O49	O	1.115644	-0.568598	-0.567701
O50	O	1.448977	-0.235265	-0.234367
O51	O	1.782311	0.098068	0.098966
C52	C	0.955745	-0.388370	-0.503540
C53	C	1.289078	-0.055037	-0.170207
C54	C	1.622411	0.278297	0.163127
C55	C	0.866124	-0.388383	-0.503544
C56	C	1.199457	-0.055050	-0.170210
C57	C	1.532790	0.278284	0.163123
C58	C	1.165159	-0.597877	-0.503545
C59	C	1.498493	-0.264543	-0.170212
C60	C	1.831826	0.068790	0.163121
C61	C	1.165200	-0.687498	-0.503562
C62	C	1.498534	-0.354164	-0.170228
C63	C	1.831867	-0.020831	0.163105
C64	C	0.793341	-0.388384	-0.503556
C65	C	1.126675	-0.055051	-0.170223
C66	C	1.460008	0.278282	0.163110
C67	C	0.702033	-0.388389	-0.503583
C68	C	1.035366	-0.055055	-0.170249
C69	C	1.368699	0.278278	0.163084
C70	C	0.629256	-0.388396	-0.503609
C71	C	0.962590	-0.055063	-0.170276
C72	C	1.295923	0.278271	0.163058
C73	C	0.537942	-0.388402	-0.503634
C74	C	0.871275	-0.055068	-0.170301
C75	C	1.204609	0.278265	0.163032
C76	C	1.165341	-1.015673	-0.503671
C77	C	1.498674	-0.682340	-0.170337
C78	C	1.832008	-0.349007	0.162996
C79	C	1.165299	-0.924365	-0.503643
C80	C	1.498633	-0.591032	-0.170310
C81	C	1.831966	-0.257698	0.163024
C82	C	1.165270	-0.851588	-0.503616
C83	C	1.498603	-0.518255	-0.170282
C84	C	1.831937	-0.184922	0.163051
C85	C	1.165230	-0.760274	-0.503589
C86	C	1.498563	-0.426941	-0.170256
C87	C	1.831896	-0.093608	0.163077
C88	C	1.375545	-0.388402	-0.503639
C89	C	1.708878	-0.055069	-0.170306
C90	C	2.042211	0.278265	0.163027
C91	C	1.465166	-0.388409	-0.503661
C92	C	1.798499	-0.055076	-0.170327
C93	C	2.131832	0.278258	0.163006
C94	C	1.165291	-0.388308	-0.776160
C95	C	1.498625	-0.054975	-0.442826
C96	C	1.831958	0.278358	-0.109493
C97	C	1.165315	-0.388275	-0.892313
C98	C	1.498648	-0.054942	-0.558979
C99	C	1.831982	0.278391	-0.225646
C100	C	1.165334	-0.178077	-0.503656
C101	C	1.498668	0.155256	-0.170323
C102	C	1.832001	0.488590	0.163011
C103	C	1.165376	-0.088456	-0.503684
C104	C	1.498710	0.244878	-0.170351
C105	C	1.832043	0.578211	0.162982
C106	C	1.116345	-0.339254	-0.944101
C107	C	1.449679	-0.005920	-0.610768
C108	C	1.783012	0.327413	-0.277435
C109	C	1.116369	-0.339218	-1.064152
C110	C	1.449702	-0.005885	-0.730819
C111	C	1.783035	0.327448	-0.397485
C112	C	1.165227	-0.388405	-0.232079
C113	C	1.498560	-0.055071	0.101254
C114	C	1.831893	0.278262	0.434587
C115	C	1.165359	-0.388211	-0.115927
C116	C	1.498693	-0.054877	0.217407
C117	C	1.832026	0.278456	0.550740
H118	H	1.074400	-0.297314	-0.899563
H119	H	1.407733	0.036020	-0.566229
H120	H	1.741067	0.369353	-0.232896
H121	H	1.074447	-0.297246	-1.108689
H122	H	1.407781	0.036088	-0.775355
H123	H	1.741114	0.369421	-0.442022
H124	H	1.207289	-0.430179	-1.071396
H125	H	1.540623	-0.096846	-0.738063
H126	H	1.873956	0.236488	-0.404730
H127	H	1.207256	-0.430219	-0.936851
H128	H	1.540589	-0.096886	-0.603518
H129	H	1.873923	0.236447	-0.270185
