data_functionalizedCrystal
_audit_creation_method	'MofGen! by Chris Wilmer'
_symmetry_space_group_name_H-M	'P1'
_symmetry_Int_Tables_number	1
_symmetry_cell_setting	triclinic
loop_
_symmetry_equiv_pos_as_xyz
  x,y,z
_cell_length_a	10.540510
_cell_length_b	23.532353
_cell_length_c	22.610064
_cell_angle_alpha	90.004753
_cell_angle_beta	90.002158
_cell_angle_gamma	96.330086
loop_
_atom_site_label
_atom_site_type_symbol
_atom_site_fract_x
_atom_site_fract_y
_atom_site_fract_z
O1	O	1.683242	-0.080162	0.049197
O2	O	1.313572	-0.087742	0.049198
O3	O	1.509590	-0.001091	0.049185
O4	O	1.487223	-0.166812	0.049210
O5	O	1.509577	-0.001114	-0.049184
O6	O	1.313558	-0.087764	-0.049171
O7	O	1.683228	-0.080185	-0.049172
Zn8	Zn	1.498391	-0.083978	-0.064790
Zn9	Zn	1.498409	-0.083948	0.064816
O10	O	1.487210	-0.166835	-0.049159
C11	C	1.266280	-0.087188	0.000013
C12	C	1.125387	-0.085498	0.000013
C13	C	0.905929	-0.145694	0.000248
C14	C	1.052465	-0.147496	0.000023
C15	C	1.081674	-0.053774	-0.056164
C16	C	0.934959	-0.052410	-0.056208
C17	C	0.935211	-0.051094	0.055656
C18	C	1.081454	-0.054034	0.056396
C19	C	1.509025	0.020118	-0.000002
C20	C	1.507345	0.083348	-0.000008
C21	C	1.496809	0.475441	0.053643
C22	C	1.495213	0.534851	0.053646
O23	O	1.494350	0.565583	0.099249
N24	N	1.494414	0.564555	0.000026
C25	C	1.495198	0.534846	-0.053601
O26	O	1.494371	0.565567	-0.099209
C27	C	1.496786	0.475436	-0.053604
C28	C	1.497598	0.445736	0.000020
C29	C	1.497620	0.445740	0.107263
C30	C	1.499219	0.386335	0.107259
C31	C	1.500007	0.356629	0.053637
C32	C	1.499196	0.386330	0.000017
C33	C	1.497561	0.445727	-0.107230
C34	C	1.499148	0.386314	-0.107228
C35	C	1.499960	0.356613	-0.053604
C36	C	1.501584	0.297219	-0.053609
N37	N	1.502383	0.267515	0.000011
C38	C	1.501594	0.297220	0.053634
C39	C	1.491863	0.659609	-0.053592
C40	C	1.490285	0.719018	-0.053590
C41	C	1.490297	0.719019	0.053657
C42	C	1.491884	0.659610	0.053655
C43	C	1.492662	0.629905	0.000028
C44	C	1.504953	0.172463	0.053623
C45	C	1.506557	0.113053	0.053615
C46	C	1.506538	0.113056	-0.053632
C47	C	1.504941	0.172462	-0.053625
C48	C	1.504144	0.202164	0.000008
O49	O	1.502442	0.266449	-0.099188
O50	O	1.502405	0.266491	0.099235
C51	C	1.730520	-0.080738	0.000013
C52	C	1.871413	-0.082428	0.000017
C53	C	1.487784	0.811957	0.000027
C54	C	1.489489	0.748728	0.000033
N55	N	1.498388	-0.083998	-0.153243
C56	C	1.411563	-0.122319	-0.438085
C57	C	1.411560	-0.122325	-0.376165
O58	O	1.337699	-0.154932	-0.344141
N59	N	1.498379	-0.083975	-0.345195
C60	C	1.585199	-0.045613	-0.376148
O61	O	1.659045	-0.012994	-0.344120
C62	C	1.585196	-0.045605	-0.438067
C63	C	1.498379	-0.083961	-0.469034
C64	C	1.324753	-0.160672	-0.469052
C65	C	1.324758	-0.160667	-0.530967
C66	C	1.411574	-0.122309	-0.561916
C67	C	1.498385	-0.083956	-0.530949
C68	C	1.672009	-0.007241	-0.469019
C69	C	1.671997	-0.007236	-0.530942
C70	C	1.585181	-0.045593	-0.561908
C71	C	1.585206	-0.045594	-0.623814
N72	N	1.498386	-0.083944	-0.654784
C73	C	1.411571	-0.122301	-0.623835
C74	C	1.585199	-0.045632	-0.246114
C75	C	1.585209	-0.045642	-0.184197
C76	C	1.411568	-0.122353	-0.184218
C77	C	1.411564	-0.122345	-0.246137
C78	C	1.498379	-0.083981	-0.277084
C79	C	1.411589	-0.122288	-0.753862
C80	C	1.411606	-0.122282	-0.815783
C81	C	1.585242	-0.045569	-0.815757
C82	C	1.585231	-0.045577	-0.753841
C83	C	1.498394	-0.083939	-0.722895
O84	O	1.659025	-0.013002	-0.655877
O85	O	1.337726	-0.154910	-0.655871
N86	N	1.498422	-0.083924	0.153268
H87	H	1.080991	-0.172316	0.040295
C88	C	1.766054	0.034482	-0.564574
C89	C	1.698901	0.069645	-0.600105
C90	C	1.785502	0.108086	-0.631089
H91	H	1.818659	0.013841	-0.588780
H92	H	1.817737	0.057356	-0.537280
H93	H	1.647240	0.046774	-0.627396
H94	H	1.646301	0.090299	-0.575914
H95	H	1.837184	0.130960	-0.603795
H96	H	1.838102	0.087440	-0.655291
H97	H	1.739951	0.131953	-0.655196
H98	H	1.340876	-0.153585	-0.159008
C99	C	0.848758	-0.177805	0.053985
C100	C	0.781487	-0.141338	0.087871
C101	C	0.728780	-0.170902	0.137375
H102	H	0.915125	-0.190642	0.077183
H103	H	0.792248	-0.209758	0.041379
H104	H	0.837993	-0.109396	0.100478
H105	H	0.715102	-0.128500	0.064691
H106	H	0.672269	-0.202855	0.124769
H107	H	0.795154	-0.183738	0.160567
H108	H	0.683120	-0.146166	0.160369
H109	H	1.492500	0.635428	-0.097264
H110	H	1.655937	-0.014350	-0.728627
C111	C	1.496704	0.478085	0.165426
C112	C	1.495113	0.536471	0.153967
C113	C	1.494264	0.566279	0.207537
H114	H	1.570979	0.472458	0.187496
H115	H	1.422911	0.464330	0.187465
H116	H	1.568899	0.550221	0.131938
H117	H	1.420844	0.542115	0.131906
H118	H	1.420471	0.552525	0.229576
H119	H	1.568540	0.560648	0.229603
H120	H	1.493173	0.605897	0.199769
H121	H	1.340870	-0.153577	-0.271346
H122	H	1.504298	0.196639	0.097296
H123	H	1.111790	-0.075824	-0.097964
C124	C	1.317260	-0.164005	-0.720377
C125	C	1.241270	-0.197598	-0.760759
C126	C	1.154379	-0.236041	-0.729935
H127	H	1.264561	-0.143367	-0.696217
H128	H	1.362572	-0.187942	-0.696240
H129	H	1.195961	-0.173664	-0.784886
H130	H	1.293933	-0.218249	-0.784921
H131	H	1.199692	-0.259978	-0.705798
H132	H	1.101690	-0.215398	-0.705776
H133	H	1.102818	-0.258842	-0.757330
H134	H	1.507186	0.088860	-0.097291
C135	C	1.230347	-0.202333	-0.564476
C136	C	1.154304	-0.235910	-0.524110
C137	C	1.067300	-0.274295	-0.554952
H138	H	1.275532	-0.226290	-0.588638
H139	H	1.177707	-0.181632	-0.588613
H140	H	1.206938	-0.256609	-0.499983
H141	H	1.109091	-0.211969	-0.499947
H142	H	1.014660	-0.253595	-0.579089
H143	H	1.112496	-0.298248	-0.579112
H144	H	1.015687	-0.297078	-0.527568
H145	H	1.655904	-0.014393	-0.271309
H146	H	0.892018	-0.070636	0.098235
C147	C	1.679283	-0.003857	-0.849400
C148	C	1.612103	0.031298	-0.884928
C149	C	1.698680	0.069738	-0.915926
H150	H	1.731881	-0.024499	-0.873609
H151	H	1.730976	0.019023	-0.822114
H152	H	1.560432	0.008421	-0.912211
H153	H	1.559511	0.051953	-0.860734
H154	H	1.750373	0.092618	-0.888640
H155	H	1.751273	0.049092	-0.940131
H156	H	1.653112	0.093599	-0.940031
C157	C	1.679186	-0.003893	-0.150551
C158	C	1.611902	0.031243	-0.115044
C159	C	1.698388	0.069743	-0.084059
H160	H	1.730830	0.019001	-0.177826
H161	H	1.731840	-0.024507	-0.126331
H162	H	1.559270	0.051855	-0.139261
H163	H	1.560263	0.008365	-0.087758
H164	H	1.751042	0.049129	-0.059840
H165	H	1.750027	0.092632	-0.111339
H166	H	1.652749	0.093583	-0.059960
C167	C	0.907931	0.010998	0.056247
C168	C	0.965254	0.038444	0.105978
C169	C	0.940158	0.095642	0.106532
H170	H	0.818350	0.012650	0.057721
H171	H	0.941629	0.029533	0.021413
H172	H	0.931550	0.019915	0.140803
H173	H	1.054836	0.036808	0.104514
H174	H	0.973856	0.114177	0.071699
H175	H	0.850576	0.097288	0.108005
H176	H	0.979057	0.114273	0.140271
C177	C	1.496888	0.478014	-0.165429
C178	C	1.605182	0.518096	-0.168594
C179	C	1.604590	0.547845	-0.222202
H180	H	1.422306	0.497182	-0.167695
H181	H	1.497632	0.451834	-0.197384
H182	H	1.604426	0.544272	-0.136648
H183	H	1.679781	0.498943	-0.166339
H184	H	1.605334	0.521665	-0.254157
H185	H	1.530004	0.567010	-0.224463
H186	H	1.678072	0.575040	-0.224360
C187	C	1.500015	0.354191	0.165543
C188	C	1.498944	0.392929	0.212498
C189	C	1.499653	0.363343	0.266200
H190	H	1.574642	0.335060	0.167862
H191	H	1.426573	0.326980	0.167805
H192	H	1.572378	0.420131	0.210237
H193	H	1.424322	0.412063	0.210198
H194	H	1.426212	0.336132	0.268461
H195	H	1.574282	0.344213	0.268513
H196	H	1.498915	0.389622	0.298065
H197	H	1.492543	0.635432	0.097320
C198	C	1.146709	0.007110	-0.059056
C199	C	1.105526	0.034097	-0.109634
C200	C	1.165396	0.090185	-0.112312
H201	H	1.236585	0.006480	-0.060774
H202	H	1.125359	0.027487	-0.024846
H203	H	1.126884	0.013725	-0.143835
H204	H	1.015658	0.034743	-0.107927
H205	H	1.144047	0.110562	-0.078102
H206	H	1.255270	0.089549	-0.114028
H207	H	1.137453	0.108504	-0.146625
H208	H	1.507221	0.088873	0.097284
H209	H	1.499762	0.362130	-0.150898
C210	C	1.489499	0.751178	0.111941
C211	C	1.490574	0.712458	0.158905
C212	C	1.489860	0.742065	0.212600
H213	H	1.414868	0.770309	0.114251
H214	H	1.562937	0.778393	0.114200
H215	H	1.417144	0.685254	0.156646
H216	H	1.565200	0.693327	0.156614
H217	H	1.563298	0.769279	0.214859
H218	H	1.415228	0.761194	0.214904
H219	H	1.490601	0.715798	0.244471
C220	C	1.230695	-0.202355	-0.435383
C221	C	1.297850	-0.237505	-0.399837
C222	C	1.211250	-0.275912	-0.368812
H223	H	1.178968	-0.225246	-0.462635
H224	H	1.178134	-0.181670	-0.411187
H225	H	1.350389	-0.258188	-0.424030
H226	H	1.349573	-0.214629	-0.372573
H227	H	1.158689	-0.255227	-0.344616
H228	H	1.159527	-0.298799	-0.396068
H229	H	1.256802	-0.299762	-0.344686
C230	C	1.765861	0.034612	-0.435436
C231	C	1.698400	0.069736	-0.399998
C232	C	1.784727	0.108377	-0.369096
H233	H	1.817380	0.057502	-0.462760
H234	H	1.818653	0.014105	-0.411177
H235	H	1.645630	0.090242	-0.424255
H236	H	1.646886	0.046863	-0.372663
H237	H	1.837519	0.087870	-0.344837
H238	H	1.836241	0.131262	-0.396424
H239	H	1.738968	0.132209	-0.345043
H240	H	1.340909	-0.153518	-0.840995
C241	C	0.846631	-0.177681	-0.053139
C242	C	0.713790	-0.178030	-0.051060
C243	C	0.659125	-0.207481	-0.100237
H244	H	0.867802	-0.215883	-0.052719
H245	H	0.878477	-0.159212	-0.088331
H246	H	0.681955	-0.196500	-0.015878
H247	H	0.692582	-0.139836	-0.051488
H248	H	0.690972	-0.189012	-0.135429
H249	H	0.680306	-0.245681	-0.099813
H250	H	0.568989	-0.207717	-0.098836
C251	C	1.089489	-0.180810	-0.053709
C252	C	1.221840	-0.182535	-0.054043
C253	C	1.255990	-0.213224	-0.103532
H254	H	1.064681	-0.162608	-0.088694
H255	H	1.047696	-0.218669	-0.052063
H256	H	1.263619	-0.144683	-0.055695
H257	H	1.246681	-0.200742	-0.019070
H258	H	1.214197	-0.251082	-0.101885
H259	H	1.231174	-0.195018	-0.138512
H260	H	1.345791	-0.214402	-0.103761
C261	C	0.880591	-0.081393	-0.112208
C262	C	0.979894	-0.099960	-0.145687
C263	C	0.929864	-0.126669	-0.197275
H264	H	0.838457	-0.055033	-0.134738
H265	H	0.821435	-0.113286	-0.101960
H266	H	1.039028	-0.068071	-0.155936
H267	H	1.022037	-0.126326	-0.123175
H268	H	0.870708	-0.158563	-0.187026
H269	H	0.887731	-0.100306	-0.219800
H270	H	0.997231	-0.139275	-0.219994
H271	H	1.109310	-0.077117	0.097955
C272	C	1.504008	0.204607	-0.111906
C273	C	1.505015	0.165872	-0.158866
C274	C	1.504126	0.195456	-0.212564
H275	H	1.577387	0.231836	-0.114220
H276	H	1.429320	0.223714	-0.114165
H277	H	1.579695	0.146774	-0.156608
H278	H	1.431641	0.138641	-0.156571
H279	H	1.429438	0.214563	-0.214823
H280	H	1.577507	0.222684	-0.214872
H281	H	1.504797	0.169178	-0.244433
H282	H	0.913505	-0.006040	-0.058766
H283	H	1.132027	-0.008770	0.059781
H284	H	1.489643	0.743196	-0.097256
