data_functionalizedCrystal
_audit_creation_method	'MofGen! by Chris Wilmer'
_symmetry_space_group_name_H-M	'P1'
_symmetry_Int_Tables_number	1
_symmetry_cell_setting	triclinic
loop_
_symmetry_equiv_pos_as_xyz
  x,y,z
_cell_length_a	10.723024
_cell_length_b	10.868271
_cell_length_c	10.723024
_cell_angle_alpha	90.003962
_cell_angle_beta	84.467869
_cell_angle_gamma	90.004005
loop_
_atom_site_label
_atom_site_type_symbol
_atom_site_fract_x
_atom_site_fract_y
_atom_site_fract_z
O1	O	1.657188	0.102311	0.175028
O2	O	2.157188	0.602311	0.675028
O3	O	1.294036	0.102315	0.191781
O4	O	1.794036	0.602315	0.691781
O5	O	1.483989	0.102308	0.001828
O6	O	1.983989	0.602308	0.501828
O7	O	1.467235	0.102317	0.364981
O8	O	1.967235	0.602317	0.864981
O9	O	1.483973	-0.102336	0.001821
O10	O	1.983973	0.397664	0.501821
O11	O	1.294020	-0.102330	0.191774
O12	O	1.794020	0.397670	0.691774
O13	O	1.657172	-0.102334	0.175020
O14	O	2.157172	0.397666	0.675020
Zn15	Zn	1.475594	-0.134824	0.183396
Zn16	Zn	1.975594	0.365176	0.683396
Zn17	Zn	1.475614	0.134805	0.183406
Zn18	Zn	1.975614	0.634805	0.683406
O19	O	1.467219	-0.102327	0.364973
O20	O	1.967219	0.397673	0.864973
C21	C	1.247528	-0.000007	0.190558
C22	C	1.747528	0.499993	0.690558
C23	C	1.108974	-0.000006	0.186911
C24	C	1.608974	0.499994	0.686911
N25	N	1.475589	-0.318838	0.183388
N26	N	1.975589	0.181162	0.683388
C27	C	1.033991	-0.000002	0.293198
C28	C	1.533991	0.499998	0.793198
C29	C	0.890788	-0.000000	0.289431
C30	C	1.390788	0.500000	0.789431
C31	C	1.475608	-0.569844	0.183403
C32	C	1.975608	-0.069844	0.683403
C33	C	1.475593	-0.430166	0.183399
C34	C	1.975593	0.069834	0.683399
C35	C	1.703680	-0.000009	0.176243
C36	C	2.203680	0.499991	0.676243
C37	C	1.842234	-0.000003	0.179891
C38	C	2.342234	0.499997	0.679891
C39	C	1.482762	-0.000013	-0.044675
C40	C	1.982762	0.499987	0.455325
C41	C	1.479114	-0.000008	-0.183229
C42	C	1.979114	0.499992	0.316771
N43	N	1.475629	0.318819	0.183404
N44	N	1.975629	0.818819	0.683404
C45	C	1.585401	-0.000008	-0.258212
C46	C	2.085401	0.499992	0.241788
C47	C	1.581634	-0.000003	-0.401415
C48	C	2.081634	0.499997	0.098585
C49	C	1.468447	-0.000004	0.411477
C50	C	1.968447	0.499996	0.911477
C51	C	1.472094	0.000000	0.550031
C52	C	1.972094	0.500000	1.050031
H53	H	1.075814	-0.000007	0.386984
H54	H	1.575814	0.499993	0.886984
C55	C	1.712106	-0.000014	-0.201733
C56	C	2.212106	0.499986	0.298267
H57	H	1.778302	-0.000005	-0.267346
H58	H	2.278302	0.499995	0.232654
H59	H	1.718091	-0.071378	-0.151516
H60	H	2.218091	0.428622	0.348484
H61	H	1.718104	0.071359	-0.151508
H62	H	2.218104	0.571359	0.348492
H63	H	0.906659	0.000002	0.088896
H64	H	1.406659	0.500002	0.588896
C65	C	1.704563	-0.000004	-0.488443
C66	C	2.204563	0.499996	0.011557
H67	H	1.773775	-0.000015	-0.439404
H68	H	2.273775	0.499985	0.060596
H69	H	1.707889	0.071359	-0.539801
H70	H	2.207889	0.571359	-0.039801
H71	H	1.707875	-0.071378	-0.539806
H72	H	2.207875	0.428622	-0.039806
H73	H	1.385328	0.000001	-0.225051
H74	H	1.885328	0.500001	0.274949
H75	H	1.381099	-0.000009	-0.385544
H76	H	1.881099	0.499991	0.114456
H77	H	0.826355	0.000007	0.380421
H78	H	1.326355	0.500007	0.880421
H79	H	1.067152	0.000024	0.093125
H80	H	1.567152	0.500024	0.593125
