data_functionalizedCrystal
_audit_creation_method	'MofGen! by Chris Wilmer'
_symmetry_space_group_name_H-M	'P1'
_symmetry_Int_Tables_number	1
_symmetry_cell_setting	triclinic
loop_
_symmetry_equiv_pos_as_xyz
  x,y,z
_cell_length_a	27.732048
_cell_length_b	22.010155
_cell_length_c	23.532357
_cell_angle_alpha	90.017067
_cell_angle_beta	82.735474
_cell_angle_gamma	89.987713
loop_
_atom_site_label
_atom_site_type_symbol
_atom_site_fract_x
_atom_site_fract_y
_atom_site_fract_z
O1	O	0.641012	0.050454	0.067775
O2	O	0.974346	0.383787	0.401108
O3	O	1.307679	0.717121	0.734441
O4	O	0.500233	0.050473	0.078079
O5	O	0.833567	0.383807	0.411412
O6	O	1.166900	0.717140	0.744745
O7	O	0.574881	0.050451	-0.010016
O8	O	0.908214	0.383784	0.323317
O9	O	1.241547	0.717117	0.656650
O10	O	0.566365	0.050477	0.155869
O11	O	0.899698	0.383810	0.489203
O12	O	1.233032	0.717143	0.822536
O13	O	0.574892	-0.050600	-0.010033
O14	O	0.908225	0.282734	0.323301
O15	O	1.241558	0.616067	0.656634
O16	O	0.500244	-0.050577	0.078062
O17	O	0.833577	0.282756	0.411396
O18	O	1.166911	0.616090	0.744729
O19	O	0.641023	-0.050596	0.067758
O20	O	0.974357	0.282737	0.401091
O21	O	1.307690	0.616070	0.734425
Cu22	Cu	0.570635	-0.059813	0.072909
Cu23	Cu	0.903968	0.273520	0.406242
Cu24	Cu	1.237301	0.606853	0.739575
Cu25	Cu	0.570622	0.059690	0.072928
Cu26	Cu	0.903955	0.393024	0.406261
Cu27	Cu	1.237289	0.726357	0.739595
O28	O	0.566376	-0.050574	0.155853
O29	O	0.899709	0.282760	0.489186
O30	O	1.233043	0.616093	0.822520
C31	C	0.482231	-0.000049	0.077854
C32	C	0.815565	0.333284	0.411187
C33	C	1.148898	0.666617	0.744521
C34	C	0.428576	-0.000043	0.077203
C35	C	0.761909	0.333291	0.410536
C36	C	1.095242	0.666624	0.743869
N37	N	0.570647	-0.143866	0.072895
N38	N	0.903981	0.189468	0.406228
N39	N	1.237314	0.522801	0.739561
C40	C	0.574673	-0.000076	-0.031241
C41	C	0.908006	0.333257	0.302093
C42	C	1.241340	0.666590	0.635426
C43	C	0.574033	-0.000082	-0.094458
C44	C	0.907366	0.333251	0.238876
C45	C	1.240699	0.666585	0.572209
C46	C	0.089827	-0.000061	0.125161
C47	C	0.423160	0.333272	0.458494
C48	C	0.756494	0.666605	0.791827
C49	C	-0.111836	-0.000067	0.122744
C50	C	0.221497	0.333266	0.456078
C51	C	0.554831	0.666600	0.789411
O52	O	-0.143031	-0.000087	0.166598
O53	O	0.190303	0.333247	0.499932
O54	O	0.523636	0.666580	0.833265
N55	N	-0.131032	-0.000074	0.070508
N56	N	0.202301	0.333259	0.403841
N57	N	0.535635	0.666592	0.737174
C58	C	-0.099809	-0.000084	0.018871
C59	C	0.233524	0.333249	0.352205
C60	C	0.566858	0.666583	0.685538
O61	O	-0.120764	-0.000096	-0.025614
O62	O	0.212570	0.333237	0.307719
O63	O	0.545903	0.666570	0.641052
C64	C	0.101853	-0.000082	0.021289
C65	C	0.435186	0.333251	0.354622
C66	C	0.768520	0.666584	0.687955
C67	C	0.121046	-0.000069	0.073529
C68	C	0.454380	0.333264	0.406862
C69	C	0.787713	0.666597	0.740195
C70	C	0.109021	-0.000049	0.177397
C71	C	0.442354	0.333285	0.510730
C72	C	0.775687	0.666618	0.844063
C73	C	0.159434	-0.000044	0.178000
C74	C	0.492767	0.333289	0.511333
C75	C	0.826100	0.666623	0.844667
C76	C	0.190653	-0.000052	0.126368
C77	C	0.523986	0.333282	0.459701
C78	C	0.857319	0.666615	0.793035
C79	C	0.171459	-0.000064	0.074132
C80	C	0.504792	0.333269	0.407466
C81	C	0.838126	0.666602	0.740799
C82	C	0.133075	-0.000097	-0.030347
C83	C	0.466408	0.333237	0.302986
C84	C	0.799742	0.666570	0.636320
C85	C	0.183493	-0.000098	-0.029738
C86	C	0.516827	0.333236	0.303595
C87	C	0.850160	0.666569	0.636929
C88	C	0.202686	-0.000084	0.022502
C89	C	0.536020	0.333249	0.355835
C90	C	0.869353	0.666582	0.689169
C91	C	0.253091	-0.000068	0.023104
C92	C	0.586424	0.333266	0.356437
C93	C	0.919758	0.666599	0.689770
N94	N	0.272287	-0.000060	0.075340
N95	N	0.605620	0.333273	0.408674
N96	N	0.938954	0.666606	0.742007
C97	C	0.241068	-0.000053	0.126972
C98	C	0.574401	0.333281	0.460306
C99	C	0.907735	0.666614	0.793639
C100	C	-0.205685	-0.000084	0.017606
C101	C	0.127649	0.333250	0.350939
C102	C	0.460982	0.666583	0.684273
C103	C	-0.256100	-0.000083	0.017002
C104	C	0.077233	0.333251	0.350335
C105	C	0.410567	0.666584	0.683668
C106	C	-0.268124	-0.000067	0.120875
C107	C	0.065210	0.333266	0.454208
C108	C	0.398543	0.666600	0.787541
C109	C	-0.217707	-0.000063	0.121479
C110	C	0.115626	0.333270	0.454812
C111	C	0.448959	0.666603	0.788145
C112	C	-0.186489	-0.000076	0.069843
C113	C	0.146845	0.333257	0.403176
C114	C	0.480178	0.666590	0.736509
C115	C	0.346939	-0.000042	0.128236
C116	C	0.680272	0.333291	0.461569
C117	C	1.013605	0.666625	0.794903
C118	C	0.397357	-0.000035	0.128835
C119	C	0.730690	0.333299	0.462168
C120	C	1.064023	0.666632	0.795502
C121	C	0.409376	-0.000054	0.024962
C122	C	0.742709	0.333280	0.358296
C123	C	1.076042	0.666613	0.691629
C124	C	0.358962	-0.000058	0.024363
C125	C	0.692296	0.333276	0.357696
C126	C	1.025629	0.666609	0.691030
C127	C	0.327745	-0.000054	0.076004
C128	C	0.661078	0.333279	0.409338
C129	C	0.994411	0.666613	0.742671
O130	O	0.284314	-0.000055	-0.020727
O131	O	0.617647	0.333278	0.312606
O132	O	0.950981	0.666612	0.645940
O133	O	0.262032	-0.000054	0.171452
O134	O	0.595365	0.333280	0.504785
O135	O	0.928699	0.666613	0.838118
C136	C	0.039414	-0.000066	0.124557
C137	C	0.372748	0.333267	0.457891
C138	C	0.706081	0.666601	0.791224
C139	C	0.020221	-0.000079	0.072321
C140	C	0.353554	0.333255	0.405655
C141	C	0.686887	0.666588	0.738988
C142	C	0.051440	-0.000087	0.020689
C143	C	0.384773	0.333247	0.354023
C144	C	0.718106	0.666580	0.687356
C145	C	-0.030195	-0.000078	0.071717
C146	C	0.303139	0.333255	0.405050
C147	C	0.636472	0.666589	0.738384
C148	C	-0.061414	-0.000070	0.123349
C149	C	0.271920	0.333263	0.456683
C150	C	0.605253	0.666597	0.790016
C151	C	-0.042218	-0.000063	0.175586
C152	C	0.291116	0.333270	0.508919
C153	C	0.624449	0.666604	0.842252
C154	C	0.008195	-0.000058	0.176189
C155	C	0.341529	0.333275	0.509523
C156	C	0.674862	0.666608	0.842856
C157	C	0.032244	-0.000094	-0.031547
C158	C	0.365577	0.333240	0.301786
C159	C	0.698910	0.666573	0.635119
C160	C	-0.018170	-0.000098	-0.032147
C161	C	0.315164	0.333236	0.301187
C162	C	0.648497	0.666569	0.634520
C163	C	-0.049389	-0.000090	0.019486
C164	C	0.283944	0.333243	0.352819
C165	C	0.617278	0.666577	0.686152
C166	C	0.659025	-0.000072	0.067983
C167	C	0.992358	0.333261	0.401316
C168	C	1.325692	0.666595	0.734649
C169	C	0.712681	-0.000075	0.068634
C170	C	1.046014	0.333258	0.401967
C171	C	1.379348	0.666592	0.735301
N172	N	0.570613	0.143743	0.072938
N173	N	0.903946	0.477076	0.406271
N174	N	1.237280	0.810410	0.739604
C175	C	0.537514	0.436365	0.111861
C176	C	0.870847	0.769698	0.445194
C177	C	1.204181	1.103032	0.778527
C178	C	0.537512	0.372757	0.111865
C179	C	0.870845	0.706091	0.445198
C180	C	1.204179	1.039424	0.778531
O181	O	0.509360	0.339875	0.144987
O182	O	0.842693	0.673208	0.478320
O183	O	1.176026	1.006541	0.811653
N184	N	0.570625	0.340927	0.072934
N185	N	0.903958	0.674260	0.406267
N186	N	1.237291	1.007594	0.739601
C187	C	0.603745	0.372708	0.034000
C188	C	0.937078	0.706041	0.367334
C189	C	1.270412	1.039374	0.700667
O190	O	0.631910	0.339793	0.000888
O191	O	0.965243	0.673126	0.334221
O192	O	1.298577	1.006460	0.667554
C193	C	0.603749	0.436314	0.034000
C194	C	0.937082	0.769648	0.367333
C195	C	1.270416	1.102981	0.700666
C196	C	0.570631	0.468141	0.072929
C197	C	0.903964	0.801475	0.406262
C198	C	1.237297	1.134808	0.739596
C199	C	0.504399	0.468192	0.150787
C200	C	0.837732	0.801525	0.484120
C201	C	1.171066	1.134859	0.817454
C202	C	0.504401	0.531795	0.150782
C203	C	0.837734	0.865129	0.484116
C204	C	1.171067	1.198462	0.817449
C205	C	0.537517	0.563571	0.111851
C206	C	0.870851	0.896905	0.445184
C207	C	1.204184	1.230238	0.778517
C208	C	0.570632	0.531744	0.072924
C209	C	0.903966	0.865078	0.406257
C210	C	1.237299	1.198411	0.739591
C211	C	0.636871	0.468094	-0.004931
C212	C	0.970204	0.801427	0.328403
C213	C	1.303538	1.134760	0.661736
C214	C	0.636873	0.531705	-0.004928
C215	C	0.970206	0.865038	0.328405
C216	C	1.303539	1.198371	0.661739
C217	C	0.603754	0.563531	0.034001
C218	C	0.937088	0.896865	0.367335
C219	C	1.270421	1.230198	0.700668
C220	C	0.603751	0.627124	0.033988
C221	C	0.937084	0.960457	0.367321
C222	C	1.270418	1.293790	0.700654
N223	N	0.570638	0.658954	0.072918
N224	N	0.903972	0.992287	0.406252
N225	N	1.237305	1.325621	0.739585
C226	C	0.537521	0.627178	0.111850
C227	C	0.870855	0.960511	0.445183
C228	C	1.204188	1.293845	0.778516
C229	C	0.603734	0.239130	0.034006
C230	C	0.937068	0.572463	0.367339
C231	C	1.270401	0.905797	0.700673
C232	C	0.603728	0.175525	0.034004
C233	C	0.937062	0.508858	0.367337
C234	C	1.270395	0.842191	0.700670
C235	C	0.537496	0.175579	0.111869
C236	C	0.870829	0.508912	0.445202
C237	C	1.204163	0.842245	0.778535
C238	C	0.537500	0.239185	0.111868
C239	C	0.870833	0.572518	0.445201
C240	C	1.204167	0.905852	0.778534
C241	C	0.570622	0.270960	0.072937
C242	C	0.903955	0.604294	0.406270
C243	C	1.237288	0.937627	0.739603
C244	C	0.537527	0.760749	0.111836
C245	C	0.870861	1.094083	0.445169
C246	C	1.204194	1.427416	0.778503
C247	C	0.537531	0.824358	0.111826
C248	C	0.870864	1.157691	0.445159
C249	C	1.204197	1.491025	0.778493
C250	C	0.603765	0.824298	0.033963
C251	C	0.937098	1.157632	0.367297
C252	C	1.270431	1.490965	0.700630
C253	C	0.603760	0.760695	0.033971
C254	C	0.937093	1.094029	0.367304
C255	C	1.270426	1.427362	0.700638
C256	C	0.570639	0.728922	0.072912
C257	C	0.903973	1.062255	0.406246
C258	C	1.237306	1.395589	0.739579
O259	O	0.631890	0.660047	0.000884
O260	O	0.965223	0.993380	0.334217
O261	O	1.298557	1.326714	0.667551
O262	O	0.509365	0.660100	0.144962
O263	O	0.842699	0.993434	0.478295
O264	O	1.176032	1.326767	0.811629
C265	C	0.570006	0.055034	-0.486452
C266	C	0.903340	0.388367	-0.153118
C267	C	1.236673	0.721701	0.180215
C268	C	0.569398	0.055037	-0.545850
C269	C	0.902731	0.388371	-0.212516
C270	C	1.236064	0.721704	0.120817
O271	O	0.569061	0.101883	-0.576558
O272	O	0.902395	0.435216	-0.243224
O273	O	1.235728	0.768550	0.090109
N274	N	0.569102	-0.000044	-0.575569
N275	N	0.902435	0.333289	-0.242236
N276	N	1.235768	0.666622	0.091097
C277	C	0.569410	-0.055133	-0.545887
C278	C	0.902743	0.278200	-0.212553
C279	C	1.236076	0.611533	0.120780
O280	O	0.569102	-0.101984	-0.576619
O281	O	0.902435	0.231349	-0.243286
O282	O	1.235768	0.564683	0.090047
C283	C	0.570015	-0.055136	-0.486489
C284	C	0.903348	0.278197	-0.153156
C285	C	1.236682	0.611531	0.180178
C286	C	0.570316	-0.000051	-0.456773
C287	C	0.903649	0.333283	-0.123440
C288	C	1.236982	0.666616	0.209893
C289	C	0.570307	0.110115	-0.456736
C290	C	0.903640	0.443448	-0.123402
C291	C	1.236973	0.776781	0.209931
C292	C	0.570916	0.110111	-0.397342
C293	C	0.904250	0.443444	-0.064009
C294	C	1.237583	0.776778	0.269325
C295	C	0.571226	0.055026	-0.367664
C296	C	0.904559	0.388360	-0.034330
C297	C	1.237892	0.721693	0.299003
C298	C	0.570925	-0.000055	-0.397380
C299	C	0.904259	0.333279	-0.064046
C300	C	1.237592	0.666612	0.269287
C301	C	0.570319	-0.110224	-0.456807
C302	C	0.903653	0.223109	-0.123474
C303	C	1.236986	0.556442	0.209860
C304	C	0.570924	-0.110223	-0.397405
C305	C	0.904258	0.223111	-0.064072
C306	C	1.237591	0.556444	0.269261
C307	C	0.571225	-0.055137	-0.367690
C308	C	0.904558	0.278196	-0.034356
C309	C	1.237892	0.611530	0.298977
C310	C	0.571844	-0.055143	-0.308307
C311	C	0.905178	0.278190	0.025026
C312	C	1.238511	0.611524	0.358359
N313	N	0.572140	-0.000061	-0.278588
N314	N	0.905474	0.333272	0.054745
N315	N	1.238807	0.666605	0.388079
C316	C	0.571831	0.055023	-0.308266
C317	C	0.905164	0.388357	0.025067
C318	C	1.238498	0.721690	0.358401
C319	C	0.568138	-0.055123	-0.670626
C320	C	0.901471	0.278211	-0.337292
C321	C	1.234804	0.611544	-0.003959
C322	C	0.567536	-0.055121	-0.730023
C323	C	0.900869	0.278213	-0.396689
C324	C	1.234203	0.611546	-0.063356
C325	C	0.567523	0.055050	-0.729981
C326	C	0.900856	0.388384	-0.396648
C327	C	1.234190	0.721717	-0.063315
C328	C	0.568128	0.055047	-0.670584
C329	C	0.901462	0.388381	-0.337250
C330	C	1.234795	0.721714	-0.003917
C331	C	0.568434	-0.000041	-0.640906
C332	C	0.901767	0.333292	-0.307573
C333	C	1.235100	0.666626	0.025761
C334	C	0.573112	0.055011	-0.183535
C335	C	0.906445	0.388345	0.149799
C336	C	1.239778	0.721678	0.483132
C337	C	0.573723	0.055003	-0.124136
C338	C	0.907057	0.388336	0.209197
C339	C	1.240390	0.721669	0.542531
C340	C	0.573734	-0.055168	-0.124182
C341	C	0.907067	0.278166	0.209151
C342	C	1.240400	0.611499	0.542485
C343	C	0.573124	-0.055160	-0.183576
C344	C	0.906458	0.278174	0.149757
C345	C	1.239791	0.611507	0.483091
C346	C	0.572812	-0.000065	-0.213251
C347	C	0.906145	0.333268	0.120083
C348	C	1.239479	0.666602	0.453416
O349	O	0.572179	-0.101965	-0.277561
O350	O	0.905512	0.231369	0.055772
O351	O	1.238846	0.564702	0.389105
O352	O	0.572133	0.101867	-0.277525
O353	O	0.905466	0.435200	0.055808
O354	O	1.238799	0.768533	0.389142
C355	C	0.566583	-0.000045	0.177077
C356	C	0.899917	0.333288	0.510411
C357	C	1.233250	0.666622	0.843744
C358	C	0.567224	-0.000036	0.240294
C359	C	0.900557	0.333298	0.573628
C360	C	1.233891	0.666631	0.906961
H361	H	0.321527	-0.000041	0.170287
H362	H	0.654860	0.333292	0.503621
H363	H	0.988193	0.666626	0.836954
O364	O	0.567169	0.114464	-0.761998
O365	O	0.900502	0.447797	-0.428664
O366	O	1.233836	0.781131	-0.095331
H367	H	0.567475	0.152770	-0.731358
H368	H	0.900808	0.486103	-0.398025
H369	H	1.234142	0.819437	-0.064692
H370	H	0.630726	0.850181	0.002264
H371	H	0.964060	1.183514	0.335597
H372	H	1.297393	1.516847	0.668931
O373	O	-0.197007	-0.000053	0.177822
O374	O	0.136326	0.333280	0.511156
O375	O	0.469659	0.666614	0.844489
H376	H	-0.174317	-0.041239	0.180575
H377	H	0.159016	0.292095	0.513909
H378	H	0.492349	0.625428	0.847242
H379	H	0.663846	0.557573	-0.036630
H380	H	0.997179	0.890906	0.296703
H381	H	1.330512	1.224239	0.630037
O382	O	0.572769	0.114435	-0.215533
O383	O	0.906103	0.447768	0.117800
O384	O	1.239436	0.781101	0.451133
H385	H	0.605835	0.140841	-0.209496
H386	H	0.939169	0.474174	0.123838
H387	H	1.272502	0.807508	0.457171
H388	H	-0.293551	-0.000061	0.162916
H389	H	0.039782	0.333272	0.496249
H390	H	0.373116	0.666606	0.829582
H391	H	0.571166	-0.155083	-0.373244
H392	H	0.904499	0.178250	-0.039910
H393	H	1.237832	0.511583	0.293423
H394	H	0.630691	0.149616	0.002298
H395	H	0.964025	0.482949	0.335631
H396	H	1.297358	0.816282	0.668965
O397	O	0.501805	0.726483	0.153835
O398	O	0.835139	1.059817	0.487168
O399	O	1.168472	1.393150	0.820501
H400	H	0.521964	0.697514	0.181409
H401	H	0.855297	1.030847	0.514743
H402	H	1.188630	1.364181	0.848076
H403	H	0.567298	-0.099977	-0.754213
H404	H	0.900632	0.233357	-0.420880
H405	H	1.233965	0.566690	-0.087547
H406	H	-0.271722	-0.000084	-0.025537
H407	H	0.061611	0.333249	0.307796
H408	H	0.394944	0.666583	0.641129
O409	O	0.574047	0.114419	-0.092085
O410	O	0.907380	0.447752	0.241248
O411	O	1.240714	0.781085	0.574582
H412	H	0.541375	0.117055	-0.059649
H413	H	0.874709	0.450388	0.273685
H414	H	1.208042	0.783721	0.607018
H415	H	0.208910	-0.000109	-0.071787
H416	H	0.542243	0.333225	0.261546
H417	H	0.875576	0.666558	0.594879
O418	O	0.571228	0.169524	-0.365292
O419	O	0.904561	0.502858	-0.031959
O420	O	1.237895	0.836191	0.301375
H421	H	0.570903	0.207823	-0.395915
H422	H	0.904236	0.541157	-0.062581
H423	H	1.237570	0.874490	0.270752
O424	O	-0.038869	-0.000118	-0.088495
O425	O	0.294464	0.333215	0.244839
O426	O	0.627798	0.666549	0.578172
H427	H	-0.008686	-0.000131	-0.124293
H428	H	0.324647	0.333202	0.209040
H429	H	0.657981	0.666536	0.542374
H430	H	0.572884	-0.100014	-0.207772
H431	H	0.906217	0.233319	0.125561
H432	H	1.239551	0.566652	0.458894
H433	H	0.570053	0.154974	-0.480893
H434	H	0.903386	0.488307	-0.147560
H435	H	1.236720	0.821640	0.185774
H436	H	0.477431	0.442325	0.182493
H437	H	0.810765	0.775659	0.515826
H438	H	1.144098	1.108992	0.849159
O439	O	0.574067	-0.114580	-0.092167
O440	O	0.907400	0.218754	0.241166
O441	O	1.240733	0.552087	0.574499
H442	H	0.574535	-0.105322	-0.045873
H443	H	0.907869	0.228011	0.287461
H444	H	1.241202	0.561344	0.620794
H445	H	0.057658	-0.000102	-0.073594
H446	H	0.390991	0.333232	0.259740
H447	H	0.724325	0.666565	0.593073
H448	H	0.083607	-0.000044	0.219444
H449	H	0.416940	0.333289	0.552777
H450	H	0.750273	0.666622	0.886111
H451	H	0.023817	-0.000048	0.218729
H452	H	0.357151	0.333285	0.552062
H453	H	0.690484	0.666618	0.885395
H454	H	0.477434	0.557705	0.182483
H455	H	0.810768	0.891038	0.515817
H456	H	1.144101	1.224372	0.849150
H457	H	0.630723	0.734781	0.002266
H458	H	0.964056	1.068115	0.335599
H459	H	1.297390	1.401448	0.668933
H460	H	-0.180270	-0.000094	-0.024444
H461	H	0.153063	0.333239	0.308889
H462	H	0.486397	0.666573	0.642222
O463	O	-0.075895	-0.000055	0.231276
O464	O	0.257438	0.333279	0.564610
O465	O	0.590772	0.666612	0.897943
H466	H	-0.069091	-0.041236	0.256290
H467	H	0.264242	0.292098	0.589623
H468	H	0.597575	0.625431	0.922956
H469	H	0.343335	-0.000060	-0.018175
H470	H	0.676668	0.333274	0.315158
H471	H	1.010001	0.666607	0.648492
H472	H	0.412980	-0.000023	0.171377
H473	H	0.746314	0.333310	0.504710
H474	H	1.079647	0.666643	0.838044
O475	O	0.112381	-0.000124	-0.086692
O476	O	0.445714	0.333210	0.246642
O477	O	0.779047	0.666543	0.579975
H478	H	0.142566	-0.000141	-0.122487
H479	H	0.475900	0.333193	0.210846
H480	H	0.809233	0.666526	0.544179
H481	H	0.434803	-0.000058	-0.017075
H482	H	0.768137	0.333276	0.316258
H483	H	1.101470	0.666609	0.649591
H484	H	0.510560	0.850270	0.143527
H485	H	0.843893	1.183603	0.476861
H486	H	1.177227	1.516936	0.810194
O487	O	0.501785	0.273512	0.153860
O488	O	0.835118	0.606846	0.487193
O489	O	1.168451	0.940179	0.820527
H490	H	0.478760	0.240724	0.180931
H491	H	0.812093	0.574057	0.514265
H492	H	1.145427	0.907390	0.847598
H493	H	0.568372	0.099903	-0.646393
H494	H	0.901706	0.433236	-0.313060
H495	H	1.235039	0.766569	0.020274
O496	O	0.501780	0.141301	0.153868
O497	O	0.835113	0.474634	0.487201
O498	O	1.168446	0.807967	0.820534
H499	H	0.507348	0.091725	0.147330
H500	H	0.840681	0.425059	0.480663
H501	H	1.174015	0.758392	0.813996
H502	H	0.630705	0.264998	0.002299
H503	H	0.964038	0.598332	0.335632
H504	H	1.297372	0.931665	0.668966
O505	O	0.180133	-0.000048	0.234345
O506	O	0.513466	0.333286	0.567678
O507	O	0.846799	0.666619	0.901011
H508	H	0.149948	-0.000053	0.270141
H509	H	0.483281	0.333280	0.603474
H510	H	0.816615	0.666614	0.936808
H511	H	0.663839	0.442189	-0.036630
H512	H	0.997172	0.775522	0.296703
H513	H	1.330506	1.108856	0.630037
O514	O	0.568480	-0.114543	-0.638618
O515	O	0.901813	0.218790	-0.305285
O516	O	1.235147	0.552124	0.028048
H517	H	0.568179	-0.152840	-0.669268
H518	H	0.901512	0.180494	-0.335935
H519	H	1.234845	0.513827	-0.002602
H520	H	0.570075	-0.155081	-0.480991
H521	H	0.903408	0.178253	-0.147658
H522	H	1.236742	0.511586	0.185675
