data_functionalizedCrystal
_audit_creation_method	'MofGen! by Chris Wilmer'
_symmetry_space_group_name_H-M	'P1'
_symmetry_Int_Tables_number	1
_symmetry_cell_setting	triclinic
loop_
_symmetry_equiv_pos_as_xyz
  x,y,z
_cell_length_a	23.532361
_cell_length_b	16.109301
_cell_length_c	14.586319
_cell_angle_alpha	89.998390
_cell_angle_beta	90.001545
_cell_angle_gamma	96.854425
loop_
_atom_site_label
_atom_site_type_symbol
_atom_site_fract_x
_atom_site_fract_y
_atom_site_fract_z
O1	O	0.755650	-0.100735	0.076151
O2	O	1.255650	0.399265	0.576151
O3	O	0.589837	-0.115379	0.076174
O4	O	1.089837	0.384621	0.576174
O5	O	0.677298	0.013011	0.076153
O6	O	1.177298	0.513011	0.576153
O7	O	0.668188	-0.229125	0.076173
O8	O	1.168188	0.270875	0.576173
O9	O	0.677288	0.013003	-0.076328
O10	O	1.177288	0.513003	0.423672
O11	O	0.589826	-0.115387	-0.076307
O12	O	1.089826	0.384613	0.423693
O13	O	0.755639	-0.100743	-0.076329
O14	O	1.255639	0.399257	0.423671
Cu15	Cu	0.672732	-0.108066	-0.090241
Cu16	Cu	1.172732	0.391934	0.409759
Cu17	Cu	0.672744	-0.108056	0.090085
Cu18	Cu	1.172744	0.391944	0.590085
O19	O	0.668178	-0.229133	-0.076308
O20	O	1.168178	0.270867	0.423692
C21	C	0.568614	-0.115016	-0.000064
C22	C	1.068614	0.384984	0.499936
C23	C	0.505391	-0.113913	-0.000056
C24	C	1.005391	0.386087	0.499944
N25	N	0.672727	-0.108071	-0.217073
N26	N	1.172727	0.391929	0.282927
C27	C	0.676924	0.043979	-0.000088
C28	C	1.176924	0.543979	0.499912
C29	C	0.675818	0.136265	-0.000089
C30	C	1.175818	0.636265	0.499911
C31	C	0.232135	-0.109087	0.083056
C32	C	0.732135	0.390913	0.583056
C33	C	0.291539	-0.110131	0.083058
C34	C	0.791539	0.389869	0.583058
O35	O	0.322272	-0.110638	0.153745
O36	O	0.822272	0.389362	0.653745
N37	N	0.321241	-0.110662	-0.000060
N38	N	0.821241	0.389338	0.499940
C39	C	0.291537	-0.110141	-0.083185
C40	C	0.791537	0.389859	0.416815
O41	O	0.322255	-0.110688	-0.153883
O42	O	0.822255	0.389312	0.346117
C43	C	0.232135	-0.109091	-0.083186
C44	C	0.732135	0.390909	0.416814
C45	C	0.202435	-0.108569	-0.000063
C46	C	0.702435	0.391431	0.499937
C47	C	0.202436	-0.108563	0.166172
C48	C	0.702436	0.391437	0.666172
C49	C	0.143036	-0.107521	0.166169
C50	C	0.643036	0.392479	0.666169
C51	C	0.113336	-0.107003	0.083050
C52	C	0.613336	0.392997	0.583050
C53	C	0.143036	-0.107527	-0.000066
C54	C	0.643036	0.392473	0.499934
C55	C	0.202432	-0.108565	-0.166311
C56	C	0.702432	0.391435	0.333689
C57	C	0.143026	-0.107514	-0.166305
C58	C	0.643026	0.392486	0.333695
C59	C	0.113327	-0.106991	-0.083182
C60	C	0.613327	0.393009	0.416818
C61	C	0.053936	-0.105966	-0.083188
C62	C	0.553936	0.394034	0.416812
N63	N	0.024234	-0.105435	-0.000070
N64	N	0.524234	0.394565	0.499930
C65	C	0.053934	-0.105953	0.083049
C66	C	0.553934	0.394047	0.583049
C67	C	0.416285	-0.112344	-0.083176
C68	C	0.916285	0.387656	0.416824
C69	C	0.475685	-0.113400	-0.083175
C70	C	0.975685	0.386600	0.416825
C71	C	0.475684	-0.113387	0.083068
C72	C	0.975684	0.386613	0.583068
C73	C	0.416282	-0.112338	0.083067
C74	C	0.916282	0.387662	0.583067
C75	C	0.386583	-0.111813	-0.000058
C76	C	0.886583	0.388187	0.499942
C77	C	-0.070810	-0.103765	0.083037
C78	C	0.429190	0.396235	0.583037
C79	C	-0.130215	-0.102727	0.083027
C80	C	0.369785	0.397273	0.583027
C81	C	-0.130208	-0.102735	-0.083216
C82	C	0.369792	0.397265	0.416784
C83	C	-0.070808	-0.103778	-0.083206
C84	C	0.429192	0.396222	0.416794
C85	C	-0.041110	-0.104290	-0.000072
C86	C	0.458890	0.395710	0.499928
O87	O	0.023166	-0.105455	-0.153838
O88	O	0.523166	0.394545	0.346162
O89	O	0.023209	-0.105395	0.153735
O90	O	0.523209	0.394605	0.653735
C91	C	0.776863	-0.101106	-0.000090
C92	C	1.276863	0.398894	0.499910
C93	C	0.840085	-0.102208	-0.000092
C94	C	1.340085	0.397792	0.499908
C95	C	0.668552	-0.260101	-0.000065
C96	C	1.168552	0.239899	0.499935
C97	C	0.669658	-0.352387	-0.000058
C98	C	1.169658	0.147613	0.499942
C99	C	0.725143	0.358937	-0.000081
C100	C	1.225143	0.858937	0.499919
C101	C	0.724099	0.445649	-0.000074
C102	C	1.224099	0.945649	0.499926
C103	C	0.620329	0.424934	-0.000063
C104	C	1.120329	0.924934	0.499937
C105	C	0.621374	0.338224	-0.000065
C106	C	1.121374	0.838224	0.499935
C107	C	0.673782	0.305228	-0.000078
C108	C	1.173782	0.805228	0.499922
C109	C	0.671694	0.478650	-0.000069
C110	C	1.171694	0.978650	0.499931
C111	C	0.670561	0.572667	-0.000061
C112	C	1.170561	1.072667	0.499939
C113	C	0.674915	0.211205	-0.000085
C114	C	1.174915	0.711205	0.499915
C115	C	0.707267	-0.158220	-0.452080
C116	C	1.207267	0.341780	0.047920
C117	C	0.707273	-0.158214	-0.548061
C118	C	1.207273	0.341786	-0.048061
C119	C	0.638212	-0.057890	-0.548069
C120	C	1.138212	0.442110	-0.048069
C121	C	0.638210	-0.057892	-0.452090
C122	C	1.138210	0.442108	0.047910
C123	C	0.672736	-0.108062	-0.404097
C124	C	1.172736	0.391938	0.095903
C125	C	0.672745	-0.108054	-0.596058
C126	C	1.172745	0.391946	-0.096058
C127	C	0.672751	-0.108047	-0.700125
C128	C	1.172751	0.391953	-0.200125
C129	C	0.672731	-0.108067	-0.300024
C130	C	1.172731	0.391933	0.199976
N131	N	0.672754	-0.108044	0.216917
N132	N	1.172754	0.391956	0.716917
H133	H	-0.154394	-0.102303	0.150719
H134	H	0.345606	0.397697	0.650719
H135	H	0.226603	-0.108988	-0.233998
H136	H	0.726603	0.391012	0.266002
N137	N	0.565975	0.280286	-0.000055
N138	N	1.065975	0.780286	0.499945
H139	H	0.532616	0.314344	-0.000052
H140	H	1.032616	0.814344	0.499948
H141	H	0.564146	0.243857	-0.056580
H142	H	1.064146	0.743857	0.443420
H143	H	0.392107	-0.111927	-0.150870
H144	H	0.892107	0.388073	0.349130
H145	H	0.765922	0.489377	-0.000074
H146	H	1.265922	0.989377	0.499926
H147	H	0.577660	0.451810	-0.000054
H148	H	1.077660	0.951810	0.499946
N149	N	0.110996	-0.106944	-0.255964
N150	N	0.610996	0.393056	0.244036
H151	H	0.138879	-0.106867	-0.308612
H152	H	0.638879	0.393133	0.191388
H153	H	0.081985	-0.158344	-0.259860
H154	H	0.581985	0.341656	0.240140
N155	N	0.744531	-0.212304	-0.599797
N156	N	1.244531	0.287696	-0.099797
H157	H	0.733290	-0.272885	-0.583098
H158	H	1.233290	0.227115	-0.083098
H159	H	0.739291	-0.204624	-0.667869
H160	H	1.239291	0.295376	-0.167869
H161	H	0.610090	-0.017042	-0.413022
H162	H	1.110090	0.482958	0.086978
H163	H	0.735380	-0.199071	-0.413007
H164	H	1.235380	0.300929	0.086993
H165	H	0.767818	0.332076	-0.000091
H166	H	1.267818	0.832076	0.499909
H167	H	0.610102	-0.017044	-0.587156
H168	H	1.110102	0.482956	-0.087156
H169	H	-0.046637	-0.104184	0.150733
H170	H	0.453363	0.395816	0.650733
H171	H	0.118861	-0.107091	0.233857
H172	H	0.618861	0.392909	0.733857
N173	N	-0.038775	-0.104351	-0.172860
N174	N	0.461225	0.395649	0.327140
H175	H	-0.009502	-0.053237	-0.176572
H176	H	0.490498	0.446763	0.323428
H177	H	-0.018791	-0.156362	-0.176505
H178	H	0.481209	0.343638	0.323495
H179	H	0.226612	-0.108982	0.233861
H180	H	0.726612	0.391018	0.733861
H181	H	-0.154400	-0.102316	-0.150889
H182	H	0.345600	0.397684	0.349111
N183	N	0.507731	-0.113933	0.172715
N184	N	1.007731	0.386067	0.672715
H185	H	0.502025	-0.062201	0.209045
H186	H	1.002025	0.437799	0.709045
H187	H	0.492755	-0.165326	0.208997
H188	H	0.992755	0.334674	0.708997
N189	N	0.384251	-0.111772	0.172719
N190	N	0.884251	0.388228	0.672719
H191	H	0.412085	-0.112261	0.225370
H192	H	0.912085	0.387739	0.725370
H193	H	0.364238	-0.059787	0.176339
H194	H	0.864238	0.440213	0.676339
H195	H	0.499860	-0.113839	-0.150862
H196	H	0.999860	0.386161	0.349138
