data_functionalizedCrystal
_audit_creation_method	'MofGen! by Chris Wilmer'
_symmetry_space_group_name_H-M	'P1'
_symmetry_Int_Tables_number	1
_symmetry_cell_setting	triclinic
loop_
_symmetry_equiv_pos_as_xyz
  x,y,z
_cell_length_a	20.919287
_cell_length_b	14.560438
_cell_length_c	14.560438
_cell_angle_alpha	120.004823
_cell_angle_beta	93.156635
_cell_angle_gamma	58.214243
loop_
_atom_site_label
_atom_site_type_symbol
_atom_site_fract_x
_atom_site_fract_y
_atom_site_fract_z
Zr1	Zr	0.616759	1.005322	0.169371
O2	O	0.514535	1.196933	0.307948
O3	O	0.648095	0.813713	0.126882
O4	O	0.648097	1.005326	0.318499
O5	O	0.514532	1.005316	-0.034811
O6	O	0.753454	1.005327	0.326832
O7	O	0.514533	1.005320	0.116330
O8	O	0.753451	0.662566	-0.015937
O9	O	0.514535	1.348077	0.307958
O10	O	0.740088	0.892524	0.114989
O11	O	0.661460	0.892521	-0.004025
O12	O	0.661462	1.118120	0.221580
O13	O	0.582835	1.118117	0.102567
Zr14	Zr	0.784790	1.005317	-0.058392
Zr15	Zr	0.784791	1.005323	0.182661
Zr16	Zr	0.616758	1.005315	-0.071682
Zr17	Zr	0.616760	1.246379	0.169387
Zr18	Zr	0.784789	0.764260	-0.058408
O19	O	0.753454	1.196926	-0.015902
O20	O	0.753455	1.196935	0.326844
O21	O	0.514533	1.196924	-0.034799
O22	O	0.887014	0.813705	-0.196969
O23	O	0.887016	0.813715	0.145778
O24	O	0.648094	0.813704	-0.215865
O25	O	0.887017	1.005323	0.145790
O26	O	0.753452	1.005313	-0.207520
O27	O	0.648095	1.005312	-0.215853
O28	O	0.887016	1.005319	-0.005351
O29	O	0.648099	1.348078	0.318521
O30	O	0.753450	0.662561	-0.207542
O31	O	0.887014	0.662562	-0.196979
O32	O	0.887014	0.662567	-0.005373
O33	O	0.514535	1.348072	0.116352
O34	O	0.648098	1.348073	0.126916
O35	O	0.740087	0.892518	-0.110601
O36	O	0.818714	0.892522	0.008413
O37	O	0.740089	1.118118	0.115004
O38	O	0.661462	1.118114	-0.004010
C39	C	0.700773	0.703794	0.055470
C40	C	0.700772	0.601459	0.055463
C41	C	0.642729	0.636675	0.134156
C42	C	0.642733	0.540535	0.134185
C43	C	0.758826	0.373964	-0.023180
C44	C	0.758825	0.470103	-0.023204
C45	C	0.490592	1.005318	0.038866
C46	C	0.419257	1.005317	0.033224
C47	C	0.385744	1.005323	0.113841
C48	C	0.318721	1.005316	0.108534
C49	C	0.285208	1.005312	0.022615
C50	C	0.318727	1.005302	-0.058010
C51	C	0.385753	1.005300	-0.052707
C52	C	0.082836	1.005310	0.002433
C53	C	0.015805	1.005316	-0.002862
C54	C	0.015804	1.005327	0.163682
C55	C	0.082828	1.005332	0.168981
C56	C	0.116344	1.005316	0.088354
C57	C	0.216698	1.005309	0.017190
C58	C	0.184856	1.005310	0.093774
C59	C	0.910958	1.005321	0.072113
C60	C	0.982292	1.005322	0.077755
C61	C	0.700776	1.005327	0.357011
C62	C	0.700776	1.005330	0.459344
C63	C	0.700776	1.306845	0.055509
C64	C	0.700777	1.409180	0.055516
C65	C	0.758818	1.005332	0.512011
C66	C	0.758821	1.005321	0.608158
C67	C	0.642733	1.005312	0.598964
C68	C	0.642734	1.005313	0.502815
C69	C	0.700775	1.005314	0.753970
C70	C	0.700778	1.005318	0.651640
C71	C	0.910956	0.703795	0.072094
C72	C	0.982290	0.601461	0.077729
C73	C	0.700772	0.703786	-0.246051
C74	C	0.700771	0.601448	-0.348391
C75	C	0.910955	0.703787	-0.229427
C76	C	0.982288	0.601450	-0.326126
C77	C	0.490594	1.306851	0.340407
C78	C	0.419261	1.409188	0.437105
C79	C	0.490593	1.306843	0.038886
C80	C	0.419260	1.409178	0.033250
C81	C	0.700777	1.306853	0.357030
C82	C	0.700778	1.409191	0.459370
C83	C	0.974746	0.553405	0.136017
C84	C	1.041766	0.457264	0.141334
C85	C	1.116327	0.409175	0.088356
C86	C	1.123869	0.457240	0.030065
C87	C	1.056850	0.553386	0.024756
C88	C	1.056837	0.553393	-0.309412
C89	C	1.123868	0.457250	-0.400260
C90	C	1.116350	0.409159	-0.507822
C91	C	1.041793	0.457225	-0.524534
C92	C	0.974763	0.553373	-0.433687
C93	C	0.344713	1.457257	0.420391
C94	C	0.277681	1.553430	0.511239
C95	C	0.285200	1.601526	0.618801
C96	C	0.359756	1.553454	0.635513
C97	C	0.426786	1.457289	0.544666
C98	C	0.426803	1.457244	-0.025028
C99	C	0.359784	1.553411	-0.030318
C100	C	0.285222	1.601504	0.022664
C101	C	0.277680	1.553434	0.080949
C102	C	0.344699	1.457275	0.086246
C103	C	0.741812	0.553366	-0.452103
C104	C	0.741802	0.457218	-0.548259
C105	C	0.659709	0.457238	-0.436978
C106	C	0.659715	0.553391	-0.340825
H107	H	0.806089	0.267006	-0.087229
O108	O	0.115515	1.005140	0.252303
C109	C	0.193269	0.893229	0.207479
H110	H	0.216310	0.855940	0.118357
H111	H	0.231636	0.918376	0.258341
H112	H	0.194737	0.814881	0.209495
O113	O	0.418198	1.005544	-0.130923
C114	C	0.362819	1.117418	-0.130021
H115	H	0.317136	1.195611	-0.045809
H116	H	0.393808	1.154983	-0.146544
H117	H	0.332734	1.092126	-0.196977
H118	H	0.806081	1.005343	0.476618
H119	H	1.170936	0.330869	-0.581786
H120	H	0.595469	0.569220	0.198265
H121	H	1.035610	0.418141	0.188800
O122	O	0.619860	0.600283	-0.239985
C123	C	0.628684	0.695434	-0.156741
H124	H	0.643801	0.737476	-0.193023
H125	H	0.571561	0.776335	-0.087103
H126	H	0.677825	0.649435	-0.122784
H127	H	0.806095	0.441418	-0.087286
H128	H	0.806085	1.005321	0.651036
H129	H	0.291435	1.005319	0.174178
H130	H	0.365869	1.592627	0.723101
O131	O	0.217538	1.005140	0.177100
C132	C	0.295295	0.893237	0.132287
H133	H	0.318334	0.855924	0.043156
H134	H	0.333659	0.918402	0.183139
H135	H	0.296768	0.814898	0.134329
H136	H	0.338546	1.418142	0.133699
H137	H	0.914065	0.592489	-0.447311
O138	O	0.220002	1.694894	0.706923
C139	C	0.152595	1.727017	0.669091
H140	H	0.167993	1.642673	0.581549
H141	H	0.105253	1.746995	0.726082
H142	H	0.130030	1.817358	0.669052
H143	H	0.775221	0.418076	-0.632702
H144	H	0.487485	1.418153	0.558288
O145	O	-0.016698	1.005100	0.241858
C146	C	-0.016492	0.893231	0.190904
H147	H	0.030961	0.815031	0.108298
H148	H	-0.004162	0.855673	0.246742
H149	H	-0.076105	0.918528	0.176468
H150	H	0.626284	0.418096	-0.430832
H151	H	0.595455	0.743627	0.198205
H152	H	0.365939	1.592534	-0.077785
O153	O	0.418245	1.005554	0.197391
C154	C	0.418041	1.117420	0.258293
H155	H	0.370589	1.195625	0.246396
H156	H	0.405713	1.154973	0.349744
H157	H	0.477655	1.092122	0.227990
H158	H	0.189405	1.005309	-0.052766
H159	H	0.487508	1.418094	-0.068181
O160	O	0.586451	1.005133	0.641224
C161	C	0.621972	0.893233	0.643677
H162	H	0.685368	0.855934	0.644444
H163	H	0.588636	0.918397	0.721237
H164	H	0.620633	0.814885	0.567338
H165	H	0.338576	1.418102	0.332816
O166	O	0.220205	1.694867	0.017358
C167	C	0.242861	1.726989	-0.045425
H168	H	0.304730	1.642646	-0.102786
H169	H	0.200525	1.746960	-0.096713
H170	H	0.241648	1.817333	0.012453
H171	H	-0.011479	1.005314	-0.072832
H172	H	0.775239	0.592496	-0.458270
O173	O	0.115276	1.005330	-0.075958
C174	C	0.071337	1.005283	-0.152947
H175	H	0.009298	1.046218	-0.112979
H176	H	0.068861	1.067966	-0.180051
H177	H	0.100319	0.901633	-0.228064
H178	H	0.291440	1.005292	-0.127973
H179	H	1.170891	0.330886	0.092687
H180	H	0.595468	1.005307	0.459928
H181	H	0.914041	0.592558	0.179174
O182	O	0.205190	1.600253	0.132304
C183	C	0.147665	1.695448	0.115140
H184	H	0.173803	1.679647	0.037689
H185	H	0.095977	1.687650	0.104287
H186	H	0.126698	1.796022	0.189564
H187	H	1.184586	0.418072	-0.013067
O188	O	1.064323	0.599868	-0.031968
C189	C	1.144506	0.536817	-0.077563
H190	H	1.180238	0.439371	-0.086373
H191	H	1.153863	0.520214	-0.162365
H192	H	1.164256	0.599879	-0.020823
O193	O	1.064012	0.600205	-0.204859
C194	C	0.988870	0.695401	-0.128242
H195	H	0.944442	0.679605	-0.169220
H196	H	0.989617	0.687601	-0.054035
H197	H	0.971790	0.795975	-0.099514
O198	O	1.196241	0.410798	-0.383862
C199	C	1.204818	0.513426	-0.323858
H200	H	1.144475	0.609603	-0.275578
H201	H	1.240051	0.498945	-0.263891
H202	H	1.236862	0.514717	-0.383580
O203	O	1.034636	0.410313	-0.629096
C204	C	1.109790	0.315165	-0.705682
H205	H	1.154206	0.273147	-0.664674
H206	H	1.109069	0.234246	-0.779894
H207	H	1.126865	0.361160	-0.734410
O208	O	0.205322	1.599924	0.494795
C209	C	0.213068	1.536854	0.380376
H210	H	0.272882	1.439397	0.333846
H211	H	0.165003	1.520272	0.363164
H212	H	0.207584	1.599892	0.351595
