data_functionalizedCrystal
_audit_creation_method	'MofGen! by Chris Wilmer'
_symmetry_space_group_name_H-M	'P1'
_symmetry_Int_Tables_number	1
_symmetry_cell_setting	triclinic
loop_
_symmetry_equiv_pos_as_xyz
  x,y,z
_cell_length_a	12.594517
_cell_length_b	12.594516
_cell_length_c	12.827885
_cell_angle_alpha	89.970270
_cell_angle_beta	89.985454
_cell_angle_gamma	90.011773
loop_
_atom_site_label
_atom_site_type_symbol
_atom_site_fract_x
_atom_site_fract_y
_atom_site_fract_z
Zn1	Zn	1.627301	-0.423692	-0.590717
Zn2	Zn	1.627204	-0.601708	-0.415978
Zn3	Zn	1.449304	-0.423744	-0.416005
Zn4	Zn	1.449300	-0.601629	-0.590692
O5	O	1.538277	-0.512693	-0.503348
O6	O	1.776234	-0.447318	-0.567537
O7	O	1.603566	-0.578155	-0.269745
O8	O	1.472958	-0.274791	-0.439203
O9	O	1.776163	-0.578105	-0.439156
O10	O	1.603731	-0.274753	-0.567563
O11	O	1.472864	-0.447406	-0.269766
O12	O	1.300358	-0.447329	-0.439179
O13	O	1.472951	-0.577970	-0.736932
O14	O	1.300355	-0.578020	-0.567521
O15	O	1.603727	-0.447241	-0.736950
O16	O	1.603563	-0.750643	-0.439132
O17	O	1.472857	-0.750585	-0.567494
C18	C	1.261736	-0.512672	-0.503351
C19	C	1.143431	-0.512689	-0.503377
C20	C	1.003443	-0.583901	-0.573052
C21	C	1.074215	-0.609812	-0.477678
C22	C	1.074230	-0.486826	-0.598740
C23	C	1.003417	-0.538685	-0.407921
C24	C	1.003426	-0.415654	-0.529047
C25	C	1.074166	-0.441527	-0.433607
C26	C	1.538228	-0.789234	-0.503330
C27	C	1.538304	-0.907539	-0.503357
C28	C	1.609477	-0.976785	-0.433616
C29	C	1.635488	-1.047479	-0.528994
C30	C	1.512426	-1.047645	-0.408039
C31	C	1.564365	-0.976674	-0.598786
C32	C	1.441258	-0.976834	-0.477766
C33	C	1.467232	-1.047496	-0.573211
C34	C	1.815898	-0.512714	-0.503346
C35	C	1.934203	-0.512724	-0.503345
C36	C	1.538350	-0.512591	-0.775918
C37	C	1.538380	-0.512547	-0.892072
C38	C	1.538356	-0.235072	-0.503389
C39	C	1.538389	-0.116767	-0.503407
C40	C	1.603100	-0.447845	-0.943866
C41	C	1.603133	-0.447799	-1.063916
C42	C	1.538266	-0.512718	-0.231838
C43	C	1.538442	-0.512462	-0.115686
H44	H	0.972308	-0.333602	-0.550807
H45	H	1.586206	-0.945633	-0.679485
N46	N	1.468909	-0.581957	-1.059841
N47	N	1.408086	-0.642746	-1.108460
H48	H	1.358976	-0.691827	-1.069015
N49	N	0.964457	-0.659468	-0.646895
N50	N	0.907692	-0.629414	-0.721176
H51	H	0.880154	-0.682784	-0.773324
H52	H	1.105023	-0.381320	-0.374604
N53	N	1.738475	-1.086439	-0.556195
N54	N	1.750052	-1.143136	-0.635332
H55	H	1.822788	-1.170651	-0.654537
N56	N	1.113218	-0.712769	-0.450389
N57	N	1.089239	-0.753000	-0.364451
H58	H	1.116775	-0.825717	-0.345181
H59	H	0.972443	-0.560674	-0.327238
H60	H	1.105336	-0.464935	-0.679401
N61	N	1.685000	-0.937843	-0.359697
N62	N	1.781121	-0.960491	-0.369384
H63	H	1.834462	-0.932988	-0.317183
H64	H	1.658480	-0.392483	-0.899331
N65	N	1.338294	-0.937863	-0.450522
N66	N	1.327033	-0.879863	-0.372256
H67	H	1.254315	-0.852337	-0.353001
H68	H	1.490504	-1.078818	-0.327409
H69	H	1.482990	-0.567899	-0.936606
H70	H	1.407079	-1.078348	-0.632279
N71	N	1.672648	-0.378319	-1.119799
N72	N	1.672581	-0.378382	-1.217241
H73	H	1.721678	-0.329311	-1.256713
