data_functionalizedCrystal
_audit_creation_method	'MofGen! by Chris Wilmer'
_symmetry_space_group_name_H-M	'P1'
_symmetry_Int_Tables_number	1
_symmetry_cell_setting	triclinic
loop_
_symmetry_equiv_pos_as_xyz
  x,y,z
_cell_length_a	18.101389
_cell_length_b	19.077105
_cell_length_c	19.077068
_cell_angle_alpha	90.115316
_cell_angle_beta	87.722285
_cell_angle_gamma	92.315730
loop_
_atom_site_label
_atom_site_type_symbol
_atom_site_fract_x
_atom_site_fract_y
_atom_site_fract_z
Zn1	Zn	-0.477251	-1.062984	0.323060
Zn2	Zn	0.022749	-0.562984	0.823060
Zn3	Zn	-0.358165	-1.058173	0.440549
Zn4	Zn	0.141835	-0.558173	0.940549
Zn5	Zn	-0.348262	-0.945478	0.318333
Zn6	Zn	0.151738	-0.445478	0.818333
Zn7	Zn	-0.476806	-0.940719	0.435801
Zn8	Zn	0.023194	-0.440719	0.935801
O9	O	-0.415121	-1.001839	0.379436
O10	O	0.084879	-0.501839	0.879436
O11	O	-0.465784	-1.160677	0.342610
O12	O	0.034216	-0.660677	0.842610
O13	O	-0.253218	-1.043201	0.424345
O14	O	0.246782	-0.543201	0.924345
O15	O	-0.361415	-0.965071	0.220629
O16	O	0.138585	-0.465071	0.720629
O17	O	-0.378292	-1.157142	0.428929
O18	O	0.121708	-0.657142	0.928929
O19	O	-0.456182	-1.051402	0.224102
O20	O	0.043818	-0.551402	0.724102
O21	O	-0.245943	-0.960405	0.334554
O22	O	0.254057	-0.460405	0.834554
O23	O	-0.360983	-0.846515	0.329950
O24	O	0.139017	-0.346515	0.829950
O25	O	-0.580498	-0.956960	0.420837
O26	O	-0.080498	-0.456960	0.920837
O27	O	-0.455424	-0.843019	0.416254
O28	O	0.044576	-0.343019	0.916254
O29	O	-0.580825	-1.046788	0.338006
O30	O	-0.080825	-0.546788	0.838006
O31	O	-0.377861	-1.038587	0.538250
O32	O	0.122139	-0.538587	1.038250
O33	O	-0.465026	-0.952294	0.534762
O34	O	0.034974	-0.452294	1.034762
C35	C	-0.407081	-0.819271	0.372074
C36	C	0.092919	-0.319271	0.872074
C37	C	-0.403660	-0.741167	0.368942
C38	C	0.096340	-0.241167	0.868942
C39	C	-0.422487	-0.994421	0.562002
C40	C	0.077513	-0.494421	1.062002
C41	C	-0.425665	-0.991312	0.640108
C42	C	0.074335	-0.491312	1.140108
C43	C	-0.608284	-1.001880	0.379419
C44	C	-0.108284	-0.501880	0.879419
C45	C	-0.690599	-1.001897	0.379413
C46	C	-0.190599	-0.501897	0.879413
C47	C	-0.989686	-1.001944	0.379283
C48	C	-0.489686	-0.501944	0.879283
C49	C	-0.958140	-0.945246	0.431217
C50	C	-0.458140	-0.445246	0.931217
C51	C	-0.872538	-0.945384	0.431474
C52	C	-0.372538	-0.445384	0.931474
C53	C	-0.841305	-1.001920	0.379347
C54	C	-0.341305	-0.501920	0.879347
C55	C	-0.876470	-1.075148	0.402427
C56	C	-0.376470	-0.575148	0.902427
C57	C	-0.962116	-1.074830	0.402771
C58	C	-0.462116	-0.574830	0.902771
C59	C	-0.954271	-0.986062	0.304173
C60	C	-0.454271	-0.486062	0.804173
C61	C	-0.868566	-0.984397	0.304536
C62	C	-0.368566	-0.484397	0.804536
C63	C	-0.757447	-1.001911	0.379382
C64	C	-0.257447	-0.501911	0.879382
C65	C	-1.073545	-1.001957	0.379249
C66	C	-0.573545	-0.501957	0.879249
C67	C	-0.222709	-1.001840	0.379403
C68	C	0.277291	-0.501840	0.879403
C69	C	-0.140393	-1.001966	0.379217
C70	C	0.359607	-0.501966	0.879217
C71	C	-0.423193	-1.185119	0.386826
C72	C	0.076807	-0.685119	0.886826
C73	C	-0.426632	-1.263222	0.389976
C74	C	0.073368	-0.763222	0.889976
C75	C	-0.451151	-0.702669	0.412472
C76	C	0.048849	-0.202669	0.912472
C77	C	-0.447940	-0.629283	0.409519
C78	C	0.052060	-0.129283	0.909519
C79	C	-0.397233	-0.594395	0.363040
C80	C	0.102767	-0.094395	0.863040
C81	C	-0.349740	-0.632899	0.319506
C82	C	0.150260	-0.132899	0.819506
C83	C	-0.352956	-0.706284	0.322455
C84	C	0.147044	-0.206284	0.822455
C85	C	-0.382355	-0.375111	0.349390
C86	C	0.117645	0.124889	0.849390
C87	C	-0.379141	-0.301720	0.346446
C88	C	0.120859	0.198280	0.846446
C89	C	-0.477342	-0.298109	0.436459
C90	C	0.022658	0.201891	0.936459
C91	C	-0.480550	-0.371496	0.439407
C92	C	0.019450	0.128504	0.939407
C93	C	-0.433060	-0.409993	0.395870
C94	C	0.066940	0.090007	0.895870
N95	N	-0.393948	-0.519383	0.360023
N96	N	0.106052	-0.019383	0.860023
N97	N	-0.436349	-0.485004	0.398884
N98	N	0.063651	0.014996	0.898884
C99	C	-0.407743	-1.009304	0.196157
C100	C	0.092257	-0.509304	0.696157
C101	C	-0.404600	-1.012485	0.118054
C102	C	0.095400	-0.512485	0.618054
C103	C	-0.381818	-1.034814	0.678596
C104	C	0.118182	-0.534814	1.178596
C105	C	-0.384812	-1.031895	0.751984
C106	C	0.115188	-0.531895	1.251984
C107	C	-0.431651	-0.985468	0.786883
C108	C	0.068349	-0.485468	1.286883
C109	C	-0.475503	-0.941964	0.748390
C110	C	0.024497	-0.441964	1.248390
C111	C	-0.472512	-0.944888	0.675003
C112	C	0.027488	-0.444888	1.175003
C113	C	-0.445461	-0.971905	1.006174
C114	C	0.054539	-0.471905	1.506174
C115	C	-0.448447	-0.968983	1.079566
C116	C	0.051553	-0.468983	1.579566
C117	C	-0.357757	-1.058915	1.083156
C118	C	0.142243	-0.558915	1.583156
C119	C	-0.354767	-1.061831	1.009767
C120	C	0.145233	-0.561831	1.509767
C121	C	-0.398622	-1.018330	0.971280
C122	C	0.101378	-0.518330	1.471280
N123	N	-0.434711	-0.982481	0.861898
N124	N	0.065289	-0.482481	1.361898
N125	N	-0.395565	-1.021321	0.896267
N126	N	0.104435	-0.521321	1.396267
H127	H	-0.975808	-0.890681	0.416551
H128	H	-0.475808	-0.390681	0.916551
H129	H	-0.349106	-1.067318	0.783318
H130	H	0.150894	-0.567318	1.283318
N131	N	-0.502945	-0.738291	0.459960
N132	N	-0.002945	-0.238291	0.959960
N133	N	-0.545343	-0.703906	0.498822
N134	N	-0.045343	-0.203906	0.998822
H135	H	-0.581926	-0.729061	0.532362
H136	H	-0.081926	-0.229061	1.032362
H137	H	-0.521839	-0.399896	0.477257
H138	H	-0.021839	0.100104	0.977257
N139	N	-0.312954	-1.103348	1.122460
N140	N	0.187046	-0.603348	1.622460
N141	N	-0.244079	-1.099048	1.114113
N142	N	0.255921	-0.599048	1.614113
H143	H	-0.212435	-1.130431	1.141872
H144	H	0.287565	-0.630431	1.641872
H145	H	-0.486602	-0.931186	1.107979
H146	H	0.013398	-0.431186	1.607979
N147	N	-0.327349	-0.266092	0.298953
N148	N	0.172651	0.233908	0.798953
N149	N	-0.330124	-0.276917	0.234450
N150	N	0.169876	0.223083	0.734450
H151	H	-0.293547	-0.251754	0.200910
H152	H	0.206453	0.248246	0.700910
N153	N	-0.990844	-1.092143	0.471758
N154	N	-0.490844	-0.592143	0.971758
N155	N	-1.059173	-1.095034	0.484486
N156	N	-0.559173	-0.595034	0.984486
H157	H	-1.079461	-1.107260	0.533210
H158	H	-0.579461	-0.607260	1.033210
N159	N	-0.839293	-0.916811	0.282776
N160	N	-0.339293	-0.416811	0.782776
N161	N	-0.798501	-0.881641	0.322178
N162	N	-0.298501	-0.381641	0.822178
H163	H	-0.777823	-0.833907	0.306812
H164	H	-0.277823	-0.333907	0.806812
H165	H	-0.982425	-0.955380	0.486488
H166	H	-0.482425	-0.455380	0.986488
N167	N	-0.306893	-1.109232	0.974125
N168	N	0.193107	-0.609232	1.474125
N169	N	-0.256921	-1.086138	0.932244
N170	N	0.243079	-0.586138	1.432244
H171	H	-0.223097	-1.119607	0.907076
H172	H	0.276903	-0.619607	1.407076
H173	H	-0.847074	-1.022917	0.263548
H174	H	-0.347074	-0.522917	0.763548
N175	N	-0.853192	-1.092848	0.470705
N176	N	-0.353192	-0.592848	0.970705
N177	N	-0.810724	-1.051655	0.502488
N178	N	-0.310724	-0.551655	1.002488
H179	H	-0.794283	-1.064151	0.550711
H180	H	-0.294283	-0.564151	1.050711
H181	H	-0.516007	-0.266757	0.471903
H182	H	-0.016007	0.233243	0.971903
H183	H	-0.854835	-0.955627	0.487086
H184	H	-0.354835	-0.455627	0.987086
N185	N	-0.523357	-0.894540	0.784023
N186	N	-0.023357	-0.394540	1.284023
N187	N	-0.591565	-0.899490	0.775972
N188	N	-0.091565	-0.399490	1.275972
H189	H	-0.625362	-0.865994	0.801136
H190	H	-0.125362	-0.365994	1.301136
H191	H	-0.983169	-1.118346	0.366747
H192	H	-0.483169	-0.618346	0.866747
N193	N	-0.851297	-1.129399	0.356625
N194	N	-0.351297	-0.629399	0.856625
N195	N	-0.807053	-1.114662	0.306342
N196	N	-0.307053	-0.614662	0.806342
H197	H	-0.789274	-1.152976	0.273992
H198	H	-0.289274	-0.652976	0.773992
H199	H	-0.508219	-0.909465	0.643666
H200	H	-0.008219	-0.409465	1.143666
H201	H	-0.848590	-0.890989	0.416686
H202	H	-0.348590	-0.390989	0.916686
H203	H	-0.486611	-0.597941	0.444967
H204	H	0.013389	-0.097941	0.944967
H205	H	-0.343679	-0.406446	0.313945
H206	H	0.156321	0.093554	0.813945
H207	H	-0.308457	-0.604488	0.281658
H208	H	0.191543	-0.104488	0.781658
N209	N	-0.490262	-0.927466	0.966878
N210	N	0.009738	-0.427466	1.466878
N211	N	-0.532076	-0.886017	0.998048
N212	N	-0.032076	-0.386017	1.498048
H213	H	-0.563718	-0.854629	0.970293
H214	H	-0.063718	-0.354629	1.470293
N215	N	-0.979842	-1.037916	0.255592
N216	N	-0.479842	-0.537916	0.755592
N217	N	-1.023952	-1.086382	0.276102
N218	N	-0.523952	-0.586382	0.776102
H219	H	-1.042016	-1.123007	0.241797
H220	H	-0.542016	-0.623007	0.741797
H221	H	-0.972791	-0.933749	0.283725
H222	H	-0.472791	-0.433749	0.783725
N223	N	-0.304446	-0.745601	0.277979
N224	N	0.195554	-0.245601	0.777979
N225	N	-0.259178	-0.714445	0.236479
N226	N	0.240822	-0.214445	0.736479
H227	H	-0.224920	-0.742212	0.205062
H228	H	0.275080	-0.242212	0.705062
H229	H	-0.343673	-1.072616	0.650186
H230	H	0.156327	-0.572616	1.150186
