data_functionalizedCrystal
_audit_creation_method	'MofGen! by Chris Wilmer'
_symmetry_space_group_name_H-M	'P1'
_symmetry_Int_Tables_number	1
_symmetry_cell_setting	triclinic
loop_
_symmetry_equiv_pos_as_xyz
  x,y,z
_cell_length_a	21.395362
_cell_length_b	15.297327
_cell_length_c	15.296720
_cell_angle_alpha	107.319222
_cell_angle_beta	99.639462
_cell_angle_gamma	99.725883
loop_
_atom_site_label
_atom_site_type_symbol
_atom_site_fract_x
_atom_site_fract_y
_atom_site_fract_z
Zn1	Zn	0.831457	-0.460955	-0.590193
Zn2	Zn	1.331457	0.039045	-0.090193
Zn3	Zn	0.831386	-0.589576	-0.461587
Zn4	Zn	1.331386	-0.089576	0.038413
Zn5	Zn	0.748613	-0.434110	-0.434675
Zn6	Zn	1.248613	0.065890	0.065325
Zn7	Zn	0.704737	-0.616460	-0.616977
Zn8	Zn	1.204737	-0.116460	-0.116977
O9	O	0.779048	-0.525275	-0.525858
O10	O	1.279048	-0.025275	-0.025858
O11	O	0.919121	-0.478001	-0.573187
O12	O	1.419121	0.021999	-0.073187
O13	O	0.838738	-0.546468	-0.327901
O14	O	1.338738	-0.046468	0.172099
O15	O	0.777995	-0.307528	-0.432833
O16	O	1.277995	0.192472	0.067167
O17	O	0.919069	-0.572498	-0.478701
O18	O	1.419069	-0.072498	0.021299
O19	O	0.838860	-0.327251	-0.547091
O20	O	1.338860	0.172749	-0.047091
O21	O	0.777926	-0.432247	-0.308129
O22	O	1.277926	0.067753	0.191871
O23	O	0.655120	-0.458315	-0.458804
O24	O	1.155120	0.041685	0.041196
O25	O	0.703214	-0.618317	-0.743540
O26	O	1.203214	-0.118317	-0.243540
O27	O	0.622884	-0.592287	-0.592740
O28	O	1.122884	-0.092287	-0.092740
O29	O	0.796315	-0.504068	-0.723862
O30	O	1.296315	-0.004068	-0.223862
O31	O	0.796194	-0.723285	-0.504672
O32	O	1.296194	-0.223285	-0.004672
O33	O	0.703145	-0.743037	-0.618836
O34	O	1.203145	-0.243037	-0.118836
C35	C	0.616269	-0.525306	-0.525759
C36	C	1.116269	-0.025306	-0.025759
C37	C	0.546625	-0.525345	-0.525742
C38	C	1.046625	-0.025345	-0.025742
C39	C	0.744915	-0.766909	-0.567601
C40	C	1.244915	-0.266909	-0.067601
C41	C	0.730365	-0.870286	-0.585490
C42	C	1.230365	-0.370286	-0.085490
C43	C	0.497145	-0.595168	-0.595407
C44	C	0.997145	-0.095168	-0.095407
C45	C	0.431707	-0.595152	-0.595445
C46	C	0.931707	-0.095152	-0.095445
C47	C	0.415752	-0.525321	-0.525802
C48	C	0.915752	-0.025321	-0.025802
C49	C	0.465243	-0.455486	-0.456131
C50	C	0.965243	0.044514	0.043869
C51	C	0.530679	-0.455498	-0.456101
C52	C	1.030679	0.044502	0.043899
C53	C	0.324896	-0.503356	-0.440799
C54	C	0.824896	-0.003356	0.059201
C55	C	0.259460	-0.503350	-0.440828
C56	C	0.759460	-0.003350	0.059172
C57	C	0.213926	-0.525278	-0.525894
C58	C	0.713926	-0.025278	-0.025894
C59	C	0.233832	-0.547231	-0.610936
C60	C	0.733832	-0.047231	-0.110936
C61	C	0.299268	-0.547243	-0.610906
C62	C	0.799268	-0.047243	-0.110906
C63	C	0.344800	-0.525299	-0.525827
C64	C	0.844800	-0.025299	-0.025827
C65	C	0.093489	-0.595087	-0.595606
C66	C	0.593489	-0.095087	-0.095606
C67	C	0.028050	-0.595065	-0.595644
C68	C	0.528050	-0.095065	-0.095644
C69	C	0.061588	-0.455403	-0.456322
C70	C	0.561588	0.044597	0.043678
C71	C	0.127025	-0.455421	-0.456292
C72	C	0.627025	0.044579	0.043708
C73	C	0.142971	-0.525268	-0.525933
C74	C	0.642971	-0.025268	-0.025933
C75	C	0.883250	-1.120459	-0.398320
C76	C	1.383250	-0.620459	0.101680
C77	C	0.896920	-1.023330	-0.381508
C78	C	1.396920	-0.523330	0.118492
C79	C	0.855283	-0.985064	-0.432502
C80	C	1.355283	-0.485064	0.067498
C81	C	0.799972	-1.043937	-0.500311
C82	C	1.299972	-0.543937	-0.000311
C83	C	0.786298	-1.141075	-0.517120
C84	C	1.286298	-0.641075	-0.017120
C85	C	0.758331	-1.005680	-0.551302
C86	C	1.258331	-0.505680	-0.051302
C87	C	0.703020	-1.064553	-0.619111
C88	C	1.203020	-0.564553	-0.119111
C89	C	0.689349	-1.161681	-0.635917
C90	C	1.189349	-0.661681	-0.135917
C91	C	0.730986	-1.199947	-0.584923
C92	C	1.230986	-0.699947	-0.084923
C93	C	0.772005	-0.908542	-0.534493
C94	C	1.272005	-0.408542	-0.034493
C95	C	0.675053	-0.929158	-0.653293
C96	C	1.175053	-0.429158	-0.153293
C97	C	0.661383	-1.026287	-0.670105
C98	C	1.161383	-0.526287	-0.170105
C99	C	0.942463	-0.525245	-0.525958
C100	C	1.442463	-0.025245	-0.025958
C101	C	1.012101	-0.525233	-0.526001
C102	C	1.512101	-0.025233	-0.026001
C103	C	0.744878	-0.567186	-0.768382
C104	C	1.244878	-0.067186	-0.268382
C105	C	0.730317	-0.585046	-0.871731
C106	C	1.230317	-0.085046	-0.371731
C107	C	0.813329	-0.282701	-0.483972
C108	C	1.313329	0.217299	0.016028
C109	C	0.827938	-0.179331	-0.466123
C110	C	1.327938	0.320669	0.033877
C111	C	0.883166	-0.397464	-1.122076
C112	C	1.383166	0.102536	-0.622076
C113	C	0.896850	-0.380685	-1.024974
C114	C	1.396850	0.119315	-0.524974
C115	C	0.855218	-0.431774	-0.986659
C116	C	1.355218	0.068226	-0.486659
C117	C	0.799899	-0.499645	-1.045454
C118	C	1.299899	0.000355	-0.545454
C119	C	0.786216	-0.516430	-1.142566
C120	C	1.286216	-0.016430	-0.642566
C121	C	0.758268	-0.550740	-1.007149
C122	C	1.258268	-0.050740	-0.507149
C123	C	0.702949	-0.618610	-1.065944
C124	C	1.202949	-0.118610	-0.565944
C125	C	0.689268	-0.635392	-1.163046
C126	C	1.189268	-0.135392	-0.663046
C127	C	0.730900	-0.584304	-1.201362
C128	C	1.230900	-0.084304	-0.701362
C129	C	0.771952	-0.533954	-0.910037
C130	C	1.271952	-0.033954	-0.410037
C131	C	0.675002	-0.652920	-0.930527
C132	C	1.175002	-0.152920	-0.430527
C133	C	0.661317	-0.669699	-1.027629
C134	C	1.161317	-0.169699	-0.527629
C135	C	0.813131	-0.483460	-0.284266
C136	C	1.313131	0.016540	0.215734
C137	C	0.827850	-0.465338	-0.180872
C138	C	1.327850	0.034662	0.319128
H139	H	0.510122	-0.652041	-0.652116
H140	H	1.010122	-0.152041	-0.152116
H141	H	0.196758	-0.565085	-0.680205
H142	H	0.696758	-0.065085	-0.180205
H143	H	0.361968	-0.485495	-0.371523
H144	H	0.861968	0.014505	0.128477
F145	F	0.379037	-0.669469	-0.669595
F146	F	0.879037	-0.169469	-0.169595
F147	F	0.716340	-0.602162	-1.304710
F148	F	1.216340	-0.102162	-0.804710
F149	F	0.955723	-0.308456	-0.962407
F150	F	1.455723	0.191544	-0.462407
H151	H	0.315473	-0.565116	-0.680150
H152	H	0.815473	-0.065116	-0.180150
F153	F	0.602519	-1.088955	-0.742271
F154	F	1.102519	-0.588955	-0.242271
H155	H	0.917060	-0.355881	-1.153283
H156	H	1.417060	0.144119	-0.653283
H157	H	0.817039	-0.860616	-0.479282
H158	H	1.317039	-0.360616	0.020718
F159	F	0.869940	-0.881725	-0.414807
F160	F	1.369940	-0.381725	0.085193
H161	H	0.941953	-0.975399	-0.326297
H162	H	1.441953	-0.475399	0.173703
F163	F	0.448262	-0.381163	-0.382015
F164	F	0.948262	0.118837	0.117985
F165	F	0.110462	-0.669420	-0.669727
F166	F	0.610462	-0.169420	-0.169727
H167	H	0.570968	-0.398637	-0.399370
H168	H	1.070968	0.101363	0.100630
F169	F	0.869784	-0.413913	-0.883314
F170	F	1.369784	0.086087	-0.383314
F171	F	-0.024612	-0.669380	-0.669799
F172	F	0.475388	-0.169380	-0.169799
H173	H	0.048599	-0.398541	-0.399621
H174	H	0.548599	0.101459	0.100379
H175	H	0.644228	-0.690665	-1.210917
H176	H	1.144228	-0.190665	-0.710917
H177	H	0.616275	-0.724960	-1.075513
H178	H	1.116275	-0.224960	-0.575513
F179	F	0.830825	-0.461723	-0.847473
F180	F	1.330825	0.038277	-0.347473
F181	F	0.179688	-0.381107	-0.382141
F182	F	0.679688	0.118893	0.117859
H183	H	0.641102	-0.694522	-0.899332
H184	H	1.141102	-0.194522	-0.399332
H185	H	0.243258	-0.485480	-0.371583
H186	H	0.743258	0.014520	0.128417
H187	H	0.917142	-1.151624	-0.356802
H188	H	1.417142	-0.651624	0.143198
H189	H	0.641148	-0.898003	-0.694815
H190	H	1.141148	-0.398003	-0.194815
H191	H	0.719860	-1.279037	-0.598610
H192	H	1.219860	-0.779037	-0.098610
F193	F	0.630480	-1.224335	-0.708082
F194	F	1.130480	-0.724335	-0.208082
