data_functionalizedCrystal
_audit_creation_method	'MofGen! by Chris Wilmer'
_symmetry_space_group_name_H-M	'P1'
_symmetry_Int_Tables_number	1
_symmetry_cell_setting	triclinic
loop_
_symmetry_equiv_pos_as_xyz
  x,y,z
_cell_length_a	19.188930
_cell_length_b	19.188924
_cell_length_c	17.666332
_cell_angle_alpha	90.008552
_cell_angle_beta	90.023234
_cell_angle_gamma	83.143372
loop_
_atom_site_label
_atom_site_type_symbol
_atom_site_fract_x
_atom_site_fract_y
_atom_site_fract_z
O1	O	-0.926147	-0.087169	-0.063195
O2	O	-0.722836	-0.098903	-0.063144
O3	O	-0.830361	0.008620	-0.063162
O4	O	-0.818622	-0.194692	-0.063177
O5	O	-0.830343	0.008625	0.062735
O6	O	-0.722817	-0.098898	0.062753
O7	O	-0.926129	-0.087163	0.062702
Cu8	Cu	-0.824471	-0.093030	0.074223
Cu9	Cu	-0.824493	-0.093037	-0.074665
O10	O	-0.818603	-0.194687	0.062720
C11	C	-0.696815	-0.098521	-0.000189
C12	C	-0.619311	-0.097380	-0.000169
C13	C	-0.952149	-0.087546	-0.000255
C14	C	-1.029654	-0.088687	-0.000280
C15	C	-0.829973	0.034634	-0.000213
C16	C	-0.828834	0.112138	-0.000210
C17	C	-0.574386	-0.160471	-0.000185
C18	C	-0.501562	-0.159399	-0.000193
C19	C	-0.473667	-0.095233	-0.000200
C20	C	-0.518602	-0.032134	-0.000180
C21	C	-0.591424	-0.033207	-0.000164
N22	N	-0.365694	-0.046188	-0.043075
N23	N	-0.296516	-0.045172	-0.043092
C24	C	-0.254258	-0.091995	-0.000246
N25	N	-0.283791	-0.139882	0.042607
N26	N	-0.352976	-0.140899	0.042620
C27	C	-0.394704	-0.094062	-0.000217
C28	C	-0.130368	-0.153928	-0.000271
C29	C	-0.057543	-0.152854	-0.000274
C30	C	-0.074585	-0.025586	-0.000268
C31	C	-0.147409	-0.026663	-0.000257
C32	C	-0.175295	-0.090835	-0.000262
C33	C	-0.818992	-0.220700	-0.000231
C34	C	-0.820131	-0.298205	-0.000238
C35	C	-0.828313	0.148534	-0.068837
C36	C	-0.827233	0.221357	-0.068842
C37	C	-0.826688	0.257783	-0.000217
C38	C	-0.827205	0.221378	0.068418
C39	C	-0.828278	0.148556	0.068421
N40	N	-0.864728	0.377448	0.050849
N41	N	-0.863710	0.446627	0.050841
C42	C	-0.823454	0.477192	-0.000224
N43	N	-0.784262	0.435967	-0.051292
N44	N	-0.785283	0.366783	-0.051286
C45	C	-0.825524	0.336746	-0.000214
C46	C	-0.821761	0.592550	-0.068861
C47	C	-0.820676	0.665374	-0.068864
C48	C	-0.820656	0.665394	0.068399
C49	C	-0.821734	0.592571	0.068399
C50	C	-0.822289	0.556154	-0.000233
N51	N	-0.824461	-0.093025	0.178942
N52	N	-0.824509	-0.093036	-0.179384
C53	C	-0.872088	-0.045437	0.218544
C54	C	-0.872092	-0.045433	0.297791
C55	C	-0.824475	-0.093030	0.337434
C56	C	-0.776839	-0.140622	0.297823
C57	C	-0.776831	-0.140619	0.218577
N58	N	-0.815398	-0.154838	0.461850
N59	N	-0.815409	-0.154838	0.537130
C60	C	-0.824494	-0.093040	0.576198
N61	N	-0.833581	-0.031239	0.537142
N62	N	-0.833573	-0.031240	0.461855
C63	C	-0.824478	-0.093038	0.423363
C64	C	-0.872128	-0.045444	0.701729
C65	C	-0.872128	-0.045440	0.780978
C66	C	-0.776878	-0.140634	0.781009
C67	C	-0.776875	-0.140633	0.701761
C68	C	-0.824504	-0.093038	0.662126
H69	H	-0.464976	-0.210777	-0.000205
H70	H	-0.822209	0.562898	-0.124745
H71	H	-0.828763	0.118888	-0.124722
O72	O	-0.828816	0.113309	0.135156
C73	C	-0.828081	0.161068	0.195728
H74	H	-0.849418	0.215935	0.175604
H75	H	-0.862271	0.144572	0.243721
H76	H	-0.771961	0.161316	0.216840
O77	O	-0.047381	0.036684	-0.000310
C78	C	0.026528	0.024105	-0.000306
H79	H	0.043784	-0.030436	-0.024144
H80	H	0.048743	0.065148	-0.036862
H81	H	0.046822	0.027431	0.060089
H82	H	-0.910869	-0.006681	0.186275
O83	O	-0.157498	-0.216243	-0.000397
C84	C	-0.199160	-0.220673	-0.065582
H85	H	-0.182071	-0.184248	-0.111162
H86	H	-0.192466	-0.276966	-0.087465
H87	H	-0.256632	-0.204386	-0.050831
O88	O	-0.918424	0.000825	0.336154
C89	C	-0.960444	0.042849	0.284178
H90	H	-0.961143	0.014228	0.227682
H91	H	-1.016234	0.053639	0.307051
H92	H	-0.937935	0.094661	0.275772
O93	O	-0.491475	0.030180	-0.000323
C94	C	-0.449886	0.034598	-0.065527
H95	H	-0.467024	-0.001836	-0.111097
H96	H	-0.456607	0.090888	-0.087410
H97	H	-0.392398	0.018317	-0.050801
O98	O	-0.826581	0.256822	0.135033
C99	C	-0.765497	0.290838	0.139158
H100	H	-0.745193	0.299042	0.079576
H101	H	-0.778334	0.343871	0.168200
H102	H	-0.723569	0.257110	0.173033
O103	O	-0.820210	0.700628	-0.135599
C104	C	-0.820918	0.652864	-0.196169
H105	H	-0.843773	0.603915	-0.176047
H106	H	-0.854516	0.678435	-0.244168
H107	H	-0.765038	0.637621	-0.217272
O108	O	-0.730712	-0.186898	0.663206
C109	C	-0.767966	-0.229891	0.617355
H110	H	-0.822683	-0.201943	0.605458
H111	H	-0.738787	-0.241012	0.561643
H112	H	-0.772555	-0.281480	0.647886
H113	H	-0.820208	0.695051	0.124274
H114	H	-0.020965	-0.204232	-0.000283
O115	O	-0.730556	-0.186762	0.336413
C116	C	-0.687597	-0.149476	0.382272
H117	H	-0.715578	-0.094772	0.394139
H118	H	-0.676468	-0.178648	0.437998
H119	H	-0.636009	-0.144856	0.351763
O120	O	-0.918319	0.000867	0.663231
C121	C	-0.907223	0.069972	0.682591
H122	H	-0.851337	0.070202	0.704420
H123	H	-0.915354	0.105005	0.630455
H124	H	-0.946006	0.090590	0.728550
O125	O	-0.601500	-0.222792	-0.000330
C126	C	-0.643157	-0.227211	-0.065521
H127	H	-0.626076	-0.190765	-0.111084
H128	H	-0.636447	-0.283497	-0.087425
H129	H	-0.700631	-0.210944	-0.050768
O130	O	-0.190954	0.034689	-0.000283
C131	C	-0.150721	0.091556	-0.000271
H132	H	-0.096326	0.073666	-0.024118
H133	H	-0.177740	0.135747	-0.036816
H134	H	-0.145563	0.111238	0.060127
O135	O	-0.634969	0.028147	-0.000186
C136	C	-0.594737	0.085014	-0.000171
H137	H	-0.540341	0.067126	-0.024015
H138	H	-0.621756	0.129205	-0.036717
H139	H	-0.589583	0.104697	0.060228
H140	H	-0.826804	0.250996	-0.124728
H141	H	-0.822164	0.562938	0.124282
O142	O	-0.730650	-0.186965	0.819425
C143	C	-0.741792	-0.256055	0.800057
H144	H	-0.768699	-0.255903	0.742505
H145	H	-0.689204	-0.290569	0.797368
H146	H	-0.776480	-0.277562	0.844636
O147	O	-0.730540	-0.186919	0.180222
C148	C	-0.688497	-0.228916	0.232200
H149	H	-0.717120	-0.229636	0.288676
H150	H	-0.677670	-0.284702	0.209298
H151	H	-0.636704	-0.206372	0.240657
O152	O	-0.918423	0.000694	0.819535
C153	C	-0.961387	-0.036598	0.865332
H154	H	-0.933404	-0.091301	0.877207
H155	H	-0.972528	-0.007429	0.921058
H156	H	-1.012969	-0.041219	0.834765
