data_functionalizedCrystal
_audit_creation_method	'MofGen! by Chris Wilmer'
_symmetry_space_group_name_H-M	'P1'
_symmetry_Int_Tables_number	1
_symmetry_cell_setting	triclinic
loop_
_symmetry_equiv_pos_as_xyz
  x,y,z
_cell_length_a	25.639242
_cell_length_b	25.639239
_cell_length_c	19.805399
_cell_angle_alpha	89.971274
_cell_angle_beta	89.972605
_cell_angle_gamma	90.034213
loop_
_atom_site_label
_atom_site_type_symbol
_atom_site_fract_x
_atom_site_fract_y
_atom_site_fract_z
Zn1	Zn	0.799252	-0.208225	-0.382855
Zn2	Zn	0.799168	-0.295659	-0.269665
Zn3	Zn	0.711820	-0.208233	-0.269665
Zn4	Zn	0.711773	-0.295625	-0.382796
O5	O	0.755503	-0.251936	-0.326245
O6	O	0.872406	-0.219835	-0.367865
O7	O	0.787565	-0.284080	-0.174948
O8	O	0.723473	-0.135067	-0.284704
O9	O	0.872344	-0.284072	-0.284705
O10	O	0.787709	-0.135061	-0.367865
O11	O	0.723391	-0.219848	-0.174948
O12	O	0.638649	-0.219814	-0.284647
O13	O	0.723393	-0.284013	-0.477521
O14	O	0.638615	-0.284021	-0.367764
O15	O	0.787664	-0.219801	-0.477564
O16	O	0.787520	-0.368820	-0.284647
O17	O	0.723311	-0.368794	-0.367764
C18	C	0.619661	-0.251915	-0.326199
C19	C	0.561547	-0.251919	-0.326196
C20	C	0.201175	-0.285424	-0.369483
C21	C	0.146570	-0.285427	-0.369494
O22	O	0.118326	-0.313888	-0.406260
N23	N	0.119264	-0.251950	-0.326289
C24	C	0.146565	-0.218464	-0.283076
O25	O	0.118326	-0.189989	-0.246329
C26	C	0.201169	-0.218458	-0.283069
C27	C	0.228472	-0.251941	-0.326272
C28	C	0.228478	-0.318903	-0.412683
C29	C	0.283078	-0.318901	-0.412671
C30	C	0.310376	-0.285418	-0.369460
C31	C	0.283072	-0.251939	-0.326260
C32	C	0.228469	-0.184970	-0.239860
C33	C	0.283076	-0.184967	-0.239857
C34	C	0.310379	-0.218450	-0.283060
C35	C	0.364970	-0.218454	-0.283037
N36	N	0.392276	-0.251931	-0.326242
C37	C	0.364979	-0.285413	-0.369453
C38	C	0.031895	-0.218477	-0.283094
C39	C	-0.022708	-0.218485	-0.283097
C40	C	-0.022699	-0.285447	-0.369516
C41	C	0.031904	-0.285442	-0.369510
C42	C	0.059201	-0.251954	-0.326299
C43	C	0.479644	-0.285405	-0.369425
C44	C	0.534249	-0.285401	-0.369407
C45	C	0.534236	-0.218437	-0.282991
C46	C	0.479635	-0.218443	-0.283006
C47	C	0.452341	-0.251929	-0.326228
O48	O	0.393249	-0.190005	-0.246292
O49	O	0.393226	-0.313878	-0.406201
C50	C	0.755415	-0.387778	-0.326214
C51	C	0.755426	-0.445892	-0.326224
C52	C	0.789024	-0.806256	-0.283040
C53	C	0.789044	-0.860860	-0.283049
O54	O	0.817519	-0.889097	-0.246299
N55	N	0.755595	-0.888175	-0.326290
C56	C	0.722128	-0.860882	-0.369530
O57	O	0.693679	-0.889129	-0.406311
C58	C	0.722111	-0.806279	-0.369524
C59	C	0.755558	-0.778967	-0.326275
C60	C	0.822469	-0.778944	-0.239795
C61	C	0.822448	-0.724344	-0.239786
C62	C	0.788982	-0.697055	-0.283020
C63	C	0.755537	-0.724366	-0.326265
C64	C	0.688646	-0.778987	-0.412766
C65	C	0.688632	-0.724380	-0.412757
C66	C	0.722079	-0.697068	-0.369508
C67	C	0.722050	-0.642477	-0.369490
N68	N	0.755498	-0.615163	-0.326249
C69	C	0.788964	-0.642451	-0.283014
C70	C	0.722167	-0.975552	-0.369540
C71	C	0.722181	-1.030155	-0.369544
C72	C	0.789098	-1.030129	-0.283063
C73	C	0.789081	-0.975526	-0.283057
C74	C	0.755616	-0.948238	-0.326299
C75	C	0.788917	-0.527786	-0.282997
C76	C	0.788892	-0.473181	-0.282989
C77	C	0.721977	-0.473211	-0.369471
C78	C	0.722000	-0.527812	-0.369477
C79	C	0.755475	-0.555098	-0.326237
O80	O	0.693591	-0.614205	-0.406224
O81	O	0.817413	-0.614198	-0.246246
C82	C	0.891876	-0.251957	-0.326292
C83	C	0.949990	-0.251966	-0.326312
C84	C	0.755533	-0.251903	-0.502788
C85	C	0.755545	-0.251889	-0.578020
C86	C	0.755606	-0.115562	-0.326291
C87	C	0.755650	-0.057448	-0.326311
C88	C	0.789011	-0.218452	-0.613388
C89	C	0.789017	-0.218437	-0.684077
C90	C	0.755558	-0.251861	-0.719396
C91	C	0.722088	-0.285300	-0.684023
C92	C	0.722081	-0.285312	-0.613336
C93	C	0.722118	-0.285251	-0.969096
C94	C	0.722129	-0.285237	-1.039789
C95	C	0.789054	-0.218376	-1.039837
C96	C	0.789046	-0.218388	-0.969150
C97	C	0.755575	-0.251824	-0.933783
C98	C	0.755569	-0.251839	-0.857135
C99	C	0.755567	-0.251849	-0.796043
C100	C	0.755504	-0.251931	-0.150389
C101	C	0.755593	-0.251797	-0.075158
H102	H	0.556471	-0.191178	-0.247807
C103	C	0.696665	-1.046928	-0.484122
C104	C	0.685412	-1.060173	-0.417080
H105	H	0.673968	-1.065461	-0.513471
H106	H	0.691864	-1.010506	-0.490294
H107	H	0.731794	-1.055842	-0.494070
H108	H	0.650285	-1.051255	-0.407130
H109	H	0.690209	-1.096602	-0.410904
H110	H	0.694844	-0.312513	-0.712786
C111	C	0.714828	-0.914118	-0.460578
C112	C	0.685373	-0.945560	-0.417070
H113	H	0.692113	-0.895608	-0.489923
H114	H	0.734738	-0.890035	-0.434828
H115	H	0.737602	-0.935392	-0.486499
H116	H	0.662601	-0.924286	-0.391145
H117	H	0.665454	-0.969646	-0.442823
C118	C	0.818903	-1.113826	-0.244770
C119	C	0.825933	-1.060133	-0.235598
H120	H	0.841656	-1.132348	-0.215487
H121	H	0.783799	-1.122830	-0.234760
H122	H	0.826494	-1.122714	-0.290282
H123	H	0.818338	-1.051244	-0.190087
H124	H	0.861044	-1.051125	-0.245603
H125	H	0.661407	-0.801215	-0.447981
H126	H	0.816317	-0.953292	-0.247841
H127	H	0.816259	-0.191235	-0.584636
H128	H	0.457427	-0.312671	-0.404622
H129	H	0.849723	-0.801157	-0.204588
H130	H	0.661381	-0.702165	-0.447972
H131	H	0.694766	-0.550050	-0.404696
H132	H	0.816128	-0.450946	-0.247768
C133	C	0.167064	-0.177628	-0.148803
C134	C	0.198480	-0.148174	-0.192342
H135	H	0.148558	-0.154912	-0.119455
H136	H	0.142976	-0.197551	-0.174531
H137	H	0.188354	-0.200391	-0.122886
H138	H	0.177190	-0.125413	-0.218262
H139	H	0.222570	-0.128242	-0.166611
H140	H	0.054131	-0.312706	-0.404690
H141	H	0.694824	-0.312534	-0.584540
C142	C	0.692247	-0.389514	-0.407854
C143	C	0.685195	-0.443208	-0.416997
H144	H	0.669543	-0.370992	-0.437201
H145	H	0.684609	-0.380599	-0.362371
H146	H	0.727373	-0.380537	-0.417802
H147	H	0.650070	-0.452186	-0.407044
H148	H	0.692830	-0.452127	-0.462490
C149	C	0.855178	-0.152355	-0.677024
C150	C	0.825808	-0.181685	-0.722953
H151	H	0.877894	-0.129668	-0.701026
H152	H	0.832412	-0.132355	-0.649453
H153	H	0.875153	-0.175151	-0.649454
H154	H	0.805829	-0.158889	-0.750521
H155	H	0.848576	-0.201686	-0.750536
C156	C	-0.039475	-0.311031	-0.484077
C157	C	-0.052709	-0.322250	-0.417022
H158	H	-0.058001	-0.333753	-0.513401
H159	H	-0.048400	-0.275916	-0.494058
H160	H	-0.003047	-0.315824	-0.490248
H161	H	-0.089137	-0.317453	-0.410849
H162	H	-0.043787	-0.357374	-0.407037
H163	H	0.816294	-0.191172	-0.940396
C164	C	0.093325	-0.148124	-0.273826
C165	C	0.061896	-0.181670	-0.235584
H166	H	0.111841	-0.125400	-0.244495
H167	H	0.117404	-0.168058	-0.299546
H168	H	0.072042	-0.128159	-0.303366
H169	H	0.083179	-0.201638	-0.206049
H170	H	0.037814	-0.161734	-0.209853
C171	C	0.651774	-0.292508	-0.889577
C172	C	0.685330	-0.322002	-0.930220
H173	H	0.629060	-0.315198	-0.865576
H174	H	0.671701	-0.272607	-0.858434
H175	H	0.631797	-0.269724	-0.917163
H176	H	0.705309	-0.344784	-0.902633
H177	H	0.665401	-0.341912	-0.961367
H178	H	0.816306	-0.191148	-1.068641
H179	H	0.694881	-0.312457	-1.068544
H180	H	0.305304	-0.346165	-0.447853
C181	C	0.551101	-0.310984	-0.483960
C182	C	0.564261	-0.322205	-0.416902
H183	H	0.569630	-0.333702	-0.513280
H184	H	0.514678	-0.315777	-0.490144
H185	H	0.560078	-0.275863	-0.493937
H186	H	0.555281	-0.357325	-0.406925
H187	H	0.600692	-0.317416	-0.410715
C188	C	0.233986	-0.385096	-0.498091
C189	C	0.198479	-0.355715	-0.460183
H190	H	0.215467	-0.407828	-0.527411
H191	H	0.255302	-0.362338	-0.524032
H192	H	0.255262	-0.405055	-0.468538
H193	H	0.177204	-0.335753	-0.489736
H194	H	0.177154	-0.378476	-0.434240
H195	H	0.305298	-0.157694	-0.204673
C196	C	-0.017218	-0.152296	-0.197677
C197	C	-0.052715	-0.181683	-0.235603
H198	H	-0.035743	-0.129571	-0.168361
H199	H	0.004052	-0.175050	-0.171732
H200	H	0.004106	-0.132329	-0.227220
H201	H	-0.074037	-0.201653	-0.206061
H202	H	-0.073994	-0.158925	-0.261550
H203	H	0.816176	-0.549996	-0.247788
C204	C	0.485114	-0.152253	-0.197583
C205	C	0.449621	-0.181641	-0.235515
H206	H	0.466586	-0.129529	-0.168270
H207	H	0.506382	-0.175007	-0.171634
H208	H	0.506441	-0.132286	-0.227122
H209	H	0.428296	-0.201611	-0.205975
H210	H	0.428344	-0.158884	-0.261466
H211	H	0.849685	-0.702110	-0.204571
