data_functionalizedCrystal
_audit_creation_method	'MofGen! by Chris Wilmer'
_symmetry_space_group_name_H-M	'P1'
_symmetry_Int_Tables_number	1
_symmetry_cell_setting	triclinic
loop_
_symmetry_equiv_pos_as_xyz
  x,y,z
_cell_length_a	17.038278
_cell_length_b	17.038272
_cell_length_c	9.616153
_cell_angle_alpha	89.997688
_cell_angle_beta	89.992906
_cell_angle_gamma	91.111028
loop_
_atom_site_label
_atom_site_type_symbol
_atom_site_fract_x
_atom_site_fract_y
_atom_site_fract_z
O1	O	1.048757	0.170524	-0.115659
O2	O	0.820945	0.167818	-0.115660
O3	O	0.933497	0.055265	-0.115648
O4	O	0.936205	0.283077	-0.115670
O5	O	0.933481	0.055267	0.115643
O6	O	0.820929	0.167820	0.115632
O7	O	1.048740	0.170526	0.115632
Zn8	Zn	0.934832	0.169173	0.152355
Zn9	Zn	0.934854	0.169171	-0.152382
O10	O	0.936189	0.283079	0.115621
C11	C	0.791645	0.165356	-0.000014
C12	C	0.704361	0.158009	-0.000014
C13	C	0.210935	0.112872	-0.000015
C14	C	0.292947	0.119781	-0.000007
C15	C	0.329347	0.194155	-0.000020
C16	C	0.283730	0.261623	-0.000027
C17	C	0.201720	0.254713	-0.000025
C18	C	0.576734	0.218567	-0.000019
C19	C	0.658751	0.225473	-0.000025
C20	C	0.667962	0.083630	-0.000002
C21	C	0.585949	0.076726	-0.000008
C22	C	0.540340	0.144194	-0.000008
C23	C	0.413176	0.201219	-0.000017
C24	C	0.456513	0.137129	-0.000001
C25	C	0.931026	0.025974	-0.000003
C26	C	0.923678	-0.061310	-0.000003
C27	C	0.991142	-0.106920	-0.000002
C28	C	0.984233	-0.188932	-0.000015
C29	C	0.909859	-0.225332	-0.000020
C30	C	0.842391	-0.179716	-0.000025
C31	C	0.849300	-0.097706	-0.000022
C32	C	0.885449	-0.472720	-0.000039
C33	C	0.878544	-0.554736	-0.000038
C34	C	1.020387	-0.563946	-0.000030
C35	C	1.027290	-0.481934	-0.000018
C36	C	0.959821	-0.436325	-0.000031
C37	C	0.902796	-0.309161	-0.000029
C38	C	0.966886	-0.352497	-0.000032
C39	C	1.078041	0.172988	-0.000017
C40	C	1.165325	0.180335	-0.000026
C41	C	0.938660	0.312370	-0.000028
C42	C	0.946008	0.399654	-0.000036
N43	N	0.934823	0.169174	0.360329
N44	N	0.934869	0.169164	-0.360356
C45	C	0.874408	0.229157	0.580693
C46	C	0.874563	0.229404	0.419525
C47	C	1.017958	0.192523	0.418777
C48	C	1.017635	0.192953	0.579994
C49	C	0.912909	0.085681	0.580248
C50	C	0.911056	0.086108	0.419022
H51	H	0.164585	0.309649	-0.000030
C52	C	0.894268	0.312943	0.367389
C53	C	0.972995	0.352848	0.406994
C54	C	0.992703	0.436391	0.354861
C55	C	0.933684	0.480029	0.263123
C56	C	0.854951	0.440124	0.223514
C57	C	0.835243	0.356581	0.275646
H58	H	1.016689	0.320544	0.474908
H59	H	1.050986	0.465931	0.384183
H60	H	0.948273	0.541873	0.224531
H61	H	0.811257	0.472428	0.155599
H62	H	0.776960	0.327041	0.246324
H63	H	0.426872	0.076575	-0.000006
H64	H	0.330080	0.064845	0.000008
C65	C	0.832383	0.057188	0.635230
C66	C	0.785536	0.109368	0.734782
C67	C	0.705007	0.080884	0.789765
C68	C	0.671327	0.000221	0.745195
C69	C	0.718175	-0.051964	0.645638
C70	C	0.798703	-0.023480	0.590655
H71	H	0.810467	0.169084	0.767779
H72	H	0.670328	0.119515	0.863464
H73	H	0.611715	-0.020864	0.785897
H74	H	0.693243	-0.111680	0.612640
H75	H	0.833383	-0.062112	0.516956
H76	H	0.313374	0.322180	-0.000030
C77	C	0.453223	0.283027	-0.000050
C78	C	0.438151	0.340600	0.120032
C79	C	0.478203	0.422407	0.120001
C80	C	0.533328	0.446640	-0.000113
C81	C	0.548403	0.389065	-0.120204
C82	C	0.508351	0.307259	-0.120172
H83	H	0.397342	0.322662	0.208956
H84	H	0.467043	0.465027	0.208901
H85	H	0.562977	0.507198	-0.000136
H86	H	0.589212	0.407003	-0.209127
H87	H	0.519511	0.264639	-0.209072
H88	H	0.705105	0.028701	-0.000000
H89	H	0.794364	-0.060571	-0.000024
H90	H	1.051704	-0.077289	0.000011
C91	C	0.545917	-0.005089	0.000002
C92	C	0.560986	-0.062648	0.120109
C93	C	0.520956	-0.144465	0.120108
C94	C	0.465858	-0.168723	-0.000002
C95	C	0.450787	-0.111163	-0.120118
C96	C	0.490817	-0.029346	-0.120116
H97	H	0.601775	-0.044691	0.209029
H98	H	0.532113	-0.187074	0.209026
H99	H	0.436226	-0.229289	-0.000003
H100	H	0.409998	-0.129120	-0.209038
H101	H	0.479660	0.013263	-0.209035
H102	H	0.688384	0.286039	-0.000016
H103	H	0.539609	0.273505	-0.000025
C104	C	1.042645	0.275428	0.630776
C105	C	1.123777	0.309932	0.590967
C106	C	1.148786	0.392409	0.641740
C107	C	1.092663	0.440381	0.732322
C108	C	1.011526	0.405878	0.772136
C109	C	0.986517	0.323401	0.721363
H110	H	1.165328	0.274419	0.523908
H111	H	1.208850	0.417950	0.612266
H112	H	1.111176	0.501436	0.769907
H113	H	0.969976	0.441391	0.839195
H114	H	0.926454	0.297859	0.750837
C115	C	1.058446	-0.239099	-0.000009
C116	C	1.117890	-0.231628	0.120104
C117	C	1.192109	-0.281794	0.120107
C118	C	1.206884	-0.339431	-0.000003
C119	C	1.147438	-0.346905	-0.120125
C120	C	1.073220	-0.296739	-0.120128
H121	H	1.106954	-0.188960	0.209025
H122	H	1.236114	-0.276261	0.209030
H123	H	1.261825	-0.376567	-0.000001
H124	H	1.158374	-0.389573	-0.209046
H125	H	1.029214	-0.302272	-0.209051
C126	C	0.811232	-0.422561	-0.000028
C127	C	0.751775	-0.430040	-0.120119
C128	C	0.677553	-0.379879	-0.120101
C129	C	0.662788	-0.322239	0.000009
C130	C	0.722246	-0.314758	0.120109
C131	C	0.796468	-0.364919	0.120091
H132	H	0.762704	-0.472710	-0.209040
H133	H	0.633539	-0.385417	-0.209008
H134	H	0.607845	-0.285107	0.000022
H135	H	0.711318	-0.272087	0.209030
H136	H	0.840483	-0.359381	0.208998
C137	C	0.791316	0.209536	0.366140
C138	C	0.776992	0.136821	0.273801
C139	C	0.693740	0.116956	0.220427
C140	C	0.624813	0.169806	0.259392
C141	C	0.639135	0.242525	0.351736
C142	C	0.722387	0.262390	0.405110
H143	H	0.828018	0.097694	0.244952
H144	H	0.683139	0.063124	0.152067
H145	H	0.563185	0.155100	0.219882
H146	H	0.588110	0.281652	0.380585
H147	H	0.732989	0.316222	0.473470
H148	H	1.027440	-0.322857	-0.000059
C149	C	0.790927	0.209463	0.633137
C150	C	0.745950	0.269992	0.719515
C151	C	0.662471	0.250276	0.771973
C152	C	0.623971	0.170030	0.738052
C153	C	0.668948	0.109496	0.651670
C154	C	0.752427	0.129212	0.599212
H155	H	0.774450	0.329400	0.744629
H156	H	0.629176	0.295088	0.835919
H157	H	0.562175	0.155435	0.776885
H158	H	0.640448	0.050088	0.626556
H159	H	0.785722	0.084400	0.535266
C160	C	0.972376	0.025277	0.631757
C161	C	1.040529	0.051521	0.727231
C162	C	1.099998	-0.008876	0.778750
C163	C	1.091315	-0.095518	0.734795
C164	C	1.023160	-0.121767	0.639316
C165	C	0.963691	-0.061370	0.587796
H166	H	1.046959	0.115663	0.759774
H167	H	1.150450	0.010556	0.849431
H168	H	1.135337	-0.140227	0.772933
H169	H	1.016729	-0.185908	0.606773
H170	H	0.913238	-0.080801	0.517116
H171	H	0.781834	-0.209360	-0.000038
H172	H	0.849873	0.068516	0.380823
H173	H	0.181305	0.052309	-0.000012
H174	H	1.075316	-0.601089	-0.000022
C175	C	1.080658	0.136725	0.633108
C176	C	1.076097	0.049024	0.594624
C177	C	1.139142	-0.007118	0.647934
C178	C	1.206747	0.024440	0.739727
C179	C	1.211311	0.112146	0.778215
C180	C	1.148267	0.168288	0.724906
H181	H	1.026049	0.025658	0.526669
H182	H	1.135763	-0.072044	0.619442
H183	H	1.253417	-0.017120	0.779190
H184	H	1.261359	0.135511	0.846171
H185	H	1.151645	0.233214	0.753398
H186	H	1.087852	-0.452303	-0.000014
H187	H	0.817978	-0.584370	-0.000019
H188	H	0.888830	0.290641	0.621186
C189	C	1.080495	0.135380	0.366969
C190	C	1.056744	0.066686	0.270760
C191	C	1.119281	0.009543	0.218949
C192	C	1.205567	0.021094	0.263348
C193	C	1.229323	0.089791	0.359562
C194	C	1.166786	0.146934	0.411373
H195	H	0.992866	0.058133	0.237888
H196	H	1.101695	-0.041310	0.147724
H197	H	1.251860	-0.021207	0.224994
H198	H	1.293201	0.098344	0.392434
H199	H	1.184372	0.197787	0.482598
H200	H	0.842240	-0.338808	-0.000030
H201	H	1.036773	0.252912	0.378380
H202	H	0.951808	0.038951	0.378731
