data_functionalizedCrystal
_audit_creation_method	'MofGen! by Chris Wilmer'
_symmetry_space_group_name_H-M	'P1'
_symmetry_Int_Tables_number	1
_symmetry_cell_setting	triclinic
loop_
_symmetry_equiv_pos_as_xyz
  x,y,z
_cell_length_a	14.853568
_cell_length_b	13.930277
_cell_length_c	14.853567
_cell_angle_alpha	89.999243
_cell_angle_beta	83.635059
_cell_angle_gamma	89.995589
loop_
_atom_site_label
_atom_site_type_symbol
_atom_site_fract_x
_atom_site_fract_y
_atom_site_fract_z
O1	O	-1.196368	0.079760	-0.117706
O2	O	-0.696368	0.579760	0.382294
O3	O	-0.933909	0.079775	-0.131727
O4	O	-0.433909	0.579775	0.368273
O5	O	-1.072149	0.079770	0.006513
O6	O	-0.572149	0.579770	0.506513
O7	O	-1.058128	0.079765	-0.255946
O8	O	-0.558128	0.579765	0.244054
O9	O	-1.072130	-0.079892	0.006516
O10	O	-0.572130	0.420108	0.506516
O11	O	-0.933889	-0.079887	-0.131724
O12	O	-0.433889	0.420113	0.368276
O13	O	-1.196349	-0.079902	-0.117703
O14	O	-0.696349	0.420098	0.382297
Zn15	Zn	-1.065116	-0.105244	-0.124713
Zn16	Zn	-0.565116	0.394756	0.375287
Zn17	Zn	-1.065141	0.105117	-0.124717
Zn18	Zn	-0.565141	0.605117	0.375283
O19	O	-1.058108	-0.079897	-0.255943
O20	O	-0.558108	0.420103	0.244057
C21	C	-0.900310	-0.000054	-0.131090
C22	C	-0.400310	0.499946	0.368910
C23	C	-0.800227	-0.000048	-0.129186
C24	C	-0.300227	0.499952	0.370814
N25	N	-1.065105	-0.248810	-0.124710
N26	N	-0.565105	0.251190	0.375290
C27	C	-0.387693	-0.000069	-0.039019
C28	C	0.112307	0.499931	0.460981
C29	C	-0.366412	-0.000072	-0.203252
C30	C	0.133588	0.499928	0.296748
C31	C	-0.460446	-0.000068	-0.205043
C32	C	0.039554	0.499932	0.294957
C33	C	-0.518107	-0.000064	-0.123820
C34	C	-0.018107	0.499936	0.376180
C35	C	-0.481736	-0.000063	-0.040807
C36	C	0.018264	0.499937	0.459193
C37	C	-0.496825	-0.000059	-0.288054
C38	C	0.003175	0.499941	0.211946
C39	C	-0.590864	-0.000055	-0.289848
C40	C	-0.090864	0.499945	0.210152
C41	C	-0.648527	-0.000058	-0.208624
C42	C	-0.148527	0.499942	0.291376
C43	C	-0.612150	-0.000058	-0.125608
C44	C	-0.112150	0.499942	0.374392
C45	C	-0.669812	-0.000054	-0.044385
C46	C	-0.169812	0.499946	0.455615
C47	C	-0.633437	-0.000061	0.038632
C48	C	-0.133437	0.499939	0.538632
C49	C	-0.539399	-0.000066	0.040416
C50	C	-0.039399	0.499934	0.540416
C51	C	-0.742565	-0.000052	-0.210409
C52	C	-0.242565	0.499948	0.289591
C53	C	-0.763855	-0.000047	-0.046173
C54	C	-0.263855	0.499953	0.453827
C55	C	-1.003926	-0.701077	-0.185906
C56	C	-0.503926	-0.201077	0.314094
C57	C	-1.126381	-0.701051	-0.063521
C58	C	-0.626381	-0.201051	0.436479
C59	C	-1.126371	-0.600555	-0.063519
C60	C	-0.626371	-0.100555	0.436481
C61	C	-1.065138	-0.550316	-0.124711
C62	C	-0.565138	-0.050316	0.375289
C63	C	-1.003915	-0.600572	-0.185907
C64	C	-0.503915	-0.100572	0.314093
C65	C	-1.187598	-0.550291	-0.002330
C66	C	-0.687598	-0.050291	0.497670
C67	C	-1.187590	-0.449790	-0.002326
C68	C	-0.687590	0.050210	0.497674
C69	C	-1.126352	-0.399548	-0.063515
C70	C	-0.626352	0.100452	0.436485
C71	C	-1.065127	-0.449811	-0.124712
C72	C	-0.565127	0.050189	0.375288
C73	C	-1.003894	-0.399572	-0.185905
C74	C	-0.503894	0.100428	0.314095
C75	C	-0.942663	-0.449832	-0.247098
C76	C	-0.442663	0.050168	0.252902
C77	C	-0.942677	-0.550331	-0.247096
C78	C	-0.442677	-0.050331	0.252904
C79	C	-1.126338	-0.299050	-0.063517
C80	C	-0.626338	0.200950	0.436483
C81	C	-1.003883	-0.299067	-0.185905
C82	C	-0.503883	0.200933	0.314095
C83	C	-0.229947	-0.000072	-0.118340
C84	C	0.270053	0.499928	0.381660
C85	C	-0.330031	-0.000073	-0.120242
C86	C	0.169969	0.499927	0.379758
C87	C	-1.071504	-0.000058	0.040103
C88	C	-0.571504	0.499942	0.540103
C89	C	-1.069600	-0.000050	0.140187
C90	C	-0.569600	0.499950	0.640187
N91	N	-1.065159	0.248683	-0.124713
N92	N	-0.565159	0.748683	0.375287
C93	C	-1.058753	-0.000067	-0.289534
C94	C	-0.558753	0.499933	0.210466
C95	C	-1.060657	-0.000069	-0.389617
C96	C	-0.560657	0.499931	0.110383
C97	C	-0.979435	-0.000063	0.552721
C98	C	-0.479435	0.499937	1.052721
C99	C	-1.143667	-0.000072	0.574002
C100	C	-0.643667	0.499928	1.074002
C101	C	-1.145457	-0.000067	0.479968
C102	C	-0.645457	0.499933	0.979968
C103	C	-1.064235	-0.000061	0.422306
C104	C	-0.564235	0.499939	0.922306
C105	C	-0.981222	-0.000060	0.458678
C106	C	-0.481222	0.499940	0.958678
C107	C	-1.228469	-0.000077	0.443589
C108	C	-0.728469	0.499923	0.943589
C109	C	-1.230262	-0.000072	0.349550
C110	C	-0.730262	0.499928	0.849550
C111	C	-1.149039	-0.000059	0.291886
C112	C	-0.649039	0.499941	0.791886
C113	C	-1.066023	-0.000058	0.328263
C114	C	-0.566023	0.499942	0.828263
C115	C	-0.984800	-0.000052	0.270602
C116	C	-0.484800	0.499948	0.770602
C117	C	-0.901783	-0.000044	0.306977
C118	C	-0.401783	0.499956	0.806977
C119	C	-0.899999	-0.000048	0.401015
C120	C	-0.399999	0.499952	0.901015
C121	C	-1.150823	-0.000056	0.197849
C122	C	-0.650823	0.499944	0.697849
C123	C	-0.986588	-0.000049	0.176559
C124	C	-0.486588	0.499951	0.676559
H125	H	-0.810798	-0.000048	0.019969
H126	H	-0.310798	0.499952	0.519969
H127	H	-0.920445	-0.000040	0.129616
H128	H	-0.420445	0.499960	0.629616
H129	H	-0.680397	-0.000051	0.104763
H130	H	-0.180397	0.499949	0.604763
H131	H	-1.237446	-0.408873	0.047502
H132	H	-0.737446	0.091127	0.547502
Cl133	Cl	-0.799679	-0.000045	0.234478
Cl134	Cl	-0.299679	0.499955	0.734478
H135	H	-1.294595	-0.000090	0.490543
H136	H	-0.794595	0.499910	0.990543
Cl137	Cl	-0.424333	-0.000049	-0.390155
Cl138	Cl	0.075667	0.499951	0.109845
Cl139	Cl	-0.865693	-0.386664	-0.324029
Cl140	Cl	-0.365693	0.113336	0.175971
H141	H	-1.237457	-0.591200	0.047487
H142	H	-0.737457	-0.091200	0.547487
Cl143	Cl	-1.203313	-0.235871	0.013401
Cl144	Cl	-0.703313	0.264129	0.513401
H145	H	-0.832411	-0.000042	0.430641
H146	H	-0.332411	0.499958	0.930641
Cl147	Cl	-0.636584	-0.000049	-0.394209
Cl148	Cl	-0.136584	0.499951	0.105791
H149	H	-0.772178	-0.000048	-0.278000
H150	H	-0.272178	0.499952	0.222000
Cl151	Cl	-0.926895	-0.235917	-0.262833
Cl152	Cl	-0.426895	0.264083	0.237167
H153	H	-0.892826	-0.591260	-0.296918
H154	H	-0.392826	-0.091260	0.203082
Cl155	Cl	-0.875076	-0.000043	0.598448
Cl156	Cl	-0.375076	0.499957	1.098448
H157	H	-0.954071	-0.742002	-0.235727
H158	H	-0.454071	-0.242002	0.264273
Cl159	Cl	-1.245770	-0.000095	0.646491
Cl160	Cl	-0.745770	0.499905	1.146491
H161	H	-1.176240	-0.741959	-0.013704
H162	H	-0.676240	-0.241959	0.486296
H163	H	-1.218414	-0.000069	0.168236
H164	H	-0.718414	0.499931	0.668236
Cl165	Cl	-0.493664	-0.000069	0.144770
Cl166	Cl	0.006336	0.499931	0.644770
Cl167	Cl	-0.341967	-0.000083	0.065339
Cl168	Cl	0.158033	0.499917	0.565339
H169	H	-0.319459	-0.000067	-0.269380
H170	H	0.180541	0.499933	0.230620
H171	H	-1.297859	-0.000078	0.319941
H172	H	-0.797859	0.499922	0.819941
