data_functionalizedCrystal
_audit_creation_method	'MofGen! by Chris Wilmer'
_symmetry_space_group_name_H-M	'P1'
_symmetry_Int_Tables_number	1
_symmetry_cell_setting	triclinic
loop_
_symmetry_equiv_pos_as_xyz
  x,y,z
_cell_length_a	10.686220
_cell_length_b	13.032721
_cell_length_c	10.686551
_cell_angle_alpha	93.335252
_cell_angle_beta	90.308082
_cell_angle_gamma	100.973619
loop_
_atom_site_label
_atom_site_type_symbol
_atom_site_fract_x
_atom_site_fract_y
_atom_site_fract_z
Zn1	Zn	1.936448	-0.254400	-0.604121
Zn2	Zn	2.436448	0.245600	-0.104121
Zn3	Zn	1.893610	-0.443269	-0.425347
Zn4	Zn	2.393610	0.056731	0.074653
Zn5	Zn	1.706806	-0.281093	-0.414818
Zn6	Zn	2.206806	0.218907	0.085182
Zn7	Zn	1.700338	-0.441154	-0.650778
Zn8	Zn	2.200338	0.058846	-0.150778
O9	O	1.809301	-0.354979	-0.523766
O10	O	2.309301	0.145021	-0.023766
O11	O	2.107756	-0.269167	-0.565287
O12	O	2.607756	0.230833	-0.065287
O13	O	1.853609	-0.433812	-0.250383
O14	O	2.353609	0.066188	0.249617
O15	O	1.757902	-0.131524	-0.415997
O16	O	2.257902	0.368476	0.084003
O17	O	2.076284	-0.407929	-0.433943
O18	O	2.576284	0.092071	0.066057
O19	O	1.926619	-0.111912	-0.555077
O20	O	2.426619	0.388088	-0.055077
O21	O	1.716365	-0.314662	-0.242647
O22	O	2.216365	0.185338	0.257353
O23	O	1.528957	-0.312612	-0.461238
O24	O	2.028957	0.187388	0.038762
O25	O	1.746880	-0.404324	-0.818156
O26	O	2.246880	0.095676	-0.318156
O27	O	1.524205	-0.430208	-0.634597
O28	O	2.024205	0.069792	-0.134597
O29	O	1.920348	-0.267117	-0.783878
O30	O	2.420348	0.232883	-0.283878
O31	O	1.847338	-0.589017	-0.479184
O32	O	2.347338	-0.089017	0.020816
O33	O	1.705342	-0.587463	-0.644807
O34	O	2.205342	-0.087463	-0.144807
C35	C	1.480689	-0.374078	-0.551838
C36	C	1.980689	0.125922	-0.051838
C37	C	1.340107	-0.382271	-0.563881
C38	C	1.840107	0.117729	-0.063881
C39	C	1.771027	-0.626100	-0.568225
C40	C	2.271027	-0.126100	-0.068225
C41	C	1.754773	-0.742077	-0.587276
C42	C	2.254773	-0.242077	-0.087276
C43	C	1.817856	-0.794509	-0.513873
C44	C	2.317856	-0.294509	-0.013873
C45	C	1.801058	-0.914377	-0.533562
C46	C	2.301058	-0.414377	-0.033562
C47	C	2.139195	-0.335806	-0.495585
C48	C	2.639195	0.164194	0.004415
C49	C	2.279776	-0.327636	-0.483576
C50	C	2.779776	0.172364	0.016424
C51	C	1.837671	-0.332507	-0.847280
C52	C	2.337671	0.167493	-0.347280
C53	C	1.849761	-0.322931	-0.985142
C54	C	2.349761	0.177069	-0.485142
C55	C	1.847760	-0.082796	-0.479158
C56	C	2.347760	0.417204	0.020842
C57	C	1.864150	0.033193	-0.460149
C58	C	2.364150	0.533193	0.039851
C59	C	1.781124	-0.377284	-0.201492
C60	C	2.281124	0.122716	0.298508
C61	C	1.769320	-0.386552	-0.063562
C62	C	2.269320	0.113448	0.436438
H63	H	1.884306	-0.750658	-0.436458
H64	H	2.384306	-0.250658	0.063542
O65	O	1.665806	-0.468396	-1.012804
O66	O	2.165806	0.031604	-0.512804
H67	H	1.678055	-0.547341	-1.049163
H68	H	2.178055	-0.047341	-0.549163
O69	O	1.266072	-0.452543	-0.667170
O70	O	1.766072	0.047457	-0.167170
H71	H	1.163568	-0.448167	-0.660746
H72	H	1.663568	0.051833	-0.160746
O73	O	1.953245	-0.241078	-1.035910
O74	O	2.453245	0.258922	-0.535910
H75	H	2.010271	-0.195988	-0.956786
H76	H	2.510271	0.304012	-0.456786
O77	O	1.353807	-0.257361	-0.380299
O78	O	1.853807	0.242639	0.119701
H79	H	1.456314	-0.261727	-0.386737
H80	H	1.956314	0.238273	0.113263
H81	H	1.734615	-0.958225	-0.610990
H82	H	2.234615	-0.458225	-0.110990
H83	H	1.930604	-0.922959	-0.382728
H84	H	2.430604	-0.422959	0.117272
O85	O	1.666758	-0.800149	-0.689834
O86	O	2.166758	-0.300149	-0.189834
H87	H	1.568531	-0.786618	-0.673574
H88	H	2.068531	-0.286618	-0.173574
