data_functionalizedCrystal
_audit_creation_method	'MofGen! by Chris Wilmer'
_symmetry_space_group_name_H-M	'P1'
_symmetry_Int_Tables_number	1
_symmetry_cell_setting	triclinic
loop_
_symmetry_equiv_pos_as_xyz
  x,y,z
_cell_length_a	14.044209
_cell_length_b	13.101039
_cell_length_c	14.044220
_cell_angle_alpha	93.667477
_cell_angle_beta	93.188415
_cell_angle_gamma	86.340786
loop_
_atom_site_label
_atom_site_type_symbol
_atom_site_fract_x
_atom_site_fract_y
_atom_site_fract_z
O1	O	-1.281968	0.085094	-0.225339
O2	O	-1.005298	0.085123	-0.217034
O3	O	-1.139480	0.085099	-0.082851
O4	O	-1.147787	0.085118	-0.359521
O5	O	-1.129854	-0.085329	-0.092496
O6	O	-0.995672	-0.085305	-0.226679
O7	O	-1.272342	-0.085334	-0.234984
Zn8	Zn	-1.132479	-0.112379	-0.232362
Zn9	Zn	-1.145161	0.112168	-0.219655
O10	O	-1.138161	-0.085310	-0.369166
C11	C	-0.964864	-0.000087	-0.218221
C12	C	-0.858721	-0.000077	-0.207376
C13	C	-0.664383	-0.000096	-0.187553
C14	C	-0.613253	-0.000094	-0.264467
C15	C	-0.505116	-0.000105	-0.253437
C16	C	-0.772529	-0.000085	-0.198581
N17	N	-1.123830	-0.265626	-0.241035
C18	C	-1.112064	-0.474666	-0.252843
C19	C	-1.165580	-0.525551	-0.199170
C20	C	-1.159033	-0.641869	-0.205740
C21	C	-1.118610	-0.358338	-0.246274
C22	C	-0.312777	-0.000118	-0.233798
C23	C	-0.418920	-0.000114	-0.244648
C24	C	-1.131031	-0.000115	-0.052052
C25	C	-1.120187	-0.000115	0.054091
N26	N	-1.153817	0.265415	-0.210975
C27	C	-1.146609	-0.000093	-0.399965
C28	C	-1.157454	-0.000087	-0.506108
C29	C	-1.100361	-0.000099	0.248429
C30	C	-1.177275	-0.000103	0.299560
C31	C	-1.166244	-0.000094	0.407696
C32	C	-1.111391	-0.000108	0.140283
H33	H	-0.626945	-0.000106	-0.113426
N34	N	-1.007358	-0.000089	0.295369
N35	N	-0.954924	0.071747	0.285685
H36	H	-0.889239	0.071749	0.318843
H37	H	-0.650693	-0.000085	-0.338600
H38	H	-1.216314	-0.481758	-0.148286
H39	H	-1.251412	-0.000042	0.262125
H40	H	-1.061335	-0.518454	-0.303725
