data_functionalizedCrystal
_audit_creation_method	'MofGen! by Chris Wilmer'
_symmetry_space_group_name_H-M	'P1'
_symmetry_Int_Tables_number	1
_symmetry_cell_setting	triclinic
loop_
_symmetry_equiv_pos_as_xyz
  x,y,z
_cell_length_a	14.519709
_cell_length_b	15.944493
_cell_length_c	13.596369
_cell_angle_alpha	89.999885
_cell_angle_beta	90.000291
_cell_angle_gamma	83.577594
loop_
_atom_site_label
_atom_site_type_symbol
_atom_site_fract_x
_atom_site_fract_y
_atom_site_fract_z
O1	O	1.223651	0.110112	-0.081650
O2	O	0.955148	0.123079	-0.081679
O3	O	1.096759	-0.005672	-0.081672
O4	O	1.082039	0.238863	-0.081657
O5	O	1.096745	-0.005679	0.081911
O6	O	0.955134	0.123072	0.081904
O7	O	1.223637	0.110105	0.081933
Zn8	Zn	1.089383	0.116587	0.107891
Zn9	Zn	1.089402	0.116596	-0.107637
O10	O	1.082025	0.238856	0.081926
C11	C	0.920783	0.122471	0.000109
C12	C	0.818405	0.120660	0.000097
C13	C	0.443522	0.113994	0.000142
C14	C	0.547826	0.115845	0.000129
C15	C	0.630960	0.117327	0.000119
C16	C	0.735271	0.119178	0.000108
C17	C	1.096151	-0.036971	0.000115
C18	C	1.094347	-0.130222	0.000103
C19	C	1.177703	-0.365861	0.000130
C20	C	1.132759	-0.416491	-0.080529
C21	C	1.091005	-0.300948	0.000114
C22	C	1.132725	-0.416474	0.080751
C23	C	1.087783	-0.465863	0.000130
C24	C	1.046085	-0.350350	-0.080611
C25	C	1.046063	-0.350329	0.080741
C26	C	1.001056	-0.400926	0.000062
C27	C	1.092863	-0.205946	0.000105
C28	C	1.085918	-0.560862	0.000133
C29	C	1.258002	0.110713	0.000143
C30	C	1.360380	0.112524	0.000148
C31	C	1.082634	0.270155	0.000137
C32	C	1.084438	0.363406	0.000143
N33	N	1.089377	0.116581	0.254983
N34	N	1.089415	0.116596	-0.254729
C35	C	1.089400	0.116597	0.656274
C36	C	1.089391	0.116596	0.544622
C37	C	1.089389	0.116590	0.455632
C38	C	1.089379	0.116587	0.343973
H39	H	1.169379	-0.445381	-0.148713
O40	O	0.997631	-0.312255	-0.171046
H41	H	0.999406	-0.242844	-0.170362
H42	H	1.252382	-0.350125	0.000057
O43	O	0.902053	-0.421541	0.000020
H44	H	0.866292	-0.394802	-0.066991
O45	O	1.181230	-0.454709	0.171087
H46	H	1.131683	-0.487162	0.215425
H47	H	1.009475	-0.321425	0.148928
