data_functionalizedCrystal
_audit_creation_method	'MofGen! by Chris Wilmer'
_symmetry_space_group_name_H-M	'P1'
_symmetry_Int_Tables_number	1
_symmetry_cell_setting	triclinic
loop_
_symmetry_equiv_pos_as_xyz
  x,y,z
_cell_length_a	21.606444
_cell_length_b	21.606444
_cell_length_c	21.606444
_cell_angle_alpha	59.998659
_cell_angle_beta	90.000833
_cell_angle_gamma	60.002891
loop_
_atom_site_label
_atom_site_type_symbol
_atom_site_fract_x
_atom_site_fract_y
_atom_site_fract_z
Zr1	Zr	0.596243	0.677473	-0.081248
O2	O	0.497420	0.806591	-0.180072
O3	O	0.626534	0.548355	-0.050953
O4	O	0.626532	0.677479	-0.180076
O5	O	0.497427	0.677463	0.050905
O6	O	0.728382	0.677483	-0.180080
O7	O	0.497421	0.677468	-0.050949
O8	O	0.728385	0.446505	0.050898
O9	O	0.497424	0.908441	-0.180072
O10	O	0.715466	0.601467	-0.038035
O11	O	0.639460	0.601460	0.037980
O12	O	0.639458	0.753486	-0.114046
O13	O	0.563453	0.753480	-0.038031
Zr14	Zr	0.758689	0.677473	0.081192
Zr15	Zr	0.758681	0.677480	-0.081254
Zr16	Zr	0.596251	0.677466	0.081198
Zr17	Zr	0.596249	0.839913	-0.081249
Zr18	Zr	0.758683	0.515034	0.081193
O19	O	0.728398	0.806591	0.050896
O20	O	0.728387	0.806601	-0.180080
O21	O	0.497432	0.806581	0.050905
O22	O	0.857512	0.548355	0.180016
O23	O	0.857500	0.548365	-0.050961
O24	O	0.626545	0.548346	0.180024
O25	O	0.857505	0.677483	-0.050962
O26	O	0.728400	0.677468	0.180020
O27	O	0.626550	0.677463	0.180023
O28	O	0.857510	0.677479	0.050892
O29	O	0.626541	0.908447	-0.180077
O30	O	0.728391	0.446500	0.180021
O31	O	0.857508	0.446505	0.180016
O32	O	0.857502	0.446511	0.050894
O33	O	0.497430	0.908436	-0.050950
O34	O	0.626547	0.908441	-0.050955
O35	O	0.715474	0.601460	0.113990
O36	O	0.791479	0.601467	0.037974
O37	O	0.715472	0.753486	-0.038036
O38	O	0.639466	0.753480	0.037979
C39	C	0.677458	0.474286	-0.000027
C40	C	0.677456	0.405326	-0.000027
C41	C	0.717151	-0.017979	-0.039707
C42	C	0.717146	0.046822	-0.039710
C43	C	0.677469	0.079215	-0.000031
C44	C	0.637789	0.046811	0.039648
C45	C	0.637791	-0.017984	0.039646
C46	C	0.637781	0.308122	0.039655
C47	C	0.637785	0.372920	0.039656
C48	C	0.717136	0.372927	-0.039701
C49	C	0.717138	0.308132	-0.039703
C50	C	0.677455	0.275737	-0.000028
C51	C	0.677460	0.205475	-0.000026
C52	C	0.677468	0.149472	-0.000028
C53	C	0.474280	0.677464	-0.000021
C54	C	0.405321	0.677461	-0.000018
C55	C	0.412596	0.598109	0.039656
C56	C	0.347799	0.598112	0.039656
C57	C	0.275727	0.677467	-0.000022
C58	C	0.268452	0.756825	-0.039697
C59	C	0.333249	0.756822	-0.039693
C60	C	0.007134	0.756841	-0.039714
C61	C	-0.057664	0.756838	-0.039717
C62	C	0.021684	0.598130	0.039635
C63	C	0.086481	0.598127	0.039640
C64	C	0.079201	0.677485	-0.000032
C65	C	0.149462	0.677481	-0.000031
C66	C	0.205466	0.677472	-0.000028
C67	C	0.880652	0.677482	-0.000036
C68	C	0.949611	0.677485	-0.000038
C69	C	0.677456	0.677482	-0.203223
C70	C	0.677452	0.677485	-0.272185
C71	C	0.677474	0.880660	-0.000029
C72	C	0.677476	0.949620	-0.000030
C73	C	0.637777	0.756837	-0.344261
C74	C	0.637783	0.756834	-0.409055
C75	C	0.677461	0.677479	-0.401773
C76	C	0.717142	0.598121	-0.329690
C77	C	0.717139	0.598124	-0.264897
C78	C	0.717154	0.598106	-0.590993
C79	C	0.717151	0.598109	-0.655794
C80	C	0.637798	0.756816	-0.735152
C81	C	0.637795	0.756819	-0.670358
C82	C	0.677479	0.677462	-0.598281
C83	C	0.677472	0.677465	-0.528024
C84	C	0.677464	0.677475	-0.472029
C85	C	0.677476	0.677464	0.203166
C86	C	0.677480	0.677461	0.272129
C87	C	0.880644	0.474295	-0.000034
C88	C	0.949601	0.405338	-0.000037
C89	C	0.677469	0.474277	0.203168
C90	C	0.677469	0.405315	0.272130
C91	C	0.880654	0.474286	0.203160
C92	C	0.949615	0.405326	0.272120
C93	C	0.474277	0.880660	-0.203216
C94	C	0.405317	0.949620	-0.272177
C95	C	0.474288	0.880651	-0.000022
C96	C	0.405331	0.949608	-0.000020
C97	C	0.677463	0.880669	-0.203224
C98	C	0.677462	0.949632	-0.272187
C99	C	0.942306	0.372955	-0.039721
C100	C	1.007092	0.308172	-0.039738
C101	C	1.079172	0.275768	-0.000066
C102	C	1.086466	0.308158	0.039619
C103	C	1.021681	0.372944	0.039632
C104	C	0.717148	0.372929	0.344199
C105	C	0.717146	0.308140	0.409003
C106	C	0.677469	0.275734	0.401737
C107	C	0.637786	0.308126	0.329660
C108	C	0.637784	0.372918	0.264858
C109	C	1.021680	0.372946	0.264826
C110	C	1.086482	0.308160	0.329615
C111	C	1.079217	0.275751	0.401698
C112	C	1.007144	0.308138	0.408992
C113	C	0.942344	0.372928	0.344203
C114	C	0.333252	0.982009	-0.264882
C115	C	0.268450	1.046815	-0.329671
C116	C	0.275715	1.079227	-0.401755
C117	C	0.347788	1.046835	-0.409048
C118	C	0.412588	0.982035	-0.344259
C119	C	0.412626	0.981998	0.039658
C120	C	0.347840	1.046799	0.039657
C121	C	0.275759	1.079205	-0.000017
C122	C	0.268466	1.046813	-0.039700
C123	C	0.333251	0.982017	-0.039703
C124	C	0.717147	0.982017	-0.264896
C125	C	0.717161	1.046807	-0.329688
C126	C	0.677485	1.079213	-0.401769
C127	C	0.637800	1.046821	-0.409058
C128	C	0.637791	0.982029	-0.344267
H129	H	0.605480	0.073195	0.071952
N130	N	0.677477	0.205846	0.471631
H131	H	0.654903	0.228397	0.502818
H132	H	0.731233	0.152112	0.502754
H133	H	0.223013	1.131966	-0.000008
H134	H	0.605482	0.821438	-0.676295
H135	H	0.353695	1.073233	-0.467746
H136	H	0.209771	1.073177	-0.323718
H137	H	0.605482	-0.044362	0.071954
H138	H	0.605497	1.073217	-0.467756
N139	N	0.594974	0.407822	0.187142
H140	H	0.631345	0.396547	0.158473
H141	H	0.555036	0.472852	0.158540
N142	N	0.759954	0.081752	-0.082491
H143	H	0.753934	0.127715	-0.076471
H144	H	0.739131	0.108584	-0.137980
H145	H	0.027606	0.533514	0.071940
H146	H	1.145161	0.281796	0.323663
N147	N	0.759934	0.512522	-0.513256
H148	H	0.799862	0.508980	-0.484599
H149	H	0.785017	0.462298	-0.518534
H150	H	0.001197	0.821458	-0.072031
H151	H	0.471265	0.955664	-0.350208
N152	N	0.864618	0.407830	0.352080
H153	H	0.824663	0.453790	0.300103
H154	H	0.858617	0.434660	0.380736
H155	H	0.605477	0.821451	-0.467740
N156	N	1.164216	0.273189	0.082412
H157	H	1.170293	0.246294	0.137921
H158	H	1.170257	0.322650	0.061549
N159	N	0.205820	1.149118	-0.471631
H160	H	0.159067	1.164711	-0.456064
H161	H	0.205849	1.126523	-0.502791
H162	H	0.327301	0.955647	-0.072011
N163	N	0.490327	0.512514	0.082449
H164	H	0.496395	0.477820	0.137955
H165	H	0.530228	0.524619	0.076372
H166	H	0.353794	1.073162	0.071974
H167	H	0.605482	0.281731	0.323755
N168	N	1.029527	0.407885	0.187084
H169	H	1.085018	0.377534	0.192305
H170	H	1.004370	0.472930	0.158466
H171	H	0.471312	0.955618	0.071970
H172	H	0.605472	0.955667	-0.350214
H173	H	0.605461	0.821457	-0.350199
H174	H	0.677499	1.131972	-0.454520
H175	H	0.749464	-0.044353	-0.072015
N176	N	0.594996	0.842412	-0.812894
H177	H	0.601018	0.830374	-0.852838
H178	H	0.615826	0.877071	-0.818895
H179	H	0.209769	1.073208	-0.072001
N180	N	1.149112	0.205871	0.471574
H181	H	1.195865	0.190279	0.456008
H182	H	1.149080	0.152145	0.502735
H183	H	0.749449	0.281756	-0.072011
H184	H	0.749455	0.955642	-0.206209
N185	N	0.759961	0.512513	-0.647937
H186	H	0.753937	0.524556	-0.699922
H187	H	0.739136	0.477849	-0.619280
H188	H	0.327322	0.955622	-0.206194
N189	N	0.759931	0.407875	-0.082503
H190	H	0.753908	0.453842	-0.076488
H191	H	0.739096	0.434706	-0.137990
H192	H	0.327320	0.821439	-0.071990
H193	H	0.749452	0.533508	-0.323766
H194	H	1.027631	0.399302	0.071952
H195	H	0.749476	1.073174	-0.323738
N196	N	0.759947	0.407871	0.352048
H197	H	0.785077	0.377519	0.407541
H198	H	0.723517	0.472915	0.326889
H199	H	0.605472	0.281751	0.071964
N200	N	0.594991	0.407859	0.082457
H201	H	0.569851	0.377506	0.107590
H202	H	0.555107	0.472903	0.046025
H203	H	1.001239	0.281742	0.467690
N204	N	0.355646	0.512526	0.082447
H205	H	0.411135	0.462254	0.107579
H206	H	0.330486	0.509076	0.046011
N207	N	0.164216	0.512538	0.082427
H208	H	0.158993	0.462267	0.107561
H209	H	0.192831	0.509076	0.122318
N210	N	-0.135403	0.842432	-0.082513
H211	H	-0.130184	0.892705	-0.107643
H212	H	-0.164013	0.845879	-0.046078
H213	H	0.209765	0.821438	-0.071999
N214	N	0.759952	0.273209	0.486736
H215	H	0.785091	0.303566	0.481500
H216	H	0.799838	0.208165	0.515351
N217	N	0.759935	0.512535	-0.187157
H218	H	0.723549	0.508993	-0.158500
H219	H	0.799860	0.509060	-0.158574
N220	N	0.864567	0.407893	-0.082510
H221	H	0.858494	0.434785	-0.138019
H222	H	0.824675	0.453814	-0.076424
N223	N	1.149041	0.205891	-0.000086
H224	H	1.149060	0.152131	0.022492
H225	H	1.195777	0.190344	0.031054
N226	N	0.999215	0.273247	-0.082544
H227	H	0.943721	0.303603	-0.107665
H228	H	1.024371	0.208202	-0.046118
