data_functionalizedCrystal
_audit_creation_method	'MofGen! by Chris Wilmer'
_symmetry_space_group_name_H-M	'P1'
_symmetry_Int_Tables_number	1
_symmetry_cell_setting	triclinic
loop_
_symmetry_equiv_pos_as_xyz
  x,y,z
_cell_length_a	16.109302
_cell_length_b	16.109301
_cell_length_c	14.586319
_cell_angle_alpha	90.007381
_cell_angle_beta	90.002485
_cell_angle_gamma	83.461631
loop_
_atom_site_label
_atom_site_type_symbol
_atom_site_fract_x
_atom_site_fract_y
_atom_site_fract_z
O1	O	-1.103126	-0.106872	-0.076284
O2	O	-0.853126	0.143128	0.173716
O3	O	-0.603126	0.393128	0.423716
O4	O	-0.353126	0.643128	0.673716
O5	O	-0.861065	-0.120171	-0.076278
O6	O	-0.611065	0.129829	0.173722
O7	O	-0.361065	0.379829	0.423722
O8	O	-0.111065	0.629829	0.673722
O9	O	-0.988745	0.007510	-0.076272
O10	O	-0.738745	0.257510	0.173728
O11	O	-0.488745	0.507510	0.423728
O12	O	-0.238745	0.757510	0.673728
O13	O	-0.975446	-0.234552	-0.076290
O14	O	-0.725446	0.015448	0.173710
O15	O	-0.475446	0.265448	0.423710
O16	O	-0.225446	0.515448	0.673710
O17	O	-0.988744	0.007518	0.076209
O18	O	-0.738744	0.257518	0.326209
O19	O	-0.488744	0.507518	0.576209
O20	O	-0.238744	0.757518	0.826209
O21	O	-0.861064	-0.120163	0.076203
O22	O	-0.611064	0.129837	0.326203
O23	O	-0.361064	0.379837	0.576203
O24	O	-0.111064	0.629837	0.826203
O25	O	-1.103125	-0.106864	0.076196
O26	O	-0.853125	0.143136	0.326196
O27	O	-0.603125	0.393136	0.576196
O28	O	-0.353125	0.643136	0.826196
Cu29	Cu	-0.982094	-0.113513	0.090122
Cu30	Cu	-0.732094	0.136487	0.340122
Cu31	Cu	-0.482094	0.386487	0.590122
Cu32	Cu	-0.232094	0.636487	0.840122
Cu33	Cu	-0.982096	-0.113522	-0.090204
Cu34	Cu	-0.732096	0.136478	0.159796
Cu35	Cu	-0.482096	0.386478	0.409796
Cu36	Cu	-0.232096	0.636478	0.659796
O37	O	-0.975445	-0.234544	0.076191
O38	O	-0.725445	0.015456	0.326191
O39	O	-0.475445	0.265456	0.576191
O40	O	-0.225445	0.515456	0.826191
C41	C	-0.830089	-0.119628	-0.000036
C42	C	-0.580089	0.130372	0.249964
C43	C	-0.330089	0.380372	0.499964
C44	C	-0.080089	0.630372	0.749964
C45	C	-0.737794	-0.118013	-0.000033
C46	C	-0.487794	0.131987	0.249967
C47	C	-0.237794	0.381987	0.499967
C48	C	0.012206	0.631987	0.749967
C49	C	-0.988206	0.038488	-0.000031
C50	C	-0.738206	0.288488	0.249969
C51	C	-0.488206	0.538488	0.499969
C52	C	-0.238206	0.788488	0.749969
C53	C	-0.986591	0.130784	-0.000030
C54	C	-0.736591	0.380784	0.249970
C55	C	-0.486591	0.630784	0.499970
C56	C	-0.236591	0.880784	0.749970
C57	C	-1.134101	-0.107407	-0.000047
C58	C	-0.884101	0.142593	0.249953
C59	C	-0.634101	0.392593	0.499953
C60	C	-0.384101	0.642593	0.749953
C61	C	-1.226396	-0.109022	-0.000056
C62	C	-0.976396	0.140978	0.249944
C63	C	-0.726396	0.390978	0.499944
C64	C	-0.476396	0.640978	0.749944
C65	C	-0.525452	-0.114273	0.083075
C66	C	-0.275452	0.135727	0.333075
C67	C	-0.025452	0.385727	0.583075
C68	C	0.224548	0.635727	0.833075
C69	C	-0.438732	-0.112746	0.083072
C70	C	-0.188732	0.137254	0.333072
C71	C	0.061268	0.387254	0.583072
C72	C	0.311268	0.637254	0.833072
C73	C	-0.438744	-0.112759	-0.083171
C74	C	-0.188744	0.137241	0.166829
C75	C	0.061256	0.387241	0.416829
C76	C	0.311256	0.637241	0.666829
C77	C	-0.525463	-0.114280	-0.083167
C78	C	-0.275463	0.135720	0.166833
C79	C	-0.025463	0.385720	0.416833
C80	C	0.224537	0.635720	0.666833
C81	C	-0.568815	-0.115041	-0.000041
C82	C	-0.318815	0.134959	0.249959
C83	C	-0.068815	0.384959	0.499959
C84	C	0.181185	0.634959	0.749959
C85	C	-0.395375	-0.111994	-0.000048
C86	C	-0.145375	0.138006	0.249952
C87	C	0.104625	0.388006	0.499952
C88	C	0.354625	0.638006	0.749952
C89	C	-0.301350	-0.110338	-0.000052
C90	C	-0.051350	0.139662	0.249948
C91	C	0.198650	0.389662	0.499948
C92	C	0.448650	0.639662	0.749948
C93	C	-0.662847	-0.116695	-0.000037
C94	C	-0.412847	0.133305	0.249963
C95	C	-0.162847	0.383305	0.499963
C96	C	0.087153	0.633305	0.749963
N97	N	-0.982097	-0.113523	-0.217035
N98	N	-0.732097	0.136477	0.032965
N99	N	-0.482097	0.386477	0.282965
N100	N	-0.232097	0.636477	0.532965
C101	C	-0.975984	-0.265523	-0.000052
C102	C	-0.725984	-0.015523	0.249948
C103	C	-0.475984	0.234477	0.499948
C104	C	-0.225984	0.484477	0.749948
C105	C	-0.977599	-0.357819	-0.000060
C106	C	-0.727599	-0.107819	0.249940
C107	C	-0.477599	0.142181	0.499940
C108	C	-0.227599	0.392181	0.749940
C109	C	-1.058599	0.353056	-0.000046
C110	C	-0.808599	0.603056	0.249954
C111	C	-0.558599	0.853056	0.499954
C112	C	-0.308599	1.103056	0.749954
C113	C	-1.057074	0.439776	-0.000054
C114	C	-0.807074	0.689776	0.249946
C115	C	-0.557074	0.939776	0.499946
C116	C	-0.307074	1.189776	0.749946
C117	C	-0.905586	0.419902	-0.000046
C118	C	-0.655586	0.669902	0.249954
C119	C	-0.405586	0.919902	0.499954
C120	C	-0.155586	1.169902	0.749954
C121	C	-0.907111	0.333184	-0.000045
C122	C	-0.657111	0.583184	0.249955
C123	C	-0.407111	0.833184	0.499955
C124	C	-0.157111	1.083184	0.749955
C125	C	-0.983620	0.299763	-0.000040
C126	C	-0.733620	0.549763	0.249960
C127	C	-0.483620	0.799763	0.499960
C128	C	-0.233620	1.049763	0.749960
C129	C	-0.980571	0.473202	-0.000049
C130	C	-0.730571	0.723202	0.249951
C131	C	-0.480571	0.973202	0.499951
C132	C	-0.230571	1.223202	0.749951
C133	C	-0.978918	0.567228	-0.000057
C134	C	-0.728918	0.817228	0.249943
C135	C	-0.478918	1.067228	0.499943
C136	C	-0.228918	1.317228	0.749943
C137	C	-0.985273	0.205731	-0.000034
C138	C	-0.735273	0.455731	0.249966
C139	C	-0.485273	0.705731	0.499966
C140	C	-0.235273	0.955731	0.749966
C141	C	-1.038743	-0.057096	-0.452039
C142	C	-0.788743	0.192904	-0.202039
C143	C	-0.538743	0.442904	0.047961
C144	C	-0.288743	0.692904	0.297961
C145	C	-1.038746	-0.057094	-0.548021
C146	C	-0.788746	0.192906	-0.298021
C147	C	-0.538746	0.442906	-0.048021
C148	C	-0.288746	0.692906	0.201979
C149	C	-0.925451	-0.169939	-0.548035
C150	C	-0.675451	0.080061	-0.298035
C151	C	-0.425451	0.330061	-0.048035
C152	C	-0.175451	0.580061	0.201965
C153	C	-0.925453	-0.169944	-0.452056
C154	C	-0.675453	0.080056	-0.202056
C155	C	-0.425453	0.330056	0.047944
C156	C	-0.175453	0.580056	0.297944
C157	C	-0.982098	-0.113518	-0.404060
C158	C	-0.732098	0.136482	-0.154060
C159	C	-0.482098	0.386482	0.095940
C160	C	-0.232098	0.636482	0.345940
C161	C	-0.982098	-0.113510	-0.596021
C162	C	-0.732098	0.136490	-0.346021
C163	C	-0.482098	0.386490	-0.096021
C164	C	-0.232098	0.636490	0.153979
C165	C	-0.982101	-0.113509	-0.700088
C166	C	-0.732101	0.136491	-0.450088
C167	C	-0.482101	0.386491	-0.200088
C168	C	-0.232101	0.636491	0.049912
C169	C	-0.982097	-0.113520	-0.299986
C170	C	-0.732097	0.136480	-0.049986
C171	C	-0.482097	0.386480	0.200014
C172	C	-0.232097	0.636480	0.450014
N173	N	-0.982100	-0.113506	0.216954
N174	N	-0.732100	0.136494	0.466954
N175	N	-0.482100	0.386494	0.716954
N176	N	-0.232100	0.636494	0.966954
H177	H	-0.560747	-0.114893	0.150762
H178	H	-0.310747	0.135107	0.400762
H179	H	-0.060747	0.385107	0.650762
H180	H	0.189253	0.635107	0.900762
Br181	Br	-0.805346	0.260851	-0.000049
Br182	Br	-0.555346	0.510851	0.249951
Br183	Br	-0.305346	0.760851	0.499951
Br184	Br	-0.055346	1.010851	0.749951
Br185	Br	-0.379887	-0.111703	0.195878
Br186	Br	-0.129887	0.138297	0.445878
Br187	Br	0.120113	0.388297	0.695878
Br188	Br	0.370113	0.638297	0.945878
Br189	Br	-0.379908	-0.111701	-0.195979
Br190	Br	-0.129908	0.138299	0.054021
Br191	Br	0.120092	0.388299	0.304021
Br192	Br	0.370092	0.638299	0.554021
Br193	Br	-0.801757	0.465265	-0.000055
Br194	Br	-0.551757	0.715265	0.249945
Br195	Br	-0.301757	0.965265	0.499945
Br196	Br	-0.051757	1.215265	0.749945
Br197	Br	-1.115620	0.019481	-0.386906
Br198	Br	-0.865620	0.269481	-0.136906
Br199	Br	-0.615620	0.519481	0.113094
Br200	Br	-0.365620	0.769481	0.363094
H201	H	-1.084872	-0.011151	-0.587083
H202	H	-0.834872	0.238849	-0.337083
H203	H	-0.584872	0.488849	-0.087083
H204	H	-0.334872	0.738849	0.162917
Br205	Br	-0.584319	-0.115312	-0.195976
Br206	Br	-0.334319	0.134688	0.054024
Br207	Br	-0.084319	0.384688	0.304024
Br208	Br	0.165681	0.634688	0.554024
H209	H	-0.879330	-0.215879	-0.587123
H210	H	-0.629330	0.034121	-0.337123
H211	H	-0.379330	0.284121	-0.087123
H212	H	-0.129330	0.534121	0.162877
H213	H	-1.118130	0.483165	-0.000060
H214	H	-0.868130	0.733165	0.249940
H215	H	-0.618130	0.983165	0.499940
H216	H	-0.368130	1.233165	0.749940
H217	H	-1.120897	0.325848	-0.000044
H218	H	-0.870897	0.575848	0.249956
H219	H	-0.620897	0.825848	0.499956
H220	H	-0.370897	1.075848	0.749956
Br221	Br	-0.848579	-0.246529	-0.386933
Br222	Br	-0.598579	0.003471	-0.136933
Br223	Br	-0.348579	0.253471	0.113067
Br224	Br	-0.098579	0.503471	0.363067
