data_functionalizedCrystal
_audit_creation_method	'MofGen! by Chris Wilmer'
_symmetry_space_group_name_H-M	'P1'
_symmetry_Int_Tables_number	1
_symmetry_cell_setting	triclinic
loop_
_symmetry_equiv_pos_as_xyz
  x,y,z
_cell_length_a	16.625545
_cell_length_b	12.594517
_cell_length_c	16.625539
_cell_angle_alpha	89.992676
_cell_angle_beta	90.028107
_cell_angle_gamma	89.980800
loop_
_atom_site_label
_atom_site_type_symbol
_atom_site_fract_x
_atom_site_fract_y
_atom_site_fract_z
Zn1	Zn	-0.321137	-1.627192	0.455625
Zn2	Zn	0.178863	-1.127192	0.955625
Zn3	Zn	-0.455980	-1.627055	0.320793
Zn4	Zn	0.044020	-1.127055	0.820793
Zn5	Zn	-0.321150	-1.449197	0.320837
Zn6	Zn	0.178850	-0.949197	0.820837
Zn7	Zn	-0.455916	-1.449149	0.455614
Zn8	Zn	0.044084	-0.949149	0.955614
O9	O	-0.388546	-1.538148	0.388217
O10	O	0.111454	-1.038148	0.888217
O11	O	-0.339045	-1.776120	0.437726
O12	O	0.160955	-1.276120	0.937726
O13	O	-0.438127	-1.603424	0.207967
O14	O	0.061873	-1.103424	0.707967
O15	O	-0.208316	-1.472886	0.338740
O16	O	0.291684	-0.972886	0.838740
O17	O	-0.438114	-1.776019	0.338665
O18	O	0.061886	-1.276019	0.838665
O19	O	-0.208306	-1.603658	0.437769
O20	O	0.291694	-1.103658	0.937769
O21	O	-0.339068	-1.472753	0.207999
O22	O	0.160932	-0.972753	0.707999
O23	O	-0.339006	-1.300245	0.338729
O24	O	0.160994	-0.800245	0.838729
O25	O	-0.438005	-1.472804	0.568448
O26	O	0.061995	-0.972804	1.068448
O27	O	-0.438018	-1.300209	0.437749
O28	O	0.061982	-0.800209	0.937749
O29	O	-0.338984	-1.603611	0.568456
O30	O	0.161016	-1.103611	1.068456
O31	O	-0.568804	-1.603377	0.338654
O32	O	-0.068804	-1.103377	0.838654
O33	O	-0.568757	-1.472670	0.437707
O34	O	-0.068757	-0.972670	0.937707
C35	C	-0.388507	-1.261607	0.388243
C36	C	0.111493	-0.761607	0.888243
C37	C	-0.388510	-1.143302	0.388274
C38	C	0.111490	-0.643302	0.888274
C39	C	-0.598037	-1.538033	0.388192
C40	C	-0.098037	-1.038033	0.888192
C41	C	-0.687658	-1.538080	0.388208
C42	C	-0.187658	-1.038080	0.888208
C43	C	-0.442466	-1.074060	0.442030
C44	C	0.057534	-0.574060	0.942030
C45	C	-0.368949	-1.003267	0.461868
C46	C	0.131051	-0.503267	0.961868
C47	C	-0.462082	-1.003295	0.368428
C48	C	0.037918	-0.503295	0.868428
C49	C	-0.314954	-1.074067	0.408150
C50	C	0.185046	-0.574067	0.908150
C51	C	-0.408136	-1.074102	0.314676
C52	C	0.091864	-0.574102	0.814676
C53	C	-0.334568	-1.003341	0.334486
C54	C	0.165432	-0.503341	0.834486
C55	C	-0.760440	-1.538122	0.388224
C56	C	-0.260440	-1.038122	0.888224
C57	C	-0.851749	-1.538184	0.388242
C58	C	-0.351749	-1.038184	0.888242
C59	C	-0.924525	-1.538239	0.388252
C60	C	-0.424525	-1.038239	0.888252
C61	C	-1.015840	-1.538300	0.388269
C62	C	-0.515840	-1.038300	0.888269
C63	C	-0.178237	-1.538293	0.388261
C64	C	0.321763	-1.038293	0.888261
C65	C	-0.088616	-1.538355	0.388279
C66	C	0.411384	-1.038355	0.888279
C67	C	-0.388486	-1.538217	0.598526
C68	C	0.111514	-1.038217	1.098526
C69	C	-0.388460	-1.538247	0.688148
C70	C	0.111540	-1.038247	1.188148
C71	C	-0.388578	-0.815769	0.388204
C72	C	0.111422	-0.315769	0.888204
C73	C	-0.388573	-0.934074	0.388230
C74	C	0.111427	-0.434074	0.888230
C75	C	-0.388548	-1.538140	0.178727
C76	C	0.111452	-1.038140	0.678727
C77	C	-0.388346	-1.538317	0.089106
C78	C	0.111654	-1.038317	0.589106
C79	C	-0.388370	-1.538296	1.016323
C80	C	0.111630	-1.038296	1.516323
C81	C	-0.388398	-1.538279	0.925015
C82	C	0.111602	-1.038279	1.425015
C83	C	-0.388416	-1.538272	0.852238
C84	C	0.111584	-1.038272	1.352238
C85	C	-0.388442	-1.538254	0.760924
C86	C	0.111558	-1.038254	1.260924
H87	H	-0.488010	-1.105115	0.487544
H88	H	0.011990	-0.605115	0.987544
H89	H	-0.524274	-0.972203	0.351663
H90	H	-0.024274	-0.472203	0.851663
H91	H	-0.252743	-1.105025	0.424987
H92	H	0.247257	-0.605025	0.924987
O93	O	-0.349305	-0.966184	0.536143
O94	O	0.150695	-0.466184	1.036143
C95	C	-0.406297	-1.002226	0.592663
C96	C	0.093703	-0.502226	1.092663
H97	H	-0.464960	-1.022108	0.560498
H98	H	0.035040	-0.522108	1.060498
H99	H	-0.417684	-0.937442	0.639170
H100	H	0.082316	-0.437442	1.139170
H101	H	-0.382334	-1.076271	0.624027
H102	H	0.117666	-0.576271	1.124027
H103	H	-0.288914	-0.972485	0.289008
H104	H	0.211086	-0.472485	0.789008
O105	O	-0.428076	-1.111206	0.240491
O106	O	0.071924	-0.611206	0.740491
C107	C	-0.505067	-1.073559	0.219177
C108	C	-0.005067	-0.573559	0.719177
H109	H	-0.540039	-1.052527	0.275948
H110	H	-0.040039	-0.552527	0.775948
H111	H	-0.538690	-1.137816	0.184515
H112	H	-0.038690	-0.637816	0.684515
H113	H	-0.498729	-0.999895	0.179833
H114	H	0.001271	-0.499895	0.679833
