data_functionalizedCrystal
_audit_creation_method	'MofGen! by Chris Wilmer'
_symmetry_space_group_name_H-M	'P1'
_symmetry_Int_Tables_number	1
_symmetry_cell_setting	triclinic
loop_
_symmetry_equiv_pos_as_xyz
  x,y,z
_cell_length_a	12.759401
_cell_length_b	12.759400
_cell_length_c	12.759393
_cell_angle_alpha	89.970466
_cell_angle_beta	89.980131
_cell_angle_gamma	90.013113
loop_
_atom_site_label
_atom_site_type_symbol
_atom_site_fract_x
_atom_site_fract_y
_atom_site_fract_z
Zn1	Zn	1.606253	-0.418215	-0.594065
Zn2	Zn	1.606156	-0.593931	-0.418389
Zn3	Zn	1.430559	-0.418267	-0.418396
Zn4	Zn	1.430548	-0.593853	-0.594022
O5	O	1.518379	-0.506066	-0.506218
O6	O	1.753261	-0.441536	-0.570776
O7	O	1.582827	-0.570684	-0.271368
O8	O	1.453910	-0.271239	-0.441720
O9	O	1.753190	-0.570634	-0.441707
O10	O	1.582992	-0.271201	-0.570783
O11	O	1.453816	-0.441624	-0.271374
O12	O	1.283537	-0.441547	-0.441678
O13	O	1.453892	-0.570499	-0.741049
O14	O	1.283529	-0.570549	-0.570710
O15	O	1.582981	-0.441459	-0.741080
O16	O	1.582816	-0.740942	-0.441665
O17	O	1.453798	-0.740884	-0.570702
C18	C	1.245412	-0.506046	-0.506191
C19	C	1.128635	-0.506063	-0.506204
C20	C	0.964002	-0.573200	-0.438944
C21	C	1.073726	-0.573181	-0.438914
C22	C	1.073814	-0.438952	-0.573521
C23	C	0.964092	-0.438967	-0.573544
C24	C	0.963952	-0.650699	-0.361233
C25	C	1.073676	-0.650679	-0.361203
C26	C	1.518324	-0.779034	-0.506201
C27	C	1.518396	-0.895810	-0.506229
C28	C	1.585576	-0.950573	-0.573488
C29	C	1.585625	-1.060297	-0.573513
C30	C	1.451312	-1.060486	-0.439013
C31	C	1.451259	-0.950764	-0.438994
C32	C	1.652713	-0.895619	-0.640723
C33	C	1.719899	-0.950382	-0.707986
C34	C	1.719948	-1.060106	-0.708012
C35	C	1.652811	-1.115067	-0.640774
C36	C	1.792412	-0.506088	-0.506246
C37	C	1.909189	-0.506097	-0.506258
C38	C	1.518446	-0.505965	-0.780251
C39	C	1.518475	-0.505922	-0.897028
C40	C	1.518463	-0.232033	-0.506258
C41	C	1.518499	-0.115256	-0.506274
C42	C	1.451280	-0.573081	-0.951875
C43	C	1.451319	-0.573043	-1.061599
C44	C	1.585749	-0.438677	-1.061619
C45	C	1.585715	-0.438721	-0.951897
C46	C	1.384040	-0.640282	-0.897006
C47	C	1.316839	-0.707446	-0.951853
C48	C	1.316878	-0.707408	-1.061577
C49	C	1.384117	-0.640205	-1.116454
C50	C	1.518373	-0.506092	-0.233250
C51	C	1.518547	-0.505839	-0.116474
H52	H	0.934132	-0.628817	-0.279906
H53	H	1.652683	-0.806276	-0.640708
H54	H	1.640491	-0.383963	-1.106309
H55	H	1.384150	-0.640186	-1.205799
C56	C	0.903796	-0.365150	-0.647581
H57	H	0.830586	-0.374765	-0.637954
H58	H	0.921817	-0.380598	-0.718143
H59	H	0.921776	-0.294537	-0.632306
C60	C	1.242884	-0.781363	-0.891494
H61	H	1.252477	-0.771762	-0.818292
H62	H	1.258240	-0.851949	-0.909464
H63	H	1.172302	-0.765964	-0.909480
C64	C	0.917981	-0.755166	-0.400427
H65	H	0.973435	-0.801680	-0.417861
H66	H	0.876108	-0.742764	-0.460713
H67	H	0.876049	-0.785516	-0.346873
H68	H	1.262167	-0.762103	-1.106231
H69	H	1.640429	-0.384032	-0.907240
C70	C	1.113920	-0.760623	-0.390462
H71	H	1.056013	-0.805848	-0.402525
H72	H	1.155245	-0.787592	-0.334721
H73	H	1.155318	-0.756251	-0.452210
C74	C	1.793741	-0.889930	-0.781942
H75	H	1.784099	-0.816739	-0.772289
H76	H	1.778338	-0.907869	-0.852523
H77	H	1.864351	-0.907877	-0.766624
C78	C	1.793845	-1.120342	-0.781996
H79	H	1.833825	-1.071896	-0.822028
H80	H	1.753657	-1.163142	-0.827749
H81	H	1.839666	-1.163139	-0.741846
H82	H	1.652844	-1.204412	-0.640813
C83	C	1.119600	-0.611205	-0.256834
H84	H	1.064125	-0.593644	-0.210373
H85	H	1.161522	-0.550957	-0.269392
H86	H	1.161476	-0.664682	-0.226337
C87	C	1.377478	-1.120941	-0.365052
H88	H	1.387139	-1.194131	-0.374690
H89	H	1.306869	-1.103003	-0.380356
H90	H	1.392893	-1.102996	-0.294469
H91	H	1.118530	-0.384297	-0.628302
C92	C	1.377364	-0.890521	-0.365011
H93	H	1.337397	-0.938963	-0.324961
H94	H	1.331548	-0.847724	-0.405156
H95	H	1.417563	-0.847721	-0.319259
C96	C	1.383997	-0.640328	-0.776314
H97	H	1.334334	-0.689972	-0.751489
H98	H	1.365850	-0.572536	-0.751502
H99	H	1.451784	-0.658525	-0.751491
