data_functionalizedCrystal
_audit_creation_method	'MofGen! by Chris Wilmer'
_symmetry_space_group_name_H-M	'P1'
_symmetry_Int_Tables_number	1
_symmetry_cell_setting	triclinic
loop_
_symmetry_equiv_pos_as_xyz
  x,y,z
_cell_length_a	14.853567
_cell_length_b	14.853567
_cell_length_c	13.330367
_cell_angle_alpha	89.999156
_cell_angle_beta	89.995418
_cell_angle_gamma	83.634930
loop_
_atom_site_label
_atom_site_type_symbol
_atom_site_fract_x
_atom_site_fract_y
_atom_site_fract_z
O1	O	1.196369	0.117704	-0.083346
O2	O	0.933909	0.131725	-0.083362
O3	O	1.072150	-0.006515	-0.083356
O4	O	1.058128	0.255944	-0.083351
O5	O	1.072130	-0.006519	0.083491
O6	O	0.933889	0.131722	0.083485
O7	O	1.196349	0.117700	0.083501
Cu8	Cu	1.065117	0.124711	0.098728
Cu9	Cu	1.065141	0.124715	-0.098588
O10	O	1.058108	0.255941	0.083496
C11	C	0.900311	0.131088	0.000060
C12	C	0.800227	0.129184	0.000053
C13	C	0.387693	0.039019	0.000074
C14	C	0.366412	0.203251	0.000076
C15	C	0.460446	0.205042	0.000073
C16	C	0.518108	0.123819	0.000069
C17	C	0.481736	0.040806	0.000067
C18	C	0.496825	0.288053	0.000064
C19	C	0.590864	0.289846	0.000059
C20	C	0.648528	0.208623	0.000062
C21	C	0.612150	0.125607	0.000062
C22	C	0.669812	0.044384	0.000058
C23	C	0.633437	-0.038633	0.000065
C24	C	0.539399	-0.040417	0.000070
C25	C	0.742565	0.210407	0.000057
C26	C	0.763855	0.046172	0.000052
C27	C	1.071504	-0.040106	0.000064
C28	C	1.069601	-0.140189	0.000055
C29	C	0.979435	-0.552723	0.000069
C30	C	1.143668	-0.574004	0.000079
C31	C	1.145458	-0.479971	0.000073
C32	C	1.064235	-0.422309	0.000067
C33	C	0.981223	-0.458680	0.000066
C34	C	1.228469	-0.443591	0.000084
C35	C	1.230262	-0.349552	0.000079
C36	C	1.149039	-0.291889	0.000066
C37	C	1.066023	-0.328266	0.000064
C38	C	0.984800	-0.270604	0.000058
C39	C	0.901783	-0.306979	0.000049
C40	C	0.899999	-0.401017	0.000053
C41	C	1.150823	-0.197851	0.000062
C42	C	0.986588	-0.176561	0.000055
C43	C	1.229947	0.118337	0.000078
C44	C	1.330031	0.120241	0.000078
C45	C	1.058754	0.289531	0.000073
C46	C	1.060657	0.389615	0.000075
N47	N	1.065107	0.124708	0.237509
N48	N	1.065158	0.124711	-0.237370
C49	C	1.003925	0.185903	0.710130
C50	C	1.126381	0.063519	0.710103
C51	C	1.126371	0.063516	0.605084
C52	C	1.065138	0.124709	0.552584
C53	C	1.003915	0.185904	0.605102
C54	C	1.187598	0.002328	0.552559
C55	C	1.187591	0.002323	0.447534
C56	C	1.126353	0.063512	0.395031
C57	C	1.065127	0.124710	0.447556
C58	C	1.003895	0.185902	0.395055
C59	C	0.942664	0.247096	0.447578
C60	C	0.942677	0.247093	0.552599
C61	C	1.126340	0.063515	0.290010
C62	C	1.003884	0.185903	0.290027
H63	H	0.509774	-0.108005	0.000100
H64	H	1.209795	-0.620958	0.000092
H65	H	0.911844	-0.582344	0.000058
H66	H	0.954070	0.235724	0.752896
O67	O	1.316070	-0.505778	0.000105
H68	H	1.300878	-0.577279	0.000098
O69	O	0.810464	-0.440248	0.000049
H70	H	0.771423	-0.417084	0.068047
O71	O	0.348462	-0.050516	0.000081
H72	H	0.371613	-0.089542	0.068089
O73	O	0.304227	0.290854	0.000091
H74	H	0.232726	0.275665	0.000103
H75	H	0.449870	0.354180	0.000057
H76	H	0.810798	-0.019971	0.000052
O77	O	0.898978	-0.114375	0.000048
H78	H	0.914164	-0.042873	0.000044
O79	O	1.192364	-0.002500	0.233376
H80	H	1.154344	-0.046385	0.185548
O81	O	1.319796	-0.310319	0.000065
H82	H	1.375973	-0.366214	0.000059
H83	H	0.620472	0.357443	0.000053
O84	O	1.240350	-0.158613	0.000065
H85	H	1.296528	-0.214507	0.000066
O86	O	0.876626	0.313097	0.390942
H87	H	0.834054	0.355654	0.445101
O88	O	0.781795	0.299938	0.000054
H89	H	0.824128	0.304685	-0.067954
O90	O	1.192424	-0.002480	0.766720
H91	H	1.182143	0.007798	0.848572
O92	O	0.695631	-0.126238	0.000068
H93	H	0.767130	-0.111041	0.000067
H94	H	0.835652	-0.260019	0.000051
O95	O	0.937842	0.251907	0.233401
H96	H	0.895276	0.294459	0.287569
H97	H	0.892826	0.296916	0.595370
O98	O	1.253642	-0.063669	0.609178
H99	H	1.243353	-0.053395	0.691030
H100	H	1.237447	-0.047504	0.404776
