data_functionalizedCrystal
_audit_creation_method	'MofGen! by Chris Wilmer'
_symmetry_space_group_name_H-M	'P1'
_symmetry_Int_Tables_number	1
_symmetry_cell_setting	triclinic
loop_
_symmetry_equiv_pos_as_xyz
  x,y,z
_cell_length_a	17.699077
_cell_length_b	19.188930
_cell_length_c	16.176319
_cell_angle_alpha	89.998695
_cell_angle_beta	90.003161
_cell_angle_gamma	83.212679
loop_
_atom_site_label
_atom_site_type_symbol
_atom_site_fract_x
_atom_site_fract_y
_atom_site_fract_z
O1	O	1.003963	0.088262	0.068745
O2	O	0.783569	0.099753	0.068750
O3	O	0.900126	-0.007641	0.068731
O4	O	0.887406	0.195656	0.068764
O5	O	0.900115	-0.007622	-0.068762
O6	O	0.783558	0.099773	-0.068743
O7	O	1.003952	0.088281	-0.068748
Cu8	Cu	0.893754	0.094029	-0.081300
Cu9	Cu	0.893767	0.094006	0.081302
O10	O	0.887395	0.195675	-0.068729
C11	C	0.755367	0.099352	0.000004
C12	C	0.671350	0.098119	0.000005
C13	C	0.631877	0.097548	-0.074943
C14	C	0.552936	0.096378	-0.074944
C15	C	0.513469	0.095784	0.000004
C16	C	0.552947	0.096352	0.074958
C17	C	0.631888	0.097517	0.074959
C18	C	0.234590	0.091654	0.074959
C19	C	0.155644	0.090491	0.074953
C20	C	0.155639	0.090515	-0.074944
C21	C	0.234579	0.091680	-0.074943
C22	C	0.274051	0.092244	0.000010
C23	C	0.359648	0.093512	0.000011
C24	C	0.427872	0.094522	0.000005
C25	C	0.899708	-0.033643	-0.000018
C26	C	0.898472	-0.111149	-0.000025
C27	C	0.966864	-0.155998	-0.000030
C28	C	0.965702	-0.228823	-0.000017
C29	C	0.896145	-0.256796	-0.000015
C30	C	0.827744	-0.211937	-0.000005
C31	C	0.828907	-0.139114	-0.000010
N32	N	0.842972	-0.364853	-0.046805
N33	N	0.841872	-0.434033	-0.046802
C34	C	0.892634	-0.476208	0.000002
N35	N	0.944551	-0.446592	0.046793
N36	N	0.945654	-0.377406	0.046786
C37	C	0.894875	-0.335760	-0.000009
C38	C	0.959771	-0.600023	0.000012
C39	C	0.958607	-0.672849	0.000030
C40	C	0.820646	-0.655962	0.000035
C41	C	0.821813	-0.583137	0.000024
C42	C	0.891378	-0.555173	0.000009
C43	C	1.032154	0.088682	-0.000000
C44	C	1.116171	0.089915	0.000004
C45	C	0.887812	0.221677	0.000021
C46	C	0.889049	0.299183	0.000034
N47	N	0.893750	0.094044	-0.195665
C48	C	0.848015	0.051697	-0.761061
C49	C	0.848013	0.051703	-0.674514
C50	C	0.893770	0.093999	-0.631240
C51	C	0.939538	0.136288	-0.674518
C52	C	0.939543	0.136278	-0.761064
C53	C	0.939519	0.136327	-0.325490
C54	C	0.939508	0.136335	-0.238939
C55	C	0.847989	0.051752	-0.238940
C56	C	0.847994	0.051742	-0.325486
C57	C	0.893764	0.094028	-0.368756
C58	C	0.893767	0.094020	-0.462600
C59	C	0.893764	0.094011	-0.537398
N60	N	0.893777	0.093984	0.195667
H61	H	0.266719	0.092111	0.135991
H62	H	1.023509	-0.133234	-0.000040
H63	H	0.810731	0.017302	-0.360715
H64	H	0.764011	-0.678737	0.000040
C65	C	0.721293	0.024491	-0.212305
C66	C	0.797681	0.005264	-0.191375
H67	H	0.690236	-0.004204	-0.182938
H68	H	0.714754	0.018432	-0.270035
H69	H	0.707083	0.072282	-0.198124
H70	H	0.811893	-0.042526	-0.205562
H71	H	0.804224	0.011317	-0.133633
H72	H	0.664005	0.098038	-0.135975
C73	C	1.029994	0.219936	-0.247626
C74	C	0.989815	0.182826	-0.191370
H75	H	1.061051	0.248632	-0.218257
H76	H	0.995076	0.248588	-0.281390
H77	H	1.061114	0.187754	-0.281373
H78	H	0.958690	0.215008	-0.157627
H79	H	1.024737	0.154172	-0.157592
C80	C	0.140049	0.030181	-0.202734
C81	C	0.112253	0.089885	-0.157339
H82	H	0.113268	0.029797	-0.253601
H83	H	0.133018	-0.010708	-0.171948
H84	H	0.192712	0.030970	-0.213449
H85	H	0.059591	0.089094	-0.146618
H86	H	0.119277	0.130784	-0.188130
C87	C	1.025169	-0.347958	-0.000022
C88	C	1.040883	-0.278133	-0.000029
H89	H	1.071583	-0.378397	-0.000026
H90	H	0.996631	-0.356416	-0.047961
H91	H	0.996645	-0.356416	0.047933
H92	H	1.069402	-0.269673	-0.047988
H93	H	1.069433	-0.269671	0.047915
C94	C	0.058165	0.149163	0.161934
C95	C	0.112260	0.089834	0.157343
H96	H	0.031385	0.148759	0.212797
H97	H	0.023364	0.148655	0.117300
H98	H	0.083062	0.190311	0.158831
H99	H	0.087362	0.048685	0.160439
H100	H	0.147066	0.090335	0.201990
C101	C	0.431940	0.094563	0.141519
C102	C	0.509566	0.095701	0.157344
H103	H	0.405161	0.094167	0.192383
H104	H	0.424913	0.053680	0.110723
H105	H	0.413101	0.135079	0.110728
H106	H	0.528407	0.055182	0.188129
H107	H	0.516598	0.136588	0.188153
C108	C	0.623967	0.097390	0.223130
C109	C	0.675278	0.098152	0.157344
H110	H	0.650755	0.097785	0.273992
H111	H	0.599089	0.056238	0.220009
H112	H	0.587265	0.137638	0.220010
H113	H	0.711977	0.057901	0.160461
H114	H	0.700168	0.139308	0.160467
H115	H	0.771109	-0.234718	-0.000001
H116	H	0.976787	0.170760	-0.360711
H117	H	0.766121	-0.546620	0.000024
H118	H	0.810751	0.017266	-0.639286
H119	H	0.773213	-0.102597	-0.000005
H120	H	0.266709	0.092167	-0.135974
C121	C	1.096021	-0.624027	0.000029
C122	C	1.036234	-0.569278	0.000015
H123	H	1.143225	-0.605046	0.000038
H124	H	1.092701	-0.652079	-0.047914
H125	H	1.092690	-0.652078	0.047980
H126	H	1.039562	-0.541229	-0.047940
H127	H	1.039556	-0.541214	0.047963
H128	H	0.976797	0.170723	-0.639278
H129	H	1.014302	-0.709365	0.000030
H130	H	0.976807	0.170713	-0.796295
C131	C	0.560858	0.096535	-0.223114
C132	C	0.509547	0.095758	-0.157330
H133	H	0.534069	0.096156	-0.273977
H134	H	0.597555	0.056291	-0.220008
H135	H	0.585739	0.137691	-0.219977
H136	H	0.484670	0.054599	-0.160464
H137	H	0.472836	0.136005	-0.160438
C138	C	0.818694	-0.065234	-0.787694
C139	C	0.797717	0.005203	-0.808625
H140	H	0.787645	-0.093938	-0.817061
H141	H	0.812139	-0.071275	-0.729964
H142	H	0.870522	-0.078259	-0.801875
H143	H	0.745890	0.018230	-0.794439
H144	H	0.804265	0.011247	-0.866367
