data_functionalizedCrystal
_audit_creation_method	'MofGen! by Chris Wilmer'
_symmetry_space_group_name_H-M	'P1'
_symmetry_Int_Tables_number	1
_symmetry_cell_setting	triclinic
loop_
_symmetry_equiv_pos_as_xyz
  x,y,z
_cell_length_a	10.654552
_cell_length_b	23.532407
_cell_length_c	22.010155
_cell_angle_alpha	89.991245
_cell_angle_beta	89.983458
_cell_angle_gamma	83.667364
loop_
_atom_site_label
_atom_site_type_symbol
_atom_site_fract_x
_atom_site_fract_y
_atom_site_fract_z
O1	O	1.665326	0.079991	-0.050538
O2	O	1.299607	0.087610	-0.050538
O3	O	1.493495	0.000940	-0.050527
O4	O	1.471438	0.166660	-0.050549
O5	O	1.493435	0.000941	0.050524
O6	O	1.299547	0.087610	0.050512
O7	O	1.665266	0.079991	0.050513
Cu8	Cu	1.482401	0.083801	0.059739
Cu9	Cu	1.482472	0.083800	-0.059765
O10	O	1.471379	0.166660	0.050501
C11	C	1.252797	0.087050	-0.000013
C12	C	1.113407	0.085375	-0.000013
C13	C	1.492903	-0.020279	0.000000
C14	C	1.491215	-0.083507	0.000005
C15	C	0.916909	0.083013	0.055066
C16	C	1.047880	0.084590	0.055069
C17	C	1.047955	0.084590	-0.055101
C18	C	0.916985	0.083017	-0.055104
C19	C	1.216787	0.120045	0.121245
C20	C	1.282237	0.120823	0.176333
C21	C	1.249734	0.087002	0.224971
C22	C	1.151788	0.052390	0.218524
C23	C	1.086346	0.051607	0.163436
C24	C	1.118843	0.085441	0.114800
C25	C	0.748077	0.047556	-0.121276
C26	C	0.682634	0.046770	-0.176365
C27	C	0.715135	0.080587	-0.225008
C28	C	0.813088	0.115191	-0.218567
C29	C	0.878531	0.115978	-0.163479
C30	C	0.846021	0.082161	-0.114835
C31	C	1.595362	-0.481931	-0.000028
C32	C	1.593793	-0.541342	-0.000033
O33	O	1.690339	-0.577457	-0.000055
N34	N	1.478527	-0.564719	-0.000033
C35	C	1.364822	-0.528683	-0.000034
O36	O	1.266635	-0.554023	-0.000035
C37	C	1.366392	-0.469274	-0.000034
C38	C	1.481666	-0.445900	-0.000028
C39	C	1.710626	-0.458556	-0.000023
C40	C	1.712194	-0.399150	-0.000017
C41	C	1.598498	-0.363118	-0.000017
C42	C	1.483234	-0.386493	-0.000022
C43	C	1.252688	-0.433239	-0.000040
C44	C	1.254268	-0.373826	-0.000040
C45	C	1.369542	-0.350452	-0.000034
C46	C	1.371106	-0.291055	-0.000016
N47	N	1.486372	-0.267677	-0.000016
C48	C	1.600068	-0.303709	-0.000017
C49	C	1.361533	-0.653447	-0.000036
C50	C	1.359962	-0.712855	-0.000032
C51	C	1.588934	-0.725510	-0.000032
C52	C	1.590504	-0.666100	-0.000031
C53	C	1.476800	-0.630069	-0.000036
C54	C	1.603353	-0.178951	-0.000004
C55	C	1.604911	-0.119539	0.000004
C56	C	1.375940	-0.106889	0.000001
C57	C	1.374381	-0.166296	-0.000004
C58	C	1.488098	-0.202326	-0.000009
O59	O	1.274611	-0.254905	0.000004
O60	O	1.698239	-0.278361	-0.000024
C61	C	1.712077	0.080551	-0.000014
C62	C	1.851467	0.082225	-0.000018
C63	C	1.471970	0.187880	-0.000027
C64	C	1.473659	0.251108	-0.000035
N65	N	1.482361	0.083801	0.143792
C66	C	1.558191	0.118659	0.563566
C67	C	1.558204	0.118659	0.627174
O68	O	1.622639	0.148290	0.660061
N69	N	1.482483	0.083800	0.658999
C70	C	1.406754	0.048935	0.627213
O71	O	1.342349	0.019284	0.660123
C72	C	1.406748	0.048933	0.563606
C73	C	1.482464	0.083799	0.531785
C74	C	1.633901	0.153522	0.531745
C75	C	1.633886	0.153523	0.468142
C76	C	1.558159	0.118662	0.436360
C77	C	1.482448	0.083800	0.468182
C78	C	1.331026	0.014066	0.531821
C79	C	1.331027	0.014067	0.468211
C80	C	1.406743	0.048932	0.436389
C81	C	1.406706	0.048941	0.372797
N82	N	1.482426	0.083800	0.340972
C83	C	1.558153	0.118661	0.372754
C84	C	1.406774	0.048941	0.760790
C85	C	1.406772	0.048945	0.824396
C86	C	1.558224	0.118668	0.824353
C87	C	1.558219	0.118666	0.760746
C88	C	1.482494	0.083800	0.728966
C89	C	1.558114	0.118661	0.239182
C90	C	1.558087	0.118662	0.175573
C91	C	1.406640	0.048936	0.175622
C92	C	1.406661	0.048938	0.239225
C93	C	1.482408	0.083802	0.271004
O94	O	1.342308	0.019323	0.339869
O95	O	1.622559	0.148301	0.339836
N96	N	1.482504	0.083804	0.856183
H97	H	0.863566	0.082376	0.099921
O98	O	1.699466	-0.760458	-0.000119
C99	C	1.894669	-0.789478	-0.052497
C100	C	1.769563	-0.749857	-0.052466
H101	H	1.951366	-0.780929	-0.094821
H102	H	1.951506	-0.780923	-0.010237
H103	H	1.873707	-0.835949	-0.052471
H104	H	1.790410	-0.703372	-0.052513
H105	H	1.712763	-0.758461	-0.094723
H106	H	1.806062	-0.380125	-0.000015
H107	H	1.803217	-0.487888	-0.000026
O108	O	1.333079	0.015059	0.730015
C109	C	1.182910	-0.054117	0.736784
C110	C	1.266283	-0.015765	0.771708
H111	H	1.128904	-0.079058	0.770478
H112	H	1.113116	-0.026428	0.707030
H113	H	1.245066	-0.085290	0.706984
H114	H	1.204227	0.015413	0.801542
H115	H	1.336085	-0.043490	0.801424
H116	H	1.344991	0.020555	0.265136
O117	O	1.333158	0.014991	0.144811
C118	C	1.285409	-0.081069	0.125340
C119	C	1.368686	-0.042686	0.160282
H120	H	1.314120	-0.127709	0.137825
H121	H	1.182125	-0.068860	0.137870
H122	H	1.298389	-0.075049	0.074417
H123	H	1.355815	-0.048686	0.211213
H124	H	1.471939	-0.054904	0.147701
H125	H	1.619884	0.147054	0.850241
H126	H	1.280516	-0.185328	0.000008
O127	O	1.257346	-0.019819	0.437434
C128	C	1.107196	-0.089004	0.444196
C129	C	1.190557	-0.050650	0.479123
H130	H	1.053196	-0.113950	0.477886
H131	H	1.037397	-0.061316	0.414443
H132	H	1.169361	-0.120172	0.414393
H133	H	1.128494	-0.019476	0.508959
H134	H	1.260364	-0.078373	0.508838
O135	O	1.716815	-0.096767	-0.000074
C136	C	1.851543	-0.037062	-0.052439
C137	C	1.724762	-0.062799	-0.052418
H138	H	1.858021	-0.009602	-0.094761
H139	H	1.858004	-0.009535	-0.010177
H140	H	1.932510	-0.073033	-0.052414
H141	H	1.643723	-0.026865	-0.052465
H142	H	1.718411	-0.090340	-0.094677
O143	O	1.140676	-0.455906	-0.000157
C144	C	0.944500	-0.463204	-0.052507
C145	C	1.071331	-0.437509	-0.052455
H146	H	0.888388	-0.448330	-0.094778
H147	H	0.962804	-0.511858	-0.052548
H148	H	0.888374	-0.448413	-0.010201
H149	H	1.127521	-0.452256	-0.094753
H150	H	1.052938	-0.388858	-0.052381
O151	O	1.111721	0.085432	-0.108569
C152	C	1.244739	0.136470	-0.172526
C153	C	1.172606	0.135584	-0.111945
H154	H	1.293961	0.177019	-0.175281
H155	H	1.318120	0.097450	-0.175281
H156	H	1.175452	0.135610	-0.211888
H157	H	1.241797	0.136463	-0.072548
H158	H	1.099208	0.174599	-0.109243
H159	H	1.361984	0.149008	0.181578
H160	H	1.243250	0.147593	0.081646
O161	O	1.713734	-0.214003	0.000075
C162	C	1.844871	-0.288398	0.052446
C163	C	1.719809	-0.248745	0.052420
H164	H	1.849835	-0.316488	0.094769
H165	H	1.849921	-0.316561	0.010184
H166	H	1.927491	-0.261466	0.052423
H167	H	1.637118	-0.275632	0.052465
H168	H	1.714869	-0.220579	0.094678
H169	H	0.721595	0.020022	-0.081666
O170	O	1.250990	-0.618506	-0.000112
C171	C	1.055823	-0.589491	-0.052477
C172	C	1.180949	-0.629098	-0.052458
H173	H	0.999171	-0.598032	-0.094800
H174	H	0.998954	-0.598068	-0.010215
H175	H	1.076756	-0.543017	-0.052446
H176	H	1.160130	-0.675587	-0.052510
H177	H	1.237780	-0.620472	-0.094715
H178	H	1.684370	-0.647074	-0.000027
H179	H	1.006601	0.023426	0.158187
O180	O	1.257661	-0.019838	0.562791
C181	C	1.251411	-0.096798	0.634578
C182	C	1.334643	-0.058429	0.599554
H183	H	1.313619	-0.128016	0.664299
H184	H	1.181722	-0.069122	0.664407
H185	H	1.197267	-0.121686	0.600917
H186	H	1.388867	-0.033533	0.633171
H187	H	1.404253	-0.086136	0.569716
O188	O	1.120334	0.019443	0.265719
C189	C	1.100215	-0.075811	0.301802
C190	C	1.135902	-0.038567	0.248308
H191	H	1.112763	-0.122718	0.287739
H192	H	1.163836	-0.069355	0.342287
H193	H	0.997529	-0.062922	0.314970
H194	H	1.238562	-0.051432	0.235086
H195	H	1.072196	-0.045026	0.207857
O196	O	1.248096	-0.735652	-0.000006
C197	C	1.144174	-0.821558	-0.000055
C198	C	1.270955	-0.795820	-0.000065
H199	H	1.162612	-0.870207	-0.000115
H200	H	1.087984	-0.806803	0.042245
H201	H	1.088060	-0.806710	-0.042334
H202	H	1.327171	-0.810656	0.042186
H203	H	1.327050	-0.810572	-0.042392
H204	H	1.303033	0.087636	0.269824
O205	O	0.973615	0.149644	-0.157313
C206	C	1.096166	0.217398	-0.204996
C207	C	0.988440	0.179311	-0.212056
H208	H	1.108204	0.241385	-0.249252
H209	H	1.072424	0.249404	-0.166703
H210	H	1.187691	0.189566	-0.193815
H211	H	0.896872	0.207096	-0.223259
H212	H	1.012290	0.147301	-0.250335
O213	O	1.143845	-0.338802	-0.000150
C214	C	1.012793	-0.264351	-0.052481
C215	C	1.137875	-0.303990	-0.052441
H216	H	1.007937	-0.236187	-0.094747
H217	H	0.930094	-0.291238	-0.052525
H218	H	1.007786	-0.236254	-0.010170
H219	H	1.143005	-0.332094	-0.094744
H220	H	1.220515	-0.277069	-0.052366
O221	O	1.631572	0.152612	0.144731
C222	C	1.679350	0.248669	0.125227
C223	C	1.596063	0.210289	0.160201
H224	H	1.650655	0.295310	0.137712
H225	H	1.782633	0.236453	0.137729
H226	H	1.666364	0.242657	0.074308
H227	H	1.608941	0.216281	0.211127
H228	H	1.492812	0.222514	0.147648
H229	H	0.839553	0.142727	-0.258177
O230	O	0.587479	0.013141	-0.182513
C231	C	0.465030	-0.054666	-0.134853
C232	C	0.572797	-0.016600	-0.127804
H233	H	0.453142	-0.078730	-0.090632
H234	H	0.373422	-0.026868	-0.145972
H235	H	0.488805	-0.086612	-0.173196
H236	H	0.549142	0.015353	-0.089456
H237	H	0.664372	-0.044433	-0.116717
O238	O	1.265420	-0.071940	-0.000083
C239	C	1.070290	-0.042900	-0.052469
C240	C	1.195392	-0.082524	-0.052435
H241	H	1.013649	-0.051435	-0.094797
H242	H	1.013394	-0.051465	-0.010213
H243	H	1.091258	0.003570	-0.052438
H244	H	1.174538	-0.129008	-0.052487
H245	H	1.252250	-0.073909	-0.094687
O246	O	1.631867	0.152498	0.269979
C247	C	1.842933	0.175616	0.289410
C248	C	1.759563	0.137264	0.254485
H249	H	1.946193	0.163306	0.276905
H250	H	1.814438	0.222265	0.276884
H251	H	1.829884	0.169645	0.340336
H252	H	1.772569	0.143186	0.203550
H253	H	1.788078	0.090630	0.267061
O254	O	1.707566	0.187402	0.437329
C255	C	1.857743	0.256576	0.444023
C256	C	1.774372	0.218227	0.478988
H257	H	1.911757	0.281516	0.477690
H258	H	1.927529	0.228885	0.414257
H259	H	1.795583	0.287748	0.414231
H260	H	1.836431	0.187048	0.508813
H261	H	1.704578	0.245953	0.508717
O262	O	1.707614	0.187305	0.562638
C263	C	1.877096	0.191333	0.634437
C264	C	1.793727	0.153000	0.599484
H265	H	1.946721	0.163614	0.664245
H266	H	1.931293	0.216233	0.600783
H267	H	1.814920	0.222542	0.664190
H268	H	1.855810	0.121759	0.569730
H269	H	1.739521	0.128140	0.633170
O270	O	1.631585	0.152597	0.729811
C271	C	1.637881	0.229501	0.657959
C272	C	1.554637	0.191122	0.692962
H273	H	1.575705	0.260650	0.628149
H274	H	1.691970	0.254459	0.691580
H275	H	1.707618	0.201774	0.628203
H276	H	1.484830	0.218807	0.722719
H277	H	1.500638	0.166161	0.659308
H278	H	0.661845	0.079940	-0.269865
H279	H	1.345101	0.020561	0.850299
