data_functionalizedCrystal
_audit_creation_method	'MofGen! by Chris Wilmer'
_symmetry_space_group_name_H-M	'P1'
_symmetry_Int_Tables_number	1
_symmetry_cell_setting	triclinic
loop_
_symmetry_equiv_pos_as_xyz
  x,y,z
_cell_length_a	6.817900
_cell_length_b	10.992723
_cell_length_c	10.992410
_cell_angle_alpha	91.830958
_cell_angle_beta	108.764651
_cell_angle_gamma	108.770285
loop_
_atom_site_label
_atom_site_type_symbol
_atom_site_fract_x
_atom_site_fract_y
_atom_site_fract_z
V1	V	-4.114281	-0.177763	-0.400582
O2	O	-4.072374	0.008542	-0.392968
O3	O	-4.091893	-0.352473	-0.397831
O4	O	-4.091873	-0.175028	-0.575295
O5	O	-4.072394	-0.170131	-0.214276
V6	V	-4.591171	-0.155478	-0.378300
O7	O	-4.390091	-0.226645	-0.449460
O8	O	-4.765559	-0.106596	-0.329421
O9	O	-4.390353	0.019232	-0.381050
O10	O	-4.750475	-0.341783	-0.385913
O11	O	-4.750455	-0.163110	-0.564605
O12	O	-4.390373	-0.158213	-0.203587
C13	C	-3.942380	-0.395064	-0.391509
C14	C	-4.005535	-0.537892	-0.390424
C15	C	-4.317466	-0.748833	-0.396136
C16	C	-4.252189	-0.600354	-0.397761
C17	C	-3.982608	-0.607105	-0.509425
C18	C	-4.049772	-0.755778	-0.508444
C19	C	-3.918395	-0.717504	-0.262824
C20	C	-3.856042	-0.568782	-0.262474
C21	C	-3.942354	-0.168714	-0.617879
C22	C	-4.005488	-0.167634	-0.760708
C23	C	-3.872609	-0.157797	-0.955832
C24	C	-3.807059	-0.159452	-0.807348
C25	C	-4.203527	-0.294316	-0.837804
C26	C	-4.267841	-0.293195	-0.986371
C27	C	-4.145561	-0.047894	-0.948354
C28	C	-4.074852	-0.047293	-0.799341
C29	C	-4.203208	0.061816	-0.387369
C30	C	-4.119293	0.204643	-0.388462
C31	C	-4.203234	-0.164532	-0.160995
C32	C	-4.119337	-0.165605	-0.018165
H33	H	-3.957867	-0.742960	-0.171595
N34	N	-3.879650	-0.507064	-0.145751
H35	H	-3.986725	-0.459288	-0.175615
H36	H	-3.730670	-0.443856	-0.088040
H37	H	-4.449845	-0.304211	-1.029001
N38	N	-4.247240	-0.411245	-1.047667
H39	H	-4.395615	-0.466642	-1.113236
H40	H	-4.196473	-0.463421	-0.978035
H41	H	-4.042629	0.048305	-0.968719
N42	N	-3.748332	-0.553538	-0.508330
H43	H	-3.685895	-0.625783	-0.503219
H44	H	-3.654751	-0.483709	-0.430492
H45	H	-4.090296	-0.586919	-0.604107
H46	H	-3.658587	-0.068363	-0.754014
N47	N	-3.614144	-0.510398	-0.245502
H48	H	-3.570100	-0.412937	-0.240800
H49	H	-3.588200	-0.547415	-0.321788
H50	H	-4.353905	-0.304877	-0.809000
N51	N	-4.237145	-0.824434	-0.633758
H52	H	-4.275423	-0.758026	-0.689113
H53	H	-4.370786	-0.878208	-0.613630
H54	H	-3.931581	0.046420	-0.746989
N55	N	-4.263100	-0.045317	-0.756283
H56	H	-4.304013	0.032990	-0.782415
H57	H	-4.215940	-0.040580	-0.658721
N58	N	-3.721343	-0.756186	-0.253795
H59	H	-3.592789	-0.705860	-0.172899
H60	H	-3.678994	-0.736283	-0.332882
N61	N	-4.514597	-0.820525	-0.516203
H62	H	-4.643574	-0.870478	-0.489998
H63	H	-4.475892	-0.882943	-0.565589
N64	N	-4.142945	-0.412669	-0.803881
H65	H	-4.009606	-0.408560	-0.827338
H66	H	-4.271551	-0.493629	-0.853987
H67	H	-4.324546	-0.052498	-0.989195
N68	N	-3.717316	-0.036317	-0.980782
H69	H	-3.805383	0.014837	-1.032737
H70	H	-3.631890	-0.061167	-1.031115
N71	N	-4.285151	-0.537880	-0.285096
H72	H	-4.339372	-0.606508	-0.232872
H73	H	-4.398007	-0.494631	-0.319263
H74	H	-4.375016	-0.774000	-0.310573
H75	H	-3.847687	-0.242373	-1.003819
N76	N	-3.731240	-0.273001	-0.774447
H77	H	-3.740342	-0.322182	-0.856458
H78	H	-3.829302	-0.332748	-0.732896
H79	H	-4.369438	-0.581708	-0.489581
H80	H	-3.905367	-0.786810	-0.508115
