data_functionalizedCrystal
_audit_creation_method	'MofGen! by Chris Wilmer'
_symmetry_space_group_name_H-M	'P1'
_symmetry_Int_Tables_number	1
_symmetry_cell_setting	triclinic
loop_
_symmetry_equiv_pos_as_xyz
  x,y,z
_cell_length_a	16.974885
_cell_length_b	14.853567
_cell_length_c	15.455425
_cell_angle_alpha	87.020188
_cell_angle_beta	90.646018
_cell_angle_gamma	83.513424
loop_
_atom_site_label
_atom_site_type_symbol
_atom_site_fract_x
_atom_site_fract_y
_atom_site_fract_z
O1	O	1.049198	0.114801	0.001459
O2	O	0.819701	0.130225	-0.014637
O3	O	0.940580	-0.008754	-0.006162
O4	O	0.928319	0.253780	-0.007016
O5	O	0.934400	-0.015739	0.137664
O6	O	0.813521	0.123240	0.129189
O7	O	1.043019	0.107816	0.145285
Cu8	Cu	0.927706	0.114890	0.150370
Cu9	Cu	0.935014	0.123150	-0.019722
O10	O	0.922140	0.246795	0.136810
C11	C	0.787241	0.126276	0.055216
C12	C	0.699726	0.124908	0.049078
C13	C	0.207482	0.117583	0.006052
C14	C	0.289711	0.118869	0.011831
C15	C	0.327448	0.115711	0.093121
C16	C	0.282953	0.111258	0.168637
C17	C	0.200727	0.109966	0.162857
C18	C	0.573006	0.119162	0.118814
C19	C	0.655237	0.120457	0.124588
C20	C	0.661990	0.128067	-0.032218
C21	C	0.579761	0.126780	-0.037991
C22	C	0.535274	0.122322	0.037525
N23	N	0.411498	0.117028	0.099030
N24	N	0.451226	0.120998	0.031615
C25	C	0.936935	-0.045832	0.065710
C26	C	0.935270	-0.145905	0.065586
C27	C	0.856428	-0.557958	0.060072
C28	C	1.000034	-0.580117	0.070144
C29	C	1.001600	-0.486092	0.070249
C30	C	0.930578	-0.427996	0.065267
C31	C	0.857991	-0.463925	0.060180
C32	C	1.074186	-0.450157	0.075345
C33	C	1.075754	-0.356127	0.075450
C34	C	1.004732	-0.298029	0.070462
C35	C	0.932141	-0.333963	0.065374
C36	C	0.861120	-0.275867	0.060391
C37	C	0.788529	-0.311798	0.055297
C38	C	0.786968	-0.405827	0.055191
C39	C	1.006292	-0.204001	0.070568
C40	C	0.862683	-0.181834	0.060499
C41	C	1.075479	0.111764	0.075430
C42	C	1.162993	0.113133	0.081562
C43	C	0.925785	0.283873	0.064936
C44	C	0.927449	0.383946	0.065055
N45	N	0.922571	0.109079	0.270003
N46	N	0.940154	0.128954	-0.139355
C47	C	0.894228	0.076682	0.812012
C48	C	0.898106	0.081111	0.721477
C49	C	0.947906	0.137818	0.679578
C50	C	0.993837	0.190092	0.728219
C51	C	0.989963	0.185657	0.818752
C52	C	0.964629	0.156919	0.409176
C53	C	0.968497	0.161352	0.318637
C54	C	0.872767	0.052369	0.311902
C55	C	0.868894	0.047943	0.402436
C56	C	0.914828	0.100214	0.451069
N57	N	0.951869	0.142348	0.587037
N58	N	0.910869	0.095678	0.543609
H59	H	0.698220	0.131695	-0.093699
Cl60	Cl	0.702677	0.116486	0.226789
H61	H	1.027361	0.228223	0.858348
H62	H	1.057857	-0.627424	0.074207
Cl63	Cl	1.167009	-0.310964	0.081840
Cl64	Cl	0.517087	0.113582	0.213749
H65	H	0.176762	0.120162	-0.060143
Cl66	Cl	0.815028	-0.013342	0.250759
Cl67	Cl	0.765176	-0.603126	0.053660
H68	H	1.132007	-0.497465	0.079409
H69	H	0.804847	-0.134537	0.056438
Cl70	Cl	0.699248	-0.238753	0.049041
H71	H	1.034389	0.236260	0.694097
Cl72	Cl	0.330394	0.107286	0.270831
Cl73	Cl	1.031130	0.232620	0.265966
H74	H	0.325931	0.122487	-0.049657
Cl75	Cl	0.695720	-0.451004	0.048785
H76	H	1.065394	-0.174750	0.074721
H77	H	0.853671	0.030510	0.846119
H78	H	0.860710	0.038542	0.681884
H79	H	1.002031	0.199482	0.448762
Cl80	Cl	0.806281	-0.023344	0.455103
Cl81	Cl	0.532326	0.130751	-0.140188
Cl82	Cl	0.144798	0.104363	0.257789
