data_functionalizedCrystal
_audit_creation_method	'MofGen! by Chris Wilmer'
_symmetry_space_group_name_H-M	'P1'
_symmetry_Int_Tables_number	1
_symmetry_cell_setting	triclinic
loop_
_symmetry_equiv_pos_as_xyz
  x,y,z
_cell_length_a	18.215407
_cell_length_b	12.594516
_cell_length_c	18.215399
_cell_angle_alpha	90.022106
_cell_angle_beta	90.019833
_cell_angle_gamma	90.016501
loop_
_atom_site_label
_atom_site_type_symbol
_atom_site_fract_x
_atom_site_fract_y
_atom_site_fract_z
Zn1	Zn	1.125117	-0.423740	0.416146
Zn2	Zn	1.458450	-0.090407	0.749479
Zn3	Zn	1.791784	0.242926	1.082812
Zn4	Zn	1.125045	-0.601738	0.293092
Zn5	Zn	1.458378	-0.268404	0.626425
Zn6	Zn	1.791711	0.064929	0.959759
Zn7	Zn	1.002050	-0.423775	0.293093
Zn8	Zn	1.335383	-0.090442	0.626426
Zn9	Zn	1.668716	0.242892	0.959760
Zn10	Zn	1.002035	-0.601679	0.416117
Zn11	Zn	1.335368	-0.268345	0.749450
Zn12	Zn	1.668701	0.064988	1.082784
O13	O	1.063561	-0.512733	0.354612
O14	O	1.396895	-0.179400	0.687945
O15	O	1.730228	0.153934	1.021279
O16	O	1.228092	-0.447362	0.399834
O17	O	1.561425	-0.114029	0.733167
O18	O	1.894758	0.219304	1.066501
O19	O	1.108705	-0.578170	0.190108
O20	O	1.442038	-0.244837	0.523441
O21	O	1.775372	0.088497	0.856775
O22	O	1.018412	-0.274825	0.309429
O23	O	1.351745	0.058509	0.642762
O24	O	1.685078	0.391842	0.976096
O25	O	1.228038	-0.578136	0.309427
O26	O	1.561372	-0.244803	0.642760
O27	O	1.894705	0.088530	0.976094
O28	O	1.108829	-0.274799	0.399835
O29	O	1.442162	0.058534	0.733168
O30	O	1.775495	0.391868	1.066502
O31	O	1.018341	-0.447422	0.190109
O32	O	1.351675	-0.114088	0.523442
O33	O	1.685008	0.219245	0.856775
O34	O	0.899063	-0.447364	0.309401
O35	O	1.232397	-0.114031	0.642734
O36	O	1.565730	0.219302	0.976068
O37	O	1.018386	-0.578035	0.519105
O38	O	1.351719	-0.244702	0.852438
O39	O	1.685052	0.088631	1.185772
O40	O	0.899052	-0.578069	0.399786
O41	O	1.232386	-0.244736	0.733119
O42	O	1.565719	0.088598	1.066453
O43	O	1.108814	-0.447305	0.519126
O44	O	1.442147	-0.113971	0.852460
O45	O	1.775481	0.219362	1.185793
O46	O	1.108690	-0.750676	0.309399
O47	O	1.442024	-0.417342	0.642732
O48	O	1.775357	-0.084009	0.976066
O49	O	1.018315	-0.750632	0.399785
O50	O	1.351649	-0.417299	0.733118
O51	O	1.684982	-0.083966	1.066452
C52	C	0.872355	-0.512715	0.354591
C53	C	1.205689	-0.179381	0.687924
C54	C	1.539022	0.153952	1.021258
C55	C	0.790556	-0.512733	0.354599
C56	C	1.123890	-0.179399	0.687933
C57	C	1.457223	0.153934	1.021266
C58	C	0.602376	-0.580898	0.401604
C59	C	0.935709	-0.247564	0.734937
C60	C	1.269043	0.085769	1.068270
C61	C	0.525517	-0.580901	0.401613
C62	C	0.858850	-0.247568	0.734946
C63	C	1.192184	0.085766	1.068280
C64	C	0.525499	-0.444588	0.307636
C65	C	0.858832	-0.111254	0.640970
C66	C	1.192166	0.222079	0.974303
C67	C	0.602356	-0.444580	0.307631
C68	C	0.935690	-0.111246	0.640965
C69	C	1.269023	0.222087	0.974298
C70	C	0.640793	-0.512741	0.354614
C71	C	0.974126	-0.179407	0.687947
C72	C	1.307459	0.153926	1.021281
C73	C	0.487077	-0.512752	0.354628
C74	C	0.820410	-0.179419	0.687961
C75	C	1.153743	0.153915	1.021295
C76	C	0.403743	-0.512755	0.354638
C77	C	0.737076	-0.179422	0.687971
C78	C	1.070410	0.153912	1.021304
C79	C	0.724132	-0.512737	0.354606
C80	C	1.057465	-0.179403	0.687939
C81	C	1.390798	0.153930	1.021272
C82	C	1.063513	-0.789274	0.354605
C83	C	1.396847	-0.455941	0.687938
C84	C	1.730180	-0.122607	1.021271
C85	C	1.063560	-0.907579	0.354626
C86	C	1.396893	-0.574246	0.687960
C87	C	1.730227	-0.240913	1.021293
C88	C	1.014400	-0.976847	0.403753
C89	C	1.347734	-0.643514	0.737086
C90	C	1.681067	-0.310181	1.070419
C91	C	0.996471	-1.047706	0.336600
C92	C	1.329804	-0.714373	0.669933
C93	C	1.663138	-0.381039	1.003266
C94	C	1.081556	-1.047520	0.421791
C95	C	1.414890	-0.714186	0.755124
C96	C	1.748223	-0.380853	1.088457
C97	C	1.045595	-0.976880	0.287438
C98	C	1.378928	-0.643546	0.620771
C99	C	1.712262	-0.310213	0.954104
C100	C	1.130712	-0.976687	0.372674
C101	C	1.464045	-0.643354	0.706007
C102	C	1.797378	-0.310020	1.039341
C103	C	1.112808	-1.047514	0.305475
C104	C	1.446141	-0.714180	0.638808
C105	C	1.779475	-0.380847	0.972142
C106	C	1.255514	-0.512752	0.354634
C107	C	1.588848	-0.179419	0.687967
C108	C	1.922181	0.153915	1.021300
C109	C	1.337313	-0.512760	0.354643
C110	C	1.670647	-0.179427	0.687976
C111	C	2.003980	0.153907	1.021309
C112	C	1.063606	-0.512660	0.546565
C113	C	1.396940	-0.179326	0.879898
C114	C	1.730273	0.154007	1.213232
C115	C	1.063625	-0.512628	0.628364
C116	C	1.396959	-0.179295	0.961697
C117	C	1.730292	0.154038	1.295031
C118	C	1.063630	-0.235112	0.354635
C119	C	1.396963	0.098221	0.687969
C120	C	1.730297	0.431555	1.021302
C121	C	1.063659	-0.116807	0.354645
C122	C	1.396992	0.216527	0.687979
C123	C	1.730326	0.549860	1.021312
C124	C	1.063559	-0.512729	0.163406
C125	C	1.396892	-0.179396	0.496739
C126	C	1.730226	0.153937	0.830072
C127	C	1.063683	-0.512461	0.081607
C128	C	1.397016	-0.179127	0.414941
C129	C	1.730349	0.154206	0.748274
C130	C	1.110728	-0.444493	0.816570
C131	C	1.444062	-0.111160	1.149903
C132	C	1.777395	0.222173	1.483237
C133	C	1.110737	-0.444462	0.893429
C134	C	1.444070	-0.111129	1.226762
C135	C	1.777404	0.222204	1.560096
C136	C	1.016575	-0.580599	0.893396
C137	C	1.349908	-0.247265	1.226729
C138	C	1.683241	0.086068	1.560062
C139	C	1.016563	-0.580624	0.816538
C140	C	1.349896	-0.247290	1.149872
C141	C	1.683229	0.086043	1.483205
C142	C	1.063644	-0.512572	0.778127
C143	C	1.396977	-0.179239	1.111461
C144	C	1.730310	0.154094	1.444794
C145	C	1.063664	-0.512517	0.931844
C146	C	1.396998	-0.179183	1.265177
C147	C	1.730331	0.154150	1.598510
C148	C	1.063674	-0.512483	1.015177
C149	C	1.397007	-0.179150	1.348511
C150	C	1.730340	0.154183	1.681844
C151	C	1.063634	-0.512604	0.694788
C152	C	1.396967	-0.179271	1.028122
C153	C	1.730300	0.154063	1.361455
H154	H	0.494195	-0.389095	0.269384
H155	H	0.827528	-0.055762	0.602717
H156	H	1.160861	0.277572	0.936050
Br157	Br	0.952685	-0.672953	0.945529
Br158	Br	1.286018	-0.339620	1.278862
Br159	Br	1.619351	-0.006286	1.612196
H160	H	0.633636	-0.389071	0.269367
H161	H	0.966970	-0.055738	0.602700
H162	H	1.300303	0.277595	0.936033
Br163	Br	1.106858	-1.099246	0.516446
Br164	Br	1.440191	-0.765913	0.849779
Br165	Br	1.773525	-0.432580	1.183113
Br166	Br	0.654538	-0.673399	0.465367
Br167	Br	0.987871	-0.340066	0.798700
Br168	Br	1.321204	-0.006732	1.132034
Br169	Br	0.473382	-0.673399	0.465391
Br170	Br	0.806716	-0.340065	0.798724
Br171	Br	1.140049	-0.006732	1.132058
Br172	Br	0.944991	-0.925126	0.472898
Br173	Br	1.278324	-0.591793	0.806232
Br174	Br	1.611658	-0.258460	1.139565
Br175	Br	1.225267	-0.924655	0.398144
Br176	Br	1.558601	-0.591322	0.731477
Br177	Br	1.891934	-0.257989	1.064810
H178	H	1.149063	-0.389079	0.785298
H179	H	1.482396	-0.055745	1.118632
H180	H	1.815729	0.277588	1.451965
H181	H	0.939728	-1.078924	0.321350
H182	H	1.273061	-0.745591	0.654683
H183	H	1.606395	-0.412258	0.988017
H184	H	1.030348	-0.945979	0.230630
H185	H	1.363681	-0.612645	0.563963
H186	H	1.697015	-0.279312	0.897296
Br187	Br	1.182173	-1.098905	0.236170
Br188	Br	1.515507	-0.765572	0.569503
Br189	Br	1.848840	-0.432239	0.902836
Br190	Br	1.174646	-0.352073	0.945599
Br191	Br	1.507979	-0.018739	1.278932
Br192	Br	1.841313	0.314594	1.612265
Br193	Br	0.952651	-0.673014	0.764361
Br194	Br	1.285984	-0.339681	1.097694
Br195	Br	1.619317	-0.006347	1.431028
