data_functionalizedCrystal
_audit_creation_method	'MofGen! by Chris Wilmer'
_symmetry_space_group_name_H-M	'P1'
_symmetry_Int_Tables_number	1
_symmetry_cell_setting	triclinic
loop_
_symmetry_equiv_pos_as_xyz
  x,y,z
_cell_length_a	10.540510
_cell_length_b	10.540510
_cell_length_c	14.185569
_cell_angle_alpha	76.714084
_cell_angle_beta	103.287565
_cell_angle_gamma	84.513311
loop_
_atom_site_label
_atom_site_type_symbol
_atom_site_fract_x
_atom_site_fract_y
_atom_site_fract_z
O1	O	1.657351	0.207247	-0.083418
O2	O	1.287932	0.224142	-0.083418
O3	O	1.481089	0.030985	-0.083417
O4	O	1.464194	0.400405	-0.083418
O5	O	1.538150	-0.026070	0.083417
O6	O	1.344992	0.167088	0.083417
O7	O	1.714412	0.150193	0.083417
Cu8	Cu	1.534912	0.153431	0.098650
Cu9	Cu	1.467431	0.220904	-0.098651
O10	O	1.521254	0.343350	0.083417
C11	C	1.269158	0.194356	-0.000000
C12	C	1.128209	0.190590	-0.000001
C13	C	0.910608	0.324907	-0.000384
C14	C	1.057334	0.328794	-0.000002
C15	C	1.116040	0.087262	0.095268
C16	C	0.969305	0.084198	0.095342
C17	C	0.904610	0.146201	-0.094381
C18	C	1.050522	0.153185	-0.095634
C19	C	1.508360	-0.044845	-0.000002
C20	C	1.504591	-0.185793	-0.000008
C21	C	1.638908	-0.403393	0.000374
C22	C	1.642795	-0.256668	-0.000007
C23	C	1.401260	-0.197964	-0.095277
C24	C	1.398196	-0.344699	-0.095351
C25	C	1.460206	-0.409388	0.094371
C26	C	1.467190	-0.263477	0.095625
C27	C	1.733184	0.179980	-0.000002
C28	C	1.874132	0.183749	-0.000009
C29	C	1.493983	0.419181	-0.000001
C30	C	1.497750	0.560131	-0.000001
N31	N	1.582384	0.105973	0.237422
N32	N	1.419970	0.268352	-0.237422
C33	C	1.280498	0.407728	0.605071
C34	C	1.316466	0.371788	0.710092
C35	C	1.487542	0.200811	0.710054
C36	C	1.451585	0.236733	0.605030
C37	C	1.348063	0.340193	0.552547
C38	C	1.519149	0.169198	0.552506
C39	C	1.483198	0.205121	0.447491
C40	C	1.379683	0.308580	0.395001
C41	C	1.312112	0.376116	0.447532
C42	C	1.622677	0.065744	0.604991
C43	C	1.690242	-0.001791	0.552467
C44	C	1.654285	0.034126	0.447451
C45	C	1.550770	0.137585	0.394960
C46	C	1.721857	-0.033411	0.394919
C47	C	1.685906	0.002513	0.289905
C48	C	1.514819	0.173508	0.289946
H49	H	1.063316	0.407496	-0.068297
O50	O	1.758760	-0.070372	0.233264
H51	H	1.688370	-0.116206	0.185438
O52	O	1.747058	-0.248736	0.090451
H53	H	1.749944	-0.143694	0.090272
H54	H	1.651948	0.036503	0.690501
H55	H	1.426143	-0.142866	-0.166176
H56	H	1.055030	0.228762	-0.166113
H57	H	1.109128	0.361083	0.068405
H58	H	1.368258	-0.216367	0.101378
O59	O	1.833520	-0.144987	0.451527
H60	H	1.795924	-0.223573	0.499381
H61	H	0.845281	0.402114	-0.068707
O62	O	1.430193	-0.365462	-0.189679
H63	H	1.346271	-0.400444	-0.234341
O64	O	0.883787	0.365045	0.089613
H65	H	0.844591	0.284895	0.134611
O66	O	1.264880	-0.133564	-0.099989
H67	H	1.269312	-0.092095	-0.034323
H68	H	1.542773	-0.258973	0.166104
H69	H	0.953440	0.108193	0.166556
H70	H	1.356661	-0.431747	0.095013
O71	O	1.403133	0.285079	0.233346
H72	H	1.324592	0.247384	0.185528
O73	O	1.243589	0.444630	0.766750
H74	H	1.137594	0.434392	0.746621
O75	O	1.599192	0.089221	0.766661
H76	H	1.612837	0.075579	0.848509
H77	H	1.171138	0.112149	0.166167
H78	H	1.350417	0.337831	0.309491
H79	H	1.227805	0.460355	0.404798
O80	O	1.168839	0.519317	0.548449
H81	H	1.127893	0.560251	0.602613
H82	H	1.716118	-0.468719	0.068696
O83	O	1.550789	-0.498307	0.190026
H84	H	1.542369	-0.602843	0.191399
O85	O	0.940809	-0.054683	0.101095
H86	H	0.960084	-0.085405	0.035259
O87	O	1.801891	-0.113381	0.609074
H88	H	1.815536	-0.127023	0.690923
H89	H	0.837361	0.214479	-0.166590
O90	O	1.180456	-0.049115	0.099988
H91	H	1.221929	-0.044684	0.034325
O92	O	1.112915	0.022129	-0.103248
H93	H	1.216008	0.027692	-0.107898
H94	H	0.882247	0.042658	-0.095024
H95	H	1.669205	-0.423672	-0.067561
O96	O	1.685528	-0.188036	-0.090631
H97	H	1.703482	-0.259634	-0.134360
O98	O	1.259315	-0.373196	-0.101102
H99	H	1.194636	-0.282204	-0.103824
