data_functionalizedCrystal
_audit_creation_method	'MofGen! by Chris Wilmer'
_symmetry_space_group_name_H-M	'P1'
_symmetry_Int_Tables_number	1
_symmetry_cell_setting	triclinic
loop_
_symmetry_equiv_pos_as_xyz
  x,y,z
_cell_length_a	17.038272
_cell_length_b	15.500227
_cell_length_c	10.654550
_cell_angle_alpha	92.855794
_cell_angle_beta	92.201757
_cell_angle_gamma	93.043705
loop_
_atom_site_label
_atom_site_type_symbol
_atom_site_fract_x
_atom_site_fract_y
_atom_site_fract_z
O1	O	1.042493	0.071835	-0.267428
O2	O	1.542493	0.571835	0.232572
O3	O	0.814839	0.071861	-0.263094
O4	O	1.314839	0.571861	0.236906
O5	O	0.933900	0.071842	-0.083008
O6	O	1.433900	0.571842	0.416992
O7	O	0.923432	0.071854	-0.447514
O8	O	1.423432	0.571854	0.052486
O9	O	0.926675	-0.072046	-0.093890
O10	O	1.426675	0.427954	0.406110
O11	O	0.807614	-0.072027	-0.273976
O12	O	1.307614	0.427973	0.226024
O13	O	1.035268	-0.072052	-0.278311
O14	O	1.535268	0.427948	0.221689
Cu15	Cu	0.920781	-0.085178	-0.277137
Cu16	Cu	1.420781	0.414822	0.222863
Cu17	Cu	0.929326	0.084986	-0.264267
Cu18	Cu	1.429326	0.584986	0.235733
O19	O	0.916207	-0.072034	-0.458396
O20	O	1.416207	0.427966	0.041604
C21	C	0.782077	-0.000080	-0.264594
C22	C	1.282077	0.499920	0.235406
C23	C	0.695218	-0.000070	-0.252836
C24	C	1.195218	0.499930	0.247164
N25	N	0.914777	-0.204862	-0.286188
N26	N	1.414777	0.295138	0.213812
C27	C	0.645707	-0.000067	-0.360780
C28	C	1.145707	0.499933	0.139220
C29	C	0.564094	-0.000080	-0.349726
C30	C	1.064094	0.499920	0.150274
C31	C	0.531995	-0.000089	-0.230727
C32	C	1.031995	0.499911	0.269273
C33	C	0.581512	-0.000094	-0.122775
C34	C	1.081512	0.499906	0.377225
C35	C	0.663123	-0.000088	-0.133831
C36	C	1.163123	0.499912	0.366169
C37	C	0.286017	-0.000113	-0.191671
C38	C	0.786017	0.499887	0.308329
C39	C	0.204400	-0.000117	-0.180624
C40	C	0.704400	0.499883	0.319376
C41	C	0.186988	-0.000104	-0.407576
C42	C	0.686988	0.499896	0.092424
C43	C	0.268602	-0.000092	-0.418621
C44	C	0.768602	0.499908	0.081379
C45	C	0.318112	-0.000102	-0.310669
C46	C	0.818112	0.499898	0.189331
C47	C	0.448573	-0.000099	-0.219426
C48	C	0.948573	0.499901	0.280574
C49	C	0.401531	-0.000099	-0.321972
C50	C	0.901531	0.499901	0.178028
C51	C	0.965245	-0.250146	-0.209912
C52	C	1.465245	0.249854	0.290088
C53	C	0.960712	-0.340718	-0.216770
C54	C	1.460712	0.159282	0.283230
C55	C	0.905713	-0.386004	-0.299911
C56	C	1.405713	0.113996	0.200089
C57	C	0.855240	-0.340713	-0.376191
C58	C	1.355240	0.159287	0.123809
C59	C	0.859770	-0.250143	-0.369326
C60	C	1.359770	0.249857	0.130674
C61	C	0.889393	-0.659469	-0.324621
C62	C	1.389393	-0.159469	0.175379
C63	C	0.884868	-0.750045	-0.331483
C64	C	1.384868	-0.250045	0.168517
C65	C	0.990339	-0.750044	-0.172060
C66	C	1.490339	-0.250044	0.327940
C67	C	0.994868	-0.659472	-0.165207
C68	C	1.494868	-0.159472	0.334793
C69	C	0.944392	-0.614189	-0.241482
C70	C	1.444392	-0.114189	0.258518
C71	C	0.901080	-0.478584	-0.306926
C72	C	1.401080	0.021416	0.193074
C73	C	0.949022	-0.521611	-0.234460
C74	C	1.449022	-0.021611	0.265540
C75	C	1.068030	-0.000110	-0.276810
C76	C	1.568030	0.499890	0.223190
C77	C	1.154889	-0.000114	-0.288568
C78	C	1.654889	0.499886	0.211432
C79	C	0.929519	-0.000101	-0.041580
C80	C	1.429519	0.499899	0.458420
C81	C	0.927219	-0.000100	0.098077
C82	C	1.427219	0.499900	0.598077
N83	N	0.935336	0.204670	-0.255207
N84	N	1.435336	0.704670	0.244793
C85	C	0.920588	-0.000088	-0.499824
C86	C	1.420588	0.499912	0.000176
C87	C	0.922888	-0.000084	-0.639481
C88	C	1.422888	0.499916	-0.139481
C89	C	0.997320	-0.000107	0.171053
C90	C	1.497320	0.499893	0.671053
C91	C	0.995155	-0.000096	0.302275
C92	C	1.495155	0.499904	0.802275
C93	C	0.852782	-0.000074	0.287534
C94	C	1.352782	0.499926	0.787534
C95	C	0.854948	-0.000079	0.156314
C96	C	1.354948	0.499921	0.656314
H97	H	0.671836	-0.000059	-0.457682
H98	H	1.171836	0.499941	0.042318
H99	H	0.793941	-0.000059	0.334967
H100	H	1.293941	0.499941	0.834967
F101	F	0.780333	-0.000065	0.078644
F102	F	1.280333	0.499935	0.578644
F103	F	0.134291	-0.000095	-0.522457
F104	F	0.634291	0.499905	-0.022457
F105	F	0.511404	-0.000073	-0.464616
F106	F	1.011404	0.499927	0.035384
H107	H	0.422427	-0.000130	-0.122538
H108	H	0.922427	0.499870	0.377462
H109	H	1.031434	-0.786922	-0.109959
H110	H	1.531434	-0.286922	0.390041
H111	H	0.703435	-0.000090	-0.045931
H112	H	1.203435	0.499910	0.454069
H113	H	0.818673	-0.213273	-0.431436
H114	H	1.318673	0.286727	0.068564
H115	H	0.840079	-0.786913	-0.399192
H116	H	1.340079	-0.286913	0.100808
H117	H	1.039652	-0.622602	-0.097507
H118	H	1.539652	-0.122602	0.402493
F119	F	1.014424	-0.388914	-0.135586
F120	F	1.514424	0.111086	0.364414
F121	F	1.069767	-0.000103	0.379937
F122	F	1.569767	0.499897	0.879937
H123	H	0.294731	-0.000075	-0.515521
H124	H	0.794731	0.499925	-0.015521
H125	H	1.056168	-0.000122	0.123640
H126	H	1.556168	0.499878	0.623640
F127	F	1.023786	-0.201958	-0.121426
F128	F	1.523786	0.298042	0.378574
F129	F	0.170239	-0.000141	-0.053964
F130	F	0.670239	0.499859	0.446036
H131	H	0.326319	-0.000122	-0.103769
H132	H	0.826319	0.499878	0.396231
H133	H	0.993799	-0.484737	-0.166761
H134	H	1.493799	0.015263	0.333239
H135	H	0.848295	-0.622606	-0.386730
H136	H	1.348295	-0.122606	0.113270
F137	F	0.842548	-0.526785	-0.395413
F138	F	1.342548	-0.026785	0.104587
F139	F	0.435696	-0.000093	-0.448616
F140	F	0.935696	0.499907	0.051384
F141	F	0.547346	-0.000109	0.003873
F142	F	1.047346	0.499891	0.503873
F143	F	0.796702	-0.388911	-0.464671
F144	F	1.296702	0.111089	0.035329
