data_functionalizedCrystal
_audit_creation_method	'MofGen! by Chris Wilmer'
_symmetry_space_group_name_H-M	'P1'
_symmetry_Int_Tables_number	1
_symmetry_cell_setting	triclinic
loop_
_symmetry_equiv_pos_as_xyz
  x,y,z
_cell_length_a	14.971486
_cell_length_b	17.019294
_cell_length_c	14.048226
_cell_angle_alpha	86.114596
_cell_angle_beta	89.998499
_cell_angle_gamma	83.504267
loop_
_atom_site_label
_atom_site_type_symbol
_atom_site_fract_x
_atom_site_fract_y
_atom_site_fract_z
O1	O	1.186691	0.102801	-0.087476
O2	O	0.926261	0.115111	-0.088511
O3	O	1.063741	-0.005870	-0.078576
O4	O	1.049211	0.223782	-0.097411
O5	O	1.063724	-0.005877	0.079746
O6	O	0.926244	0.115104	0.069811
O7	O	1.186675	0.102794	0.070846
Zn8	Zn	1.056457	0.108948	0.095465
Zn9	Zn	1.056479	0.108957	-0.113131
O10	O	1.049195	0.223775	0.060910
C11	C	0.892929	0.114557	-0.009308
C12	C	0.793636	0.112907	-0.009183
C13	C	0.736234	0.183981	-0.015011
C14	C	0.642939	0.182426	-0.014869
C15	C	0.607047	0.109797	-0.008906
C16	C	0.664456	0.038718	-0.003075
C17	C	0.757750	0.040274	-0.003210
C18	C	0.470002	0.035480	-0.002796
C19	C	0.376702	0.033924	-0.002663
C20	C	0.355190	0.177632	-0.014455
C21	C	0.448484	0.179188	-0.014590
C22	C	0.505887	0.108109	-0.008761
C23	C	1.063181	-0.035263	0.002993
C24	C	1.061528	-0.122836	0.010169
C25	C	1.060763	-0.163969	-0.072761
C26	C	1.059204	-0.246252	-0.066016
C27	C	1.058417	-0.287400	0.023660
C28	C	1.059180	-0.246261	0.106596
C29	C	1.060732	-0.163979	0.099850
C30	C	1.053723	-0.535838	0.048347
C31	C	1.052173	-0.618126	0.055087
C32	C	1.052195	-0.618111	-0.117525
C33	C	1.053753	-0.535828	-0.124264
C34	C	1.054511	-0.494695	-0.041328
C35	C	1.056826	-0.371507	0.030557
C36	C	1.056096	-0.410590	-0.048226
C37	C	1.220007	0.103348	-0.008359
C38	C	1.319300	0.104998	-0.008491
C39	C	1.049754	0.253168	-0.020661
C40	C	1.051407	0.340741	-0.027843
N41	N	1.056449	0.108941	0.237826
N42	N	1.056494	0.108958	-0.255491
C43	C	1.117344	0.055392	0.292042
C44	C	1.117350	0.055392	0.391700
C45	C	1.056464	0.108944	0.437140
C46	C	0.995563	0.162495	0.382917
C47	C	0.995553	0.162491	0.283261
C48	C	0.995588	0.162501	0.590631
C49	C	0.995599	0.162506	0.690293
C50	C	1.117385	0.055402	0.699069
C51	C	1.117376	0.055398	0.599413
C52	C	1.056475	0.108950	0.545197
H53	H	0.347482	-0.025217	0.002194
H54	H	0.477704	0.238329	-0.019455
H55	H	1.051576	-0.651610	-0.185047
H56	H	0.516737	-0.022400	0.001952
H57	H	1.058584	-0.279739	-0.133546
H58	H	1.166973	0.011798	0.743217
Cl59	Cl	0.919051	0.229831	0.747410
H60	H	0.635226	-0.020418	0.001794
Cl61	Cl	1.054745	-0.484105	-0.237003
H62	H	1.051527	-0.651627	0.128115
Cl63	Cl	0.570779	0.271779	-0.022202
H64	H	1.166935	0.011788	0.435842
H65	H	0.945993	0.206107	0.546491
H66	H	0.765449	0.243124	-0.019867
Cl67	Cl	0.283027	0.266989	-0.021782
H68	H	0.945984	0.206096	0.419920
Cl69	Cl	1.057090	-0.358859	-0.160957
H70	H	1.056188	-0.405020	0.103571
H71	H	1.061408	-0.130472	-0.145784
H72	H	1.054358	-0.502360	0.115879
Cl73	Cl	1.193923	-0.011921	0.542286
H74	H	0.945965	0.206095	0.239120
H75	H	1.058534	-0.279770	0.179612
Cl76	Cl	0.829913	-0.049080	0.004121
Cl77	Cl	1.061693	-0.112268	0.204109
H78	H	1.166928	0.011787	0.255051
