data_functionalizedCrystal
_audit_creation_method	'MofGen! by Chris Wilmer'
_symmetry_space_group_name_H-M	'P1'
_symmetry_Int_Tables_number	1
_symmetry_cell_setting	triclinic
loop_
_symmetry_equiv_pos_as_xyz
  x,y,z
_cell_length_a	15.944551
_cell_length_b	15.944493
_cell_length_c	15.021413
_cell_angle_alpha	89.992728
_cell_angle_beta	89.988701
_cell_angle_gamma	83.486891
loop_
_atom_site_label
_atom_site_type_symbol
_atom_site_fract_x
_atom_site_fract_y
_atom_site_fract_z
O1	O	1.114489	0.108329	0.073927
O2	O	0.869936	0.121686	0.073948
O3	O	0.998916	-0.007271	0.073945
O4	O	0.985509	0.237285	0.073931
O5	O	0.998931	-0.007263	-0.074120
O6	O	0.869951	0.121694	-0.074116
O7	O	1.114504	0.108337	-0.074137
Zn8	Zn	0.992230	0.115017	-0.097635
Zn9	Zn	0.992210	0.115006	0.097446
O10	O	0.985524	0.237293	-0.074133
C11	C	0.838650	0.121135	-0.000081
C12	C	0.745404	0.119473	-0.000073
C13	C	0.530565	0.035566	-0.000085
C14	C	0.469529	0.074526	0.072916
C15	C	0.574679	0.116465	-0.000083
C16	C	0.469566	0.074553	-0.073064
C17	C	0.409767	0.113555	-0.000097
C18	C	0.514871	0.155447	0.072979
C19	C	0.514915	0.155463	-0.073067
C20	C	0.453897	0.194481	-0.000048
C21	C	0.669681	0.118140	-0.000074
C22	C	0.314766	0.111886	-0.000099
C23	C	0.998375	-0.038562	-0.000084
C24	C	0.996733	-0.131810	-0.000072
C25	C	1.072653	-0.367570	-0.000095
C26	C	1.031705	-0.418142	0.072911
C27	C	0.993689	-0.302531	-0.000083
C28	C	1.031701	-0.418110	-0.073069
C29	C	0.990754	-0.467441	-0.000097
C30	C	0.952761	-0.351875	0.072984
C31	C	0.952769	-0.351840	-0.073061
C32	C	0.911763	-0.402379	-0.000037
C33	C	0.995381	-0.207531	-0.000074
C34	C	0.989055	-0.562438	-0.000100
C35	C	1.145790	0.108888	-0.000106
C36	C	1.239036	0.110550	-0.000108
C37	C	0.986064	0.268584	-0.000103
C38	C	0.987707	0.361833	-0.000109
N39	N	0.992249	0.115023	-0.230772
C40	C	1.051901	0.055380	-0.470433
C41	C	0.976005	0.039062	-0.529755
C42	C	0.992230	0.115013	-0.412379
C43	C	1.068108	0.131281	-0.529800
C44	C	0.992218	0.115001	-0.587803
C45	C	0.916295	0.098657	-0.470394
C46	C	1.008448	0.190909	-0.470434
C47	C	0.932497	0.174623	-0.529728
C48	C	0.992238	0.115018	-0.311322
C49	C	0.992201	0.114996	-0.688859
N50	N	0.992197	0.114993	0.230584
H51	H	0.563912	-0.031574	0.000009
C52	C	0.541844	0.201627	0.156449
H53	H	0.493445	0.219871	0.191262
H54	H	0.579884	0.164341	0.190577
H55	H	0.568834	0.249172	0.138997
H56	H	0.852107	0.084819	-0.444410
H57	H	1.132281	0.145047	-0.555894
C58	C	0.442354	0.028299	0.156291
H59	H	0.468866	-0.028153	0.156207
H60	H	0.458623	0.056490	0.208132
H61	H	0.382805	0.028026	0.155957
C62	C	1.027021	0.277592	-0.435195
H63	H	0.980698	0.301760	-0.400399
H64	H	1.076508	0.270782	-0.399514
H65	H	1.035309	0.313720	-0.483938
H66	H	0.881974	0.225051	-0.555599
H67	H	0.420724	0.261690	-0.000011
C68	C	0.907744	-0.312956	0.156463
H69	H	0.909108	-0.253544	0.155975
H70	H	0.850771	-0.325072	0.156683
H71	H	0.935599	-0.336232	0.208236
H72	H	0.535045	0.189655	-0.134791
H73	H	1.102311	0.004923	-0.444397
H74	H	0.449494	0.040324	-0.134778
C75	C	0.957460	-0.047646	-0.564966
H76	H	0.999912	-0.089951	-0.544670
H77	H	0.903964	-0.059619	-0.543753
H78	H	0.957084	-0.046863	-0.628203
H79	H	1.065046	-0.447091	0.134628
C80	C	1.164534	-0.346449	-0.000012
H81	H	1.174391	-0.314942	-0.051909
H82	H	1.174004	-0.314091	0.051362
H83	H	1.201892	-0.397292	0.000547
C84	C	0.819810	-0.423281	0.000022
H85	H	0.791888	-0.400381	0.051930
H86	H	0.791574	-0.399573	-0.051342
H87	H	0.819245	-0.482795	-0.000464
C88	C	0.907771	-0.312703	-0.156436
H89	H	0.935926	-0.335494	-0.208262
H90	H	0.850929	-0.325223	-0.156958
H91	H	0.908717	-0.253242	-0.155537
C92	C	1.076774	-0.457180	-0.156449
H93	H	1.133897	-0.445517	-0.156357
H94	H	1.074944	-0.516521	-0.156143
H95	H	1.049296	-0.433587	-0.208288
