data_functionalizedCrystal
_audit_creation_method	'MofGen! by Chris Wilmer'
_symmetry_space_group_name_H-M	'P1'
_symmetry_Int_Tables_number	1
_symmetry_cell_setting	triclinic
loop_
_symmetry_equiv_pos_as_xyz
  x,y,z
_cell_length_a	11.295483
_cell_length_b	17.699083
_cell_length_c	17.699083
_cell_angle_alpha	96.717152
_cell_angle_beta	85.914184
_cell_angle_gamma	85.903759
loop_
_atom_site_label
_atom_site_type_symbol
_atom_site_fract_x
_atom_site_fract_y
_atom_site_fract_z
O1	O	0.099007	-1.009183	0.090603
O2	O	0.599007	-0.509183	0.590603
O3	O	0.099014	-0.788805	0.103056
O4	O	0.599014	-0.288805	0.603056
O5	O	0.099000	-0.905219	-0.013360
O6	O	0.599000	-0.405219	0.486640
O7	O	0.099021	-0.892768	0.207018
O8	O	0.599021	-0.392768	0.707018
O9	O	-0.099050	-0.894994	-0.003150
O10	O	0.400950	-0.394994	0.496850
O11	O	-0.099036	-0.778580	0.113265
O12	O	0.400964	-0.278580	0.613265
O13	O	-0.099043	-0.998958	0.100812
O14	O	0.400957	-0.498958	0.600812
Cu15	Cu	-0.117123	-0.887835	0.107971
Cu16	Cu	0.382877	-0.387835	0.607971
Cu17	Cu	0.117094	-0.899927	0.095897
Cu18	Cu	0.617094	-0.399927	0.595897
O19	O	-0.099028	-0.882543	0.217227
O20	O	0.400972	-0.382543	0.717227
C21	C	-0.000010	-0.755495	0.107714
C22	C	0.499990	-0.255495	0.607714
C23	C	-0.000008	-0.671477	0.106376
C24	C	0.499992	-0.171477	0.606376
C25	C	-0.107966	-0.626436	0.111310
C26	C	0.392034	-0.126436	0.611310
C27	C	-0.107967	-0.547494	0.110040
C28	C	0.392033	-0.047494	0.610040
C29	C	-0.000008	-0.513593	0.103842
C30	C	0.499992	-0.013593	0.603842
C31	C	0.107958	-0.558640	0.098905
C32	C	0.607958	-0.058640	0.598905
C33	C	0.107958	-0.637582	0.100169
C34	C	0.607958	-0.137582	0.600169
C35	C	0.107961	-0.240278	0.093805
C36	C	0.607961	0.259722	0.593805
C37	C	0.107953	-0.161330	0.092544
C38	C	0.607953	0.338670	0.592544
C39	C	-0.107963	-0.150190	0.103677
C40	C	0.392037	0.349810	0.603677
C41	C	-0.107963	-0.229131	0.104941
C42	C	0.392037	0.270869	0.604941
C43	C	0.000002	-0.274172	0.100000
C44	C	0.500002	0.225828	0.600000
C45	C	0.000002	-0.359771	0.101375
C46	C	0.500002	0.140229	0.601375
C47	C	-0.000007	-0.427996	0.102472
C48	C	0.499993	0.072004	0.602472
N49	N	-0.281858	-0.879336	0.116462
N50	N	0.218142	-0.379336	0.616462
C51	C	-0.531158	-0.969617	0.026231
C52	C	-0.031158	-0.469617	0.526231
C53	C	-0.655821	-0.963199	0.032653
C54	C	-0.155821	-0.463199	0.532653
C55	C	-0.655849	-0.860079	0.135725
C56	C	-0.155849	-0.360079	0.635725
C57	C	-0.531186	-0.866497	0.129303
C58	C	-0.031186	-0.366497	0.629303
C59	C	-0.468845	-0.921268	0.074555
C60	C	0.031155	-0.421268	0.574555
C61	C	-0.344180	-0.927689	0.068136
C62	C	0.155820	-0.427689	0.568136
C63	C	-0.344210	-0.824566	0.171204
C64	C	0.155790	-0.324566	0.671204
C65	C	-0.468873	-0.818149	0.177627
C66	C	0.031127	-0.318149	0.677627
N67	N	0.281829	-0.908433	0.087399
N68	N	0.781829	-0.408433	0.587399
C69	C	-0.000025	-0.899661	-0.036452
C70	C	0.499975	-0.399661	0.463548
C71	C	-0.000026	-0.898322	-0.120470
C72	C	0.499974	-0.398322	0.379530
C73	C	-0.000015	-0.032268	0.096149
C74	C	0.499985	0.467732	0.596149
C75	C	-0.000006	-0.116288	0.097473
C76	C	0.499994	0.383712	0.597473
C77	C	-0.000030	-0.966655	-0.169091
C78	C	0.499970	-0.466655	0.330909
C79	C	-0.000019	-0.965394	-0.248035
C80	C	0.499981	-0.465394	0.251965
C81	C	-0.000013	-0.895797	-0.278356
C82	C	0.499987	-0.395797	0.221644
C83	C	-0.000006	-0.827459	-0.229729
C84	C	0.499994	-0.327459	0.270271
C85	C	-0.000008	-0.828722	-0.150787
C86	C	0.499992	-0.328722	0.349213
C87	C	0.000004	-0.822364	-0.548092
C88	C	0.500004	-0.322364	-0.048092
C89	C	0.000003	-0.821106	-0.627040
C90	C	0.500003	-0.321106	-0.127040
C91	C	-0.000007	-0.959036	-0.645340
C92	C	0.499993	-0.459036	-0.145340
C93	C	-0.000009	-0.960299	-0.566398
C94	C	0.499991	-0.460299	-0.066398
C95	C	0.000005	-0.891961	-0.517779
C96	C	0.500005	-0.391961	-0.017779
C97	C	-0.000005	-0.893330	-0.432179
C98	C	0.499995	-0.393330	0.067821
C99	C	-0.000012	-0.894427	-0.363953
C100	C	0.499988	-0.394427	0.136047
C101	C	-0.000001	-0.888102	0.240319
C102	C	0.499999	-0.388102	0.740319
C103	C	0.000007	-0.889441	0.324337
C104	C	0.500007	-0.389441	0.824337
H105	H	-0.195874	-0.113508	0.107697
H106	H	0.304126	0.386492	0.607697
C107	C	-0.226721	-0.663722	0.118115
C108	C	0.273279	-0.163722	0.618115
H109	H	-0.291016	-0.625589	0.120861
H110	H	0.208984	-0.125589	0.620861
H111	H	-0.231223	-0.688435	0.162954
H112	H	0.268777	-0.188435	0.662954
H113	H	-0.231199	-0.700137	0.074709
H114	H	0.268801	-0.200137	0.574709
C115	C	-0.462575	-1.029863	-0.033983
C116	C	0.037425	-0.529863	0.466017
H117	H	-0.379405	-1.026764	-0.030883
H118	H	0.120595	-0.526764	0.469117
H119	H	-0.483009	-1.020691	-0.083435
H120	H	0.016991	-0.520691	0.416565
H121	H	-0.482987	-1.079309	-0.024767
H122	H	0.017013	-0.579309	0.475233
H123	H	0.195871	-0.133731	0.087495
H124	H	0.695871	0.366269	0.587495
C125	C	-0.000040	-1.043210	-0.135741
C126	C	0.499960	-0.543210	0.364259
H127	H	-0.000052	-1.034177	-0.081761
H128	H	0.499948	-0.534177	0.418239
H129	H	0.069022	-1.074907	-0.155996
H130	H	0.569022	-0.574907	0.344004
H131	H	-0.069115	-1.067771	-0.148883
H132	H	0.430885	-0.567771	0.351117
H133	H	-0.000004	-0.773078	-0.111200
H134	H	0.499996	-0.273078	0.388800
H135	H	0.000007	-0.770793	-0.254422
H136	H	0.500007	-0.270793	0.245578
H137	H	0.195868	-0.674254	0.096152
H138	H	0.695868	-0.174254	0.596152
C139	C	-0.000035	-1.040560	-0.301514
C140	C	0.499965	-0.540560	0.198486
H141	H	-0.000057	-1.082188	-0.272149
H142	H	0.499943	-0.582188	0.227851
H143	H	0.069028	-1.046507	-0.336248
H144	H	0.569028	-0.546507	0.163752
H145	H	-0.069109	-1.039362	-0.329130
H146	H	0.430891	-0.539362	0.170870
H147	H	-0.293460	-0.785200	0.210555
H148	H	0.206540	-0.285200	0.710555
H149	H	0.195873	-0.276941	0.089779
H150	H	0.695873	0.223059	0.589779
H151	H	-0.000020	-1.016971	-0.541716
H152	H	0.499980	-0.516971	-0.041716
C153	C	-0.000003	-1.034208	-0.698825
C154	C	0.499997	-0.534208	-0.198825
H155	H	0.000014	-1.023493	-0.750184
H156	H	0.500014	-0.523493	-0.250184
H157	H	-0.069069	-1.059187	-0.686093
H158	H	0.430931	-0.559187	-0.186093
H159	H	0.069069	-1.066316	-0.693201
H160	H	0.569069	-0.566316	-0.193201
C161	C	0.000019	-0.744550	-0.660396
C162	C	0.500019	-0.244550	-0.160396
H163	H	0.000005	-0.753587	-0.714374
H164	H	0.500005	-0.253587	-0.214374
H165	H	0.069089	-0.719988	-0.647259
H166	H	0.569089	-0.219988	-0.147259
H167	H	-0.069049	-0.712850	-0.640141
H168	H	0.430951	-0.212850	-0.140141
C169	C	-0.226720	-0.497951	0.115474
C170	C	0.273280	0.002049	0.615474
H171	H	-0.291015	-0.529446	0.119358
H172	H	0.208985	-0.029446	0.619358
H173	H	-0.231223	-0.472780	0.071095
H174	H	0.268777	0.027220	0.571095
H175	H	-0.231196	-0.461069	0.159337
H176	H	0.268804	0.038931	0.659337
H177	H	-0.195874	-0.256728	0.109992
H178	H	0.304126	0.243272	0.609992
C179	C	0.226710	-0.521351	0.092088
C180	C	0.726710	-0.021351	0.592088
H181	H	0.211250	-0.467885	0.092050
H182	H	0.711250	0.032115	0.592050
H183	H	0.271067	-0.542432	0.045890
H184	H	0.771067	-0.042432	0.545890
H185	H	0.271068	-0.530724	0.134134
H186	H	0.771068	-0.030724	0.634134
C187	C	-0.000002	-0.747195	-0.494620
C188	C	0.499998	-0.247195	0.005380
H189	H	-0.000014	-0.705567	-0.523986
H190	H	0.499986	-0.205567	-0.023986
H191	H	0.069059	-0.748379	-0.466998
H192	H	0.569059	-0.248379	0.033002
H193	H	-0.069078	-0.741257	-0.459890
H194	H	0.430922	-0.241257	0.040110
H195	H	-0.706623	-0.815481	0.180295
H196	H	-0.206623	-0.315481	0.680295
C197	C	-0.724368	-1.016380	-0.020500
C198	C	-0.224368	-0.516380	0.479500
H199	H	-0.807542	-1.004712	-0.008840
H200	H	-0.307542	-0.504712	0.491160
H201	H	-0.703921	-1.067929	-0.013404
H202	H	-0.203921	-0.567929	0.486596
H203	H	-0.703942	-1.009298	-0.072057
H204	H	-0.203942	-0.509298	0.427943
H205	H	-0.293423	-0.972288	0.023560
H206	H	0.206577	-0.472288	0.523560
H207	H	-0.519645	-0.773553	0.222200
H208	H	-0.019645	-0.273553	0.722200
