data_functionalizedCrystal
_audit_creation_method	'MofGen! by Chris Wilmer'
_symmetry_space_group_name_H-M	'P1'
_symmetry_Int_Tables_number	1
_symmetry_cell_setting	triclinic
loop_
_symmetry_equiv_pos_as_xyz
  x,y,z
_cell_length_a	21.395362
_cell_length_b	16.120444
_cell_length_c	21.395355
_cell_angle_alpha	92.881464
_cell_angle_beta	89.956060
_cell_angle_gamma	92.943436
loop_
_atom_site_label
_atom_site_type_symbol
_atom_site_fract_x
_atom_site_fract_y
_atom_site_fract_z
Zn1	Zn	0.945240	-0.331660	-0.367218
Zn2	Zn	1.195240	-0.081660	-0.117218
Zn3	Zn	1.445240	0.168340	0.132782
Zn4	Zn	1.695240	0.418340	0.382782
Zn5	Zn	0.939838	-0.471059	-0.267751
Zn6	Zn	1.189838	-0.221059	-0.017751
Zn7	Zn	1.439838	0.028941	0.232249
Zn8	Zn	1.689838	0.278941	0.482249
Zn9	Zn	0.840453	-0.331699	-0.262421
Zn10	Zn	1.090453	-0.081699	-0.012421
Zn11	Zn	1.340453	0.168301	0.237579
Zn12	Zn	1.590453	0.418301	0.487579
Zn13	Zn	0.835119	-0.471077	-0.372456
Zn14	Zn	1.085119	-0.221077	-0.122456
Zn15	Zn	1.335119	0.028923	0.127544
Zn16	Zn	1.585119	0.278923	0.377544
O17	O	0.890163	-0.401374	-0.317462
O18	O	1.140163	-0.151374	-0.067462
O19	O	1.390163	0.098626	0.182538
O20	O	1.640163	0.348626	0.432538
O21	O	1.032202	-0.350128	-0.354062
O22	O	1.282202	-0.100128	-0.104062
O23	O	1.532202	0.149872	0.145938
O24	O	1.782202	0.399872	0.395938
O25	O	0.926626	-0.452582	-0.179366
O26	O	1.176626	-0.202582	0.070634
O27	O	1.426626	0.047418	0.320634
O28	O	1.676626	0.297418	0.570634
O29	O	0.858846	-0.215025	-0.271900
O30	O	1.108846	0.034975	-0.021900
O31	O	1.358846	0.284975	0.228100
O32	O	1.608846	0.534975	0.478100
O33	O	1.028234	-0.452544	-0.280984
O34	O	1.278234	-0.202544	-0.030984
O35	O	1.528234	0.047456	0.219016
O36	O	1.778234	0.297456	0.469016
O37	O	0.935833	-0.214996	-0.348895
O38	O	1.185833	0.035004	-0.098895
O39	O	1.435833	0.285004	0.151105
O40	O	1.685833	0.535004	0.401105
O41	O	0.853609	-0.350194	-0.175451
O42	O	1.103609	-0.100194	0.074549
O43	O	1.353609	0.149806	0.324549
O44	O	1.603609	0.399806	0.574549
O45	O	0.752067	-0.350211	-0.276979
O46	O	1.002067	-0.100211	-0.026979
O47	O	1.252067	0.149789	0.223021
O48	O	1.502067	0.399789	0.473021
O49	O	0.849755	-0.452574	-0.459439
O50	O	1.099755	-0.202574	-0.209439
O51	O	1.349755	0.047426	0.040561
O52	O	1.599755	0.297426	0.290561
O53	O	0.748148	-0.452611	-0.357821
O54	O	0.998148	-0.202611	-0.107821
O55	O	1.248148	0.047389	0.142179
O56	O	1.498148	0.297389	0.392179
O57	O	0.930660	-0.350145	-0.455591
O58	O	1.180660	-0.100145	-0.205591
O59	O	1.430660	0.149855	0.044409
O60	O	1.680660	0.399855	0.294409
O61	O	0.921454	-0.587731	-0.286062
O62	O	1.171454	-0.337731	-0.036062
O63	O	1.421454	-0.087731	0.213938
O64	O	1.671454	0.162269	0.463938
O65	O	0.844518	-0.587743	-0.362989
O66	O	1.094518	-0.337743	-0.112989
O67	O	1.344518	-0.087743	0.137011
O68	O	1.594518	0.162257	0.387011
C69	C	0.727373	-0.401418	-0.317391
C70	C	0.977373	-0.151418	-0.067391
C71	C	1.227373	0.098582	0.182609
C72	C	1.477373	0.348582	0.432609
C73	C	0.657731	-0.401457	-0.317376
C74	C	0.907731	-0.151457	-0.067376
C75	C	1.157731	0.098543	0.182624
C76	C	1.407731	0.348543	0.432624
C77	C	0.622991	-0.454847	-0.359413
C78	C	0.872991	-0.204847	-0.109413
C79	C	1.122991	0.045153	0.140587
C80	C	1.372991	0.295153	0.390587
C81	C	0.557556	-0.454827	-0.359440
C82	C	0.807556	-0.204827	-0.109440
C83	C	1.057556	0.045173	0.140560
C84	C	1.307556	0.295173	0.390560
C85	C	0.526864	-0.401425	-0.317419
C86	C	0.776864	-0.151425	-0.067419
C87	C	1.026864	0.098575	0.182581
C88	C	1.276864	0.348575	0.432581
C89	C	0.561612	-0.348024	-0.275379
C90	C	0.811612	-0.098024	-0.025379
C91	C	1.061612	0.151976	0.224621
C92	C	1.311612	0.401976	0.474621
C93	C	0.627045	-0.348040	-0.275357
C94	C	0.877045	-0.098040	-0.025357
C95	C	1.127045	0.151960	0.224643
C96	C	1.377045	0.401960	0.474643
C97	C	0.423394	-0.394708	-0.260758
C98	C	0.673394	-0.144708	-0.010758
C99	C	0.923394	0.105292	0.239242
C100	C	1.173394	0.355292	0.489242
C101	C	0.357962	-0.394698	-0.260779
C102	C	0.607962	-0.144698	-0.010779
C103	C	0.857962	0.105302	0.239221
C104	C	1.107962	0.355302	0.489221
C105	C	0.325045	-0.401370	-0.317486
C106	C	0.575045	-0.151370	-0.067486
C107	C	0.825045	0.098630	0.182514
C108	C	1.075045	0.348630	0.432514
C109	C	0.357568	-0.408070	-0.374175
C110	C	0.607568	-0.158070	-0.124175
C111	C	0.857568	0.091930	0.125825
C112	C	1.107568	0.341930	0.375825
C113	C	0.423002	-0.408086	-0.374153
C114	C	0.673002	-0.158086	-0.124153
C115	C	0.923002	0.091914	0.125847
C116	C	1.173002	0.341914	0.375847
C117	C	0.455912	-0.401401	-0.317438
C118	C	0.705912	-0.151401	-0.067438
C119	C	0.955912	0.098599	0.182562
C120	C	1.205912	0.348599	0.432562
C121	C	0.219353	-0.454741	-0.359556
C122	C	0.469353	-0.204741	-0.109556
C123	C	0.719353	0.045259	0.140444
C124	C	0.969353	0.295259	0.390444
C125	C	0.153918	-0.454715	-0.359584
C126	C	0.403918	-0.204715	-0.109584
C127	C	0.653918	0.045285	0.140416
C128	C	0.903918	0.295285	0.390416
C129	C	0.157975	-0.347917	-0.275518
C130	C	0.407975	-0.097917	-0.025518
C131	C	0.657975	0.152083	0.224482
C132	C	0.907975	0.402083	0.474482
C133	C	0.223409	-0.347939	-0.275495
C134	C	0.473409	-0.097939	-0.025495
C135	C	0.723409	0.152061	0.224505
C136	C	0.973409	0.402061	0.474505
C137	C	0.254094	-0.401355	-0.317514
C138	C	0.504094	-0.151355	-0.067514
C139	C	0.754094	0.098645	0.182486
C140	C	1.004094	0.348645	0.432486
C141	C	0.881838	-0.617988	-0.325686
C142	C	1.131838	-0.367988	-0.075686
C143	C	1.381838	-0.117988	0.174314
C144	C	1.631838	0.132012	0.424314
C145	C	0.878334	-0.710657	-0.329225
C146	C	1.128334	-0.460657	-0.079225
C147	C	1.378334	-0.210657	0.170775
C148	C	1.628334	0.039343	0.420775
C149	C	0.908494	-0.921578	-0.299236
C150	C	1.158494	-0.671578	-0.049236
C151	C	1.408494	-0.421578	0.200764
C152	C	1.658494	-0.171578	0.450764
C153	C	0.871948	-0.880318	-0.335694
C154	C	1.121948	-0.630318	-0.085694
C155	C	1.371948	-0.380318	0.164306
C156	C	1.621948	-0.130318	0.414306
C157	C	0.875502	-0.785910	-0.332094
C158	C	1.125502	-0.535910	-0.082094
C159	C	1.375502	-0.285910	0.167906
C160	C	1.625502	-0.035910	0.417906
C161	C	0.904940	-1.015995	-0.302835
C162	C	1.154940	-0.765995	-0.052835
C163	C	1.404940	-0.515995	0.197165
C164	C	1.654940	-0.265995	0.447165
C165	C	1.053588	-0.401330	-0.317533
C166	C	1.303588	-0.151330	-0.067533
C167	C	1.553588	0.098670	0.182467
C168	C	1.803588	0.348670	0.432467
C169	C	1.123230	-0.401312	-0.317564
C170	C	1.373230	-0.151312	-0.067564
C171	C	1.623230	0.098688	0.182436
C172	C	1.873230	0.348688	0.432436
C173	C	0.890215	-0.401357	-0.480884
C174	C	1.140215	-0.151357	-0.230884
C175	C	1.390215	0.098643	0.019116
C176	C	1.640215	0.348643	0.269116
C177	C	0.890238	-0.401350	-0.550525
C178	C	1.140238	-0.151350	-0.300525
C179	C	1.390238	0.098650	-0.050525
C180	C	1.640238	0.348650	0.199475
C181	C	0.898537	-0.183914	-0.309219
C182	C	1.148537	0.066086	-0.059219
C183	C	1.398537	0.316086	0.190781
C184	C	1.648537	0.566086	0.440781
C185	C	0.902106	-0.091245	-0.305706
C186	C	1.152106	0.158755	-0.055706
C187	C	1.402106	0.408755	0.194294
C188	C	1.652106	0.658755	0.444294
C189	C	0.932363	-0.348013	-0.581236
C190	C	1.182363	-0.098013	-0.331236
C191	C	1.432363	0.151987	-0.081236
C192	C	1.682363	0.401987	0.168764
C193	C	0.932364	-0.347977	-0.646670
C194	C	1.182364	-0.097977	-0.396670
C195	C	1.432364	0.152023	-0.146670
C196	C	1.682364	0.402023	0.103330
C197	C	0.890245	-0.401293	-0.681392
C198	C	1.140245	-0.151293	-0.431392
C199	C	1.390245	0.098707	-0.181392
C200	C	1.640245	0.348707	0.068608
C201	C	0.848111	-0.454633	-0.650673
C202	C	1.098111	-0.204633	-0.400673
C203	C	1.348111	0.045367	-0.150673
C204	C	1.598111	0.295367	0.099327
C205	C	0.848108	-0.454662	-0.585240
C206	C	1.098108	-0.204662	-0.335240
C207	C	1.348108	0.045338	-0.085240
C208	C	1.598108	0.295338	0.164760
C209	C	0.882412	-0.476364	-0.787915
C210	C	1.132412	-0.226364	-0.537915
C211	C	1.382412	0.023636	-0.287915
C212	C	1.632412	0.273636	-0.037915
C213	C	0.882420	-0.476337	-0.853347
C214	C	1.132420	-0.226337	-0.603347
C215	C	1.382420	0.023663	-0.353347
C216	C	1.632420	0.273663	-0.103347
C217	C	0.890252	-0.401205	-0.883209
C218	C	1.140252	-0.151205	-0.633209
C219	C	1.390252	0.098795	-0.383209
C220	C	1.640252	0.348795	-0.133209
C221	C	0.898089	-0.326097	-0.847631
C222	C	1.148089	-0.076097	-0.597631
C223	C	1.398089	0.173903	-0.347631
C224	C	1.648089	0.423903	-0.097631
C225	C	0.898086	-0.326126	-0.782198
C226	C	1.148086	-0.076126	-0.532198
C227	C	1.398086	0.173874	-0.282198
C228	C	1.648086	0.423874	-0.032198
C229	C	0.890244	-0.401268	-0.752343
C230	C	1.140244	-0.151268	-0.502343
C231	C	1.390244	0.098732	-0.252343
C232	C	1.640244	0.348732	-0.002343
C233	C	0.932381	-0.347825	-0.984870
C234	C	1.182381	-0.097825	-0.734870
C235	C	1.432381	0.152175	-0.484870
C236	C	1.682381	0.402175	-0.234870
C237	C	0.932377	-0.347787	-1.050306
C238	C	1.182377	-0.097787	-0.800306
C239	C	1.432377	0.152213	-0.550306
C240	C	1.682377	0.402213	-0.300306
C241	C	0.848127	-0.454451	-1.054308
C242	C	1.098127	-0.204451	-0.804308
C243	C	1.348127	0.045549	-0.554308
C244	C	1.598127	0.295549	-0.304308
C245	C	0.848128	-0.454481	-0.988874
C246	C	1.098128	-0.204481	-0.738874
C247	C	1.348128	0.045519	-0.488874
C248	C	1.598128	0.295519	-0.238874
C249	C	0.890258	-0.401169	-0.954159
C250	C	1.140258	-0.151169	-0.704159
C251	C	1.390258	0.098831	-0.454159
C252	C	1.640258	0.348831	-0.204159
C253	C	0.890149	-0.401330	-0.154672
C254	C	1.140149	-0.151330	0.095328
C255	C	1.390149	0.098670	0.345328
C256	C	1.640149	0.348670	0.595328
C257	C	0.890257	-0.401103	-0.085023
C258	C	1.140257	-0.151103	0.164977
C259	C	1.390257	0.098897	0.414977
C260	C	1.640257	0.348897	0.664977
H261	H	0.132986	-0.304432	-0.241306
H262	H	0.382986	-0.054432	0.008694
H263	H	0.632986	0.195568	0.258694
H264	H	0.882986	0.445568	0.508694
H265	H	0.450190	-0.389271	-0.214577
H266	H	0.700190	-0.139271	0.035423
H267	H	0.950190	0.110729	0.285423
H268	H	1.200190	0.360729	0.535423
O269	O	0.802683	-0.512138	-0.688122
O270	O	1.052683	-0.262138	-0.438122
O271	O	1.302683	-0.012138	-0.188122
O272	O	1.552683	0.237862	0.061878
H273	H	0.754059	-0.497848	-0.674987
H274	H	1.004059	-0.247848	-0.424987
H275	H	1.254059	0.002152	-0.174987
H276	H	1.504059	0.252152	0.075013
O277	O	0.873961	-0.557403	-0.755706
O278	O	1.123961	-0.307403	-0.505706
O279	O	1.373961	-0.057403	-0.255706
O280	O	1.623961	0.192597	-0.005706
H281	H	0.828187	-0.588514	-0.769422
H282	H	1.078187	-0.338514	-0.519422
H283	H	1.328187	-0.088514	-0.269422
H284	H	1.578187	0.161486	-0.019422
O285	O	0.826961	-0.927443	-0.380614
O286	O	1.076961	-0.677443	-0.130614
O287	O	1.326961	-0.427443	0.119386
O288	O	1.576961	-0.177443	0.369386
H289	H	0.838294	-0.910749	-0.429181
H290	H	1.088294	-0.660749	-0.179181
H291	H	1.338294	-0.410749	0.070819
H292	H	1.588294	-0.160749	0.320819
O293	O	0.953481	-0.874461	-0.254317
O294	O	1.203481	-0.624461	-0.004317
O295	O	1.453481	-0.374461	0.245683
O296	O	1.703481	-0.124461	0.495683
H297	H	0.949246	-0.806630	-0.258507
H298	H	1.199246	-0.556630	-0.008507
H299	H	1.449246	-0.306630	0.241493
H300	H	1.699246	-0.056630	0.491493
H301	H	0.529265	-0.498303	-0.393674
H302	H	0.779265	-0.248303	-0.143674
H303	H	1.029265	0.001697	0.106326
H304	H	1.279265	0.251697	0.356326
O305	O	0.260885	-0.290375	-0.230139
O306	O	0.510885	-0.040375	0.019861
O307	O	0.760885	0.209625	0.269861
O308	O	1.010885	0.459625	0.519861
H309	H	0.228551	-0.253246	-0.200916
H310	H	0.478551	-0.003246	0.049084
H311	H	0.728551	0.246754	0.299084
H312	H	0.978551	0.496754	0.549084
O313	O	0.906537	-0.245124	-0.743824
O314	O	1.156537	0.004876	-0.493824
O315	O	1.406537	0.254876	-0.243824
O316	O	1.656537	0.504876	0.006176
H317	H	0.868272	-0.204194	-0.754788
H318	H	1.118272	0.045806	-0.504788
H319	H	1.368272	0.295806	-0.254788
H320	H	1.618272	0.545806	-0.004788
H321	H	0.536618	-0.304542	-0.241166
H322	H	0.786618	-0.054542	0.008834
H323	H	1.036618	0.195458	0.258834
H324	H	1.286618	0.445458	0.508834
O325	O	0.977799	-0.290512	-0.543791
O326	O	1.227799	-0.040512	-0.293791
O327	O	1.477799	0.209488	-0.043791
O328	O	1.727799	0.459488	0.206209
H329	H	1.007090	-0.253413	-0.576144
H330	H	1.257090	-0.003413	-0.326144
H331	H	1.507090	0.246587	-0.076144
H332	H	1.757090	0.496587	0.173856
H333	H	0.966667	-0.304539	-0.671679
H334	H	1.216667	-0.054539	-0.421679
H335	H	1.466667	0.195461	-0.171679
H336	H	1.716667	0.445461	0.078321
H337	H	0.904468	-0.264917	-0.871943
H338	H	1.154468	-0.014917	-0.621943
H339	H	1.404468	0.235083	-0.371943
H340	H	1.654468	0.485083	-0.121943
H341	H	0.813801	-0.498094	-0.560236
H342	H	1.063801	-0.248094	-0.310236
H343	H	1.313801	0.001906	-0.060236
H344	H	1.563801	0.251906	0.189764
H345	H	0.647970	-0.498342	-0.393629
H346	H	0.897970	-0.248342	-0.143629
H347	H	1.147970	0.001658	0.106371
H348	H	1.397970	0.251658	0.356371
O349	O	0.977811	-0.290318	-0.947420
O350	O	1.227811	-0.040318	-0.697420
O351	O	1.477811	0.209682	-0.447420
O352	O	1.727811	0.459682	-0.197420
H353	H	1.007097	-0.253212	-0.979770
H354	H	1.257097	-0.003212	-0.729770
H355	H	1.507097	0.246788	-0.479770
H356	H	1.757097	0.496788	-0.229770
O357	O	0.977815	-0.290259	-1.083434
O358	O	1.227815	-0.040259	-0.833434
O359	O	1.477815	0.209741	-0.583434
O360	O	1.727815	0.459741	-0.333434
H361	H	1.007113	-0.253201	-1.048299
H362	H	1.257113	-0.003201	-0.798299
H363	H	1.507113	0.246799	-0.548299
H364	H	1.757113	0.496799	-0.298299
O365	O	0.873966	-0.557346	-0.891711
O366	O	1.123966	-0.307346	-0.641711
O367	O	1.373966	-0.057346	-0.391711
O368	O	1.623966	0.192654	-0.141711
H369	H	0.915615	-0.565845	-0.921872
H370	H	1.165615	-0.315845	-0.671872
H371	H	1.415615	-0.065845	-0.421872
H372	H	1.665615	0.184155	-0.171872
H373	H	0.331486	-0.389248	-0.214620
H374	H	0.581486	-0.139248	0.035380
H375	H	0.831486	0.110752	0.285380
H376	H	1.081486	0.360752	0.535380
H377	H	0.244339	-0.498232	-0.393774
H378	H	0.494339	-0.248232	-0.143774
H379	H	0.744339	0.001768	0.106226
H380	H	0.994339	0.251768	0.356226
H381	H	0.655331	-0.304561	-0.241125
H382	H	0.905331	-0.054561	0.008875
H383	H	1.155331	0.195439	0.258875
H384	H	1.405331	0.445439	0.508875
O385	O	0.802696	-0.512006	-0.955737
O386	O	1.052696	-0.262006	-0.705737
O387	O	1.302696	-0.012006	-0.455737
O388	O	1.552696	0.237994	-0.205737
H389	H	0.772259	-0.474694	-0.924487
H390	H	1.022259	-0.224694	-0.674487
H391	H	1.272259	0.025306	-0.424487
H392	H	1.522259	0.275306	-0.174487
H393	H	0.449479	-0.413539	-0.420311
H394	H	0.699479	-0.163539	-0.170311
H395	H	0.949479	0.086461	0.079689
H396	H	1.199479	0.336461	0.329689
O397	O	0.802696	-0.511959	-1.091747
O398	O	1.052696	-0.261959	-0.841747
O399	O	1.302696	-0.011959	-0.591747
O400	O	1.552696	0.238041	-0.341747
H401	H	0.809776	-0.502982	-1.142407
H402	H	1.059776	-0.252982	-0.892407
H403	H	1.309776	-0.002982	-0.642407
H404	H	1.559776	0.247018	-0.392407
H405	H	0.125633	-0.498190	-0.393820
H406	H	0.375633	-0.248190	-0.143820
H407	H	0.625633	0.001810	0.106180
H408	H	0.875633	0.251810	0.356180
H409	H	0.330769	-0.413502	-0.420352
H410	H	0.580769	-0.163502	-0.170352
H411	H	0.830769	0.086498	0.079648
H412	H	1.080769	0.336498	0.329648
