data_functionalizedCrystal
_audit_creation_method	'MofGen! by Chris Wilmer'
_symmetry_space_group_name_H-M	'P1'
_symmetry_Int_Tables_number	1
_symmetry_cell_setting	triclinic
loop_
_symmetry_equiv_pos_as_xyz
  x,y,z
_cell_length_a	23.532407
_cell_length_b	16.109301
_cell_length_c	15.186229
_cell_angle_alpha	89.994833
_cell_angle_beta	90.001988
_cell_angle_gamma	83.155079
loop_
_atom_site_label
_atom_site_type_symbol
_atom_site_fract_x
_atom_site_fract_y
_atom_site_fract_z
O1	O	0.755631	0.100924	-0.073122
O2	O	0.589822	0.115528	-0.073148
O3	O	0.677281	-0.012841	-0.073125
O4	O	0.668171	0.229293	-0.073144
O5	O	0.677275	-0.012843	0.073332
O6	O	0.589816	0.115526	0.073310
O7	O	0.755625	0.100923	0.073336
Zn8	Zn	0.672720	0.108224	0.096576
Zn9	Zn	0.672727	0.108226	-0.096388
O10	O	0.668165	0.229291	0.073313
C11	C	0.568601	0.115155	0.000078
C12	C	0.505380	0.114037	0.000068
C13	C	0.676909	-0.043814	0.000104
C14	C	0.675803	-0.136100	0.000105
C15	C	0.725127	-0.358760	0.000099
C16	C	0.724083	-0.445473	0.000092
C17	C	0.620315	-0.424782	0.000079
C18	C	0.621360	-0.338072	0.000080
C19	C	0.673768	-0.305063	0.000094
C20	C	0.671679	-0.478486	0.000086
C21	C	0.670547	-0.572503	0.000078
C22	C	0.674900	-0.211040	0.000101
C23	C	0.106531	0.182990	0.000102
C24	C	0.047127	0.181951	0.000108
O25	O	0.010619	0.245872	0.000135
N26	N	0.024220	0.105636	0.000112
C27	C	0.060719	0.030355	0.000121
O28	O	0.035780	-0.034652	0.000126
C29	C	0.120122	0.031395	0.000121
C30	C	0.143027	0.107715	0.000108
C31	C	0.129436	0.259304	0.000090
C32	C	0.188836	0.260342	0.000083
C33	C	0.225331	0.185066	0.000088
C34	C	0.202427	0.108753	0.000101
C35	C	0.156621	-0.043886	0.000136
C36	C	0.216027	-0.042840	0.000137
C37	C	0.238932	0.033480	0.000124
C38	C	0.298322	0.034516	0.000099
N39	N	0.321229	0.110831	0.000094
C40	C	0.284734	0.186106	0.000089
C41	C	-0.064031	0.028178	0.000120
C42	C	-0.123433	0.027138	0.000113
C43	C	-0.137021	0.178734	0.000102
C44	C	-0.077618	0.179774	0.000103
C45	C	-0.041123	0.104493	0.000116
C46	C	0.409479	0.188281	0.000073
C47	C	0.468885	0.189312	0.000062
C48	C	0.482468	0.037716	0.000078
C49	C	0.423067	0.036684	0.000084
C50	C	0.386574	0.111973	0.000085
O51	O	0.334865	-0.029371	0.000076
O52	O	0.309682	0.251102	0.000095
C53	C	0.776846	0.101295	0.000108
C54	C	0.840067	0.102414	0.000112
C55	C	0.668537	0.260264	0.000082
C56	C	0.669644	0.352551	0.000075
N57	N	0.672718	0.108222	0.228269
N58	N	0.672733	0.108222	-0.228081
C59	C	0.711459	0.051399	0.454002
C60	C	0.711461	0.051397	0.546191
C61	C	0.633988	0.165047	0.546180
C62	C	0.633984	0.165044	0.453992
C63	C	0.672723	0.108222	0.407905
C64	C	0.672729	0.108222	0.592283
C65	C	0.672730	0.108220	0.692239
C66	C	0.672720	0.108222	0.307943
H67	H	0.767801	-0.331888	0.000109
N68	N	-0.024670	-0.053023	0.000130
H69	H	-0.048201	-0.101520	0.000132
H70	H	0.000272	-0.055898	-0.054163
H71	H	0.765906	-0.489190	0.000093
N72	N	0.131925	-0.126201	0.000159
H73	H	0.145235	-0.159164	-0.054125
H74	H	0.145248	-0.159079	0.054495
H75	H	0.577647	-0.451669	0.000068
N76	N	0.565962	-0.280148	0.000069
H77	H	0.532604	-0.314214	0.000065
H78	H	0.564135	-0.243723	0.054361
N79	N	0.493588	0.271631	0.000039
H80	H	0.461451	0.319158	0.000038
H81	H	0.517944	0.275370	0.054327
N82	N	0.255389	-0.124037	0.000157
H83	H	0.231861	-0.172537	0.000166
H84	H	0.280330	-0.126915	-0.054138
H85	H	0.379772	0.249588	0.000076
N86	N	-0.148134	-0.055178	0.000112
H87	H	-0.115995	-0.102703	0.000114
H88	H	-0.172480	-0.058916	0.054408
H89	H	0.512193	-0.023571	0.000079
N90	N	-0.052913	0.262086	0.000100
H91	H	-0.028570	0.265900	-0.054191
H92	H	-0.085082	0.309565	0.000128
H93	H	0.743001	0.005129	0.416480
N94	N	0.592197	0.226333	0.404274
H95	H	0.598742	0.285295	0.420305
H96	H	0.598090	0.217634	0.338896
H97	H	0.207479	0.322489	0.000071
N98	N	-0.176390	0.259927	0.000097
H99	H	-0.217495	0.247682	0.000101
H100	H	-0.168974	0.293208	0.054388
N101	N	0.090079	0.340500	0.000134
H102	H	0.113612	0.388995	0.000142
H103	H	0.065121	0.343407	-0.054146
N104	N	0.398359	-0.045629	0.000082
H105	H	0.430494	-0.093157	0.000080
H106	H	0.374014	-0.049365	0.054381
H107	H	0.743002	0.005127	0.583720
N108	N	0.592208	0.226333	0.595888
H109	H	0.598089	0.217714	0.661284
H110	H	0.598773	0.285265	0.579765
