data_functionalizedCrystal
_audit_creation_method	'MofGen! by Chris Wilmer'
_symmetry_space_group_name_H-M	'P1'
_symmetry_Int_Tables_number	1
_symmetry_cell_setting	triclinic
loop_
_symmetry_equiv_pos_as_xyz
  x,y,z
_cell_length_a	6.817900
_cell_length_b	17.078472
_cell_length_c	17.458065
_cell_angle_alpha	95.899102
_cell_angle_beta	106.368158
_cell_angle_gamma	99.306020
loop_
_atom_site_label
_atom_site_type_symbol
_atom_site_fract_x
_atom_site_fract_y
_atom_site_fract_z
V1	V	-4.039135	-0.111344	-0.249077
O2	O	-4.047860	0.003727	-0.244418
O3	O	-3.969940	-0.219216	-0.247294
O4	O	-4.005541	-0.110344	-0.357745
O5	O	-4.012012	-0.105898	-0.133203
V6	V	-4.523539	-0.097496	-0.235227
O7	O	-4.298461	-0.141721	-0.279458
O8	O	-4.714410	-0.067119	-0.204847
O9	O	-4.369527	0.010375	-0.237010
O10	O	-4.632211	-0.212568	-0.239886
O11	O	-4.668058	-0.102942	-0.351101
O12	O	-4.333926	-0.098497	-0.126560
C13	C	-3.809403	-0.245490	-0.243344
C14	C	-3.834214	-0.333681	-0.242611
C15	C	-3.854815	-0.106612	-0.384234
C16	C	-3.908494	-0.106508	-0.473069
C17	C	-3.751815	-0.102473	-0.510740
C18	C	-3.802267	-0.102383	-0.594211
C19	C	-4.009398	-0.106321	-0.640011
C20	C	-4.166088	-0.110358	-0.602335
C21	C	-4.115637	-0.110455	-0.518866
C22	C	-4.179793	-0.106465	-0.890085
C23	C	-4.230233	-0.106366	-0.973560
C24	C	-3.866407	-0.098391	-0.965430
C25	C	-3.815970	-0.098483	-0.881959
C26	C	-3.972666	-0.102525	-0.844292
N27	N	-4.060971	-0.106226	-0.725332
N28	N	-3.921093	-0.102626	-0.758973
C29	C	-4.027742	-0.379180	-0.246250
C30	C	-4.051046	-0.462045	-0.245565
C31	C	-3.880816	-0.499409	-0.241236
C32	C	-3.687274	-0.453905	-0.237600
C33	C	-3.663976	-0.371042	-0.238290
C34	C	-3.930993	-0.746798	-0.238750
C35	C	-3.954305	-0.829666	-0.238058
C36	C	-4.318077	-0.837800	-0.246025
C37	C	-4.294759	-0.754935	-0.246710
C38	C	-4.101223	-0.709439	-0.243077
N39	N	-3.904630	-0.584110	-0.240534
N40	N	-4.077416	-0.624740	-0.243785
C41	C	-4.193405	0.036646	-0.240958
C42	C	-4.147833	0.124836	-0.241697
C43	C	-4.147993	-0.102231	-0.100067
C44	C	-4.073553	-0.102331	-0.011230
H45	H	-3.674679	-0.099099	-0.624879
H46	H	-3.583144	-0.099246	-0.473452
N47	N	-4.211353	-0.338882	-0.250925
H48	H	-4.177266	-0.296663	-0.201629
H49	H	-4.337410	-0.380334	-0.253158
N50	N	-4.284624	-0.114794	-0.478233
H51	H	-4.221236	-0.114258	-0.418406
H52	H	-4.391877	-0.165975	-0.502321
H53	H	-3.647320	-0.095309	-0.844679
N54	N	-3.697409	-0.094034	-1.006057
H55	H	-3.760791	-0.094571	-1.065884
H56	H	-3.628150	-0.141770	-0.997417
H57	H	-3.815684	-0.860088	-0.234552
N58	N	-4.259851	-0.511133	-0.249595
H59	H	-4.248813	-0.569303	-0.248543
H60	H	-4.367564	-0.506399	-0.301250
H61	H	-4.398910	-0.109579	-1.010849
H62	H	-4.307391	-0.109753	-0.859426
H63	H	-4.433387	-0.724519	-0.250240
H64	H	-4.334743	-0.113570	-0.639633
N65	N	-3.455239	-0.321971	-0.234370
H66	H	-3.347228	-0.326590	-0.182747
H67	H	-3.466496	-0.263832	-0.235502
H68	H	-4.475648	-0.874852	-0.248982
N69	N	-3.503658	-0.494201	-0.232919
H70	H	-3.537741	-0.536427	-0.282210
H71	H	-3.472783	-0.520323	-0.182658
H72	H	-3.773405	-0.709764	-0.235788
