data_functionalizedCrystal
_audit_creation_method	'MofGen! by Chris Wilmer'
_symmetry_space_group_name_H-M	'P1'
_symmetry_Int_Tables_number	1
_symmetry_cell_setting	triclinic
loop_
_symmetry_equiv_pos_as_xyz
  x,y,z
_cell_length_a	18.215407
_cell_length_b	18.215405
_cell_length_c	15.297908
_cell_angle_alpha	99.652545
_cell_angle_beta	80.302712
_cell_angle_gamma	90.022653
loop_
_atom_site_label
_atom_site_type_symbol
_atom_site_fract_x
_atom_site_fract_y
_atom_site_fract_z
Zn1	Zn	-1.197066	0.364997	0.510105
Zn2	Zn	-1.175691	0.466774	0.359249
Zn3	Zn	-1.052713	0.343728	0.359262
Zn4	Zn	-1.073962	0.488018	0.510053
O5	O	-1.124858	0.415879	0.434667
O6	O	-1.297217	0.378508	0.490109
O7	O	-1.141539	0.432659	0.233010
O8	O	-1.071914	0.243568	0.379299
O9	O	-1.281513	0.453283	0.379276
O10	O	-1.177970	0.259195	0.490123
O11	O	-1.051188	0.342258	0.233020
O12	O	-0.952545	0.362858	0.379249
O13	O	-1.108131	0.489491	0.636301
O14	O	-0.968157	0.468868	0.490035
O15	O	-1.198575	0.399108	0.636339
O16	O	-1.162144	0.572572	0.379226
O17	O	-1.087404	0.588181	0.490021
C18	C	-0.933648	0.415861	0.434638
C19	C	-0.851850	0.415874	0.434647
C20	C	-1.124783	0.607081	0.434636
C21	C	-1.124823	0.688882	0.434653
C22	C	-1.158107	0.449042	0.669968
C23	C	-1.172276	0.463174	0.770239
C24	C	-0.671794	0.471134	0.492258
C25	C	-0.594937	0.471137	0.492268
C26	C	-0.578675	0.360628	0.377080
C27	C	-0.655532	0.360623	0.377075
C28	C	-0.702089	0.415880	0.434663
C29	C	-0.548375	0.415888	0.434678
C30	C	-0.465043	0.415891	0.434688
C31	C	-0.785427	0.415877	0.434654
C32	C	-0.316815	0.415895	0.434693
C33	C	-0.398614	0.415895	0.434693
C34	C	-1.124956	0.223933	0.434718
C35	C	-1.124998	0.142137	0.434740
C36	C	-1.180079	0.885163	0.492437
C37	C	-1.180109	0.962024	0.492454
C38	C	-1.069736	0.945851	0.376954
C39	C	-1.069704	0.868992	0.376942
C40	C	-1.124880	0.838650	0.434682
C41	C	-1.124941	0.992370	0.434711
C42	C	-1.124972	1.075706	0.434729
C43	C	-1.124848	0.755309	0.434666
C44	C	-1.091781	0.382792	0.200282
C45	C	-1.077754	0.368453	0.100012
C46	C	-1.024057	0.314743	1.052915
C47	C	-1.010746	0.301458	0.958705
C48	C	-1.051127	0.341886	0.911584
C49	C	-1.104822	0.395601	0.958681
C50	C	-1.118139	0.408883	1.052900
C51	C	-1.145209	0.436026	0.911569
C52	C	-1.198904	0.489741	0.958667
C53	C	-1.212217	0.503021	1.052876
C54	C	-1.171836	0.462593	1.099998
C55	C	-1.131892	0.422744	0.817351
C56	C	-1.225974	0.516884	0.817336
C57	C	-1.239285	0.530169	0.911546
H58	H	-0.709699	0.516127	0.539152
Cl59	Cl	-1.249502	1.020495	0.565068
H60	H	-1.258857	0.549802	0.778970
H61	H	-0.680198	0.315623	0.330175
H62	H	-1.225006	0.860460	0.539454
Cl63	Cl	-1.064391	0.355220	0.758154
Cl64	Cl	-1.000375	0.984002	0.304371
Cl65	Cl	-1.000300	0.810515	0.304337
H66	H	-0.570275	0.516130	0.539169
H67	H	-1.040286	0.331066	0.834874
H68	H	-0.967027	0.257724	0.920365
H69	H	-0.991188	0.281829	1.091289
Cl70	Cl	-1.188557	0.479302	1.218438
H71	H	-1.255945	0.546754	1.091221
Cl72	Cl	-0.520141	0.291168	0.304686
Cl73	Cl	-1.306785	0.597694	0.970765
