data_functionalizedCrystal
_audit_creation_method	'MofGen! by Chris Wilmer'
_symmetry_space_group_name_H-M	'P1'
_symmetry_Int_Tables_number	1
_symmetry_cell_setting	triclinic
loop_
_symmetry_equiv_pos_as_xyz
  x,y,z
_cell_length_a	14.044220
_cell_length_b	14.044191
_cell_length_c	13.101039
_cell_angle_alpha	86.337551
_cell_angle_beta	93.667477
_cell_angle_gamma	93.190327
loop_
_atom_site_label
_atom_site_type_symbol
_atom_site_fract_x
_atom_site_fract_y
_atom_site_fract_z
O1	O	0.225377	1.281976	-0.085169
O2	O	0.558711	1.615310	0.248164
O3	O	0.892044	1.948643	0.581497
O4	O	0.217064	1.005305	-0.085182
O5	O	0.550397	1.338638	0.248151
O6	O	0.883731	1.671971	0.581485
O7	O	0.082885	1.139487	-0.085166
O8	O	0.416219	1.472820	0.248168
O9	O	0.749552	1.806154	0.581501
O10	O	0.359556	1.147794	-0.085186
O11	O	0.692889	1.481127	0.248148
O12	O	1.026223	1.814461	0.581481
O13	O	0.092530	1.129861	0.085263
O14	O	0.425863	1.463194	0.418596
O15	O	0.759197	1.796528	0.751930
O16	O	0.226708	0.995679	0.085247
O17	O	0.560042	1.329012	0.418580
O18	O	0.893375	1.662345	0.751913
O19	O	0.235022	1.272350	0.085259
O20	O	0.568355	1.605684	0.418593
O21	O	0.901689	1.939017	0.751926
Zn22	Zn	0.232396	1.132486	0.112312
Zn23	Zn	0.565730	1.465820	0.445646
Zn24	Zn	0.899063	1.799153	0.778979
Zn25	Zn	0.219689	1.145169	-0.112235
Zn26	Zn	0.553023	1.478502	0.221098
Zn27	Zn	0.886356	1.811836	0.554432
O28	O	0.369200	1.138168	0.085243
O29	O	0.702534	1.471501	0.418576
O30	O	1.035867	1.804835	0.751910
C31	C	0.218250	0.964870	0.000031
C32	C	0.551583	1.298203	0.333364
C33	C	0.884916	1.631536	0.666697
C34	C	0.207402	0.858727	0.000026
C35	C	0.540735	1.192060	0.333359
C36	C	0.874069	1.525394	0.666693
C37	C	0.264503	0.613268	0.000032
C38	C	0.597836	0.946601	0.333366
C39	C	0.931169	1.279935	0.666699
C40	C	0.187587	0.664393	0.000036
C41	C	0.520920	0.997727	0.333369
C42	C	0.854253	1.331060	0.666703
C43	C	0.198615	0.772531	0.000031
C44	C	0.531948	1.105864	0.333364
C45	C	0.865281	1.439197	0.666697
C46	C	0.253476	0.505121	0.000038
C47	C	0.586810	0.838454	0.333371
C48	C	0.920143	1.171788	0.666704
C49	C	0.052086	1.131038	0.000049
C50	C	0.385419	1.464372	0.333382
C51	C	0.718752	1.797705	0.666715
C52	C	-0.054057	1.120194	0.000050
C53	C	0.279276	1.453527	0.333383
C54	C	0.612609	1.786860	0.666716
C55	C	-0.248396	1.100368	0.000034
C56	C	0.084937	1.433702	0.333367
C57	C	0.418270	1.767035	0.666701
C58	C	-0.299524	1.177283	0.000034
C59	C	0.033809	1.510616	0.333368
C60	C	0.367142	1.843950	0.666701
C61	C	-0.407661	1.166252	0.000026
C62	C	-0.074328	1.499585	0.333359
C63	C	0.259005	1.832919	0.666692
C64	C	-0.140250	1.111398	0.000043
C65	C	0.193084	1.444731	0.333376
C66	C	0.526417	1.778065	0.666709
C67	C	0.400000	1.146617	0.000026
C68	C	0.733333	1.479950	0.333360
C69	C	1.066667	1.813283	0.666693
C70	C	0.506143	1.157462	0.000019
C71	C	0.839476	1.490795	0.333352
C72	C	1.172809	1.824128	0.666685
C73	C	0.233836	1.312785	0.000044
C74	C	0.567169	1.646119	0.333378
C75	C	0.900503	1.979452	0.666711
C76	C	0.244683	1.418929	0.000042
C77	C	0.578017	1.752262	0.333375
C78	C	0.911350	2.085595	0.666709
N79	N	0.241069	1.123838	0.265560
N80	N	0.574402	1.457171	0.598893
N81	N	0.907735	1.790504	0.932226
N82	N	0.211010	1.153824	-0.265482
N83	N	0.544343	1.487158	0.067851
N84	N	0.877677	1.820491	0.401184
C85	C	0.252876	1.112072	0.474601
C86	C	0.586210	1.445405	0.807934
C87	C	0.919543	1.778738	1.141267
C88	C	0.199205	1.165588	0.525483
C89	C	0.532539	1.498921	0.858816
C90	C	0.865872	1.832254	1.192150
C91	C	0.205775	1.159041	0.641801
C92	C	0.539109	1.492374	0.975134
C93	C	0.872442	1.825708	1.308467
C94	C	0.246308	1.118617	0.358273
C95	C	0.579641	1.451951	0.691606
C96	C	0.912974	1.785284	1.024939
H97	H	0.113451	0.626954	-0.000031
H98	H	0.446784	0.960287	0.333303
H99	H	0.780117	1.293620	0.666636
H100	H	-0.285836	1.026241	0.000028
H101	H	0.047498	1.359574	0.333361
H102	H	0.380831	1.692908	0.666695
H103	H	0.338629	0.650710	0.000024
H104	H	0.671962	0.984043	0.333357
H105	H	1.005296	1.317377	0.666691
O106	O	0.138395	1.225909	0.473085
O107	O	0.471728	1.559242	0.806418
O108	O	0.805062	1.892576	1.139752
C109	C	0.145133	1.218948	0.366930
C110	C	0.478466	1.552281	0.700263
C111	C	0.811799	1.885615	1.033596
H112	H	0.217342	1.190864	0.352332
H113	H	0.550676	1.524197	0.685666
H114	H	0.884009	1.857530	1.018999
H115	H	0.137952	1.292515	0.325957
H116	H	0.471285	1.625849	0.659291
H117	H	0.804619	1.959182	0.992624
H118	H	0.085553	1.167839	0.336659
H119	H	0.418887	1.501172	0.669992
H120	H	0.752220	1.834505	1.003326
O121	O	0.313564	1.051636	0.526998
O122	O	0.646897	1.384969	0.860331
O123	O	0.980230	1.718302	1.193664
C124	C	0.306685	1.058467	0.633151
C125	C	0.640018	1.391800	0.966485
C126	C	0.973351	1.725133	1.299818
H127	H	0.278135	1.130490	0.647666
H128	H	0.611468	1.463824	0.981000
H129	H	0.944801	1.797157	1.314333
H130	H	0.380367	1.051827	0.674015
H131	H	0.713700	1.385160	1.007348
H132	H	1.047033	1.718494	1.340681
H133	H	0.255992	0.998608	0.663612
H134	H	0.589326	1.331941	0.996945
H135	H	0.922659	1.665275	1.330279
O136	O	-0.254766	1.265684	-0.000086
O137	O	0.078568	1.599018	0.333247
O138	O	0.411901	1.932351	0.666580
C139	C	-0.202306	1.281643	-0.088357
C140	C	0.131028	1.614976	0.244976
C141	C	0.464361	1.948310	0.578309
H142	H	-0.185647	1.210123	-0.117796
H143	H	0.147686	1.543457	0.215537
H144	H	0.481019	1.876790	0.548870
H145	H	-0.132695	1.323984	-0.068491
H146	H	0.200638	1.657317	0.264843
H147	H	0.533971	1.990651	0.598176
H148	H	-0.246151	1.323726	-0.150162
H149	H	0.087182	1.657059	0.183171
H150	H	0.420515	1.990392	0.516504
