data_functionalizedCrystal
_audit_creation_method	'MofGen! by Chris Wilmer'
_symmetry_space_group_name_H-M	'P1'
_symmetry_Int_Tables_number	1
_symmetry_cell_setting	triclinic
loop_
_symmetry_equiv_pos_as_xyz
  x,y,z
_cell_length_a	25.639239
_cell_length_b	17.077404
_cell_length_c	17.077396
_cell_angle_alpha	90.018362
_cell_angle_beta	90.031074
_cell_angle_gamma	90.036656
loop_
_atom_site_label
_atom_site_type_symbol
_atom_site_fract_x
_atom_site_fract_y
_atom_site_fract_z
Zn1	Zn	-0.208179	1.199968	0.443805
Zn2	Zn	-0.295617	1.199839	0.312533
Zn3	Zn	-0.208194	1.068700	0.312555
Zn4	Zn	-0.295582	1.068632	0.443759
O5	O	-0.251893	1.134285	0.378163
O6	O	-0.219786	1.309798	0.426401
O7	O	-0.284041	1.182418	0.202689
O8	O	-0.135027	1.086196	0.329994
O9	O	-0.284026	1.309703	0.329956
O10	O	-0.135016	1.182638	0.426423
O11	O	-0.219811	1.086071	0.202705
O12	O	-0.219778	0.958844	0.329950
O13	O	-0.283967	1.086080	0.553612
O14	O	-0.283982	0.958794	0.426345
O15	O	-0.219753	1.182572	0.553646
O16	O	-0.368777	1.182352	0.329912
O17	O	-0.368752	1.085954	0.426323
C18	C	-0.251878	0.930337	0.378145
C19	C	-0.251884	0.843087	0.378156
C20	C	-0.387736	1.134153	0.378127
C21	C	-0.445850	1.134168	0.378138
C22	C	-0.218494	0.802147	0.428452
C23	C	-0.218498	0.720167	0.428456
C24	C	-0.251894	0.679128	0.378167
C25	C	-0.285286	0.720074	0.327866
C26	C	-0.285280	0.802053	0.327859
C27	C	-0.285298	0.549204	0.327885
C28	C	-0.285305	0.467219	0.327893
C29	C	-0.218516	0.467318	0.428482
C30	C	-0.218509	0.549297	0.428475
C31	C	-0.251902	0.590237	0.378175
C32	C	-0.806213	1.184610	0.328047
C33	C	-0.860818	1.184641	0.328058
O34	O	-0.889055	1.227391	0.285429
N35	N	-0.888132	1.134423	0.378215
C36	C	-0.860839	1.084177	0.428371
O37	O	-0.889086	1.041467	0.471035
C38	C	-0.806236	1.084151	0.428364
C39	C	-0.778924	1.134367	0.378197
C40	C	-0.778902	1.234822	0.277885
C41	C	-0.724301	1.234790	0.277874
C42	C	-0.697012	1.184547	0.328024
C43	C	-0.724324	1.134335	0.378186
C44	C	-0.778944	1.033910	0.478523
C45	C	-0.724337	1.033889	0.478512
C46	C	-0.697026	1.084104	0.428345
C47	C	-0.642435	1.084060	0.428325
N48	N	-0.615120	1.134277	0.378167
C49	C	-0.642409	1.184521	0.328017
C50	C	-0.975510	1.084236	0.428383
C51	C	-1.030112	1.084258	0.428386
C52	C	-1.030087	1.184722	0.328074
C53	C	-0.975483	1.184696	0.328067
C54	C	-0.948196	1.134454	0.378225
C55	C	-0.527744	1.184450	0.327997
C56	C	-0.473138	1.184412	0.327988
C57	C	-0.473169	1.083951	0.428302
C58	C	-0.527769	1.083986	0.428309
C59	C	-0.555056	1.134242	0.378154
O60	O	-0.614163	1.041333	0.470934
O61	O	-0.614155	1.227232	0.285367
C62	C	-0.115520	1.134439	0.378216
C63	C	-0.057406	1.134504	0.378239
C64	C	-0.251855	1.134332	0.582907
C65	C	-0.251838	1.134353	0.670157
C66	C	-0.251908	1.339029	0.378181
C67	C	-0.251915	1.426279	0.378189
C68	C	-0.251894	1.134283	0.174215
C69	C	-0.251763	1.134415	0.086966
C70	C	-0.218399	1.184598	0.711166
C71	C	-0.218381	1.184608	0.793147
C72	C	-0.251806	1.134375	0.834117
C73	C	-0.285247	1.084124	0.793102
C74	C	-0.285262	1.084111	0.711123
C75	C	-0.285216	1.084156	0.963972
C76	C	-0.285202	1.084169	1.045957
C77	C	-0.218335	1.184652	1.045996
C78	C	-0.218350	1.184639	0.964017
C79	C	-0.251792	1.134389	0.923008
H80	H	-0.191300	0.835555	0.469405
H81	H	-1.052315	1.225636	0.287242
H82	H	-0.191318	0.582708	0.469429
H83	H	-0.312488	0.582535	0.286924
H84	H	-0.191153	1.225524	0.826532
C85	C	-0.181785	0.422282	0.483816
N86	N	-0.154123	0.388358	0.525495
C87	C	-0.322010	1.028860	0.838172
N88	N	-0.349700	0.987234	0.872118
H89	H	-0.191309	0.686837	0.469413
H90	H	-0.702067	1.275682	0.237027
C91	C	-0.322042	0.422078	0.272572
N92	N	-0.349713	0.388077	0.230903
C93	C	-0.694324	0.978617	0.533692
N94	N	-0.671719	0.936985	0.575252
C95	C	-0.808975	0.978671	0.533713
N96	N	-0.831593	0.937062	0.575287
C97	C	-0.945446	1.239939	0.272883
N98	N	-0.922824	1.281551	0.231318
H99	H	-0.191135	1.225547	0.930661
C100	C	-0.443099	1.239651	0.272795
N101	N	-0.420475	1.281256	0.231224
C102	C	-0.181549	1.239927	1.091107
N103	N	-0.153844	1.281561	1.125089
H104	H	-0.312419	1.043264	1.079312
H105	H	-0.549954	1.225375	0.287157
H106	H	-0.801114	1.275740	0.237047
C107	C	-0.443141	1.028688	0.483468
N108	N	-0.420522	0.987070	0.525024
C109	C	-0.322048	1.028839	0.666014
N110	N	-0.349757	0.987204	0.632038
C111	C	-0.322022	0.674928	0.272547
N112	N	-0.349694	0.640925	0.230881
H113	H	-1.052345	1.043360	0.469230
H114	H	-0.312469	0.835385	0.286903
H115	H	-0.953295	1.043317	0.469225
H116	H	-0.550008	1.043099	0.469161
C117	C	-0.181627	1.239858	0.666107
N118	N	-0.153928	1.281479	0.632170
H119	H	-0.312439	1.043225	0.930585
