data_functionalizedCrystal
_audit_creation_method	'MofGen! by Chris Wilmer'
_symmetry_space_group_name_H-M	'P1'
_symmetry_Int_Tables_number	1
_symmetry_cell_setting	triclinic
loop_
_symmetry_equiv_pos_as_xyz
  x,y,z
_cell_length_a	19.121063
_cell_length_b	18.050590
_cell_length_c	18.050583
_cell_angle_alpha	89.997484
_cell_angle_beta	92.401387
_cell_angle_gamma	87.544963
loop_
_atom_site_label
_atom_site_type_symbol
_atom_site_fract_x
_atom_site_fract_y
_atom_site_fract_z
Zn1	Zn	-0.279806	-1.122681	-0.432152
Zn2	Zn	-0.397277	-1.117292	-0.313255
Zn3	Zn	-0.279818	-0.998498	-0.308017
Zn4	Zn	-0.397192	-0.993154	-0.437440
O5	O	-0.338523	-1.057906	-0.372716
O6	O	-0.295419	-1.225889	-0.416359
O7	O	-0.381736	-1.101514	-0.208637
O8	O	-0.181534	-1.019462	-0.320079
O9	O	-0.381724	-1.221930	-0.329006
O10	O	-0.181525	-1.110700	-0.411280
O11	O	-0.295440	-1.014236	-0.204789
O12	O	-0.295358	-0.893866	-0.325206
O13	O	-0.381581	-1.010356	-0.540661
O14	O	-0.381592	-0.889940	-0.420292
O15	O	-0.295338	-1.105519	-0.536776
O16	O	-0.495548	-1.096333	-0.334133
O17	O	-0.495487	-1.005130	-0.425371
C18	C	-0.338468	-0.864957	-0.372755
C19	C	-0.338461	-0.782411	-0.372790
C20	C	-0.385482	-0.580841	-0.424396
C21	C	-0.321437	-0.534337	-0.439788
C22	C	-0.338495	-0.631279	-0.372763
C23	C	-0.402571	-0.530700	-0.357379
C24	C	-0.338533	-0.485292	-0.372738
C25	C	-0.274415	-0.585864	-0.388189
C26	C	-0.355593	-0.582229	-0.305750
C27	C	-0.291503	-0.535749	-0.321114
C28	C	-0.338474	-0.715378	-0.372779
C29	C	-0.338546	-0.401195	-0.372722
C30	C	-0.521001	-1.049587	-0.380911
C31	C	-0.599066	-1.046096	-0.384441
C32	C	-0.635750	-1.091977	-0.338636
C33	C	-0.709100	-1.088698	-0.341961
C34	C	-0.745765	-1.039533	-0.391088
C35	C	-0.709076	-0.993650	-0.436897
C36	C	-0.635727	-0.996933	-0.433576
C37	C	-0.967231	-1.027246	-0.403495
C38	C	-1.040585	-1.023965	-0.406811
C39	C	-1.040603	-1.119014	-0.311876
C40	C	-0.967253	-1.122290	-0.308555
C41	C	-0.930571	-1.076409	-0.354368
C42	C	-0.820741	-1.036179	-0.394486
C43	C	-0.855596	-1.079768	-0.350973
C44	C	-0.155333	-1.066278	-0.364505
C45	C	-0.077268	-1.069846	-0.361007
C46	C	-0.338449	-1.057942	-0.566418
C47	C	-0.338417	-1.057958	-0.648963
C48	C	-0.338570	-0.251610	-0.372689
C49	C	-0.338565	-0.334156	-0.372709
C50	C	-0.291495	-1.109758	-0.846300
C51	C	-0.274291	-1.042800	-0.894941
C52	C	-0.338405	-1.057988	-0.800093
C53	C	-0.355564	-1.124975	-0.898531
C54	C	-0.338392	-1.058023	-0.946077
C55	C	-0.321167	-0.990996	-0.847645
C56	C	-0.402471	-1.073215	-0.851232
C57	C	-0.385291	-1.006210	-0.899852
C58	C	-0.338410	-1.057969	-0.715994
C59	C	-0.338386	-1.058035	-1.030173
C60	C	-0.338547	-1.057915	-0.179765
C61	C	-0.338382	-1.058053	-0.097212
H62	H	-0.605902	-1.132009	-0.298629
F63	F	-0.203587	-0.617289	-0.405268
H64	H	-0.220106	-1.029932	-0.914236
F65	F	-0.302548	-0.506808	-0.513846
H66	H	-0.370062	-0.603306	-0.249107
F67	F	-1.079649	-1.167843	-0.263126
F68	F	-0.816574	-1.132094	-0.298694
H69	H	-0.251800	-1.153471	-0.822851
H70	H	-0.425150	-0.600715	-0.468101
H71	H	-0.456743	-0.506562	-0.344379
H72	H	-0.251738	-0.516019	-0.277438
H73	H	-0.850601	-0.996147	-0.434483
H74	H	-0.738965	-1.126059	-0.304662
H75	H	-0.937402	-1.162323	-0.268553
F76	F	-1.079605	-0.971627	-0.459093
H77	H	-0.937369	-0.989887	-0.440796
H78	H	-0.738934	-0.953622	-0.476901
F79	F	-0.596686	-0.948102	-0.482330
F80	F	-0.302115	-0.916949	-0.818582
H81	H	-0.370082	-1.181610	-0.920859
F82	F	-0.437129	-0.948943	-0.930331
F83	F	-0.473274	-1.090063	-0.825989
