data_functionalizedCrystal
_audit_creation_method	'MofGen! by Chris Wilmer'
_symmetry_space_group_name_H-M	'P1'
_symmetry_Int_Tables_number	1
_symmetry_cell_setting	triclinic
loop_
_symmetry_equiv_pos_as_xyz
  x,y,z
_cell_length_a	12.645331
_cell_length_b	12.594516
_cell_length_c	12.645324
_cell_angle_alpha	89.967482
_cell_angle_beta	89.977038
_cell_angle_gamma	90.010795
loop_
_atom_site_label
_atom_site_type_symbol
_atom_site_fract_x
_atom_site_fract_y
_atom_site_fract_z
Zn1	Zn	1.620778	-0.423690	-0.599441
Zn2	Zn	2.120778	0.076310	-0.099441
Zn3	Zn	1.620677	-0.601715	-0.422179
Zn4	Zn	2.120677	-0.101715	0.077821
Zn5	Zn	1.443491	-0.423748	-0.422185
Zn6	Zn	1.943491	0.076252	0.077815
Zn7	Zn	1.443492	-0.601624	-0.599394
Zn8	Zn	1.943492	-0.101624	-0.099394
O9	O	1.532109	-0.512694	-0.510800
O10	O	2.032109	-0.012694	-0.010800
O11	O	1.769111	-0.447320	-0.575943
O12	O	2.269111	0.052680	-0.075943
O13	O	1.597130	-0.578169	-0.273832
O14	O	2.097130	-0.078169	0.226168
O15	O	1.467051	-0.274794	-0.445721
O16	O	1.967051	0.225206	0.054279
O17	O	1.769037	-0.578114	-0.445710
O18	O	2.269037	-0.078114	0.054290
O19	O	1.597302	-0.274752	-0.575950
O20	O	2.097302	0.225248	-0.075950
O21	O	1.466953	-0.447417	-0.273837
O22	O	1.966953	0.052583	0.226163
O23	O	1.295144	-0.447329	-0.445675
O24	O	1.795144	0.052671	0.054325
O25	O	1.467052	-0.577959	-0.747747
O26	O	1.967052	-0.077959	-0.247747
O27	O	1.295145	-0.578014	-0.575870
O28	O	1.795145	-0.078014	-0.075870
O29	O	1.597303	-0.447231	-0.747782
O30	O	2.097303	0.052769	-0.247782
O31	O	1.597131	-0.750649	-0.445664
O32	O	2.097131	-0.250649	0.054336
O33	O	1.466954	-0.750582	-0.575864
O34	O	1.966954	-0.250582	-0.075864
C35	C	1.256680	-0.512669	-0.510769
C36	C	1.756680	-0.012669	-0.010769
C37	C	1.138850	-0.512684	-0.510781
C38	C	1.638850	-0.012684	-0.010781
C39	C	0.971250	-0.430092	-0.429327
C40	C	1.471250	0.069908	0.070673
C41	C	1.093809	-0.430305	-0.428969
C42	C	1.593809	0.069695	0.071031
C43	C	1.094341	-0.624812	-0.480265
C44	C	1.594341	-0.124812	0.019735
C45	C	0.971742	-0.624361	-0.479709
C46	C	1.471742	-0.124361	0.020291
C47	C	0.971698	-0.484215	-0.623065
C48	C	1.471698	0.015785	-0.123065
C49	C	1.094303	-0.481710	-0.622442
C50	C	1.594303	0.018290	-0.122442
C51	C	1.532060	-0.789235	-0.510781
C52	C	2.032060	-0.289235	-0.010781
C53	C	1.532136	-0.907541	-0.510809
C54	C	2.032136	-0.407541	-0.010809
C55	C	1.603021	-0.976791	-0.440069
C56	C	2.103021	-0.476791	0.059931
C57	C	1.628931	-1.047480	-0.536828
C58	C	2.128931	-0.547480	-0.036828
C59	C	1.506360	-1.047650	-0.414111
C60	C	2.006360	-0.547650	0.085889
C61	C	1.558095	-0.976671	-0.607618
C62	C	2.058095	-0.476671	-0.107618
C63	C	1.435479	-0.976835	-0.484837
C64	C	1.935479	-0.476835	0.015163
C65	C	1.461351	-1.047492	-0.581662
C66	C	1.961351	-0.547492	-0.081662
C67	C	1.808615	-0.512720	-0.510831
C68	C	2.308615	-0.012720	-0.010831
C69	C	1.926445	-0.512731	-0.510844
C70	C	2.426445	-0.012731	-0.010844
C71	C	1.532189	-0.512578	-0.787305
C72	C	2.032189	-0.012578	-0.287305
C73	C	1.532223	-0.512529	-0.905135
C74	C	2.032223	-0.012529	-0.405135
C75	C	1.532188	-0.235073	-0.510841
C76	C	2.032188	0.264927	-0.010841
C77	C	1.532221	-0.116768	-0.510859
C78	C	2.032221	0.383232	-0.010859
C79	C	1.614483	-0.430527	-1.072721
C80	C	2.114483	0.069473	-0.572721
C81	C	1.614219	-0.430231	-0.950161
C82	C	2.114219	0.069769	-0.450161
C83	C	1.420537	-0.482047	-0.949614
C84	C	1.920537	0.017953	-0.449614
C85	C	1.421037	-0.481424	-1.072212
C86	C	1.921037	0.018576	-0.572212
C87	C	1.560742	-0.625133	-1.072332
C88	C	2.060742	-0.125133	-0.572332
C89	C	1.563185	-0.624567	-0.949726
C90	C	2.063185	-0.124567	-0.449726
C91	C	1.532091	-0.512733	-0.235370
C92	C	2.032091	-0.012733	0.264630
C93	C	1.532263	-0.512482	-0.117540
C94	C	2.032263	-0.012482	0.382460
H95	H	1.123517	-0.688031	-0.537774
H96	H	1.623517	-0.188031	-0.037774
F97	F	1.328616	-0.936245	-0.456053
F98	F	1.828616	-0.436245	0.043947
H99	H	1.697035	-0.449321	-0.920090
H100	H	2.197035	0.050679	-0.420090
F101	F	1.735822	-1.088025	-0.565593
F102	F	2.235822	-0.588025	-0.065593
H103	H	1.484523	-1.078827	-0.332315
H104	H	1.984523	-0.578827	0.167685
H105	H	1.595362	-0.346781	-0.920849
H106	H	2.095362	0.153219	-0.420849
H107	H	1.507654	-0.688916	-0.919073
H108	H	2.007654	-0.188916	-0.419073
F109	F	1.134377	-0.554646	-0.706077
F110	F	1.634377	-0.054646	-0.206077
F111	F	0.930914	-0.454438	-0.321272
F112	F	1.430914	0.045562	0.178728
F113	F	0.933829	-0.562887	-0.702454
F114	F	1.433829	-0.062887	-0.202454
H115	H	1.357609	-0.539905	-0.920446
H116	H	1.857609	-0.039905	-0.420446
F117	F	1.586773	-0.936098	-0.714561
F118	F	2.086773	-0.436098	-0.214561
H119	H	1.697573	-0.449377	-1.102214
H120	H	2.197573	0.050623	-0.602214
F121	F	1.681383	-0.936211	-0.361946
F122	F	2.181383	-0.436211	0.138054
F123	F	1.590156	-0.322053	-1.113010
F124	F	2.090156	0.177947	-0.613010
H125	H	1.395956	-0.400618	-0.918919
H126	H	1.895956	0.099382	-0.418919
H127	H	1.124998	-0.649409	-0.399106
H128	H	1.624998	-0.149409	0.100894
H129	H	1.401442	-1.078340	-0.641576
H130	H	1.901442	-0.578340	-0.141576
F131	F	1.389446	-0.373803	-1.109612
F132	F	1.889446	0.126197	-0.609612
F133	F	1.482466	-0.704948	-1.110211
F134	F	1.982466	-0.204948	-0.610211
H135	H	1.357691	-0.538520	-1.101859
H136	H	1.857691	-0.038520	-0.601859
H137	H	1.640760	-0.652884	-1.103317
H138	H	2.140760	-0.152884	-0.603317
H139	H	0.940793	-0.403877	-0.650818
H140	H	1.440793	0.096123	-0.150818
H141	H	1.123902	-0.347158	-0.448096
H142	H	1.623902	0.152842	0.051904
F143	F	0.932728	-0.321082	-0.454057
F144	F	1.432728	0.178918	0.045943
H145	H	1.645376	-0.647553	-0.920655
H146	H	2.145376	-0.147553	-0.420655
H147	H	0.943098	-0.648542	-0.397670
H148	H	1.443098	-0.148542	0.102330
F149	F	0.933000	-0.707569	-0.553923
F150	F	1.433000	-0.207569	-0.053923
F151	F	1.132347	-0.373866	-0.652530
F152	F	1.632347	0.126134	-0.152530
F153	F	1.132085	-0.454937	-0.320271
F154	F	1.632085	0.045063	0.179729
