data_functionalizedCrystal
_audit_creation_method	'MofGen! by Chris Wilmer'
_symmetry_space_group_name_H-M	'P1'
_symmetry_Int_Tables_number	1
_symmetry_cell_setting	triclinic
loop_
_symmetry_equiv_pos_as_xyz
  x,y,z
_cell_length_a	15.995350
_cell_length_b	15.021413
_cell_length_c	15.995280
_cell_angle_alpha	90.006418
_cell_angle_beta	96.522015
_cell_angle_gamma	90.003669
loop_
_atom_site_label
_atom_site_type_symbol
_atom_site_fract_x
_atom_site_fract_y
_atom_site_fract_z
O1	O	1.110963	0.073952	-0.107919
O2	O	1.444296	0.407285	0.225414
O3	O	1.777630	0.740618	0.558748
O4	O	0.867184	0.073970	-0.121247
O5	O	1.200518	0.407303	0.212086
O6	O	1.533851	0.740636	0.545420
O7	O	0.995768	0.073960	0.007309
O8	O	1.329102	0.407293	0.340642
O9	O	1.662435	0.740626	0.673975
O10	O	0.982379	0.073962	-0.236475
O11	O	1.315712	0.407295	0.096859
O12	O	1.649046	0.740628	0.430192
O13	O	0.995748	-0.074104	0.007290
O14	O	1.329081	0.259229	0.340624
O15	O	1.662414	0.592562	0.673957
O16	O	0.867164	-0.074095	-0.121265
O17	O	1.200497	0.259239	0.212068
O18	O	1.533831	0.592572	0.545401
O19	O	1.110942	-0.074112	-0.107937
O20	O	1.444276	0.259221	0.225396
O21	O	1.777609	0.592554	0.558729
Zn22	Zn	0.989050	-0.097612	-0.114604
Zn23	Zn	1.322383	0.235721	0.218729
Zn24	Zn	1.655717	0.569055	0.552062
Zn25	Zn	0.989077	0.097469	-0.114580
Zn26	Zn	1.322410	0.430802	0.218753
Zn27	Zn	1.655744	0.764136	0.552087
O28	O	0.982359	-0.074103	-0.236493
O29	O	1.315692	0.259231	0.096840
O30	O	1.649025	0.592564	0.430174
C31	C	0.835979	-0.000060	-0.120705
C32	C	1.169313	0.333273	0.212628
C33	C	1.502646	0.666606	0.545962
C34	C	0.743029	-0.000053	-0.119053
C35	C	1.076363	0.333280	0.214280
C36	C	1.409696	0.666613	0.547613
N37	N	0.989038	-0.230750	-0.114620
N38	N	1.322371	0.102584	0.218713
N39	N	1.655704	0.435917	0.552046
C40	C	0.405283	-0.000072	-0.113121
C41	C	0.738617	0.333261	0.220212
C42	C	1.071950	0.666595	0.553546
C43	C	0.452741	-0.000403	-0.021566
C44	C	0.786074	0.332930	0.311767
C45	C	1.119407	0.666264	0.645101
C46	C	0.549430	-0.000063	-0.023218
C47	C	0.882764	0.333270	0.310115
C48	C	1.216097	0.666604	0.643449
C49	C	0.572843	-0.000063	-0.116063
C50	C	0.906177	0.333270	0.217270
C51	C	1.239510	0.666604	0.550603
C52	C	0.531756	0.084486	-0.161211
C53	C	0.865090	0.417819	0.172122
C54	C	1.198423	0.751152	0.505456
C55	C	0.435121	0.084550	-0.158911
C56	C	0.768455	0.417883	0.174422
C57	C	1.101788	0.751217	0.507756
C58	C	0.434759	-0.083827	-0.160824
C59	C	0.768092	0.249507	0.172510
C60	C	1.101425	0.582840	0.505843
C61	C	0.531704	-0.084938	-0.160802
C62	C	0.865037	0.248396	0.172531
C63	C	1.198371	0.581729	0.505865
C64	C	0.667540	-0.000055	-0.117731
C65	C	1.000874	0.333278	0.215602
C66	C	1.334207	0.666611	0.548935
C67	C	0.310586	-0.000074	-0.111456
C68	C	0.643919	0.333260	0.221878
C69	C	0.977253	0.666593	0.555211
C70	C	0.929571	-0.470428	-0.174036
C71	C	1.262905	-0.137095	0.159297
C72	C	1.596238	0.196238	0.492630
C73	C	1.005226	-0.529768	-0.190288
C74	C	1.338559	-0.196435	0.143045
C75	C	1.671893	0.136898	0.476379
C76	C	0.989059	-0.412356	-0.114599
C77	C	1.322392	-0.079023	0.218734
C78	C	1.655726	0.254310	0.552067
C79	C	0.913425	-0.529758	-0.098366
C80	C	1.246758	-0.196425	0.234967
C81	C	1.580091	0.136908	0.568300
C82	C	0.989073	-0.587780	-0.114581
C83	C	1.322406	-0.254447	0.218752
C84	C	1.655740	0.078886	0.552086
C85	C	1.064752	-0.470390	-0.130889
C86	C	1.398085	-0.137057	0.202445
C87	C	1.731419	0.196277	0.535778
C88	C	0.972901	-0.470375	-0.038934
C89	C	1.306234	-0.137041	0.294399
C90	C	1.639568	0.196292	0.627733
C91	C	1.048610	-0.529688	-0.055154
C92	C	1.381944	-0.196355	0.278180
C93	C	1.715277	0.136979	0.611513
C94	C	0.989050	-0.311299	-0.114612
C95	C	1.322383	0.022034	0.218721
C96	C	1.655717	0.355368	0.552055
C97	C	0.989091	-0.688836	-0.114568
C98	C	1.322424	-0.355502	0.218766
C99	C	1.655758	-0.022169	0.552099
C100	C	1.142147	-0.000081	-0.108479
C101	C	1.475481	0.333253	0.224854
C102	C	1.808814	0.666586	0.558187
C103	C	1.235097	-0.000082	-0.110131
C104	C	1.568431	0.333252	0.223202
C105	C	1.901764	0.666585	0.556536
C106	C	0.995215	-0.000071	0.038495
C107	C	1.328548	0.333263	0.371829
C108	C	1.661882	0.666596	0.705162
C109	C	0.993587	-0.000065	0.131449
C110	C	1.326920	0.333268	0.464782
C111	C	1.660253	0.666602	0.798115
N112	N	0.989096	0.230607	-0.114557
N113	N	1.322429	0.563940	0.218776
N114	N	1.655762	0.897273	0.552109
C115	C	0.987600	-0.000078	0.469189
C116	C	1.320934	0.333256	0.802523
C117	C	1.654267	0.666589	1.135856
C118	C	1.080403	-0.000415	0.445877
C119	C	1.413737	0.332918	0.779210
C120	C	1.747070	0.666252	1.112543
C121	C	1.082163	-0.000077	0.349201
C122	C	1.415496	0.333257	0.682534
C123	C	1.748830	0.666590	1.015867
C124	C	0.990571	-0.000072	0.301632
C125	C	1.323904	0.333261	0.634966
C126	C	1.657237	0.666595	0.968299
C127	C	0.944186	0.084480	0.330744
C128	C	1.277519	0.417813	0.664077
C129	C	1.610853	0.751147	0.997411
C130	C	0.943073	0.084546	0.427535
C131	C	1.276406	0.417880	0.760868
C132	C	1.609740	0.751213	1.094202
C133	C	0.941155	-0.083830	0.427371
C134	C	1.274488	0.249503	0.760705
C135	C	1.607821	0.582836	1.094038
C136	C	0.944589	-0.084943	0.330878
C137	C	1.277923	0.248390	0.664211
C138	C	1.611256	0.581723	0.997545
C139	C	0.992245	-0.000066	0.206936
C140	C	1.325578	0.333268	0.540269
C141	C	1.658911	0.666601	0.873602
C142	C	0.985924	-0.000078	0.563885
C143	C	1.319257	0.333255	0.897219
C144	C	1.652590	0.666589	1.230552
C145	C	0.982923	-0.000074	0.732322
C146	C	1.316256	0.333259	1.065655
C147	C	1.649590	0.666593	1.398989
C148	C	0.984584	-0.000085	0.639373
C149	C	1.317918	0.333249	0.972706
C150	C	1.651251	0.666582	1.306039
H151	H	0.577860	-0.060671	0.012271
H152	H	0.911193	0.272662	0.345604
H153	H	1.244527	0.605995	0.678938
Cl154	Cl	0.553562	0.089362	-0.266515
Cl155	Cl	0.886896	0.422696	0.066818
Cl156	Cl	1.220229	0.756029	0.400152
H157	H	0.975216	0.147748	0.454359
H158	H	1.308549	0.481081	0.787693
H159	H	1.641883	0.814414	1.121026
H160	H	1.128734	-0.444422	-0.144687
H161	H	1.462068	-0.111088	0.188646
H162	H	1.795401	0.222245	0.521980
H163	H	1.118491	-0.060686	0.330168
H164	H	1.451825	0.272648	0.663501
H165	H	1.785158	0.605981	0.996834
Cl166	Cl	0.838023	0.090483	0.450005
Cl167	Cl	1.171356	0.423816	0.783338
Cl168	Cl	1.504689	0.757149	1.116672
Cl169	Cl	0.592442	0.093835	0.031726
Cl170	Cl	0.925775	0.427168	0.365059
Cl171	Cl	1.259109	0.760501	0.698393
Cl172	Cl	0.841368	-0.092823	0.279979
Cl173	Cl	1.174701	0.240510	0.613312
Cl174	Cl	1.508035	0.573844	0.946645
Cl175	Cl	0.814664	-0.570023	-0.077178
Cl176	Cl	1.147997	-0.236690	0.256155
Cl177	Cl	1.481331	0.096644	0.589488
Cl178	Cl	1.026348	-0.570048	-0.289067
Cl179	Cl	1.359681	-0.236715	0.044266
Cl180	Cl	1.693014	0.096619	0.377600
Cl181	Cl	1.135626	-0.094034	0.489090
Cl182	Cl	1.468959	0.239299	0.822423
Cl183	Cl	1.802292	0.572632	1.155757
Cl184	Cl	1.135343	0.092669	0.490686
Cl185	Cl	1.468677	0.426002	0.824020
Cl186	Cl	1.802010	0.759335	1.157353
H187	H	0.872844	-0.084397	0.441362
H188	H	1.206177	0.248936	0.774695
H189	H	1.539511	0.582270	1.108028
Cl190	Cl	0.406877	0.182128	-0.108054
Cl191	Cl	0.740210	0.515462	0.225279
Cl192	Cl	1.073544	0.848795	0.558612
Cl193	Cl	0.573774	-0.181509	-0.109835
Cl194	Cl	0.907107	0.151825	0.223499
Cl195	Cl	1.240441	0.485158	0.556832
Cl196	Cl	0.996727	-0.181521	0.302194
Cl197	Cl	1.330061	0.151813	0.635528
Cl198	Cl	1.663394	0.485146	0.968861
Cl199	Cl	0.385696	-0.084711	-0.265042
Cl200	Cl	0.719029	0.248622	0.068291
Cl201	Cl	1.052363	0.581956	0.401625
Cl202	Cl	0.424140	-0.094016	0.034927
Cl203	Cl	0.757473	0.239317	0.368260
Cl204	Cl	1.090807	0.572650	0.701594
Cl205	Cl	0.840127	0.089348	0.281540
Cl206	Cl	1.173461	0.422681	0.614874
Cl207	Cl	1.506794	0.756014	0.948207
H208	H	0.433164	0.059896	0.014870
H209	H	0.766498	0.393229	0.348203
H210	H	1.099831	0.726562	0.681536
Cl211	Cl	0.851981	-0.430249	-0.251699
Cl212	Cl	1.185314	-0.096916	0.081634
Cl213	Cl	1.518648	0.236418	0.414968
Cl214	Cl	1.126371	-0.569616	0.022466
Cl215	Cl	1.459704	-0.236283	0.355799
Cl216	Cl	1.793037	0.097051	0.689132
H217	H	0.959198	-0.444266	0.025026
H218	H	1.292531	-0.110933	0.358359
H219	H	1.625865	0.222401	0.691693
Cl220	Cl	0.555390	-0.092822	-0.265340
Cl221	Cl	0.888724	0.240511	0.067993
Cl222	Cl	1.222057	0.573845	0.401326
H223	H	1.118722	0.060635	0.330803
H224	H	1.452056	0.393968	0.664137
H225	H	1.785389	0.727302	0.997470
Cl226	Cl	0.985969	-0.182776	0.471049
Cl227	Cl	1.319303	0.150558	0.804382
Cl228	Cl	1.652636	0.483891	1.137715
H229	H	0.976414	0.147401	0.310691
H230	H	1.309747	0.480734	0.644024
H231	H	1.643080	0.814067	0.977358
H232	H	0.560147	0.147409	-0.129838
H233	H	0.893481	0.480742	0.203495
H234	H	1.226814	0.814075	0.536828
Cl235	Cl	0.403058	-0.182771	-0.114620
Cl236	Cl	0.736391	0.150562	0.218713
Cl237	Cl	1.069725	0.483895	0.552046
Cl238	Cl	0.385303	0.090476	-0.262686
Cl239	Cl	0.718636	0.423810	0.070647
Cl240	Cl	1.051970	0.757143	0.403980
