data_functionalizedCrystal
_audit_creation_method	'MofGen! by Chris Wilmer'
_symmetry_space_group_name_H-M	'P1'
_symmetry_Int_Tables_number	1
_symmetry_cell_setting	triclinic
loop_
_symmetry_equiv_pos_as_xyz
  x,y,z
_cell_length_a	12.645329
_cell_length_b	16.625548
_cell_length_c	16.625539
_cell_angle_alpha	90.020568
_cell_angle_beta	89.974372
_cell_angle_gamma	89.980954
loop_
_atom_site_label
_atom_site_type_symbol
_atom_site_fract_x
_atom_site_fract_y
_atom_site_fract_z
Zn1	Zn	-0.422007	-1.232706	-0.455924
Zn2	Zn	-0.088674	-0.899372	-0.122591
Zn3	Zn	0.244659	-0.566039	0.210742
Zn4	Zn	-0.599293	-1.232619	-0.321098
Zn5	Zn	-0.265960	-0.899286	0.012235
Zn6	Zn	0.067373	-0.565953	0.345569
Zn7	Zn	-0.422048	-1.097867	-0.321105
Zn8	Zn	-0.088714	-0.764534	0.012228
Zn9	Zn	0.244619	-0.431201	0.345562
Zn10	Zn	-0.599232	-1.097848	-0.455888
Zn11	Zn	-0.265899	-0.764515	-0.122554
Zn12	Zn	0.067434	-0.431182	0.210779
O13	O	-0.510645	-1.165260	-0.388504
O14	O	-0.177312	-0.831927	-0.055170
O15	O	0.156022	-0.498594	0.278163
O16	O	-0.445533	-1.345527	-0.438052
O17	O	-0.112200	-1.012193	-0.104718
O18	O	0.221133	-0.678860	0.228615
O19	O	-0.575824	-1.214716	-0.208266
O20	O	-0.242490	-0.881383	0.125067
O21	O	0.090843	-0.548049	0.458400
O22	O	-0.273695	-1.115798	-0.339007
O23	O	0.059638	-0.782465	-0.005674
O24	O	0.392972	-0.449131	0.327659
O25	O	-0.575784	-1.345463	-0.338995
O26	O	-0.242451	-1.012130	-0.005662
O27	O	0.090882	-0.678797	0.327671
O28	O	-0.273665	-1.214863	-0.438059
O29	O	0.059668	-0.881530	-0.104725
O30	O	0.393001	-0.548196	0.228608
O31	O	-0.445602	-1.115714	-0.208272
O32	O	-0.112269	-0.782381	0.125062
O33	O	0.221065	-0.449048	0.458395
O34	O	-0.445543	-0.985033	-0.338972
O35	O	-0.112210	-0.651699	-0.005638
O36	O	0.221124	-0.318366	0.327695
O37	O	-0.575681	-1.115766	-0.568725
O38	O	-0.242347	-0.782432	-0.235392
O39	O	0.090986	-0.449099	0.097942
O40	O	-0.575720	-0.985019	-0.437996
O41	O	-0.242387	-0.651685	-0.104663
O42	O	0.090947	-0.318352	0.228671
O43	O	-0.445474	-1.214845	-0.568752
O44	O	-0.112141	-0.881511	-0.235419
O45	O	0.221192	-0.548178	0.097915
O46	O	-0.747632	-1.214698	-0.338960
O47	O	-0.414299	-0.881364	-0.005626
O48	O	-0.080966	-0.548031	0.327707
O49	O	-0.747588	-1.115682	-0.437989
O50	O	-0.414254	-0.782349	-0.104656
O51	O	-0.080921	-0.449015	0.228677
C52	C	-0.510630	-0.955769	-0.388481
C53	C	-0.177297	-0.622436	-0.055148
C54	C	0.156037	-0.289103	0.278185
C55	C	-0.510649	-0.866148	-0.388491
C56	C	-0.177316	-0.532815	-0.055157
C57	C	0.156018	-0.199482	0.278176
C58	C	-0.510566	-1.165313	-0.598813
C59	C	-0.177233	-0.831979	-0.265479
C60	C	0.156100	-0.498646	0.067854
C61	C	-0.510533	-1.165335	-0.688434
C62	C	-0.177199	-0.832002	-0.355101
C63	C	0.156134	-0.498668	-0.021767
C64	C	-0.786075	-1.165200	-0.388487
C65	C	-0.452742	-0.831867	-0.055154
C66	C	-0.119408	-0.498534	0.278179
C67	C	-0.903905	-1.165248	-0.388507
C68	C	-0.570572	-0.831915	-0.055174
C69	C	-0.237238	-0.498582	0.278159
C70	C	-0.948803	-1.102928	-0.450771
C71	C	-0.615470	-0.769595	-0.117437
C72	C	-0.282137	-0.436262	0.215896
C73	C	-1.071363	-1.103187	-0.451041
C74	C	-0.738029	-0.769853	-0.117708
C75	C	-0.404696	-0.436520	0.215626
C76	C	-1.071670	-1.250376	-0.411407
C77	C	-0.738337	-0.917043	-0.078073
C78	C	-0.405003	-0.583710	0.255260
C79	C	-0.949072	-1.249941	-0.411833
C80	C	-0.615739	-0.916608	-0.078499
C81	C	-0.282406	-0.583274	0.254834
C82	C	-0.949195	-1.143340	-0.303243
C83	C	-0.615861	-0.810007	0.030090
C84	C	-0.282528	-0.476674	0.363424
C85	C	-1.071803	-1.141540	-0.303723
C86	C	-0.738470	-0.808207	0.029610
C87	C	-0.405136	-0.474873	0.362943
C88	C	-0.234140	-1.165342	-0.388538
C89	C	0.099193	-0.832009	-0.055204
C90	C	0.432527	-0.498676	0.278129
C91	C	-0.116310	-1.165377	-0.388552
C92	C	0.217024	-0.832044	-0.055219
C93	C	0.550357	-0.498711	0.278114
C94	C	-0.510661	-1.375569	-0.388527
C95	C	-0.177328	-1.042236	-0.055193
C96	C	0.156006	-0.708902	0.278140
C97	C	-0.510668	-1.465190	-0.388537
C98	C	-0.177335	-1.131857	-0.055203
C99	C	0.155999	-0.798524	0.278130
C100	C	-0.510656	-0.537973	-0.388525
C101	C	-0.177323	-0.204639	-0.055192
C102	C	0.156011	0.128694	0.278142
C103	C	-0.510651	-0.629281	-0.388513
C104	C	-0.177318	-0.295948	-0.055180
C105	C	0.156016	0.037386	0.278154
C106	C	-0.510653	-0.702058	-0.388507
C107	C	-0.177320	-0.368724	-0.055174
C108	C	0.156014	-0.035391	0.278159
C109	C	-0.510647	-0.793372	-0.388496
C110	C	-0.177314	-0.460038	-0.055163
C111	C	0.156020	-0.126705	0.278170
C112	C	-0.510414	-1.165372	-1.016610
C113	C	-0.177080	-0.832039	-0.683276
C114	C	0.156253	-0.498705	-0.349943
C115	C	-0.510450	-1.165360	-0.925301
C116	C	-0.177117	-0.832026	-0.591968
C117	C	0.156216	-0.498693	-0.258635
C118	C	-0.510474	-1.165354	-0.852525
C119	C	-0.177141	-0.832021	-0.519191
C120	C	0.156193	-0.498687	-0.185858
C121	C	-0.510509	-1.165341	-0.761210
C122	C	-0.177175	-0.832007	-0.427877
C123	C	0.156158	-0.498674	-0.094544
C124	C	-0.510647	-1.165254	-0.179013
C125	C	-0.177314	-0.831921	0.154320
C126	C	0.156019	-0.498588	0.487654
C127	C	-0.510382	-1.165388	-0.089392
C128	C	-0.177049	-0.832055	0.243941
C129	C	0.156284	-0.498722	0.577274
H130	H	-0.919431	-1.039672	-0.436643
H131	H	-0.586097	-0.706338	-0.103310
H132	H	-0.252764	-0.373005	0.230024
H133	H	-0.919362	-1.297972	-0.368444
H134	H	-0.586029	-0.964638	-0.035111
H135	H	-0.252696	-0.631305	0.298222
H136	H	-1.102414	-1.183633	-0.254878
H137	H	-0.769081	-0.850300	0.078456
H138	H	-0.435747	-0.516967	0.411789
H139	H	-1.100994	-1.078986	-0.286484
H140	H	-0.767661	-0.745652	0.046849
H141	H	-0.434327	-0.412319	0.380183
O142	O	-0.914676	-1.272079	-0.486127
O143	O	-0.581342	-0.938746	-0.152794
O144	O	-0.248009	-0.605413	0.180539
C145	C	-0.803191	-1.271950	-0.487489
C146	C	-0.469858	-0.938616	-0.154155
C147	C	-0.136524	-0.605283	0.179178
H148	H	-0.771813	-1.279107	-0.423620
H149	H	-0.438480	-0.945773	-0.090287
H150	H	-0.105146	-0.612440	0.243047
H151	H	-0.773800	-1.323959	-0.526220
H152	H	-0.440467	-0.990626	-0.192887
H153	H	-0.107134	-0.657292	0.140447
H154	H	-0.773810	-1.212681	-0.513727
H155	H	-0.440476	-0.879348	-0.180394
H156	H	-0.107143	-0.546015	0.152939
O157	O	-1.107507	-1.028009	-0.434130
O158	O	-0.774174	-0.694676	-0.100796
O159	O	-0.440840	-0.361342	0.232537
C160	C	-1.169179	-0.999841	-0.498899
C161	C	-0.835846	-0.666508	-0.165566
C162	C	-0.502513	-0.333174	0.167768
H163	H	-1.200489	-1.053207	-0.534765
H164	H	-0.867156	-0.719873	-0.201432
H165	H	-0.533822	-0.386540	0.131902
H166	H	-1.238448	-0.963175	-0.474718
H167	H	-0.905115	-0.629842	-0.141385
H168	H	-0.571781	-0.296509	0.191949
H169	H	-1.118473	-0.960364	-0.539587
H170	H	-0.785140	-0.627031	-0.206253
H171	H	-0.451807	-0.293697	0.127080
H172	H	-1.102295	-1.269279	-0.473057
H173	H	-0.768962	-0.935945	-0.139723
H174	H	-0.435629	-0.602612	0.193610
O175	O	-0.912091	-1.120153	-0.525722
O176	O	-0.578758	-0.786820	-0.192389
O177	O	-0.245425	-0.453487	0.140944
C178	C	-0.944521	-1.198212	-0.547857
C179	C	-0.611188	-0.864878	-0.214524
C180	C	-0.277855	-0.531545	0.118809
H181	H	-1.017497	-1.215746	-0.511608
H182	H	-0.684164	-0.882413	-0.178274
H183	H	-0.350830	-0.549079	0.155059
H184	H	-0.964334	-1.199327	-0.614735
H185	H	-0.631001	-0.865994	-0.281401
H186	H	-0.297668	-0.532661	0.051932
H187	H	-0.877958	-1.242680	-0.535130
H188	H	-0.544625	-0.909347	-0.201796
H189	H	-0.211292	-0.576013	0.131537
O190	O	-0.914673	-1.197429	-0.247800
O191	O	-0.581340	-0.864096	0.085533
O192	O	-0.248007	-0.530763	0.418866
C193	C	-0.955734	-1.177192	-0.171572
C194	C	-0.622400	-0.843859	0.161761
C195	C	-0.289067	-0.510525	0.495094
H196	H	-1.030343	-1.139489	-0.179360
H197	H	-0.697009	-0.806156	0.153974
H198	H	-0.363676	-0.472822	0.487307
H199	H	-0.975715	-1.234509	-0.137162
H200	H	-0.642381	-0.901175	0.196172
H201	H	-0.309048	-0.567842	0.529505
H202	H	-0.894349	-1.141216	-0.136555
H203	H	-0.561015	-0.807882	0.196778
H204	H	-0.227682	-0.474549	0.530112
H205	H	-1.100618	-1.117769	-0.514225
H206	H	-0.767284	-0.784435	-0.180892
H207	H	-0.433951	-0.451102	0.152441
H208	H	-1.100775	-1.298115	-0.367464
H209	H	-0.767442	-0.964781	-0.034130
H210	H	-0.434109	-0.631448	0.299203
H211	H	-0.918375	-1.082378	-0.282387
H212	H	-0.585041	-0.749045	0.050946
H213	H	-0.251708	-0.415711	0.384280
