data_functionalizedCrystal
_audit_creation_method	'MofGen! by Chris Wilmer'
_symmetry_space_group_name_H-M	'P1'
_symmetry_Int_Tables_number	1
_symmetry_cell_setting	triclinic
loop_
_symmetry_equiv_pos_as_xyz
  x,y,z
_cell_length_a	12.759400
_cell_length_b	21.395364
_cell_length_c	21.395355
_cell_angle_alpha	89.975273
_cell_angle_beta	90.008741
_cell_angle_gamma	90.000410
loop_
_atom_site_label
_atom_site_type_symbol
_atom_site_fract_x
_atom_site_fract_y
_atom_site_fract_z
Zn1	Zn	0.418435	0.957987	-0.354307
Zn2	Zn	0.594099	0.957944	-0.249547
Zn3	Zn	0.418430	0.853202	-0.249543
Zn4	Zn	0.594067	0.853225	-0.354287
O5	O	0.506258	0.905590	-0.301921
O6	O	0.441752	1.045659	-0.340420
O7	O	0.570808	0.944022	-0.161869
O8	O	0.271409	0.867111	-0.263447
O9	O	0.570812	1.045627	-0.263454
O10	O	0.271413	0.944096	-0.340416
O11	O	0.441744	0.867069	-0.161866
O12	O	0.441713	0.765527	-0.263428
O13	O	0.570758	0.867150	-0.441968
O14	O	0.570753	0.765544	-0.340383
O15	O	0.441721	0.944118	-0.441982
O16	O	0.741116	0.944044	-0.263435
O17	O	0.741092	0.867108	-0.340387
C18	C	0.506230	0.742802	-0.301903
C19	C	0.506243	0.673161	-0.301910
C20	C	0.573572	0.171390	-0.341953
C21	C	0.573572	0.236825	-0.341946
C22	C	0.506281	0.269522	-0.301941
C23	C	0.439003	0.236779	-0.261928
C24	C	0.439012	0.171345	-0.261931
C25	C	0.411598	0.373182	-0.297080
C26	C	0.411587	0.438615	-0.297081
C27	C	0.506253	0.471343	-0.301927
C28	C	0.600933	0.438630	-0.306785
C29	C	0.600942	0.373196	-0.306789
C30	C	0.506264	0.340475	-0.301933
C31	C	0.573532	0.575031	-0.341928
C32	C	0.573534	0.640468	-0.341917
C33	C	0.438955	0.640420	-0.261902
C34	C	0.438963	0.574985	-0.261909
C35	C	0.506250	0.542295	-0.301926
C36	C	0.232224	0.905606	-0.301933
C37	C	0.115448	0.905613	-0.301939
C38	C	0.060564	0.865563	-0.342002
C39	C	-0.049160	0.865583	-0.342007
C40	C	-0.049107	0.945702	-0.261879
C41	C	0.060615	0.945685	-0.261878
C42	C	0.115396	0.825491	-0.382063
C43	C	0.060512	0.785438	-0.422130
C44	C	-0.049212	0.785457	-0.422134
C45	C	-0.104052	0.825529	-0.382072
C46	C	0.779225	0.905591	-0.301923
C47	C	0.896002	0.905648	-0.301944
C48	C	0.506236	0.905642	-0.465345
C49	C	0.506227	0.905664	-0.534986
C50	C	0.506287	1.069013	-0.301940
C51	C	0.506299	1.138654	-0.301948
C52	C	0.439035	0.945739	-0.567708
C53	C	0.438990	0.945739	-0.633143
C54	C	0.506156	0.905669	-0.665854
C55	C	0.573353	0.865585	-0.633125
C56	C	0.573388	0.865583	-0.567690
C57	C	0.600754	0.900722	-0.769529
C58	C	0.600720	0.900729	-0.834962
C59	C	0.506045	0.905673	-0.867675
C60	C	0.411400	0.910623	-0.834947
C61	C	0.411436	0.910620	-0.769513
C62	C	0.506124	0.905667	-0.736807
C63	C	0.438798	0.945749	-0.971349
C64	C	0.438751	0.945744	-1.036786
C65	C	0.573123	0.865594	-1.036766
C66	C	0.573160	0.865596	-0.971331
C67	C	0.505999	0.905677	-0.938626
C68	C	0.506203	0.905574	-0.139134
C69	C	0.505916	0.905673	-0.069493
H70	H	0.628354	0.263484	-0.374525
H71	H	0.678033	0.346564	-0.310743
C72	C	0.364828	0.989832	-1.072780
N73	N	0.309149	1.023040	-1.099891
H74	H	0.678018	0.465276	-0.310736
C75	C	0.647555	0.539070	-0.385942
N76	N	0.703311	0.511985	-0.419093
H77	H	0.628323	0.667120	-0.374492
C78	C	-0.109435	0.989773	-0.217809
N79	N	-0.154874	1.022966	-0.184612
C80	C	0.647311	0.821496	-0.531696
N81	N	0.702992	0.788290	-0.504583
H82	H	0.628036	0.832958	-0.659762
H83	H	0.384169	0.667042	-0.229326
H84	H	0.384178	0.548331	-0.229335
H85	H	0.628366	0.144777	-0.374535
C86	C	-0.109581	0.741415	-0.466223
N87	N	-0.155049	0.708242	-0.499435
H88	H	0.677831	0.896528	-0.742900
H89	H	0.627800	0.832962	-1.063399
C90	C	0.365142	0.989821	-0.531736
N91	N	0.309480	1.023022	-0.504642
C92	C	0.307328	0.916057	-0.733514
N93	N	0.228912	0.920148	-0.706400
H94	H	0.105303	0.978299	-0.229256
C95	C	0.307438	0.474593	-0.291738
N96	N	0.228990	0.501690	-0.287712
C97	C	0.364995	0.135334	-0.217925
N98	N	0.309241	0.108210	-0.184781
H99	H	-0.193397	0.825546	-0.382083
H100	H	0.384106	0.978382	-0.944720
C101	C	0.365077	0.989830	-0.669144
N102	N	0.309408	1.023042	-0.696258
C103	C	0.307451	0.337188	-0.291749
N104	N	0.229010	0.310078	-0.287734
H105	H	0.384216	0.263405	-0.229355
H106	H	0.334306	0.914650	-0.861580
C107	C	0.704831	0.895283	-0.870957
N108	N	0.783249	0.891179	-0.898067
C109	C	0.236095	0.825465	-0.382061
N110	N	0.327005	0.825446	-0.382058
C111	C	0.120838	0.741362	-0.466196
N112	N	0.166274	0.708162	-0.499387
C113	C	0.647083	0.821512	-0.935336
N114	N	0.702762	0.788304	-0.908224
