data_functionalizedCrystal
_audit_creation_method	'MofGen! by Chris Wilmer'
_symmetry_space_group_name_H-M	'P1'
_symmetry_Int_Tables_number	1
_symmetry_cell_setting	triclinic
loop_
_symmetry_equiv_pos_as_xyz
  x,y,z
_cell_length_a	12.759401
_cell_length_b	18.215404
_cell_length_c	12.759393
_cell_angle_alpha	89.965468
_cell_angle_beta	90.017854
_cell_angle_gamma	89.974350
loop_
_atom_site_label
_atom_site_type_symbol
_atom_site_fract_x
_atom_site_fract_y
_atom_site_fract_z
Zn1	Zn	1.606189	0.292905	0.593942
Zn2	Zn	2.106189	0.792905	1.093942
Zn3	Zn	1.606055	0.415991	0.418253
Zn4	Zn	2.106055	0.915991	0.918253
Zn5	Zn	1.430491	0.292947	0.418283
Zn6	Zn	1.930491	0.792947	0.918283
Zn7	Zn	1.430451	0.415938	0.593896
Zn8	Zn	1.930451	0.915938	1.093896
O9	O	1.518297	0.354445	0.506093
O10	O	2.018297	0.854445	1.006093
O11	O	1.753192	0.309237	0.570643
O12	O	2.253192	0.809237	1.070643
O13	O	1.582727	0.399709	0.271236
O14	O	2.082727	0.899709	0.771236
O15	O	1.453870	0.189957	0.441616
O16	O	1.953870	0.689957	0.941616
O17	O	1.753094	0.399668	0.441565
O18	O	2.253094	0.899668	0.941565
O19	O	1.582954	0.189926	0.570672
O20	O	2.082954	0.689926	1.070672
O21	O	1.453740	0.309309	0.271258
O22	O	1.953740	0.809309	0.771258
O23	O	1.283465	0.309258	0.441572
O24	O	1.783465	0.809258	0.941572
O25	O	1.453803	0.399578	0.740923
O26	O	1.953803	0.899578	1.240923
O27	O	1.283436	0.399619	0.570594
O28	O	1.783436	0.899619	1.070594
O29	O	1.582916	0.309186	0.740957
O30	O	2.082916	0.809186	1.240957
O31	O	1.582689	0.518969	0.441520
O32	O	2.082689	1.018969	0.941520
O33	O	1.453673	0.518930	0.570565
O34	O	1.953673	1.018930	1.070565
C35	C	1.245329	0.354437	0.506082
C36	C	1.745329	0.854437	1.006082
C37	C	1.128553	0.354452	0.506102
C38	C	1.628553	0.854452	1.006102
C39	C	1.518191	0.545652	0.506057
C40	C	2.018191	1.045652	1.006057
C41	C	1.518241	0.627451	0.506077
C42	C	2.018241	1.127451	1.006077
C43	C	1.518370	0.354371	0.780127
C44	C	2.018370	0.854371	1.280127
C45	C	1.518401	0.354340	0.896904
C46	C	2.018401	0.854340	1.396904
C47	C	1.792330	0.354454	0.506105
C48	C	2.292330	0.854454	1.006105
C49	C	1.909106	0.354458	0.506110
C50	C	2.409106	0.854458	1.006110
C51	C	1.963960	0.401499	0.573286
C52	C	2.463960	0.901499	1.073286
C53	C	2.073684	0.401499	0.573280
C54	C	2.573684	0.901499	1.073280
C55	C	2.073691	0.307408	0.438919
C56	C	2.573691	0.807408	0.938919
C57	C	1.963969	0.307413	0.438921
C58	C	2.463969	0.807413	0.938921
C59	C	1.963957	0.455820	0.650861
C60	C	2.463957	0.955820	1.150861
C61	C	2.073681	0.455819	0.650855
C62	C	2.573681	0.955819	1.150855
C63	C	1.585582	0.815640	0.439021
C64	C	2.085582	1.315640	0.939021
C65	C	1.585631	0.892499	0.439053
C66	C	2.085631	1.392499	0.939053
C67	C	1.451171	0.892498	0.573316
C68	C	1.951171	1.392498	1.073316
C69	C	1.451129	0.815641	0.573290
C70	C	1.951129	1.315641	1.073290
C71	C	1.518332	0.777214	0.506136
C72	C	2.018332	1.277214	1.006136
C73	C	1.518424	0.930930	0.506194
C74	C	2.018424	1.430930	1.006194
C75	C	1.518477	1.014264	0.506229
C76	C	2.018477	1.514264	1.006229
C77	C	1.518282	0.693875	0.506103
C78	C	2.018282	1.193875	1.006103
C79	C	1.518438	1.162492	0.506172
C80	C	2.018438	1.662492	1.006172
C81	C	1.518515	1.080694	0.506253
C82	C	2.018515	1.580694	1.006253
C83	C	1.518284	0.354466	0.233126
C84	C	2.018284	0.854466	0.733126
C85	C	1.518456	0.354291	0.116350
C86	C	2.018456	0.854291	0.616350
C87	C	1.585640	0.307268	0.951785
C88	C	2.085640	0.807268	1.451785
C89	C	1.585665	0.307241	1.061509
C90	C	2.085665	0.807241	1.561509
C91	C	1.451210	0.401364	1.061461
C92	C	1.951210	0.901364	1.561461
C93	C	1.451180	0.401387	0.951739
C94	C	1.951180	0.901387	1.451739
C95	C	1.663270	0.252929	0.951813
C96	C	2.163270	0.752929	1.451813
C97	C	1.663295	0.252902	1.061537
C98	C	2.163295	0.752902	1.561537
H99	H	1.919311	0.269116	0.384208
H100	H	2.419311	0.769116	0.884208
H101	H	1.929961	0.435383	0.728160
H102	H	2.429961	0.935383	1.228160
H103	H	1.640306	0.784355	0.384343
H104	H	2.140306	1.284355	0.884343
H105	H	1.640395	0.923782	0.384403
H106	H	2.140395	1.423782	0.884403
H107	H	1.641514	0.195936	0.922062
H108	H	2.141514	0.695936	1.422062
H109	H	2.118374	0.269106	0.384216
H110	H	2.618374	0.769106	0.884216
H111	H	1.934143	0.512826	0.629056
H112	H	2.434143	1.012826	1.129056
H113	H	1.396455	0.923795	0.627989
H114	H	1.896455	1.423795	1.127989
N115	N	1.378657	0.452157	0.892547
N116	N	1.878657	0.952157	1.392547
H117	H	1.388835	0.445033	0.814717
H118	H	1.888835	0.945033	1.314717
H119	H	1.303638	0.440690	0.911728
H120	H	1.803638	0.940690	1.411728
H121	H	2.107671	0.509971	0.621694
H122	H	2.607671	1.009971	1.121694
N123	N	1.378696	0.452096	1.120605
N124	N	1.878696	0.952096	1.620605
H125	H	1.388910	0.444936	1.198442
H126	H	1.888910	0.944936	1.698442
H127	H	1.394990	0.504664	1.101414
H128	H	1.894990	1.004664	1.601414
H129	H	1.634194	0.198750	1.095590
H130	H	2.134194	0.698750	1.595590
N131	N	1.771059	0.273134	1.101001
N132	N	2.271059	0.773134	1.601001
H133	H	1.799883	0.231668	1.145002
H134	H	2.299883	0.731668	1.645002
H135	H	1.819059	0.282198	1.039417
H136	H	2.319059	0.782198	1.539417
H137	H	2.103495	0.440525	0.732227
H138	H	2.603495	0.940525	1.232227
H139	H	1.396365	0.784352	0.627948
H140	H	1.896365	1.284352	1.127948
N141	N	1.765587	0.280133	0.906831
N142	N	2.265587	0.780133	1.406831
H143	H	1.824669	0.247405	0.931265
H144	H	2.324669	0.747405	1.431265
H145	H	1.761822	0.279241	0.827776
H146	H	2.261822	0.779241	1.327776
