data_functionalizedCrystal
_audit_creation_method	'MofGen! by Chris Wilmer'
_symmetry_space_group_name_H-M	'P1'
_symmetry_Int_Tables_number	1
_symmetry_cell_setting	triclinic
loop_
_symmetry_equiv_pos_as_xyz
  x,y,z
_cell_length_a	13.262415
_cell_length_b	13.339070
_cell_length_c	11.892095
_cell_angle_alpha	85.042766
_cell_angle_beta	78.038849
_cell_angle_gamma	99.430224
loop_
_atom_site_label
_atom_site_type_symbol
_atom_site_fract_x
_atom_site_fract_y
_atom_site_fract_z
O1	O	0.513892	1.361803	-0.252029
O2	O	0.445816	1.065547	-0.231094
O3	O	0.331563	1.217960	-0.195966
O4	O	0.628145	1.209390	-0.287157
O5	O	0.341069	1.205252	-0.010881
O6	O	0.455322	1.052839	-0.046009
O7	O	0.523398	1.349095	-0.066944
Zn8	Zn	0.490869	1.198949	-0.027090
Zn9	Zn	0.478345	1.215693	-0.270948
O10	O	0.637651	1.196682	-0.102072
C11	C	0.439070	1.021211	-0.135015
C12	C	0.404793	0.908039	-0.124475
C13	C	0.297582	1.209957	-0.091516
C14	C	0.182161	1.205030	-0.056034
C15	C	-0.163904	1.218858	-0.359581
C16	C	-0.055459	1.223495	-0.392924
C17	C	0.003951	1.218879	-0.308704
C18	C	-0.045094	1.209626	-0.191135
C19	C	-0.153547	1.204996	-0.157789
C20	C	0.014307	1.205017	-0.106913
C21	C	-0.034737	1.195763	0.010657
C22	C	-0.143181	1.191134	0.043997
C23	C	-0.202591	1.195750	-0.040222
C24	C	0.122761	1.209646	-0.140259
C25	C	0.133117	1.195784	0.061533
C26	C	0.024673	1.191147	0.094876
C27	C	0.671311	0.550016	-0.206441
C28	C	0.703519	0.656347	-0.216348
C29	C	0.628840	0.719275	-0.193380
C30	C	0.521948	0.675862	-0.160504
C31	C	0.489737	0.569521	-0.150604
C32	C	0.447266	0.738780	-0.137544
C33	C	0.340374	0.695367	-0.104667
C34	C	0.308168	0.589037	-0.094768
C35	C	0.382846	0.526108	-0.117736
C36	C	0.479477	0.845121	-0.147444
C37	C	0.297903	0.864626	-0.091607
C38	C	0.265695	0.758295	-0.081699
C39	C	0.671632	1.204685	-0.206525
C40	C	0.787053	1.209612	-0.242014
C41	C	0.530144	1.393430	-0.163025
C42	C	0.564421	1.506603	-0.173573
N43	N	0.499418	1.187529	0.139335
N44	N	0.469790	1.227120	-0.437371
C45	C	0.410243	1.306584	0.403401
C46	C	0.416228	1.298609	0.519903
C47	C	0.517367	1.163600	0.488844
C48	C	0.511382	1.171575	0.372343
C49	C	0.457819	1.243070	0.329625
C50	C	0.451841	1.251049	0.213119
C51	C	0.552973	1.116036	0.182065
C52	C	0.558958	1.108062	0.298567
H53	H	0.162682	1.217180	-0.235985
C54	C	0.617877	1.029428	0.345562
H55	H	0.614635	1.033778	0.425511
H56	H	0.586254	0.962442	0.335908
H57	H	0.689108	1.043569	0.304265
H58	H	-0.290896	1.191974	-0.013080
H59	H	0.408231	1.309267	0.178340
H60	H	0.092251	1.222655	-0.335860
C61	C	0.753446	0.480802	-0.231716
H62	H	0.821720	0.521883	-0.252720
H63	H	0.747974	0.434473	-0.164479
H64	H	0.741329	0.443360	-0.293569
C65	C	0.190591	0.541280	-0.058626
H66	H	0.182103	0.468941	-0.056032
H67	H	0.161874	0.558277	0.015764
H68	H	0.155261	0.567153	-0.113335
H69	H	-0.183108	1.183612	0.139729
H70	H	-0.015275	1.183613	0.190603
C71	C	0.597047	0.892869	-0.183600
H72	H	0.605540	0.965211	-0.186218
H73	H	0.632388	0.866998	-0.128908
H74	H	0.625748	0.875867	-0.258000
H75	H	0.591717	1.064322	0.121982
C76	C	-0.001519	1.233662	-0.522237
H77	H	-0.052432	1.235737	-0.567620
H78	H	0.049607	1.294939	-0.542221
H79	H	0.031533	1.176562	-0.536656
C80	C	0.347420	0.409143	-0.106838
H81	H	0.407207	0.377888	-0.125228
H82	H	0.309918	0.384258	-0.029746
H83	H	0.303292	0.393121	-0.158842
H84	H	0.181490	1.192028	0.130112
H85	H	0.655070	0.805854	-0.201452
H86	H	0.178661	0.722934	-0.054940
H87	H	0.790549	0.691687	-0.243125
C88	C	-0.229254	1.223936	-0.452207
H89	H	-0.300865	1.219849	-0.415506
H90	H	-0.204577	1.286726	-0.501905
H91	H	-0.222650	1.168349	-0.496348
H92	H	0.237093	0.915863	-0.072909
C93	C	0.351333	1.385225	0.356406
H94	H	0.323852	1.421909	0.417032
H95	H	0.398325	1.431694	0.295779
H96	H	0.295460	1.350582	0.327432
H97	H	0.560968	1.105384	0.523643
C98	C	0.363898	1.368476	0.601051
H99	H	0.331149	1.412200	0.558918
H100	H	0.312703	1.327617	0.662968
H101	H	0.415566	1.408733	0.631316
