data_functionalizedCrystal
_audit_creation_method	'MofGen! by Chris Wilmer'
_symmetry_space_group_name_H-M	'P1'
_symmetry_Int_Tables_number	1
_symmetry_cell_setting	triclinic
loop_
_symmetry_equiv_pos_as_xyz
  x,y,z
_cell_length_a	16.120484
_cell_length_b	12.759401
_cell_length_c	12.759393
_cell_angle_alpha	89.979412
_cell_angle_beta	87.137118
_cell_angle_gamma	87.076404
loop_
_atom_site_label
_atom_site_type_symbol
_atom_site_fract_x
_atom_site_fract_y
_atom_site_fract_z
Zn1	Zn	-0.331898	-1.584969	0.615206
Zn2	Zn	-0.471336	-1.575920	0.448419
Zn3	Zn	-0.331937	-1.409268	0.439542
Zn4	Zn	-0.471267	-1.400321	0.624050
O5	O	-0.401610	-1.492620	0.531804
O6	O	-0.350408	-1.730789	0.593096
O7	O	-0.452889	-1.553771	0.300223
O8	O	-0.215267	-1.440107	0.455428
O9	O	-0.452852	-1.724141	0.470558
O10	O	-0.215239	-1.569193	0.584488
O11	O	-0.350474	-1.431333	0.293701
O12	O	-0.350407	-1.261061	0.464003
O13	O	-0.452734	-1.424857	0.769895
O14	O	-0.452772	-1.254488	0.599560
O15	O	-0.350341	-1.560517	0.763398
O16	O	-0.587992	-1.545095	0.479133
O17	O	-0.587941	-1.416083	0.608168
C18	C	-0.401586	-1.219654	0.531779
C19	C	-0.401597	-1.102876	0.531794
C20	C	-0.454988	-0.934888	0.602293
C21	C	-0.454980	-1.044613	0.602278
C22	C	-0.348223	-1.051410	0.461313
C23	C	-0.348236	-0.941687	0.461324
C24	C	-0.508369	-0.876631	0.672789
C25	C	-0.561744	-0.928090	0.743269
C26	C	-0.561736	-1.037815	0.743253
C27	C	-0.508354	-1.096080	0.672758
C28	C	-0.618216	-1.478665	0.545596
C29	C	-0.710881	-1.472791	0.551532
C30	C	-0.880542	-1.462074	0.562390
C31	C	-0.921837	-1.523354	0.501236
C32	C	-1.016241	-1.517391	0.507278
C33	C	-0.786129	-1.468036	0.556349
C34	C	-0.184157	-1.506657	0.517981
C35	C	-0.091492	-1.512639	0.512091
C36	C	-0.401525	-1.492699	0.805832
C37	C	-0.401490	-1.492732	0.922607
C38	C	-0.401627	-0.766652	0.531825
C39	C	-0.401617	-0.883429	0.531820
C40	C	-0.401633	-1.492605	0.258838
C41	C	-0.401434	-1.492790	0.142050
C42	C	-0.348168	-1.563380	0.974087
C43	C	-0.348138	-1.563407	1.083809
C44	C	-0.454758	-1.422135	1.090562
C45	C	-0.454783	-1.422104	0.980841
C46	C	-0.294875	-1.634008	0.915853
C47	C	-0.241550	-1.704663	0.967333
C48	C	-0.241520	-1.704690	1.077055
C49	C	-0.294815	-1.634062	1.135297
H50	H	-0.508380	-0.787287	0.672812
H51	H	-0.916087	-1.405135	0.619277
Br52	Br	-0.294918	-1.633982	0.766945
H53	H	-0.498189	-1.364561	0.938924
H54	H	-0.198154	-1.762159	0.919905
H55	H	-0.304772	-0.899788	0.403944
Br56	Br	-0.508355	-1.244993	0.672727
H57	H	-0.605210	-0.880643	0.800657
Br58	Br	-0.275779	-1.130483	0.365650
Br59	Br	-0.169153	-1.800576	1.146920
H60	H	-0.294776	-1.634078	1.224640
H61	H	-0.498147	-1.364633	1.137991
Br62	Br	-0.634181	-1.107650	0.838890
Br63	Br	-0.862594	-1.618261	0.406408
