data_functionalizedCrystal
_audit_creation_method	'MofGen! by Chris Wilmer'
_symmetry_space_group_name_H-M	'P1'
_symmetry_Int_Tables_number	1
_symmetry_cell_setting	triclinic
loop_
_symmetry_equiv_pos_as_xyz
  x,y,z
_cell_length_a	12.594517
_cell_length_b	19.120786
_cell_length_c	12.594509
_cell_angle_alpha	87.525775
_cell_angle_beta	89.985695
_cell_angle_gamma	92.465364
loop_
_atom_site_label
_atom_site_type_symbol
_atom_site_fract_x
_atom_site_fract_y
_atom_site_fract_z
Zn1	Zn	1.609121	-0.279611	-0.583539
Zn2	Zn	2.109121	0.220389	-0.083539
Zn3	Zn	1.601388	-0.397081	-0.397947
Zn4	Zn	2.101388	0.102919	0.102053
Zn5	Zn	1.431123	-0.279641	-0.405588
Zn6	Zn	1.931123	0.220359	0.094412
Zn7	Zn	1.423486	-0.397033	-0.575902
Zn8	Zn	1.923486	0.102967	-0.075902
O9	O	1.516279	-0.338342	-0.490744
O10	O	2.016279	0.161658	0.009256
O11	O	1.757040	-0.295201	-0.558919
O12	O	2.257040	0.204799	-0.058919
O13	O	1.578761	-0.381536	-0.250013
O14	O	2.078761	0.118464	0.249987
O15	O	1.461166	-0.181346	-0.435587
O16	O	1.961166	0.318654	0.064413
O17	O	1.751359	-0.381506	-0.422565
O18	O	2.251359	0.118494	0.077435
O19	O	1.591941	-0.181324	-0.566327
O20	O	2.091941	0.318676	-0.066327
O21	O	1.453668	-0.295253	-0.255626
O22	O	1.953668	0.204747	0.244374
O23	O	1.281164	-0.295206	-0.428182
O24	O	1.781164	0.204794	0.071818
O25	O	1.448151	-0.381424	-0.725863
O26	O	1.948151	0.118576	-0.225863
O27	O	1.275554	-0.381453	-0.553311
O28	O	1.775554	0.118547	-0.053311
O29	O	1.584536	-0.295154	-0.731474
O30	O	2.084536	0.204846	-0.231474
O31	O	1.571357	-0.495365	-0.415160
O32	O	2.071357	0.004635	0.084840
O33	O	1.440653	-0.495330	-0.545903
O34	O	1.940653	0.004670	-0.045903
C35	C	1.239739	-0.338328	-0.490748
C36	C	1.739739	0.161672	0.009252
C37	C	1.121433	-0.338339	-0.490773
C38	C	1.621433	0.161661	0.009227
C39	C	0.978390	-0.385334	-0.558694
C40	C	1.478390	0.114666	-0.058694
C41	C	1.048051	-0.402431	-0.460444
C42	C	1.548051	0.097569	0.039556
C43	C	1.053342	-0.321274	-0.589010
C44	C	1.553342	0.178726	-0.089010
C45	C	0.980305	-0.355492	-0.392437
C46	C	1.480305	0.144508	0.107563
C47	C	0.985591	-0.274305	-0.521070
C48	C	1.485591	0.225695	-0.021070
C49	C	1.055222	-0.291377	-0.422755
C50	C	1.555222	0.208623	0.077245
C51	C	1.504366	-0.520833	-0.478897
C52	C	2.004366	-0.020833	0.021103
C53	C	1.499367	-0.598904	-0.473864
C54	C	1.999367	-0.098904	0.026136
C55	C	1.565055	-0.635510	-0.539624
C56	C	2.065055	-0.135510	-0.039624
C57	C	1.560354	-0.708866	-0.534897
C58	C	2.060354	-0.208866	-0.034897
C59	C	1.489969	-0.745614	-0.464404
C60	C	1.989969	-0.245614	0.035596
C61	C	1.424274	-0.709003	-0.398641
C62	C	1.924274	-0.209003	0.101359
C63	C	1.428971	-0.635649	-0.403374
C64	C	1.928971	-0.135649	0.096626
C65	C	1.472379	-0.967101	-0.446710
C66	C	1.972379	-0.467101	0.053290
C67	C	1.467689	-1.040460	-0.441979
C68	C	1.967689	-0.540460	0.058021
C69	C	1.603768	-1.040318	-0.578238
C70	C	2.103768	-0.540318	-0.078238
C71	C	1.608463	-0.966962	-0.582960
C72	C	2.108463	-0.466962	-0.082960
C73	C	1.542764	-0.930357	-0.517201
C74	C	2.042764	-0.430357	-0.017201
C75	C	1.485164	-0.820596	-0.459568
C76	C	1.985164	-0.320596	0.040432
C77	C	1.547565	-0.855377	-0.522043
C78	C	2.047565	-0.355377	-0.022043
C79	C	1.793899	-0.338356	-0.490741
C80	C	2.293899	0.161644	0.009259
C81	C	1.912204	-0.338362	-0.490740
C82	C	2.412204	0.161638	0.009260
C83	C	1.516355	-0.338280	-0.768369
C84	C	2.016355	0.161720	-0.268369
C85	C	1.516387	-0.338254	-0.886676
C86	C	2.016387	0.161746	-0.386676
C87	C	1.528268	-0.155137	-0.502661
C88	C	2.028268	0.344863	-0.002661
C89	C	1.533377	-0.077066	-0.507740
C90	C	2.033377	0.422934	-0.007740
C91	C	1.442231	-0.385149	-0.952880
C92	C	1.942231	0.114851	-0.452880
C93	C	1.538238	-0.402311	-1.022546
C94	C	2.038238	0.097689	-0.522546
C95	C	1.420458	-0.321050	-1.027812
C96	C	1.920458	0.178950	-0.527812
C97	C	1.612442	-0.355449	-0.954782
C98	C	2.112442	0.144551	-0.454782
C99	C	1.494599	-0.274158	-0.960044
C100	C	1.994599	0.225842	-0.460044
C101	C	1.590674	-0.291296	-1.029680
C102	C	2.090674	0.208704	-0.529680
C103	C	1.516269	-0.338352	-0.214203
C104	C	2.016269	0.161648	0.285797
C105	C	1.516456	-0.338180	-0.095909
C106	C	2.016456	0.161820	0.404091
H107	H	1.622374	-0.605594	-0.597023
H108	H	2.122374	-0.105594	-0.097023
Br109	Br	1.285199	-0.296847	-1.081220
Br110	Br	1.785199	0.203153	-0.581220
Br111	Br	1.389634	-0.870475	-0.363910
Br112	Br	1.889634	-0.370475	0.136090
Br113	Br	1.643075	-0.805503	-0.617718
Br114	Br	2.143075	-0.305503	-0.117718
H115	H	1.613852	-0.738667	-0.588438
H116	H	2.113852	-0.238667	-0.088438
Br117	Br	1.094014	-0.492702	-0.417697
Br118	Br	1.594014	0.007298	0.082303
H119	H	1.088662	-0.251645	-0.365234
H120	H	1.588662	0.248355	0.134766
H121	H	1.556704	-0.456484	-1.050137
H122	H	2.056704	0.043516	-0.550137
Br123	Br	0.922320	-0.451603	-0.654325
Br124	Br	1.422320	0.048397	-0.154325
Br125	Br	1.337778	-0.451346	-0.896832
Br126	Br	1.837778	0.048654	-0.396832
H127	H	1.085386	-0.306830	-0.672102
H128	H	1.585386	0.193170	-0.172102
H129	H	0.948388	-0.370001	-0.309318
H130	H	1.448388	0.129999	0.190682
H131	H	0.957993	-0.220159	-0.546743
H132	H	1.457993	0.279841	-0.046743
H133	H	1.665776	-0.937043	-0.640361
H134	H	2.165776	-0.437043	-0.140361
Br135	Br	1.692923	-1.089999	-0.667479
Br136	Br	2.192923	-0.589999	-0.167479
Br137	Br	1.747736	-0.379761	-0.901598
Br138	Br	2.247736	0.120239	-0.401598
H139	H	1.366960	-0.738930	-0.341248
H140	H	1.866960	-0.238930	0.158752
Br141	Br	1.372167	-1.090334	-0.346296
Br142	Br	1.872167	-0.590334	0.153704
Br143	Br	1.339815	-0.585969	-0.314129
Br144	Br	1.839815	-0.085969	0.185871
H145	H	1.418886	-0.937303	-0.393164
H146	H	1.918886	-0.437303	0.106836
Br147	Br	1.695356	-0.225144	-1.085402
Br148	Br	2.195356	0.274856	-0.585402
Br149	Br	1.463774	-0.183890	-0.914013
Br150	Br	1.963774	0.316110	-0.414013
