data_functionalizedCrystal
_audit_creation_method	'MofGen! by Chris Wilmer'
_symmetry_space_group_name_H-M	'P1'
_symmetry_Int_Tables_number	1
_symmetry_cell_setting	triclinic
loop_
_symmetry_equiv_pos_as_xyz
  x,y,z
_cell_length_a	10.967874
_cell_length_b	6.394989
_cell_length_c	9.482900
_cell_angle_alpha	80.390180
_cell_angle_beta	68.707142
_cell_angle_gamma	94.416282
loop_
_atom_site_label
_atom_site_type_symbol
_atom_site_fract_x
_atom_site_fract_y
_atom_site_fract_z
O1	O	1.747855	-0.143132	-0.558765
O2	O	1.370173	-0.196561	-0.464148
O3	O	1.564375	0.134504	-0.512800
O4	O	1.553653	-0.474198	-0.510112
O5	O	1.524932	0.066996	-0.261127
O6	O	1.330730	-0.264070	-0.212475
O7	O	1.708412	-0.210640	-0.307091
Cu8	Cu	1.515970	-0.243519	-0.236803
Cu9	Cu	1.562615	-0.163683	-0.534436
O10	O	1.514210	-0.541706	-0.258439
C11	C	1.302029	-0.231528	-0.326181
C12	C	1.157746	-0.235118	-0.290036
C13	C	1.113853	-0.201747	-0.404295
C14	C	0.964729	-0.205456	-0.366940
C15	C	1.776556	-0.175672	-0.445061
C16	C	1.920841	-0.172080	-0.481217
C17	C	1.542535	0.178460	-0.386438
C18	C	1.536056	0.414349	-0.384817
N19	N	1.483172	-0.299670	-0.027466
N20	N	1.595424	-0.107515	-0.743776
C21	C	1.552932	-0.180234	0.027257
C22	C	1.525653	-0.226968	0.201508
H23	H	0.891910	-0.236786	-0.241455
H24	H	0.993657	-0.140776	-0.606702
F25	F	1.378702	-0.478538	0.079909
H26	H	1.186674	-0.170442	-0.529772
H27	H	1.632848	-0.043374	-0.054892
H28	H	1.445723	-0.363821	0.283657
H29	H	1.084923	-0.266445	-0.164559
H30	H	1.675344	0.029353	0.174078
