data_functionalizedCrystal
_audit_creation_method	'MofGen! by Chris Wilmer'
_symmetry_space_group_name_H-M	'P1'
_symmetry_Int_Tables_number	1
_symmetry_cell_setting	triclinic
loop_
_symmetry_equiv_pos_as_xyz
  x,y,z
_cell_length_a	12.759399
_cell_length_b	12.759401
_cell_length_c	12.759393
_cell_angle_alpha	89.981504
_cell_angle_beta	89.969955
_cell_angle_gamma	90.015963
loop_
_atom_site_label
_atom_site_type_symbol
_atom_site_fract_x
_atom_site_fract_y
_atom_site_fract_z
Zn1	Zn	-0.418200	1.606247	-0.593992
Zn2	Zn	-0.593919	1.606138	-0.418317
Zn3	Zn	-0.418255	1.430549	-0.418332
Zn4	Zn	-0.593838	1.430535	-0.593959
O5	O	-0.506053	1.518367	-0.506150
O6	O	-0.441520	1.753254	-0.570697
O7	O	-0.570673	1.582807	-0.271298
O8	O	-0.271226	1.453908	-0.441654
O9	O	-0.570620	1.753174	-0.441629
O10	O	-0.271186	1.582992	-0.570711
O11	O	-0.441614	1.453802	-0.271309
O12	O	-0.441535	1.283526	-0.441621
O13	O	-0.570482	1.453883	-0.740984
O14	O	-0.570536	1.283516	-0.570653
O15	O	-0.441442	1.582978	-0.741009
O16	O	-0.740929	1.582792	-0.441596
O17	O	-0.740870	1.453777	-0.570639
C18	C	-0.506033	1.245400	-0.506136
C19	C	-0.506050	1.128623	-0.506155
C20	C	-0.573328	1.073783	-0.573231
C21	C	-0.573342	0.964059	-0.573242
C22	C	-0.438796	0.964025	-0.439092
C23	C	-0.438778	1.073747	-0.439087
C24	C	-0.640600	1.128659	-0.640298
C25	C	-0.707885	1.073819	-0.707379
C26	C	-0.707898	0.964095	-0.707390
C27	C	-0.640627	0.909211	-0.640321
C28	C	-0.779020	1.518300	-0.506135
C29	C	-0.895797	1.518367	-0.506164
C30	C	-0.950763	1.451246	-0.438930
C31	C	-1.060487	1.451318	-0.438947
C32	C	-1.060269	1.585633	-0.573441
C33	C	-0.950547	1.585566	-0.573418
C34	C	-0.896013	1.384047	-0.371677
C35	C	-0.950979	1.316920	-0.304438
C36	C	-1.060703	1.316991	-0.304455
C37	C	-1.115461	1.384190	-0.371710
C38	C	-0.232019	1.518464	-0.506188
C39	C	-0.115243	1.518505	-0.506204
C40	C	-0.505947	1.518441	-0.780184
C41	C	-0.505902	1.518472	-0.896960
C42	C	-0.506073	1.792401	-0.506165
C43	C	-0.506082	1.909177	-0.506171
C44	C	-0.438704	1.585702	-0.951837
C45	C	-0.438666	1.585727	-1.061561
C46	C	-0.573033	1.451290	-1.061522
C47	C	-0.573064	1.451261	-0.951800
C48	C	-0.371541	1.652913	-0.896997
C49	C	-0.304339	1.720149	-0.951874
C50	C	-0.304301	1.720174	-1.061598
C51	C	-0.371465	1.652963	-1.116445
C52	C	-0.506083	1.518355	-0.233183
C53	C	-0.505832	1.518527	-0.116407
H54	H	-0.383987	1.118399	-0.384476
H55	H	-0.906389	1.262215	-0.249675
O56	O	-0.638312	1.385915	-1.114635
C57	C	-0.771643	1.252623	-1.103022
C58	C	-0.697745	1.326586	-1.042743
H59	H	-0.819730	1.204652	-1.044923
H60	H	-0.723441	1.197649	-1.154373
H61	H	-0.826521	1.300874	-1.154407
H62	H	-0.642853	1.278420	-0.991301
H63	H	-0.746013	1.381563	-0.991458
O64	O	-0.239191	1.785393	-0.898438
C65	C	-0.179642	1.844883	-0.729423
C66	C	-0.253497	1.770960	-0.789804
H67	H	-0.191167	1.833223	-0.641582
H68	H	-0.198090	1.929622	-0.750920
H69	H	-0.094931	1.826476	-0.751076
H70	H	-0.338234	1.789272	-0.768183
H71	H	-0.234959	1.686243	-0.768302
O72	O	-0.773258	1.126966	-0.772629
C73	C	-0.906750	1.115417	-0.905647
C74	C	-0.832751	1.055102	-0.831820
H75	H	-0.954885	1.057342	-0.953507
H76	H	-0.858623	1.166788	-0.960731
H77	H	-0.961577	1.166787	-0.857297
H78	H	-0.777909	1.003676	-0.880085
H79	H	-0.880943	1.003798	-0.776733
O80	O	-0.773100	0.910775	-0.772664
C81	C	-0.787431	0.786906	-0.914455
C82	C	-0.713464	0.847241	-0.840618
H83	H	-0.739246	0.735507	-0.969400
H84	H	-0.835487	0.844932	-0.962463
H85	H	-0.842335	0.735556	-0.866106
H86	H	-0.658496	0.898592	-0.888886
H87	H	-0.665482	0.789158	-0.792606
H88	H	-0.640634	0.819867	-0.640345
O89	O	-0.373564	0.910552	-0.373969
C90	C	-0.313938	0.741502	-0.314554
C91	C	-0.387878	0.801927	-0.388350
H92	H	-0.325469	0.653668	-0.326171
H93	H	-0.332293	0.762967	-0.229785
H94	H	-0.229248	0.763148	-0.333127
H95	H	-0.472593	0.780313	-0.369871
H96	H	-0.369432	0.780456	-0.473097
O97	O	-0.789428	1.383878	-0.371493
C98	C	-0.632089	1.310027	-0.297727
C99	C	-0.752793	1.310130	-0.297806
H100	H	-0.602433	1.250393	-0.238173
H101	H	-0.602181	1.391347	-0.275923
H102	H	-0.602293	1.288217	-0.379093
H103	H	-0.782678	1.331896	-0.216464
H104	H	-0.782630	1.228801	-0.319668
H105	H	-1.105453	1.262341	-0.249699
H106	H	-0.249574	1.774912	-1.106276
O107	O	-0.638394	1.386113	-0.898360
C108	C	-0.780300	1.371930	-0.774472
C109	C	-0.706368	1.445826	-0.834915
H110	H	-0.835290	1.420179	-0.723179
H111	H	-0.732129	1.317022	-0.723036
H112	H	-0.828265	1.323875	-0.832520
H113	H	-0.658387	1.493950	-0.776943
H114	H	-0.754600	1.500665	-0.886367
O115	O	-0.896984	1.650730	-0.638631
C116	C	-0.727850	1.710103	-0.698239
C117	C	-0.788379	1.636265	-0.624318
H118	H	-0.640032	1.698418	-0.686708
H119	H	-0.749281	1.794866	-0.679863
H120	H	-0.749436	1.691636	-0.782934
H121	H	-0.766825	1.654637	-0.539598
H122	H	-0.766943	1.551524	-0.642783
H123	H	-0.640599	1.218002	-0.640294
H124	H	-1.204805	1.384249	-0.371712
H125	H	-1.104862	1.640342	-0.628198
H126	H	-0.371567	1.652903	-0.807654
H127	H	-0.371417	1.652977	-1.205790
