data_functionalizedCrystal
_audit_creation_method	'MofGen! by Chris Wilmer'
_symmetry_space_group_name_H-M	'P1'
_symmetry_Int_Tables_number	1
_symmetry_cell_setting	triclinic
loop_
_symmetry_equiv_pos_as_xyz
  x,y,z
_cell_length_a	8.559649
_cell_length_b	17.038272
_cell_length_c	7.681481
_cell_angle_alpha	83.842174
_cell_angle_beta	94.913240
_cell_angle_gamma	80.445110
loop_
_atom_site_label
_atom_site_type_symbol
_atom_site_fract_x
_atom_site_fract_y
_atom_site_fract_z
O1	O	2.102567	-0.018069	-0.146400
O2	O	1.642806	0.021983	-0.146410
O3	O	1.869955	-0.111695	-0.146391
O4	O	1.875418	0.115610	-0.146419
O5	O	1.897909	-0.128182	0.146469
O6	O	1.670760	0.005496	0.146450
O7	O	2.130521	-0.034556	0.146460
Zn8	Zn	1.905079	-0.017147	0.192953
Zn9	Zn	1.868248	0.004575	-0.192903
O10	O	1.903372	0.099123	0.146441
C11	C	1.597666	0.016775	0.000018
C12	C	1.421513	0.025810	0.000015
C13	C	1.878962	-0.148769	0.000039
C14	C	1.864132	-0.234673	0.000038
C15	C	2.000285	-0.292946	0.000043
C16	C	1.986340	-0.373660	0.000026
C17	C	1.836242	-0.396101	0.000016
C18	C	1.700079	-0.337821	0.000006
C19	C	1.714024	-0.257108	0.000010
C20	C	1.786975	-0.638906	-0.000009
C21	C	1.773041	-0.719626	-0.000008
C22	C	2.059303	-0.755459	0.000008
C23	C	2.073236	-0.674743	0.000023
C24	C	1.937072	-0.616470	0.000004
C25	C	1.821985	-0.478604	0.000004
C26	C	1.951329	-0.533968	0.000003
C27	C	2.175661	-0.029347	0.000028
C28	C	2.351812	-0.038381	0.000020
C29	C	1.894365	0.136197	0.000008
C30	C	1.909193	0.222102	-0.000003
N31	N	1.930226	-0.031973	0.456289
N32	N	1.843113	0.019394	-0.456239
H33	H	1.426899	-0.100250	0.000019
H34	H	2.097211	-0.421103	0.000034
C35	C	1.320079	0.109396	0.000002
H36	H	1.211020	0.104709	0.000011
H37	H	1.333567	0.143271	-0.102124
H38	H	1.353059	0.131767	0.102143
C39	C	2.165394	-0.268268	0.000053
H40	H	2.244481	-0.314534	0.000037
H41	H	2.186537	-0.243279	0.102180
H42	H	2.167033	-0.231774	-0.102086
C43	C	1.564257	-0.193009	0.000009
H44	H	1.472867	-0.217933	0.000018
H45	H	1.554001	-0.155026	-0.102117
H46	H	1.573494	-0.166532	0.102150
C47	C	2.238341	-0.650062	0.000011
H48	H	2.317433	-0.696327	-0.000007
H49	H	2.259486	-0.625071	0.102134
H50	H	2.239971	-0.613569	-0.102132
C51	C	1.534970	-0.362500	-0.000018
H52	H	1.455877	-0.316232	-0.000040
H53	H	1.533316	-0.398994	0.102103
H54	H	1.513841	-0.387486	-0.102163
C55	C	2.209072	-0.819554	0.000011
H56	H	2.300461	-0.794629	0.000027
H57	H	2.199836	-0.846033	-0.102117
H58	H	2.219335	-0.857538	0.102150
H59	H	1.676100	-0.591469	-0.000025
H60	H	1.650810	-0.737894	0.000013
H61	H	2.073534	-0.515691	-0.000028
H62	H	1.699775	-0.496884	0.000000
H63	H	1.754187	0.071824	0.468556
H64	H	2.019169	-0.084402	0.531503
