data_functionalizedCrystal
_audit_creation_method	'MofGen! by Chris Wilmer'
_symmetry_space_group_name_H-M	'P1'
_symmetry_Int_Tables_number	1
_symmetry_cell_setting	triclinic
loop_
_symmetry_equiv_pos_as_xyz
  x,y,z
_cell_length_a	13.032831
_cell_length_b	29.839132
_cell_length_c	13.032268
_cell_angle_alpha	97.137859
_cell_angle_beta	89.113023
_cell_angle_gamma	97.151100
loop_
_atom_site_label
_atom_site_type_symbol
_atom_site_fract_x
_atom_site_fract_y
_atom_site_fract_z
Zn1	Zn	1.498159	0.303373	0.780694
Zn2	Zn	1.998159	0.803373	1.280694
Zn3	Zn	1.519831	0.370302	0.608683
Zn4	Zn	2.019831	0.870302	1.108683
Zn5	Zn	1.348037	0.284607	0.586944
Zn6	Zn	1.848037	0.784607	1.086944
Zn7	Zn	1.326081	0.367873	0.758809
Zn8	Zn	1.826081	0.867873	1.258809
O9	O	1.423027	0.331539	0.683782
O10	O	1.923027	0.831539	1.183782
O11	O	1.644945	0.321121	0.776133
O12	O	2.144945	0.821121	1.276133
O13	O	1.515300	0.352097	0.461886
O14	O	2.015300	0.852097	0.961886
O15	O	1.368070	0.224239	0.612706
O16	O	1.868070	0.724239	1.112706
O17	O	1.660867	0.370294	0.649757
O18	O	2.160867	0.870294	1.149757
O19	O	1.478364	0.238026	0.755053
O20	O	1.978364	0.738026	1.255053
O21	O	1.389084	0.289138	0.445914
O22	O	1.889084	0.789138	0.945914
O23	O	1.201213	0.286782	0.591485
O24	O	1.701213	0.786782	1.091485
O25	O	1.330649	0.366154	0.905626
O26	O	1.830649	0.866154	1.405626
O27	O	1.185082	0.347958	0.717754
O28	O	1.685082	0.847958	1.217754
O29	O	1.457074	0.318766	0.921704
O30	O	1.957074	0.818766	1.421704
O31	O	1.494010	0.432837	0.628537
O32	O	1.994010	0.932837	1.128537
O33	O	1.351664	0.431053	0.738834
O34	O	1.851664	0.931053	1.238834
C35	C	1.155833	0.315071	0.649886
C36	C	1.655833	0.815071	1.149886
C37	C	1.041524	0.308037	0.635410
C38	C	1.541524	0.808037	1.135410
C39	C	0.982619	0.335209	0.691338
C40	C	1.482619	0.835209	1.191338
C41	C	0.864474	0.327941	0.676377
C42	C	1.364474	0.827941	1.176377
C43	C	1.422831	0.448246	0.683695
C44	C	1.922831	0.948246	1.183695
C45	C	1.422837	0.498181	0.683704
C46	C	1.922837	0.998181	1.183704
C47	C	1.497187	0.808761	0.626410
C48	C	1.997187	1.308761	1.126410
C49	C	1.497282	0.996441	0.626446
C50	C	1.997282	1.496441	1.126446
O51	O	1.560388	1.021495	0.577701
O52	O	2.060388	1.521495	1.077701
N53	N	1.423133	1.018988	0.683813
N54	N	1.923133	1.518988	1.183813
C55	C	1.348958	0.994613	0.741180
C56	C	1.848958	1.494613	1.241180
O57	O	1.285899	1.018098	0.789983
O58	O	1.785899	1.518098	1.289983
C59	C	1.348869	0.806934	0.741149
C60	C	1.848869	1.306934	1.241149
C61	C	1.423016	0.784389	0.683771
C62	C	1.923016	1.284389	1.183771
C63	C	1.571329	0.786216	0.569038
C64	C	2.071329	1.286216	1.069038
C65	C	1.571301	0.739298	0.569025
C66	C	2.071301	1.239298	1.069025
C67	C	1.497131	0.714926	0.626385
C68	C	1.997131	1.214926	1.126385
C69	C	1.422988	0.737471	0.683758
C70	C	1.922988	1.237471	1.183758
C71	C	1.274700	0.782560	0.798521
C72	C	1.774700	1.282560	1.298521
C73	C	1.274686	0.735637	0.798511
C74	C	1.774686	1.235637	1.298511
C75	C	1.348833	0.713092	0.741132
C76	C	1.848833	1.213092	1.241132
C77	C	1.348790	0.666181	0.741105
C78	C	1.848790	1.166181	1.241105
N79	N	1.422939	0.643634	0.683739
N80	N	1.922939	1.143634	1.183739
C81	C	1.497109	0.668006	0.626379
C82	C	1.997109	1.168006	1.126379
C83	C	1.349010	1.093147	0.741190
C84	C	1.849010	1.593147	1.241190
C85	C	1.349031	1.140066	0.741196
C86	C	1.849031	1.640066	1.241196
C87	C	1.497355	1.141891	0.626464
C88	C	1.997355	1.641891	1.126464
C89	C	1.497329	1.094971	0.626453
C90	C	1.997329	1.594971	1.126453
C91	C	1.423159	1.070600	0.683824
C92	C	1.923159	1.570600	1.183824
C93	C	1.497045	0.569476	0.626355
C94	C	1.997045	1.069476	1.126355
C95	C	1.497007	0.522553	0.626344
C96	C	1.997007	1.022553	1.126344
C97	C	1.348686	0.520733	0.741080
C98	C	1.848686	1.020733	1.241080
C99	C	1.348720	0.567650	0.741087
C100	C	1.848720	1.067650	1.241087
C101	C	1.422908	0.592021	0.683723
C102	C	1.922908	1.092021	1.183723
O103	O	1.285724	0.641100	0.789834
O104	O	1.785724	1.141100	1.289834
O105	O	1.560174	0.644515	0.577601
O106	O	2.060174	1.144515	1.077601
C107	C	1.497214	0.855679	0.626423
C108	C	1.997214	1.355679	1.126423
C109	C	1.423072	0.878224	0.683796
C110	C	1.923072	1.378224	1.183796
C111	C	1.348902	0.853852	0.741156
C112	C	1.848902	1.353852	1.241156
C113	C	1.423093	0.925143	0.683803
C114	C	1.923093	1.425143	1.183803
C115	C	1.497264	0.949516	0.626442
C116	C	1.997264	1.449516	1.126442
C117	C	1.571413	0.926969	0.569076
C118	C	2.071413	1.426969	1.069076
C119	C	1.571385	0.880051	0.569063
C120	C	2.071385	1.380051	1.069063
C121	C	1.274753	0.876399	0.798523
C122	C	1.774753	1.376399	1.298523
C123	C	1.274786	0.923316	0.798530
C124	C	1.774786	1.423316	1.298530
C125	C	1.348956	0.947689	0.741170
C126	C	1.848956	1.447689	1.241170
C127	C	1.691264	0.348072	0.717811
C128	C	2.191264	0.848072	1.217811
C129	C	1.805571	0.355117	0.732312
C130	C	2.305571	0.855117	1.232312
C131	C	1.388995	0.344282	0.952024
C132	C	1.888995	0.844282	1.452024
C133	C	1.374493	0.349713	1.066332
C134	C	1.874493	0.849713	1.566332
C135	C	1.423213	1.214375	0.683869
C136	C	1.923213	1.714375	1.183869
C137	C	1.423201	1.164438	0.683836
C138	C	1.923201	1.664438	1.183836
C139	C	1.456985	0.318816	0.416592
C140	C	1.956985	0.818816	0.916592
C141	C	1.471687	0.313271	0.302310
C142	C	1.971687	0.813271	0.802310
C143	C	1.430580	0.328687	1.125250
C144	C	1.930580	0.828687	1.625250
C145	C	1.415592	0.334300	1.243394
C146	C	1.915592	0.834300	1.743394
H147	H	1.019654	0.363852	0.750299
H148	H	1.519654	0.863852	1.250299
H149	H	0.827442	0.299293	0.617419
H150	H	1.327442	0.799293	1.117419
C151	C	1.267110	0.493918	0.804177
C152	C	1.767110	0.993918	1.304177
H153	H	1.277727	0.462747	0.795957
H154	H	1.777727	0.962747	1.295957
H155	H	1.199939	0.496664	0.780320
H156	H	1.699939	0.996664	1.280320
H157	H	1.273355	0.505796	0.875196
H158	H	1.773355	1.005796	1.375196
H159	H	1.356468	0.356453	1.280412
H160	H	1.856468	0.856453	1.780412
H161	H	1.315373	0.371865	1.103355
H162	H	1.815373	0.871865	1.603355
C163	C	1.551551	0.283337	1.252316
C164	C	2.051551	0.783337	1.752316
H165	H	1.584790	0.270872	1.304602
H166	H	2.084790	0.770872	1.804602
H167	H	1.601605	0.301304	1.216073
H168	H	2.101605	0.801304	1.716073
H169	H	1.517519	0.259362	1.205440
H170	H	2.017519	0.759362	1.705440
H171	H	1.288609	1.073307	0.787910
H172	H	1.788609	1.573307	1.287910
C173	C	0.855580	0.393816	0.811968
C174	C	1.355580	0.893816	1.311968
H175	H	0.803301	0.409918	0.845121
H176	H	1.303301	0.909918	1.345121
H177	H	0.902456	0.414048	0.777813
H178	H	1.402456	0.914048	1.277813
H179	H	0.891824	0.381351	0.862129
H180	H	1.391824	0.881351	1.362129
C181	C	0.991501	0.269339	0.555766
C182	C	1.491501	0.769339	1.055766
H183	H	0.918657	0.269532	0.556156
H184	H	1.418657	0.769532	1.056156
H185	H	1.007181	0.240962	0.573159
H186	H	1.507181	0.740962	1.073159
H187	H	1.017798	0.273656	0.488837
H188	H	1.517798	0.773656	0.988837
H189	H	1.557387	0.504198	0.579616
H190	H	2.057387	1.004198	1.079616
H191	H	1.557457	0.589313	0.579646
H192	H	2.057457	1.089313	1.079646
H193	H	1.631681	0.720945	0.522306
H194	H	2.131681	1.220945	1.022306
H195	H	1.631733	0.806055	0.522328
H196	H	2.131733	1.306055	1.022328
H197	H	1.214288	0.715797	0.845233
H198	H	1.714288	1.215797	1.345233
C199	C	1.267159	0.592451	0.804200
C200	C	1.767159	1.092451	1.304200
H201	H	1.222986	0.571214	0.838363
H202	H	1.722986	1.071214	1.338363
H203	H	1.227388	0.606157	0.759158
H204	H	1.727388	1.106157	1.259158
H205	H	1.300797	0.615277	0.854040
H206	H	1.800797	1.115277	1.354040
H207	H	1.557707	1.076617	0.579731
H208	H	2.057707	1.576617	1.079731
H209	H	1.557748	1.161743	0.579760
H210	H	2.057748	1.661743	1.079760
H211	H	1.214317	0.800908	0.845240
H212	H	1.714317	1.300908	1.345240
C213	C	1.267463	1.164860	0.804306
C214	C	1.767463	1.664860	1.304306
H215	H	1.223298	1.143622	0.838472
H216	H	1.723298	1.643622	1.338472
H217	H	1.227686	1.178561	0.759259
H218	H	1.727686	1.678561	1.259259
H219	H	1.301092	1.187689	0.854143
H220	H	1.801092	1.687689	1.354143
H221	H	1.631763	0.861698	0.522340
H222	H	2.131763	1.361698	1.022340
H223	H	1.214397	0.941668	0.845253
H224	H	1.714397	1.441668	1.345253
C225	C	1.652997	0.953784	0.505980
C226	C	2.152997	1.453784	1.005980
H227	H	1.642389	0.984957	0.514216
H228	H	2.142389	1.484957	1.014216
H229	H	1.646772	0.941909	0.434964
H230	H	2.146772	1.441909	0.934964
H231	H	1.720166	0.951038	0.529857
H232	H	2.220166	1.451038	1.029857
H233	H	1.214355	0.856558	0.845234
H234	H	1.714355	1.356558	1.345234
C235	C	1.510441	0.298757	1.075245
C236	C	2.010441	0.798757	1.575245
H237	H	1.510043	0.298914	1.002399
H238	H	2.010043	0.798914	1.502399
H239	H	1.493242	0.268477	1.090919
H240	H	1.993242	0.768477	1.590919
H241	H	1.577318	0.310422	1.101558
H242	H	2.077318	0.810422	1.601558
