data_functionalizedCrystal
_audit_creation_method	'MofGen! by Chris Wilmer'
_symmetry_space_group_name_H-M	'P1'
_symmetry_Int_Tables_number	1
_symmetry_cell_setting	triclinic
loop_
_symmetry_equiv_pos_as_xyz
  x,y,z
_cell_length_a	23.532407
_cell_length_b	22.610064
_cell_length_c	19.288857
_cell_angle_alpha	89.998094
_cell_angle_beta	82.990927
_cell_angle_gamma	90.005499
loop_
_atom_site_label
_atom_site_type_symbol
_atom_site_fract_x
_atom_site_fract_y
_atom_site_fract_z
O1	O	0.755436	0.049150	0.084310
O2	O	1.255436	0.549150	0.584310
O3	O	0.589598	0.049160	0.096510
O4	O	1.089598	0.549160	0.596510
O5	O	0.677311	0.049148	-0.010736
O6	O	1.177311	0.549148	0.489264
O7	O	0.667723	0.049162	0.191555
O8	O	1.167723	0.549162	0.691555
O9	O	0.677296	-0.049222	-0.010720
O10	O	1.177296	0.450778	0.489280
O11	O	0.589582	-0.049209	0.096525
O12	O	1.089582	0.450791	0.596525
O13	O	0.755421	-0.049219	0.084325
O14	O	1.255421	0.450781	0.584325
Zn15	Zn	0.672499	-0.064832	0.090428
Zn16	Zn	1.172499	0.435168	0.590428
Zn17	Zn	0.672520	0.064773	0.090407
Zn18	Zn	1.172520	0.564773	0.590407
O19	O	0.667707	-0.049207	0.191571
O20	O	1.167707	0.450793	0.691571
C21	C	0.568374	-0.000024	0.096207
C22	C	1.068374	0.499976	0.596207
C23	C	0.505155	-0.000020	0.095273
C24	C	1.005155	0.499980	0.595273
N25	N	0.672489	-0.153285	0.090441
N26	N	1.172489	0.346715	0.590441
C27	C	0.238849	-0.000041	0.027955
C28	C	0.738849	0.499959	0.527955
C29	C	0.298251	-0.000041	0.028823
C30	C	0.798251	0.499959	0.528823
O31	O	0.334886	-0.000065	-0.024580
O32	O	0.834886	0.499935	0.475420
N33	N	0.321008	-0.000032	0.092580
N34	N	0.821008	0.499968	0.592580
C35	C	0.284359	-0.000030	0.155474
C36	C	0.784359	0.499970	0.655474
O37	O	0.309171	-0.000023	0.209784
O38	O	0.809171	0.499977	0.709784
C39	C	0.224959	-0.000034	0.154606
C40	C	0.724959	0.499966	0.654606
C41	C	0.202205	-0.000037	0.090844
C42	C	0.702205	0.499963	0.590844
C43	C	0.216095	-0.000045	-0.035801
C44	C	0.716095	0.499955	0.464199
C45	C	0.156697	-0.000044	-0.036669
C46	C	0.656697	0.499956	0.463331
C47	C	0.120053	-0.000039	0.026220
C48	C	0.620053	0.499961	0.526220
C49	C	0.142807	-0.000036	0.089977
C50	C	0.642807	0.499964	0.589977
C51	C	0.188311	-0.000036	0.217499
C52	C	0.688311	0.499964	0.717499
C53	C	0.128907	-0.000041	0.216625
C54	C	0.628907	0.499959	0.716625
C55	C	0.106153	-0.000044	0.152863
C56	C	0.606153	0.499956	0.652863
C57	C	0.046765	-0.000031	0.151998
C58	C	0.546765	0.499969	0.651998
N59	N	0.024008	-0.000040	0.088241
N60	N	0.524008	0.499960	0.588241
C61	C	0.060652	-0.000044	0.025352
C62	C	0.560652	0.499956	0.525352
C63	C	0.409106	-0.000022	0.157293
C64	C	0.909106	0.499978	0.657293
C65	C	0.468505	-0.000013	0.158162
C66	C	0.968505	0.499987	0.658162
C67	C	0.482393	-0.000025	0.031510
C68	C	0.982393	0.499975	0.531510
C69	C	0.422992	-0.000030	0.030642
C70	C	0.922992	0.499970	0.530642
C71	C	0.386349	-0.000030	0.093535
C72	C	0.886349	0.499970	0.593535
C73	C	-0.064088	-0.000042	0.023535
C74	C	0.435912	0.499958	0.523535
C75	C	-0.123492	-0.000038	0.022673
C76	C	0.376508	0.499962	0.522673
C77	C	-0.137374	-0.000029	0.149324
C78	C	0.362626	0.499971	0.649324
C79	C	-0.077976	-0.000029	0.150187
C80	C	0.422024	0.499971	0.650187
C81	C	-0.041333	-0.000038	0.087286
C82	C	0.458667	0.499962	0.587286
O83	O	0.010096	-0.000009	0.205373
O84	O	0.510096	0.499991	0.705373
O85	O	0.035833	-0.000058	-0.028950
O86	O	0.535833	0.499942	0.471050
C87	C	0.711361	-0.561932	0.042926
C88	C	1.211361	-0.061932	0.542926
C89	C	0.711364	-0.623852	0.042921
C90	C	1.211364	-0.123852	0.542921
O91	O	0.744389	-0.655875	0.002532
O92	O	1.244389	-0.155875	0.502532
N93	N	0.672519	-0.654822	0.090393
N94	N	1.172519	-0.154822	0.590393
C95	C	0.633665	-0.623869	0.137868
C96	C	1.133665	-0.123869	0.637868
O97	O	0.600625	-0.655898	0.178245
O98	O	1.100625	-0.155898	0.678245
C99	C	0.633660	-0.561951	0.137869
C100	C	1.133660	-0.061951	0.637869
C101	C	0.672511	-0.530983	0.090399
C102	C	1.172511	-0.030983	0.590399
C103	C	0.750208	-0.530964	-0.004541
C104	C	1.250208	-0.030964	0.495459
C105	C	0.750206	-0.469049	-0.004535
C106	C	1.250206	0.030951	0.495465
C107	C	0.711356	-0.438100	0.042938
C108	C	1.211356	0.061900	0.542938
C109	C	0.672509	-0.469068	0.090405
C110	C	1.172509	0.030932	0.590405
C111	C	0.594804	-0.530999	0.185340
C112	C	1.094804	-0.030999	0.685340
C113	C	0.594802	-0.469076	0.185337
C114	C	1.094802	0.030924	0.685337
C115	C	0.633653	-0.438109	0.137867
C116	C	1.133653	0.061891	0.637867
C117	C	0.633657	-0.376204	0.137884
C118	C	1.133657	0.123796	0.637884
N119	N	0.672501	-0.345233	0.090412
N120	N	1.172501	0.154767	0.590412
C121	C	0.711351	-0.376182	0.042939
C122	C	1.211351	0.123818	0.542939
C123	C	0.633678	-0.753903	0.137861
C124	C	1.133678	-0.253903	0.637861
C125	C	0.633686	-0.815821	0.137864
C126	C	1.133686	-0.315821	0.637864
C127	C	0.711384	-0.815799	0.042916
C128	C	1.211384	-0.315799	0.542916
C129	C	0.711379	-0.753880	0.042917
C130	C	1.211379	-0.253880	0.542917
C131	C	0.672523	-0.722933	0.090389
C132	C	1.172523	-0.222933	0.590389
C133	C	0.711343	-0.246154	0.042956
C134	C	1.211343	0.253846	0.542956
C135	C	0.711339	-0.184233	0.042968
C136	C	1.211339	0.315767	0.542968
C137	C	0.633640	-0.184261	0.137914
C138	C	1.133640	0.315739	0.637914
C139	C	0.633645	-0.246176	0.137904
C140	C	1.133645	0.253824	0.637904
C141	C	0.672500	-0.277122	0.090420
C142	C	1.172500	0.222878	0.590420
O143	O	0.600646	-0.344141	0.178250
O144	O	1.100646	0.155859	0.678250
O145	O	0.744381	-0.344146	0.002563
O146	O	1.244381	0.155854	0.502563
C147	C	0.776645	-0.000034	0.084628
C148	C	1.276645	0.499966	0.584628
C149	C	0.839864	-0.000034	0.085562
C150	C	1.339864	0.499966	0.585562
C151	C	0.676996	-0.000038	-0.036604
C152	C	1.176996	0.499962	0.463396
C153	C	0.676072	-0.000039	-0.113705
C154	C	1.176072	0.499961	0.386295
N155	N	0.672534	0.153226	0.090388
N156	N	1.172534	0.653226	0.590388
C157	C	0.675649	0.053582	-0.149922
C158	C	1.175649	0.553582	0.350078
C159	C	0.674773	0.053586	-0.222366
C160	C	1.174773	0.553586	0.277634
C161	C	0.674331	-0.000033	-0.258590
C162	C	1.174331	0.499967	0.241410
C163	C	0.674750	-0.053662	-0.222363
C164	C	1.174750	0.446338	0.277637
C165	C	0.675621	-0.053665	-0.149920
C166	C	1.175621	0.446335	0.350080
C167	C	0.706303	-0.041111	-0.378914
C168	C	1.206303	0.458889	0.121086
C169	C	0.705436	-0.041106	-0.451356
C170	C	1.205436	0.458894	0.048644
C171	C	0.671643	-0.000027	-0.482028
C172	C	1.171643	0.499973	0.017972
C173	C	0.638725	0.041058	-0.440250
C174	C	1.138725	0.541058	0.059750
C175	C	0.639596	0.041055	-0.367807
C176	C	1.139596	0.541055	0.132193
C177	C	0.673387	-0.000036	-0.337143
C178	C	1.173387	0.499964	0.162857
C179	C	0.670270	0.053603	-0.596797
C180	C	1.170270	0.553603	-0.096797
C181	C	0.669390	0.053605	-0.669241
C182	C	1.169390	0.553605	-0.169241
C183	C	0.669373	-0.053644	-0.669238
C184	C	1.169373	0.446356	-0.169238
C185	C	0.670247	-0.053645	-0.596795
C186	C	1.170247	0.446355	-0.096795
C187	C	0.670698	-0.000020	-0.560579
C188	C	1.170698	0.499980	-0.060579
C189	C	0.668023	-0.000020	0.217438
C190	C	1.168023	0.499980	0.717438
C191	C	0.668947	-0.000015	0.294539
C192	C	1.168947	0.499985	0.794539
H193	H	-0.142014	-0.000039	-0.029251
H194	H	0.357986	0.499961	0.470749
O195	O	0.132163	-0.000062	-0.105443
O196	O	0.632163	0.499938	0.394557
H197	H	0.146905	0.040024	-0.135656
H198	H	0.646905	0.540024	0.364344
O199	O	0.604084	0.085355	-0.322747
O200	O	1.104084	0.585355	0.177253
H201	H	0.617647	0.130827	-0.338935
H202	H	1.117647	0.630827	0.161065
O203	O	0.591792	-0.849223	0.189071
O204	O	1.091792	-0.349223	0.689071
H205	H	0.615684	-0.877426	0.222679
H206	H	1.115684	-0.377426	0.722679
O207	O	0.676080	-0.111501	-0.110852
O208	O	1.176080	0.388499	0.389148
H209	H	0.715284	-0.114066	-0.084306
H210	H	1.215284	0.385934	0.415694
H211	H	0.602010	-0.159053	0.176568
H212	H	1.102010	0.340947	0.676568
H213	H	0.676015	0.097248	-0.120440
H214	H	1.176015	0.597248	0.379560
H215	H	0.512240	-0.000029	-0.019697
H216	H	1.012240	0.499971	0.480303
O217	O	0.753276	-0.720480	-0.008289
O218	O	1.253276	-0.220480	0.491711
H219	H	0.780286	-0.752409	-0.041300
H220	H	1.280286	-0.252409	0.458700
H221	H	0.674425	0.097253	-0.251860
H222	H	1.174425	0.597253	0.248140
O223	O	-0.053430	-0.000026	0.218956
O224	O	0.446570	0.499974	0.718956
H225	H	-0.068157	0.040067	0.249153
H226	H	0.431843	0.540067	0.749153
H227	H	0.674389	-0.097319	-0.251862
H228	H	1.174389	0.402681	0.248138
O229	O	0.668912	0.111442	-0.708307
O230	O	1.168912	0.611442	-0.208307
H231	H	0.669369	0.148728	-0.670949
H232	H	1.169369	0.648728	-0.170949
O233	O	-0.024571	-0.000046	-0.044305
O234	O	0.475429	0.499954	0.455695
H235	H	-0.050381	-0.000043	-0.088779
H236	H	0.449619	0.499957	0.411221
H237	H	0.245925	-0.000050	-0.087016
H238	H	0.745925	0.499950	0.412984
H239	H	0.206826	-0.000031	0.269420
H240	H	0.706826	0.499969	0.769420
O241	O	0.398451	-0.000042	-0.038128
O242	O	0.898451	0.499958	0.461872
H243	H	0.433917	-0.000049	-0.081709
H244	H	0.933917	0.499951	0.418291
H245	H	0.669009	-0.097302	-0.698731
H246	H	1.169009	0.402698	-0.198731
O247	O	0.602270	0.085367	-0.473317
O248	O	1.102270	0.585367	0.026683
H249	H	0.607187	0.078464	-0.530708
H250	H	1.107187	0.578464	-0.030708
O251	O	0.753256	-0.279528	-0.008249
O252	O	1.253256	0.220472	0.491751
H253	H	0.780270	-0.247583	-0.041244
H254	H	1.280270	0.252417	0.458756
H255	H	0.742978	-0.159022	0.004313
H256	H	1.242978	0.340978	0.504313
O257	O	0.670718	-0.111479	-0.557726
O258	O	1.170718	0.388521	-0.057726
H259	H	0.670270	-0.148765	-0.595084
H260	H	1.170270	0.351235	-0.095084
H261	H	0.732242	-0.074557	-0.485367
H262	H	1.232242	0.425443	0.014633
H263	H	0.670633	0.097268	-0.567308
H264	H	1.170633	0.597268	-0.067308
H265	H	0.487026	-0.000002	0.210083
H266	H	0.987026	0.499998	0.710083
O267	O	-0.176902	-0.000034	0.217154
O268	O	0.323098	0.499966	0.717154
H269	H	-0.222028	-0.000044	0.205832
H270	H	0.277972	0.499956	0.705832
O271	O	0.792106	-0.435653	-0.055740
O272	O	1.292106	0.064347	0.444260
H273	H	0.768220	-0.407443	-0.089348
H274	H	1.268220	0.092557	0.410652
O275	O	0.742755	-0.085418	-0.345834
O276	O	1.242755	0.414582	0.154166
H277	H	0.765506	-0.113978	-0.387054
H278	H	1.265506	0.386022	0.112946
H279	H	0.602015	-0.271390	0.176565
H280	H	1.102015	0.228610	0.676565
H281	H	0.379273	-0.000018	0.208512
H282	H	0.879273	0.499982	0.708512
H283	H	0.099074	-0.000044	0.267841
H284	H	0.599074	0.499956	0.767841
O285	O	0.792121	-0.564340	-0.055738
O286	O	1.292121	-0.064340	0.444262
H287	H	0.819134	-0.532395	-0.088734
H288	H	1.319134	-0.032395	0.411266
O289	O	0.753284	-0.849184	-0.008297
O290	O	1.253284	-0.349184	0.491703
H291	H	0.746752	-0.897441	-0.000324
H292	H	1.246752	-0.397441	0.499676
H293	H	0.563168	-0.556204	0.223994
H294	H	1.063168	-0.056204	0.723994
O295	O	0.591776	-0.720524	0.189076
O296	O	1.091776	-0.220524	0.689076
H297	H	0.564773	-0.752467	0.222087
H298	H	1.064773	-0.252467	0.722087
O299	O	0.552896	-0.435696	0.236544
O300	O	1.052896	0.064304	0.736544
H301	H	0.525888	-0.467636	0.269553
H302	H	1.025888	0.032364	0.769553
