data_functionalizedCrystal
_audit_creation_method	'MofGen! by Chris Wilmer'
_symmetry_space_group_name_H-M	'P1'
_symmetry_Int_Tables_number	1
_symmetry_cell_setting	triclinic
loop_
_symmetry_equiv_pos_as_xyz
  x,y,z
_cell_length_a	18.215405
_cell_length_b	21.395362
_cell_length_c	21.395355
_cell_angle_alpha	90.043940
_cell_angle_beta	89.980149
_cell_angle_gamma	89.959238
loop_
_atom_site_label
_atom_site_type_symbol
_atom_site_fract_x
_atom_site_fract_y
_atom_site_fract_z
Zn1	Zn	-0.292758	-0.957885	-0.354580
Zn2	Zn	-0.415806	-0.957798	-0.249800
Zn3	Zn	-0.292792	-0.853100	-0.249781
Zn4	Zn	-0.415821	-0.853080	-0.354505
O5	O	-0.354294	-0.905466	-0.302166
O6	O	-0.309060	-1.045551	-0.340720
O7	O	-0.399496	-0.943882	-0.162119
O8	O	-0.189803	-0.867045	-0.263706
O9	O	-0.399463	-1.045487	-0.263739
O10	O	-0.189778	-0.944030	-0.340702
O11	O	-0.309118	-0.866960	-0.162106
O12	O	-0.309133	-0.765419	-0.263634
O13	O	-0.399488	-0.867010	-0.442193
O14	O	-0.399522	-0.765404	-0.340573
O15	O	-0.309074	-0.944010	-0.442248
O16	O	-0.518792	-0.943862	-0.263666
O17	O	-0.518803	-0.866926	-0.340592
C18	C	-0.354333	-0.742678	-0.302094
C19	C	-0.354367	-0.673037	-0.302077
C20	C	-0.545500	-0.905399	-0.302136
C21	C	-0.627299	-0.905428	-0.302144
C22	C	-0.354279	-0.905518	-0.465590
C23	C	-0.354273	-0.905540	-0.535231
C24	C	-0.815463	-0.945583	-0.262163
C25	C	-0.892322	-0.945611	-0.262178
C26	C	-0.892373	-0.865428	-0.342215
C27	C	-0.815516	-0.865404	-0.342203
C28	C	-0.777063	-0.905480	-0.302173
C29	C	-0.930779	-0.905533	-0.302200
C30	C	-1.014112	-0.905563	-0.302217
C31	C	-0.693724	-0.905451	-0.302157
C32	C	-0.162341	-0.905549	-0.302210
C33	C	-0.080542	-0.905585	-0.302229
C34	C	-0.354256	-1.068889	-0.302240
C35	C	-0.354239	-1.138530	-0.302271
C36	C	-0.401495	-0.640332	-0.342080
C37	C	-0.401477	-0.574897	-0.342108
C38	C	-0.354339	-0.542168	-0.302122
C39	C	-0.307202	-0.574881	-0.262117
C40	C	-0.307216	-0.640315	-0.262094
C41	C	-0.348410	-0.438443	-0.245717
C42	C	-0.348401	-0.373010	-0.245738
C43	C	-0.354291	-0.340348	-0.302191
C44	C	-0.360205	-0.373126	-0.358625
C45	C	-0.360219	-0.438560	-0.358602
C46	C	-0.354318	-0.471216	-0.302142
C47	C	-0.401402	-0.236691	-0.342228
C48	C	-0.401379	-0.171254	-0.342256
C49	C	-0.307107	-0.171239	-0.262260
C50	C	-0.307127	-0.236675	-0.262236
C51	C	-0.354278	-0.269396	-0.302219
C52	C	-0.307192	-0.945632	-0.567974
C53	C	-0.307161	-0.945631	-0.633409
C54	C	-0.354223	-0.905545	-0.666099
C55	C	-0.401307	-0.865445	-0.633349
C56	C	-0.401332	-0.865442	-0.567914
C57	C	-0.420488	-0.900574	-0.769762
C58	C	-0.420465	-0.900581	-0.835195
C59	C	-0.354145	-0.905548	-0.867920
C60	C	-0.287847	-0.910522	-0.835205
C61	C	-0.287872	-0.910520	-0.769770
C62	C	-0.354200	-0.905542	-0.737052
C63	C	-0.307026	-0.945642	-0.971616
C64	C	-0.306993	-0.945637	-1.037052
C65	C	-0.401146	-0.865454	-1.036990
C66	C	-0.401172	-0.865455	-0.971555
C67	C	-0.354113	-0.905553	-0.938872
C68	C	-0.354256	-0.905450	-0.139379
C69	C	-0.354055	-0.905549	-0.069738
H70	H	-0.784156	-0.978217	-0.229569
C71	C	-0.934562	-0.989725	-0.218165
C72	C	-0.892262	-1.033807	-0.174138
C73	C	-0.934502	-1.077924	-0.130125
C74	C	-1.019042	-1.077959	-0.130139
C75	C	-1.061347	-1.033875	-0.174168
C76	C	-1.019107	-0.989758	-0.218181
H77	H	-0.829676	-1.033782	-0.174126
H78	H	-0.903185	-1.110558	-0.097532
H79	H	-1.050310	-1.110617	-0.097558
H80	H	-1.123932	-1.033899	-0.174180
H81	H	-1.050424	-0.957124	-0.250774
C82	C	-0.255421	-0.989733	-0.532025
C83	C	-0.171758	-0.984656	-0.541025
C84	C	-0.119985	-1.028757	-0.505076
C85	C	-0.151875	-1.077935	-0.460127
C86	C	-0.235542	-1.083014	-0.451125
C87	C	-0.287315	-1.038913	-0.487074
H88	H	-0.148147	-0.948250	-0.574300
H89	H	-0.058048	-1.024997	-0.511740
H90	H	-0.113549	-1.110581	-0.433515
H91	H	-0.259153	-1.119420	-0.417850
H92	H	-0.349252	-1.042673	-0.480411
C93	C	-0.934674	-0.821343	-0.386244
C94	C	-1.019214	-0.821366	-0.386259
C95	C	-1.061512	-0.777280	-0.430288
C96	C	-1.019270	-0.733170	-0.474302
C97	C	-0.934726	-0.733145	-0.474289
C98	C	-0.892427	-0.777232	-0.430259
H99	H	-1.050488	-0.854021	-0.353676
H100	H	-1.124098	-0.777299	-0.430298
H101	H	-1.050582	-0.700535	-0.506896
H102	H	-0.903452	-0.700491	-0.506872
H103	H	-0.829841	-0.777213	-0.430250
H104	H	-0.784248	-0.832747	-0.374787
H105	H	-0.439889	-0.666970	-0.374638
C106	C	-0.255255	-0.135249	-0.218270
C107	C	-0.171604	-0.144317	-0.223505
C108	C	-0.119750	-0.108324	-0.179514
C109	C	-0.151546	-0.063264	-0.130288
C110	C	-0.235201	-0.054194	-0.125050
C111	C	-0.287056	-0.090187	-0.169042
H112	H	-0.148063	-0.177675	-0.259947
H113	H	-0.057822	-0.115039	-0.183391
H114	H	-0.113160	-0.036620	-0.097723
H115	H	-0.258743	-0.020836	-0.088608
H116	H	-0.348983	-0.083472	-0.165164
C117	C	-0.341897	-0.336954	-0.183666
C118	C	-0.403419	-0.291903	-0.163349
C119	C	-0.396915	-0.255847	-0.101276
C120	C	-0.328888	-0.264844	-0.059519
C121	C	-0.267361	-0.309898	-0.079834
C122	C	-0.273865	-0.345953	-0.141908
H123	H	-0.453781	-0.285241	-0.194261
H124	H	-0.442462	-0.222496	-0.086237
H125	H	-0.324073	-0.238153	-0.013568
H126	H	-0.216999	-0.316559	-0.048922
H127	H	-0.228318	-0.379305	-0.156946
H128	H	-0.439854	-0.548264	-0.374685
H129	H	-0.474480	-0.896362	-0.743122
H130	H	-0.268818	-0.978278	-0.660074
C131	C	-0.366714	-0.474617	-0.420675
C132	C	-0.373192	-0.438699	-0.482776
C133	C	-0.379683	-0.474756	-0.544850
C134	C	-0.379696	-0.546731	-0.544822
C135	C	-0.373218	-0.582653	-0.482719
C136	C	-0.366728	-0.546596	-0.420645
H137	H	-0.373182	-0.385415	-0.482798
H138	H	-0.384478	-0.448164	-0.590822
H139	H	-0.384501	-0.573423	-0.590773
H140	H	-0.373228	-0.635937	-0.482697
H141	H	-0.361932	-0.573188	-0.374673
H142	H	-0.365000	-0.346534	-0.404594
C143	C	-0.453260	-0.272690	-0.386212
C144	C	-0.505095	-0.236712	-0.430223
C145	C	-0.556953	-0.272709	-0.474207
C146	C	-0.556977	-0.344684	-0.474180
C147	C	-0.505140	-0.380666	-0.430167
C148	C	-0.453282	-0.344669	-0.386183
H149	H	-0.505079	-0.183428	-0.430244
H150	H	-0.595326	-0.246073	-0.506788
H151	H	-0.595365	-0.371331	-0.506740
H152	H	-0.505156	-0.433950	-0.430146
H153	H	-0.414909	-0.371305	-0.353602
C154	C	-0.453223	-0.135278	-0.386264
C155	C	-0.536877	-0.144202	-0.381010
C156	C	-0.588723	-0.108225	-0.425019
C157	C	-0.556913	-0.063324	-0.474280
C158	C	-0.473255	-0.054398	-0.479536
C159	C	-0.421409	-0.090375	-0.435528
H160	H	-0.560428	-0.177442	-0.344542
H161	H	-0.650653	-0.114833	-0.421128
H162	H	-0.595292	-0.036692	-0.506858
H163	H	-0.449704	-0.021159	-0.516005
H164	H	-0.359479	-0.083767	-0.439419
C165	C	-0.214948	-0.915984	-0.733785
C166	C	-0.191218	-0.863575	-0.688762
C167	C	-0.118293	-0.869036	-0.652777
C168	C	-0.069097	-0.926906	-0.661815
C169	C	-0.092826	-0.979319	-0.706840
C170	C	-0.165751	-0.973858	-0.742825
H171	H	-0.227637	-0.820732	-0.682070
H172	H	-0.100728	-0.830236	-0.619447
H173	H	-0.015113	-0.930949	-0.635177
H174	H	-0.056407	-1.022162	-0.713532
H175	H	-0.183317	-1.012658	-0.776155
C176	C	-0.341926	-0.474368	-0.183614
C177	C	-0.335429	-0.438318	-0.121541
C178	C	-0.328941	-0.474242	-0.059441
C179	C	-0.328951	-0.546217	-0.059414
C180	C	-0.335449	-0.582272	-0.121489
C181	C	-0.341936	-0.546347	-0.183589
H182	H	-0.335421	-0.385034	-0.121559
H183	H	-0.324130	-0.447551	-0.013488
H184	H	-0.324148	-0.572810	-0.013443
H185	H	-0.335456	-0.635555	-0.121471
H186	H	-0.346747	-0.573038	-0.229541
C187	C	-0.255378	-0.676293	-0.218083
C188	C	-0.171722	-0.667370	-0.223326
C189	C	-0.119885	-0.703348	-0.179313
C190	C	-0.151703	-0.748251	-0.130057
C191	C	-0.235363	-0.757176	-0.124812
C192	C	-0.287200	-0.721197	-0.168825
H193	H	-0.148164	-0.634128	-0.259790
H194	H	-0.057954	-0.696741	-0.183196
H195	H	-0.113331	-0.774884	-0.097475
H196	H	-0.258921	-0.790417	-0.088348
H197	H	-0.349131	-0.727804	-0.164942
H198	H	-0.233843	-0.914568	-0.861848
H199	H	-0.268704	-0.978288	-0.945003
C200	C	-0.452970	-0.821359	-0.935533
C201	C	-0.504739	-0.777264	-0.971487
C202	C	-0.556538	-0.733164	-0.935465
C203	C	-0.556567	-0.733159	-0.863490
C204	C	-0.504797	-0.777256	-0.827533
C205	C	-0.452998	-0.821356	-0.863554
H206	H	-0.504719	-0.777266	-1.024771
H207	H	-0.594862	-0.700520	-0.962084
H208	H	-0.594912	-0.700514	-0.836825
H209	H	-0.504817	-0.777254	-0.774249
H210	H	-0.414674	-0.854000	-0.836936
H211	H	-0.268754	-0.263303	-0.229659
H212	H	-0.268820	-0.548229	-0.229561
C213	C	-0.452914	-0.821352	-1.072936
C214	C	-0.510674	-0.848468	-1.117940
C215	C	-0.562442	-0.804360	-1.153887
C216	C	-0.556449	-0.733137	-1.144829
C217	C	-0.498687	-0.706017	-1.099823
C218	C	-0.446919	-0.750125	-1.063877
H219	H	-0.515113	-0.901195	-1.124647
H220	H	-0.605202	-0.824436	-1.187203
H221	H	-0.594771	-0.700486	-1.171439
H222	H	-0.494249	-0.653290	-1.093117
H223	H	-0.404160	-0.730048	-1.030560
C224	C	-0.453079	-0.821353	-0.669306
C225	C	-0.536743	-0.826431	-0.660309
C226	C	-0.588515	-0.782337	-0.696267
C227	C	-0.556625	-0.733165	-0.741222
C228	C	-0.472957	-0.728086	-0.750221
C229	C	-0.421184	-0.772180	-0.714264
H230	H	-0.560354	-0.862832	-0.627029
H231	H	-0.650452	-0.786097	-0.689604
H232	H	-0.594950	-0.700524	-0.767840
H233	H	-0.449346	-0.691684	-0.783502
H234	H	-0.359248	-0.768419	-0.720926
H235	H	-0.268650	-0.978283	-1.063711
C236	C	-0.493389	-0.895111	-0.871179
C237	C	-0.493366	-0.895117	-0.943154
C238	C	-0.566292	-0.889647	-0.979136
C239	C	-0.639242	-0.884170	-0.943144
C240	C	-0.639267	-0.884163	-0.871164
C241	C	-0.566341	-0.889634	-0.835182
H242	H	-0.439362	-0.899172	-0.969802
H243	H	-0.566273	-0.889652	-1.032420
H244	H	-0.693226	-0.880120	-0.969780
H245	H	-0.693271	-0.880109	-0.844517
H246	H	-0.566360	-0.889629	-0.781898
C247	C	-0.453128	-0.821340	-0.531895
C248	C	-0.447134	-0.750116	-0.540839
C249	C	-0.498932	-0.706013	-0.504819
C250	C	-0.556723	-0.733136	-0.459855
C251	C	-0.562719	-0.804364	-0.450909
C252	C	-0.510921	-0.848466	-0.486929
H253	H	-0.404351	-0.730035	-0.574125
H254	H	-0.494493	-0.653286	-0.511441
H255	H	-0.595067	-0.700489	-0.433191
H256	H	-0.605502	-0.824445	-0.417623
H257	H	-0.515360	-0.901194	-0.480307
