data_functionalizedCrystal
_audit_creation_method	'MofGen! by Chris Wilmer'
_symmetry_space_group_name_H-M	'P1'
_symmetry_Int_Tables_number	1
_symmetry_cell_setting	triclinic
loop_
_symmetry_equiv_pos_as_xyz
  x,y,z
_cell_length_a	17.077404
_cell_length_b	19.077432
_cell_length_c	17.077396
_cell_angle_alpha	92.327207
_cell_angle_beta	90.018362
_cell_angle_gamma	87.725003
loop_
_atom_site_label
_atom_site_type_symbol
_atom_site_fract_x
_atom_site_fract_y
_atom_site_fract_z
Zn1	Zn	1.212591	-0.280236	0.431266
Zn2	Zn	1.545925	0.053098	0.764600
Zn3	Zn	1.879258	0.386431	1.097933
Zn4	Zn	1.217764	-0.397938	0.294728
Zn5	Zn	1.551097	-0.064604	0.628061
Zn6	Zn	1.884431	0.268729	0.961395
Zn7	Zn	1.081324	-0.280256	0.300016
Zn8	Zn	1.414657	0.053078	0.633349
Zn9	Zn	1.747991	0.386411	0.966683
Zn10	Zn	1.086555	-0.397891	0.425956
Zn11	Zn	1.419888	-0.064558	0.759290
Zn12	Zn	1.753221	0.268775	1.092623
O13	O	1.149558	-0.339080	0.362992
O14	O	1.482892	-0.005747	0.696325
O15	O	1.816225	0.327587	1.029658
O16	O	1.323125	-0.295860	0.413163
O17	O	1.656458	0.037473	0.746497
O18	O	1.989792	0.370807	1.079830
O19	O	1.199641	-0.382355	0.185581
O20	O	1.532974	-0.049021	0.518915
O21	O	1.866307	0.284312	0.852248
O22	O	1.094383	-0.181763	0.321862
O23	O	1.427716	0.151570	0.655195
O24	O	1.761050	0.484903	0.988528
O25	O	1.326925	-0.382335	0.312849
O26	O	1.660259	-0.049002	0.646183
O27	O	1.993592	0.284331	0.979516
O28	O	1.190825	-0.181749	0.418291
O29	O	1.524158	0.151585	0.751624
O30	O	1.857491	0.484918	1.084957
O31	O	1.099399	-0.295894	0.189466
O32	O	1.432732	0.037439	0.522800
O33	O	1.766066	0.370772	0.856133
O34	O	0.972170	-0.295849	0.316713
O35	O	1.305504	0.037484	0.650046
O36	O	1.638837	0.370817	0.983380
O37	O	1.103298	-0.382256	0.536509
O38	O	1.436631	-0.048923	0.869842
O39	O	1.769965	0.284410	1.203175
O40	O	0.976013	-0.382276	0.409241
O41	O	1.309347	-0.048942	0.742574
O42	O	1.642680	0.284391	1.075907
O43	O	1.195897	-0.295815	0.540410
O44	O	1.529230	0.037518	0.873743
O45	O	1.862563	0.370852	1.207077
O46	O	1.204713	-0.496421	0.307700
O47	O	1.538046	-0.163088	0.641034
O48	O	1.871379	0.170245	0.974367
O49	O	1.108314	-0.496387	0.404113
O50	O	1.441647	-0.163054	0.737447
O51	O	1.774980	0.170279	1.070780
C52	C	0.945610	-0.339060	0.362975
C53	C	1.278943	-0.005727	0.696308
C54	C	1.612276	0.327606	1.029642
C55	C	0.858360	-0.339069	0.362986
C56	C	1.191694	-0.005735	0.696319
C57	C	1.525027	0.327598	1.029652
C58	C	0.815396	-0.294121	0.415292
C59	C	1.148729	0.039212	0.748625
C60	C	1.482062	0.372546	1.081959
C61	C	0.733415	-0.294126	0.415296
C62	C	1.066749	0.039208	0.748629
C63	C	1.400082	0.372541	1.081962
C64	C	0.694402	-0.339082	0.362996
C65	C	1.027735	-0.005748	0.696329
C66	C	1.361068	0.327585	1.029662
C67	C	0.737372	-0.384031	0.310683
C68	C	1.070705	-0.050698	0.644017
C69	C	1.404039	0.282635	0.977350
C70	C	0.819351	-0.384023	0.310677
C71	C	1.152684	-0.050689	0.644010
C72	C	1.486017	0.282644	0.977343
C73	C	0.566503	-0.384047	0.310702
C74	C	0.899836	-0.050714	0.644035
C75	C	1.233169	0.282619	0.977369
C76	C	0.484518	-0.384057	0.310710
C77	C	0.817852	-0.050724	0.644043
C78	C	1.151185	0.282610	0.977376
C79	C	0.480568	-0.294150	0.415321
C80	C	0.813901	0.039183	0.748654
C81	C	1.147234	0.372517	1.081988
C82	C	0.562546	-0.294141	0.415314
C83	C	0.895879	0.039192	0.748648
C84	C	1.229213	0.372525	1.081981
C85	C	0.605511	-0.339092	0.363003
C86	C	0.938844	-0.005759	0.696336
C87	C	1.272178	0.327574	1.029670
C88	C	1.157663	-0.521942	0.354774
C89	C	1.490997	-0.188608	0.688107
C90	C	1.824330	0.144725	1.021441
C91	C	1.161202	-0.600170	0.351285
C92	C	1.494536	-0.266837	0.684618
C93	C	1.827869	0.066496	1.017951
C94	C	1.112641	-0.636930	0.399801
C95	C	1.445974	-0.303597	0.733134
C96	C	1.779308	0.029736	1.066468
C97	C	1.115970	-0.710435	0.396519
C98	C	1.449303	-0.377101	0.729852
C99	C	1.782636	-0.043768	1.063186
C100	C	1.167864	-0.747178	0.344725
C101	C	1.501198	-0.413845	0.678058
C102	C	1.834531	-0.080511	1.011391
C103	C	1.216428	-0.710413	0.296203
C104	C	1.549761	-0.377079	0.629536
C105	C	1.883094	-0.043746	0.962870
C106	C	1.213095	-0.636910	0.299481
C107	C	1.546428	-0.303576	0.632815
C108	C	1.879761	0.029757	0.966148
C109	C	1.183216	-0.967008	0.329538
C110	C	1.516549	-0.633674	0.662871
C111	C	1.849882	-0.300341	0.996205
C112	C	1.186547	-1.040516	0.326265
C113	C	1.519880	-0.707182	0.659598
C114	C	1.853213	-0.373849	0.992932
C115	C	1.086087	-1.040533	0.426581
C116	C	1.419420	-0.707199	0.759914
C117	C	1.752754	-0.373866	1.093247
C118	C	1.082762	-0.967028	0.429858
C119	C	1.416095	-0.633695	0.763191
C120	C	1.749429	-0.300362	1.096524
C121	C	1.131322	-0.930270	0.381333
C122	C	1.464656	-0.596936	0.714667
C123	C	1.797989	-0.263603	1.048000
N124	N	1.171270	-0.822311	0.341371
N125	N	1.504603	-0.488978	0.674704
N126	N	1.837936	-0.155644	1.008037
N127	N	1.127912	-0.855138	0.384684
N128	N	1.461246	-0.521804	0.718017
N129	N	1.794579	-0.188471	1.051350
C130	C	1.354304	-0.339101	0.363009
C131	C	1.687637	-0.005767	0.696342
C132	C	2.020970	0.327566	1.029675
C133	C	1.441554	-0.339109	0.363016
C134	C	1.774887	-0.005776	0.696349
C135	C	2.108220	0.327557	1.029683
C136	C	1.149604	-0.339028	0.567738
C137	C	1.482937	-0.005695	0.901072
C138	C	1.816270	0.327638	1.234405
C139	C	1.149623	-0.339006	0.654989
C140	C	1.482956	-0.005673	0.988322
C141	C	1.816290	0.327660	1.321656
C142	C	1.141443	-0.155505	0.371258
C143	C	1.474777	0.177829	0.704592
C144	C	1.808110	0.511162	1.037925
C145	C	1.137985	-0.077276	0.374781
C146	C	1.471319	0.256058	0.708115
C147	C	1.804652	0.589391	1.041448
C148	C	1.149556	-0.339081	0.159044
C149	C	1.482890	-0.005748	0.492377
C150	C	1.816223	0.327586	0.825710
C151	C	1.149680	-0.338905	0.071802
C152	C	1.483014	-0.005571	0.405136
C153	C	1.816347	0.327762	0.738469
C154	C	1.197841	-0.293993	0.698012
C155	C	1.531174	0.039341	1.031345
C156	C	1.864507	0.372674	1.364679
C157	C	1.197849	-0.293969	0.779994
C158	C	1.531182	0.039364	1.113327
C159	C	1.864516	0.372698	1.446660
C160	C	1.149643	-0.338963	0.818951
C161	C	1.482977	-0.005630	1.152284
C162	C	1.816310	0.327703	1.485617
C163	C	1.101420	-0.383979	0.775922
C164	C	1.434753	-0.050646	1.109255
C165	C	1.768087	0.282688	1.442588
C166	C	1.101408	-0.383998	0.693942
C167	C	1.434741	-0.050665	1.027275
C168	C	1.768075	0.282668	1.360609
C169	C	1.101450	-0.383937	0.946794
C170	C	1.434783	-0.050603	1.280127
C171	C	1.768116	0.282730	1.613460
C172	C	1.101463	-0.383918	1.028779
C173	C	1.434796	-0.050585	1.362113
C174	C	1.768129	0.282748	1.695446
C175	C	1.197891	-0.293907	1.032846
C176	C	1.531224	0.039426	1.366179
C177	C	1.864557	0.372759	1.699512
C178	C	1.197879	-0.293927	0.950866
C179	C	1.531212	0.039407	1.284199
C180	C	1.864545	0.372740	1.617532
C181	C	1.149656	-0.338944	0.907842
C182	C	1.482990	-0.005610	1.241176
C183	C	1.816323	0.327723	1.574509
H184	H	0.601482	-0.420649	0.268103
H185	H	0.934816	-0.087316	0.601436
H186	H	1.268149	0.246017	0.934769
H187	H	1.062136	-0.420646	0.658914
H188	H	1.395469	-0.087313	0.992247
H189	H	1.728803	0.246021	1.325580
Cl190	Cl	1.040815	-0.440541	0.824896
Cl191	Cl	1.374148	-0.107208	1.158230
Cl192	Cl	1.707482	0.226125	1.491563
Cl193	Cl	1.274141	-0.590697	0.238482
Cl194	Cl	1.607475	-0.257364	0.571815
Cl195	Cl	1.940808	0.075970	0.905149
Cl196	Cl	0.435474	-0.440591	0.244978
Cl197	Cl	0.768807	-0.107258	0.578311
Cl198	Cl	1.102141	0.226076	0.911644
H199	H	1.222757	-0.937084	0.290029
H200	H	1.556090	-0.603751	0.623362
H201	H	1.889424	-0.270418	0.956696
Cl202	Cl	1.281667	-0.756604	0.231089
Cl203	Cl	1.615001	-0.423271	0.564423
Cl204	Cl	1.948334	-0.089938	0.897756
Cl205	Cl	0.426555	-0.237639	0.481082
Cl206	Cl	0.759888	0.095695	0.814415
Cl207	Cl	1.093222	0.429028	1.147749
H208	H	0.705600	-0.420632	0.268096
H209	H	1.038934	-0.087299	0.601429
H210	H	1.372267	0.246035	0.934763
H211	H	0.847155	-0.257514	0.457883
H212	H	1.180488	0.075819	0.791216
H213	H	1.513821	0.409152	1.124550
H214	H	0.854332	-0.420623	0.268083
H215	H	1.187665	-0.087290	0.601416
H216	H	1.520998	0.246043	0.934749
H217	H	1.237098	-0.257355	0.666299
H218	H	1.570431	0.075978	0.999633
H219	H	1.903765	0.409312	1.332966
H220	H	1.070386	-0.607019	0.441981
H221	H	1.403719	-0.273686	0.775314
H222	H	1.737053	0.059648	1.108648
Cl223	Cl	1.040851	-0.440476	1.077753
Cl224	Cl	1.374184	-0.107142	1.411086
Cl225	Cl	1.707518	0.226191	1.744420
H226	H	1.228810	-1.070430	0.284088
H227	H	1.562144	-0.737097	0.617421
H228	H	1.895477	-0.403763	0.950755
Cl229	Cl	1.258505	-0.237409	0.834075
Cl230	Cl	1.591838	0.095924	1.167408
Cl231	Cl	1.925171	0.429258	1.500742
H232	H	1.076419	-0.740362	0.436019
H233	H	1.409752	-0.407028	0.769352
H234	H	1.743085	-0.073695	1.102686
H235	H	0.698437	-0.257526	0.457890
H236	H	1.031770	0.075807	0.791224
H237	H	1.365104	0.409141	1.124557
H238	H	1.040505	-0.937114	0.472033
H239	H	1.373838	-0.603780	0.805366
H240	H	1.707172	-0.270447	1.138700
H241	H	1.237137	-0.257292	0.919149
H242	H	1.570470	0.076041	1.252482
H243	H	1.903803	0.409374	1.585816
Cl244	Cl	1.258514	-0.237316	1.086931
Cl245	Cl	1.591847	0.096018	1.420264
Cl246	Cl	1.925181	0.429351	1.753598
H247	H	0.594309	-0.257538	0.457906
H248	H	0.927642	0.075795	0.791239
H249	H	1.260976	0.409128	1.124573
Cl250	Cl	1.025041	-1.086748	0.487576
Cl251	Cl	1.358374	-0.753414	0.820909
Cl252	Cl	1.691708	-0.420081	1.154243
Cl253	Cl	1.040825	-0.440529	0.892709
Cl254	Cl	1.374159	-0.107196	1.226042
Cl255	Cl	1.707492	0.226137	1.559375
