data_functionalizedCrystal
_audit_creation_method	'MofGen! by Chris Wilmer'
_symmetry_space_group_name_H-M	'P1'
_symmetry_Int_Tables_number	1
_symmetry_cell_setting	triclinic
loop_
_symmetry_equiv_pos_as_xyz
  x,y,z
_cell_length_a	29.839131
_cell_length_b	14.908571
_cell_length_c	14.908308
_cell_angle_alpha	90.175053
_cell_angle_beta	86.738717
_cell_angle_gamma	93.262683
loop_
_atom_site_label
_atom_site_type_symbol
_atom_site_fract_x
_atom_site_fract_y
_atom_site_fract_z
Zn1	Zn	-0.234441	-1.345126	0.587534
Zn2	Zn	-0.305498	-1.353655	0.437159
Zn3	Zn	-0.225812	-1.203447	0.428533
Zn4	Zn	-0.304964	-1.194683	0.578811
O5	O	-0.267679	-1.274228	0.508009
O6	O	-0.247701	-1.472080	0.574847
O7	O	-0.291540	-1.340967	0.310191
O8	O	-0.164094	-1.222340	0.449665
O9	O	-0.299907	-1.478346	0.464367
O10	O	-0.170433	-1.326430	0.566482
O11	O	-0.232995	-1.230610	0.303854
O12	O	-0.232477	-1.076461	0.441208
O13	O	-0.298997	-1.207402	0.705792
O14	O	-0.290630	-1.070022	0.551616
O15	O	-0.247184	-1.317932	0.712201
O16	O	-0.368290	-1.332468	0.455909
O17	O	-0.367898	-1.215672	0.559980
C18	C	-0.384395	-1.274068	0.507955
C19	C	-0.434330	-1.274080	0.507967
C20	C	-0.260560	-1.040617	0.494530
C21	C	-0.257526	-0.940676	0.488784
C22	C	-0.273993	-1.260738	0.742533
C23	C	-0.276684	-1.254989	0.842474
C24	C	-0.744176	-1.335143	0.453910
C25	C	-0.931853	-1.335252	0.453951
O26	O	-0.956286	-1.387043	0.407948
N27	N	-0.955128	-1.274410	0.508088
C28	C	-0.931481	-1.213541	0.562223
O29	O	-0.955585	-1.161800	0.608278
C30	C	-0.743805	-1.213437	0.562186
C31	C	-0.720532	-1.274276	0.508038
C32	C	-0.720903	-1.395978	0.399768
C33	C	-0.673987	-1.395947	0.399754
C34	C	-0.650343	-1.335081	0.453883
C35	C	-0.673615	-1.274245	0.508025
C36	C	-0.720159	-1.152572	0.616325
C37	C	-0.673237	-1.152553	0.616312
C38	C	-0.649964	-1.213393	0.562165
C39	C	-0.603055	-1.213348	0.562140
N40	N	-0.579780	-1.274189	0.508003
C41	C	-0.603424	-1.335056	0.453875
C42	C	-1.030014	-1.213598	0.562237
C43	C	-1.076933	-1.213623	0.562245
C44	C	-1.077302	-1.335336	0.453975
C45	C	-1.030382	-1.335306	0.453962
C46	C	-1.006739	-1.274440	0.508100
C47	C	-0.504895	-1.334986	0.453850
C48	C	-0.457974	-1.334947	0.453839
C49	C	-0.457609	-1.213238	0.562112
C50	C	-0.504526	-1.213273	0.562121
C51	C	-0.528168	-1.274154	0.507987
O52	O	-0.578594	-1.161590	0.608127
O53	O	-0.579313	-1.386803	0.407842
C54	C	-0.791093	-1.335174	0.453923
C55	C	-0.814366	-1.274339	0.508065
C56	C	-0.790722	-1.213472	0.562194
C57	C	-0.861284	-1.274363	0.508074
C58	C	-0.884928	-1.335230	0.453945
C59	C	-0.861654	-1.396072	0.399808
C60	C	-0.814737	-1.396041	0.399794
C61	C	-0.813996	-1.152630	0.616331
C62	C	-0.860913	-1.152666	0.616339
C63	C	-0.884557	-1.213532	0.562211
C64	C	-0.150508	-1.274411	0.508085
C65	C	-0.100577	-1.274490	0.508117
C66	C	-0.274826	-1.508750	0.521542
C67	C	-0.277872	-1.608690	0.527309
C68	C	-0.312463	-0.746229	0.592802
C69	C	-0.309614	-0.652326	0.587407
C70	C	-0.248976	-0.658964	0.472604
C71	C	-0.251825	-0.752867	0.477999
C72	C	-0.283570	-0.796497	0.538099
C73	C	-0.286422	-0.890402	0.543489
C74	C	-0.225781	-0.897038	0.428692
C75	C	-0.222932	-0.803135	0.423297
C76	C	-0.261358	-1.287717	0.274401
C77	C	-0.258546	-1.293639	0.174471
C78	C	-0.227777	-1.359279	1.036946
C79	C	-0.230304	-1.353881	1.130849
C80	C	-0.284262	-1.238790	1.124184
C81	C	-0.281735	-1.244189	1.030281
C82	C	-0.253492	-1.304436	0.986666
C83	C	-0.250968	-1.309839	0.892761
C84	C	-0.304924	-1.194744	0.886097
C85	C	-0.307450	-1.189345	0.980000
H86	H	-0.439027	-1.384490	0.409742
H87	H	-0.333141	-0.611401	0.631953
C88	C	-0.347385	-0.794223	0.658908
N89	N	-0.373688	-0.830371	0.708702
H90	H	-0.307256	-1.189739	1.159711
C91	C	-0.193998	-0.952341	0.368512
N92	N	-0.170061	-0.993996	0.323183
H93	H	-0.223127	-0.623424	0.423680
C94	C	-0.188014	-0.755132	0.357190
N95	N	-0.161714	-0.718977	0.307395
C96	C	-0.338513	-1.123070	1.027987
N97	N	-0.361909	-1.073150	1.064130
C98	C	-0.333213	-1.134413	0.830780
N99	N	-0.354520	-1.088974	0.789115
H100	H	-0.524139	-1.384563	0.409771
H101	H	-1.010767	-1.164032	0.606324
C102	C	-0.648392	-1.462870	0.340180
N103	N	-0.629117	-1.513277	0.295302
H104	H	-0.227972	-1.358896	0.857251
C105	C	-1.103319	-1.402294	0.394438
N106	N	-1.122918	-1.452729	0.349603
C107	C	-1.102527	-1.146687	0.621802
N108	N	-1.121803	-1.096271	0.666667
H109	H	-0.740149	-1.445548	0.355689
C110	C	-0.196712	-1.425555	0.988968
N111	N	-0.173313	-1.475475	0.952832
C112	C	-1.004786	-1.402236	0.394400
N113	N	-0.985510	-1.452653	0.349536
C114	C	-0.202016	-1.414215	1.186155
N115	N	-0.180709	-1.459662	1.227812
C116	C	-0.745749	-1.085645	0.675895
N117	N	-0.765022	-1.035233	0.720769
H118	H	-0.653989	-1.102990	0.660401
H119	H	-0.438351	-1.163678	0.606181
C120	C	-0.789143	-1.462967	0.340224
N121	N	-0.769868	-1.513378	0.295352
C122	C	-0.530127	-1.146344	0.621682
N123	N	-0.549406	-1.095938	0.666552
H124	H	-0.879858	-1.103115	0.660431
C125	C	-0.887671	-1.463024	0.340265
N126	N	-0.907270	-1.513453	0.295423
H127	H	-0.794749	-1.103066	0.660410
C128	C	-0.321341	-0.938393	0.609602
N129	N	-0.347642	-0.974536	0.659402
