data_functionalizedCrystal
_audit_creation_method	'MofGen! by Chris Wilmer'
_symmetry_space_group_name_H-M	'P1'
_symmetry_Int_Tables_number	1
_symmetry_cell_setting	triclinic
loop_
_symmetry_equiv_pos_as_xyz
  x,y,z
_cell_length_a	6.817900
_cell_length_b	17.982959
_cell_length_c	9.514088
_cell_angle_alpha	91.864726
_cell_angle_beta	118.843545
_cell_angle_gamma	102.451857
loop_
_atom_site_label
_atom_site_type_symbol
_atom_site_fract_x
_atom_site_fract_y
_atom_site_fract_z
V1	V	-4.212572	-0.106765	-0.501422
O2	O	-4.201534	0.003741	-0.491187
O3	O	-4.158024	-0.210360	-0.498657
O4	O	-4.247398	-0.105733	-0.719807
O5	O	-4.111541	-0.101611	-0.268506
V6	V	-4.686213	-0.093475	-0.473483
O7	O	-4.495509	-0.135917	-0.562709
O8	O	-4.853474	-0.064323	-0.412196
O9	O	-4.517555	0.010120	-0.476249
O10	O	-4.814648	-0.203981	-0.483718
O11	O	-4.904641	-0.098629	-0.706399
O12	O	-4.428181	-0.094508	-0.255098
C13	C	-3.998836	-0.235596	-0.490918
C14	C	-4.036078	-0.320290	-0.490112
C15	C	-4.112839	-0.102132	-0.773015
C16	C	-4.222556	-0.101973	-0.951550
C17	C	-4.238553	-0.363982	-0.497769
C18	C	-4.273540	-0.443562	-0.497022
C19	C	-4.106042	-0.479448	-0.488606
C20	C	-3.903553	-0.435750	-0.480953
C21	C	-3.868576	-0.356173	-0.481712
C22	C	-4.044607	-0.756678	-0.477894
C23	C	-4.079597	-0.836261	-0.477130
C24	C	-4.449571	-0.844067	-0.493204
C25	C	-4.414595	-0.764489	-0.493963
C26	C	-4.212116	-0.720800	-0.486318
C27	C	-4.174183	-0.634510	-0.487132
C28	C	-4.143964	-0.565735	-0.487780
C29	C	-4.340083	0.035351	-0.483983
C30	C	-4.282083	0.120045	-0.484799
C31	C	-4.226078	-0.098111	-0.201882
C32	C	-4.095600	-0.098266	-0.023345
H33	H	-4.438415	-0.479133	-0.503260
H34	H	-3.879735	-0.721114	-0.471659
H35	H	-4.550988	-0.735275	-0.500808
C36	C	-4.669154	-0.891578	-0.501258
C37	C	-4.609671	-0.926865	-0.362433
C38	C	-4.811875	-0.970643	-0.369799
H39	H	-4.764044	-0.858891	-0.506295
H40	H	-4.751761	-0.930038	-0.595386
H41	H	-4.527101	-0.888410	-0.268331
H42	H	-4.514811	-0.959565	-0.357370
H43	H	-4.894482	-1.009103	-0.463927
H44	H	-4.906751	-0.937950	-0.374839
H45	H	-4.771543	-0.994596	-0.275617
C46	C	-4.479475	-0.106158	-1.051949
C47	C	-4.592469	-0.172192	-1.170835
C48	C	-4.829133	-0.176068	-1.263368
H49	H	-4.544726	-0.108548	-0.983178
H50	H	-4.498116	-0.061603	-1.102873
H51	H	-4.573845	-0.216736	-1.119913
H52	H	-4.527289	-0.169817	-1.239643
H53	H	-4.847773	-0.131513	-1.314292
H54	H	-4.894360	-0.178456	-1.194583
H55	H	-4.905825	-0.220868	-1.344051
H56	H	-4.374945	-0.334769	-0.504607
C57	C	-3.721912	-0.474845	-0.471742
C58	C	-3.795843	-0.553884	-0.472669
C59	C	-3.628554	-0.589919	-0.464159
H60	H	-3.701294	-0.467501	-0.562667
H61	H	-3.578894	-0.453023	-0.374390
H62	H	-3.938819	-0.575699	-0.570010
H63	H	-3.816445	-0.561250	-0.381750
H64	H	-3.485537	-0.568097	-0.366806
H65	H	-3.607948	-0.582569	-0.555086
H66	H	-3.678683	-0.643549	-0.464771
H67	H	-3.902976	-0.095221	-0.948230
C68	C	-3.648475	-0.308745	-0.473054
C69	C	-3.455008	-0.315084	-0.329119
C70	C	-3.252214	-0.271398	-0.321085
H71	H	-3.639119	-0.327351	-0.563642
H72	H	-3.651489	-0.256197	-0.474624
H73	H	-3.451992	-0.367621	-0.327564
H74	H	-3.464286	-0.296474	-0.238507
H75	H	-3.255228	-0.218849	-0.322655
H76	H	-3.242882	-0.290007	-0.411679
H77	H	-3.120924	-0.275687	-0.223420
H78	H	-3.943195	-0.865477	-0.470287
