data_functionalizedCrystal
_audit_creation_method	'MofGen! by Chris Wilmer'
_symmetry_space_group_name_H-M	'P1'
_symmetry_Int_Tables_number	1
_symmetry_cell_setting	triclinic
loop_
_symmetry_equiv_pos_as_xyz
  x,y,z
_cell_length_a	10.654545
_cell_length_b	15.944493
_cell_length_c	9.130313
_cell_angle_alpha	90.001356
_cell_angle_beta	89.996934
_cell_angle_gamma	83.979061
loop_
_atom_site_label
_atom_site_type_symbol
_atom_site_fract_x
_atom_site_fract_y
_atom_site_fract_z
O1	O	1.666280	0.117961	-0.121764
O2	O	1.300652	0.129206	-0.121768
O3	O	1.493488	0.001363	-0.121778
O4	O	1.473443	0.245804	-0.121754
O5	O	1.493475	0.001360	0.121821
O6	O	1.300638	0.129202	0.121831
O7	O	1.666267	0.117958	0.121835
Cu8	Cu	1.483451	0.123579	0.144076
Cu9	Cu	1.483467	0.123584	-0.144008
O10	O	1.473430	0.245800	0.121845
C11	C	1.253858	0.128379	0.000031
C12	C	1.114447	0.125911	0.000028
C13	C	1.048951	0.124748	0.132815
C14	C	0.917962	0.122415	0.132814
C15	C	0.917977	0.122413	-0.132770
C16	C	1.048965	0.124740	-0.132769
C17	C	1.492662	-0.029938	0.000015
C18	C	1.490206	-0.123201	-0.000003
C19	C	1.603714	-0.358305	0.000026
C20	C	1.542510	-0.409225	-0.120081
C21	C	1.485655	-0.293948	0.000015
C22	C	1.542470	-0.409205	0.120088
C23	C	1.481268	-0.458883	0.000038
C24	C	1.424483	-0.343640	-0.120191
C25	C	1.424459	-0.343616	0.120086
C26	C	1.363169	-0.394504	-0.000050
C27	C	1.488186	-0.198934	-0.000000
C28	C	1.478727	-0.553895	0.000043
C29	C	1.713060	0.118784	0.000033
C30	C	1.852471	0.121252	0.000026
C31	C	1.474256	0.277101	0.000049
C32	C	1.476712	0.370364	0.000058
N33	N	1.483450	0.123576	0.346698
N34	N	1.483479	0.123581	-0.346631
C35	C	1.568866	0.066991	0.423346
C36	C	1.568878	0.066991	0.576682
C37	C	1.398053	0.180168	0.576711
C38	C	1.398036	0.180163	0.423377
H39	H	1.102263	0.125701	0.240946
C40	C	0.846979	0.120983	-0.276991
C41	C	0.892972	0.049402	-0.357100
C42	C	0.827592	0.048055	-0.489958
H43	H	0.858820	0.170205	-0.331716
H44	H	0.759583	0.119389	-0.258043
H45	H	0.980348	0.051003	-0.376053
H46	H	0.881131	0.000168	-0.302419
H47	H	0.740196	0.046461	-0.471010
H48	H	0.839438	0.097280	-0.544670
H49	H	0.858781	-0.000516	-0.544323
H50	H	1.102294	0.125685	-0.240906
H51	H	1.705407	-0.342089	-0.000094
H52	H	1.592373	-0.437881	-0.221623
C53	C	0.846662	0.121278	0.276874
C54	C	0.757278	0.192065	0.284621
C55	C	0.691562	0.191037	0.417303
H56	H	0.904270	0.122348	0.356084
H57	H	0.805087	0.071494	0.282400
H58	H	0.798851	0.241836	0.279110
H59	H	0.699644	0.191010	0.205443
H60	H	0.649986	0.141253	0.422829
H61	H	0.749179	0.192104	0.496502
H62	H	0.630899	0.239060	0.422571
H63	H	1.374659	-0.315106	-0.221841
C64	C	1.227448	-0.415870	-0.000433
C65	C	1.166235	-0.382393	-0.126411
C66	C	1.041216	-0.402070	-0.126830
H67	H	1.185065	-0.392415	0.083980
H68	H	1.226550	-0.475388	0.000300
H69	H	1.167125	-0.322887	-0.127130
H70	H	1.208579	-0.405843	-0.210844
H71	H	1.040318	-0.461588	-0.126097
H72	H	0.998845	-0.378614	-0.042412
H73	H	0.999670	-0.379366	-0.212310
H74	H	1.374639	-0.314945	0.221631
C75	C	1.609169	-0.447296	0.255432
C76	C	1.734976	-0.429257	0.254862
C77	C	1.796463	-0.464321	0.379518
H78	H	1.606573	-0.506663	0.255055
H79	H	1.568142	-0.423935	0.340763
H80	H	1.775993	-0.452621	0.169554
H81	H	1.737610	-0.369897	0.255261
H82	H	1.755436	-0.440960	0.464849
H83	H	1.793858	-0.523687	0.379130
H84	H	1.881826	-0.452081	0.379155
C85	C	1.661560	0.005423	0.659712
C86	C	1.641247	-0.077248	0.622388
C87	C	1.726614	-0.133990	0.698830
H88	H	1.649429	0.013408	0.762037
H89	H	1.745387	0.015019	0.634534
H90	H	1.557439	-0.086841	0.647576
H91	H	1.653387	-0.085261	0.520076
H92	H	1.810441	-0.124394	0.673652
H93	H	1.714476	-0.125997	0.801151
H94	H	1.712851	-0.190089	0.673506
H95	H	1.638413	0.020913	0.360917
C96	C	1.305127	0.241508	0.659893
C97	C	1.181729	0.227098	0.622655
C98	C	1.096092	0.283582	0.699266
H99	H	1.318568	0.297690	0.634822
H100	H	1.317288	0.233402	0.762205
H101	H	1.169573	0.235211	0.520367
H102	H	1.168248	0.170927	0.647730
H103	H	1.108253	0.275476	0.801578
H104	H	1.109545	0.339761	0.674189
H105	H	1.012358	0.273808	0.674022
H106	H	1.328473	0.226242	0.360966
