data_functionalizedCrystal
_audit_creation_method	'MofGen! by Chris Wilmer'
_symmetry_space_group_name_H-M	'P1'
_symmetry_Int_Tables_number	1
_symmetry_cell_setting	triclinic
loop_
_symmetry_equiv_pos_as_xyz
  x,y,z
_cell_length_a	13.897449
_cell_length_b	12.594516
_cell_length_c	13.897441
_cell_angle_alpha	89.971947
_cell_angle_beta	89.976606
_cell_angle_gamma	90.012642
loop_
_atom_site_label
_atom_site_type_symbol
_atom_site_fract_x
_atom_site_fract_y
_atom_site_fract_z
Zn1	Zn	1.474742	-0.423685	-0.545467
Zn2	Zn	1.474653	-0.601695	-0.384175
Zn3	Zn	1.313431	-0.423734	-0.384178
Zn4	Zn	1.313429	-0.601624	-0.545420
O5	O	1.394064	-0.512685	-0.464810
O6	O	1.609712	-0.447307	-0.524090
O7	O	1.453230	-0.578139	-0.249194
O8	O	1.334868	-0.274782	-0.405593
O9	O	1.609646	-0.578091	-0.405589
O10	O	1.453382	-0.274745	-0.524092
O11	O	1.334781	-0.447391	-0.249196
O12	O	1.178449	-0.447322	-0.405548
O13	O	1.334865	-0.577970	-0.680408
O14	O	1.178448	-0.578017	-0.524013
O15	O	1.453380	-0.447238	-0.680442
O16	O	1.453228	-0.750632	-0.405544
O17	O	1.334778	-0.750579	-0.524011
C18	C	1.143449	-0.512668	-0.464776
C19	C	1.036236	-0.512687	-0.464785
C20	C	0.949166	-0.512690	-0.464801
C21	C	0.839933	-0.512698	-0.464830
C22	C	1.394019	-0.789225	-0.464793
C23	C	1.394088	-0.907531	-0.464818
C24	C	1.458588	-0.976774	-0.400453
C25	C	1.482161	-1.047470	-0.488495
C26	C	1.370636	-1.047634	-0.376833
C27	C	1.417707	-0.976668	-0.552906
C28	C	1.306140	-0.976827	-0.441184
C29	C	1.329680	-1.047490	-0.529287
C30	C	1.645657	-0.512702	-0.464844
C31	C	1.752871	-0.512709	-0.464859
C32	C	1.394132	-0.512590	-0.716403
C33	C	1.394161	-0.512550	-0.823617
C34	C	1.394135	-0.235064	-0.464848
C35	C	1.394165	-0.116758	-0.464864
C36	C	1.394188	-0.512478	-1.019912
C37	C	1.394170	-0.512521	-0.910680
C38	C	1.394051	-0.512701	-0.214196
C39	C	1.394209	-0.512442	-0.106982
H40	H	1.513142	-0.945722	-0.346071
C41	C	1.256046	-1.089200	-0.602927
C42	C	1.171616	-1.159210	-0.569296
C43	C	1.097992	-1.200930	-0.642940
C44	C	1.108798	-1.172638	-0.750214
C45	C	1.193231	-1.102623	-0.783850
C46	C	1.266855	-1.060904	-0.710207
H47	H	1.163614	-1.180157	-0.489881
H48	H	1.035489	-1.252759	-0.618040
H49	H	1.054297	-1.203521	-0.804730
H50	H	1.201233	-1.081677	-0.863266
H51	H	1.329358	-1.009075	-0.735107
H52	H	1.437501	-0.945630	-0.627398
H53	H	1.231752	-0.945770	-0.421142
C54	C	1.582680	-1.089397	-0.515542
C55	C	1.670254	-1.061474	-0.452587
C56	C	1.770775	-1.103394	-0.479628
C57	C	1.783720	-1.173238	-0.569624
C58	C	1.696142	-1.201165	-0.632585
C59	C	1.595622	-1.159245	-0.605544
H60	H	1.660674	-1.009768	-0.385961
H61	H	1.835605	-1.082720	-0.433020
H62	H	1.858131	-1.204269	-0.589641
H63	H	1.705723	-1.252870	-0.699210
H64	H	1.530791	-1.179918	-0.652152
H65	H	1.350767	-1.078805	-0.302405
