data_functionalizedCrystal
_audit_creation_method	'MofGen! by Chris Wilmer'
_symmetry_space_group_name_H-M	'P1'
_symmetry_Int_Tables_number	1
_symmetry_cell_setting	triclinic
loop_
_symmetry_equiv_pos_as_xyz
  x,y,z
_cell_length_a	8.497374
_cell_length_b	13.032831
_cell_length_c	13.032268
_cell_angle_alpha	89.113023
_cell_angle_beta	82.839691
_cell_angle_gamma	82.801496
loop_
_atom_site_label
_atom_site_type_symbol
_atom_site_fract_x
_atom_site_fract_y
_atom_site_fract_z
Zn1	Zn	-1.065478	1.498738	0.780968
Zn2	Zn	-1.300541	1.520538	0.609018
Zn3	Zn	-0.999571	1.348581	0.587201
Zn4	Zn	-1.292011	1.326784	0.759142
O5	O	-1.164400	1.423660	0.684082
O6	O	-1.127812	1.645558	0.776424
O7	O	-1.236604	1.515972	0.462204
O8	O	-0.787552	1.368498	0.612909
O9	O	-1.300512	1.661574	0.650092
O10	O	-0.835974	1.478818	0.755269
O11	O	-1.015483	1.389636	0.446175
O12	O	-1.007211	1.201761	0.591745
O13	O	-1.285973	1.331349	0.905957
O14	O	-1.222066	1.185747	0.718069
O15	O	-1.119541	1.457683	0.921993
O16	O	-1.520171	1.494837	0.628928
O17	O	-1.513904	1.352487	0.739224
C18	C	-1.106562	1.156435	0.650171
C19	C	-1.081861	1.042112	0.635689
C20	C	-1.177292	0.983259	0.691641
C21	C	-1.151765	0.865100	0.676674
C22	C	-1.209157	1.389653	0.952335
C23	C	-1.228230	1.375161	1.066648
C24	C	-0.752919	1.423651	0.684086
C25	C	-0.574275	1.423651	0.684089
C26	C	-1.222465	1.691929	0.718126
C27	C	-1.247209	1.806249	0.732634
C28	C	-1.119716	1.457594	0.416881
C29	C	-1.100242	1.472285	0.302593
C30	C	-1.154386	1.431207	1.125547
C31	C	-1.174097	1.416231	1.243696
H32	H	-0.981254	1.005021	0.576709
H33	H	-1.076566	1.490275	1.088503
C34	C	-1.383129	0.856334	0.812326
C35	C	-1.557877	0.842771	0.801907
C36	C	-1.693794	0.892856	0.881598
C37	C	-1.654964	0.956504	0.971708
C38	C	-1.480208	0.970070	0.982131
C39	C	-1.344291	0.919986	0.902440
H40	H	-1.586629	0.795652	0.735199
H41	H	-1.823160	0.882813	0.873882
H42	H	-1.755578	0.993580	1.030701
H43	H	-1.451456	1.017189	1.048839
H44	H	-1.214925	0.930029	0.910156
H45	H	-1.251904	1.357149	1.280734
C46	C	-1.333356	1.295356	1.116680
C47	C	-1.512084	1.305595	1.103072
C48	C	-1.617212	1.225788	1.153101
C49	C	-1.543612	1.135741	1.216737
C50	C	-1.364874	1.125498	1.230347
C51	C	-1.259746	1.205305	1.180319
H52	H	-1.566576	1.372256	1.055963
H53	H	-1.749526	1.233371	1.143025
H54	H	-1.621434	1.076663	1.253771
H55	H	-1.310383	1.058836	1.277457
H56	H	-1.127432	1.197722	1.190395
C57	C	-0.995107	1.552094	1.252570
C58	C	-0.849365	1.516823	1.173038
C59	C	-0.744229	1.596630	1.123016
C60	C	-0.784836	1.711707	1.152526
C61	C	-0.930585	1.746983	1.232063
C62	C	-1.035720	1.667177	1.282085
H63	H	-0.819299	1.431631	1.151189
H64	H	-0.636336	1.570515	1.064138
H65	H	-0.707008	1.770784	1.115497
H66	H	-0.960650	1.832175	1.253912
H67	H	-1.143613	1.693291	1.340963
C68	C	-1.313204	1.033356	0.771326
C69	C	-1.487954	1.019799	0.760907
C70	C	-1.623868	1.069893	0.840594
C71	C	-1.585033	1.133545	0.930700
C72	C	-1.410276	1.147106	0.941123
C73	C	-1.274361	1.097011	0.861436
H74	H	-1.516709	0.972677	0.694202
H75	H	-1.753236	1.059855	0.832878
H76	H	-1.685646	1.170628	0.989689
H77	H	-1.381520	1.194227	1.007828
H78	H	-1.144993	1.107049	0.869152
C79	C	-1.015846	0.815009	0.596983
C80	C	-0.883704	0.735447	0.632382
C81	C	-0.747789	0.685355	0.552694
C82	C	-0.744016	0.714826	0.437606
C83	C	-0.876163	0.794393	0.402201
C84	C	-1.012078	0.844484	0.481889
H85	H	-0.886493	0.713627	0.717582
H86	H	-0.649965	0.626455	0.578903
H87	H	-0.643403	0.677746	0.378615
H88	H	-0.873374	0.816213	0.317001
H89	H	-1.109902	0.903385	0.455679
