data_functionalizedCrystal
_audit_creation_method	'MofGen! by Chris Wilmer'
_symmetry_space_group_name_H-M	'P1'
_symmetry_Int_Tables_number	1
_symmetry_cell_setting	triclinic
loop_
_symmetry_equiv_pos_as_xyz
  x,y,z
_cell_length_a	21.395362
_cell_length_b	21.295417
_cell_length_c	21.395355
_cell_angle_alpha	90.020404
_cell_angle_beta	90.043940
_cell_angle_gamma	90.045579
loop_
_atom_site_label
_atom_site_type_symbol
_atom_site_fract_x
_atom_site_fract_y
_atom_site_fract_z
Zn1	Zn	0.957864	-0.250415	0.354577
Zn2	Zn	0.957768	-0.355667	0.249796
Zn3	Zn	0.853079	-0.250445	0.249779
Zn4	Zn	0.853050	-0.355680	0.354501
O5	O	0.905440	-0.303052	0.302163
O6	O	1.045529	-0.264359	0.340717
O7	O	0.943853	-0.341716	0.162116
O8	O	0.867031	-0.162351	0.263705
O9	O	1.045459	-0.341687	0.263735
O10	O	0.944016	-0.162330	0.340700
O11	O	0.866938	-0.264409	0.162103
O12	O	0.765397	-0.264422	0.263631
O13	O	0.866982	-0.341709	0.442189
O14	O	0.765376	-0.341738	0.340570
O15	O	0.943988	-0.264372	0.442245
O16	O	0.943825	-0.443758	0.263661
O17	O	0.866889	-0.443767	0.340587
C18	C	0.742652	-0.303085	0.302091
C19	C	0.673011	-0.303114	0.302074
C20	C	0.905360	-0.466603	0.302132
C21	C	0.905383	-0.536571	0.302139
C22	C	0.640303	-0.343426	0.342077
C23	C	0.574868	-0.343411	0.342105
C24	C	0.542143	-0.303090	0.302119
C25	C	0.574859	-0.262771	0.262114
C26	C	0.640293	-0.262783	0.262092
C27	C	0.438418	-0.298019	0.245714
C28	C	0.372985	-0.298011	0.245735
C29	C	0.340322	-0.303049	0.302188
C30	C	0.373100	-0.308108	0.358622
C31	C	0.438534	-0.308120	0.358599
C32	C	0.471191	-0.303072	0.302139
C33	C	0.236662	-0.343346	0.342224
C34	C	0.171225	-0.343326	0.342253
C35	C	0.171217	-0.262690	0.262257
C36	C	0.236653	-0.262706	0.262234
C37	C	0.269371	-0.303038	0.302216
C38	C	0.945447	-0.569370	0.342259
C39	C	0.945469	-0.635112	0.342275
C40	C	0.905434	-0.668054	0.302159
C41	C	0.865363	-0.635248	0.262036
C42	C	0.865338	-0.569506	0.262026
N43	N	0.900697	-0.771307	0.247324
N44	N	0.900725	-0.833759	0.247335
C45	C	0.905507	-0.866129	0.302187
N46	N	0.910273	-0.833688	0.357029
N47	N	0.910249	-0.771230	0.357017
C48	C	0.905457	-0.739339	0.302165
C49	C	0.945597	-0.970212	0.342327
C50	C	0.945615	-1.035956	0.342344
C51	C	0.865512	-1.036090	0.262100
C52	C	0.865491	-0.970348	0.262089
C53	C	0.905537	-0.937413	0.302202
C54	C	1.068864	-0.303019	0.302237
C55	C	1.138505	-0.303005	0.302268
C56	C	0.905492	-0.303039	0.465587
C57	C	0.905514	-0.303033	0.535228
C58	C	0.905537	-0.138861	0.302209
C59	C	0.905579	-0.068893	0.302228
C60	C	0.905424	-0.303019	0.139376
C61	C	0.905524	-0.302847	0.069735
C62	C	0.945610	-0.262762	0.567971
C63	C	0.945609	-0.262735	0.633407
C64	C	0.905519	-0.302991	0.666096
C65	C	0.865416	-0.343265	0.633345
C66	C	0.865413	-0.343286	0.567911
C67	C	0.900544	-0.359672	0.769758
C68	C	0.900551	-0.359652	0.835191
C69	C	0.905523	-0.302924	0.867917
C70	C	0.910501	-0.246215	0.835202
C71	C	0.910499	-0.246237	0.769768
C72	C	0.905517	-0.302971	0.737049
C73	C	0.945620	-0.262620	0.971613
C74	C	0.945615	-0.262592	1.037050
C75	C	0.865425	-0.343127	1.036987
C76	C	0.865427	-0.343150	0.971552
C77	C	0.905528	-0.302897	0.938869
H78	H	0.548232	-0.376237	0.374682
H79	H	0.346302	-0.293896	0.199784
H80	H	0.978269	-0.229840	0.945001
H81	H	0.832760	-0.376079	0.541252
C82	C	0.989541	-0.671201	0.386405
H83	H	0.983817	-0.715071	0.380667
H84	H	1.031638	-0.660382	0.377284
H85	H	0.980346	-0.660419	0.428493
H86	H	0.832871	-0.943642	0.229417
H87	H	0.465220	-0.312237	0.404549
H88	H	0.914551	-0.200022	0.861846
C89	C	0.989488	-0.533142	0.386386
H90	H	0.983740	-0.489290	0.380632
H91	H	0.980304	-0.543907	0.428473
H92	H	1.031597	-0.543870	0.377265
C93	C	0.135246	-0.387680	0.386249
H94	H	0.164106	-0.411707	0.410049
H95	H	0.109771	-0.363647	0.413608
H96	H	0.109671	-0.415064	0.362226
C97	C	0.821269	-0.533424	0.217892
H98	H	0.826986	-0.489554	0.223634
H99	H	0.830460	-0.544209	0.175807
H100	H	0.779169	-0.544241	0.227017
H101	H	0.832911	-1.062911	0.229441
C102	C	0.989714	-0.218481	0.532023
H103	H	1.013590	-0.194489	0.560900
H104	H	1.016998	-0.242563	0.506515
H105	H	0.965758	-0.191062	0.506483
H106	H	0.978202	-0.943396	0.374992
C107	C	0.989721	-0.218440	0.669432
H108	H	1.013605	-0.194474	0.640595
H109	H	0.965776	-0.191007	0.694945
H110	H	1.017005	-0.242518	0.694973
H111	H	0.914551	-0.200062	0.743134
C112	C	0.821321	-0.387547	0.669301
H113	H	0.827070	-0.381772	0.712961
H114	H	0.779228	-0.378349	0.658550
H115	H	0.830471	-0.429846	0.658580
H116	H	0.896501	-0.405828	0.861823
C117	C	0.895075	-0.422075	0.733763
H118	H	0.895780	-0.413966	0.690108
H119	H	0.929143	-0.448543	0.744511
H120	H	0.856916	-0.442207	0.744458
C121	C	0.989723	-0.218292	1.073068
H122	H	1.013607	-0.194328	1.044229
H123	H	0.965776	-0.190857	1.098576
H124	H	1.017008	-0.242365	1.098613
H125	H	0.978239	-1.062659	0.375017
C126	C	0.821328	-0.387453	0.935529
H127	H	0.827065	-0.381697	0.891878
H128	H	0.830471	-0.429743	0.946258
H129	H	0.779234	-0.378241	0.946222
C130	C	0.676290	-0.387782	0.386063
H131	H	0.647435	-0.411784	0.409895
H132	H	0.701766	-0.415179	0.362040
H133	H	0.701866	-0.363741	0.413401
H134	H	0.263303	-0.376183	0.374784
H135	H	0.548210	-0.229940	0.229559
C136	C	0.821331	-0.387411	1.072938
H137	H	0.827078	-0.381635	1.116598
H138	H	0.779237	-0.378217	1.062185
H139	H	0.830484	-0.429709	1.062218
H140	H	0.346508	-0.312209	0.404591
H141	H	0.144573	-0.229857	0.229703
H142	H	0.263284	-0.229883	0.229656
H143	H	0.666923	-0.229954	0.229517
C144	C	0.474341	-0.292442	0.183615
H145	H	0.445450	-0.289427	0.150010
H146	H	0.499891	-0.255951	0.184508
H147	H	0.499837	-0.328508	0.178013
C148	C	0.821328	-0.671481	0.217909
H149	H	0.827085	-0.715332	0.223656
H150	H	0.779221	-0.660754	0.227023
H151	H	0.830518	-0.660716	0.175819
