data_functionalizedCrystal
_audit_creation_method	'MofGen! by Chris Wilmer'
_symmetry_space_group_name_H-M	'P1'
_symmetry_Int_Tables_number	1
_symmetry_cell_setting	triclinic
loop_
_symmetry_equiv_pos_as_xyz
  x,y,z
_cell_length_a	15.944551
_cell_length_b	14.971486
_cell_length_c	14.048226
_cell_angle_alpha	90.006640
_cell_angle_beta	90.001970
_cell_angle_gamma	83.556433
loop_
_atom_site_label
_atom_site_type_symbol
_atom_site_fract_x
_atom_site_fract_y
_atom_site_fract_z
O1	O	-1.114636	-0.115362	-0.079062
O2	O	-0.870100	-0.129584	-0.079086
O3	O	-0.998922	0.007734	-0.079066
O4	O	-0.985814	-0.252680	-0.079081
O5	O	-0.998907	0.007742	0.079255
O6	O	-0.870085	-0.129576	0.079236
O7	O	-1.114621	-0.115354	0.079260
Zn8	Zn	-0.992350	-0.122464	0.104385
Zn9	Zn	-0.992371	-0.122474	-0.104211
O10	O	-0.985798	-0.252672	0.079240
C11	C	-0.838798	-0.128990	0.000072
C12	C	-0.745550	-0.127220	0.000063
C13	C	-0.998328	0.041062	0.000094
C14	C	-0.996572	0.140357	0.000093
C15	C	-1.145923	-0.115948	0.000100
C16	C	-1.239171	-0.117718	0.000102
C17	C	-0.530608	-0.037872	0.000087
C18	C	-0.469635	-0.079366	-0.077976
C19	C	-0.574821	-0.124017	0.000075
C20	C	-0.469642	-0.079379	0.078116
C21	C	-0.409905	-0.120918	0.000090
C22	C	-0.515076	-0.165535	-0.078053
C23	C	-0.515090	-0.165535	0.078110
C24	C	-0.454134	-0.207092	0.000027
C25	C	-0.669825	-0.125801	0.000065
C26	C	-0.314903	-0.119141	0.000093
C27	C	-0.986392	-0.286000	0.000078
C28	C	-0.988149	-0.385295	0.000073
C29	C	-1.072251	0.197664	0.000101
C30	C	-1.070595	0.290962	0.000091
C31	C	-0.993259	0.326951	0.000080
C32	C	-0.917574	0.269637	0.000069
C33	C	-0.919230	0.176341	0.000072
C34	C	-0.914127	0.464095	0.000066
C35	C	-0.912470	0.557398	0.000065
C36	C	-1.065491	0.578717	0.000085
C37	C	-1.067148	0.485421	0.000088
C38	C	-0.991462	0.428113	0.000078
N39	N	-0.992342	-0.122456	0.246745
N40	N	-0.992385	-0.122475	-0.246571
C41	C	-1.049403	-0.061676	0.296572
C42	C	-1.049408	-0.061676	0.396230
C43	C	-0.992357	-0.122460	0.446059
C44	C	-0.935290	-0.183242	0.396225
C45	C	-0.935281	-0.183238	0.296569
C46	C	-0.935315	-0.183249	0.603939
C47	C	-0.935325	-0.183255	0.703602
C48	C	-1.049442	-0.061687	0.703600
C49	C	-1.049433	-0.061682	0.603944
C50	C	-0.992367	-0.122466	0.554117
H51	H	-0.449497	-0.042934	-0.143969
H52	H	-0.888816	-0.232730	0.256001
O53	O	-0.414688	-0.292483	-0.000193
C54	C	-0.437867	-0.337564	-0.082594
H55	H	-0.459726	-0.286216	-0.139857
H56	H	-0.381223	-0.383720	-0.109840
H57	H	-0.491394	-0.379210	-0.064719
H58	H	-0.888834	-0.232731	0.436802
O59	O	-1.104958	-0.002607	0.751848
C60	C	-1.155302	0.051052	0.686498
H61	H	-1.156273	0.014380	0.615454
H62	H	-1.222369	0.064641	0.715282
H63	H	-1.127975	0.117523	0.675916
O64	O	-0.879967	-0.242418	0.555578
C65	C	-0.893697	-0.330972	0.579929
H66	H	-0.960946	-0.331453	0.607316
H67	H	-0.884076	-0.375853	0.514385
H68	H	-0.847172	-0.357218	0.637776
H69	H	-0.888867	-0.232750	0.744168
O70	O	-0.570406	0.047369	0.000049
C71	C	-0.658494	0.044549	0.000865
H72	H	-0.673182	-0.022530	0.031337
H73	H	-0.689619	0.101696	0.046818
H74	H	-0.683911	0.052201	-0.074896
H75	H	-0.535249	-0.201938	0.144106
O76	O	-0.445742	-0.035773	0.156821
C77	C	-0.485050	0.053414	0.156511
H78	H	-0.544450	0.057699	0.110815
H79	H	-0.502729	0.074862	0.232428
H80	H	-0.439757	0.099800	0.126041
H81	H	-0.535105	-0.201947	-0.144121
H82	H	-1.135227	0.168370	0.000116
O83	O	-1.144189	0.346502	0.000148
C84	C	-1.212802	0.294732	0.000143
H85	H	-1.191545	0.225105	0.030115
H86	H	-1.265825	0.329149	0.046119
H87	H	-1.236518	0.288078	-0.075806
O88	O	-0.840551	0.408515	-0.000070
C89	C	-0.793617	0.424798	-0.082083
H90	H	-0.814169	0.495566	-0.109420
H91	H	-0.723566	0.418235	-0.063647
H92	H	-0.805162	0.373761	-0.139497
H93	H	-1.130122	0.456122	0.000103
O94	O	-1.138936	0.634508	0.000040
C95	C	-1.120895	0.724571	0.000051
H96	H	-1.054918	0.728146	-0.029930
H97	H	-1.169133	0.766827	-0.045915
H98	H	-1.124046	0.751568	0.076002
H99	H	-1.095892	-0.012192	0.563373
H100	H	-0.849496	0.586696	0.000071
H101	H	-0.854605	0.298946	0.000055
H102	H	-0.857604	0.129681	0.000066
H103	H	-1.095864	-0.012183	0.256007
H104	H	-1.095871	-0.012184	0.436798
