data_functionalizedCrystal
_audit_creation_method	'MofGen! by Chris Wilmer'
_symmetry_space_group_name_H-M	'P1'
_symmetry_Int_Tables_number	1
_symmetry_cell_setting	triclinic
loop_
_symmetry_equiv_pos_as_xyz
  x,y,z
_cell_length_a	15.944545
_cell_length_b	15.944564
_cell_length_c	15.021413
_cell_angle_alpha	89.997162
_cell_angle_beta	89.995468
_cell_angle_gamma	96.499946
loop_
_atom_site_label
_atom_site_type_symbol
_atom_site_fract_x
_atom_site_fract_y
_atom_site_fract_z
O1	O	1.114537	-0.108295	-0.073977
O2	O	1.614537	0.391705	0.426023
O3	O	0.869987	-0.121657	-0.073992
O4	O	1.369987	0.378343	0.426008
O5	O	0.998935	0.007298	-0.073975
O6	O	1.498935	0.507298	0.426025
O7	O	0.985590	-0.237250	-0.073993
O8	O	1.485590	0.262750	0.426007
O9	O	0.998914	0.007280	0.074089
O10	O	1.498914	0.507280	0.574089
O11	O	0.869967	-0.121675	0.074073
O12	O	1.369967	0.378325	0.574073
O13	O	1.114517	-0.108314	0.074087
O14	O	1.614517	0.391686	0.574087
Zn15	Zn	0.992238	-0.114997	0.097588
Zn16	Zn	1.492238	0.385003	0.597588
Zn17	Zn	0.992265	-0.114973	-0.097493
Zn18	Zn	1.492265	0.385027	0.402507
O19	O	0.985569	-0.237269	0.074071
O20	O	1.485569	0.262731	0.574071
C21	C	0.838683	-0.121112	0.000039
C22	C	1.338683	0.378888	0.500039
C23	C	0.745437	-0.119452	0.000033
C24	C	1.245437	0.380548	0.500033
C25	C	0.474800	-0.034559	0.000049
C26	C	0.974800	0.465441	0.500049
C27	C	0.525373	-0.075497	0.073052
C28	C	1.025373	0.424503	0.573052
C29	C	0.409793	-0.113531	0.000049
C30	C	0.909793	0.386469	0.500049
C31	C	0.525374	-0.075500	-0.072928
C32	C	1.025374	0.424500	0.427072
C33	C	0.574706	-0.116436	0.000040
C34	C	1.074706	0.383564	0.500040
C35	C	0.459138	-0.154448	0.073112
C36	C	0.959138	0.345552	0.573112
C37	C	0.459135	-0.154439	-0.072933
C38	C	0.959135	0.345561	0.427067
C39	C	0.509676	-0.195435	0.000087
C40	C	1.009676	0.304565	0.500087
C41	C	0.314790	-0.111856	0.000055
C42	C	0.814790	0.388144	0.500055
C43	C	0.669706	-0.118118	0.000040
C44	C	1.169706	0.381882	0.500040
C45	C	0.998369	0.038583	0.000057
C46	C	1.498369	0.538583	0.500057
C47	C	0.996702	0.131828	0.000058
C48	C	1.496702	0.631828	0.500058
C49	C	1.145821	-0.108858	0.000055
C50	C	1.645821	0.391142	0.500055
C51	C	1.239067	-0.110518	0.000055
C52	C	1.739067	0.389482	0.500055
C53	C	0.912788	0.346682	0.000042
C54	C	1.412788	0.846682	0.500042
C55	C	0.951737	0.407691	0.073049
C56	C	1.451737	0.907691	0.573049
C57	C	0.993687	0.302553	0.000052
C58	C	1.493687	0.802553	0.500052
C59	C	0.951777	0.407692	-0.072931
C60	C	1.451777	0.907692	0.427069
C61	C	0.990769	0.467465	0.000042
C62	C	1.490769	0.967465	0.500042
C63	C	1.032659	0.362334	0.073119
C64	C	1.532659	0.862334	0.573119
C65	C	1.032687	0.362329	-0.072926
C66	C	1.532687	0.862329	0.427074
C67	C	1.071695	0.423320	0.000099
C68	C	1.571695	0.923320	0.500099
C69	C	0.995366	0.207551	0.000058
C70	C	1.495366	0.707551	0.500058
C71	C	0.989096	0.562465	0.000042
C72	C	1.489096	1.062465	0.500042
N73	N	0.992226	-0.115013	0.230726
N74	N	1.492226	0.384987	0.730726
C75	C	0.986124	0.731445	0.000038
C76	C	1.486124	1.231445	0.500038
C77	C	0.987756	0.638195	0.000034
C78	C	1.487756	1.138195	0.500034
N79	N	0.992284	-0.114950	-0.230630
N80	N	1.492284	0.385050	0.269370
C81	C	0.932592	-0.174614	0.470402
C82	C	1.432592	0.325386	0.970402
C83	C	1.008493	-0.190919	0.529739
C84	C	1.508493	0.309081	1.029739
C85	C	0.992248	-0.114992	0.412333
C86	C	1.492248	0.385008	0.912333
C87	C	0.916367	-0.098706	0.529737
C88	C	1.416367	0.401294	1.029737
C89	C	0.992262	-0.114974	0.587757
C90	C	1.492262	0.385026	1.087757
C91	C	1.068187	-0.131335	0.470364
C92	C	1.568187	0.368665	0.970364
C93	C	0.976011	-0.039089	0.470356
C94	C	1.476011	0.460911	0.970356
C95	C	1.051967	-0.055362	0.529667
C96	C	1.551967	0.444638	1.029667
C97	C	0.992238	-0.115005	0.311276
C98	C	1.492238	0.384995	0.811276
C99	C	0.992279	-0.114961	0.688812
C100	C	1.492279	0.385039	1.188812
H101	H	0.525171	-0.263500	0.000125
H102	H	1.025171	0.236500	0.500125
H103	H	0.430321	-0.187783	0.134896
H104	H	0.930321	0.312217	0.634896
H105	H	0.430199	-0.187755	-0.134658
H106	H	0.930199	0.312245	0.365342
Cl107	Cl	0.570032	-0.023976	-0.168210
Cl108	Cl	1.070032	0.476024	0.331790
Cl109	Cl	0.809119	0.295255	0.000142
Cl110	Cl	1.309119	0.795255	0.500142
H111	H	0.917511	0.427790	0.134766
H112	H	1.417511	0.927790	0.634766
H113	H	1.066839	0.342336	0.134908
H114	H	1.566839	0.842336	0.634908
Cl115	Cl	1.175454	0.474521	0.000165
Cl116	Cl	1.675454	0.974521	0.500165
Cl117	Cl	1.085484	0.331258	-0.168219
Cl118	Cl	1.585484	0.831258	0.331781
H119	H	0.917557	0.427776	-0.134657
H120	H	1.417557	0.927776	0.365343
H121	H	0.882194	-0.225075	0.444380
H122	H	1.382194	0.274925	0.944380
H123	H	1.022239	-0.255101	0.555823
H124	H	1.522239	0.244899	1.055823
Cl125	Cl	0.450623	0.070443	0.000163
Cl126	Cl	0.950623	0.570443	0.500163
Cl127	Cl	1.167295	-0.152707	0.430274
Cl128	Cl	1.667295	0.347293	0.930274
H129	H	1.102477	-0.004931	0.555526
H130	H	1.602477	0.495069	1.055526
H131	H	0.554294	-0.042152	0.134774
H132	H	1.054294	0.457848	0.634774
H133	H	0.962242	0.025072	0.444252
H134	H	1.462242	0.525072	0.944252
H135	H	0.852190	-0.084939	0.555819
H136	H	1.352190	0.415061	1.055819
