data_functionalizedCrystal
_audit_creation_method	'MofGen! by Chris Wilmer'
_symmetry_space_group_name_H-M	'P1'
_symmetry_Int_Tables_number	1
_symmetry_cell_setting	triclinic
loop_
_symmetry_equiv_pos_as_xyz
  x,y,z
_cell_length_a	10.654556
_cell_length_b	10.654551
_cell_length_c	9.730223
_cell_angle_alpha	89.997362
_cell_angle_beta	89.998368
_cell_angle_gamma	84.486483
loop_
_atom_site_label
_atom_site_type_symbol
_atom_site_fract_x
_atom_site_fract_y
_atom_site_fract_z
O1	O	1.667835	0.176437	-0.114232
O2	O	2.167835	0.676437	0.385768
O3	O	1.302358	0.193234	-0.114246
O4	O	1.802358	0.693234	0.385754
O5	O	1.493499	0.002097	-0.114236
O6	O	1.993499	0.502097	0.385764
O7	O	1.476694	0.367574	-0.114242
O8	O	1.976694	0.867574	0.385758
O9	O	1.493486	0.002091	0.114344
O10	O	1.993486	0.502091	0.614344
O11	O	1.302345	0.193229	0.114334
O12	O	1.802345	0.693229	0.614334
O13	O	1.667823	0.176431	0.114348
O14	O	2.167823	0.676431	0.614348
Zn15	Zn	1.485082	0.184829	0.150633
Zn16	Zn	1.985082	0.684829	0.650633
Zn17	Zn	1.485098	0.184836	-0.150531
Zn18	Zn	1.985098	0.684836	0.349469
O19	O	1.476682	0.367569	0.114338
O20	O	1.976682	0.867569	0.614338
C21	C	1.255554	0.191997	0.000042
C22	C	1.755554	0.691997	0.500042
C23	C	1.116111	0.188302	0.000037
C24	C	1.616111	0.688302	0.500037
C25	C	0.919572	0.183102	-0.124551
C26	C	1.419572	0.683102	0.375449
C27	C	1.050595	0.186566	-0.124560
C28	C	1.550595	0.686566	0.375440
C29	C	1.050600	0.186560	0.124651
C30	C	1.550600	0.686560	0.624651
C31	C	0.919581	0.183087	0.124658
C32	C	1.419581	0.683087	0.624658
C33	C	1.492258	-0.044704	0.000052
C34	C	1.992258	0.455296	0.500052
C35	C	1.488566	-0.184147	0.000046
C36	C	1.988566	0.315853	0.500046
C37	C	1.486839	-0.249648	-0.124555
C38	C	1.986839	0.250352	0.375445
C39	C	1.483359	-0.380669	-0.124556
C40	C	1.983359	0.119331	0.375444
C41	C	1.483337	-0.380676	0.124654
C42	C	1.983337	0.119324	0.624654
C43	C	1.486808	-0.249657	0.124654
C44	C	1.986808	0.250343	0.624654
C45	C	1.714627	0.177669	0.000057
C46	C	2.214627	0.677669	0.500057
C47	C	1.854070	0.181364	0.000053
C48	C	2.354070	0.681364	0.500053
C49	C	1.477922	0.414370	0.000047
C50	C	1.977922	0.914370	0.500047
C51	C	1.481615	0.553813	0.000044
C52	C	1.981615	1.053813	0.500044
N53	N	1.485080	0.184824	0.356169
N54	N	1.985080	0.684824	0.856169
N55	N	1.485110	0.184832	-0.356067
N56	N	1.985110	0.684832	0.143933
C57	C	1.569746	0.100224	0.428100
C58	C	2.069746	0.600224	0.928100
C59	C	1.569759	0.100225	0.571983
C60	C	2.069759	0.600225	1.071983
C61	C	1.400435	0.269436	0.571992
C62	C	1.900435	0.769436	1.071992
C63	C	1.400417	0.269428	0.428112
C64	C	1.900417	0.769428	0.928112
H65	H	1.103954	0.187965	0.226100
H66	H	1.603954	0.687965	0.726100
H67	H	1.488267	-0.196314	-0.226019
H68	H	1.988267	0.303686	0.273981
H69	H	1.481951	-0.433994	-0.226018
H70	H	1.981951	0.066006	0.273982
C71	C	1.481409	-0.452750	0.261717
C72	C	1.981409	0.047250	0.761717
N73	N	1.479959	-0.507035	0.364955
N74	N	1.979959	-0.007035	0.864955
H75	H	0.866247	0.181671	0.226132
H76	H	1.366247	0.681671	0.726132
H77	H	1.103921	0.187979	-0.226025
H78	H	1.603921	0.687979	0.273975
C79	C	1.488706	-0.177602	0.261731
C80	C	1.988706	0.322398	0.761731
N81	N	1.490132	-0.123329	0.364974
N82	N	1.990132	0.376671	0.864974
C83	C	1.307308	0.362493	0.651142
C84	C	1.807308	0.862493	1.151142
N85	N	1.237163	0.432585	0.710757
N86	N	1.737163	0.932585	1.210757
H87	H	1.638682	0.031332	0.369528
H88	H	2.138682	0.531332	0.869528
H89	H	1.638700	0.031334	0.630545
H90	H	2.138700	0.531334	1.130545
C91	C	1.307331	0.362557	0.348984
C92	C	1.807331	0.862557	0.848984
N93	N	1.237240	0.432718	0.289384
N94	N	1.737240	0.932718	0.789384
H95	H	0.866237	0.181698	-0.226013
H96	H	1.366237	0.681698	0.273987
