data_functionalizedCrystal
_audit_creation_method	'MofGen! by Chris Wilmer'
_symmetry_space_group_name_H-M	'P1'
_symmetry_Int_Tables_number	1
_symmetry_cell_setting	triclinic
loop_
_symmetry_equiv_pos_as_xyz
  x,y,z
_cell_length_a	12.811438
_cell_length_b	12.837942
_cell_length_c	14.048226
_cell_angle_alpha	89.994377
_cell_angle_beta	84.562091
_cell_angle_gamma	89.411773
loop_
_atom_site_label
_atom_site_type_symbol
_atom_site_fract_x
_atom_site_fract_y
_atom_site_fract_z
O1	O	1.406657	0.139694	-0.200585
O2	O	1.906657	0.639694	0.299415
O3	O	1.102590	0.154881	-0.174340
O4	O	1.602590	0.654881	0.325660
O5	O	1.247881	-0.003644	-0.186875
O6	O	1.747881	0.496356	0.313125
O7	O	1.261366	0.298220	-0.188050
O8	O	1.761366	0.798220	0.311950
O9	O	1.247861	-0.003654	-0.028551
O10	O	1.747861	0.496346	0.471449
O11	O	1.102570	0.154872	-0.016016
O12	O	1.602570	0.654872	0.483984
O13	O	1.406637	0.139685	-0.042262
O14	O	1.906637	0.639685	0.457738
Zn15	Zn	1.254600	0.147277	-0.004002
Zn16	Zn	1.754600	0.647277	0.495998
Zn17	Zn	1.254627	0.147289	-0.212600
Zn18	Zn	1.754627	0.647289	0.287400
O19	O	1.261345	0.298210	-0.029727
O20	O	1.761345	0.798210	0.470273
C21	C	1.063390	0.154025	-0.091795
C22	C	1.563390	0.654025	0.408205
C23	C	0.946617	0.151476	-0.081716
C24	C	1.446617	0.651476	0.418284
C25	C	0.782019	0.147878	0.018787
C26	C	1.282019	0.647878	0.518787
C27	C	0.891738	0.150274	0.009321
C28	C	1.391738	0.650274	0.509321
C29	C	0.891769	0.150285	-0.163292
C30	C	1.391769	0.650285	0.336708
C31	C	0.782050	0.147889	-0.153826
C32	C	1.282050	0.647889	0.346174
C33	C	0.727179	0.146684	-0.062783
C34	C	1.227179	0.646684	0.437217
C35	C	0.617458	0.144281	-0.053318
C36	C	1.117458	0.644281	0.446682
C37	C	0.617490	0.144299	-0.225930
C38	C	1.117490	0.644299	0.274070
C39	C	0.727209	0.146695	-0.235396
C40	C	1.227209	0.646695	0.264604
C41	C	1.243316	-0.042289	-0.107320
C42	C	1.743316	0.457711	0.392680
C43	C	1.229729	-0.157425	-0.106149
C44	C	1.729729	0.342575	0.393851
C45	C	1.393060	-0.397678	-0.120267
C46	C	1.893060	0.102322	0.379733
C47	C	1.380300	-0.505859	-0.119167
C48	C	1.880300	-0.005859	0.380833
C49	C	1.191449	-0.481970	-0.102857
C50	C	1.691449	0.018030	0.397143
C51	C	1.204209	-0.373789	-0.103956
C52	C	1.704209	0.126211	0.396044
C53	C	1.305018	-0.331647	-0.112661
C54	C	1.805018	0.168353	0.387339
C55	C	1.317778	-0.223464	-0.113753
C56	C	1.817778	0.276536	0.386247
C57	C	1.128928	-0.199577	-0.097450
C58	C	1.628928	0.300423	0.402550
C59	C	1.116167	-0.307758	-0.096350
C60	C	1.616167	0.192242	0.403650
C61	C	1.445836	0.140541	-0.124809
C62	C	1.945836	0.640541	0.375191
C63	C	1.562610	0.143090	-0.134894
C64	C	2.062610	0.643090	0.365106
C65	C	1.265911	0.336855	-0.109283
C66	C	1.765911	0.836855	0.390717
C67	C	1.279497	0.451991	-0.110461
C68	C	1.779497	0.951991	0.389539
N69	N	1.254589	0.147268	0.138359
N70	N	1.754589	0.647268	0.638359
N71	N	1.254645	0.147290	-0.354962
N72	N	1.754645	0.647290	0.145038
C73	C	1.318949	0.077102	0.182625
C74	C	1.818949	0.577102	0.682625
C75	C	1.318957	0.077101	0.282282
C76	C	1.818957	0.577101	0.782282
C77	C	1.254608	0.147272	0.337671
C78	C	1.754608	0.647272	0.837671
C79	C	1.190241	0.217442	0.293400
C80	C	1.690241	0.717442	0.793400
C81	C	1.190229	0.217436	0.193745
C82	C	1.690229	0.717436	0.693745
C83	C	1.190272	0.217449	0.501111
C84	C	1.690272	0.717449	1.001111
C85	C	1.190285	0.217456	0.600773
C86	C	1.690285	0.717456	1.100773
C87	C	1.318999	0.077114	0.589648
C88	C	1.818999	0.577114	1.089648
C89	C	1.318988	0.077109	0.489993
C90	C	1.818988	0.577109	0.989993
C91	C	1.254621	0.147280	0.445729
C92	C	1.754621	0.647280	0.945729
H93	H	0.936385	0.151249	0.075744
H94	H	1.436385	0.651249	0.575744
O95	O	1.475257	-0.577083	-0.127360
O96	O	1.975257	-0.077083	0.372640
H97	H	1.547495	-0.529600	-0.133588
H98	H	2.047495	-0.029600	0.366412
H99	H	1.399861	-0.189155	-0.120837
H100	H	1.899861	0.310845	0.379163
O101	O	0.950952	0.151594	-0.261485
O102	O	1.450952	0.651594	0.238515
H103	H	0.932190	0.080541	-0.301252
H104	H	1.432190	0.580541	0.198748
O105	O	1.501782	-0.352213	-0.129656
O106	O	2.001782	0.147787	0.370344
H107	H	1.560861	-0.416304	-0.134765
H108	H	2.060861	0.083696	0.365235
H109	H	1.371408	0.019979	0.625694
H110	H	1.871408	0.519979	1.125694
H111	H	1.109375	-0.516301	-0.095780
H112	H	1.609375	-0.016301	0.404220
O113	O	0.722594	0.146728	0.116876
O114	O	1.222594	0.646728	0.616876
H115	H	0.745719	0.076639	0.156442
H116	H	1.245719	0.576639	0.656442
O117	O	0.786392	0.147973	-0.333590
O118	O	1.286392	0.647973	0.166410
H119	H	0.871901	0.149827	-0.326471
H120	H	1.371901	0.649827	0.173529
H121	H	1.034091	-0.342085	-0.089267
H122	H	1.534091	0.157915	0.410733
H123	H	1.057238	-0.145802	-0.091248
H124	H	1.557238	0.354198	0.408752
H125	H	1.137884	0.274596	0.645867
H126	H	1.637884	0.774596	1.145867
H127	H	0.572827	0.143331	-0.292351
H128	H	1.072827	0.643331	0.207649
H129	H	1.371354	0.019965	0.137532
H130	H	1.871354	0.519965	0.637532
H131	H	1.371363	0.019966	0.318322
H132	H	1.871363	0.519966	0.818322
O133	O	1.120799	0.293098	0.145990
O134	O	1.620799	0.793098	0.645990
H135	H	1.170022	0.343713	0.096305
H136	H	1.670022	0.843713	0.596305
O137	O	1.120856	0.293136	0.453362
O138	O	1.620856	0.793136	0.953362
H139	H	1.076121	0.341942	0.508617
H140	H	1.576121	0.841942	1.008617
H141	H	1.371390	0.019975	0.444895
H142	H	1.871390	0.519975	0.944895
O143	O	1.120845	0.293137	0.353137
O144	O	1.620845	0.793137	0.853137
H145	H	1.037660	0.279522	0.341221
H146	H	1.537660	0.779522	0.841221
O147	O	0.558268	0.142990	0.044872
O148	O	1.058268	0.642990	0.544872
H149	H	0.614839	0.144236	0.100002
H150	H	1.114839	0.644236	0.600002
