data_functionalizedCrystal
_audit_creation_method	'MofGen! by Chris Wilmer'
_symmetry_space_group_name_H-M	'P1'
_symmetry_Int_Tables_number	1
_symmetry_cell_setting	triclinic
loop_
_symmetry_equiv_pos_as_xyz
  x,y,z
_cell_length_a	16.109302
_cell_length_b	17.038272
_cell_length_c	14.586319
_cell_angle_alpha	89.995924
_cell_angle_beta	89.994552
_cell_angle_gamma	87.286668
loop_
_atom_site_label
_atom_site_type_symbol
_atom_site_fract_x
_atom_site_fract_y
_atom_site_fract_z
O1	O	1.110268	0.100498	-0.076283
O2	O	0.869094	0.113004	-0.076276
O3	O	0.988247	-0.007065	-0.076272
O4	O	0.991114	0.220566	-0.076287
O5	O	0.988238	-0.007067	0.076209
O6	O	0.869085	0.113002	0.076205
O7	O	1.110259	0.100496	0.076198
Cu8	Cu	0.989671	0.106749	0.090124
Cu9	Cu	0.989682	0.106751	-0.090202
O10	O	0.991105	0.220564	0.076194
C11	C	0.838079	0.112496	-0.000034
C12	C	0.745675	0.110977	-0.000032
C13	C	0.533080	0.107463	0.083077
C14	C	0.446258	0.106028	0.083074
C15	C	0.446279	0.106034	-0.083169
C16	C	0.533099	0.107464	-0.083165
C17	C	0.576498	0.108183	-0.000039
C18	C	0.402855	0.105317	-0.000046
C19	C	0.308719	0.103760	-0.000050
C20	C	0.670640	0.109738	-0.000035
C21	C	0.985636	-0.036194	-0.000032
C22	C	0.977856	-0.122987	-0.000032
C23	C	1.049277	-0.173101	-0.000033
C24	C	1.041963	-0.254652	-0.000041
C25	C	0.963227	-0.286086	-0.000042
C26	C	0.891801	-0.235965	-0.000044
C27	C	0.899116	-0.154416	-0.000042
C28	C	0.937385	-0.531844	-0.000054
C29	C	0.930075	-0.613399	-0.000053
C30	C	1.080238	-0.632080	-0.000052
C31	C	1.087546	-0.550529	-0.000045
C32	C	1.016120	-0.500415	-0.000051
C33	C	0.955749	-0.369444	-0.000048
C34	C	1.023599	-0.417059	-0.000052
C35	C	1.141274	0.101003	-0.000045
C36	C	1.233677	0.102523	-0.000054
C37	C	0.993717	0.249693	-0.000048
C38	C	1.001496	0.336486	-0.000054
N39	N	0.989670	0.106747	0.216956
N40	N	0.989689	0.106747	-0.217034
C41	C	1.042451	0.053598	0.451964
C42	C	1.042453	0.053596	0.547945
C43	C	0.936902	0.159898	0.547951
C44	C	0.936896	0.159895	0.451972
C45	C	0.989675	0.106746	0.403981
C46	C	0.989683	0.106747	0.595942
C47	C	0.989686	0.106745	0.700009
C48	C	0.989672	0.106747	0.299907
H49	H	1.100122	-0.295452	-0.000040
N50	N	0.401959	0.105313	-0.168084
N51	N	0.440738	0.105955	-0.242289
H52	H	0.409439	0.105448	-0.302263
H53	H	0.893932	0.203171	0.587035
H54	H	0.568451	0.108047	-0.150852
H55	H	1.151661	-0.524942	-0.000044
N56	N	1.129711	-0.141009	-0.000020
N57	N	1.193473	-0.185767	-0.000020
H58	H	1.250282	-0.163105	-0.000011
N59	N	0.577425	0.108181	0.167976
N60	N	0.654943	0.109455	0.167972
H61	H	0.686261	0.109959	0.227934
N62	N	0.826160	-0.103224	-0.000019
N63	N	0.813483	-0.055640	0.064257
H64	H	0.761955	-0.019487	0.064271
H65	H	1.087705	-0.391462	-0.000072
N66	N	1.096344	-0.000705	0.596964
N67	N	1.066524	-0.049247	0.650518
H68	H	1.104582	-0.087606	0.685135
N69	N	0.875318	-0.401542	-0.000021
N70	N	0.811550	-0.356792	-0.000003
H71	H	0.754744	-0.379463	0.000019
H72	H	0.410911	0.105442	0.150755
H73	H	1.138389	-0.672891	-0.000049
N74	N	0.849638	-0.645497	-0.000037
N75	N	0.785872	-0.600745	-0.000032
H76	H	0.729065	-0.623413	-0.000013
N77	N	1.096353	-0.000708	0.402958
N78	N	1.149732	0.024071	0.349387
H79	H	1.187799	-0.014294	0.314789
N80	N	0.864419	-0.480672	-0.000054
N81	N	0.794126	-0.508752	-0.000047
H82	H	0.742590	-0.472610	-0.000044
N83	N	0.811382	-0.268088	-0.000034
N84	N	0.790550	-0.311513	0.064243
H85	H	0.733752	-0.334200	0.064253
H86	H	0.893916	0.203175	0.412901
