data_functionalizedCrystal
_audit_creation_method	'MofGen! by Chris Wilmer'
_symmetry_space_group_name_H-M	'P1'
_symmetry_Int_Tables_number	1
_symmetry_cell_setting	triclinic
loop_
_symmetry_equiv_pos_as_xyz
  x,y,z
_cell_length_a	10.489716
_cell_length_b	17.038272
_cell_length_c	15.500361
_cell_angle_alpha	93.042303
_cell_angle_beta	87.142637
_cell_angle_gamma	87.820346
loop_
_atom_site_label
_atom_site_type_symbol
_atom_site_fract_x
_atom_site_fract_y
_atom_site_fract_z
O1	O	1.698858	0.113880	0.071937
O2	O	1.328629	0.124261	0.071940
O3	O	1.511544	0.005242	0.071932
O4	O	1.515944	0.232899	0.071946
O5	O	1.522585	-0.001956	-0.071954
O6	O	1.339671	0.117062	-0.071946
O7	O	1.709900	0.106682	-0.071949
Cu8	Cu	1.525793	0.111215	-0.085085
Cu9	Cu	1.512736	0.119728	0.085077
O10	O	1.526985	0.225700	-0.071941
C11	C	1.286545	0.119882	-0.000002
C12	C	1.144695	0.117548	-0.000001
C13	C	1.053848	0.190534	0.000005
C14	C	0.978339	0.148418	-0.070944
C15	C	0.967458	0.155498	0.070916
C16	C	1.071059	0.075459	-0.071009
C17	C	1.060180	0.082553	0.070915
C18	C	0.984716	0.040382	-0.000052
C19	C	1.513062	-0.027508	-0.000011
C20	C	1.501120	-0.114370	-0.000011
C21	C	1.610759	-0.163855	-0.000013
C22	C	1.599530	-0.245469	-0.000004
C23	C	1.478662	-0.277597	-0.000000
C24	C	1.369015	-0.228106	0.000004
C25	C	1.380244	-0.146492	0.000002
C26	C	1.438990	-0.523582	0.000012
C27	C	1.427769	-0.605202	0.000012
C28	C	1.658286	-0.622560	0.000005
C29	C	1.669505	-0.540945	-0.000003
C30	C	1.559857	-0.491460	0.000006
C31	C	1.467182	-0.361020	0.000006
C32	C	1.571338	-0.408038	0.000007
C33	C	1.751984	0.111061	-0.000004
C34	C	1.893833	0.113395	0.000000
C35	C	1.525467	0.258451	0.000004
C36	C	1.537408	0.345313	0.000010
N37	N	1.534987	0.105227	-0.204768
C38	C	1.457462	0.155639	-0.250062
C39	C	1.464451	0.151108	-0.340634
C40	C	1.548958	0.096159	-0.385909
C41	C	1.626491	0.045744	-0.340608
C42	C	1.619508	0.050280	-0.250039
C43	C	1.574102	0.079831	-0.659370
C44	C	1.581076	0.075297	-0.749946
C45	C	1.419037	0.180662	-0.749965
C46	C	1.412055	0.185190	-0.659394
C47	C	1.489593	0.134778	-0.614101
C48	C	1.556101	0.091524	-0.478487
C49	C	1.482456	0.139418	-0.521524
N50	N	1.503552	0.125710	0.204760
H51	H	0.942341	0.176227	-0.130922
C52	C	1.108834	0.045015	0.151947
N53	N	1.145476	0.016744	0.212988
H54	H	1.349707	-0.483301	0.000019
C55	C	1.659385	0.024369	-0.609560
N56	N	1.723621	-0.017411	-0.572040
C57	C	0.906403	0.201192	0.151943
N58	N	0.860422	0.235613	0.212970
H59	H	1.388641	0.200381	-0.213205
H60	H	1.669747	-0.381875	0.000023
C61	C	1.743725	-0.128522	-0.000017
N62	N	1.843878	-0.101912	-0.000017
C63	C	1.802470	-0.505611	-0.000008
N64	N	1.902621	-0.478998	-0.000016
H65	H	0.954347	-0.023153	-0.000097
C66	C	1.720144	-0.299901	-0.000020
N67	N	1.810997	-0.340899	-0.000037
H68	H	1.290964	-0.106202	0.000004
H69	H	1.747554	-0.662859	-0.000001
C70	C	1.379160	0.206562	-0.390453
N71	N	1.314912	0.248332	-0.427977
C72	C	1.294799	-0.640540	0.000022
N73	N	1.194650	-0.667157	0.000031
H74	H	1.116103	0.041663	-0.131051
C75	C	1.236058	-0.263450	0.000002
N76	N	1.135913	-0.290070	-0.000007
C77	C	1.319285	0.245750	-0.609598
N78	N	1.249475	0.291404	-0.572091
C79	C	1.334230	-0.396371	-0.000008
N80	N	1.234092	-0.422999	-0.000022
C81	C	1.333752	0.236112	-0.799794
N82	N	1.269513	0.277880	-0.837326
C83	C	1.674070	0.014861	-0.799747
N84	N	1.744117	-0.030653	-0.837257
H85	H	1.695306	0.001006	-0.377477
C86	C	1.704789	-0.005180	-0.200216
N87	N	1.769027	-0.046953	-0.162690
H88	H	1.084460	0.254018	-0.000057
H89	H	1.413655	0.184160	-0.484659
H90	H	1.624907	0.046782	-0.515358
