data_functionalizedCrystal
_audit_creation_method	'MofGen! by Chris Wilmer'
_symmetry_space_group_name_H-M	'P1'
_symmetry_Int_Tables_number	1
_symmetry_cell_setting	triclinic
loop_
_symmetry_equiv_pos_as_xyz
  x,y,z
_cell_length_a	10.967819
_cell_length_b	10.540510
_cell_length_c	10.065875
_cell_angle_alpha	98.879491
_cell_angle_beta	69.228723
_cell_angle_gamma	84.614685
loop_
_atom_site_label
_atom_site_type_symbol
_atom_site_fract_x
_atom_site_fract_y
_atom_site_fract_z
O1	O	1.740656	0.092849	-0.522880
O2	O	1.363355	0.124350	-0.434143
O3	O	1.560634	-0.076444	-0.480540
O4	O	1.543378	0.293643	-0.476483
O5	O	1.523017	-0.038006	-0.244705
O6	O	1.325739	0.162788	-0.198307
O7	O	1.703039	0.131287	-0.287045
Zn8	Zn	1.508416	0.153140	-0.205232
Zn9	Zn	1.557978	0.102497	-0.515956
O10	O	1.505761	0.332081	-0.240647
C11	C	1.296234	0.144180	-0.304862
C12	C	1.152278	0.145985	-0.271006
C13	C	0.958808	0.128753	-0.343115
C14	C	1.107594	0.126880	-0.378100
C15	C	1.540540	-0.104479	-0.362323
C16	C	1.536694	-0.245281	-0.361427
C17	C	1.673656	-0.467968	-0.393119
C18	C	1.677846	-0.321620	-0.394623
C19	C	1.485918	-0.309185	-0.479104
C20	C	1.482831	-0.455842	-0.478479
C21	C	1.437114	-0.411826	-0.209598
C22	C	1.443526	-0.265456	-0.209400
C23	C	1.770161	0.111457	-0.416328
C24	C	1.914119	0.109650	-0.450194
C25	C	1.525855	0.360116	-0.358868
C26	C	1.529703	0.500916	-0.359773
N27	N	1.474601	0.187702	0.006827
N28	N	1.591804	0.067925	-0.728017
C29	C	1.546205	0.114514	0.057765
C30	C	1.520190	0.141123	0.221051
H31	H	0.886917	0.146502	-0.225541
H32	H	1.179480	0.109143	-0.495681
H33	H	1.080392	0.163737	-0.153423
C34	C	1.367070	0.297539	0.109629
C35	C	1.306030	0.359882	0.030995
C36	C	1.206952	0.461060	0.125647
H37	H	1.405024	0.358359	0.156445
H38	H	1.303294	0.263053	0.180350
H39	H	1.369795	0.394369	-0.039701
H40	H	1.268049	0.299098	-0.015818
H41	H	1.143176	0.426574	0.196368
H42	H	1.244917	0.521869	0.172458
H43	H	1.165516	0.503364	0.072310
C44	C	1.698882	-0.042225	0.169041
C45	C	1.642129	-0.131391	0.100543
C46	C	1.740650	-0.232974	0.005784
H47	H	1.740322	-0.084796	0.222180
H48	H	1.762764	-0.008073	0.098065
H49	H	1.578270	-0.165541	0.171509
H50	H	1.600697	-0.088859	0.047377
H51	H	1.804532	-0.198822	-0.065193
H52	H	1.782084	-0.275534	0.058934
H53	H	1.702159	-0.293479	-0.040714
C54	C	1.010182	0.085949	-0.606881
C55	C	1.138663	0.088760	-0.610431
C56	C	1.227189	0.066914	-0.754748
H57	H	0.987479	0.151825	-0.652516
H58	H	1.005796	0.003327	-0.656732
H59	H	1.143044	0.171370	-0.560600
H60	H	1.161407	0.022885	-0.564826
H61	H	1.222804	-0.015708	-0.804599
H62	H	1.204474	0.132793	-0.800371
H63	H	1.314375	0.068806	-0.757176
H64	H	1.718984	-0.278736	-0.311384
H65	H	1.713243	-0.496316	-0.309473
H66	H	1.743649	-0.529248	-0.502011
C67	C	1.570202	-0.533682	-0.628262
C68	C	1.625259	-0.448479	-0.718469
C69	C	1.705770	-0.520132	-0.856455
H70	H	1.518790	-0.583160	-0.668149
H71	H	1.638902	-0.590596	-0.620784
H72	H	1.556569	-0.391588	-0.725952
H73	H	1.676694	-0.398999	-0.678629
H74	H	1.774470	-0.577046	-0.848978
H75	H	1.654348	-0.569607	-0.896328
H76	H	1.743146	-0.462333	-0.917674
H77	H	1.750135	-0.311182	-0.504701
C78	C	1.343307	-0.482136	-0.453615
C79	C	1.262156	-0.366023	-0.439214
C80	C	1.133630	-0.390195	-0.416346
H81	H	1.310036	-0.515760	-0.367665
H82	H	1.344440	-0.543663	-0.533845
H83	H	1.261018	-0.304518	-0.358992
H84	H	1.295385	-0.332382	-0.525151
H85	H	1.134763	-0.451722	-0.496576
H86	H	1.100373	-0.423821	-0.330397
H87	H	1.078557	-0.311421	-0.406585
C88	C	1.474644	-0.448384	-0.087267
C89	C	1.390352	-0.368937	0.044678
C90	C	1.424890	-0.402592	0.157390
H91	H	1.563303	-0.436637	-0.103947
H92	H	1.466567	-0.536856	-0.083618
H93	H	1.398441	-0.280486	0.041028
H94	H	1.301688	-0.380672	0.061405
H95	H	1.416814	-0.491065	0.161040
H96	H	1.513551	-0.390845	0.140696
H97	H	1.367697	-0.348702	0.246929
C98	C	1.304447	-0.192890	-0.166516
C99	C	1.299043	-0.127991	-0.276118
C100	C	1.170938	-0.061142	-0.236680
H101	H	1.281730	-0.131433	-0.078522
H102	H	1.243927	-0.253037	-0.153436
H103	H	1.359542	-0.067850	-0.289181
H104	H	1.321734	-0.189418	-0.364122
H105	H	1.110419	-0.121289	-0.223599
H106	H	1.148233	0.000308	-0.148684
H107	H	1.167252	-0.017110	-0.311043
H108	H	1.382803	-0.258579	-0.459672
H109	H	1.552084	-0.296611	-0.591127
H110	H	1.330991	-0.429715	-0.183766
H111	H	1.480212	-0.222646	-0.122137
H112	H	1.439617	0.223483	0.298321
H113	H	1.626763	0.032151	-0.019505
