data_functionalizedCrystal
_audit_creation_method	'MofGen! by Chris Wilmer'
_symmetry_space_group_name_H-M	'P1'
_symmetry_Int_Tables_number	1
_symmetry_cell_setting	triclinic
loop_
_symmetry_equiv_pos_as_xyz
  x,y,z
_cell_length_a	16.992694
_cell_length_b	15.944551
_cell_length_c	16.053802
_cell_angle_alpha	92.564789
_cell_angle_beta	87.249047
_cell_angle_gamma	87.083481
loop_
_atom_site_label
_atom_site_type_symbol
_atom_site_fract_x
_atom_site_fract_y
_atom_site_fract_z
O1	O	1.043704	0.174798	-0.069327
O2	O	0.815419	0.172843	-0.069352
O3	O	0.935795	0.051964	-0.069332
O4	O	0.923328	0.295677	-0.069348
O5	O	0.929169	0.058588	0.069526
O6	O	0.808793	0.179467	0.069506
O7	O	1.037078	0.181422	0.069530
Zn8	Zn	0.921884	0.181497	0.091565
Zn9	Zn	0.930613	0.172769	-0.091386
O10	O	0.916702	0.302301	0.069510
C11	C	0.782894	0.173641	0.000074
C12	C	0.695850	0.166141	0.000065
C13	C	0.645613	0.238506	0.000061
C14	C	0.563826	0.231454	0.000073
C15	C	0.532276	0.152037	0.000083
C16	C	0.582519	0.079667	0.000089
C17	C	0.664305	0.086719	0.000083
C18	C	0.288676	0.122807	0.000107
C19	C	0.206884	0.115759	0.000111
C20	C	0.188196	0.267548	0.000095
C21	C	0.269984	0.274593	0.000084
C22	C	0.320220	0.202223	0.000095
N23	N	0.448677	0.144827	0.000092
N24	N	0.403818	0.209434	0.000092
C25	C	0.931964	0.023948	0.000097
C26	C	0.930413	-0.069402	0.000098
C27	C	0.852090	-0.289513	0.000078
C28	C	0.885194	-0.344825	0.068547
C29	C	0.927606	-0.240317	0.000091
C30	C	0.891744	-0.351338	-0.068356
C31	C	0.924889	-0.405412	0.000081
C32	C	0.960728	-0.294396	0.068617
C33	C	0.967271	-0.300907	-0.068348
C34	C	1.000429	-0.356196	0.000138
C35	C	0.929169	-0.145209	0.000098
C36	C	0.923332	-0.500518	0.000080
C37	C	1.069603	0.180624	0.000103
C38	C	1.156648	0.188124	0.000106
C39	C	0.920533	0.330318	0.000079
C40	C	0.922085	0.423667	0.000073
N41	N	0.915931	0.187453	0.216424
N42	N	0.936572	0.166806	-0.216246
C43	C	0.967170	0.136040	0.260127
C44	C	0.963014	0.140215	0.347533
C45	C	0.907622	0.195808	0.391235
C46	C	0.856378	0.247223	0.347526
C47	C	0.860531	0.243043	0.260121
C48	C	0.889481	0.214042	0.652641
C49	C	0.885333	0.218220	0.740052
C50	C	0.991968	0.111209	0.740053
C51	C	0.996120	0.107038	0.652646
C52	C	0.944873	0.158450	0.608945
N53	N	0.903374	0.200078	0.480578
N54	N	0.949118	0.154175	0.519604
H55	H	0.556825	0.015004	0.000110
H56	H	1.001946	-0.281397	-0.126229
N57	N	1.026901	0.076069	0.212985
H58	H	1.063342	0.108778	0.176706
H59	H	1.058674	0.044137	0.253982
H60	H	0.862556	-0.376319	-0.126245
N61	N	0.718492	0.008670	0.000094
H62	H	0.686098	-0.042711	0.000101
H63	H	0.755284	0.005830	-0.051382
N64	N	0.509673	0.309534	0.000137
H65	H	0.522256	0.341519	-0.051322
H66	H	0.453082	0.292995	0.000202
N67	N	1.055872	0.047084	0.605515
H68	H	1.050733	0.052244	0.543514
H69	H	1.110762	0.061302	0.620792
N70	N	0.805265	0.298501	0.212988
H71	H	0.836947	0.335988	0.176710
H72	H	0.772283	0.262257	0.176786
N73	N	0.825583	0.278174	0.787198
H74	H	0.853825	0.319130	0.823448
H75	H	0.793760	0.310053	0.746205
N76	N	0.134011	0.345599	0.000113
H77	H	0.166408	0.396979	0.000111
H78	H	0.102110	0.343536	-0.051356
N79	N	0.172845	0.030103	0.000138
H80	H	0.141777	0.021334	-0.051334
H81	H	0.217115	-0.014625	0.000180
N82	N	0.304012	0.360249	0.000057
H83	H	0.259776	0.405023	0.000053
H84	H	0.335095	0.368948	0.051526
N85	N	1.047239	0.055760	0.787186
H86	H	1.036205	0.066841	0.849188
H87	H	1.038906	-0.005172	0.771920
H88	H	1.004736	0.098349	0.383115
H89	H	0.850491	-0.364314	0.126426
H90	H	0.811273	0.292485	0.383113
N91	N	0.834206	0.269486	0.605513
H92	H	0.798488	0.305337	0.646463
H93	H	0.865938	0.306923	0.569232
H94	H	0.329568	0.063878	0.000117
H95	H	0.789404	-0.260406	0.000139
H96	H	0.989876	-0.269501	0.126566
H97	H	0.671294	0.303176	0.000052
H98	H	1.063164	-0.385145	0.000184
