data_functionalizedCrystal
_audit_creation_method	'MofGen! by Chris Wilmer'
_symmetry_space_group_name_H-M	'P1'
_symmetry_Int_Tables_number	1
_symmetry_cell_setting	triclinic
loop_
_symmetry_equiv_pos_as_xyz
  x,y,z
_cell_length_a	11.169417
_cell_length_b	29.839131
_cell_length_c	11.169409
_cell_angle_alpha	89.959881
_cell_angle_beta	89.980176
_cell_angle_gamma	90.042299
loop_
_atom_site_label
_atom_site_type_symbol
_atom_site_fract_x
_atom_site_fract_y
_atom_site_fract_z
Zn1	Zn	1.834703	-0.178806	-0.678478
Zn2	Zn	1.834484	-0.253948	-0.477767
Zn3	Zn	1.633989	-0.178834	-0.477812
Zn4	Zn	1.633888	-0.253911	-0.678412
O5	O	1.734266	-0.216375	-0.578117
O6	O	2.002624	-0.188778	-0.651862
O7	O	1.807838	-0.244011	-0.309823
O8	O	1.660748	-0.115963	-0.504477
O9	O	2.002462	-0.243984	-0.504401
O10	O	1.808212	-0.115943	-0.651905
O11	O	1.660536	-0.188825	-0.309856
O12	O	1.466026	-0.188789	-0.504413
O13	O	1.660576	-0.243922	-0.846371
O14	O	1.465951	-0.243948	-0.651794
O15	O	1.808114	-0.188742	-0.846419
O16	O	1.807740	-0.316810	-0.504337
O17	O	1.660363	-0.316783	-0.651750
C18	C	1.422441	-0.216368	-0.578102
C19	C	1.289041	-0.216376	-0.578124
C20	C	1.734049	-0.333097	-0.578058
C21	C	1.734066	-0.383032	-0.578073
C22	C	1.811145	-0.692677	-0.501472
C23	C	1.811293	-0.880350	-0.501518
O24	O	1.876656	-0.904616	-0.436344
N25	N	1.734515	-0.903817	-0.578208
C26	C	1.657700	-0.880363	-0.654897
O27	O	1.592407	-0.904630	-0.720136
C28	C	1.657559	-0.692691	-0.654856
C29	C	1.734333	-0.669226	-0.578152
C30	C	1.887914	-0.669212	-0.424776
C31	C	1.887871	-0.622296	-0.424760
C32	C	1.811060	-0.598846	-0.501441
C33	C	1.734291	-0.622311	-0.578137
C34	C	1.580751	-0.669238	-0.731550
C35	C	1.580724	-0.622317	-0.731535
C36	C	1.657499	-0.598852	-0.654831
C37	C	1.657437	-0.551945	-0.654802
N38	N	1.734215	-0.528477	-0.578112
C39	C	1.811026	-0.551928	-0.501432
C40	C	1.657778	-0.978894	-0.654912
C41	C	1.657811	-1.025811	-0.654921
C42	C	1.811406	-1.025795	-0.501543
C43	C	1.811366	-0.978876	-0.501529
C44	C	1.734556	-0.955426	-0.578222
C45	C	1.810931	-0.453402	-0.501404
C46	C	1.810878	-0.406482	-0.501392
C47	C	1.657288	-0.406503	-0.654773
C48	C	1.657336	-0.453419	-0.654782
C49	C	1.734167	-0.476867	-0.578093
O50	O	1.592118	-0.527650	-0.719952
O51	O	1.876328	-0.527653	-0.436221
C52	C	1.811187	-0.739592	-0.501487
C53	C	1.734418	-0.763057	-0.578183
C54	C	1.657606	-0.739606	-0.654864
C55	C	1.734451	-0.809975	-0.578192
C56	C	1.811263	-0.833425	-0.501512
C57	C	1.888041	-0.809958	-0.424822
C58	C	1.887999	-0.763043	-0.424807
C59	C	1.580828	-0.763074	-0.731553
C60	C	1.580876	-0.809989	-0.731562
C61	C	1.657688	-0.833440	-0.654881
C62	C	2.047308	-0.216382	-0.578134
C63	C	2.180708	-0.216385	-0.578140
C64	C	1.734358	-0.216325	-0.891160
C65	C	1.734397	-0.216304	-1.024560
C66	C	1.734516	-0.099196	-0.578203
C67	C	1.734623	-0.049262	-0.578240
C68	C	1.734243	-0.216392	-0.266293
C69	C	1.734436	-0.216287	-0.132893
H70	H	1.873496	-0.472488	-0.438960
C71	C	2.039710	-0.627007	-0.273178
C72	C	1.972283	-0.596508	-0.340462
H73	H	2.091834	-0.611088	-0.221143
H74	H	1.987456	-0.645337	-0.227226
H75	H	2.085586	-0.645276	-0.325537
H76	H	1.926401	-0.578241	-0.288103
H77	H	2.024544	-0.578170	-0.386418
C78	C	1.496281	-0.926191	-0.671445
C79	C	1.573334	-0.953119	-0.739210
H80	H	1.444153	-0.910279	-0.723487
H81	H	1.450425	-0.944527	-0.619122
H82	H	1.542012	-0.905499	-0.625782
H83	H	1.527603	-0.973813	-0.784866
H84	H	1.619195	-0.934781	-0.791554
H85	H	1.950580	-0.829060	-0.362382
H86	H	1.518346	-0.829090	-0.794022
H87	H	1.594823	-0.472525	-0.717243
C88	C	1.429001	-0.767812	-0.883140
C89	C	1.496378	-0.737301	-0.815837
H90	H	1.376853	-0.751902	-0.935166
H91	H	1.481286	-0.786073	-0.929103
H92	H	1.383155	-0.786149	-0.830792
H93	H	1.542231	-0.718966	-0.868185
H94	H	1.444087	-0.719032	-0.769871
C95	C	1.828095	-0.926157	-0.340081
C96	C	1.895763	-0.953086	-0.417220
H97	H	1.880204	-0.910240	-0.288028
H98	H	1.782364	-0.905474	-0.385747
H99	H	1.775839	-0.944497	-0.294139
H100	H	1.948012	-0.934745	-0.463169
H101	H	1.941514	-0.973771	-0.371549
H102	H	1.950470	-0.688300	-0.362333
C103	C	1.640527	-0.353696	-0.816170
C104	C	1.572869	-0.380719	-0.739065
H105	H	1.588414	-0.337779	-0.868217
H106	H	1.686236	-0.333012	-0.770479
H107	H	1.692803	-0.371971	-0.862121
H108	H	1.520598	-0.362443	-0.693108
H109	H	1.527139	-0.401405	-0.784761
H110	H	1.873397	-0.387379	-0.438927
H111	H	1.873949	-1.044896	-0.439107
H112	H	1.518227	-0.688335	-0.794004
C113	C	1.496384	-1.078626	-0.671481
C114	C	1.573409	-1.051601	-0.739226
H115	H	1.444276	-1.094544	-0.723536
H116	H	1.542129	-1.099309	-0.625830
H117	H	1.450494	-1.060351	-0.619148
H118	H	1.619305	-1.069876	-0.791553
H119	H	1.527658	-1.030916	-0.784898
H120	H	1.518178	-0.603226	-0.793991
H121	H	1.950516	-0.743941	-0.362348
