data_functionalizedCrystal
_audit_creation_method	'MofGen! by Chris Wilmer'
_symmetry_space_group_name_H-M	'P1'
_symmetry_Int_Tables_number	1
_symmetry_cell_setting	triclinic
loop_
_symmetry_equiv_pos_as_xyz
  x,y,z
_cell_length_a	6.817900
_cell_length_b	11.102288
_cell_length_c	19.492380
_cell_angle_alpha	85.681703
_cell_angle_beta	77.746150
_cell_angle_gamma	108.605689
loop_
_atom_site_label
_atom_site_type_symbol
_atom_site_fract_x
_atom_site_fract_y
_atom_site_fract_z
V1	V	-4.039230	-0.177161	0.218999
O2	O	-3.999639	0.007153	0.214830
O3	O	-4.016502	-0.349972	0.217501
O4	O	-3.984479	-0.175032	0.314512
O5	O	-4.031884	-0.168997	0.117148
V6	V	-4.520355	-0.155044	0.206817
O7	O	-4.305750	-0.225675	0.245722
O8	O	-4.704032	-0.106529	0.180094
O9	O	-4.319877	0.017767	0.208314
O10	O	-4.677343	-0.339358	0.210986
O11	O	-4.645098	-0.163207	0.308668
O12	O	-4.351900	-0.157172	0.111304
C13	C	-3.867953	-0.392081	0.214047
C14	C	-3.930615	-0.533360	0.213459
C15	C	-4.142904	-0.606228	0.216687
C16	C	-4.201772	-0.738976	0.216140
C17	C	-3.836039	-0.725976	0.209134
C18	C	-3.777177	-0.593231	0.209686
C19	C	-3.827104	-0.168926	0.337792
C20	C	-3.863792	-0.168330	0.415875
C21	C	-4.063858	-0.174428	0.456132
C22	C	-4.098331	-0.173868	0.529499
C23	C	-3.932738	-0.167234	0.562608
C24	C	-3.732640	-0.161127	0.522340
C25	C	-3.698167	-0.161675	0.448974
N26	N	-3.886277	-0.234350	0.681397
N27	N	-3.919039	-0.233833	0.751092
C28	C	-4.036592	-0.165580	0.783656
N29	N	-4.120183	-0.097881	0.743893
N30	N	-4.087427	-0.098405	0.674192
C31	C	-3.970098	-0.166638	0.642161
C32	C	-4.274049	-0.171070	0.903466
C33	C	-4.308511	-0.170501	0.976833
C34	C	-3.942820	-0.157773	0.969674
C35	C	-3.908358	-0.158329	0.896307
C36	C	-4.073983	-0.164983	0.863208
C37	C	-4.131768	0.059870	0.211767
C38	C	-4.048345	0.201148	0.212360
C39	C	-4.179589	-0.163280	1.088020
C40	C	-4.142913	-0.163865	1.009937
H41	H	-4.198724	-0.179842	0.429187
C42	C	-3.543631	-0.513071	0.206133
N43	N	-3.367731	-0.452695	0.203458
H44	H	-3.597813	-0.155721	0.549302
H45	H	-4.261258	-0.178841	0.562283
H46	H	-4.408909	-0.176484	0.876514
C47	C	-3.478077	-0.154980	0.404691
N48	N	-3.312305	-0.149944	0.371336
C49	C	-4.528603	-0.177196	1.021115
N50	N	-4.694380	-0.182238	1.054469
H51	H	-4.267846	-0.557485	0.219758
C52	C	-4.435301	-0.819124	0.219688
N53	N	-4.611203	-0.879491	0.222361
C54	C	-3.688279	-0.151645	0.852025
N55	N	-3.522507	-0.146612	0.818671
H56	H	-3.807985	-0.152360	0.996630
H57	H	-3.711123	-0.774739	0.206060
