data_functionalizedCrystal
_audit_creation_method	'MofGen! by Chris Wilmer'
_symmetry_space_group_name_H-M	'P1'
_symmetry_Int_Tables_number	1
_symmetry_cell_setting	triclinic
loop_
_symmetry_equiv_pos_as_xyz
  x,y,z
_cell_length_a	15.538191
_cell_length_b	17.699083
_cell_length_c	16.776229
_cell_angle_alpha	89.999079
_cell_angle_beta	90.001809
_cell_angle_gamma	114.722446
loop_
_atom_site_label
_atom_site_type_symbol
_atom_site_fract_x
_atom_site_fract_y
_atom_site_fract_z
O1	O	1.250475	0.245986	0.066265
O2	O	0.976016	0.158539	0.066276
O3	O	1.121000	0.314570	0.066251
O4	O	1.105492	0.089954	0.066290
O5	O	1.120987	0.314546	-0.066326
O6	O	0.976003	0.158515	-0.066301
O7	O	1.250462	0.245962	-0.066312
Zn8	Zn	1.113230	0.202235	-0.087355
Zn9	Zn	1.113248	0.202266	0.087320
O10	O	1.105478	0.089930	-0.066286
C11	C	0.940893	0.149378	-0.000011
C12	C	0.836257	0.122125	-0.000008
C13	C	1.120438	0.342603	-0.000041
C14	C	1.118771	0.426166	-0.000051
N15	N	1.113225	0.202215	-0.206567
C16	C	0.549086	0.392872	-0.000043
C17	C	0.450762	0.367245	-0.000038
C18	C	0.427989	0.223099	-0.000013
C19	C	0.526313	0.248714	-0.000022
C20	C	0.586855	0.333602	-0.000036
C21	C	0.564082	0.189444	-0.000015
C22	C	0.662398	0.215057	-0.000020
C23	C	0.722945	0.299940	-0.000031
C24	C	0.685171	0.359215	-0.000041
C25	C	0.503539	0.104556	0.000005
C26	C	0.541308	0.045286	0.000012
C27	C	0.639625	0.070899	0.000002
C28	C	0.700173	0.155782	-0.000010
C29	C	0.677400	0.011624	0.000011
C30	C	0.775716	0.037238	0.000006
C31	C	0.798489	0.181396	-0.000015
C32	C	1.285585	0.255123	-0.000023
C33	C	1.390221	0.282375	-0.000021
C34	C	1.203873	0.498041	-0.000060
C35	C	1.202301	0.576554	-0.000062
C36	C	1.115625	0.583192	-0.000060
C37	C	1.030517	0.511309	-0.000048
C38	C	1.032090	0.432797	-0.000040
C39	C	1.024171	0.827938	-0.000077
C40	C	1.022604	0.906458	-0.000087
C41	C	1.194382	0.971696	-0.000099
C42	C	1.195955	0.893184	-0.000091
C43	C	1.110847	0.821308	-0.000075
C44	C	1.112552	0.736175	-0.000072
C45	C	1.113919	0.668323	-0.000069
C46	C	1.106041	1.061897	-0.000021
C47	C	1.107708	0.978335	-0.000091
C48	C	1.056199	0.232542	-0.751745
C49	C	1.056197	0.232535	-0.668293
C50	C	1.113252	0.202274	-0.626566
C51	C	1.170320	0.172024	-0.668296
C52	C	1.170327	0.172037	-0.751747
C53	C	1.170295	0.171973	-0.331749
C54	C	1.170282	0.171960	-0.248292
C55	C	1.056166	0.232471	-0.248295
C56	C	1.056173	0.232484	-0.331745
C57	C	1.113244	0.202239	-0.373468
C58	C	1.113247	0.202249	-0.463956
C59	C	1.113244	0.202258	-0.536079
N60	N	1.113261	0.202293	0.206531
H61	H	0.803000	0.320793	-0.000025
N62	N	1.231867	0.139393	-0.623296
H63	H	1.223205	0.143973	-0.564098
H64	H	1.213120	0.079206	-0.637891
N65	N	0.994668	0.265189	-0.796748
H66	H	0.948455	0.219571	-0.831379
H67	H	0.958586	0.284364	-0.757600
N68	N	0.612105	-0.079930	0.000032
H69	H	0.570817	-0.093760	0.049184
H70	H	0.570856	-0.093722	-0.049141
N71	N	0.932378	0.750425	-0.000063
H72	H	0.946519	0.699677	-0.000052
H73	H	0.894609	0.749919	0.049087
N74	N	1.294091	0.654075	-0.000082
H75	H	1.279946	0.704820	-0.000082
H76	H	1.331883	0.654602	0.049062
N77	N	0.994619	0.265108	-0.203296
H78	H	0.948406	0.219480	-0.168675
H79	H	1.035809	0.313441	-0.168716
N80	N	0.750474	0.450774	-0.000063
H81	H	0.791781	0.464624	0.049080
H82	H	0.791703	0.464536	-0.049245
N83	N	0.816453	-0.026691	0.000011
H84	H	0.856733	-0.019282	-0.049136
H85	H	0.856694	-0.019236	0.049189
N86	N	1.231828	0.139328	-0.203281
H87	H	1.213118	0.079128	-0.217810
H88	H	1.300421	0.173142	-0.217810
H89	H	0.598383	0.461996	-0.000059
N90	N	1.231893	0.139402	-0.376744
H91	H	1.268046	0.120243	-0.337645
H92	H	1.190759	0.091114	-0.411398
H93	H	0.952019	0.911855	-0.000087
N94	N	0.410024	0.431177	-0.000040
H95	H	0.463298	0.488837	-0.000049
H96	H	0.369721	0.423685	-0.049186
H97	H	0.959944	0.516719	-0.000041
N98	N	1.286180	1.049222	-0.000101
H99	H	1.341325	1.033102	-0.000105
H100	H	1.289264	1.083215	-0.049251
H101	H	1.009735	0.257170	-0.634324
N102	N	0.863793	0.272954	-0.000041
H103	H	0.851673	0.300024	0.049098
H104	H	0.931778	0.280112	-0.000073
N105	N	0.362689	0.131545	0.000007
H106	H	0.294675	0.124312	0.000010
H107	H	0.374895	0.104541	-0.049139
H108	H	1.009709	0.257123	-0.365715
H109	H	1.274454	0.492646	-0.000067
H110	H	1.216792	0.147406	-0.785717
H111	H	1.266535	0.887787	-0.000097
H112	H	0.423484	0.083705	0.000012
N113	N	0.940307	0.355266	-0.000047
H114	H	0.937133	0.321239	0.049101
H115	H	0.885206	0.371442	-0.000082
N116	N	0.476008	-0.046268	0.000032
H117	H	0.407993	-0.053502	0.000035
H118	H	0.488214	-0.073272	-0.049114
