data_functionalizedCrystal
_audit_creation_method	'MofGen! by Chris Wilmer'
_symmetry_space_group_name_H-M	'P1'
_symmetry_Int_Tables_number	1
_symmetry_cell_setting	triclinic
loop_
_symmetry_equiv_pos_as_xyz
  x,y,z
_cell_length_a	27.732064
_cell_length_b	27.732048
_cell_length_c	10.268362
_cell_angle_alpha	89.989776
_cell_angle_beta	90.003047
_cell_angle_gamma	82.646040
loop_
_atom_site_label
_atom_site_type_symbol
_atom_site_fract_x
_atom_site_fract_y
_atom_site_fract_z
O1	O	0.640922	0.057556	-0.108082
O2	O	1.140922	0.557556	0.391918
O3	O	0.500130	0.066293	-0.108137
O4	O	1.000130	0.566293	0.391863
O5	O	0.574898	-0.008472	-0.108083
O6	O	1.074898	0.491528	0.391917
O7	O	0.566153	0.132321	-0.108136
O8	O	1.066153	0.632321	0.391864
O9	O	0.574892	-0.008475	0.108518
O10	O	1.074892	0.491525	0.608518
O11	O	0.500123	0.066290	0.108463
O12	O	1.000123	0.566290	0.608463
O13	O	0.640915	0.057553	0.108519
O14	O	1.140915	0.557553	0.608519
Cu15	Cu	0.570519	0.061921	0.128268
Cu16	Cu	1.070519	0.561921	0.628268
Cu17	Cu	0.570526	0.061924	-0.127887
Cu18	Cu	1.070526	0.561924	0.372113
O19	O	0.566147	0.132318	0.108465
O20	O	1.066147	0.632318	0.608465
C21	C	0.482120	0.066106	0.000156
C22	C	0.982120	0.566106	0.500156
C23	C	0.428465	0.065551	0.000136
C24	C	0.928465	0.565551	0.500136
C25	C	0.051392	0.017583	0.000228
C26	C	0.551392	0.517583	0.500228
C27	C	0.253053	0.019630	0.000194
C28	C	0.753053	0.519630	0.500194
O29	O	0.284305	-0.017591	0.000256
O30	O	0.784305	0.482409	0.500256
N31	N	0.272180	0.063964	0.000171
N32	N	0.772180	0.563964	0.500171
C33	C	0.240889	0.107790	0.000166
C34	C	0.740889	0.607790	0.500166
O35	O	0.261785	0.145546	0.000159
O36	O	0.761785	0.645546	0.500159
C37	C	0.039230	0.105743	0.000210
C38	C	0.539230	0.605743	0.500210
C39	C	0.020105	0.061406	0.000219
C40	C	0.520105	0.561406	0.500219
C41	C	0.032267	-0.026750	0.000239
C42	C	0.532267	0.473250	0.500239
C43	C	-0.018145	-0.027261	0.000241
C44	C	0.481855	0.472739	0.500241
C45	C	-0.049432	0.016561	0.000232
C46	C	0.450568	0.516561	0.500232
C47	C	-0.030307	0.060895	0.000221
C48	C	0.469693	0.560895	0.500221
C49	C	0.007940	0.149568	0.000214
C50	C	0.507940	0.649568	0.500214
C51	C	-0.042478	0.149053	0.000228
C52	C	0.457522	0.649053	0.500228
C53	C	-0.061602	0.104716	0.000238
C54	C	0.438398	0.604716	0.500238
C55	C	-0.112006	0.104206	0.000213
C56	C	0.387994	0.604206	0.500213
N57	N	-0.131134	0.059872	0.000236
N58	N	0.368866	0.559872	0.500236
C59	C	-0.099846	0.016049	0.000245
C60	C	0.400154	0.516049	0.500245
C61	C	0.346763	0.108861	0.000140
C62	C	0.846763	0.608861	0.500140
C63	C	0.397178	0.109373	0.000127
C64	C	0.897178	0.609373	0.500127
C65	C	0.409338	0.021213	0.000157
C66	C	0.909338	0.521213	0.500157
C67	C	0.358923	0.020701	0.000161
C68	C	0.858923	0.520701	0.500161
C69	C	0.327636	0.064527	0.000163
C70	C	0.827636	0.564527	0.500163
C71	C	-0.205716	0.014979	0.000247
C72	C	0.294284	0.514979	0.500247
C73	C	-0.256133	0.014472	0.000243
C74	C	0.243867	0.514472	0.500243
C75	C	-0.268289	0.102632	0.000220
C76	C	0.231711	0.602632	0.500220
C77	C	-0.217876	0.103140	0.000217
C78	C	0.282124	0.603140	0.500217
C79	C	-0.186590	0.059309	0.000235
C80	C	0.313410	0.559309	0.500235
O81	O	-0.143287	0.141407	0.000165
O82	O	0.356713	0.641407	0.500165
O83	O	-0.120752	-0.021701	0.000280
O84	O	0.379248	0.478299	0.500280
C85	C	0.101805	0.018094	0.000227
C86	C	0.601805	0.518094	0.500227
C87	C	0.120930	0.062428	0.000216
C88	C	0.620930	0.562428	0.500216
C89	C	0.089642	0.106250	0.000207
C90	C	0.589642	0.606250	0.500207
C91	C	0.171344	0.062940	0.000203
C92	C	0.671344	0.562940	0.500203
C93	C	0.202631	0.019117	0.000212
C94	C	0.702631	0.519117	0.500212
C95	C	0.183504	-0.025217	0.000234
C96	C	0.683504	0.474783	0.500234
C97	C	0.133092	-0.025728	0.000236
C98	C	0.633092	0.474272	0.500236
C99	C	0.108770	0.150585	0.000184
C100	C	0.608770	0.650585	0.500184
C101	C	0.159183	0.151092	0.000181
C102	C	0.659183	0.651092	0.500181
C103	C	0.190470	0.107270	0.000191
C104	C	0.690470	0.607270	0.500191
C105	C	0.574712	-0.026481	0.000221
C106	C	1.074712	0.473519	0.500221
C107	C	0.574159	-0.080136	0.000231
C108	C	1.074159	0.419864	0.500231
C109	C	0.614862	-0.418948	0.000181
C110	C	1.114862	0.081052	0.500181
C111	C	0.612811	-0.620608	0.000162
C112	C	1.112811	-0.120608	0.500162
O113	O	0.650032	-0.651862	0.000119
O114	O	1.150032	-0.151862	0.500119
N115	N	0.568476	-0.639735	0.000145
N116	N	1.068476	-0.139735	0.500145
C117	C	0.524651	-0.608442	0.000125
C118	C	1.024651	-0.108442	0.500125
O119	O	0.486895	-0.629338	0.000098
O120	O	0.986895	-0.129338	0.500098
C121	C	0.526703	-0.406784	0.000135
C122	C	1.026703	0.093216	0.500135
C123	C	0.571040	-0.387660	0.000164
C124	C	1.071040	0.112340	0.500164
C125	C	0.659196	-0.399824	0.000209
C126	C	1.159196	0.100176	0.500209
C127	C	0.659709	-0.349412	0.000220
C128	C	1.159709	0.150588	0.500220
C129	C	0.615887	-0.318124	0.000204
C130	C	1.115887	0.181876	0.500204
C131	C	0.571553	-0.337248	0.000176
C132	C	1.071553	0.162752	0.500176
C133	C	0.482878	-0.375493	0.000105
C134	C	0.982878	0.124507	0.500105
C135	C	0.483395	-0.325075	0.000105
C136	C	0.983395	0.174925	0.500105
C137	C	0.527733	-0.305952	0.000134
C138	C	1.027733	0.194048	0.500134
C139	C	0.528243	-0.255548	0.000172
C140	C	1.028243	0.244452	0.500172
N141	N	0.572578	-0.236422	0.000188
N142	N	1.072578	0.263578	0.500188
C143	C	0.616400	-0.267710	0.000204
C144	C	1.116400	0.232290	0.500204
C145	C	0.523577	-0.714317	0.000123
C146	C	1.023577	-0.214317	0.500123
C147	C	0.523064	-0.764731	0.000123
C148	C	1.023064	-0.264731	0.500123
C149	C	0.611225	-0.776893	0.000157
C150	C	1.111225	-0.276893	0.500157
C151	C	0.611737	-0.726478	0.000166
C152	C	1.111737	-0.226478	0.500166
C153	C	0.567912	-0.695190	0.000139
C154	C	1.067912	-0.195190	0.500139
C155	C	0.617472	-0.161841	0.000230
C156	C	1.117472	0.338159	0.500230
C157	C	0.617981	-0.111424	0.000247
C158	C	1.117981	0.388576	0.500247
C159	C	0.529821	-0.099266	0.000207
C160	C	1.029821	0.400734	0.500207
C161	C	0.529312	-0.149679	0.000196
C162	C	1.029312	0.350321	0.500196
C163	C	0.573142	-0.180965	0.000204
C164	C	1.073142	0.319035	0.500204
O165	O	0.491043	-0.224267	0.000199
O166	O	0.991043	0.275733	0.500199
O167	O	0.654151	-0.246805	0.000203
O168	O	1.154151	0.253195	0.500203
C169	C	0.614350	-0.469360	0.000169
C170	C	1.114350	0.030640	0.500169
C171	C	0.570016	-0.488484	0.000141
C172	C	1.070016	0.011516	0.500141
C173	C	0.526194	-0.457196	0.000124
C174	C	1.026194	0.042804	0.500124
C175	C	0.569503	-0.538899	0.000141
C176	C	1.069503	-0.038899	0.500141
C177	C	0.613325	-0.570187	0.000157
C178	C	1.113325	-0.070187	0.500157
C179	C	0.657660	-0.551060	0.000173
C180	C	1.157660	-0.051060	0.500173
C181	C	0.658172	-0.500648	0.000185
C182	C	1.158172	-0.000648	0.500185
C183	C	0.481859	-0.476323	0.000108
C184	C	0.981859	0.023677	0.500108
C185	C	0.481351	-0.526735	0.000098
C186	C	0.981351	-0.026735	0.500098
C187	C	0.525172	-0.558023	0.000114
C188	C	1.025172	-0.058023	0.500114
C189	C	0.658925	0.057739	0.000222
C190	C	1.158925	0.557739	0.500222
C191	C	0.712580	0.058295	0.000234
C192	C	1.212580	0.558295	0.500234
C193	C	0.566333	0.150326	0.000158
C194	C	1.066333	0.650326	0.500158
C195	C	0.566886	0.203981	0.000139
C196	C	1.066886	0.703981	0.500139
N197	N	0.570517	0.061918	0.308434
N198	N	1.070517	0.561918	0.808434
N199	N	0.570532	0.061923	-0.308053
N200	N	1.070532	0.561923	0.191947
C201	C	0.570524	0.061923	0.574105
C202	C	1.070524	0.561923	1.074105
C203	C	0.570518	0.061922	0.426267
C204	C	1.070518	0.561922	0.926267
H205	H	0.117526	-0.061832	0.000244
H206	H	0.617526	0.438168	0.500244
H207	H	0.646906	-0.802377	0.000170
H208	H	1.146906	-0.302377	0.500170
H209	H	-0.202304	0.139243	0.000208
H210	H	0.297696	0.639243	0.500208
Cl211	Cl	0.421214	0.165113	0.000088
Cl212	Cl	0.921214	0.665113	0.500088
Cl213	Cl	0.467323	-0.788765	0.000111
Cl214	Cl	0.967323	-0.288765	0.500111
Cl215	Cl	0.468477	-0.674990	0.000090
Cl216	Cl	0.968477	-0.174990	0.500090
Cl217	Cl	0.427136	-0.399521	0.000060
Cl218	Cl	0.927136	0.100479	0.500060
Cl219	Cl	0.222846	-0.080307	0.000242
Cl220	Cl	0.722846	0.419693	0.500242
H221	H	0.447706	-0.299603	0.000081
H222	H	0.947706	0.200397	0.500081
Cl223	Cl	0.307438	0.163962	0.000131
Cl224	Cl	0.807438	0.663962	0.500131
H225	H	0.023502	0.185672	0.000200
H226	H	0.523502	0.685672	0.500200
H227	H	0.434821	-0.014469	0.000160
H228	H	0.934821	0.485531	0.500160
H229	H	-0.271701	-0.021634	0.000247
H230	H	0.228299	0.478366	0.500247
Cl231	Cl	0.071592	-0.081849	0.000252
Cl232	Cl	0.571592	0.418151	0.500252
Cl233	Cl	0.473573	-0.173720	0.000184
Cl234	Cl	0.973573	0.326280	0.500184
H235	H	0.694276	-0.485083	0.000208
H236	H	1.194276	0.014917	0.500208
H237	H	-0.293772	0.138311	0.000206
H238	H	0.206228	0.638311	0.500206
Cl239	Cl	0.069444	0.205682	0.000166
Cl240	Cl	0.569444	0.705682	0.500166
Cl241	Cl	0.474733	-0.059923	0.000184
Cl242	Cl	0.974733	0.440077	0.500184
Cl243	Cl	0.712749	-0.590404	0.000199
Cl244	Cl	1.212749	-0.090404	0.500199
Cl245	Cl	0.183218	0.206836	0.000161
Cl246	Cl	0.683218	0.706836	0.500161
Cl247	Cl	0.425606	-0.550769	0.000067
Cl248	Cl	0.925606	-0.050769	0.500067
Cl249	Cl	0.673724	-0.087387	0.000282
Cl250	Cl	1.173724	0.412613	0.500282
H251	H	-0.180248	-0.020712	0.000261
H252	H	0.319752	0.479288	0.500261
Cl253	Cl	0.334886	-0.035039	0.000180
Cl254	Cl	0.834886	0.464961	0.500180
H255	H	-0.067950	0.184742	0.000236
H256	H	0.432050	0.684742	0.500236
H257	H	0.446173	-0.450852	0.000092
H258	H	0.946173	0.049148	0.500092
H259	H	-0.033711	-0.063365	0.000254
H260	H	0.466289	0.436635	0.500254
Cl261	Cl	0.672573	-0.201165	0.000242
Cl262	Cl	1.172573	0.298835	0.500242
H263	H	0.694884	-0.425295	0.000217
H264	H	1.194884	0.074705	0.500217
Cl265	Cl	0.667478	-0.702443	0.000201
Cl266	Cl	1.167478	-0.202443	0.500201
Cl267	Cl	0.715451	-0.325380	0.000220
Cl268	Cl	1.215451	0.174620	0.500220
