data_functionalizedCrystal
_audit_creation_method	'MofGen! by Chris Wilmer'
_symmetry_space_group_name_H-M	'P1'
_symmetry_Int_Tables_number	1
_symmetry_cell_setting	triclinic
loop_
_symmetry_equiv_pos_as_xyz
  x,y,z
_cell_length_a	19.121241
_cell_length_b	19.121063
_cell_length_c	18.215399
_cell_angle_alpha	87.590157
_cell_angle_beta	92.463275
_cell_angle_gamma	95.003121
loop_
_atom_site_label
_atom_site_type_symbol
_atom_site_fract_x
_atom_site_fract_y
_atom_site_fract_z
Zn1	Zn	1.063748	-0.234335	0.474205
Zn2	Zn	1.563748	0.265665	0.974205
Zn3	Zn	1.058635	-0.352008	0.356162
Zn4	Zn	1.558635	0.147992	0.856162
Zn5	Zn	0.946079	-0.239367	0.346108
Zn6	Zn	1.446079	0.260633	0.846108
Zn7	Zn	0.941024	-0.356975	0.474142
Zn8	Zn	1.441024	0.143025	0.974142
O9	O	1.002372	-0.295671	0.412654
O10	O	1.502372	0.204329	0.912654
O11	O	1.161536	-0.245761	0.462780
O12	O	1.661536	0.254239	0.962780
O13	O	1.043680	-0.337093	0.251844
O14	O	1.543680	0.162907	0.751844
O15	O	0.965944	-0.140234	0.358919
O16	O	1.465944	0.359766	0.858919
O17	O	1.157779	-0.332214	0.376054
O18	O	1.657779	0.167786	0.876054
O19	O	1.052395	-0.136537	0.453031
O20	O	1.552395	0.363463	0.953031
O21	O	0.960986	-0.254336	0.244458
O22	O	1.460986	0.245664	0.744458
O23	O	0.846943	-0.259152	0.358858
O24	O	1.346943	0.240848	0.858858
O25	O	0.957327	-0.340680	0.577135
O26	O	1.457327	0.159320	1.077135
O27	O	0.843228	-0.345558	0.452925
O28	O	1.343228	0.154442	0.952925
O29	O	1.047493	-0.250577	0.577181
O30	O	1.547493	0.249423	1.077181
O31	O	1.038778	-0.451133	0.375993
O32	O	1.538778	0.048867	0.875993
O33	O	0.952369	-0.454782	0.462673
O34	O	1.452369	0.045218	0.962673
C35	C	0.819555	-0.303441	0.404794
C36	C	1.319555	0.196559	0.904794
C37	C	0.741344	-0.306782	0.401450
C38	C	1.241344	0.193218	0.901450
C39	C	0.706554	-0.263411	0.445107
C40	C	1.206554	0.236589	0.945107
C41	C	0.633067	-0.266546	0.441958
C42	C	1.133067	0.233454	0.941958
C43	C	0.594371	-0.313057	0.395155
C44	C	1.094371	0.186943	0.895155
C45	C	0.629166	-0.356429	0.351493
C46	C	1.129166	0.143571	0.851493
C47	C	0.702652	-0.353290	0.354639
C48	C	1.202652	0.146710	0.854639
C49	C	0.372393	-0.324782	0.383392
C50	C	0.872393	0.175218	0.883392
C51	C	0.298902	-0.327919	0.380251
C52	C	0.798902	0.172081	0.880251
C53	C	0.302808	-0.238035	0.470715
C54	C	0.802808	0.261965	0.970715
C55	C	0.376295	-0.234902	0.473860
C56	C	0.876295	0.265098	0.973860
C57	C	0.411084	-0.278272	0.430195
C58	C	0.911084	0.221728	0.930195
C59	C	0.519255	-0.316265	0.391937
C60	C	1.019255	0.183735	0.891937
C61	C	0.486199	-0.275061	0.433410
C62	C	0.986199	0.224939	0.933410
C63	C	0.994489	-0.478488	0.420434
C64	C	1.494489	0.021512	0.920434
C65	C	0.991182	-0.556694	0.423790
C66	C	1.491182	-0.056694	0.923790
C67	C	1.034651	-0.591511	0.380278
C68	C	1.534651	-0.091511	0.880278
C69	C	1.031545	-0.664995	0.383438
C70	C	1.531545	-0.164995	0.883438
C71	C	0.984965	-0.703660	0.430108
C72	C	1.484965	-0.203660	0.930108
C73	C	0.941493	-0.668838	0.473625
C74	C	1.441493	-0.168838	0.973625
C75	C	0.944604	-0.595356	0.470468
C76	C	1.444604	-0.095356	0.970468
C77	C	0.973323	-0.925626	0.441900
C78	C	1.473323	-0.425626	0.941900
C79	C	0.970214	-0.999113	0.445052
C80	C	1.470214	-0.499113	0.945052
C81	C	1.060267	-0.995265	0.354866
C82	C	1.560267	-0.495265	0.854866
C83	C	1.063370	-0.921782	0.351709
C84	C	1.563370	-0.421782	0.851709
C85	C	1.019902	-0.886966	0.395229
C86	C	1.519902	-0.386966	0.895229
C87	C	0.981786	-0.778773	0.433338
C88	C	1.481786	-0.278773	0.933338
C89	C	1.023084	-0.811855	0.392003
C90	C	1.523084	-0.311855	0.892003
C91	C	1.185902	-0.287872	0.420545
C92	C	1.685902	0.212128	0.920545
C93	C	1.264112	-0.284549	0.423908
C94	C	1.764112	0.215451	0.923908
C95	C	1.002416	-0.295621	0.604607
C96	C	1.502416	0.204379	1.104607
C97	C	1.002436	-0.295600	0.686406
C98	C	1.502436	0.204400	1.186406
C99	C	1.010304	-0.112140	0.404861
C100	C	1.510304	0.387860	0.904861
C101	C	1.013684	-0.033930	0.401540
C102	C	1.513684	0.466070	0.901540
C103	C	1.002369	-0.295669	0.221448
C104	C	1.502369	0.204331	0.721448
C105	C	1.002495	-0.295486	0.139647
C106	C	1.502495	0.204514	0.639647
C107	C	1.049403	-0.248640	0.874624
C108	C	1.549403	0.251360	1.374624
C109	C	1.049412	-0.248619	0.951482
C110	C	1.549412	0.251381	1.451482
C111	C	0.955523	-0.342448	0.951423
C112	C	1.455523	0.157552	1.451423
C113	C	0.955511	-0.342465	0.874566
C114	C	1.455511	0.157535	1.374566
C115	C	1.002455	-0.295562	0.836169
C116	C	1.502455	0.204438	1.336169
C117	C	1.002476	-0.295524	0.989884
C118	C	1.502476	0.204476	1.489884
C119	C	1.002486	-0.295502	1.073217
C120	C	1.502486	0.204498	1.573217
C121	C	1.002444	-0.295583	0.752830
C122	C	1.502444	0.204417	1.252830
H123	H	0.604744	-0.231231	0.477510
H124	H	1.104744	0.268769	0.977510
Cl125	Cl	0.896482	-0.401453	0.826218
Cl126	Cl	1.396482	0.098547	1.326218
Cl127	Cl	1.114914	-1.039037	0.300163
Cl128	Cl	1.614914	-0.539037	0.800163
H129	H	1.101300	-0.890301	0.313707
H130	H	1.601300	-0.390301	0.813707
H131	H	0.738055	-0.225539	0.483221
H132	H	1.238055	0.274461	0.983221
H133	H	0.932292	-1.030593	0.483069
H134	H	1.432292	-0.530593	0.983069
H135	H	0.917305	-0.380636	0.982696
H136	H	1.417305	0.119364	1.482696
H137	H	0.407797	-0.197031	0.511974
H138	H	0.907797	0.302969	1.011974
H139	H	0.909208	-0.567009	0.505901
H140	H	1.409208	-0.067009	1.005901
H141	H	0.274475	-0.202725	0.506264
H142	H	0.774475	0.297275	1.006264
H143	H	1.066942	-0.693340	0.348005
H144	H	1.566942	-0.193340	0.848005
Cl145	Cl	0.918675	-0.881867	0.496610
Cl146	Cl	1.418675	-0.381867	0.996610
H147	H	1.087625	-0.210447	0.843363
H148	H	1.587625	0.289553	1.343363
Cl149	Cl	0.250256	-0.386411	0.321427
Cl150	Cl	0.750256	0.113589	0.821427
Cl151	Cl	0.882939	-0.717446	0.532301
Cl152	Cl	1.382939	-0.217446	1.032301
Cl153	Cl	1.081642	-0.763246	0.333337
Cl154	Cl	1.581642	-0.263246	0.833337
H155	H	0.400709	-0.360097	0.347837
H156	H	0.900709	0.139903	0.847837
H157	H	0.730977	-0.388607	0.319088
H158	H	1.230977	0.111393	0.819088
Cl159	Cl	0.580520	-0.414896	0.292651
Cl160	Cl	1.080520	0.085104	0.792651
Cl161	Cl	0.534846	-0.216591	0.492243
Cl162	Cl	1.034846	0.283409	0.992243
Cl163	Cl	0.470603	-0.374734	0.333103
Cl164	Cl	0.970603	0.125266	0.833103
H165	H	0.943859	-0.810262	0.471335
H166	H	1.443859	-0.310262	0.971335
Cl167	Cl	1.108441	-0.189635	0.999823
Cl168	Cl	1.608441	0.310365	1.499823
Cl169	Cl	1.093208	-0.542911	0.321599
Cl170	Cl	1.593208	-0.042911	0.821599
