data_functionalizedCrystal
_audit_creation_method	'MofGen! by Chris Wilmer'
_symmetry_space_group_name_H-M	'P1'
_symmetry_Int_Tables_number	1
_symmetry_cell_setting	triclinic
loop_
_symmetry_equiv_pos_as_xyz
  x,y,z
_cell_length_a	21.395362
_cell_length_b	29.839131
_cell_length_c	21.395355
_cell_angle_alpha	89.979828
_cell_angle_beta	89.956060
_cell_angle_gamma	90.057297
loop_
_atom_site_label
_atom_site_type_symbol
_atom_site_fract_x
_atom_site_fract_y
_atom_site_fract_z
Zn1	Zn	0.957813	-0.178715	-0.354578
Zn2	Zn	0.957696	-0.253830	-0.249798
Zn3	Zn	0.853028	-0.178736	-0.249780
Zn4	Zn	0.852977	-0.253840	-0.354503
O5	O	0.905378	-0.216280	-0.302165
O6	O	1.045475	-0.188667	-0.340718
O7	O	0.943783	-0.243874	-0.162117
O8	O	0.866998	-0.115866	-0.263706
O9	O	1.045389	-0.243853	-0.263737
O10	O	0.943983	-0.115851	-0.340701
O11	O	0.866884	-0.188702	-0.162104
O12	O	0.765343	-0.188711	-0.263632
O13	O	0.866912	-0.243869	-0.442191
O14	O	0.765306	-0.243889	-0.340571
O15	O	0.943934	-0.188676	-0.442246
O16	O	0.943735	-0.316699	-0.263663
O17	O	0.866798	-0.316705	-0.340589
C18	C	0.742591	-0.216304	-0.302092
C19	C	0.672950	-0.216325	-0.302076
C20	C	0.905265	-0.333003	-0.302133
C21	C	0.905274	-0.382937	-0.302141
C22	C	0.640233	-0.245094	-0.342078
C23	C	0.574798	-0.245083	-0.342106
C24	C	0.542081	-0.216308	-0.302120
C25	C	0.574805	-0.187533	-0.262115
C26	C	0.640239	-0.187541	-0.262093
C27	C	0.438357	-0.212688	-0.245715
C28	C	0.372925	-0.212683	-0.245736
C29	C	0.340261	-0.216278	-0.302189
C30	C	0.373038	-0.219889	-0.358623
C31	C	0.438472	-0.219897	-0.358601
C32	C	0.471129	-0.216295	-0.302140
C33	C	0.236592	-0.245037	-0.342226
C34	C	0.171155	-0.245023	-0.342254
C35	C	0.171164	-0.187475	-0.262258
C36	C	0.236599	-0.187487	-0.262235
C37	C	0.269309	-0.216270	-0.302218
C38	C	0.945512	-0.692564	-0.262168
C39	C	0.945589	-0.880237	-0.262192
O40	O	0.979711	-0.904488	-0.228181
N41	N	0.905508	-0.903722	-0.302212
C42	C	0.865408	-0.880286	-0.342231
O43	O	0.831323	-0.904567	-0.376276
C44	C	0.865334	-0.692614	-0.342210
C45	C	0.905414	-0.669131	-0.302183
C46	C	0.985588	-0.669082	-0.222145
C47	C	0.985566	-0.622166	-0.222136
C48	C	0.945468	-0.598733	-0.262152
C49	C	0.905391	-0.622216	-0.302175
C50	C	0.825238	-0.669178	-0.382232
C51	C	0.825224	-0.622257	-0.382224
C52	C	0.865303	-0.598775	-0.342197
C53	C	0.865271	-0.551867	-0.342182
N54	N	0.905352	-0.528383	-0.302162
C55	C	0.945450	-0.551816	-0.262147
C56	C	0.865449	-0.978816	-0.342239
C57	C	0.865466	-1.025734	-0.342244
C58	C	0.945649	-1.025683	-0.262205
C59	C	0.945627	-0.978764	-0.262198
C60	C	0.905530	-0.955332	-0.302219
C61	C	0.945400	-0.453290	-0.262132
C62	C	0.945373	-0.406370	-0.262126
C63	C	0.865193	-0.406426	-0.342167
C64	C	0.865218	-0.453342	-0.342171
C65	C	0.905327	-0.476772	-0.302152
O66	O	0.831172	-0.527587	-0.376180
O67	O	0.979540	-0.527526	-0.228117
C68	C	0.945534	-0.739480	-0.262176
C69	C	0.905458	-0.762962	-0.302199
C70	C	0.865359	-0.739529	-0.342214
C71	C	0.905475	-0.809880	-0.302204
C72	C	0.945574	-0.833313	-0.262189
C73	C	0.985655	-0.809828	-0.222169
C74	C	0.985633	-0.762913	-0.222161
C75	C	0.825278	-0.763014	-0.382234
C76	C	0.825303	-0.809929	-0.382238
C77	C	0.865402	-0.833362	-0.342223
C78	C	1.068802	-0.216257	-0.302238
C79	C	1.138443	-0.216247	-0.302269
C80	C	0.905431	-0.216271	-0.465588
C81	C	0.905453	-0.216267	-0.535229
C82	C	0.905509	-0.099102	-0.302210
C83	C	0.905565	-0.049167	-0.302229
C84	C	0.945556	-0.187527	-0.567972
C85	C	0.945556	-0.187507	-0.633408
C86	C	0.905458	-0.216237	-0.666098
C87	C	0.865346	-0.244979	-0.633347
C88	C	0.865344	-0.244994	-0.567912
C89	C	0.900471	-0.256689	-0.769760
C90	C	0.900478	-0.256674	-0.835193
C91	C	0.905461	-0.216189	-0.867918
C92	C	0.910451	-0.175717	-0.835203
C93	C	0.910449	-0.175733	-0.769769
C94	C	0.905455	-0.216223	-0.737050
C95	C	0.945566	-0.187425	-0.971614
C96	C	0.945561	-0.187405	-1.037051
C97	C	0.865355	-0.244881	-1.036988
C98	C	0.865357	-0.244897	-0.971553
C99	C	0.905466	-0.216170	-0.938870
C100	C	0.905363	-0.216257	-0.139377
C101	C	0.905462	-0.216134	-0.069736
H102	H	0.548156	-0.268511	-0.374683
H103	H	0.792598	-0.688290	-0.414823
H104	H	0.978217	-0.163998	-1.063709
H105	H	0.666876	-0.164112	-0.229518
N106	N	0.988649	-0.478560	-0.218963
H107	H	1.017686	-0.497992	-0.244457
H108	H	1.013988	-0.456533	-0.193616
N109	N	0.988814	-0.156507	-0.668730
H110	H	1.033571	-0.163484	-0.657375
H111	H	0.982677	-0.160871	-0.715131
H112	H	0.792573	-0.603181	-0.414816
N113	N	0.821985	-0.478672	-0.385334
H114	H	0.796578	-0.456706	-0.410680
H115	H	0.847485	-0.498102	-0.414367
N116	N	0.895101	-0.300358	-0.734467
H117	H	0.933266	-0.304567	-0.707347
H118	H	0.856471	-0.299740	-0.707324
H119	H	0.896419	-0.289629	-0.861825
H120	H	1.018204	-0.603050	-0.189545
N121	N	0.822087	-0.275959	-0.668600
H122	H	0.828172	-0.271588	-0.715022
H123	H	0.831793	-0.308047	-0.657172
N124	N	0.337800	-0.223792	-0.419504
H125	H	0.349164	-0.252899	-0.440721
H126	H	0.291389	-0.223224	-0.410886
N127	N	0.271878	-0.276079	-0.385349
H128	H	0.241221	-0.294301	-0.410699
H129	H	0.299093	-0.257827	-0.414380
N130	N	0.822100	-0.275865	-1.072237
H131	H	0.828185	-0.271493	-1.118658
H132	H	0.831814	-0.307952	-1.060807
N133	N	0.988604	-0.381043	-0.218954
H134	H	1.014011	-0.403010	-0.193610
H135	H	1.017577	-0.361541	-0.244494
N136	N	0.915820	-0.132045	-0.870485
H137	H	0.956386	-0.116754	-0.859129
H138	H	0.915032	-0.138206	-0.916890
H139	H	0.978222	-0.164031	-0.945002
N140	N	1.028842	-0.694352	-0.178983
H141	H	1.054223	-0.672350	-0.153632
H142	H	1.003360	-0.713848	-0.149954
N143	N	0.473585	-0.208808	-0.184823
H144	H	0.442894	-0.206524	-0.149078
H145	H	0.500682	-0.236179	-0.178927
H146	H	0.832824	-1.044850	-0.374832
N147	N	0.822092	-0.275889	-0.936232
H148	H	0.796685	-0.294084	-0.966868
H149	H	0.847559	-0.296685	-0.909094
H150	H	0.548163	-0.164102	-0.229560
H151	H	0.832544	-0.387340	-0.374745
H152	H	0.832683	-0.268398	-0.541253
H153	H	0.978298	-1.044770	-0.229623
H154	H	0.666862	-0.268532	-0.374636
N155	N	1.028899	-0.835107	-0.179003
H156	H	1.022825	-0.868392	-0.185086
H157	H	1.073640	-0.826864	-0.188808
N158	N	1.028865	-0.737589	-0.178993
H159	H	1.054268	-0.759559	-0.153650
H160	H	1.057841	-0.718089	-0.204532
N161	N	0.473821	-0.223789	-0.419465
H162	H	0.462509	-0.197839	-0.447574
H163	H	0.520217	-0.223263	-0.410830
N164	N	0.135865	-0.276056	-0.385400
H165	H	0.166519	-0.294292	-0.410720
H166	H	0.108654	-0.296812	-0.359844
H167	H	0.978263	-0.959647	-0.229605
H168	H	0.346242	-0.209746	-0.199785
H169	H	0.144526	-0.164043	-0.229704
N170	N	0.271891	-0.156454	-0.219093
H171	H	0.241238	-0.138221	-0.193767
H172	H	0.298981	-0.174709	-0.190040
N173	N	0.822195	-0.953546	-0.385405
H174	H	0.796808	-0.975547	-0.410752
H175	H	0.793204	-0.934115	-0.359861
H176	H	0.792626	-0.743938	-0.414820
N177	N	0.782066	-0.835254	-0.425407
H178	H	0.756664	-0.813286	-0.450753
H179	H	0.807564	-0.854686	-0.454440
H180	H	0.978216	-0.164134	-0.541366
N181	N	0.915832	-0.132086	-0.734482
H182	H	0.918992	-0.106434	-0.765137
H183	H	0.877661	-0.127926	-0.707304
