data_functionalizedCrystal
_audit_creation_method	'MofGen! by Chris Wilmer'
_symmetry_space_group_name_H-M	'P1'
_symmetry_Int_Tables_number	1
_symmetry_cell_setting	triclinic
loop_
_symmetry_equiv_pos_as_xyz
  x,y,z
_cell_length_a	18.215407
_cell_length_b	18.101397
_cell_length_c	18.215399
_cell_angle_alpha	90.031052
_cell_angle_beta	90.017331
_cell_angle_gamma	90.014979
loop_
_atom_site_label
_atom_site_type_symbol
_atom_site_fract_x
_atom_site_fract_y
_atom_site_fract_z
Zn1	Zn	1.125091	-0.294943	0.416062
Zn2	Zn	1.458424	0.038391	0.749396
Zn3	Zn	1.791758	0.371724	1.082729
Zn4	Zn	1.125010	-0.418790	0.292990
Zn5	Zn	1.458343	-0.085457	0.626324
Zn6	Zn	1.791677	0.247877	0.959657
Zn7	Zn	1.002025	-0.294955	0.293014
Zn8	Zn	1.335358	0.038378	0.626347
Zn9	Zn	1.668691	0.371712	0.959681
Zn10	Zn	1.001999	-0.418735	0.416020
Zn11	Zn	1.335332	-0.085402	0.749353
Zn12	Zn	1.668666	0.247932	1.082686
O13	O	1.063531	-0.356856	0.354522
O14	O	1.396864	-0.023522	0.687855
O15	O	1.730198	0.309811	1.021188
O16	O	1.228064	-0.311389	0.399745
O17	O	1.561398	0.021944	0.733078
O18	O	1.894731	0.355278	1.066411
O19	O	1.108672	-0.402391	0.190009
O20	O	1.442006	-0.069058	0.523343
O21	O	1.775339	0.264276	0.856676
O22	O	1.018394	-0.191320	0.309365
O23	O	1.351728	0.142013	0.642698
O24	O	1.685061	0.475346	0.976031
O25	O	1.228005	-0.402379	0.309324
O26	O	1.561338	-0.069046	0.642657
O27	O	1.894672	0.264288	0.975991
O28	O	1.108811	-0.191311	0.399768
O29	O	1.442144	0.142022	0.733101
O30	O	1.775477	0.475355	1.066434
O31	O	1.018316	-0.311410	0.190027
O32	O	1.351649	0.021923	0.523360
O33	O	1.684982	0.355257	0.856693
O34	O	0.899037	-0.311357	0.309323
O35	O	1.232370	0.021977	0.642656
O36	O	1.565704	0.355310	0.975990
O37	O	1.018351	-0.402285	0.519010
O38	O	1.351684	-0.068952	0.852343
O39	O	1.685017	0.264381	1.185676
O40	O	0.899018	-0.402297	0.399695
O41	O	1.232351	-0.068964	0.733028
O42	O	1.565685	0.264369	1.066361
O43	O	1.108786	-0.311336	0.519041
O44	O	1.442119	0.021998	0.852374
O45	O	1.775452	0.355331	1.185708
O46	O	1.108648	-0.522415	0.309283
O47	O	1.441981	-0.189082	0.642616
O48	O	1.775314	0.144251	0.975949
O49	O	1.018272	-0.522375	0.399672
O50	O	1.351605	-0.189042	0.733005
O51	O	1.684939	0.144292	1.066338
C52	C	0.872325	-0.356823	0.354507
C53	C	1.205658	-0.023490	0.687841
C54	C	1.538992	0.309844	1.021174
C55	C	0.790526	-0.356827	0.354519
C56	C	1.123859	-0.023493	0.687852
C57	C	1.457193	0.309840	1.021185
C58	C	0.525494	-0.309568	0.401679
C59	C	0.858827	0.023765	0.735012
C60	C	1.192160	0.357098	1.068345
C61	C	0.602353	-0.309556	0.401676
C62	C	0.935686	0.023777	0.735010
C63	C	1.269019	0.357110	1.068343
C64	C	0.602310	-0.404167	0.307381
C65	C	0.935643	-0.070833	0.640714
C66	C	1.268976	0.262500	0.974047
C67	C	0.525452	-0.404182	0.307387
C68	C	0.858786	-0.070849	0.640721
C69	C	1.192119	0.262485	0.974054
C70	C	0.487046	-0.356878	0.354535
C71	C	0.820380	-0.023545	0.687868
C72	C	1.153713	0.309788	1.021202
C73	C	0.640762	-0.356851	0.354526
C74	C	0.974096	-0.023518	0.687860
C75	C	1.307429	0.309815	1.021193
C76	C	0.724096	-0.356839	0.354523
C77	C	1.057429	-0.023505	0.687857
C78	C	1.390763	0.309828	1.021190
C79	C	0.403707	-0.356892	0.354539
C80	C	0.737041	-0.023559	0.687873
C81	C	1.070374	0.309775	1.021206
C82	C	1.063468	-0.549266	0.354486
C83	C	1.396801	-0.215933	0.687819
C84	C	1.730135	0.117401	1.021153
C85	C	1.063509	-0.631580	0.354495
C86	C	1.396842	-0.298247	0.687829
C87	C	1.730175	0.035086	1.021162
C88	C	1.063602	-0.930671	0.354562
C89	C	1.396936	-0.597338	0.687896
C90	C	1.730269	-0.264004	1.021229
C91	C	1.120306	-0.899340	0.297540
C92	C	1.453639	-0.566007	0.630873
C93	C	1.786972	-0.232674	0.964206
C94	C	1.120502	-0.813722	0.297688
C95	C	1.453836	-0.480389	0.631021
C96	C	1.787169	-0.147055	0.964354
C97	C	1.063556	-0.782289	0.354529
C98	C	1.396889	-0.448955	0.687862
C99	C	1.730223	-0.115622	1.021195
C100	C	1.084580	-0.813297	0.432100
C101	C	1.417913	-0.479964	0.765433
C102	C	1.751246	-0.146631	1.098767
C103	C	1.085018	-0.898942	0.431789
C104	C	1.418352	-0.565609	0.765123
C105	C	1.751685	-0.232276	1.098456
C106	C	0.985724	-0.899173	0.334685
C107	C	1.319057	-0.565839	0.668018
C108	C	1.652391	-0.232506	1.001352
C109	C	0.986109	-0.813523	0.332954
C110	C	1.319442	-0.480190	0.666287
C111	C	1.652775	-0.146857	0.999620
C112	C	1.063528	-0.698429	0.354514
C113	C	1.396862	-0.365096	0.687847
C114	C	1.730195	-0.031762	1.021181
C115	C	1.063632	-1.014531	0.354582
C116	C	1.396965	-0.681197	0.687915
C117	C	1.730299	-0.347864	1.021249
C118	C	1.255484	-0.356889	0.354537
C119	C	1.588817	-0.023555	0.687870
C120	C	1.922151	0.309778	1.021203
C121	C	1.337283	-0.356903	0.354543
C122	C	1.670616	-0.023570	0.687876
C123	C	2.003950	0.309764	1.021209
C124	C	1.063574	-0.356803	0.546475
C125	C	1.396908	-0.023470	0.879808
C126	C	1.730241	0.309864	1.213141
C127	C	1.063593	-0.356781	0.628274
C128	C	1.396926	-0.023447	0.961607
C129	C	1.730259	0.309886	1.294940
C130	C	1.063614	-0.163694	0.354574
C131	C	1.396948	0.169640	0.687907
C132	C	1.730281	0.502973	1.021240
C133	C	1.063650	-0.081380	0.354596
C134	C	1.396983	0.251954	0.687929
C135	C	1.730317	0.585287	1.021262
C136	C	1.063530	-0.356854	0.163315
C137	C	1.396864	-0.023521	0.496649
C138	C	1.730197	0.309812	0.829982
C139	C	1.063655	-0.356668	0.081517
C140	C	1.396988	-0.023335	0.414850
C141	C	1.730321	0.309999	0.748184
C142	C	1.110710	-0.309359	0.893349
C143	C	1.444043	0.023974	1.226682
C144	C	1.777376	0.357307	1.560016
C145	C	1.110701	-0.309379	0.816490
C146	C	1.444034	0.023954	1.149823
C147	C	1.777368	0.357287	1.483157
C148	C	1.016536	-0.404095	0.816447
C149	C	1.349869	-0.070761	1.149780
C150	C	1.683202	0.262572	1.483114
C151	C	1.016549	-0.404078	0.893304
C152	C	1.349882	-0.070745	1.226638
C153	C	1.683215	0.262589	1.559971
C154	C	1.063634	-0.356706	0.931753
C155	C	1.396968	-0.023373	1.265087
C156	C	1.730301	0.309961	1.598420
C157	C	1.063613	-0.356743	0.778037
C158	C	1.396946	-0.023410	1.111371
C159	C	1.730280	0.309924	1.444704
C160	C	1.063603	-0.356765	0.694703
C161	C	1.396936	-0.023432	1.028037
C162	C	1.730270	0.309902	1.361370
C163	C	1.063645	-0.356685	1.015092
C164	C	1.396979	-0.023351	1.348426
C165	C	1.730312	0.309982	1.681759
H166	H	0.494148	-0.442712	0.268997
H167	H	0.827481	-0.109378	0.602330
H168	H	1.160814	0.223955	0.935664
O169	O	0.929807	-0.926092	0.389705
O170	O	1.263140	-0.592759	0.723038
O171	O	1.596474	-0.259426	1.056372
H172	H	0.904357	-0.877992	0.417649
H173	H	1.237690	-0.544659	0.750983
H174	H	1.571023	-0.211325	1.084316
H175	H	0.978199	-0.442662	0.785133
H176	H	1.311532	-0.109329	1.118466
H177	H	1.644866	0.224004	1.451799
H178	H	0.494226	-0.271050	0.440069
H179	H	0.827559	0.062283	0.773403
H180	H	1.160893	0.395616	1.106736
H181	H	0.633653	-0.271032	0.440066
H182	H	0.966986	0.062301	0.773399
H183	H	1.300320	0.395634	1.106733
O184	O	1.161490	-0.258273	0.934830
O185	O	1.494824	0.075060	1.268163
O186	O	1.828157	0.408394	1.601497
H187	H	1.219245	-0.270986	0.920094
H188	H	1.552578	0.062347	1.253427
H189	H	1.885911	0.395680	1.586760
H190	H	0.978214	-0.442637	0.924574
H191	H	1.311547	-0.109304	1.257908
H192	H	1.644881	0.224029	1.591241
H193	H	0.633589	-0.442678	0.268993
H194	H	0.966923	-0.109345	0.602327
H195	H	1.300256	0.223988	0.935660
O196	O	1.161475	-0.258310	0.775071
O197	O	1.494809	0.075024	1.108404
O198	O	1.828142	0.408357	1.441737
H199	H	1.198906	-0.291469	0.740058
H200	H	1.532240	0.041865	1.073391
H201	H	1.865573	0.375198	1.406724
H202	H	1.044542	-0.792934	0.475729
H203	H	1.377876	-0.459600	0.809062
H204	H	1.711209	-0.126267	1.142395
H205	H	0.970256	-0.793264	0.275867
H206	H	1.303590	-0.459930	0.609201
H207	H	1.636923	-0.126597	0.942534
H208	H	1.107349	-0.792760	0.240169
H209	H	1.440683	-0.459426	0.573503
H210	H	1.774016	-0.126093	0.906836
H211	H	1.107312	-0.919983	0.239849
H212	H	1.440645	-0.586649	0.573183
H213	H	1.773978	-0.253316	0.906516
O214	O	1.196309	-0.927767	0.314760
O215	O	1.529642	-0.594434	0.648093
O216	O	1.862975	-0.261101	0.981427
H217	H	1.193874	-0.964112	0.363756
H218	H	1.527207	-0.630779	0.697090
H219	H	1.860540	-0.297446	1.030423
O220	O	1.159278	-0.785201	0.454800
O221	O	1.492611	-0.451868	0.788134
O222	O	1.825944	-0.118535	1.121467
H223	H	1.154284	-0.753272	0.506596
H224	H	1.487617	-0.419939	0.839930
H225	H	1.820951	-0.086605	1.173263
H226	H	1.178190	-0.793184	0.310839
H227	H	1.511523	-0.459851	0.644172
H228	H	1.844857	-0.126517	0.977506
H229	H	1.141944	-0.918867	0.448627
H230	H	1.475277	-0.585533	0.781961
H231	H	1.808611	-0.252200	1.115294
O232	O	1.032698	-0.926402	0.489992
O233	O	1.366032	-0.593068	0.823325
O234	O	1.699365	-0.259735	1.156658
H235	H	1.007200	-0.878507	0.518239
H236	H	1.340533	-0.545173	0.851572
H237	H	1.673866	-0.211840	1.184906
O238	O	0.960391	-0.927846	0.261051
O239	O	1.293724	-0.594513	0.594384
O240	O	1.627058	-0.261180	0.927718
H241	H	0.957228	-0.989056	0.262824
H242	H	1.290561	-0.655722	0.596157
H243	H	1.623894	-0.322389	0.929490
O244	O	0.927128	-0.785192	0.383932
O245	O	1.260461	-0.451859	0.717266
O246	O	1.593794	-0.118525	1.050599
H247	H	0.952205	-0.748247	0.425633
H248	H	1.285539	-0.414913	0.758966
H249	H	1.618872	-0.081580	1.092300
