data_functionalizedCrystal
_audit_creation_method	'MofGen! by Chris Wilmer'
_symmetry_space_group_name_H-M	'P1'
_symmetry_Int_Tables_number	1
_symmetry_cell_setting	triclinic
loop_
_symmetry_equiv_pos_as_xyz
  x,y,z
_cell_length_a	16.109302
_cell_length_b	27.731996
_cell_length_c	14.586319
_cell_angle_alpha	89.990257
_cell_angle_beta	89.994552
_cell_angle_gamma	83.041584
loop_
_atom_site_label
_atom_site_type_symbol
_atom_site_fract_x
_atom_site_fract_y
_atom_site_fract_z
O1	O	1.102341	0.062133	-0.076294
O2	O	0.860181	0.069865	-0.076288
O3	O	0.988805	-0.004368	-0.076271
O4	O	0.973718	0.136366	-0.076311
O5	O	0.988796	-0.004369	0.076210
O6	O	0.860172	0.069864	0.076193
O7	O	1.102332	0.062132	0.076187
Cu8	Cu	0.981251	0.065998	0.090113
Cu9	Cu	0.981262	0.065999	-0.090214
O10	O	0.973709	0.136365	0.076170
C11	C	0.829206	0.069551	-0.000047
C12	C	0.736922	0.068612	-0.000044
C13	C	0.524604	0.066440	0.083065
C14	C	0.437895	0.065552	0.083062
C15	C	0.437916	0.065556	-0.083181
C16	C	0.524624	0.066440	-0.083177
C17	C	0.567965	0.066885	-0.000051
C18	C	0.394548	0.065113	-0.000058
C19	C	0.300535	0.064150	-0.000062
C20	C	0.661985	0.067846	-0.000047
C21	C	0.988490	-0.022377	-0.000028
C22	C	0.987557	-0.076037	-0.000018
C23	C	0.981688	-0.408777	-0.083180
C24	C	0.978144	-0.610451	-0.083196
O25	O	0.977654	-0.636523	-0.153885
N26	N	0.977698	-0.635670	-0.000080
C27	C	0.978134	-0.610468	0.083047
O28	O	0.977666	-0.636546	0.153742
C29	C	0.981673	-0.408795	0.083062
C30	C	0.982127	-0.383579	-0.000060
C31	C	0.982141	-0.383561	-0.166295
C32	C	0.983032	-0.333146	-0.166291
C33	C	0.983470	-0.307948	-0.083171
C34	C	0.983017	-0.333164	-0.000055
C35	C	0.982103	-0.383594	0.166187
C36	C	0.982985	-0.333172	0.166184
C37	C	0.983439	-0.307956	0.083062
C38	C	0.984346	-0.257551	0.083070
N39	N	0.984791	-0.232331	-0.000047
C40	C	0.984353	-0.257530	-0.083167
C41	C	0.976278	-0.716349	0.083033
C42	C	0.975395	-0.766767	0.083029
C43	C	0.975403	-0.766746	-0.083214
C44	C	0.976292	-0.716328	-0.083209
C45	C	0.976723	-0.691130	-0.000084
C46	C	0.986224	-0.151655	-0.083151
C47	C	0.987119	-0.101236	-0.083138
C48	C	0.987106	-0.101261	0.083104
C49	C	0.986216	-0.151676	0.083093
C50	C	0.985773	-0.176871	-0.000042
O51	O	0.984827	-0.231447	0.153721
O52	O	0.984803	-0.231442	-0.153852
C53	C	0.980798	-0.459192	-0.083185
C54	C	0.980345	-0.484409	-0.000070
C55	C	0.980783	-0.459210	0.083050
C56	C	0.979462	-0.534827	-0.000073
C57	C	0.979024	-0.560025	-0.083193
C58	C	0.979469	-0.534806	-0.166310
C59	C	0.980360	-0.484391	-0.166305
C60	C	0.980338	-0.484430	0.166167
C61	C	0.979448	-0.534845	0.166155
C62	C	0.979010	-0.560043	0.083035
C63	C	1.133308	0.062446	-0.000056
C64	C	1.225591	0.063385	-0.000065
C65	C	0.974023	0.154374	-0.000075
C66	C	0.974957	0.208034	-0.000091
N67	N	0.981250	0.065997	0.216944
N68	N	0.981270	0.065997	-0.217045
C69	C	1.038223	0.033137	0.451958
C70	C	1.038226	0.033136	0.547940
C71	C	0.924291	0.098858	0.547934
C72	C	0.924285	0.098856	0.451955
C73	C	0.981256	0.065997	0.403969
C74	C	0.981264	0.065997	0.595930
C75	C	0.981266	0.065996	0.699997
C76	C	0.981253	0.065997	0.299895
H77	H	0.402595	0.065190	0.150744
H78	H	0.976660	-0.695800	-0.150895
F79	F	0.974934	-0.793572	-0.171677
F80	F	0.863646	0.133829	0.400877
H81	H	0.559929	0.066801	-0.150864
F82	F	0.391783	0.065073	-0.171644
F83	F	0.987604	-0.074402	-0.171612
H84	H	0.985859	-0.172163	-0.150847
H85	H	0.983398	-0.312619	-0.233977
H86	H	0.985855	-0.172209	0.150777
F87	F	1.098855	-0.001836	0.400892
H88	H	0.559890	0.066802	0.150752
H89	H	1.084612	0.006379	0.587010
H90	H	0.877907	0.125612	0.587013
F91	F	0.987574	-0.074434	0.171562
F92	F	0.976733	-0.689537	0.171513
H93	H	0.981781	-0.404072	-0.233985
H94	H	0.980696	-0.463919	0.233854
F95	F	0.981617	-0.410420	0.254659
F96	F	0.974927	-0.793600	0.171499
H97	H	0.983324	-0.312657	0.233876
H98	H	0.980728	-0.463864	-0.233992
F99	F	0.979007	-0.561633	-0.254773
F100	F	0.978971	-0.561677	0.254631
