data_functionalizedCrystal
_audit_creation_method	'MofGen! by Chris Wilmer'
_symmetry_space_group_name_H-M	'P1'
_symmetry_Int_Tables_number	1
_symmetry_cell_setting	triclinic
loop_
_symmetry_equiv_pos_as_xyz
  x,y,z
_cell_length_a	10.685940
_cell_length_b	10.685676
_cell_length_c	17.639306
_cell_angle_alpha	73.676350
_cell_angle_beta	73.646637
_cell_angle_gamma	80.926713
loop_
_atom_site_label
_atom_site_type_symbol
_atom_site_fract_x
_atom_site_fract_y
_atom_site_fract_z
Zn1	Zn	2.073224	0.527776	-0.571799
Zn2	Zn	2.573224	1.027776	-0.071799
Zn3	Zn	2.018962	0.702175	-0.445412
Zn4	Zn	2.518962	1.202175	0.054588
Zn5	Zn	1.817280	0.500421	-0.426041
Zn6	Zn	2.317280	1.000421	0.073959
Zn7	Zn	1.844655	0.756262	-0.571775
Zn8	Zn	2.344655	1.256262	-0.071775
O9	O	1.938530	0.621658	-0.503757
O10	O	2.438530	1.121658	-0.003757
O11	O	2.246087	0.539722	-0.563150
O12	O	2.746087	1.039722	-0.063150
O13	O	1.958043	0.641328	-0.328958
O14	O	2.458043	1.141328	0.171042
O15	O	1.862483	0.323992	-0.437280
O16	O	2.362483	0.823992	0.062720
O17	O	2.206221	0.667852	-0.470294
O18	O	2.706221	1.167852	0.029706
O19	O	2.050524	0.344090	-0.544368
O20	O	2.550524	0.844090	-0.044368
O21	O	1.809868	0.493100	-0.314727
O22	O	2.309868	0.993100	0.185273
O23	O	1.640849	0.545547	-0.437257
O24	O	2.140849	1.045547	0.062743
O25	O	1.909141	0.760037	-0.685662
O26	O	2.409141	1.260037	-0.185662
O27	O	1.660962	0.733512	-0.544327
O28	O	2.160962	1.233512	-0.044327
O29	O	2.077069	0.592169	-0.685679
O30	O	2.577069	1.092169	-0.185679
O31	O	1.984588	0.889407	-0.470270
O32	O	2.484588	1.389407	0.029730
O33	O	1.856525	0.929145	-0.563109
O34	O	2.356525	1.429145	-0.063109
C35	C	1.604218	0.642432	-0.488688
C36	C	2.104218	1.142432	0.011312
C37	C	1.461201	0.651355	-0.482262
C38	C	1.961201	1.151355	0.017738
C39	C	1.917679	0.955966	-0.518808
C40	C	2.417679	1.455966	-0.018808
C41	C	1.908885	1.098985	-0.525280
C42	C	2.408885	1.598985	-0.025280
C43	C	2.002211	0.685188	-0.716025
C44	C	2.502211	1.185188	-0.216025
C45	C	2.029348	0.712260	-0.806481
C46	C	2.529348	1.212260	-0.306481
C47	C	2.274148	0.600805	-0.518885
C48	C	2.774148	1.100805	-0.018885
C49	C	2.417168	0.591919	-0.525332
C50	C	2.917168	1.091919	-0.025332
C51	C	1.959494	1.286052	-0.488675
C52	C	2.459494	1.786052	0.011325
C53	C	1.968406	1.143046	-0.482270
C54	C	2.468406	1.643046	0.017730
C55	C	1.732902	0.415481	-1.066961
C56	C	2.232902	0.915481	-0.566961
C57	C	1.758429	0.440945	-1.151961
C58	C	2.258429	0.940945	-0.651961
C59	C	1.912708	0.595279	-1.166758
C60	C	2.412708	1.095279	-0.666758
C61	C	1.887198	0.569823	-1.081758
C62	C	2.387198	1.069823	-0.581758
C63	C	1.797293	0.479924	-1.031866
C64	C	2.297293	0.979924	-0.531866
C65	C	1.951590	0.634266	-1.046663
C66	C	2.451590	1.134266	-0.546663
C67	C	1.926077	0.608817	-0.961670
C68	C	2.426077	1.108817	-0.461670
C69	C	1.836173	0.518925	-0.911772
C70	C	2.336173	1.018925	-0.411772
C71	C	1.771781	0.454475	-0.946873
C72	C	2.271781	0.954475	-0.446873
C73	C	2.041487	0.724171	-1.096556
C74	C	2.541487	1.224171	-0.596556
C75	C	2.105879	0.788614	-1.061461
C76	C	2.605879	1.288614	-0.561461
C77	C	2.080373	0.763158	-0.976467
C78	C	2.580373	1.263158	-0.476467
C79	C	1.990470	0.673266	-0.926569
C80	C	2.490470	1.173266	-0.426569
C81	C	2.144766	0.827608	-0.941366
C82	C	2.644766	1.327608	-0.441366
C83	C	2.119253	0.802159	-0.856373
C84	C	2.619253	1.302159	-0.356373
C85	C	1.964957	0.647817	-0.841576
C86	C	2.464957	1.147817	-0.341576
C87	C	1.875176	0.558279	-0.292313
C88	C	2.375176	1.058279	0.207687
C89	C	1.848311	0.530828	-0.201853
C90	C	2.348311	1.030828	0.298147
H91	H	2.389485	0.709036	-0.440453
H92	H	2.889485	1.209036	0.059547
H93	H	2.026105	1.071349	-0.440497
H94	H	2.526105	1.571349	0.059503
H95	H	1.705992	0.388456	-1.180531
H96	H	2.205992	0.888456	-0.680531
H97	H	2.179075	0.861814	-1.102095
H98	H	2.679075	1.361814	-0.602095
H99	H	2.488891	0.534224	-0.567138
H100	H	2.988891	1.034224	-0.067138
H101	H	1.851202	1.170676	-0.567056
H102	H	2.351202	1.670676	-0.067056
H103	H	1.891761	0.574599	-0.800951
H104	H	2.391761	1.074599	-0.300951
H105	H	1.815393	0.498216	-0.842566
H106	H	2.315393	0.998216	-0.342566
H107	H	1.698585	0.381256	-0.906247
H108	H	2.198585	0.881256	-0.406247
H109	H	1.659706	0.342263	-1.026335
H110	H	2.159706	0.842263	-0.526335
H111	H	1.985904	0.668479	-1.207392
H112	H	2.485904	1.168479	-0.707392
H113	H	2.062260	0.744885	-1.165762
H114	H	2.562260	1.244885	-0.665762
H115	H	2.217956	0.900813	-0.982001
H116	H	2.717956	1.400813	-0.482001
H117	H	2.171706	0.854616	-0.827799
H118	H	2.671706	1.354616	-0.327799
