data_functionalizedCrystal
_audit_creation_method	'MofGen! by Chris Wilmer'
_symmetry_space_group_name_H-M	'P1'
_symmetry_Int_Tables_number	1
_symmetry_cell_setting	triclinic
loop_
_symmetry_equiv_pos_as_xyz
  x,y,z
_cell_length_a	21.295417
_cell_length_b	18.215407
_cell_length_c	18.215399
_cell_angle_alpha	90.016824
_cell_angle_beta	89.965438
_cell_angle_gamma	89.969045
loop_
_atom_site_label
_atom_site_type_symbol
_atom_site_fract_x
_atom_site_fract_y
_atom_site_fract_z
Zn1	Zn	-0.250593	-1.125021	-0.416094
Zn2	Zn	-0.355869	-1.124924	-0.293019
Zn3	Zn	-0.250618	-1.001960	-0.293042
Zn4	Zn	-0.355829	-1.001908	-0.416044
O5	O	-0.303227	-1.063453	-0.354550
O6	O	-0.264564	-1.227993	-0.399780
O7	O	-0.341934	-1.108594	-0.190038
O8	O	-0.162525	-1.018347	-0.309396
O9	O	-0.341910	-1.227921	-0.309357
O10	O	-0.162507	-1.108760	-0.399802
O11	O	-0.264607	-1.018253	-0.190054
O12	O	-0.264569	-0.898969	-0.309347
O13	O	-0.341843	-1.018258	-0.519035
O14	O	-0.341867	-0.898930	-0.399716
O15	O	-0.264526	-1.108709	-0.519072
O16	O	-0.443953	-1.108543	-0.309308
O17	O	-0.443924	-1.018163	-0.399694
C18	C	-0.303217	-0.872247	-0.354529
C19	C	-0.303227	-0.790448	-0.354537
C20	C	-0.466779	-1.063357	-0.354509
C21	C	-0.536747	-1.063383	-0.354516
C22	C	-0.303177	-1.063488	-0.546503
C23	C	-0.303156	-1.063503	-0.628302
C24	C	-0.569608	-1.110485	-0.307500
C25	C	-0.635350	-1.110520	-0.307517
C26	C	-0.668230	-1.063439	-0.354542
C27	C	-0.635361	-1.016333	-0.401566
C28	C	-0.569620	-1.016305	-0.401554
N29	N	-0.771496	-0.999060	-0.360145
N30	N	-0.833947	-0.999088	-0.360153
C31	C	-0.866304	-1.063521	-0.354584
N32	N	-0.833851	-1.127926	-0.348993
N33	N	-0.771394	-1.127896	-0.348981
C34	C	-0.739515	-1.063464	-0.354561
C35	C	-0.970451	-1.110665	-0.307584
C36	C	-1.036194	-1.110701	-0.307605
C37	C	-1.036203	-1.016507	-0.401651
C38	C	-0.970461	-1.016478	-0.401633
C39	C	-0.937589	-1.063556	-0.354595
C40	C	-0.139037	-1.063570	-0.354607
C41	C	-0.069069	-1.063620	-0.354631
C42	C	-0.303239	-1.255406	-0.354571
C43	C	-0.303243	-1.337205	-0.354581
C44	C	-0.343540	-0.602253	-0.401533
C45	C	-0.343542	-0.525395	-0.401542
C46	C	-0.262927	-0.525405	-0.307582
C47	C	-0.262922	-0.602263	-0.307577
C48	C	-0.303232	-0.640685	-0.354552
C49	C	-0.303239	-0.486969	-0.354566
C50	C	-0.303240	-0.403635	-0.354575
C51	C	-0.303229	-0.724024	-0.354543
C52	C	-0.262864	-1.016502	-0.816505
C53	C	-0.262852	-1.016515	-0.893364
C54	C	-0.343372	-1.110592	-0.893336
C55	C	-0.343387	-1.110575	-0.816479
C56	C	-0.303130	-1.063531	-0.778065
C57	C	-0.303102	-1.063561	-0.931781
C58	C	-0.303088	-1.063575	-1.015115
C59	C	-0.303144	-1.063516	-0.694726
C60	C	-0.303232	-1.063461	-0.163344
C61	C	-0.303076	-1.063589	-0.081545
H62	H	-0.542845	-1.148821	-0.269202
H63	H	-0.376179	-1.148873	-0.785180
H64	H	-0.376363	-0.494107	-0.439801
H65	H	-0.943685	-1.149001	-0.269285
H66	H	-0.376361	-0.633534	-0.439785
H67	H	-1.062949	-1.149062	-0.269321
H68	H	-0.230108	-0.494113	-0.269336
H69	H	-0.230095	-0.633554	-0.269319
H70	H	-1.062973	-0.978176	-0.439942
H71	H	-0.230084	-0.978196	-0.785231
H72	H	-0.943704	-0.978120	-0.439914
H73	H	-0.376148	-1.148894	-0.924622
H74	H	-0.662111	-1.148879	-0.269231
H75	H	-0.662135	-0.978001	-0.439855
H76	H	-0.542864	-0.977948	-0.439840
H77	H	-0.230064	-0.978219	-0.924659
