data_functionalizedCrystal
_audit_creation_method	'MofGen! by Chris Wilmer'
_symmetry_space_group_name_H-M	'P1'
_symmetry_Int_Tables_number	1
_symmetry_cell_setting	triclinic
loop_
_symmetry_equiv_pos_as_xyz
  x,y,z
_cell_length_a	17.000383
_cell_length_b	16.992694
_cell_length_c	16.053802
_cell_angle_alpha	92.750953
_cell_angle_beta	92.361483
_cell_angle_gamma	96.865737
loop_
_atom_site_label
_atom_site_type_symbol
_atom_site_fract_x
_atom_site_fract_y
_atom_site_fract_z
O1	O	0.164913	-1.032326	-0.069323
O2	O	0.664913	-0.532326	0.430677
O3	O	0.163068	-0.804169	-0.069347
O4	O	0.663068	-0.304169	0.430653
O5	O	0.049025	-0.932413	-0.069330
O6	O	0.549025	-0.432413	0.430670
O7	O	0.278955	-0.904082	-0.069340
O8	O	0.778955	-0.404082	0.430660
O9	O	0.055275	-0.925356	0.069528
O10	O	0.555275	-0.425356	0.569528
O11	O	0.169318	-0.797112	0.069511
O12	O	0.669318	-0.297112	0.569511
O13	O	0.171162	-1.025269	0.069535
O14	O	0.671162	-0.525269	0.569535
Zn15	Zn	0.171232	-0.910070	0.091570
Zn16	Zn	0.671232	-0.410070	0.591570
Zn17	Zn	0.162998	-0.919367	-0.091382
Zn18	Zn	0.662998	-0.419367	0.408618
O19	O	0.285205	-0.897025	0.069518
O20	O	0.785205	-0.397025	0.569518
C21	C	0.163821	-0.771591	0.000079
C22	C	0.663821	-0.271591	0.500079
C23	C	0.156745	-0.685035	0.000069
C24	C	0.656745	-0.185035	0.500069
C25	C	0.022593	-0.930406	0.000098
C26	C	0.522593	-0.430406	0.500098
C27	C	-0.065477	-0.934930	0.000096
C28	C	0.434523	-0.434930	0.500096
C29	C	0.170409	-1.057846	0.000108
C30	C	0.670409	-0.557846	0.500108
C31	C	0.177485	-1.144402	0.000112
C32	C	0.677485	-0.644402	0.500112
C33	C	-0.563836	-0.964146	0.000096
C34	C	-0.063836	-0.464146	0.500096
C35	C	-0.481084	-0.959888	0.000100
C36	C	0.018916	-0.459888	0.500100
C37	C	-0.434790	-0.885991	0.000088
C38	C	0.065210	-0.385991	0.500088
C39	C	-0.471252	-0.816347	0.000080
C40	C	0.028748	-0.316347	0.500080
C41	C	-0.554003	-0.820605	0.000082
C42	C	-0.054003	-0.320605	0.500082
C43	C	-0.184690	-0.869544	0.000089
C44	C	0.315310	-0.369544	0.500089
C45	C	-0.101934	-0.865291	0.000085
C46	C	0.398066	-0.365291	0.500085
C47	C	-0.111772	-1.008833	0.000107
C48	C	0.388228	-0.508833	0.500107
C49	C	-0.194523	-1.013085	0.000103
C50	C	0.305477	-0.513085	0.500103
C51	C	-0.230978	-0.943441	0.000099
C52	C	0.269022	-0.443441	0.500099
C53	C	-0.350204	-0.881638	0.000091
C54	C	0.149796	-0.381638	0.500091
C55	C	-0.315563	-0.947795	0.000103
C56	C	0.184437	-0.447795	0.500103
C57	C	0.311637	-0.899031	0.000088
C58	C	0.811637	-0.399031	0.500088
C59	C	0.399707	-0.894507	0.000085
C60	C	0.899707	-0.394507	0.500085
N61	N	0.176852	-0.903730	0.216429
N62	N	0.676852	-0.403730	0.716429
C63	C	0.225017	-0.630088	0.000067
C64	C	0.725017	-0.130088	0.500067
C65	C	0.218364	-0.548760	0.000079
C66	C	0.718364	-0.048760	0.500079
C67	C	0.143438	-0.522380	0.000087
C68	C	0.643438	-0.022380	0.500087
C69	C	0.075161	-0.577334	0.000092
C70	C	0.575161	-0.077334	0.500092
C71	C	0.081815	-0.658660	0.000086
C72	C	0.581815	-0.158660	0.500086
C73	C	0.115861	-0.280682	0.000110
C74	C	0.615861	0.219318	0.500110
C75	C	0.109213	-0.199349	0.000114
C76	C	0.609213	0.300651	0.500114
C77	C	0.252417	-0.170781	0.000103
C78	C	0.752417	0.329219	0.500103
C79	C	0.259063	-0.252110	0.000092
C80	C	0.759063	0.247890	0.500092
C81	C	0.190786	-0.307057	0.000101
C82	C	0.690786	0.192943	0.500101
N83	N	0.136636	-0.439250	0.000096
N84	N	0.636636	0.060750	0.500096
N85	N	0.197589	-0.390185	0.000097
N86	N	0.697589	0.109815	0.500097
N87	N	0.157373	-0.925714	-0.216241
N88	N	0.657373	-0.425714	0.283759
C89	C	0.128346	-0.958315	0.260131
C90	C	0.628346	-0.458315	0.760131
C91	C	0.132285	-0.953887	0.347537
C92	C	0.632285	-0.453887	0.847537
C93	C	0.184734	-0.894877	0.391240
C94	C	0.684734	-0.394877	0.891240
C95	C	0.233241	-0.840286	0.347533
C96	C	0.733241	-0.340286	0.847533
C97	C	0.229298	-0.844711	0.260128
C98	C	0.729298	-0.344711	0.760128
C99	C	0.201937	-0.875548	0.652647
C100	C	0.701937	-0.375548	1.152647
C101	C	0.205878	-0.871129	0.740058
C102	C	0.705878	-0.371129	1.240058
C103	C	0.104920	-0.984730	0.740056
C104	C	0.604920	-0.484730	1.240056
C105	C	0.100985	-0.989152	0.652649
C106	C	0.600985	-0.489152	1.152649
C107	C	0.149489	-0.934559	0.608950
C108	C	0.649489	-0.434559	1.108950
N109	N	0.188763	-0.890350	0.480583
N110	N	0.688763	-0.390350	0.980583
N111	N	0.145455	-0.939082	0.519608
N112	N	0.645455	-0.439082	1.019608
H113	H	-0.601523	-1.024321	0.000098
H114	H	-0.101523	-0.524321	0.500098
Br115	Br	0.029807	-1.069241	0.593336
Br116	Br	0.529807	-0.569241	1.093336
Br117	Br	-0.287370	-0.781352	0.000071
Br118	Br	0.212630	-0.281352	0.500071
Br119	Br	0.007522	-0.163548	0.000142
Br120	Br	0.507522	0.336452	0.500142
H121	H	0.065429	-1.029176	0.775644
H122	H	0.565429	-0.529176	1.275644
H123	H	0.320075	-0.273582	0.000076
H124	H	0.820075	0.226418	0.500076
H125	H	-0.451405	-1.016596	0.000110
H126	H	0.048595	-0.516596	0.500110
H127	H	0.248592	-0.823073	0.775637
H128	H	0.748592	-0.323073	1.275637
Br129	Br	-0.026525	-0.541533	0.000111
Br130	Br	0.473475	-0.041533	0.500111
H131	H	-0.232211	-1.073260	0.000116
H132	H	0.267789	-0.573260	0.500116
H133	H	-0.082081	-1.065534	0.000103
H134	H	0.417919	-0.565534	0.500103
Br135	Br	0.267764	-0.801461	0.593345
Br136	Br	0.767764	-0.301461	1.093345
Br137	Br	-0.408425	-0.716057	0.000071
Br138	Br	0.091575	-0.216057	0.500071
H139	H	-0.064243	-0.805112	0.000078
H140	H	0.435757	-0.305112	0.500078
H141	H	-0.214362	-0.812835	0.000076
H142	H	0.285638	-0.312835	0.500076
Br143	Br	0.023199	-0.355242	0.000125
Br144	Br	0.523199	0.144758	0.500125
H145	H	0.026220	-0.703398	0.000087
H146	H	0.526220	-0.203398	0.500087
Br147	Br	0.057167	-1.038410	0.200828
Br148	Br	0.557167	-0.538410	0.700828
Br149	Br	-0.603480	-0.726091	0.000076
Br150	Br	-0.103480	-0.226091	0.500076
Br151	Br	0.304418	-0.760193	0.406841
Br152	Br	0.804418	-0.260193	0.906841
Br153	Br	-0.378390	-1.048080	0.000128
Br154	Br	0.121610	-0.548080	0.500128
H155	H	0.268795	-0.800261	0.224547
H156	H	0.768795	-0.300261	0.724547
Br157	Br	0.326707	-0.665881	0.000048
Br158	Br	0.826707	-0.165881	0.500048
H159	H	0.308004	-0.126035	0.000097
H160	H	0.808004	0.373965	0.500097
H161	H	0.273959	-0.504024	0.000076
H162	H	0.773959	-0.004024	0.500076
H163	H	0.092787	-0.998334	0.383118
H164	H	0.592787	-0.498334	0.883118
