data_functionalizedCrystal
_audit_creation_method	'MofGen! by Chris Wilmer'
_symmetry_space_group_name_H-M	'P1'
_symmetry_Int_Tables_number	1
_symmetry_cell_setting	triclinic
loop_
_symmetry_equiv_pos_as_xyz
  x,y,z
_cell_length_a	12.759400
_cell_length_b	18.215407
_cell_length_c	18.215398
_cell_angle_alpha	89.982592
_cell_angle_beta	90.022020
_cell_angle_gamma	89.989695
loop_
_atom_site_label
_atom_site_type_symbol
_atom_site_fract_x
_atom_site_fract_y
_atom_site_fract_z
Zn1	Zn	-0.418426	-1.125121	0.416093
Zn2	Zn	-0.594116	-1.125053	0.293034
Zn3	Zn	-0.418438	-1.002055	0.293045
Zn4	Zn	-0.594050	-1.002042	0.416063
O5	O	-0.506257	-1.063568	0.354559
O6	O	-0.441754	-1.228097	0.399777
O7	O	-0.570844	-1.108713	0.190051
O8	O	-0.271415	-1.018414	0.309384
O9	O	-0.570833	-1.228046	0.309366
O10	O	-0.271407	-1.108831	0.399787
O11	O	-0.441774	-1.018347	0.190059
O12	O	-0.441711	-0.899069	0.309355
O13	O	-0.570721	-1.018392	0.519051
O14	O	-0.570732	-0.899059	0.399737
O15	O	-0.441691	-1.108818	0.519073
O16	O	-0.741128	-1.108701	0.309337
O17	O	-0.741080	-1.018325	0.399726
C18	C	-0.506216	-0.872361	0.354544
C19	C	-0.506224	-0.790562	0.354556
C20	C	-0.439143	-0.602394	0.401706
C21	C	-0.439148	-0.525535	0.401708
C22	C	-0.573356	-0.525493	0.307417
C23	C	-0.573344	-0.602351	0.307412
C24	C	-0.506239	-0.640799	0.354561
C25	C	-0.506257	-0.487083	0.354568
C26	C	-0.506263	-0.403749	0.354569
C27	C	-0.506231	-0.724138	0.354558
C28	C	-0.779225	-1.063524	0.354543
C29	C	-0.896001	-1.063573	0.354561
C30	C	-0.950854	-1.110683	0.307548
C31	C	-1.060578	-1.110728	0.307570
C32	C	-1.060588	-1.016546	0.401622
C33	C	-0.950866	-1.016505	0.401603
C34	C	-0.895989	-1.157751	0.260506
C35	C	-0.950842	-1.204865	0.213488
C36	C	-1.060566	-1.204910	0.213511
C37	C	-1.115438	-1.157841	0.260552
C38	C	-0.232224	-1.063632	0.354590
C39	C	-0.115447	-1.063659	0.354604
C40	C	-0.506197	-1.063611	0.546512
C41	C	-0.506171	-1.063630	0.628311
C42	C	-0.506288	-0.255521	0.354572
C43	C	-0.506272	-0.337319	0.354573
C44	C	-0.506242	-1.063567	0.163352
C45	C	-0.505971	-1.063691	0.081554
C46	C	-0.573248	-1.110717	0.893369
C47	C	-0.573285	-1.110706	0.816510
C48	C	-0.438892	-1.016598	0.816501
C49	C	-0.438861	-1.016606	0.893359
C50	C	-0.506038	-1.063670	0.931790
C51	C	-0.506105	-1.063651	0.778074
C52	C	-0.506144	-1.063638	0.694740
C53	C	-0.506001	-1.063682	1.015129
H54	H	-0.627992	-0.494179	0.269032
H55	H	-0.806647	-1.157717	0.260480
H56	H	-1.204782	-1.157888	0.260572
H57	H	-1.105273	-0.978224	0.439920
O58	O	-0.638626	-0.639549	0.261590
C59	C	-0.771698	-0.631403	0.168035
C60	C	-0.697847	-0.589185	0.219903
H61	H	-0.819581	-0.590703	0.134307
H62	H	-0.826759	-0.667376	0.201721
H63	H	-0.723365	-0.667393	0.129642
H64	H	-0.746095	-0.553155	0.258306
H65	H	-0.642783	-0.553258	0.186171
H66	H	-0.627949	-1.149038	0.924657
H67	H	-0.906160	-1.243191	0.175193
O68	O	-1.113688	-1.250699	0.167774
C69	C	-1.102092	-1.344139	0.074514
C70	C	-1.041804	-1.292310	0.126266
H71	H	-1.043999	-1.377806	0.040952
H72	H	-1.153505	-1.310428	0.035966
H73	H	-1.153416	-1.382592	0.108355
H74	H	-0.990422	-1.253847	0.092485
H75	H	-0.990457	-1.326067	0.164816
H76	H	-0.906204	-0.978144	0.439886
O77	O	-0.373863	-0.488195	0.447402
C78	C	-0.232089	-0.401401	0.457484
C79	C	-0.305945	-0.443655	0.405649
H80	H	-0.177172	-0.365369	0.423748
H81	H	-0.184051	-0.442052	0.491166
H82	H	-0.280425	-0.365462	0.495922
H83	H	-0.257689	-0.479596	0.367166
H84	H	-0.353986	-0.402965	0.372018
O85	O	-0.638604	-1.156478	0.779301
C86	C	-0.771941	-1.249792	0.787426
C87	C	-0.697999	-1.198003	0.829655
H88	H	-0.819997	-1.283367	0.828118
H89	H	-0.723776	-1.288325	0.751472
H90	H	-0.826846	-1.215979	0.751414
H91	H	-0.643079	-1.231757	0.865706
H92	H	-0.746229	-1.159467	0.865562
O93	O	-0.373666	-0.970957	0.779054
C94	C	-0.314189	-0.929210	0.660647
C95	C	-0.388097	-0.980946	0.702962
H96	H	-0.325846	-0.937257	0.599120
H97	H	-0.229446	-0.942153	0.675715
H98	H	-0.332612	-0.869874	0.675788
H99	H	-0.369768	-1.040299	0.687844
H100	H	-0.472818	-0.967940	0.687891
H101	H	-0.384129	-0.978291	0.924643
H102	H	-0.384498	-0.633696	0.440095
