data_functionalizedCrystal
_audit_creation_method	'MofGen! by Chris Wilmer'
_symmetry_space_group_name_H-M	'P1'
_symmetry_Int_Tables_number	1
_symmetry_cell_setting	triclinic
loop_
_symmetry_equiv_pos_as_xyz
  x,y,z
_cell_length_a	11.792241
_cell_length_b	11.792254
_cell_length_c	11.804365
_cell_angle_alpha	78.069043
_cell_angle_beta	78.082170
_cell_angle_gamma	95.803993
loop_
_atom_site_label
_atom_site_type_symbol
_atom_site_fract_x
_atom_site_fract_y
_atom_site_fract_z
O1	O	-0.132864	1.529686	-0.099014
O2	O	-0.148882	1.199347	-0.099015
O3	O	0.024299	1.372535	-0.099021
O4	O	-0.306045	1.356499	-0.099007
O5	O	-0.021247	1.326941	0.099036
O6	O	-0.194428	1.153753	0.099043
O7	O	-0.178410	1.484092	0.099044
Cu8	Cu	-0.190577	1.314760	0.117128
Cu9	Cu	-0.136714	1.368680	-0.117098
O10	O	-0.351590	1.310905	0.099051
C11	C	-0.170646	1.134260	0.000014
C12	C	-0.167625	1.008247	0.000013
C13	C	-0.165170	0.905911	0.000007
C14	C	-0.162101	0.777525	0.000006
C15	C	-0.371109	1.334708	0.000023
C16	C	-0.497124	1.337722	0.000029
C17	C	-0.727830	1.343271	-0.000001
C18	C	-0.599448	1.340188	0.000015
C19	C	0.043818	1.348732	0.000003
C20	C	0.169835	1.345720	-0.000010
C21	C	-0.156646	1.549180	0.000013
C22	C	-0.159664	1.675195	0.000006
N23	N	-0.228461	1.276843	0.281870
N24	N	-0.098822	1.406605	-0.281840
C25	C	-0.007827	1.497655	0.655810
C26	C	0.020836	1.526338	0.531147
C27	C	-0.041485	1.463966	0.468822
C28	C	-0.132476	1.372908	0.531171
C29	C	-0.161149	1.344229	0.655846
C30	C	-0.194807	1.310540	0.468858
C31	C	-0.285797	1.219482	0.531207
C32	C	-0.314465	1.190807	0.655870
C33	C	-0.252143	1.253179	0.718196
C34	C	-0.166134	1.339219	0.344183
C35	C	-0.319455	1.185793	0.344219
C36	C	-0.348119	1.157111	0.468882
H37	H	-0.092050	1.413359	0.293429
H38	H	-0.388563	1.116671	0.706635
H39	H	-0.422207	1.082969	0.519662
N40	N	-0.383120	1.122095	0.280551
N41	N	-0.357512	1.147714	0.169241
H42	H	-0.402474	1.102736	0.124267
H43	H	-0.275477	1.229823	0.819706
H44	H	0.094919	1.600477	0.480387
N45	N	-0.012200	1.493283	0.341483
N46	N	0.069040	1.574586	0.285828
H47	H	0.089728	1.595295	0.195890
H48	H	0.042901	1.548436	0.706564
