data_functionalizedCrystal
_audit_creation_method	'MofGen! by Chris Wilmer'
_symmetry_space_group_name_H-M	'P1'
_symmetry_Int_Tables_number	1
_symmetry_cell_setting	triclinic
loop_
_symmetry_equiv_pos_as_xyz
  x,y,z
_cell_length_a	16.959455
_cell_length_b	25.639239
_cell_length_c	16.959447
_cell_angle_alpha	90.033076
_cell_angle_beta	90.014322
_cell_angle_gamma	90.035633
loop_
_atom_site_label
_atom_site_type_symbol
_atom_site_fract_x
_atom_site_fract_y
_atom_site_fract_z
Zn1	Zn	1.208282	-0.208183	0.446894
Zn2	Zn	1.708282	0.291817	0.946894
Zn3	Zn	1.208161	-0.295624	0.314709
Zn4	Zn	1.708161	0.204376	0.814709
Zn5	Zn	1.076110	-0.208199	0.314731
Zn6	Zn	1.576110	0.291801	0.814731
Zn7	Zn	1.076032	-0.295585	0.446847
Zn8	Zn	1.576032	0.204415	0.946847
O9	O	1.142146	-0.251898	0.380795
O10	O	1.642146	0.248102	0.880795
O11	O	1.318876	-0.219792	0.429369
O12	O	1.818876	0.280208	0.929369
O13	O	1.190627	-0.284050	0.204101
O14	O	1.690627	0.215950	0.704101
O15	O	1.093726	-0.135032	0.332291
O16	O	1.593726	0.364968	0.832291
O17	O	1.318788	-0.284034	0.332253
O18	O	1.818788	0.215966	0.832253
O19	O	1.190832	-0.135020	0.429391
O20	O	1.690832	0.364980	0.929391
O21	O	1.093609	-0.219820	0.204117
O22	O	1.593609	0.280180	0.704117
O23	O	0.965489	-0.219782	0.332247
O24	O	1.465489	0.280218	0.832247
O25	O	1.093593	-0.283967	0.557464
O26	O	1.593593	0.216033	1.057464
O27	O	0.965431	-0.283983	0.429312
O28	O	1.465431	0.216017	0.929312
O29	O	1.190756	-0.219754	0.557498
O30	O	1.690756	0.280246	1.057498
O31	O	1.190551	-0.368784	0.332208
O32	O	1.690551	0.131216	0.832208
O33	O	1.093476	-0.368755	0.429290
O34	O	1.593476	0.131245	0.929290
C35	C	0.936780	-0.251880	0.380777
C36	C	1.436780	0.248120	0.880777
C37	C	0.848923	-0.251886	0.380788
C38	C	1.348923	0.248114	0.880788
C39	C	0.477453	-0.218441	0.330359
C40	C	0.977453	0.281559	0.830359
C41	C	0.477442	-0.285398	0.431277
C42	C	0.977442	0.214602	0.931277
C43	C	0.559988	-0.285390	0.431272
C44	C	1.059988	0.214610	0.931272
C45	C	0.601270	-0.251908	0.380809
C46	C	1.101270	0.248092	0.880809
C47	C	0.560007	-0.218433	0.330351
C48	C	1.060007	0.281567	0.830351
C49	C	0.601258	-0.318868	0.481723
C50	C	1.101258	0.181132	0.981723
C51	C	0.683809	-0.318863	0.481720
C52	C	1.183809	0.181137	0.981720
C53	C	0.725092	-0.285377	0.431260
C54	C	1.225092	0.214623	0.931260
C55	C	0.683824	-0.251901	0.380801
C56	C	1.183824	0.248099	0.880801
C57	C	0.725106	-0.218418	0.330338
C58	C	1.225106	0.281582	0.830338
C59	C	0.683839	-0.184939	0.279882
C60	C	1.183839	0.315061	0.779882
C61	C	0.601290	-0.184948	0.279891
C62	C	1.101290	0.315052	0.779891
C63	C	0.807641	-0.285368	0.431251
C64	C	1.307641	0.214632	0.931251
C65	C	0.807660	-0.218411	0.330330
C66	C	1.307660	0.281589	0.830330
C67	C	1.142013	-0.387740	0.380759
C68	C	1.642013	0.112260	0.880759
C69	C	1.142029	-0.445854	0.380770
C70	C	1.642029	0.054146	0.880770
C71	C	1.192825	-0.806220	0.330331
C72	C	1.692825	-0.306220	0.830331
C73	C	1.192855	-0.860824	0.330341
C74	C	1.692855	-0.360824	0.830341
O75	O	1.235906	-0.889063	0.287417
O76	O	1.735906	-0.389063	0.787417
N77	N	1.142285	-0.888137	0.380847
N78	N	1.642285	-0.388137	0.880847
C79	C	1.091686	-0.860842	0.431352
C80	C	1.591686	-0.360842	0.931352
O81	O	1.048675	-0.889088	0.474313
O82	O	1.548675	-0.389088	0.974313
C83	C	1.091660	-0.806239	0.431345
C84	C	1.591660	-0.306239	0.931345
C85	C	1.142228	-0.778929	0.380830
C86	C	1.642228	-0.278929	0.880830
C87	C	1.243389	-0.778910	0.279820
C88	C	1.743389	-0.278910	0.779820
C89	C	1.243358	-0.724309	0.279809
C90	C	1.743358	-0.224309	0.779809
C91	C	1.192761	-0.697019	0.330308
C92	C	1.692761	-0.197019	0.830308
C93	C	1.142196	-0.724329	0.380818
C94	C	1.642196	-0.224329	0.880818
C95	C	1.041066	-0.778946	0.481853
C96	C	1.541066	-0.278946	0.981853
C97	C	1.041045	-0.724339	0.481842
C98	C	1.541045	-0.224339	0.981842
C99	C	1.091613	-0.697029	0.431326
C100	C	1.591613	-0.197029	0.931326
C101	C	1.091568	-0.642437	0.431306
C102	C	1.591568	-0.142437	0.931306
N103	N	1.142139	-0.615125	0.380800
N104	N	1.642139	-0.115125	0.880800
C105	C	1.192735	-0.642415	0.330301
C106	C	1.692735	-0.142415	0.830301
C107	C	1.091746	-0.975513	0.431364
C108	C	1.591746	-0.475513	0.931364
C109	C	1.091767	-1.030115	0.431368
C110	C	1.591767	-0.530115	0.931368
C111	C	1.192938	-1.030093	0.330358
C112	C	1.692938	-0.530093	0.830358
C113	C	1.192912	-0.975490	0.330351
C114	C	1.692912	-0.475490	0.830351
C115	C	1.142316	-0.948200	0.380858
C116	C	1.642316	-0.448200	0.880858
C117	C	1.192664	-0.527750	0.330280
C118	C	1.692664	-0.027750	0.830280
C119	C	1.192625	-0.473145	0.330271
C120	C	1.692625	0.026855	0.830271
C121	C	1.091458	-0.473172	0.431283
C122	C	1.591458	0.026828	0.931283
C123	C	1.091493	-0.527772	0.431290
C124	C	1.591493	-0.027772	0.931290
C125	C	1.142103	-0.555060	0.380786
C126	C	1.642103	-0.055060	0.880786
O127	O	1.048541	-0.614164	0.474211
O128	O	1.548541	-0.114164	0.974211
O129	O	1.235746	-0.614163	0.287355
O130	O	1.735746	-0.114163	0.787355
C131	C	1.348314	-0.251915	0.380814
C132	C	1.848314	0.248085	0.880814
C133	C	1.436171	-0.251923	0.380822
C134	C	1.936171	0.248077	0.880822
C135	C	1.142179	-0.251854	0.586963
C136	C	1.642179	0.248146	1.086963
C137	C	1.142193	-0.251836	0.674820
C138	C	1.642193	0.248164	1.174820
C139	C	1.142301	-0.115525	0.380849
C140	C	1.642301	0.384475	0.880849
C141	C	1.142367	-0.057411	0.380872
C142	C	1.642367	0.442589	0.880872
C143	C	1.142159	-0.251903	0.175429
C144	C	1.642159	0.248097	0.675429
C145	C	1.142298	-0.251774	0.087573
C146	C	1.642298	0.248226	0.587573
C147	C	1.091699	-0.285214	1.046281
C148	C	1.591699	0.214786	1.546281
C149	C	1.192876	-0.218348	1.046311
C150	C	1.692876	0.281652	1.546311
C151	C	1.192855	-0.218359	0.963765
C152	C	1.692855	0.281641	1.463765
C153	C	1.142256	-0.251799	0.922473
C154	C	1.642256	0.248201	1.422473
C155	C	1.091678	-0.285227	0.963727
C156	C	1.591678	0.214773	1.463727
C157	C	1.243438	-0.184935	0.922505
C158	C	1.743438	0.315065	1.422505
C159	C	1.243419	-0.184945	0.839954
C160	C	1.743419	0.315055	1.339954
C161	C	1.192816	-0.218382	0.798661
C162	C	1.692816	0.281618	1.298661
C163	C	1.142235	-0.251812	0.839920
C164	C	1.642235	0.248188	1.339920
C165	C	1.091636	-0.285251	0.798628
C166	C	1.591636	0.214749	1.298628
C167	C	1.041051	-0.318679	0.839885
C168	C	1.541051	0.181321	1.339885
C169	C	1.041074	-0.318665	0.922433
C170	C	1.541074	0.181335	1.422433
C171	C	1.192792	-0.218396	0.716112
C172	C	1.692792	0.281604	1.216112
C173	C	1.091615	-0.285265	0.716074
C174	C	1.591615	0.214735	1.216074
H175	H	1.233804	-0.450911	0.289133
H176	H	1.733804	0.049089	0.789133
H177	H	1.233980	-0.191182	0.682524
H178	H	1.733980	0.308818	1.182524
H179	H	0.841266	-0.191142	0.289241
H180	H	1.341266	0.308858	0.789241
H181	H	0.999893	-0.345881	0.956033
H182	H	1.499893	0.154119	1.456033
C183	C	1.036052	-0.321978	1.091664
C184	C	1.536052	0.178022	1.591664
N185	N	0.994137	-0.349669	1.125847
N186	N	1.494137	0.150331	1.625847
H187	H	0.443850	-0.191181	0.289281
H188	H	0.943850	0.308819	0.789281
C189	C	0.985384	-0.694323	0.537405
C190	C	1.485384	-0.194323	1.037405
N191	N	0.943460	-0.671717	0.579254
N192	N	1.443460	-0.171717	1.079254
H193	H	1.234076	-0.191126	1.079936
H194	H	1.734076	0.308874	1.579936
C195	C	0.555891	-0.148126	0.224391
C196	C	1.055891	0.351874	0.724391
N197	N	0.521692	-0.120393	0.182587
N198	N	1.021692	0.379607	0.682587
H199	H	0.999884	-0.801172	0.522984
H200	H	1.499884	-0.301172	1.022984
C201	C	1.036086	-0.945499	0.486933
C202	C	1.536086	-0.445499	0.986933
N203	N	0.994168	-0.922896	0.528791
N204	N	1.494168	-0.422896	1.028791
H205	H	1.050319	-0.550009	0.472426
H206	H	1.550319	-0.050009	0.972426
C207	C	1.248332	-0.557759	0.274718
C208	C	1.748332	-0.057759	0.774718
N209	N	1.290257	-0.580361	0.232864
N210	N	1.790257	-0.080361	0.732864
C211	C	1.248602	-1.060123	0.274814
C212	C	1.748602	-0.560123	0.774814
N213	N	1.290526	-1.082744	0.232982
N214	N	1.790526	-0.582744	0.732982
H215	H	1.050403	-0.312491	0.682460
H216	H	1.550403	0.187509	1.182460
C217	C	0.729260	-0.148107	0.224377
C218	C	1.229260	0.351893	0.724377
N219	N	0.763475	-0.120365	0.182575
N220	N	1.263475	0.379635	0.682575
H221	H	0.999857	-0.345907	0.806254
H222	H	1.499857	0.154093	1.306254
C223	C	0.555843	-0.355698	0.537226
C224	C	1.055843	0.144302	1.037226
N225	N	0.521632	-0.383438	0.579034
N226	N	1.021632	0.116562	1.079034
H227	H	1.284596	-0.801124	0.238698
H228	H	1.784596	-0.301124	0.738698
C229	C	0.432029	-0.322228	0.486781
C230	C	0.932029	0.177772	0.986781
N231	N	0.397820	-0.349968	0.528590
N232	N	0.897820	0.150032	1.028590
C233	C	1.035807	-0.443142	0.486832
C234	C	1.535807	0.056858	0.986832
N235	N	0.993896	-0.420521	0.528677
N236	N	1.493896	0.079479	1.028677
C237	C	1.299084	-0.148148	0.967931
C238	C	1.799084	0.351852	1.467931
N239	N	1.340994	-0.120436	1.002150
N240	N	1.840994	0.379564	1.502150
H241	H	1.284608	-0.157726	0.806369
H242	H	1.784608	0.342274	1.306369
H243	H	0.717401	-0.346123	0.522805
H244	H	1.217401	0.153877	1.022805
C245	C	0.853031	-0.322193	0.486749
C246	C	1.353031	0.177807	0.986749
N247	N	0.887218	-0.349931	0.528555
N248	N	1.387218	0.150069	1.028555
H249	H	1.284537	-0.702077	0.238678
H250	H	1.784537	-0.202077	0.738678
C251	C	1.248542	-0.945454	0.274784
C252	C	1.748542	-0.445454	0.774784
N253	N	1.290447	-0.922834	0.232929
N254	N	1.790447	-0.422834	0.732929
H255	H	1.050582	-1.052346	0.472495
H256	H	1.550582	-0.552346	0.972495
