data_functionalizedCrystal
_audit_creation_method	'MofGen! by Chris Wilmer'
_symmetry_space_group_name_H-M	'P1'
_symmetry_Int_Tables_number	1
_symmetry_cell_setting	triclinic
loop_
_symmetry_equiv_pos_as_xyz
  x,y,z
_cell_length_a	10.540535
_cell_length_b	10.540539
_cell_length_c	15.186229
_cell_angle_alpha	89.998389
_cell_angle_beta	89.999024
_cell_angle_gamma	84.524567
loop_
_atom_site_label
_atom_site_type_symbol
_atom_site_fract_x
_atom_site_fract_y
_atom_site_fract_z
O1	O	1.685889	0.178871	-0.073176
O2	O	1.316475	0.195733	-0.073188
O3	O	1.509610	0.002596	-0.073180
O4	O	1.492754	0.372009	-0.073183
O5	O	1.509597	0.002593	0.073277
O6	O	1.316462	0.195730	0.073269
O7	O	1.685876	0.178869	0.073281
Zn8	Zn	1.501167	0.187299	0.096529
Zn9	Zn	1.501184	0.187303	-0.096435
O10	O	1.492741	0.372006	0.073274
C11	C	1.269165	0.194469	0.000039
C12	C	1.128217	0.190689	0.000035
C13	C	1.091546	0.049675	0.000039
C14	C	0.944946	0.045698	0.000380
C15	C	0.918874	0.255058	0.083516
C16	C	1.065639	0.258058	0.083578
C17	C	1.065538	0.260113	-0.082978
C18	C	0.919192	0.253592	-0.084066
C19	C	1.508339	-0.044709	0.000047
C20	C	1.504557	-0.185657	0.000042
C21	C	1.359640	-0.369081	-0.000292
C22	C	1.363474	-0.222463	0.000038
C23	C	1.572446	-0.247317	0.083678
C24	C	1.567631	-0.393861	0.083748
C25	C	1.570515	-0.394376	-0.082801
C26	C	1.571814	-0.247395	-0.083906
C27	C	1.733185	0.180133	0.000052
C28	C	1.874134	0.183913	0.000051
C29	C	1.494011	0.419311	0.000045
C30	C	1.497793	0.560259	0.000044
N31	N	1.501164	0.187296	0.228221
N32	N	1.501196	0.187296	-0.228128
C33	C	1.586714	0.101804	0.453947
C34	C	1.586718	0.101801	0.546137
C35	C	1.415637	0.272792	0.546140
C36	C	1.415628	0.272788	0.453952
C37	C	1.501174	0.187295	0.407858
C38	C	1.501187	0.187297	0.592236
C39	C	1.501190	0.187294	0.692192
C40	C	1.501169	0.187296	0.307895
H41	H	0.887966	0.206244	0.145871
H42	H	1.672419	-0.441604	-0.083360
H43	H	1.345965	0.342406	0.416423
Br44	Br	1.743257	-0.207019	-0.092328
H45	H	1.656369	0.032189	0.416420
H46	H	1.656371	0.032184	0.583661
H47	H	1.133521	-0.004474	-0.059807
H48	H	1.134999	-0.003570	0.059806
H49	H	0.916488	-0.009672	0.060566
H50	H	0.915614	-0.009942	-0.059439
Br51	Br	1.132592	0.177976	0.187967
H52	H	1.517447	-0.422061	0.146265
H53	H	1.345990	0.342400	0.583678
H54	H	1.088670	0.361432	0.087143
H55	H	1.108002	0.216112	-0.146263
Br56	Br	0.839951	0.424677	0.088301
H57	H	0.870144	0.354465	-0.089366
H58	H	1.087723	0.363865	-0.083786
Br59	Br	1.266750	-0.416739	-0.100261
H60	H	0.890595	0.201817	-0.145815
H61	H	1.310055	-0.179858	-0.059916
Br62	Br	1.266846	-0.420035	0.098804
H63	H	1.309670	-0.180707	0.060089
H64	H	1.522141	-0.206534	-0.145778
H65	H	1.669096	-0.441832	0.087546
Br66	Br	1.493831	-0.176322	0.187413
Br67	Br	1.745135	-0.210070	0.088872
Br68	Br	1.494407	-0.446944	-0.188458
