data_functionalizedCrystal
_audit_creation_method	'MofGen! by Chris Wilmer'
_symmetry_space_group_name_H-M	'P1'
_symmetry_Int_Tables_number	1
_symmetry_cell_setting	triclinic
loop_
_symmetry_equiv_pos_as_xyz
  x,y,z
_cell_length_a	14.971486
_cell_length_b	19.288865
_cell_length_c	14.048226
_cell_angle_alpha	89.988335
_cell_angle_beta	89.998499
_cell_angle_gamma	83.375189
loop_
_atom_site_label
_atom_site_type_symbol
_atom_site_fract_x
_atom_site_fract_y
_atom_site_fract_z
O1	O	1.186458	0.090517	-0.079062
O2	O	0.925999	0.101357	-0.079090
O3	O	1.063754	-0.005169	-0.079056
O4	O	1.048702	0.197043	-0.079096
O5	O	1.063738	-0.005175	0.079265
O6	O	0.925982	0.101351	0.079232
O7	O	1.186441	0.090511	0.079259
Zn8	Zn	1.056209	0.095930	0.104382
Zn9	Zn	1.056231	0.095938	-0.104213
O10	O	1.048686	0.197037	0.079226
C11	C	0.892669	0.100869	0.000068
C12	C	0.793379	0.099416	0.000058
C13	C	0.735816	0.161997	0.000047
C14	C	0.642524	0.160628	0.000062
C15	C	0.606797	0.096677	0.000080
C16	C	0.664368	0.034092	0.000094
C17	C	0.757658	0.035461	0.000086
C18	C	0.469921	0.031241	0.000108
C19	C	0.376624	0.029871	0.000113
C20	C	0.354786	0.156407	0.000083
C21	C	0.448077	0.157777	0.000075
C22	C	0.505641	0.095191	0.000087
C23	C	1.063262	-0.031050	0.000107
C24	C	1.061808	-0.108158	0.000115
C25	C	1.142636	-0.152591	0.000128
C26	C	1.141271	-0.225043	0.000113
C27	C	1.059071	-0.253058	0.000104
C28	C	0.978232	-0.208615	0.000085
C29	C	0.979600	-0.136166	0.000091
C30	C	0.994448	-0.361558	0.055554
C31	C	0.993083	-0.434007	0.055554
C32	C	1.054848	-0.476517	0.000082
C33	C	1.117994	-0.446571	-0.055378
C34	C	1.119362	-0.374121	-0.055372
C35	C	1.057579	-0.331617	0.000097
C36	C	1.134201	-0.599511	0.000077
C37	C	1.132832	-0.671963	0.000056
C38	C	0.969791	-0.655535	0.000038
C39	C	0.971163	-0.583084	0.000050
C40	C	1.053370	-0.555077	0.000074
C41	C	1.219771	0.090999	0.000099
C42	C	1.319061	0.092452	0.000103
C43	C	1.049178	0.222918	0.000060
C44	C	1.050632	0.300026	0.000046
N45	N	1.056201	0.095924	0.246743
N46	N	1.056246	0.095939	-0.246574
C47	C	1.117218	0.048774	0.296576
C48	C	1.117224	0.048773	0.396233
C49	C	1.056217	0.095927	0.446056
C50	C	0.995193	0.143079	0.396217
C51	C	0.995183	0.143076	0.296561
C52	C	0.995219	0.143084	0.603931
C53	C	0.995229	0.143089	0.703593
C54	C	1.117259	0.048782	0.703603
C55	C	1.117250	0.048778	0.603947
C56	C	1.056227	0.095932	0.554115
H57	H	0.516788	-0.019723	0.000119
O58	O	0.934321	-0.320328	0.109380
C59	C	0.846218	-0.329170	0.080285
H60	H	0.846387	-0.381886	0.043572
H61	H	0.800230	-0.327027	0.145153
H62	H	0.820796	-0.285748	0.028604
H63	H	0.941662	-0.458383	0.100707
H64	H	0.764896	0.214073	0.000032
H65	H	0.945550	0.181485	0.744154
H66	H	0.911305	-0.231430	0.000076
H67	H	1.170775	-0.349742	-0.100531
O68	O	0.342020	-0.032291	0.000010
C69	C	0.371435	-0.070444	-0.081985
H70	H	0.436069	-0.051470	-0.109331
H71	H	0.384607	-0.128275	-0.063524
H72	H	0.317417	-0.062440	-0.139403
O73	O	0.813451	-0.025394	0.000049
C74	C	0.761916	-0.082133	0.000089
H75	H	0.692212	-0.064561	-0.029884
H76	H	0.796508	-0.125984	-0.045869
H77	H	0.755356	-0.101735	0.076048
O78	O	0.482896	0.219852	0.000168
C79	C	0.536201	0.224438	0.082163
H80	H	0.559648	0.169713	0.109525
H81	H	0.597187	0.252165	0.063696
H82	H	0.494873	0.255145	0.139572
H83	H	0.635272	-0.017978	0.000123
H84	H	0.913778	-0.099988	0.000081
H85	H	0.945524	0.181479	0.563360
O86	O	1.222436	-0.125306	0.000013
C87	C	1.228127	-0.083892	-0.081994
H88	H	1.157560	-0.065899	-0.109338
H89	H	1.263594	-0.036427	-0.063548
H90	H	1.267830	-0.115861	-0.139407
H91	H	1.168289	-0.481182	-0.100548
O92	O	1.214131	-0.572414	0.000042
C93	C	1.285183	-0.627173	0.000060
H94	H	1.260310	-0.676404	-0.029918
H95	H	1.342591	-0.611975	-0.045904
H96	H	1.310103	-0.637418	0.076014
O97	O	1.219873	-0.268116	0.000171
C98	C	1.292723	-0.227860	0.000165
H99	H	1.269800	-0.173811	0.030136
H100	H	1.349330	-0.254546	0.046142
H101	H	1.317950	-0.222670	-0.075783
H102	H	0.595658	0.211588	0.000052
O103	O	0.935893	0.188788	0.444719
C104	C	0.880861	0.151519	0.502370
H105	H	0.916710	0.097213	0.517311
H106	H	0.866603	0.180494	0.572441
H107	H	0.814773	0.146713	0.463978
H108	H	1.166946	0.010388	0.744183
H109	H	0.945496	0.181469	0.255988
O110	O	1.176516	0.002901	0.248329
C111	C	1.230386	-0.038703	0.313688
H112	H	1.193725	-0.039532	0.384731
H113	H	1.244255	-0.094158	0.284914
H114	H	1.296737	-0.016064	0.324270
O115	O	1.211331	-0.715155	-0.000104
C116	C	1.215424	-0.757548	-0.082095
H117	H	1.169586	-0.731042	-0.139410
H118	H	1.287510	-0.765625	-0.109605
H119	H	1.192486	-0.810255	-0.063571
H120	H	1.166908	0.010380	0.436807
O121	O	0.890020	-0.682855	0.000067
C122	C	0.906143	-0.756330	0.000034
H123	H	0.976008	-0.773291	0.030019
H124	H	0.853554	-0.778630	0.045985
H125	H	0.901903	-0.776484	-0.075925
O126	O	0.892563	-0.540017	0.000091
C127	C	0.819716	-0.580277	0.000056
H128	H	0.842635	-0.634336	0.030026
H129	H	0.763095	-0.553608	0.046018
H130	H	0.794512	-0.585442	-0.075902
O131	O	1.176546	0.002908	0.555695
C132	C	1.230423	-0.038699	0.621046
H133	H	1.193768	-0.039532	0.692092
H134	H	1.244292	-0.094152	0.592265
H135	H	1.296773	-0.016059	0.631624
H136	H	0.307912	0.207367	0.000078
