data_functionalizedCrystal
_audit_creation_method	'MofGen! by Chris Wilmer'
_symmetry_space_group_name_H-M	'P1'
_symmetry_Int_Tables_number	1
_symmetry_cell_setting	triclinic
loop_
_symmetry_equiv_pos_as_xyz
  x,y,z
_cell_length_a	18.215407
_cell_length_b	18.215404
_cell_length_c	18.215399
_cell_angle_alpha	89.972485
_cell_angle_beta	90.019833
_cell_angle_gamma	89.975729
loop_
_atom_site_label
_atom_site_type_symbol
_atom_site_fract_x
_atom_site_fract_y
_atom_site_fract_z
Zn1	Zn	1.125077	0.292983	0.416118
Zn2	Zn	1.458411	0.626316	0.749451
Zn3	Zn	1.791744	0.959650	1.082785
Zn4	Zn	1.124988	0.416054	0.293053
Zn5	Zn	1.458321	0.749388	0.626386
Zn6	Zn	1.791655	1.082721	0.959719
Zn7	Zn	1.002010	0.293007	0.293065
Zn8	Zn	1.335343	0.626340	0.626399
Zn9	Zn	1.668677	0.959674	0.959732
Zn10	Zn	1.001978	0.416013	0.416078
Zn11	Zn	1.335311	0.749347	0.749411
Zn12	Zn	1.668645	1.082680	1.082744
O13	O	1.063513	0.354514	0.354578
O14	O	1.396847	0.687848	0.687912
O15	O	1.730180	1.021181	1.021245
O16	O	1.228050	0.309316	0.399805
O17	O	1.561383	0.642649	0.733138
O18	O	1.894716	0.975982	1.066471
O19	O	1.108651	0.399759	0.190070
O20	O	1.441984	0.733092	0.523403
O21	O	1.775317	1.066426	0.856737
O22	O	1.018386	0.190020	0.309411
O23	O	1.351719	0.523353	0.642744
O24	O	1.685052	0.856686	0.976078
O25	O	1.227984	0.399736	0.309389
O26	O	1.561318	0.733069	0.642723
O27	O	1.894651	1.066402	0.976056
O28	O	1.108803	0.190002	0.399817
O29	O	1.442136	0.523335	0.733150
O30	O	1.775470	0.856669	1.066484
O31	O	1.018299	0.309357	0.190079
O32	O	1.351633	0.642690	0.523413
O33	O	1.684966	0.976023	0.856746
O34	O	0.899021	0.309317	0.309372
O35	O	1.232355	0.642650	0.642705
O36	O	1.565688	0.975984	0.976038
O37	O	1.018332	0.399666	0.519067
O38	O	1.351665	0.732999	0.852401
O39	O	1.684998	1.066333	1.185734
O40	O	0.898998	0.399689	0.399748
O41	O	1.232331	0.733023	0.733082
O42	O	1.565665	1.066356	1.066415
O43	O	1.108772	0.309276	0.519097
O44	O	1.442105	0.642609	0.852430
O45	O	1.775439	0.975943	1.185764
O46	O	1.108620	0.519033	0.309350
O47	O	1.441953	0.852366	0.642683
O48	O	1.775286	1.185700	0.976017
O49	O	1.018245	0.519003	0.399736
O50	O	1.351578	0.852336	0.733069
O51	O	1.684912	1.185670	1.066403
C52	C	0.872307	0.354502	0.354557
C53	C	1.205640	0.687835	0.687891
C54	C	1.538974	1.021169	1.021224
C55	C	0.790508	0.354514	0.354566
C56	C	1.123842	0.687848	0.687899
C57	C	1.457175	1.021181	1.021232
C58	C	1.063439	0.545721	0.354553
C59	C	1.396773	0.879054	0.687887
C60	C	1.730106	1.212387	1.021220
C61	C	1.063475	0.627520	0.354567
C62	C	1.396808	0.960853	0.687900
C63	C	1.730141	1.294186	1.021234
C64	C	0.602321	0.401645	0.401566
C65	C	0.935655	0.734978	0.734899
C66	C	1.268988	1.068312	1.068232
C67	C	0.525463	0.401647	0.401575
C68	C	0.858796	0.734981	0.734908
C69	C	1.192129	1.068314	1.068242
C70	C	0.525457	0.307397	0.307607
C71	C	0.858791	0.640731	0.640941
C72	C	1.192124	0.974064	0.974274
C73	C	0.602315	0.307392	0.307602
C74	C	0.935648	0.640725	0.640936
C75	C	1.268981	0.974058	0.974269
C76	C	0.640745	0.354520	0.354581
C77	C	0.974078	0.687853	0.687914
C78	C	1.307411	1.021186	1.021247
C79	C	0.487029	0.354528	0.354595
C80	C	0.820362	0.687861	0.687928
C81	C	1.153695	1.021194	1.021261
C82	C	0.403695	0.354530	0.354604
C83	C	0.737028	0.687863	0.687938
C84	C	1.070362	1.021196	1.021271
C85	C	0.724084	0.354517	0.354572
C86	C	1.057417	0.687850	0.687905
C87	C	1.390750	1.021184	1.021239
C88	C	1.110647	0.815705	0.307600
C89	C	1.443980	1.149038	0.640933
C90	C	1.777314	1.482371	0.974266
C91	C	1.110681	0.892563	0.307622
C92	C	1.444015	1.225897	0.640955
C93	C	1.777348	1.559230	0.974288
C94	C	1.016492	0.892572	0.401663
C95	C	1.349826	1.225905	0.734996
C96	C	1.683159	1.559239	1.068330
C97	C	1.016462	0.815715	0.401644
C98	C	1.349796	1.149048	0.734978
C99	C	1.683129	1.482381	1.068311
C100	C	1.063539	0.777283	0.354609
C101	C	1.396872	1.110616	0.687942
C102	C	1.730205	1.443950	1.021275
C103	C	1.063603	0.930999	0.354649
C104	C	1.396936	1.264332	0.687982
C105	C	1.730270	1.597666	1.021316
C106	C	1.063640	1.014333	0.354673
C107	C	1.396973	1.347666	0.688007
C108	C	1.730307	1.680999	1.021340
C109	C	1.063503	0.693944	0.354585
C110	C	1.396836	1.027277	0.687919
C111	C	1.730170	1.360611	1.021252
C112	C	1.255466	0.354528	0.354600
C113	C	1.588800	0.687861	0.687933
C114	C	1.922133	1.021194	1.021267
C115	C	1.337265	0.354533	0.354609
C116	C	1.670598	0.687867	0.687943
C117	C	2.003932	1.021200	1.021276
C118	C	1.063613	1.162561	0.354633
C119	C	1.396946	1.495895	0.687967
C120	C	1.730279	1.829228	1.021300
C121	C	1.063667	1.080763	0.354691
C122	C	1.397000	1.414096	0.688024
C123	C	1.730333	1.747429	1.021357
C124	C	1.063558	0.354464	0.546531
C125	C	1.396892	0.687797	0.879865
C126	C	1.730225	1.021130	1.213198
C127	C	1.063577	0.354442	0.628330
C128	C	1.396911	0.687775	0.961664
C129	C	1.730244	1.021109	1.294997
C130	C	1.063511	0.354512	0.163372
C131	C	1.396844	0.687845	0.496706
C132	C	1.730178	1.021179	0.830039
C133	C	1.063635	0.354326	0.081574
C134	C	1.396968	0.687660	0.414907
C135	C	1.730301	1.020993	0.748240
C136	C	1.110687	0.307332	0.816541
C137	C	1.444020	0.640665	1.149874
C138	C	1.777353	0.973999	1.483208
C139	C	1.110695	0.307311	0.893400
C140	C	1.444029	0.640644	1.226733
C141	C	1.777362	0.973977	1.560067
C142	C	1.016520	0.401438	0.893358
C143	C	1.349853	0.734772	1.226691
C144	C	1.683187	1.068105	1.560024
C145	C	1.016508	0.401455	0.816500
C146	C	1.349841	0.734789	1.149834
C147	C	1.683175	1.068122	1.483167
C148	C	1.063596	0.354403	0.778094
C149	C	1.396929	0.687737	1.111427
C150	C	1.730262	1.021070	1.444761
C151	C	1.063616	0.354365	0.931810
C152	C	1.396950	0.687698	1.265144
C153	C	1.730283	1.021031	1.598477
C154	C	1.063625	0.354342	1.015144
C155	C	1.396959	0.687675	1.348477
C156	C	1.730292	1.021009	1.681811
C157	C	1.063586	0.354425	0.694755
C158	C	1.396919	0.687759	1.028088
C159	C	1.730252	1.021092	1.361422
H160	H	0.633609	0.440018	0.439820
H161	H	0.966942	0.773351	0.773154
H162	H	1.300275	1.106684	1.106487
C163	C	1.162501	0.934824	0.255905
C164	C	1.495835	1.268157	0.589238
C165	C	1.829168	1.601490	0.922572
N166	N	1.201534	0.966654	0.216949
N167	N	1.534867	1.299987	0.550282
N168	N	1.868201	1.633321	0.883616
H169	H	0.494182	0.440020	0.439836
H170	H	0.827515	0.773354	0.773170
H171	H	1.160848	1.106687	1.106503
C172	C	0.644583	0.255548	0.255912
C173	C	0.977916	0.588881	0.589245
C174	C	1.311250	0.922215	0.922579
N175	N	0.676419	0.216500	0.216981
N176	N	1.009753	0.549833	0.550315
N177	N	1.343086	0.883167	0.883648
H178	H	0.494158	0.269028	0.269358
H179	H	0.827492	0.602362	0.602692
H180	H	1.160825	0.935695	0.936025
C181	C	1.162436	0.773433	0.255863
C182	C	1.495769	1.106766	0.589196
C183	C	1.829103	1.440099	0.922530
N184	N	1.201447	0.741595	0.216895
N185	N	1.534780	1.074929	0.550228
N186	N	1.868114	1.408262	0.883562
H187	H	0.978164	0.923873	0.439957
H188	H	1.311497	1.257206	0.773290
H189	H	1.644830	1.590539	1.106624
H190	H	1.149040	0.268979	0.924700
H191	H	1.482374	0.602313	1.258033
H192	H	1.815707	0.935646	1.591367
H193	H	0.978185	0.439748	0.924637
H194	H	1.311518	0.773081	1.257971
H195	H	1.644851	1.106415	1.591304
C196	C	0.964652	0.773448	0.453376
C197	C	1.297985	1.106782	0.786709
C198	C	1.631318	1.440115	1.120042
N199	N	0.925636	0.741613	0.492344
N200	N	1.258970	1.074947	0.825678
N201	N	1.592303	1.408280	1.159011
H202	H	1.149026	0.269017	0.785273
H203	H	1.482360	0.602351	1.118606
H204	H	1.815693	0.935684	1.451940
H205	H	0.978156	0.439786	0.785196
H206	H	1.311489	0.773119	1.118529
H207	H	1.644822	1.106453	1.451862
