data_functionalizedCrystal
_audit_creation_method	'MofGen! by Chris Wilmer'
_symmetry_space_group_name_H-M	'P1'
_symmetry_Int_Tables_number	1
_symmetry_cell_setting	triclinic
loop_
_symmetry_equiv_pos_as_xyz
  x,y,z
_cell_length_a	14.519709
_cell_length_b	11.792241
_cell_length_c	10.268362
_cell_angle_alpha	89.999626
_cell_angle_beta	89.993769
_cell_angle_gamma	83.936780
loop_
_atom_site_label
_atom_site_type_symbol
_atom_site_fract_x
_atom_site_fract_y
_atom_site_fract_z
O1	O	0.126405	1.506208	-0.108177
O2	O	0.376405	1.756208	0.141823
O3	O	0.626405	2.006208	0.391823
O4	O	0.876405	2.256208	0.641823
O5	O	0.139432	1.175795	-0.108207
O6	O	0.389432	1.425795	0.141793
O7	O	0.639432	1.675795	0.391793
O8	O	0.889432	1.925795	0.641793
O9	O	-0.001288	1.349762	-0.108180
O10	O	0.248712	1.599762	0.141820
O11	O	0.498712	1.849762	0.391820
O12	O	0.748712	2.099762	0.641820
O13	O	0.267125	1.332241	-0.108205
O14	O	0.517125	1.582241	0.141795
O15	O	0.767125	1.832241	0.391795
O16	O	1.017125	2.082241	0.641795
O17	O	-0.001294	1.349747	0.108421
O18	O	0.248706	1.599747	0.358421
O19	O	0.498706	1.849747	0.608421
O20	O	0.748706	2.099747	0.858421
O21	O	0.139426	1.175780	0.108393
O22	O	0.389426	1.425780	0.358393
O23	O	0.639426	1.675780	0.608393
O24	O	0.889426	1.925780	0.858393
O25	O	0.126399	1.506193	0.108424
O26	O	0.376399	1.756193	0.358424
O27	O	0.626399	2.006193	0.608424
O28	O	0.876399	2.256193	0.858424
Cu29	Cu	0.132912	1.340985	0.128186
Cu30	Cu	0.382912	1.590985	0.378186
Cu31	Cu	0.632912	1.840985	0.628186
Cu32	Cu	0.882912	2.090985	0.878186
Cu33	Cu	0.132919	1.341003	-0.127969
Cu34	Cu	0.382919	1.591003	0.122031
Cu35	Cu	0.632919	1.841003	0.372031
Cu36	Cu	0.882919	2.091003	0.622031
O37	O	0.267119	1.332226	0.108396
O38	O	0.517119	1.582226	0.358396
O39	O	0.767119	1.832226	0.608396
O40	O	1.017119	2.082226	0.858396
C41	C	0.138611	1.133501	0.000089
C42	C	0.388611	1.383501	0.250089
C43	C	0.638611	1.633501	0.500089
C44	C	0.888611	1.883501	0.750089
C45	C	0.136161	1.007501	0.000078
C46	C	0.386161	1.257501	0.250078
C47	C	0.636161	1.507501	0.500078
C48	C	0.886161	1.757501	0.750078
C49	C	0.131657	0.776813	0.000116
C50	C	0.381657	1.026813	0.250116
C51	C	0.631657	1.276813	0.500116
C52	C	0.881657	1.526813	0.750116
C53	C	0.134160	0.905185	0.000095
C54	C	0.384160	1.155185	0.250095
C55	C	0.634160	1.405185	0.500095
C56	C	0.884160	1.655185	0.750095
C57	C	-0.035654	1.348938	0.000121
C58	C	0.214346	1.598938	0.250121
C59	C	0.464346	1.848938	0.500121
C60	C	0.714346	2.098938	0.750121
C61	C	-0.138044	1.346491	0.000121
C62	C	0.111956	1.596491	0.250121
C63	C	0.361956	1.846491	0.500121
C64	C	0.611956	2.096491	0.750121
C65	C	-0.512973	1.337483	0.000087
C66	C	-0.262973	1.587483	0.250087
C67	C	-0.012973	1.837483	0.500087
C68	C	0.237027	2.087483	0.750087
C69	C	-0.408656	1.339984	0.000097
C70	C	-0.158656	1.589984	0.250097
C71	C	0.091344	1.839984	0.500097
C72	C	0.341344	2.089984	0.750097
C73	C	-0.325512	1.341987	0.000105
C74	C	-0.075512	1.591987	0.250105
C75	C	0.174488	1.841987	0.500105
C76	C	0.424488	2.091987	0.750105
C77	C	-0.221188	1.344489	0.000113
C78	C	0.028812	1.594489	0.250113
C79	C	0.278812	1.844489	0.500113
C80	C	0.528812	2.094489	0.750113
C81	C	0.301484	1.333050	0.000093
C82	C	0.551484	1.583050	0.250093
C83	C	0.801484	1.833050	0.500093
C84	C	1.051484	2.083050	0.750093
C85	C	0.403875	1.335497	0.000084
C86	C	0.653875	1.585497	0.250084
C87	C	0.903875	1.835497	0.500084
C88	C	1.153875	2.085497	0.750084
C89	C	0.127220	1.548487	0.000124
C90	C	0.377220	1.798487	0.250124
C91	C	0.627220	2.048487	0.500124
C92	C	0.877220	2.298487	0.750124
C93	C	0.129669	1.674487	0.000127
C94	C	0.379669	1.924487	0.250127
C95	C	0.629669	2.174487	0.500127
C96	C	0.879669	2.424487	0.750127
N97	N	0.132906	1.340981	0.308352
N98	N	0.382906	1.590981	0.558352
N99	N	0.632906	1.840981	0.808352
N100	N	0.882906	2.090981	1.058352
N101	N	0.132917	1.341016	-0.308135
N102	N	0.382917	1.591016	-0.058135
N103	N	0.632917	1.841016	0.191865
N104	N	0.882917	2.091016	0.441865
C105	C	0.132917	1.340997	0.574022
C106	C	0.382917	1.590997	0.824022
C107	C	0.632917	1.840997	1.074022
C108	C	0.882917	2.090997	1.324022
C109	C	0.132914	1.340984	0.426184
C110	C	0.382914	1.590984	0.676184
C111	C	0.632914	1.840984	0.926184
C112	C	0.882914	2.090984	1.176184
