data_functionalizedCrystal
_audit_creation_method	'MofGen! by Chris Wilmer'
_symmetry_space_group_name_H-M	'P1'
_symmetry_Int_Tables_number	1
_symmetry_cell_setting	triclinic
loop_
_symmetry_equiv_pos_as_xyz
  x,y,z
_cell_length_a	14.519731
_cell_length_b	15.995350
_cell_length_c	12.996460
_cell_angle_alpha	89.996086
_cell_angle_beta	89.994327
_cell_angle_gamma	83.590614
loop_
_atom_site_label
_atom_site_type_symbol
_atom_site_fract_x
_atom_site_fract_y
_atom_site_fract_z
O1	O	1.223657	0.109845	-0.085564
O2	O	1.473657	0.359845	0.164436
O3	O	1.723657	0.609845	0.414436
O4	O	1.973657	0.859845	0.664436
O5	O	0.955159	0.122752	-0.085565
O6	O	1.205159	0.372752	0.164435
O7	O	1.455159	0.622752	0.414435
O8	O	1.705159	0.872752	0.664435
O9	O	1.096748	-0.005578	-0.085563
O10	O	1.346748	0.244422	0.164437
O11	O	1.596748	0.494422	0.414437
O12	O	1.846748	0.744422	0.664437
O13	O	1.082069	0.238175	-0.085565
O14	O	1.332069	0.488175	0.164435
O15	O	1.582069	0.738175	0.414435
O16	O	1.832069	0.988175	0.664435
O17	O	1.096733	-0.005585	0.085571
O18	O	1.346733	0.244415	0.335571
O19	O	1.596733	0.494415	0.585571
O20	O	1.846733	0.744415	0.835571
O21	O	0.955145	0.122745	0.085569
O22	O	1.205145	0.372745	0.335569
O23	O	1.455145	0.622745	0.585569
O24	O	1.705145	0.872745	0.835569
O25	O	1.223642	0.109838	0.085570
O26	O	1.473642	0.359838	0.335570
O27	O	1.723642	0.609838	0.585570
O28	O	1.973642	0.859838	0.835570
Cu29	Cu	1.089392	0.116291	0.101195
Cu30	Cu	1.339392	0.366291	0.351195
Cu31	Cu	1.589392	0.616291	0.601195
Cu32	Cu	1.839392	0.866291	0.851195
Cu33	Cu	1.089410	0.116299	-0.101190
Cu34	Cu	1.339410	0.366299	0.148810
Cu35	Cu	1.589410	0.616299	0.398810
Cu36	Cu	1.839410	0.866299	0.648810
O37	O	1.082054	0.238167	0.085569
O38	O	1.332054	0.488167	0.335569
O39	O	1.582054	0.738167	0.585569
O40	O	1.832054	0.988167	0.835569
C41	C	0.920794	0.122144	0.000002
C42	C	1.170794	0.372144	0.250002
C43	C	1.420794	0.622144	0.500002
C44	C	1.670794	0.872144	0.750002
C45	C	0.818417	0.120331	0.000001
C46	C	1.068417	0.370331	0.250001
C47	C	1.318417	0.620331	0.500001
C48	C	1.568417	0.870331	0.750001
C49	C	0.735275	0.118859	-0.000003
C50	C	0.985275	0.368859	0.249997
C51	C	1.235275	0.618859	0.499997
C52	C	1.485275	0.868859	0.749997
C53	C	0.630970	0.117019	-0.000003
C54	C	0.880970	0.367019	0.249997
C55	C	1.130970	0.617019	0.499997
C56	C	1.380970	0.867019	0.749997
C57	C	0.547834	0.115559	-0.000003
C58	C	0.797834	0.365559	0.249997
C59	C	1.047834	0.615559	0.499997
C60	C	1.297834	0.865559	0.749997
C61	C	0.443521	0.113719	-0.000005
C62	C	0.693521	0.363719	0.249995
C63	C	0.943521	0.613719	0.499995
C64	C	1.193521	0.863719	0.749995
C65	C	1.096134	-0.036777	0.000002
C66	C	1.346134	0.213223	0.250002
C67	C	1.596134	0.463223	0.500002
C68	C	1.846134	0.713223	0.750002
C69	C	1.094314	-0.129730	-0.000004
C70	C	1.344314	0.120270	0.249996
C71	C	1.594314	0.370270	0.499996
C72	C	1.844314	0.620270	0.749996
C73	C	1.087781	-0.467488	-0.000001
C74	C	1.337781	-0.217488	0.249999
C75	C	1.587781	0.032512	0.499999
C76	C	1.837781	0.282512	0.749999
C77	C	0.986944	-0.420212	-0.000385
C78	C	1.236944	-0.170212	0.249615
C79	C	1.486944	0.079788	0.499615
C80	C	1.736944	0.329788	0.749615
C81	C	0.988764	-0.323519	0.000001
C82	C	1.238764	-0.073519	0.250001
C83	C	1.488764	0.176481	0.500001
C84	C	1.738764	0.426481	0.750001
C85	C	1.091021	-0.299922	-0.000003
C86	C	1.341021	-0.049922	0.249997
C87	C	1.591021	0.200078	0.499997
C88	C	1.841021	0.450078	0.749997
C89	C	1.140749	-0.340926	0.097721
C90	C	1.390749	-0.090926	0.347721
C91	C	1.640749	0.159074	0.597721
C92	C	1.890749	0.409074	0.847721
C93	C	1.138216	-0.437566	0.097803
C94	C	1.388216	-0.187566	0.347803
C95	C	1.638216	0.062434	0.597803
C96	C	1.888216	0.312434	0.847803
C97	C	1.140316	-0.437912	-0.096808
C98	C	1.390316	-0.187912	0.153192
C99	C	1.640316	0.062088	0.403192
C100	C	1.890316	0.312088	0.653192
C101	C	1.140292	-0.340967	-0.098100
C102	C	1.390292	-0.090967	0.151900
C103	C	1.640292	0.159033	0.401900
C104	C	1.890292	0.409033	0.651900
C105	C	1.092858	-0.205222	-0.000001
C106	C	1.342858	0.044778	0.249999
C107	C	1.592858	0.294778	0.499999
C108	C	1.842858	0.544778	0.749999
C109	C	1.085947	-0.562189	0.000004
C110	C	1.335947	-0.312189	0.250004
C111	C	1.585947	-0.062189	0.500004
C112	C	1.835947	0.187811	0.750004
C113	C	1.258008	0.110446	0.000001
C114	C	1.508008	0.360446	0.250001
C115	C	1.758008	0.610446	0.500001
C116	C	2.008008	0.860446	0.750001
C117	C	1.360385	0.112258	-0.000005
C118	C	1.610385	0.362258	0.249995
C119	C	1.860385	0.612258	0.499995
C120	C	2.110385	0.862258	0.749995
C121	C	1.082668	0.269367	0.000001
C122	C	1.332668	0.519367	0.250001
C123	C	1.582668	0.769367	0.500001
C124	C	1.832668	1.019367	0.750001
C125	C	1.084488	0.362320	0.000000
C126	C	1.334488	0.612320	0.250000
C127	C	1.584488	0.862320	0.500000
C128	C	1.834488	1.112320	0.750000
N129	N	1.089387	0.116284	0.243542
N130	N	1.339387	0.366284	0.493542
N131	N	1.589387	0.616284	0.743542
N132	N	1.839387	0.866284	0.993542
N133	N	1.089422	0.116299	-0.243537
N134	N	1.339422	0.366299	0.006463
N135	N	1.589422	0.616299	0.256463
N136	N	1.839422	0.866299	0.506463
C137	C	1.089408	0.116300	0.663357
C138	C	1.339408	0.366300	0.913357
C139	C	1.589408	0.616300	1.163357
C140	C	1.839408	0.866300	1.413357
C141	C	1.089400	0.116298	0.546552
C142	C	1.339400	0.366298	0.796552
C143	C	1.589400	0.616298	1.046552
C144	C	1.839400	0.866298	1.296552
C145	C	1.089398	0.116293	0.453453
C146	C	1.339398	0.366293	0.703453
C147	C	1.589398	0.616293	0.953453
C148	C	1.839398	0.866293	1.203453
C149	C	1.089388	0.116290	0.336641
C150	C	1.339388	0.366290	0.586641
C151	C	1.589388	0.616290	0.836641
C152	C	1.839388	0.866290	1.086641
H153	H	0.949674	-0.295155	-0.070052
H154	H	1.199674	-0.045155	0.179948
H155	H	1.449674	0.204845	0.429948
H156	H	1.699674	0.454845	0.679948
C157	C	1.089203	-0.462374	0.196481
C158	C	1.339203	-0.212374	0.446481
C159	C	1.589203	0.037626	0.696481
C160	C	1.839203	0.287626	0.946481
H161	H	1.071020	-0.413411	0.236138
H162	H	1.321020	-0.163411	0.486138
H163	H	1.571020	0.086589	0.736138
H164	H	1.821020	0.336589	0.986138
H165	H	1.130399	-0.500281	0.235554
H166	H	1.380399	-0.250281	0.485554
H167	H	1.630399	-0.000281	0.735554
H168	H	1.880399	0.249719	0.985554
H169	H	1.035933	-0.488719	0.178623
H170	H	1.285933	-0.238719	0.428623
H171	H	1.535933	0.011281	0.678623
H172	H	1.785933	0.261281	0.928623
C173	C	0.932496	-0.445322	-0.095052
C174	C	1.182496	-0.195322	0.154948
C175	C	1.432496	0.054678	0.404948
C176	C	1.682496	0.304678	0.654948
H177	H	0.871834	-0.416103	-0.093847
H178	H	1.121834	-0.166103	0.156153
H179	H	1.371834	0.083897	0.406153
H180	H	1.621834	0.333897	0.656153
H181	H	0.928635	-0.504207	-0.093759
H182	H	1.178635	-0.254207	0.156241
H183	H	1.428635	-0.004207	0.406241
H184	H	1.678635	0.245793	0.656241
H185	H	0.963424	-0.431132	-0.155963
H186	H	1.213424	-0.181132	0.094037
H187	H	1.463424	0.068868	0.344037
H188	H	1.713424	0.318868	0.594037
C189	C	1.095793	-0.465720	-0.196873
C190	C	1.345793	-0.215720	0.053127
C191	C	1.595793	0.034280	0.303127
C192	C	1.845793	0.284280	0.553127
H193	H	1.128532	-0.447246	-0.254350
H194	H	1.378532	-0.197246	-0.004350
H195	H	1.628532	0.052754	0.245650
H196	H	1.878532	0.302754	0.495650
H197	H	1.032974	-0.441756	-0.199875
H198	H	1.282974	-0.191756	0.050125
H199	H	1.532974	0.058244	0.300125
H200	H	1.782974	0.308244	0.550125
H201	H	1.098417	-0.525322	-0.198129
H202	H	1.348417	-0.275322	0.051871
H203	H	1.598417	-0.025322	0.301871
H204	H	1.848417	0.224678	0.551871
C205	C	1.091250	-0.304159	-0.195768
C206	C	1.341250	-0.054159	0.054232
C207	C	1.591250	0.195841	0.304232
C208	C	1.841250	0.445841	0.554232
H209	H	1.040960	-0.263941	-0.176852
H210	H	1.290960	-0.013941	0.073148
H211	H	1.540960	0.236059	0.323148
H212	H	1.790960	0.486059	0.573148
H213	H	1.068601	-0.348093	-0.234140
H214	H	1.318601	-0.098093	0.015860
H215	H	1.568601	0.151907	0.265860
H216	H	1.818601	0.401907	0.515860
H217	H	1.133934	-0.277715	-0.236558
H218	H	1.383934	-0.027715	0.013442
H219	H	1.633934	0.222285	0.263442
H220	H	1.883934	0.472285	0.513442
C221	C	0.932730	-0.446758	0.093762
C222	C	1.182730	-0.196758	0.343762
C223	C	1.432730	0.053242	0.593762
C224	C	1.682730	0.303242	0.843762
H225	H	0.971282	-0.486525	0.133305
H226	H	1.221282	-0.236525	0.383305
H227	H	1.471282	0.013475	0.633305
H228	H	1.721282	0.263475	0.883305
H229	H	0.879645	-0.471385	0.071296
H230	H	1.129645	-0.221385	0.321296
H231	H	1.379645	0.028615	0.571296
H232	H	1.629645	0.278615	0.821296
H233	H	0.913833	-0.398736	0.134784
H234	H	1.163833	-0.148736	0.384784
H235	H	1.413833	0.101264	0.634784
H236	H	1.663833	0.351264	0.884784
C237	C	0.935600	-0.285959	0.094803
C238	C	1.185600	-0.035959	0.344803
C239	C	1.435600	0.214041	0.594803
C240	C	1.685600	0.464041	0.844803
H241	H	0.912812	-0.329805	0.133236
H242	H	1.162812	-0.079805	0.383236
H243	H	1.412812	0.170195	0.633236
H244	H	1.662812	0.420195	0.883236
H245	H	0.885133	-0.247065	0.073019
H246	H	1.135133	0.002935	0.323019
H247	H	1.385133	0.252935	0.573019
H248	H	1.635133	0.502935	0.823019
H249	H	0.976068	-0.257844	0.136660
H250	H	1.226068	-0.007844	0.386660
H251	H	1.476068	0.242156	0.636660
H252	H	1.726068	0.492156	0.886660
H253	H	1.214662	-0.469557	-0.097468
H254	H	1.464662	-0.219557	0.152532
H255	H	1.714662	0.030443	0.402532
H256	H	1.964662	0.280443	0.652532
C257	C	1.241033	-0.320064	-0.106077
C258	C	1.491033	-0.070064	0.143923
C259	C	1.741033	0.179936	0.393923
C260	C	1.991033	0.429936	0.643923
H261	H	1.254425	-0.285884	-0.049428
H262	H	1.504425	-0.035884	0.200572
H263	H	1.754425	0.214116	0.450572
H264	H	2.004425	0.464116	0.700572
H265	H	1.248850	-0.290704	-0.168450
H266	H	1.498850	-0.040704	0.081550
H267	H	1.748850	0.209296	0.331550
H268	H	1.998850	0.459296	0.581550
H269	H	1.281982	-0.370716	-0.105248
H270	H	1.531982	-0.120716	0.144752
H271	H	1.781982	0.129284	0.394752
H272	H	2.031982	0.379284	0.644752
H273	H	1.212248	-0.469698	0.102234
H274	H	1.462248	-0.219698	0.352234
H275	H	1.712248	0.030302	0.602234
H276	H	1.962248	0.280302	0.852234
H277	H	1.215875	-0.326683	0.101353
H278	H	1.465875	-0.076683	0.351353
H279	H	1.715875	0.173317	0.601353
H280	H	1.965875	0.423317	0.851353
H281	H	1.106199	-0.312602	0.170447
H282	H	1.356199	-0.062602	0.420447
H283	H	1.606199	0.187398	0.670447
H284	H	1.856199	0.437398	0.920447
