data_functionalizedCrystal
_audit_creation_method	'MofGen! by Chris Wilmer'
_symmetry_space_group_name_H-M	'P1'
_symmetry_Int_Tables_number	1
_symmetry_cell_setting	triclinic
loop_
_symmetry_equiv_pos_as_xyz
  x,y,z
_cell_length_a	21.295417
_cell_length_b	19.121141
_cell_length_c	19.121175
_cell_angle_alpha	94.788888
_cell_angle_beta	92.410242
_cell_angle_gamma	92.416218
loop_
_atom_site_label
_atom_site_type_symbol
_atom_site_fract_x
_atom_site_fract_y
_atom_site_fract_z
Zn1	Zn	-0.309440	-1.092590	-0.443682
Zn2	Zn	-0.410016	-1.087480	-0.326007
Zn3	Zn	-0.300069	-0.969916	-0.321016
Zn4	Zn	-0.409972	-0.974880	-0.438615
O5	O	-0.357374	-1.031216	-0.382330
O6	O	-0.326722	-1.190375	-0.432281
O7	O	-0.391527	-1.067669	-0.226882
O8	O	-0.213227	-0.986250	-0.337320
O9	O	-0.400614	-1.186621	-0.345826
O10	O	-0.220111	-1.076378	-0.427442
O11	O	-0.310750	-0.981295	-0.223216
O12	O	-0.310708	-0.872111	-0.332407
O13	O	-0.400540	-0.994710	-0.537750
O14	O	-0.391454	-0.875758	-0.418807
O15	O	-0.326680	-1.081192	-0.541473
O16	O	-0.498096	-1.072482	-0.340913
O17	O	-0.498064	-0.989755	-0.423646
C18	C	-0.350060	-0.848404	-0.374516
C19	C	-0.346947	-0.770197	-0.371190
C20	C	-0.387582	-0.735369	-0.414540
C21	C	-0.384648	-0.661885	-0.411418
C22	C	-0.341082	-0.623230	-0.364942
C23	C	-0.300443	-0.658063	-0.321590
C24	C	-0.303374	-0.731546	-0.324716
C25	C	-0.330124	-0.401265	-0.353259
C26	C	-0.327198	-0.327777	-0.350135
C27	C	-0.411402	-0.331604	-0.439965
C28	C	-0.414332	-0.405088	-0.443084
C29	C	-0.373690	-0.439914	-0.399734
C30	C	-0.338084	-0.548118	-0.361748
C31	C	-0.376686	-0.515026	-0.402932
C32	C	-0.520921	-1.031122	-0.382287
C33	C	-0.590890	-1.031148	-0.382295
C34	C	-0.623756	-1.074265	-0.339264
C35	C	-0.689500	-1.074299	-0.339281
C36	C	-0.722376	-1.031202	-0.382322
C37	C	-0.689502	-0.988081	-0.425362
C38	C	-0.623760	-0.988054	-0.425348
N39	N	-0.823397	-0.969878	-0.385055
N40	N	-0.885850	-0.969906	-0.385063
C41	C	-0.920455	-1.031283	-0.382366
N42	N	-0.890248	-1.092632	-0.379645
N43	N	-0.827790	-1.092603	-0.379633
C44	C	-0.793663	-1.031227	-0.382341
C45	C	-1.024609	-1.074441	-0.339351
C46	C	-1.090354	-1.074476	-0.339373
C47	C	-1.090355	-0.988252	-0.425449
C48	C	-1.024611	-0.988223	-0.425431
C49	C	-0.991741	-1.031316	-0.382378
C50	C	-0.193191	-1.031330	-0.382390
C51	C	-0.123225	-1.031379	-0.382415
C52	C	-0.364651	-1.039075	-0.565856
C53	C	-0.367751	-1.042423	-0.644064
C54	C	-0.364714	-0.214742	-0.390167
C55	C	-0.367833	-0.292949	-0.393485
C56	C	-0.327153	-0.999028	-0.678896
C57	C	-0.330071	-1.002172	-0.752381
C58	C	-0.373586	-1.048715	-0.791031
C59	C	-0.414189	-1.092112	-0.756193
C60	C	-0.411273	-1.088964	-0.682710
C61	C	-0.384497	-1.060466	-1.012998
C62	C	-0.387409	-1.063612	-1.086486
C63	C	-0.303292	-0.973671	-1.082668
C64	C	-0.300377	-0.970530	-1.009184
C65	C	-0.340982	-1.013924	-0.974353
C66	C	-0.376569	-1.051931	-0.866144
C67	C	-0.338002	-1.010704	-0.899241
C68	C	-0.350083	-1.023429	-0.199520
C69	C	-0.346810	-1.020217	-0.121319
H70	H	-0.297035	-0.429611	-0.317956
H71	H	-0.716265	-1.109413	-0.304240
H72	H	-0.449809	-0.436556	-0.480928
F73	F	-0.291691	-0.961172	-0.858105
F74	F	-1.125333	-1.120375	-0.293576
H75	H	-0.417567	-1.095793	-0.984647
H76	H	-0.412155	-0.546502	-0.440776
F77	F	-0.254073	-0.616922	-0.272130
F78	F	-0.254062	-0.920994	-0.968055
H79	H	-0.411999	-1.089826	-0.897621
H80	H	-0.270281	-0.759902	-0.289419
H81	H	-0.597000	-0.952942	-0.460390
H82	H	-0.716274	-0.952993	-0.460407
H83	H	-0.302614	-0.516637	-0.323905
H84	H	-0.997845	-1.109532	-0.304297
F85	F	-0.427898	-0.624822	-0.457558
F86	F	-0.433954	-0.776502	-0.464003
F87	F	-1.125339	-0.942388	-0.471261
H88	H	-0.297014	-0.966833	-0.780738
F89	F	-0.454654	-0.294534	-0.486095
H90	H	-0.997849	-0.953109	-0.460468
H91	H	-0.291715	-0.961132	-0.647432
H92	H	-0.291714	-0.296306	-0.312293
H93	H	-0.270234	-0.938341	-1.111036
F94	F	-0.433721	-1.113156	-1.127620
H95	H	-0.449623	-1.130004	-0.787668
H96	H	-0.444328	-1.124306	-0.654351
F97	F	-0.588778	-1.120138	-0.293451
