data_functionalizedCrystal
_audit_creation_method	'MofGen! by Chris Wilmer'
_symmetry_space_group_name_H-M	'P1'
_symmetry_Int_Tables_number	1
_symmetry_cell_setting	triclinic
loop_
_symmetry_equiv_pos_as_xyz
  x,y,z
_cell_length_a	23.096457
_cell_length_b	17.917603
_cell_length_c	17.917559
_cell_angle_alpha	89.764743
_cell_angle_beta	57.010732
_cell_angle_gamma	57.014394
loop_
_atom_site_label
_atom_site_type_symbol
_atom_site_fract_x
_atom_site_fract_y
_atom_site_fract_z
Zr1	Zr	0.585356	-0.066874	0.751742
O2	O	0.724700	-0.198271	0.620335
O3	O	0.458881	-0.026599	0.792022
O4	O	0.591789	-0.190448	0.784190
O5	O	0.582230	0.094829	0.634349
O6	O	0.582224	-0.184271	0.913444
O7	O	0.591792	-0.034423	0.628167
O8	O	0.344476	0.108824	0.927455
O9	O	0.819978	-0.198265	0.620339
O10	O	0.498997	-0.004807	0.905666
O11	O	0.498999	0.087043	0.813818
O12	O	0.655481	-0.105867	0.804596
O13	O	0.655483	-0.014018	0.712748
Zr14	Zr	0.554848	0.149119	0.967747
Zr15	Zr	0.570100	-0.057023	0.957888
Zr16	Zr	0.570104	0.139268	0.761601
Zr17	Zr	0.737312	-0.066865	0.751747
Zr18	Zr	0.402892	0.149110	0.967741
O19	O	0.681323	0.108844	0.927467
O20	O	0.703009	-0.184263	0.913449
O21	O	0.703015	0.094837	0.634354
O22	O	0.415504	0.280516	1.099153
O23	O	0.437190	-0.012592	1.085135
O24	O	0.437195	0.266508	0.806040
O25	O	0.557975	-0.012584	1.085140
O26	O	0.548415	0.272693	0.935299
O27	O	0.557980	0.266516	0.806044
O28	O	0.548412	0.116668	1.091321
O29	O	0.807852	-0.190435	0.784198
O30	O	0.332353	0.272680	0.935291
O31	O	0.320226	0.280510	1.099150
O32	O	0.332349	0.116655	1.091313
O33	O	0.807855	-0.034410	0.628175
O34	O	0.795729	-0.026579	0.792034
O35	O	0.484723	0.188112	0.914892
O36	O	0.484722	0.096263	1.006740
O37	O	0.641206	-0.004798	0.905671
O38	O	0.641207	0.087051	0.813823
C39	C	0.380028	0.041111	0.859737
C40	C	0.315518	0.041107	0.859735
C41	C	0.589185	0.028800	0.601887
C42	C	0.595661	0.024618	0.514372
C43	C	0.551025	0.298975	0.872077
C44	C	0.544550	0.386488	0.876262
C45	C	0.285217	-0.006841	0.907672
C46	C	0.224594	-0.006833	0.907682
C47	C	0.194288	0.041110	0.859735
C48	C	0.224592	0.089070	0.811796
C49	C	0.285208	0.089068	0.811796
N50	N	0.138473	0.030212	0.777459
N51	N	0.080892	0.030209	0.777460
C52	C	0.011655	0.041119	0.859735
N53	N	0.002183	0.052015	0.942005
N54	N	0.059772	0.052013	0.942001
C55	C	0.128560	0.041118	0.859731
C56	C	-0.084382	-0.006823	0.907687
C57	C	-0.145011	-0.006807	0.907699
C58	C	-0.145005	0.089088	0.811805
C59	C	-0.084384	0.089080	0.811801
C60	C	-0.054073	0.041119	0.859740
C61	C	0.760176	0.041134	0.859751
C62	C	0.824686	0.041137	0.859754
C63	C	0.589180	-0.216730	0.847412
C64	C	0.595654	-0.304243	0.843227
C65	C	0.532724	0.546696	0.883887
C66	C	0.607476	0.535557	0.835604
C67	C	0.600896	0.624702	0.839847
C68	C	0.539302	0.457544	0.879646
C69	C	0.532724	0.065262	0.365322
C70	C	0.607477	0.016985	0.354174
C71	C	0.600900	0.021233	0.443318
C72	C	0.539298	0.061015	0.276172
C73	C	0.551020	0.053445	1.117602
C74	C	0.544543	0.057627	1.205116
C75	C	0.360945	0.053434	1.117595
C76	C	0.289960	0.057612	1.205107
C77	C	0.360950	0.298964	0.872069
C78	C	0.289966	0.386473	0.876252
C79	C	0.341868	0.311286	1.129927
C80	C	0.264407	0.402978	1.221625
C81	C	0.798336	-0.229041	0.589562
C82	C	0.875797	-0.320733	0.497864
C83	C	0.779259	0.028811	0.601894
C84	C	0.850245	0.024633	0.514382
C85	C	0.779254	-0.216719	0.847419
C86	C	0.850238	-0.304228	0.843236
C87	C	0.264076	0.006809	1.193443
C88	C	0.197388	0.010715	1.275661
C89	C	0.156579	0.065431	1.369543
C90	C	0.182469	0.116236	1.381204
C91	C	0.249161	0.112324	1.298987
C92	C	0.249179	0.480333	0.930977
C93	C	0.182490	0.562565	0.934904
C94	C	0.156585	0.550934	0.884112
C95	C	0.197379	0.457063	0.829380
C96	C	0.264071	0.374834	0.825448
C97	C	0.228029	0.398093	1.312639
C98	C	0.155255	0.484239	1.398806
C99	C	0.118856	0.575269	1.393957
C100	C	0.155241	0.580151	1.302932
C101	C	0.228018	0.494006	1.216767
C102	C	0.912182	-0.315848	0.406850
C103	C	0.984975	-0.401994	0.320683
C104	C	1.021377	-0.493024	0.325532
C105	C	0.984988	-0.497906	0.416556
C106	C	0.912201	-0.411761	0.502721
C107	C	0.876135	0.075427	0.526045
C108	C	0.942842	0.071498	0.443826
C109	C	0.983653	0.016779	0.349945
C110	C	0.957760	-0.034022	0.338283
C111	C	0.891059	-0.030098	0.420501
C112	C	0.876121	-0.292565	0.894040
C113	C	0.942808	-0.374781	0.890129
C114	C	0.983616	-0.468657	0.835408
C115	C	0.957727	-0.480318	0.784602
C116	C	0.891036	-0.398103	0.788520
H117	H	0.309892	-0.045890	0.946709
H118	H	0.963879	-0.365267	0.931500
F119	F	1.054641	0.012613	0.262449
H120	H	1.037919	-0.535594	0.832226
F121	F	0.192332	0.140101	0.760775
F122	F	0.139083	0.662460	0.993161
F123	F	0.442622	0.123459	0.465298
H124	H	0.102279	0.617899	0.887322
F125	F	0.697584	-0.041212	0.254194
F126	F	0.442622	0.646663	0.942080
H127	H	0.176277	0.447607	0.788027
H128	H	0.990962	-0.556763	0.740049
F129	F	0.317457	0.140104	0.760773
F130	F	0.863504	-0.410531	0.734435
H131	H	0.869982	-0.071459	0.410991
H132	H	0.176318	-0.030657	1.266147
H133	H	0.842905	-0.216133	0.938600
H134	H	0.297273	0.298411	0.780888
H135	H	0.199918	-0.045879	0.946719
F136	F	0.307498	-0.051433	1.093535
H137	H	0.257655	0.323980	1.316606
H138	H	0.963911	0.112871	0.453340
H139	H	0.059597	0.645406	1.464125
F140	F	-0.052127	-0.057859	0.958713
H141	H	0.882577	-0.415750	0.576827
F142	F	-0.177258	-0.057846	0.958721
H143	H	1.080645	-0.563161	0.255364
H144	H	-0.169679	0.128124	0.772766
H145	H	-0.059709	0.128120	0.772762
H146	H	0.102275	0.068610	1.436481
F147	F	0.697584	0.435585	0.777414
H148	H	0.270263	0.489822	0.972340
F149	F	0.139027	0.174469	1.481128
H150	H	0.125639	0.480246	1.472914
F151	F	0.276695	0.166406	1.311416
F152	F	0.116493	0.677041	1.297786
H153	H	0.257628	0.497997	1.142663
F154	F	1.023739	-0.594796	0.421702
H155	H	0.882548	-0.241735	0.402882
H156	H	1.014591	-0.397999	0.246576
F157	F	0.832715	0.133668	0.625953
H158	H	0.990998	-0.078573	0.261834
