data_functionalizedCrystal
_audit_creation_method	'MofGen! by Chris Wilmer'
_symmetry_space_group_name_H-M	'P1'
_symmetry_Int_Tables_number	1
_symmetry_cell_setting	triclinic
loop_
_symmetry_equiv_pos_as_xyz
  x,y,z
_cell_length_a	17.699083
_cell_length_b	17.038272
_cell_length_c	16.176319
_cell_angle_alpha	89.993159
_cell_angle_beta	89.998611
_cell_angle_gamma	87.197286
loop_
_atom_site_label
_atom_site_type_symbol
_atom_site_fract_x
_atom_site_fract_y
_atom_site_fract_z
O1	O	1.010620	0.098861	-0.068631
O2	O	0.791093	0.111723	-0.068658
O3	O	0.899552	-0.008521	-0.068638
O4	O	0.902161	0.219105	-0.068651
O5	O	0.899535	-0.008529	0.068855
O6	O	0.791077	0.111715	0.068835
O7	O	1.010604	0.098853	0.068862
Cu8	Cu	0.900839	0.105284	0.081403
Cu9	Cu	0.900858	0.105293	-0.081199
O10	O	0.902145	0.219098	0.068842
C11	C	0.762857	0.111258	0.000085
C12	C	0.678748	0.109876	0.000075
C13	C	0.897170	-0.037649	0.000108
C14	C	0.890090	-0.124431	0.000107
C15	C	0.634797	0.180457	0.000071
C16	C	0.555767	0.179153	0.000082
C17	C	0.520690	0.107267	0.000091
C18	C	0.564647	0.036681	0.000097
C19	C	0.643675	0.037986	0.000092
C20	C	0.245935	0.031418	0.000118
C21	C	0.166901	0.030119	0.000120
C22	C	0.158028	0.172585	0.000108
C23	C	0.237056	0.173890	0.000103
C24	C	0.281006	0.103304	0.000113
C25	C	0.366699	0.104719	0.000103
C26	C	0.434999	0.105852	0.000095
C27	C	0.955100	-0.174651	0.000116
C28	C	0.948442	-0.256191	0.000107
C29	C	0.876773	-0.287509	0.000096
C30	C	0.811758	-0.237282	0.000084
C31	C	0.818417	-0.155744	0.000087
C32	C	0.853251	-0.533228	0.000081
C33	C	0.846597	-0.614773	0.000081
C34	C	0.983282	-0.633676	0.000103
C35	C	0.989934	-0.552135	0.000110
C36	C	0.924919	-0.501916	0.000095
C37	C	0.869967	-0.370855	0.000089
C38	C	0.931726	-0.418571	0.000095
C39	C	1.038840	0.099318	0.000117
C40	C	1.122949	0.100701	0.000122
C41	C	0.904526	0.248226	0.000094
C42	C	0.911607	0.335007	0.000090
N43	N	0.900830	0.105277	0.195768
N44	N	0.900872	0.105293	-0.195564
C45	C	0.948873	0.052054	0.239041
C46	C	0.948877	0.052054	0.325588
C47	C	0.900841	0.105280	0.368861
C48	C	0.852793	0.158505	0.325582
C49	C	0.852786	0.158501	0.239036
C50	C	0.852820	0.158519	0.674610
C51	C	0.852833	0.158520	0.761162
C52	C	0.948911	0.052072	0.761162
C53	C	0.948904	0.052068	0.674617
C54	C	0.900853	0.105290	0.631345
C55	C	0.900849	0.105289	0.537501
C56	C	0.900849	0.105285	0.462703
H57	H	0.663351	0.238994	0.000064
H58	H	0.138344	-0.028422	0.000128
C59	C	0.507918	0.255701	0.000108
C60	C	0.431201	0.239176	0.000136
C61	C	0.387100	0.309675	0.000168
H62	H	0.518951	0.285234	-0.047834
H63	H	0.519002	0.285195	0.048066
H64	H	0.420121	0.209695	-0.047817
H65	H	0.420144	0.209654	0.048074
H66	H	0.398185	0.339169	0.048127
H67	H	0.398140	0.339204	-0.047774
H68	H	0.335043	0.298473	0.000195
C69	C	0.800510	0.216201	0.372520
C70	C	0.725328	0.203600	0.351497
C71	C	0.677143	0.256728	0.394727
H72	H	0.811980	0.268401	0.358362
H73	H	0.807345	0.208576	0.430268
H74	H	0.718497	0.211230	0.293762
H75	H	0.713835	0.151410	0.365657
H76	H	0.683979	0.249104	0.452476
H77	H	0.688620	0.308925	0.380567
H78	H	0.626127	0.248181	0.380476
H79	H	0.536080	-0.021849	0.000116
H80	H	0.281710	-0.026057	0.000127
H81	H	0.813664	0.201839	0.203804
H82	H	0.265612	0.232426	0.000092
C83	C	0.691264	-0.038730	0.000049
C84	C	0.643633	-0.101965	0.000034
C85	C	0.687444	-0.172649	-0.000014
H86	H	0.722289	-0.041297	0.047981
H87	H	0.722263	-0.041222	-0.047919
H88	H	0.612647	-0.099474	0.047997
H89	H	0.612608	-0.099424	-0.047895
H90	H	0.718442	-0.175141	-0.047982
H91	H	0.718467	-0.175208	0.047919
H92	H	0.655133	-0.215562	-0.000032
C93	C	0.800630	0.216394	0.627786
C94	C	0.758583	0.263021	0.684209
C95	C	0.710503	0.316353	0.641102
H96	H	0.767247	0.188404	0.594032
H97	H	0.829925	0.248944	0.594032
H98	H	0.729290	0.230474	0.717949
H99	H	0.791946	0.291028	0.717965
H100	H	0.739798	0.348904	0.607348
H101	H	0.677125	0.288357	0.607350
H102	H	0.681973	0.348001	0.679379
H103	H	0.122235	0.230060	0.000104
H104	H	0.987996	0.008715	0.360821
C105	C	1.032981	-0.140804	0.000084
C106	C	1.088488	-0.202241	0.000065
C107	C	1.160242	-0.171095	0.000020
H108	H	1.038525	-0.109406	0.048018
H109	H	1.038463	-0.109406	-0.047882
H110	H	1.083009	-0.233626	0.048026
H111	H	1.082969	-0.233644	-0.047866
H112	H	1.165724	-0.139697	-0.047946
H113	H	1.165778	-0.139697	0.047955
H114	H	1.197912	-0.212774	-0.000001
C115	C	1.019002	-0.310750	-0.000054
C116	C	1.019198	-0.358085	-0.070807
C117	C	1.084195	-0.408345	-0.070993
H118	H	1.019311	-0.343035	0.047833
H119	H	1.062656	-0.280444	-0.000088
H120	H	0.975555	-0.388388	-0.070766
H121	H	1.018901	-0.325821	-0.118706
H122	H	1.127849	-0.378039	-0.071027
H123	H	1.084497	-0.440625	-0.023103
H124	H	1.084339	-0.440463	-0.119001
C125	C	1.000955	-0.005914	0.627760
C126	C	0.983658	-0.082675	0.648909
C127	C	1.031581	-0.136142	0.605791
H128	H	1.052034	0.002382	0.641924
H129	H	0.994107	0.001583	0.569996
H130	H	0.990512	-0.090169	0.706661
H131	H	0.932587	-0.090997	0.634744
H132	H	1.024733	-0.128645	0.548026
H133	H	1.082657	-0.127838	0.619958
H134	H	1.019847	-0.188230	0.620128
C135	C	1.053930	-0.688108	-0.000019
C136	C	1.096795	-0.673951	-0.070741
C137	C	1.161888	-0.724072	-0.070880
H138	H	1.039808	-0.741182	-0.000066
H139	H	1.083139	-0.678625	0.047906
H140	H	1.067591	-0.683441	-0.118654
H141	H	1.110935	-0.620888	-0.070710
H142	H	1.191098	-0.714589	-0.022955
H143	H	1.147760	-0.777142	-0.070925
H144	H	1.190984	-0.714469	-0.118860
H145	H	1.048294	-0.526642	0.000120
C146	C	0.768713	-0.648625	0.000016
C147	C	0.713199	-0.587194	-0.000023
C148	C	0.641449	-0.618349	-0.000094
H149	H	0.763156	-0.680034	0.047948
H150	H	0.763251	-0.680013	-0.047952
H151	H	0.718659	-0.555819	0.047941
H152	H	0.718731	-0.555780	-0.047951
H153	H	0.635987	-0.649737	-0.048063
H154	H	0.635900	-0.649758	0.047838
H155	H	0.603775	-0.576674	-0.000128
H156	H	0.800310	-0.492349	0.000069
H157	H	0.753404	-0.262788	0.000070
H158	H	0.813714	0.201865	0.796393
C159	C	1.001056	-0.005823	0.192213
C160	C	1.043114	-0.052447	0.248638
C161	C	1.091184	-0.105783	0.205534
H162	H	1.034431	0.022164	0.158439
H163	H	0.971752	-0.038376	0.158479
H164	H	1.072415	-0.019899	0.282358
H165	H	1.009758	-0.080452	0.282414
H166	H	1.061881	-0.138336	0.171800
H167	H	1.124555	-0.077789	0.171761
H168	H	1.119722	-0.137429	0.243811
C169	C	0.792088	-0.404708	0.000038
C170	C	0.736573	-0.343279	0.000014
C171	C	0.664824	-0.374437	-0.000048
H172	H	0.786540	-0.436122	0.047968
H173	H	0.786620	-0.436093	-0.047932
H174	H	0.742038	-0.311908	0.047979
H175	H	0.742097	-0.311861	-0.047912
H176	H	0.659356	-0.405821	-0.048018
H177	H	0.659283	-0.405850	0.047883
H178	H	0.627148	-0.332763	-0.000072
H179	H	0.765478	-0.114855	0.000080
C180	C	1.001200	-0.005635	0.808098
C181	C	1.076379	0.006960	0.787052
C182	C	1.124569	-0.046176	0.830277
H183	H	0.989723	-0.057833	0.793954
H184	H	0.994378	0.001985	0.865848
H185	H	1.083199	-0.000667	0.729315
H186	H	1.087880	0.059147	0.801198
H187	H	1.117746	-0.038555	0.888027
H188	H	1.113085	-0.098370	0.816130
H189	H	1.175583	-0.037632	0.816009
H190	H	0.990079	-0.393068	0.000086
