data_functionalizedCrystal
_audit_creation_method	'MofGen! by Chris Wilmer'
_symmetry_space_group_name_H-M	'P1'
_symmetry_Int_Tables_number	1
_symmetry_cell_setting	triclinic
loop_
_symmetry_equiv_pos_as_xyz
  x,y,z
_cell_length_a	16.992694
_cell_length_b	10.723024
_cell_length_c	15.455313
_cell_angle_alpha	92.691723
_cell_angle_beta	87.142206
_cell_angle_gamma	87.568046
loop_
_atom_site_label
_atom_site_type_symbol
_atom_site_fract_x
_atom_site_fract_y
_atom_site_fract_z
O1	O	1.045219	0.259622	-0.072018
O2	O	1.545219	0.759622	0.427982
O3	O	0.816920	0.256716	-0.072044
O4	O	1.316920	0.756716	0.427956
O5	O	0.936335	0.077046	-0.072027
O6	O	1.436335	0.577046	0.427973
O7	O	0.925803	0.439291	-0.072035
O8	O	1.425803	0.939291	0.427965
O9	O	0.929506	0.087275	0.072234
O10	O	1.429506	0.587275	0.572234
O11	O	0.810091	0.266945	0.072217
O12	O	1.310091	0.766945	0.572217
O13	O	1.038390	0.269851	0.072243
O14	O	1.538390	0.769851	0.572243
Cu15	Cu	0.923617	0.269332	0.085402
Cu16	Cu	1.423617	0.769332	0.585402
Cu17	Cu	0.931693	0.257235	-0.085203
Cu18	Cu	1.431693	0.757235	0.414797
O19	O	0.918974	0.449520	0.072226
O20	O	1.418974	0.949520	0.572226
C21	C	0.784273	0.258094	0.000083
C22	C	1.284273	0.758094	0.500083
C23	C	0.697169	0.246945	0.000074
C24	C	1.197169	0.746945	0.500074
C25	C	0.647507	0.354505	0.000072
C26	C	1.147507	0.854505	0.500072
C27	C	0.565663	0.344024	0.000084
C28	C	1.065663	0.844024	0.500084
C29	C	0.533484	0.225982	0.000092
C30	C	1.033484	0.725982	0.500092
C31	C	0.583152	0.118414	0.000096
C32	C	1.083152	0.618414	0.500096
C33	C	0.664993	0.128896	0.000090
C34	C	1.164993	0.628896	0.500090
C35	C	0.289651	0.182535	0.000116
C36	C	0.789651	0.682535	0.500116
C37	C	0.207803	0.172061	0.000119
C38	C	0.707803	0.672061	0.500119
C39	C	0.190320	0.397673	0.000109
C40	C	0.690320	0.897673	0.500109
C41	C	0.272165	0.408144	0.000098
C42	C	0.772165	0.908144	0.500098
C43	C	0.321825	0.300577	0.000107
C44	C	0.821825	0.800577	0.500107
N45	N	0.449827	0.215266	0.000102
N46	N	0.949827	0.715266	0.500102
N47	N	0.405480	0.311295	0.000103
N48	N	0.905480	0.811295	0.500103
C49	C	0.932154	0.035595	0.000102
C50	C	1.432154	0.535595	0.500102
C51	C	0.929861	-0.103157	0.000099
C52	C	1.429861	0.396843	0.500099
C53	C	0.996680	-0.172386	0.000105
C54	C	1.496680	0.327614	0.500105
C55	C	0.994312	-0.315793	0.000102
C56	C	1.494312	0.184207	0.500102
C57	C	1.071037	0.268473	0.000114
C58	C	1.571037	0.768473	0.500114
C59	C	1.158141	0.279621	0.000118
C60	C	1.658141	0.779621	0.500118
C61	C	0.923155	0.490971	0.000095
C62	C	1.423155	0.990971	0.500095
C63	C	0.925449	0.629723	0.000093
C64	C	1.425449	1.129723	0.500093
N65	N	0.917942	0.277840	0.205397
N66	N	1.417942	0.777840	0.705397
N67	N	0.937374	0.248717	-0.205198
N68	N	1.437374	0.748717	0.294802
C69	C	0.968692	0.201542	0.250798
C70	C	1.468692	0.701542	0.750798
C71	C	0.964408	0.207989	0.341605
C72	C	1.464408	0.707989	0.841605
C73	C	0.909377	0.290741	0.387010
C74	C	1.409377	0.790741	0.887010
C75	C	0.858622	0.367042	0.341602
C76	C	1.358622	0.867042	0.841602
C77	C	0.862903	0.360588	0.250797
C78	C	1.362903	0.860588	0.750797
C79	C	0.890899	0.318564	0.658589
C80	C	1.390899	0.818564	1.158589
C81	C	0.886624	0.325015	0.749401
C82	C	1.386624	0.825015	1.249401
C83	C	0.992409	0.165960	0.749398
C84	C	1.492409	0.665960	1.249398
C85	C	0.996689	0.159518	0.658590
C86	C	1.496689	0.659518	1.158590
C87	C	0.945931	0.235815	0.613191
C88	C	1.445931	0.735815	1.113191
N89	N	0.904999	0.297335	0.479830
N90	N	1.404999	0.797335	0.979830
N91	N	0.950306	0.229213	0.520373
N92	N	1.450306	0.729213	1.020373
H93	H	0.525232	0.431612	0.000082
H94	H	1.025232	0.931612	0.500082
H95	H	0.298359	0.504266	0.000082
H96	H	0.798359	1.004266	0.500082
H97	H	1.051514	-0.375300	0.000111
H98	H	1.551514	0.124700	0.500111
C99	C	0.807081	0.444521	0.200855
C100	C	1.307081	0.944521	0.700855
H101	H	0.773698	0.494739	0.240900
H102	H	1.273698	0.994739	0.740900
H103	H	0.775855	0.393806	0.165441
H104	H	1.275855	0.893806	0.665441
H105	H	0.837254	0.496820	0.165424
H106	H	1.337254	0.996820	0.665424
H107	H	0.849571	0.380691	0.621632
H108	H	1.349571	0.880691	1.121632
H109	H	0.870902	-0.150057	0.000087
H110	H	1.370902	0.349943	0.500087
C111	C	0.547756	-0.011430	0.000103
C112	C	1.047756	0.488570	0.500103
H113	H	0.491902	-0.002271	0.000097
H114	H	0.991902	0.497729	0.500097
H115	H	0.562386	-0.052497	0.050409
H116	H	1.062386	0.447503	0.550409
H117	H	0.567138	-0.059625	-0.050211
H118	H	1.067138	0.440375	0.449789
H119	H	0.149878	0.485248	0.000104
H120	H	0.649878	0.985248	0.500104
C121	C	1.048232	0.082027	0.799335
C122	C	1.548232	0.582027	1.299335
H123	H	1.081622	0.031824	0.759287
H124	H	1.581622	0.531824	1.259287
H125	H	1.018063	0.029734	0.834767
H126	H	1.518063	0.529734	1.334767
H127	H	1.079464	0.132745	0.834748
H128	H	1.579464	0.632745	1.334748
C129	C	1.029226	0.110512	0.200861
C130	C	1.529226	0.610512	0.700861
H131	H	1.058831	0.065987	0.240909
H132	H	1.558831	0.565987	0.740909
H133	H	1.063793	0.156188	0.165427
H134	H	1.563793	0.656188	0.665427
H135	H	1.002391	0.053178	0.165450
H136	H	1.502391	0.553178	0.665450
H137	H	0.841809	0.392407	0.786365
H138	H	1.341809	0.892407	1.286365
H139	H	0.813811	0.434416	0.378576
H140	H	1.313811	0.934416	0.878576
H141	H	0.673701	0.450628	0.000065
H142	H	1.173701	0.950628	0.500065
H143	H	1.005732	0.145860	0.378571
H144	H	1.505732	0.645860	0.878571
C145	C	0.719625	0.010584	0.000091
C146	C	1.219625	0.510584	0.500091
H147	H	0.772975	0.033733	0.000095
H148	H	1.272975	0.533733	0.500095
H149	H	0.712181	-0.041056	-0.050212
H150	H	1.212181	0.458944	0.449788
H151	H	0.707429	-0.033907	0.050408
H152	H	1.207429	0.466093	0.550408
C153	C	1.057256	0.068552	0.608647
C154	C	1.557256	0.568552	1.108647
H155	H	1.052553	0.075664	0.548064
H156	H	1.552553	0.575664	1.048064
H157	H	1.047631	-0.014596	0.623514
H158	H	1.547631	0.485404	1.123514
H159	H	1.108970	0.088509	0.623543
H160	H	1.608970	0.588509	1.123543
C161	C	0.172407	0.042208	0.000129
C162	C	0.672407	0.542208	0.500129
H163	H	0.213703	-0.020354	0.000141
H164	H	0.713703	0.479646	0.500141
H165	H	0.143220	0.029862	-0.050177
H166	H	0.643220	0.529862	0.449823
H167	H	0.138467	0.037007	0.050443
H168	H	0.638467	0.537007	0.550443
H169	H	1.055640	-0.125486	0.000117
H170	H	1.555640	0.374514	0.500117
C171	C	0.344268	0.064215	0.000120
C172	C	0.844268	0.564215	0.500120
H173	H	0.313379	-0.007585	0.000116
H174	H	0.813379	0.492415	0.500116
H175	H	0.374182	0.067178	0.050425
H176	H	0.874182	0.567178	0.550425
H177	H	0.378932	0.060043	-0.050195
H178	H	0.878932	0.560043	0.449805
H179	H	0.868243	-0.310778	0.000093
H180	H	1.368243	0.189222	0.500093
