data_functionalizedCrystal
_audit_creation_method	'MofGen! by Chris Wilmer'
_symmetry_space_group_name_H-M	'P1'
_symmetry_Int_Tables_number	1
_symmetry_cell_setting	triclinic
loop_
_symmetry_equiv_pos_as_xyz
  x,y,z
_cell_length_a	15.944551
_cell_length_b	15.944493
_cell_length_c	12.996460
_cell_angle_alpha	89.999729
_cell_angle_beta	89.998907
_cell_angle_gamma	83.486891
loop_
_atom_site_label
_atom_site_type_symbol
_atom_site_fract_x
_atom_site_fract_y
_atom_site_fract_z
O1	O	1.114503	0.108337	-0.085446
O2	O	0.869950	0.121693	-0.085470
O3	O	0.998930	-0.007263	-0.085466
O4	O	0.985523	0.237293	-0.085450
O5	O	0.998917	-0.007270	0.085668
O6	O	0.869937	0.121686	0.085664
O7	O	1.114489	0.108329	0.085688
Cu8	Cu	0.992212	0.115007	0.101302
Cu9	Cu	0.992228	0.115016	-0.101084
O10	O	0.985510	0.237286	0.085684
C11	C	0.838650	0.121135	0.000094
C12	C	0.745404	0.119473	0.000084
C13	C	0.530565	0.035566	0.000098
C14	C	0.469543	0.074533	-0.084277
C15	C	0.574679	0.116465	0.000096
C16	C	0.469552	0.074545	0.084447
C17	C	0.409767	0.113555	0.000112
C18	C	0.514885	0.155455	-0.084349
C19	C	0.514901	0.155455	0.084451
C20	C	0.453897	0.194481	0.000055
C21	C	0.669681	0.118140	0.000086
C22	C	0.314766	0.111886	0.000115
C23	C	0.998375	-0.038562	0.000097
C24	C	0.996733	-0.131810	0.000083
C25	C	1.072653	-0.367570	0.000110
C26	C	1.031719	-0.418135	-0.084271
C27	C	0.993688	-0.302531	0.000096
C28	C	1.031687	-0.418118	0.084454
C29	C	0.990754	-0.467441	0.000112
C30	C	0.952775	-0.351868	-0.084355
C31	C	0.952755	-0.351847	0.084445
C32	C	0.911763	-0.402379	0.000043
C33	C	0.995381	-0.207531	0.000085
C34	C	0.989055	-0.562438	0.000115
C35	C	1.145790	0.108887	0.000122
C36	C	1.239036	0.110550	0.000125
C37	C	0.986064	0.268584	0.000119
C38	C	0.987707	0.361833	0.000126
N39	N	0.992207	0.115001	0.243649
N40	N	0.992239	0.115015	-0.243431
C41	C	0.992227	0.115016	0.663463
C42	C	0.992219	0.115015	0.546658
C43	C	0.992217	0.115009	0.453560
C44	C	0.992208	0.115006	0.336747
H45	H	0.449468	0.040310	0.155778
H46	H	1.065072	-0.447077	-0.155604
H47	H	0.534872	0.189649	-0.155760
H48	H	0.535019	0.189641	0.155792
H49	H	1.140671	-0.351942	0.000032
C50	C	0.907731	-0.312731	0.180818
N51	N	0.873823	-0.283271	0.253415
C52	C	0.442385	0.028310	-0.180647
N53	N	0.421932	-0.006511	-0.253228
H54	H	0.843692	-0.417845	-0.000010
H55	H	0.563912	-0.031574	-0.000010
C56	C	0.907767	-0.312934	-0.180841
N57	N	0.873872	-0.283607	-0.253515
H58	H	1.065046	-0.447052	0.155787
C59	C	0.409074	0.285274	-0.000004
N60	N	0.375311	0.353659	-0.000054
