data_functionalizedCrystal
_audit_creation_method	'MofGen! by Chris Wilmer'
_symmetry_space_group_name_H-M	'P1'
_symmetry_Int_Tables_number	1
_symmetry_cell_setting	triclinic
loop_
_symmetry_equiv_pos_as_xyz
  x,y,z
_cell_length_a	15.538191
_cell_length_b	27.732048
_cell_length_c	14.185569
_cell_angle_alpha	76.951782
_cell_angle_beta	97.875798
_cell_angle_gamma	64.957374
loop_
_atom_site_label
_atom_site_type_symbol
_atom_site_fract_x
_atom_site_fract_y
_atom_site_fract_z
O1	O	1.230624	-0.142649	-0.083403
O2	O	0.955548	-0.086692	-0.083413
O3	O	1.101634	-0.186537	-0.083389
O4	O	1.084538	-0.042804	-0.083428
O5	O	1.144789	-0.216030	0.083453
O6	O	0.998703	-0.116185	0.083429
O7	O	1.273779	-0.172142	0.083438
Cu8	Cu	1.140181	-0.146856	0.098667
Cu9	Cu	1.089145	-0.111978	-0.098642
O10	O	1.127693	-0.072297	0.083414
C11	C	0.941944	-0.095584	0.000007
C12	C	0.837116	-0.078145	0.000004
C13	C	1.122854	-0.219229	0.000035
C14	C	1.121776	-0.272700	0.000043
C15	C	0.551856	-0.251395	0.000035
C16	C	0.453350	-0.234996	0.000030
C17	C	0.429558	-0.142756	0.000005
C18	C	0.528065	-0.159148	0.000015
C19	C	0.589206	-0.213468	0.000029
C20	C	0.565415	-0.121222	0.000009
C21	C	0.663913	-0.137612	0.000014
C22	C	0.725059	-0.191928	0.000025
C23	C	0.687703	-0.229858	0.000034
C24	C	0.504271	-0.066901	-0.000012
C25	C	0.541621	-0.028974	-0.000018
C26	C	0.640122	-0.045365	-0.000006
C27	C	0.701268	-0.099682	0.000005
C28	C	0.677478	-0.007436	-0.000015
C29	C	0.775975	-0.023826	-0.000010
C30	C	0.799766	-0.116072	0.000010
C31	C	1.201288	-0.625155	-0.000006
C32	C	1.197277	-0.826124	-0.000020
O33	O	1.269986	-0.869853	-0.000061
N34	N	1.110657	-0.830382	-0.000022
C35	C	1.025032	-0.784391	-0.000027
O36	O	0.951262	-0.792622	-0.000040
C37	C	1.029042	-0.583422	-0.000020
C38	C	1.115670	-0.579170	-0.000008
C39	C	1.287908	-0.620901	0.000005
C40	C	1.288912	-0.570663	0.000014
C41	C	1.203294	-0.524678	0.000012
C42	C	1.116673	-0.528931	0.000001
C43	C	0.943416	-0.537431	-0.000033
C44	C	0.944426	-0.487187	-0.000033
C45	C	1.031054	-0.482935	-0.000021
C46	C	1.032059	-0.432708	0.000008
N47	N	1.118679	-0.428450	0.000010
C48	C	1.204296	-0.474435	0.000012
C49	C	1.022933	-0.889905	-0.000029
C50	C	1.021931	-0.940147	-0.000029
C51	C	1.194176	-0.981877	-0.000023
C52	C	1.195179	-0.931634	-0.000016
C53	C	1.109553	-0.885647	-0.000027
C54	C	1.206397	-0.368929	0.000032
C55	C	1.207393	-0.318685	0.000045
C56	C	1.035148	-0.276959	0.000034
C57	C	1.034152	-0.327200	0.000027
C58	C	1.119783	-0.373185	0.000022
O59	O	0.959386	-0.388955	0.000038
O60	O	1.278050	-0.466190	0.000002
C61	C	1.200284	-0.675394	-0.000015
C62	C	1.113664	-0.679647	-0.000026
C63	C	1.028046	-0.633662	-0.000028
C64	C	1.112661	-0.729890	-0.000026
C65	C	1.198279	-0.775875	-0.000024
C66	C	1.284899	-0.771617	-0.000022
C67	C	1.285902	-0.721379	-0.000013
C68	C	0.941426	-0.637919	-0.000030
C69	C	0.940430	-0.688160	-0.000038
C70	C	1.026048	-0.734145	-0.000036
C71	C	1.287382	-0.163249	0.000016
C72	C	1.392208	-0.180687	0.000012
C73	C	1.106473	-0.039604	-0.000012
C74	C	1.107549	0.013868	-0.000027
N75	N	1.176084	-0.171389	0.237444
N76	N	1.053250	-0.087450	-0.237419
C77	C	0.947768	-0.015393	0.605056
C78	C	0.974970	-0.033974	0.710083
C79	C	1.104355	-0.122366	0.710065
C80	C	1.077161	-0.103793	0.605037
C81	C	0.998867	-0.050306	0.552541
C82	C	1.128260	-0.138707	0.552521
C83	C	1.101070	-0.120134	0.447502
C84	C	1.022782	-0.066648	0.394999
C85	C	0.971678	-0.031733	0.447522
C86	C	1.206558	-0.192193	0.605019
C87	C	1.257657	-0.227106	0.552503
C88	C	1.230463	-0.208535	0.447482
C89	C	1.152174	-0.155049	0.394979
C90	C	1.281567	-0.243450	0.394959
C91	C	1.254378	-0.224877	0.289940
C92	C	1.124985	-0.136476	0.289960
H93	H	0.849553	-0.160306	0.000027
O94	O	0.611526	0.051148	-0.000024
H95	H	0.548491	0.072842	-0.068026
O96	O	0.753654	-0.288449	0.000058
H97	H	0.816680	-0.310141	0.068069
H98	H	1.061224	-0.092923	0.247216
H99	H	0.806388	0.007056	-0.000005
O100	O	0.887211	0.025954	0.390908
H101	H	0.829233	0.022040	0.343093
O102	O	0.617820	-0.309984	0.000060
H103	H	0.587044	-0.316938	-0.067938
O104	O	1.366018	-0.301134	0.451591
H105	H	1.396990	-0.322290	0.397429
O106	O	0.942809	-0.227357	0.000037
H107	H	0.883729	-0.214967	-0.067966
O108	O	1.342097	-0.284796	0.609124
H109	H	1.352417	-0.291848	0.690974
O110	O	1.235881	-0.212223	0.718291
H111	H	1.313474	-0.221713	0.745962
O112	O	1.298757	-0.418526	0.000042
H113	H	1.359154	-0.407122	0.000063
H114	H	1.000648	-0.051526	0.309485
O115	O	0.413063	-0.275906	0.000046
H116	H	0.472131	-0.316431	0.000064
H117	H	1.295989	-0.253307	0.247182
H118	H	0.379763	-0.098528	-0.000010
H119	H	1.359452	-0.567207	0.000020
H120	H	0.933353	-0.005538	0.752836
O121	O	1.379331	-0.716792	-0.000019
H122	H	1.438686	-0.757211	-0.000032
O123	O	1.188796	-0.180056	0.766686
H124	H	1.199115	-0.187108	0.848536
H125	H	0.805258	-0.205270	0.000015
H126	H	0.884007	0.028160	0.562312
H127	H	0.424068	-0.053557	-0.000019
O128	O	1.380264	-0.670500	0.000022
H129	H	1.440658	-0.659093	0.000040
H130	H	0.491826	0.015254	-0.000033
O131	O	1.288607	-0.927045	-0.000022
H132	H	1.347966	-0.967465	-0.000028
O133	O	1.300827	-0.314096	0.000043
H134	H	1.360187	-0.354513	0.000028
H135	H	0.869884	-0.691615	-0.000039
O136	O	1.286525	-1.031479	-0.000022
H137	H	1.272589	-1.043336	-0.068030
O138	O	0.928501	-0.944734	-0.000029
H139	H	0.869137	-0.904312	-0.000039
H140	H	0.872873	-0.540880	-0.000049
O141	O	0.930580	-0.840309	-0.000019
H142	H	0.870192	-0.851720	-0.000005
H143	H	0.871704	-0.600480	-0.000034
H144	H	0.874697	-0.449743	-0.000043
H145	H	1.354613	-0.809069	-0.000015
O146	O	0.940722	-0.331792	0.000017
H147	H	0.881355	-0.291372	0.000012
