data_functionalizedCrystal
_audit_creation_method	'MofGen! by Chris Wilmer'
_symmetry_space_group_name_H-M	'P1'
_symmetry_Int_Tables_number	1
_symmetry_cell_setting	triclinic
loop_
_symmetry_equiv_pos_as_xyz
  x,y,z
_cell_length_a	15.538191
_cell_length_b	14.519709
_cell_length_c	14.185569
_cell_angle_alpha	76.819419
_cell_angle_beta	97.875798
_cell_angle_gamma	65.476119
loop_
_atom_site_label
_atom_site_type_symbol
_atom_site_fract_x
_atom_site_fract_y
_atom_site_fract_z
O1	O	1.228085	-0.271310	-0.083424
O2	O	0.954005	-0.164884	-0.083426
O3	O	1.098314	-0.354783	-0.083416
O4	O	1.083776	-0.081411	-0.083434
O5	O	1.140944	-0.410876	0.083422
O6	O	0.996635	-0.220977	0.083412
O7	O	1.270715	-0.327403	0.083414
Cu8	Cu	1.137568	-0.279312	0.098646
Cu9	Cu	1.087153	-0.212975	-0.098658
O10	O	1.126406	-0.137505	0.083404
C11	C	0.940243	-0.181796	-0.000007
C12	C	0.835725	-0.148628	-0.000007
C13	C	1.118952	-0.416961	0.000003
C14	C	1.116922	-0.518660	0.000004
C15	C	0.547381	-0.478139	-0.000001
C16	C	0.449167	-0.446949	-0.000004
C17	C	0.427017	-0.271514	-0.000015
C18	C	0.525232	-0.302691	-0.000008
C19	C	0.585407	-0.406004	-0.000002
C20	C	0.563258	-0.230557	-0.000008
C21	C	0.661463	-0.261730	-0.000006
C22	C	0.721643	-0.365037	-0.000003
C23	C	0.683612	-0.437177	0.000001
C24	C	0.503080	-0.127242	-0.000021
C25	C	0.541106	-0.055107	-0.000022
C26	C	0.639314	-0.086282	-0.000012
C27	C	0.699494	-0.189590	-0.000009
C28	C	0.677345	-0.014142	-0.000016
C29	C	0.775551	-0.045315	-0.000013
C30	C	0.797700	-0.220763	-0.000007
C31	C	1.109444	-0.891034	-0.000022
C32	C	1.111520	-0.787426	-0.000015
C33	C	1.113183	-0.704851	-0.000008
C34	C	1.115260	-0.601236	-0.000003
C35	C	1.284476	-0.310491	-0.000007
C36	C	1.388993	-0.343656	-0.000014
C37	C	1.105768	-0.075325	-0.000017
C38	C	1.107796	0.026376	-0.000025
N39	N	1.173034	-0.325973	0.237420
N40	N	1.051694	-0.166324	-0.237432
C41	C	0.947494	-0.029276	0.605054
C42	C	0.974366	-0.064616	0.710078
C43	C	1.102177	-0.232734	0.710047
C44	C	1.075313	-0.197409	0.605022
C45	C	0.997972	-0.095679	0.552534
C46	C	1.125791	-0.263812	0.552501
C47	C	1.098932	-0.228488	0.447485
C48	C	1.021596	-0.126760	0.394989
C49	C	0.971113	-0.060354	0.447517
C50	C	1.203137	-0.365540	0.604991
C51	C	1.253615	-0.431943	0.552471
C52	C	1.226752	-0.396622	0.447452
C53	C	1.149415	-0.294894	0.394957
C54	C	1.277234	-0.463027	0.394924
C55	C	1.250375	-0.427703	0.289908
C56	C	1.122556	-0.259569	0.289940
H57	H	0.846700	-0.304892	0.000004
H58	H	1.059570	-0.176735	0.247202
H59	H	1.340213	-0.545854	0.437674
H60	H	0.732612	-0.521307	0.000012
H61	H	0.999731	-0.097999	0.309478
H62	H	1.165152	-0.315563	0.752795
H63	H	0.423115	-0.101863	-0.000026
H64	H	1.291481	-0.481776	0.247145
H65	H	0.908127	0.022480	0.404779
H66	H	0.933254	-0.010533	0.752835
H67	H	0.801605	-0.390412	-0.000014
H68	H	0.884508	0.053559	0.562316
H69	H	1.225005	-0.394295	0.690503
H70	H	1.316590	-0.514772	0.595219
H71	H	0.418212	-0.505697	-0.000005
H72	H	0.378009	-0.187395	-0.000024
H73	H	0.596381	-0.562268	0.000010
H74	H	0.492097	0.029012	-0.000031
H75	H	0.806514	0.013421	-0.000004
H76	H	0.628334	0.069979	-0.000031
