data_functionalizedCrystal
_audit_creation_method	'MofGen! by Chris Wilmer'
_symmetry_space_group_name_H-M	'P1'
_symmetry_Int_Tables_number	1
_symmetry_cell_setting	triclinic
loop_
_symmetry_equiv_pos_as_xyz
  x,y,z
_cell_length_a	12.837932
_cell_length_b	12.837942
_cell_length_c	9.130313
_cell_angle_alpha	89.998683
_cell_angle_beta	90.003263
_cell_angle_gamma	94.829322
loop_
_atom_site_label
_atom_site_type_symbol
_atom_site_fract_x
_atom_site_fract_y
_atom_site_fract_z
O1	O	1.402336	0.272141	0.121802
O2	O	1.902336	0.772141	0.621802
O3	O	1.099202	0.258696	0.121804
O4	O	1.599202	0.758696	0.621804
O5	O	1.244047	0.113852	0.121794
O6	O	1.744047	0.613852	0.621794
O7	O	1.257490	0.416985	0.121812
O8	O	1.757490	0.916985	0.621812
O9	O	1.244037	0.113862	-0.121805
O10	O	1.744037	0.613862	0.378195
O11	O	1.099192	0.258707	-0.121795
O12	O	1.599192	0.758707	0.378205
O13	O	1.402325	0.272152	-0.121797
O14	O	1.902325	0.772152	0.378203
Cu15	Cu	1.250758	0.265430	-0.144038
Cu16	Cu	1.750758	0.765430	0.355962
Cu17	Cu	1.250770	0.265418	0.144045
Cu18	Cu	1.750770	0.765418	0.644045
O19	O	1.257480	0.416996	-0.121787
O20	O	1.757480	0.916996	0.378213
C21	C	1.060127	0.254160	0.000005
C22	C	1.560127	0.754160	0.500005
C23	C	0.943712	0.240614	0.000005
C24	C	1.443712	0.740614	0.500005
C25	C	1.239501	0.074788	-0.000005
C26	C	1.739501	0.574788	0.499995
C27	C	1.225956	-0.041627	-0.000002
C28	C	1.725956	0.458373	0.499998
C29	C	0.782686	0.127402	-0.000004
C30	C	1.282686	0.627402	0.499996
C31	C	0.892069	0.140122	-0.000003
C32	C	1.392069	0.640122	0.499997
C33	C	0.885965	0.328393	0.000008
C34	C	1.385965	0.828393	0.500008
C35	C	0.776582	0.315673	0.000006
C36	C	1.276582	0.815673	0.500006
C37	C	0.724947	0.215174	0.000003
C38	C	1.224947	0.715174	0.500003
C39	C	0.615562	0.202455	0.000012
C40	C	1.115562	0.702455	0.500012
C41	C	0.609460	0.390725	0.000012
C42	C	1.109460	0.890725	0.500012
C43	C	0.718843	0.403445	0.000013
C44	C	1.218843	0.903445	0.500013
C45	C	1.388786	-0.266500	0.000027
C46	C	1.888786	0.233500	0.500027
C47	C	1.376064	-0.375883	0.000030
C48	C	1.876064	0.124117	0.500030
C49	C	1.187793	-0.369777	0.000016
C50	C	1.687793	0.130223	0.500016
C51	C	1.200514	-0.260394	0.000013
C52	C	1.700514	0.239606	0.500013
C53	C	1.301014	-0.208760	0.000017
C54	C	1.801014	0.291240	0.500017
C55	C	1.313734	-0.099375	0.000004
C56	C	1.813734	0.400625	0.500004
C57	C	1.125464	-0.093271	0.000000
C58	C	1.625464	0.406729	0.500000
C59	C	1.112742	-0.202654	0.000003
C60	C	1.612742	0.297346	0.500003
C61	C	1.441400	0.276688	0.000005
C62	C	1.941400	0.776688	0.500005
C63	C	1.557815	0.290233	0.000014
C64	C	2.057815	0.790233	0.500014
C65	C	1.262027	0.456060	0.000015
C66	C	1.762027	0.956060	0.500015
C67	C	1.275571	0.572475	0.000022
C68	C	1.775571	1.072475	0.500022
N69	N	1.250757	0.265439	-0.346661
N70	N	1.750757	0.765439	0.153339
C71	C	1.181012	0.195613	-0.576666
C72	C	1.681012	0.695613	-0.076666
C73	C	1.181003	0.195628	-0.423329
C74	C	1.681003	0.695628	0.076671
C75	C	1.320530	0.335231	-0.423338
C76	C	1.820530	0.835231	0.076662
C77	C	1.320543	0.335209	-0.576672
C78	C	1.820543	0.835209	-0.076672
C79	C	1.100454	0.115017	-0.576660
C80	C	1.600454	0.615017	-0.076660
C81	C	1.100445	0.115033	-0.423324
C82	C	1.600445	0.615033	0.076676
N83	N	1.250778	0.265401	0.346668
N84	N	1.750778	0.765401	0.846668
H85	H	0.573523	0.120623	0.000015
H86	H	1.073523	0.620623	0.500015
H87	H	1.053994	-0.046247	-0.000020
H88	H	1.553994	0.453753	0.499980
Cl89	Cl	0.964653	0.029774	-0.000016
Cl90	Cl	1.464653	0.529774	0.499984
H91	H	1.395566	-0.057336	0.000001
H92	H	1.895566	0.442664	0.500001
H93	H	1.024648	0.140784	-0.624249
H94	H	1.524648	0.640784	-0.124249
H95	H	1.377363	0.392028	-0.639087
H96	H	1.877363	0.892028	-0.139087
Cl97	Cl	1.408230	0.422984	-0.326954
Cl98	Cl	1.908230	0.922984	0.173046
H99	H	1.118776	0.034845	-0.618240
H100	H	1.618776	0.534845	-0.118240
H101	H	1.020266	0.133328	-0.381735
H102	H	1.520266	0.633328	0.118265
Cl103	Cl	0.717769	0.001064	-0.000000
Cl104	Cl	1.217769	0.501064	0.500000
Cl105	Cl	0.950896	0.454724	0.000011
Cl106	Cl	1.450896	0.954724	0.500011
H107	H	0.760900	0.485269	0.000011
H108	H	1.260900	0.985269	0.500011
H109	H	1.447538	-0.422891	0.000043
H110	H	1.947538	0.077109	0.500043
H111	H	0.562437	0.462196	0.000018
H112	H	1.062437	0.962196	0.500018
H113	H	1.470616	-0.224459	0.000016
H114	H	1.970616	0.275541	0.500016
H115	H	1.030918	-0.244710	0.000006
H116	H	1.530918	0.255290	0.500006
H117	H	1.105971	-0.411837	0.000029
H118	H	1.605971	0.088163	0.500029
H119	H	1.126261	0.039244	-0.375737
H120	H	1.626261	0.539244	0.124263
