data_functionalizedCrystal
_audit_creation_method	'MofGen! by Chris Wilmer'
_symmetry_space_group_name_H-M	'P1'
_symmetry_Int_Tables_number	1
_symmetry_cell_setting	triclinic
loop_
_symmetry_equiv_pos_as_xyz
  x,y,z
_cell_length_a	12.759401
_cell_length_b	25.639240
_cell_length_c	12.759393
_cell_angle_alpha	89.956840
_cell_angle_beta	89.980324
_cell_angle_gamma	90.033185
loop_
_atom_site_label
_atom_site_type_symbol
_atom_site_fract_x
_atom_site_fract_y
_atom_site_fract_z
Zn1	Zn	1.606135	-0.208120	-0.593892
Zn2	Zn	1.939468	0.125214	-0.260559
Zn3	Zn	2.272801	0.458547	0.072774
Zn4	Zn	1.605970	-0.295565	-0.418174
Zn5	Zn	1.939304	0.037769	-0.084840
Zn6	Zn	2.272637	0.371102	0.248493
Zn7	Zn	1.430433	-0.208146	-0.418231
Zn8	Zn	1.763767	0.125188	-0.084898
Zn9	Zn	2.097100	0.458521	0.248435
Zn10	Zn	1.430370	-0.295526	-0.593815
Zn11	Zn	1.763703	0.037807	-0.260481
Zn12	Zn	2.097036	0.371140	0.072852
O13	O	1.518227	-0.251839	-0.506028
O14	O	1.851560	0.081494	-0.172695
O15	O	2.184894	0.414828	0.160639
O16	O	1.753134	-0.219724	-0.570591
O17	O	2.086467	0.113609	-0.237258
O18	O	2.419800	0.446942	0.096076
O19	O	1.582643	-0.283995	-0.271160
O20	O	1.915976	0.049338	0.062173
O21	O	2.249309	0.382671	0.395507
O22	O	1.453836	-0.134977	-0.441590
O23	O	1.787169	0.198356	-0.108256
O24	O	2.120502	0.531690	0.225077
O25	O	1.753013	-0.283970	-0.441491
O26	O	2.086346	0.049363	-0.108158
O27	O	2.419680	0.382697	0.225175
O28	O	1.582923	-0.134958	-0.570647
O29	O	1.916256	0.198376	-0.237314
O30	O	2.249589	0.531709	0.096020
O31	O	1.453676	-0.219769	-0.271202
O32	O	1.787010	0.113564	0.062131
O33	O	2.120343	0.446898	0.395464
O34	O	1.283404	-0.219732	-0.441514
O35	O	1.616737	0.113601	-0.108181
O36	O	1.950070	0.446935	0.225152
O37	O	1.453728	-0.283905	-0.740846
O38	O	1.787061	0.049429	-0.407513
O39	O	2.120394	0.382762	-0.074179
O40	O	1.283357	-0.283930	-0.570515
O41	O	1.616690	0.049403	-0.237181
O42	O	1.950024	0.382737	0.096152
O43	O	1.582861	-0.219687	-0.740903
O44	O	1.916194	0.113646	-0.407570
O45	O	2.249528	0.446979	-0.074236
O46	O	1.582581	-0.368725	-0.441416
O47	O	1.915914	-0.035391	-0.108083
O48	O	2.249248	0.297942	0.225251
O49	O	1.453568	-0.368697	-0.570459
O50	O	1.786902	-0.035363	-0.237125
O51	O	2.120235	0.297970	0.096208
C52	C	1.245260	-0.251830	-0.506013
C53	C	1.578593	0.081503	-0.172680
C54	C	1.911926	0.414837	0.160654
C55	C	1.128483	-0.251839	-0.506032
C56	C	1.461816	0.081494	-0.172698
C57	C	1.795150	0.414828	0.160635
C58	C	1.073684	-0.218447	-0.573358
C59	C	1.407018	0.114887	-0.240024
C60	C	1.740351	0.448220	0.093309
C61	C	0.963960	-0.218452	-0.573364
C62	C	1.297294	0.114881	-0.240031
C63	C	1.630627	0.448215	0.093302
C64	C	0.963843	-0.285246	-0.438717
C65	C	1.297176	0.048087	-0.105383
C66	C	1.630510	0.381420	0.227950
C67	C	1.073565	-0.285238	-0.438705
C68	C	1.406898	0.048095	-0.105372
C69	C	1.740232	0.381429	0.227961
C70	C	1.518078	-0.387682	-0.505946
C71	C	1.851412	-0.054348	-0.172612
C72	C	2.184745	0.278985	0.160721
C73	C	1.518111	-0.445796	-0.505946
C74	C	1.851444	-0.112462	-0.172612
C75	C	2.184778	0.220871	0.160721
C76	C	1.585476	-0.806110	-0.573349
C77	C	1.918809	-0.472777	-0.240016
C78	C	2.252143	-0.139444	0.093317
C79	C	1.585507	-0.860715	-0.573371
C80	C	1.918840	-0.527381	-0.240037
C81	C	2.252174	-0.194048	0.093296
O82	O	1.642606	-0.888910	-0.630595
O83	O	1.975940	-0.555577	-0.297262
O84	O	2.309273	-0.222243	0.036072
N85	N	1.518373	-0.888078	-0.506129
N86	N	1.851706	-0.554745	-0.172796
N87	N	2.185039	-0.221411	0.160537
C88	C	1.451196	-0.860835	-0.438870
C89	C	1.784529	-0.527501	-0.105537
C90	C	2.117862	-0.194168	0.227797
O91	O	1.394095	-0.889123	-0.381679
O92	O	1.727428	-0.555790	-0.048345
O93	O	2.060762	-0.222457	0.284988
C94	C	1.451160	-0.806231	-0.438855
C95	C	1.784493	-0.472898	-0.105521
C96	C	2.117827	-0.139565	0.227812
C97	C	1.518306	-0.778871	-0.506093
C98	C	1.851640	-0.445537	-0.172760
C99	C	2.184973	-0.112204	0.160574
C100	C	1.652616	-0.778749	-0.640583
C101	C	1.985949	-0.445416	-0.307249
C102	C	2.319282	-0.112083	0.026084
C103	C	1.652586	-0.724149	-0.640560
C104	C	1.985919	-0.390816	-0.307226
C105	C	2.319252	-0.057482	0.026107
C106	C	1.585416	-0.696909	-0.573303
C107	C	1.918749	-0.363576	-0.239970
C108	C	2.252083	-0.030243	0.093363
C109	C	1.518276	-0.724270	-0.506070
C110	C	1.851610	-0.390937	-0.172737
C111	C	2.184943	-0.057603	0.160597
C112	C	1.383979	-0.778989	-0.371601
C113	C	1.717312	-0.445655	-0.038268
C114	C	2.050645	-0.112322	0.295065
C115	C	1.383948	-0.724382	-0.371592
C116	C	1.717282	-0.391048	-0.038259
C117	C	2.050615	-0.057715	0.295074
C118	C	1.451094	-0.697021	-0.438831
C119	C	1.784428	-0.363688	-0.105497
C120	C	2.117761	-0.030354	0.227836
C121	C	1.451077	-0.642430	-0.438790
C122	C	1.784410	-0.309096	-0.105457
C123	C	2.117743	0.024237	0.227876
N124	N	1.518211	-0.615066	-0.506032
N125	N	1.851544	-0.281733	-0.172698
N126	N	2.184878	0.051601	0.160635
C127	C	1.585381	-0.642306	-0.573288
C128	C	1.918714	-0.308973	-0.239955
C129	C	2.252047	0.024361	0.093379
C130	C	1.451274	-0.975505	-0.438909
C131	C	1.784607	-0.642172	-0.105575
C132	C	2.117941	-0.308838	0.227758
C133	C	1.451314	-1.030107	-0.438918
C134	C	1.784647	-0.696774	-0.105584
C135	C	2.117981	-0.363441	0.227749
C136	C	1.585624	-1.029984	-0.573420
C137	C	1.918958	-0.696650	-0.240087
C138	C	2.252291	-0.363317	0.093247
C139	C	1.585589	-0.975380	-0.573405
C140	C	1.918922	-0.642047	-0.240071
C141	C	2.252255	-0.308714	0.093262
C142	C	1.518408	-0.948142	-0.506150
C143	C	1.851742	-0.614808	-0.172816
C144	C	2.185075	-0.281475	0.160517
C145	C	1.585314	-0.527641	-0.573234
C146	C	1.918647	-0.194307	-0.239901
C147	C	2.251980	0.139026	0.093433
C148	C	1.585281	-0.473035	-0.573202
C149	C	1.918614	-0.139702	-0.239869
C150	C	2.251947	0.193631	0.093465
C151	C	1.450967	-0.473164	-0.438704
C152	C	1.784301	-0.139831	-0.105371
C153	C	2.117634	0.193503	0.227963
C154	C	1.451003	-0.527765	-0.438732
C155	C	1.784337	-0.194431	-0.105398
C156	C	2.117670	0.138902	0.227935
C157	C	1.518180	-0.555002	-0.506005
C158	C	1.851513	-0.221668	-0.172672
C159	C	2.184847	0.111665	0.160661
O160	O	1.394004	-0.614199	-0.381598
O161	O	1.727337	-0.280866	-0.048265
O162	O	2.060670	0.052467	0.285069
O163	O	1.642462	-0.614010	-0.630479
O164	O	1.975795	-0.280677	-0.297146
O165	O	2.309129	0.052656	0.036187
C166	C	1.792260	-0.251849	-0.506043
C167	C	2.125593	0.081485	-0.172710
C168	C	2.458927	0.414818	0.160623
C169	C	1.909037	-0.251853	-0.506050
C170	C	2.242370	0.081481	-0.172717
C171	C	2.575703	0.414814	0.160617
C172	C	1.518306	-0.251789	-0.780061
C173	C	1.851639	0.081544	-0.446728
C174	C	2.184972	0.414878	-0.113395
C175	C	1.518339	-0.251768	-0.896838
C176	C	1.851672	0.081566	-0.563505
C177	C	2.185006	0.414899	-0.230171
C178	C	1.518405	-0.115466	-0.506134
C179	C	1.851738	0.217867	-0.172800
C180	C	2.185071	0.551201	0.160533
C181	C	1.518480	-0.057352	-0.506179
C182	C	1.851814	0.275981	-0.172845
C183	C	2.185147	0.609315	0.160488
C184	C	1.585584	-0.218324	-0.951731
C185	C	1.918917	0.115009	-0.618398
C186	C	2.252251	0.448343	-0.285065
C187	C	1.585602	-0.218302	-1.061456
C188	C	1.918935	0.115032	-0.728122
C189	C	2.252268	0.448365	-0.394789
C190	C	1.451127	-0.285170	-1.061383
C191	C	1.784460	0.048163	-0.728050
C192	C	2.117794	0.381496	-0.394717
C193	C	1.451105	-0.285190	-0.951661
C194	C	1.784438	0.048144	-0.618328
C195	C	2.117771	0.381477	-0.284995
C196	C	1.518209	-0.251851	-0.233061
C197	C	1.851542	0.081482	0.100273
C198	C	2.184876	0.414815	0.433606
C199	C	1.518379	-0.251725	-0.116284
C200	C	1.851712	0.081608	0.217049
C201	C	2.185046	0.414941	0.550382
H202	H	0.919115	-0.312439	-0.383903
H203	H	1.252449	0.020894	-0.050570
H204	H	1.585782	0.354228	0.282764
F205	F	1.132128	-0.182899	-0.645009
F206	F	1.465462	0.150434	-0.311676
F207	F	1.798795	0.483768	0.021658
F208	F	0.905644	-0.182911	-0.645021
F209	F	1.238978	0.150423	-0.311687
F210	F	1.572311	0.483756	0.021646
H211	H	1.118183	-0.312430	-0.383875
H212	H	1.451517	0.020903	-0.050541
H213	H	1.784850	0.354236	0.282792
H214	H	1.640358	-0.191068	-1.106145
H215	H	1.973691	0.142266	-0.772812
H216	H	2.307024	0.475599	-0.439478
H217	H	1.639963	-0.450760	-0.627955
H218	H	1.973296	-0.117427	-0.294622
H219	H	2.306629	0.215907	0.038712
H220	H	1.640328	-0.191108	-0.907098
H221	H	1.973661	0.142225	-0.573764
H222	H	2.306994	0.475559	-0.240431
F223	F	1.312508	-0.808096	-0.300039
F224	F	1.645842	-0.474763	0.033295
F225	F	1.979175	-0.141430	0.366628
H226	H	1.640008	-0.549811	-0.628022
H227	H	1.973341	-0.216477	-0.294688
H228	H	2.306675	0.116856	0.038645
H229	H	1.396389	-0.312383	-1.106034
H230	H	1.729723	0.020951	-0.772700
H231	H	2.063056	0.354284	-0.439367
H232	H	1.396338	-0.312423	-0.906966
H233	H	1.729672	0.020910	-0.573633
H234	H	2.063005	0.354244	-0.240299
H235	H	1.707259	-0.701875	-0.695314
H236	H	2.040592	-0.368542	-0.361980
H237	H	2.373925	-0.035208	-0.028647
H238	H	1.707313	-0.800922	-0.695357
H239	H	2.040646	-0.467589	-0.362024
H240	H	2.373980	-0.134256	-0.028691
F241	F	1.657053	-0.946266	-0.644969
F242	F	1.990386	-0.612933	-0.311636
F243	F	2.323719	-0.279599	0.021698
F244	F	1.379553	-0.556885	-0.367157
F245	F	1.712886	-0.223552	-0.033824
F246	F	2.046219	0.109782	0.299510
H247	H	1.396648	-1.052380	-0.384154
H248	H	1.729982	-0.719047	-0.050821
H249	H	2.063315	-0.385713	0.282512
H250	H	1.640316	-1.052172	-0.628186
H251	H	1.973649	-0.718839	-0.294852
H252	H	2.306982	-0.385506	0.038481
F253	F	1.379773	-0.946520	-0.367315
F254	F	1.713106	-0.613187	-0.033982
F255	F	2.046439	-0.279854	0.299351
F256	F	1.312443	-0.695395	-0.300009
F257	F	1.645776	-0.362062	0.033324
F258	F	1.979109	-0.028729	0.366658
H259	H	1.396281	-0.450977	-0.383941
H260	H	1.729615	-0.117644	-0.050608
H261	H	2.062948	0.215690	0.282725
