data_functionalizedCrystal
_audit_creation_method	'MofGen! by Chris Wilmer'
_symmetry_space_group_name_H-M	'P1'
_symmetry_Int_Tables_number	1
_symmetry_cell_setting	triclinic
loop_
_symmetry_equiv_pos_as_xyz
  x,y,z
_cell_length_a	13.897449
_cell_length_b	18.215405
_cell_length_c	18.215399
_cell_angle_alpha	90.032960
_cell_angle_beta	89.984477
_cell_angle_gamma	89.973835
loop_
_atom_site_label
_atom_site_type_symbol
_atom_site_fract_x
_atom_site_fract_y
_atom_site_fract_z
Zn1	Zn	1.474605	0.292949	-0.416077
Zn2	Zn	1.807938	0.626283	-0.082744
Zn3	Zn	2.141271	0.959616	0.250590
Zn4	Zn	1.474493	0.416026	-0.293005
Zn5	Zn	1.807827	0.749359	0.040328
Zn6	Zn	2.141160	1.082692	0.373662
Zn7	Zn	1.313309	0.292980	-0.293027
Zn8	Zn	1.646642	0.626314	0.040306
Zn9	Zn	1.979975	0.959647	0.373639
Zn10	Zn	1.313255	0.415981	-0.416033
Zn11	Zn	1.646589	0.749315	-0.082700
Zn12	Zn	1.979922	1.082648	0.250634
O13	O	1.393916	0.354484	-0.354536
O14	O	1.727249	0.687817	-0.021202
O15	O	2.060582	1.021151	0.312131
O16	O	1.609572	0.309281	-0.399761
O17	O	1.942905	0.642614	-0.066427
O18	O	2.276238	0.975948	0.266906
O19	O	1.453087	0.399735	-0.190024
O20	O	1.786421	0.733068	0.143310
O21	O	2.119754	1.066402	0.476643
O22	O	1.334774	0.189992	-0.309378
O23	O	1.668107	0.523325	0.023956
O24	O	2.001441	0.856659	0.357289
O25	O	1.609490	0.399705	-0.309340
O26	O	1.942823	0.733038	0.023993
O27	O	2.276156	1.066372	0.357326
O28	O	1.453277	0.189969	-0.399782
O29	O	1.786611	0.523302	-0.066449
O30	O	2.119944	0.856636	0.266885
O31	O	1.334666	0.309334	-0.190040
O32	O	1.667999	0.642667	0.143293
O33	O	2.001332	0.976001	0.476627
O34	O	1.178320	0.309291	-0.309335
O35	O	1.511653	0.642624	0.023998
O36	O	1.844987	0.975958	0.357332
O37	O	1.334683	0.399629	-0.519023
O38	O	1.668017	0.732963	-0.185690
O39	O	2.001350	1.066296	0.147644
O40	O	1.178281	0.399659	-0.399707
O41	O	1.511614	0.732993	-0.066373
O42	O	1.844948	1.066326	0.266960
O43	O	1.453226	0.309238	-0.519055
O44	O	1.786559	0.642571	-0.185722
O45	O	2.119893	0.975905	0.147611
O46	O	1.453036	0.519004	-0.309297
O47	O	1.786369	0.852337	0.024036
O48	O	2.119702	1.185671	0.357369
O49	O	1.334575	0.518971	-0.399685
O50	O	1.667908	0.852305	-0.066352
O51	O	2.001242	1.185638	0.266981
C52	C	1.393814	0.545690	-0.354500
C53	C	1.727147	0.879024	-0.021167
C54	C	2.060480	1.212357	0.312167
C55	C	1.393858	0.627489	-0.354510
C56	C	1.727192	0.960823	-0.021176
C57	C	2.060525	1.294156	0.312157
C58	C	1.143301	0.354474	-0.354519
C59	C	1.476635	0.687808	-0.021185
C60	C	1.809968	1.021141	0.312148
C61	C	1.036087	0.354488	-0.354529
C62	C	1.369421	0.687821	-0.021196
C63	C	1.702754	1.021154	0.312138
C64	C	1.393961	0.354425	-0.546489
C65	C	1.727294	0.687759	-0.213155
C66	C	2.060628	1.021092	0.120178
C67	C	1.393980	0.354400	-0.628288
C68	C	1.727314	0.687734	-0.294954
C69	C	2.060647	1.021067	0.038379
C70	C	0.839792	0.354490	-0.354548
C71	C	1.173125	0.687824	-0.021215
C72	C	1.506459	1.021157	0.312118
C73	C	0.949025	0.354487	-0.354536
C74	C	1.282358	0.687820	-0.021202
C75	C	1.615691	1.021153	0.312131
C76	C	1.645508	0.354495	-0.354553
C77	C	1.978842	0.687828	-0.021220
C78	C	2.312175	1.021161	0.312114
C79	C	1.752722	0.354499	-0.354560
C80	C	2.086056	0.687832	-0.021227
C81	C	2.419389	1.021166	0.312106
C82	C	1.394044	0.162531	-0.354587
C83	C	1.727377	0.495864	-0.021254
C84	C	2.060711	0.829198	0.312079
C85	C	1.394099	0.080732	-0.354609
C86	C	1.727432	0.414066	-0.021276
C87	C	2.060765	0.747399	0.312057
C88	C	1.455686	0.815676	-0.307531
C89	C	1.789019	1.149009	0.025802
C90	C	2.122352	1.482342	0.359135
C91	C	1.455729	0.892534	-0.307549
C92	C	1.789062	1.225868	0.025784
C93	C	2.122395	1.559201	0.359118
C94	C	1.332269	0.892540	-0.401593
C95	C	1.665602	1.225874	-0.068259
C96	C	1.998935	1.559207	0.265074
C97	C	1.332231	0.815683	-0.401578
C98	C	1.665565	1.149016	-0.068245
C99	C	1.998898	1.482350	0.265089
C100	C	1.393938	0.777253	-0.354543
C101	C	1.727272	1.110586	-0.021210
C102	C	2.060605	1.443919	0.312123
C103	C	1.394019	0.930969	-0.354576
C104	C	1.727352	1.264302	-0.021242
C105	C	2.060686	1.597635	0.312091
C106	C	1.394065	1.014302	-0.354595
C107	C	1.727399	1.347636	-0.021262
C108	C	2.060732	1.680969	0.312071
C109	C	1.393893	0.693914	-0.354524
C110	C	1.727227	1.027247	-0.021191
C111	C	2.060560	1.360580	0.312142
C112	C	1.332370	0.307297	-0.816491
C113	C	1.665704	0.640630	-0.483158
C114	C	1.999037	0.973963	-0.149824
C115	C	1.332387	0.307282	-0.893350
C116	C	1.665721	0.640615	-0.560016
C117	C	1.999054	0.973949	-0.226683
C118	C	1.455706	0.401416	-0.893322
C119	C	1.789039	0.734749	-0.559989
C120	C	2.122373	1.068083	-0.226655
C121	C	1.455684	0.401434	-0.816465
C122	C	1.789017	0.734767	-0.483131
C123	C	2.122350	1.068101	-0.149798
C124	C	1.394017	0.354370	-0.778051
C125	C	1.727351	0.687704	-0.444718
C126	C	2.060684	1.021037	-0.111384
C127	C	1.394056	0.354337	-0.931767
C128	C	1.727390	0.687671	-0.598434
C129	C	2.060723	1.021004	-0.265101
C130	C	1.394075	0.354322	-1.015101
C131	C	1.727408	0.687655	-0.681768
C132	C	2.060742	1.020988	-0.348434
C133	C	1.393997	0.354387	-0.694712
C134	C	1.727330	0.687720	-0.361379
C135	C	2.060664	1.021053	-0.028045
C136	C	1.393926	0.354490	-0.163329
C137	C	1.727259	0.687823	0.170004
C138	C	2.060592	1.021156	0.503337
C139	C	1.394093	0.354307	-0.081531
C140	C	1.727426	0.687641	0.251802
C141	C	2.060760	1.020974	0.585136
H142	H	1.505933	0.784387	-0.269234
H143	H	1.839266	1.117721	0.064100
H144	H	2.172599	1.451054	0.397433
N145	N	1.518799	0.931770	-0.259515
N146	N	1.852133	1.265103	0.073818
N147	N	2.185466	1.598437	0.407152
N148	N	1.512452	0.923240	-0.191602
N149	N	1.845786	1.256573	0.141732
N150	N	2.179119	1.589907	0.475065
H151	H	1.556999	0.950949	-0.157675
H152	H	1.890333	1.284282	0.175658
H153	H	2.223666	1.617616	0.508992
N154	N	1.269248	0.931809	-0.449632
N155	N	1.602581	1.265142	-0.116299
N156	N	1.935914	1.598476	0.217035
N157	N	1.269289	1.000431	-0.449640
N158	N	1.602622	1.333764	-0.116306
N159	N	1.935955	1.667098	0.217027
H160	H	1.224778	1.028164	-0.483568
H161	H	1.558111	1.361498	-0.150234
H162	H	1.891445	1.694831	0.183099
N163	N	1.269168	0.776431	-0.449615
N164	N	1.602501	1.109765	-0.116281
N165	N	1.935835	1.443098	0.217052
N166	N	1.275518	0.784960	-0.517528
N167	N	1.608851	1.118293	-0.184195
N168	N	1.942184	1.451627	0.149139
H169	H	1.230985	0.757239	-0.551456
H170	H	1.564318	1.090572	-0.218123
H171	H	1.897652	1.423905	0.115211
H172	H	1.505913	0.439733	-0.924608
H173	H	1.839246	0.773067	-0.591274
H174	H	2.172580	1.106400	-0.257941
H175	H	1.282158	0.268974	-0.785217
H176	H	1.615491	0.602308	-0.451883
H177	H	1.948824	0.935641	-0.118550
N178	N	1.269405	0.259197	-0.932603
N179	N	1.602739	0.592530	-0.599270
N180	N	1.936072	0.925863	-0.265937
N181	N	1.214350	0.217185	-0.898293
N182	N	1.547684	0.550518	-0.564960
N183	N	1.881017	0.883852	-0.231627
H184	H	1.169864	0.183223	-0.926015
H185	H	1.503198	0.516557	-0.592682
H186	H	1.836531	0.849890	-0.259349
H187	H	1.505886	0.439770	-0.785166
H188	H	1.839219	0.773103	-0.451833
H189	H	2.172553	1.106436	-0.118500
