data_functionalizedCrystal
_audit_creation_method	'MofGen! by Chris Wilmer'
_symmetry_space_group_name_H-M	'P1'
_symmetry_Int_Tables_number	1
_symmetry_cell_setting	triclinic
loop_
_symmetry_equiv_pos_as_xyz
  x,y,z
_cell_length_a	25.639242
_cell_length_b	25.639239
_cell_length_c	12.759387
_cell_angle_alpha	90.036418
_cell_angle_beta	90.031082
_cell_angle_gamma	90.033587
loop_
_atom_site_label
_atom_site_type_symbol
_atom_site_fract_x
_atom_site_fract_y
_atom_site_fract_z
Zn1	Zn	0.799274	-0.208194	0.594260
Zn2	Zn	0.799183	-0.295640	0.418563
Zn3	Zn	0.711836	-0.208213	0.418565
Zn4	Zn	0.711796	-0.295593	0.594170
O5	O	0.755522	-0.251910	0.506390
O6	O	0.872427	-0.219806	0.570991
O7	O	0.787575	-0.284070	0.271542
O8	O	0.723490	-0.135045	0.441909
O9	O	0.872360	-0.284052	0.441907
O10	O	0.787730	-0.135031	0.570992
O11	O	0.723402	-0.219838	0.271543
O12	O	0.638665	-0.219792	0.441822
O13	O	0.723421	-0.283972	0.741203
O14	O	0.638636	-0.283989	0.570839
O15	O	0.787691	-0.219760	0.741270
O16	O	0.787536	-0.368799	0.441820
O17	O	0.723333	-0.368764	0.570837
C18	C	0.619680	-0.251888	0.506321
C19	C	0.561566	-0.251891	0.506317
C20	C	0.310379	-0.218426	0.439327
C21	C	0.364983	-0.218422	0.439314
O22	O	0.393225	-0.189938	0.382297
N23	N	0.392292	-0.251897	0.506370
C24	C	0.364993	-0.285377	0.573451
O25	O	0.393235	-0.313850	0.630487
C26	C	0.310390	-0.285379	0.573469
C27	C	0.283084	-0.251904	0.506401
C28	C	0.283073	-0.184954	0.372265
C29	C	0.228472	-0.184960	0.372277
C30	C	0.201178	-0.218438	0.439351
C31	C	0.228484	-0.251910	0.506413
C32	C	0.283092	-0.318855	0.640555
C33	C	0.228485	-0.318853	0.640568
C34	C	0.201179	-0.285379	0.573500
C35	C	0.146588	-0.285393	0.573499
N36	N	0.119280	-0.251917	0.506443
C37	C	0.146574	-0.218439	0.439369
C38	C	0.479664	-0.285370	0.573410
C39	C	0.534266	-0.285371	0.573388
C40	C	0.534252	-0.218415	0.439251
C41	C	0.479649	-0.218417	0.439269
C42	C	0.452355	-0.251894	0.506354
C43	C	0.031909	-0.218454	0.439399
C44	C	-0.022696	-0.218464	0.439414
C45	C	-0.022678	-0.285418	0.573554
C46	C	0.031923	-0.285410	0.573536
C47	C	0.059215	-0.251924	0.506455
O48	O	0.118311	-0.313861	0.630490
O49	O	0.118326	-0.189966	0.382353
C50	C	0.755434	-0.387753	0.506342
C51	C	0.755444	-0.445867	0.506356
C52	C	0.789040	-0.806235	0.439325
C53	C	0.789060	-0.860839	0.439339
O54	O	0.817533	-0.889081	0.382294
N55	N	0.755614	-0.888149	0.506459
C56	C	0.722149	-0.860851	0.573578
O57	O	0.693703	-0.889094	0.630671
C58	C	0.722132	-0.806248	0.573568
C59	C	0.755577	-0.778941	0.506436
C60	C	0.822482	-0.778928	0.372199
C61	C	0.822461	-0.724328	0.372184
C62	C	0.788998	-0.697034	0.439294
C63	C	0.755555	-0.724341	0.506421
C64	C	0.688670	-0.778952	0.640691
C65	C	0.688656	-0.724344	0.640676
C66	C	0.722101	-0.697038	0.573544
C67	C	0.722071	-0.642447	0.573516
N68	N	0.755517	-0.615137	0.506396
C69	C	0.788981	-0.642431	0.439285
C70	C	0.722189	-0.975522	0.573594
C71	C	0.722203	-1.030124	0.573599
C72	C	0.789115	-1.030109	0.439361
C73	C	0.789098	-0.975505	0.439352
C74	C	0.755635	-0.948212	0.506473
C75	C	0.788934	-0.527766	0.439257
C76	C	0.788908	-0.473160	0.439245
C77	C	0.721998	-0.473181	0.573486
C78	C	0.722021	-0.527781	0.573495
C79	C	0.755493	-0.555072	0.506377
O80	O	0.693614	-0.614170	0.630535
O81	O	0.817427	-0.614181	0.382211
C82	C	0.891895	-0.251932	0.506459
C83	C	0.950009	-0.251942	0.506489
C84	C	0.755562	-0.251859	0.780423
C85	C	0.755579	-0.251837	0.897200
C86	C	0.755625	-0.115537	0.506461
C87	C	0.755668	-0.057423	0.506491
C88	C	0.755513	-0.251923	0.233422
C89	C	0.755597	-0.251798	0.116646
C90	C	0.822508	-0.184978	0.897289
C91	C	0.855979	-0.151541	0.952194
C92	C	0.855992	-0.151522	1.061916
C93	C	0.822528	-0.184942	1.116735
C94	C	0.789056	-0.218380	1.061830
C95	C	0.789048	-0.218396	0.952105
C96	C	0.722126	-0.285235	1.061741
C97	C	0.722115	-0.285258	0.952019
C98	C	0.688662	-0.318656	1.116560
C99	C	0.655192	-0.352096	1.061655
C100	C	0.655181	-0.352114	0.951926
C101	C	0.688643	-0.318695	0.897114
H102	H	0.556494	-0.312635	0.627990
H103	H	0.883224	-0.124330	0.907548
H104	H	0.822537	-0.184919	1.206076
O105	O	0.688676	-0.318734	1.223143
C106	C	0.702076	-0.368839	1.259773
H107	H	0.693109	-0.398961	1.196516
H108	H	0.745459	-0.369958	1.279267
C109	C	0.681235	-0.344374	1.436597
C110	C	0.670217	-0.381371	1.358907
H111	H	0.661585	-0.352103	1.497750
H112	H	0.672209	-0.310616	1.411920
H113	H	0.717388	-0.345309	1.452829
H114	H	0.634066	-0.380430	1.342666
H115	H	0.679236	-0.415129	1.383584
H116	H	0.661407	-0.702125	0.695338
H117	H	0.849735	-0.801145	0.317549
H118	H	0.688639	-0.318708	0.807773
H119	H	0.816191	-0.549980	0.384606
O120	O	0.622714	-0.384630	1.114788
C121	C	0.634104	-0.436749	1.087985
H122	H	0.654195	-0.437855	1.008333
H123	H	0.660976	-0.454352	1.149751
C124	C	0.558431	-0.467051	1.180694
C125	C	0.583103	-0.468409	1.082861
H126	H	0.526972	-0.486581	1.177538
H127	H	0.550758	-0.431937	1.198756
H128	H	0.580829	-0.481719	1.232156
H129	H	0.560707	-0.453736	1.031404
H130	H	0.590771	-0.503521	1.064790
H131	H	0.883244	-0.124291	1.106619
H132	H	0.627918	-0.379338	0.907229
H133	H	-0.044926	-0.191205	0.384797
H134	H	0.054124	-0.191184	0.384781
H135	H	-0.044911	-0.312677	0.628161
H136	H	0.206245	-0.157701	0.317664
H137	H	0.816143	-0.450929	0.384574
H138	H	0.849696	-0.702098	0.317522
O139	O	0.821562	-0.949039	0.373999
C140	C	0.810156	-0.962421	0.269265
H141	H	0.790066	-1.002084	0.267056
H142	H	0.783277	-0.931725	0.233814
C143	C	0.885818	-0.916213	0.208446
C144	C	0.861147	-0.964930	0.205732
H145	H	0.917271	-0.917758	0.169254
H146	H	0.893501	-0.907195	0.279007
H147	H	0.863413	-0.890638	0.178905
H148	H	0.883548	-0.990502	0.235285
H149	H	0.853468	-0.973952	0.135175
O150	O	0.309501	-0.152416	0.307002
C151	C	0.273681	-0.122868	0.247845
H152	H	0.234747	-0.144287	0.244162
H153	H	0.267908	-0.083181	0.286461
C154	C	0.342764	-0.088960	0.140563
C155	C	0.294945	-0.115271	0.136031
H156	H	0.355881	-0.084272	0.071592
H157	H	0.366897	-0.108866	0.180420
H158	H	0.337947	-0.055891	0.172747
H159	H	0.299764	-0.148342	0.103860
H160	H	0.270813	-0.095371	0.096166
H161	H	0.457420	-0.191157	0.384660
H162	H	0.457444	-0.312635	0.628036
O163	O	0.560829	-0.185963	0.374047
C164	C	0.592367	-0.215688	0.306057
H165	H	0.600534	-0.255334	0.342960
H166	H	0.571298	-0.221384	0.228178
C167	C	0.634215	-0.138216	0.241815
C168	C	0.644250	-0.186908	0.287144
H169	H	0.666218	-0.120463	0.230144
H170	H	0.612966	-0.118189	0.287617
H171	H	0.616656	-0.142970	0.176921
H172	H	0.661803	-0.182154	0.352043
H173	H	0.665503	-0.206934	0.241352
O174	O	0.309528	-0.351387	0.705809
C175	C	0.273717	-0.380937	0.764991
H176	H	0.234808	-0.359522	0.768698
H177	H	0.267875	-0.420626	0.726382
C178	C	0.342838	-0.414836	0.872232
C179	C	0.295051	-0.388531	0.876792
H180	H	0.355999	-0.419522	0.941195
H181	H	0.366965	-0.394929	0.832358
H182	H	0.337963	-0.447907	0.840053
H183	H	0.299928	-0.355458	0.908958
H184	H	0.270926	-0.408432	0.916674
H185	H	0.206265	-0.346113	0.695201
O186	O	0.821715	-1.056632	0.374361
C187	C	0.855464	-1.088145	0.434328
H188	H	0.858612	-1.071652	0.517083
H189	H	0.839342	-1.129554	0.437893
C190	C	0.905992	-1.109170	0.281588
C191	C	0.909861	-1.088910	0.383226
H192	H	0.939546	-1.109644	0.250065
H193	H	0.883253	-1.087941	0.241186
H194	H	0.892554	-1.143676	0.284573
H195	H	0.923292	-1.054403	0.380239
H196	H	0.932603	-1.110134	0.423627
O197	O	0.058370	-0.317945	0.638779
C198	C	0.022567	-0.347505	0.697960
H199	H	-0.016346	-0.326098	0.701673
H200	H	0.016733	-0.387194	0.659346
C201	C	0.091698	-0.381393	0.805190
C202	C	0.043906	-0.355098	0.809758
H203	H	0.104861	-0.386079	0.874151
H204	H	0.115820	-0.361479	0.765316
H205	H	0.086830	-0.414464	0.773007
H206	H	0.048776	-0.322025	0.841928
H207	H	0.019785	-0.375006	0.849639
O208	O	0.689694	-1.056566	0.638902
C209	C	0.660146	-1.020760	0.698107
H210	H	0.681549	-0.981816	0.701773
H211	H	0.620446	-1.015004	0.659545
C212	C	0.626299	-1.089860	0.805415
C213	C	0.652589	-1.042030	0.809925
H214	H	0.621635	-1.102981	0.874389
H215	H	0.646204	-1.113984	0.765526
H216	H	0.593218	-1.085057	0.773275
H217	H	0.685672	-1.046835	0.842052
H218	H	0.632689	-1.017908	0.849823
H219	H	0.694935	-0.953303	0.628249
O220	O	0.656239	-0.805444	0.706062
C221	C	0.667635	-0.792031	0.810784
H222	H	0.709400	-0.776986	0.816155
H223	H	0.639592	-0.760345	0.838174
C224	C	0.610251	-0.858987	0.874327
C225	C	0.661549	-0.840512	0.880925
H226	H	0.606495	-0.888891	0.917594
H227	H	0.602571	-0.868023	0.803773
H228	H	0.586888	-0.832578	0.897149
H229	H	0.684910	-0.866919	0.858090
H230	H	0.669232	-0.831483	0.951476
O231	O	0.689516	-0.554230	0.638801
C232	C	0.659965	-0.518427	0.698009
H233	H	0.681362	-0.479480	0.701670
H234	H	0.620262	-0.512678	0.659453
C235	C	0.626133	-0.587531	0.805326
C236	C	0.652416	-0.539697	0.809830
H237	H	0.621474	-0.600652	0.874301
H238	H	0.646040	-0.611653	0.765435
H239	H	0.593050	-0.582734	0.773191
H240	H	0.685500	-0.544497	0.841952
H241	H	0.632514	-0.515577	0.849729
H242	H	0.694751	-0.450950	0.628124
H243	H	0.822505	-0.184995	0.807948
