data_functionalizedCrystal
_audit_creation_method	'MofGen! by Chris Wilmer'
_symmetry_space_group_name_H-M	'P1'
_symmetry_Int_Tables_number	1
_symmetry_cell_setting	triclinic
loop_
_symmetry_equiv_pos_as_xyz
  x,y,z
_cell_length_a	14.519709
_cell_length_b	22.010155
_cell_length_c	14.519709
_cell_angle_alpha	90.003314
_cell_angle_beta	96.319855
_cell_angle_gamma	90.002862
loop_
_atom_site_label
_atom_site_type_symbol
_atom_site_fract_x
_atom_site_fract_y
_atom_site_fract_z
O1	O	1.223874	0.050447	-0.120878
O2	O	1.723874	0.550447	0.379122
O3	O	0.955397	0.050466	-0.135115
O4	O	1.455397	0.550466	0.364885
O5	O	1.096754	0.050451	0.006242
O6	O	1.596754	0.550451	0.506242
O7	O	1.082517	0.050463	-0.262235
O8	O	1.582517	0.550463	0.237765
O9	O	1.096728	-0.050600	0.006221
O10	O	1.596728	0.449400	0.506221
O11	O	0.955372	-0.050584	-0.135136
O12	O	1.455372	0.449416	0.364864
O13	O	1.223849	-0.050603	-0.120900
O14	O	1.723849	0.449397	0.379100
Cu15	Cu	1.089608	-0.059820	-0.128020
Cu16	Cu	1.589608	0.440180	0.371980
Cu17	Cu	1.089638	0.059683	-0.127995
Cu18	Cu	1.589638	0.559683	0.372005
O19	O	1.082492	-0.050588	-0.262256
O20	O	1.582492	0.449412	0.237744
C21	C	0.921025	-0.000057	-0.134462
C22	C	1.421025	0.499943	0.365538
C23	C	0.818643	-0.000050	-0.132474
C24	C	1.318643	0.499950	0.367526
N25	N	1.089593	-0.143873	-0.128037
N26	N	1.589593	0.356127	0.371963
C27	C	0.443748	-0.000078	-0.125154
C28	C	0.943748	0.499922	0.374846
C29	C	0.548056	-0.000070	-0.127187
C30	C	1.048056	0.499930	0.372813
C31	C	0.631192	-0.000063	-0.128814
C32	C	1.131192	0.499937	0.371186
C33	C	0.735507	-0.000056	-0.130847
C34	C	1.235507	0.499944	0.369153
C35	C	1.152235	-0.563659	-0.065411
C36	C	1.652235	-0.063659	0.434589
C37	C	1.152239	-0.627267	-0.065405
C38	C	1.652239	-0.127267	0.434595
O39	O	1.205462	-0.660164	-0.012170
O40	O	1.705462	-0.160164	0.487830
N41	N	1.089638	-0.659080	-0.127975
N42	N	1.589638	-0.159080	0.372025
C43	C	1.027022	-0.627282	-0.190550
C44	C	1.527022	-0.127282	0.309450
O45	O	0.973774	-0.660183	-0.243771
O46	O	1.473774	-0.160183	0.256229
C47	C	1.027014	-0.563676	-0.190552
C48	C	1.527014	-0.063676	0.309448
C49	C	1.089625	-0.531866	-0.127983
C50	C	1.589625	-0.031866	0.372017
C51	C	1.214840	-0.531849	-0.002847
C52	C	1.714840	-0.031849	0.497153
C53	C	1.214837	-0.468246	-0.002854
C54	C	1.714837	0.031754	0.497146
C55	C	1.152228	-0.436453	-0.065426
C56	C	1.652228	0.063547	0.434574
C57	C	1.089622	-0.468263	-0.127991
C58	C	1.589622	0.031737	0.372009
C59	C	0.964394	-0.531879	-0.253121
C60	C	1.464394	-0.031879	0.246879
C61	C	0.964391	-0.468269	-0.253117
C62	C	1.464391	0.031731	0.246883
C63	C	1.027003	-0.436459	-0.190548
C64	C	1.527003	0.063541	0.309452
C65	C	1.027009	-0.372866	-0.190570
C66	C	1.527009	0.127134	0.309430
N67	N	1.089611	-0.341053	-0.128000
N68	N	1.589611	0.158947	0.372000
C69	C	1.152220	-0.372846	-0.065428
C70	C	1.652220	0.127154	0.434572
C71	C	1.027042	-0.760860	-0.190542
C72	C	1.527042	-0.260860	0.309458
C73	C	1.027054	-0.824465	-0.190546
C74	C	1.527054	-0.324465	0.309454
C75	C	1.152270	-0.824445	-0.065399
C76	C	1.652270	-0.324445	0.434601
C77	C	1.152262	-0.760839	-0.065400
C78	C	1.652262	-0.260839	0.434600
C79	C	1.089643	-0.729047	-0.127971
C80	C	1.589643	-0.229047	0.372029
C81	C	1.152209	-0.239275	-0.065449
C82	C	1.652209	0.260725	0.434551
C83	C	1.152202	-0.175666	-0.065465
C84	C	1.652202	0.324334	0.434535
C85	C	1.026983	-0.175692	-0.190608
C86	C	1.526983	0.324308	0.309392
C87	C	1.026992	-0.239295	-0.190596
C88	C	1.526992	0.260705	0.309404
C89	C	1.089609	-0.271085	-0.128009
C90	C	1.589609	0.228915	0.371991
O91	O	0.973811	-0.339929	-0.243776
O92	O	1.473811	0.160071	0.256224
O93	O	1.205450	-0.339938	-0.012208
O94	O	1.705450	0.160062	0.487792
C95	C	1.258221	-0.000079	-0.121553
C96	C	1.758221	0.499921	0.378447
C97	C	1.360602	-0.000082	-0.123541
C98	C	1.860602	0.499918	0.376459
C99	C	1.096078	-0.000074	0.040591
C100	C	1.596078	0.499926	0.540591
C101	C	1.094090	-0.000075	0.142972
C102	C	1.594090	0.499925	0.642972
N103	N	1.089660	0.143736	-0.127970
N104	N	1.589660	0.643736	0.372030
C105	C	1.083168	-0.000061	-0.296606
C106	C	1.583168	0.499939	0.203394
C107	C	1.085156	-0.000057	-0.398987
C108	C	1.585156	0.499943	0.101013
C109	C	1.086770	-0.000058	0.517868
C110	C	1.586770	0.499942	1.017868
C111	C	1.088803	-0.000063	0.413560
C112	C	1.588803	0.499937	0.913560
C113	C	1.090430	-0.000067	0.330423
C114	C	1.590430	0.499933	0.830423
C115	C	1.092463	-0.000071	0.226109
C116	C	1.592463	0.499929	0.726109
H117	H	1.203191	-0.149768	-0.014514
H118	H	1.703191	0.350232	0.485486
H119	H	1.203245	-0.734943	-0.014451
H120	H	1.703245	-0.234943	0.485549
H121	H	1.265824	-0.557729	0.048111
H122	H	1.765824	-0.057729	0.548111
H123	H	1.203249	-0.850343	-0.014448
H124	H	1.703249	-0.350343	0.485552
O125	O	0.959499	-0.726579	-0.258044
O126	O	1.459499	-0.226579	0.241956
H127	H	0.914601	-0.697609	-0.219127
H128	H	1.414601	-0.197609	0.280873
O129	O	0.959554	-0.858773	-0.258060
O130	O	1.459554	-0.358773	0.241940
H131	H	0.916025	-0.825973	-0.301572
H132	H	1.416025	-0.325973	0.198428
H133	H	1.203195	-0.265151	-0.014484
H134	H	1.703195	0.234849	0.485516
O135	O	1.282355	-0.433939	0.064643
O136	O	1.782355	0.066061	0.564643
H137	H	1.325878	-0.466741	0.108156
H138	H	1.825878	0.033259	0.608156
O139	O	0.896896	-0.566180	-0.320640
O140	O	1.396896	-0.066180	0.179360
H141	H	0.853371	-0.533377	-0.364148
H142	H	1.353371	-0.033377	0.135852
O143	O	0.896856	-0.433977	-0.320611
O144	O	1.396856	0.066023	0.179389
H145	H	0.853330	-0.466787	-0.364118
H146	H	1.353330	0.033213	0.135882
H147	H	0.976017	-0.265195	-0.241554
H148	H	1.476017	0.234805	0.258446
O149	O	0.959433	-0.141396	-0.258073
O150	O	1.459433	0.358604	0.241927
H151	H	0.969940	-0.091823	-0.247545
H152	H	1.469940	0.408177	0.252455
