data_functionalizedCrystal
_audit_creation_method	'MofGen! by Chris Wilmer'
_symmetry_space_group_name_H-M	'P1'
_symmetry_Int_Tables_number	1
_symmetry_cell_setting	triclinic
loop_
_symmetry_equiv_pos_as_xyz
  x,y,z
_cell_length_a	10.489741
_cell_length_b	19.288857
_cell_length_c	17.766277
_cell_angle_alpha	90.007107
_cell_angle_beta	90.007022
_cell_angle_gamma	83.836141
loop_
_atom_site_label
_atom_site_type_symbol
_atom_site_fract_x
_atom_site_fract_y
_atom_site_fract_z
O1	O	-1.691842	-0.097993	-0.062552
O2	O	-1.358509	0.235341	0.270782
O3	O	-1.025176	0.568674	0.604115
O4	O	-1.320438	-0.107191	-0.062564
O5	O	-0.987105	0.226142	0.270770
O6	O	-0.653772	0.559476	0.604103
O7	O	-1.516877	-0.001533	-0.062548
O8	O	-1.183544	0.331800	0.270785
O9	O	-0.850211	0.665133	0.604118
O10	O	-1.495403	-0.203651	-0.062567
O11	O	-1.162070	0.129683	0.270766
O12	O	-0.828737	0.463016	0.604100
O13	O	-1.516841	-0.001531	0.062640
O14	O	-1.183508	0.331803	0.395973
O15	O	-0.850174	0.665136	0.729307
O16	O	-1.320402	-0.107188	0.062625
O17	O	-0.987069	0.226145	0.395958
O18	O	-0.653735	0.559478	0.729291
O19	O	-1.691806	-0.097990	0.062637
O20	O	-1.358473	0.235343	0.395970
O21	O	-1.025139	0.568676	0.729303
Cu22	Cu	-1.506101	-0.102589	0.074061
Cu23	Cu	-1.172767	0.230744	0.407395
Cu24	Cu	-0.839434	0.564078	0.740728
Cu25	Cu	-1.506144	-0.102592	-0.073988
Cu26	Cu	-1.172810	0.230741	0.259345
Cu27	Cu	-0.839477	0.564074	0.592678
O28	O	-1.495367	-0.203648	0.062621
O29	O	-1.162034	0.129685	0.395955
O30	O	-0.828700	0.463019	0.729288
C31	C	-1.272904	-0.106495	0.000029
C32	C	-0.939571	0.226838	0.333362
C33	C	-0.606237	0.560172	0.666696
C34	C	-1.131322	-0.104417	0.000025
C35	C	-0.797988	0.228917	0.333358
C36	C	-0.464655	0.562250	0.666691
C37	C	-1.516170	0.024349	0.000047
C38	C	-1.182836	0.357683	0.333380
C39	C	-0.849503	0.691016	0.666713
C40	C	-1.514101	0.101467	0.000049
C41	C	-1.180767	0.434800	0.333382
C42	C	-0.847434	0.768134	0.666715
C43	C	-1.739340	-0.098686	0.000042
C44	C	-1.406007	0.234647	0.333376
C45	C	-1.072673	0.567980	0.666709
C46	C	-1.880923	-0.100765	0.000042
C47	C	-1.547589	0.232569	0.333375
C48	C	-1.214256	0.565902	0.666708
C49	C	-1.064705	-0.037190	0.000038
C50	C	-0.731372	0.296144	0.333371
C51	C	-0.398039	0.629477	0.666705
C52	C	-0.971877	-0.068948	-0.061688
C53	C	-0.638543	0.264385	0.271646
C54	C	-0.305210	0.597718	0.604979
C55	C	-0.971875	-0.068962	0.061738
C56	C	-0.638541	0.264372	0.395072
C57	C	-0.305208	0.597705	0.728405
C58	C	-1.040358	-0.136203	-0.061752
C59	C	-0.707025	0.197131	0.271581
C60	C	-0.373691	0.530464	0.604915
C61	C	-1.040365	-0.136207	0.061729
C62	C	-0.707032	0.197126	0.395063
C63	C	-0.373699	0.530460	0.728396
C64	C	-0.947563	-0.168014	-0.000011
C65	C	-0.614230	0.165319	0.333322
C66	C	-0.280896	0.498652	0.666655
C67	C	-1.496075	-0.229530	0.000025
C68	C	-1.162741	0.103803	0.333358
C69	C	-0.829408	0.437136	0.666691
C70	C	-1.498144	-0.306648	0.000018
C71	C	-1.164810	0.026685	0.333351
C72	C	-0.831477	0.360018	0.666684
N73	N	-1.506080	-0.102586	0.178192
N74	N	-1.172746	0.230747	0.511525
N75	N	-0.839413	0.564080	0.844858
C76	C	-1.513155	0.137683	-0.068192
C77	C	-1.179821	0.471016	0.265142
C78	C	-0.846488	0.804349	0.598475
C79	C	-1.511192	0.210142	-0.068197
C80	C	-1.177859	0.543475	0.265136
C81	C	-0.844526	0.876808	0.598469
C82	C	-1.510201	0.246384	0.000041
C83	C	-1.176868	0.579718	0.333375
C84	C	-0.843535	0.913051	0.666708
C85	C	-1.511140	0.210159	0.068291
C86	C	-1.177807	0.543493	0.401624
C87	C	-0.844474	0.876826	0.734957
C88	C	-1.513090	0.137701	0.068294
C89	C	-1.179756	0.471034	0.401628
C90	C	-0.846423	0.804367	0.734961
C91	C	-1.581803	0.366137	0.052318
C92	C	-1.248470	0.699470	0.385652
C93	C	-0.915137	1.032803	0.718985
C94	C	-1.579862	0.438594	0.052312
C95	C	-1.246528	0.771928	0.385645
C96	C	-0.913195	1.105261	0.718979
C97	C	-1.504183	0.469870	0.000033
C98	C	-1.170849	0.803204	0.333366
C99	C	-0.837516	1.136537	0.666699
C100	C	-1.430462	0.428681	-0.052253
C101	C	-1.097128	0.762014	0.281080
C102	C	-0.763795	1.095348	0.614414
C103	C	-1.432411	0.356222	-0.052249
C104	C	-1.099078	0.689556	0.281084
C105	C	-0.765745	1.022889	0.614417
C106	C	-1.508087	0.324953	0.000045
C107	C	-1.174753	0.658287	0.333378
C108	C	-0.841420	0.991620	0.666711
C109	C	-1.501107	0.584655	-0.068219
C110	C	-1.167774	0.917988	0.265115
C111	C	-0.834440	1.251321	0.598448
C112	C	-1.499137	0.657114	-0.068222
C113	C	-1.165803	0.990448	0.265112
C114	C	-0.832470	1.323781	0.598445
C115	C	-1.499098	0.657132	0.068268
C116	C	-1.165764	0.990465	0.401602
C117	C	-0.832431	1.323798	0.734935
C118	C	-1.501055	0.584672	0.068269
C119	C	-1.167722	0.918005	0.401603
C120	C	-0.834388	1.251339	0.734936
C121	C	-1.502066	0.548438	0.000024
C122	C	-1.168732	0.881772	0.333357
C123	C	-0.835399	1.215105	0.666690
C124	C	-1.583177	-0.145128	0.217571
C125	C	-1.249844	0.188206	0.550904
C126	C	-0.916510	0.521539	0.884238
C127	C	-1.583196	-0.145126	0.296373
C128	C	-1.249863	0.188207	0.629706
C129	C	-0.916530	0.521541	0.963039
C130	C	-1.506094	-0.102591	0.335792
C131	C	-1.172761	0.230742	0.669126
C132	C	-0.839428	0.564075	1.002459
C133	C	-1.428992	-0.060042	0.296404
C134	C	-1.095659	0.273292	0.629737
C135	C	-0.762326	0.606625	0.963070
C136	C	-1.428985	-0.060039	0.217603
C137	C	-1.095652	0.273294	0.550937
C138	C	-0.762318	0.606627	0.884270
C139	C	-1.391121	-0.100064	0.460648
C140	C	-1.057787	0.233269	0.793982
C141	C	-0.724454	0.566603	1.127315
C142	C	-1.391125	-0.100072	0.539447
C143	C	-1.057792	0.233262	0.872781
C144	C	-0.724459	0.566595	1.206114
C145	C	-1.506118	-0.102595	0.578839
C146	C	-1.172785	0.230738	0.912172
C147	C	-0.839452	0.564072	1.245505
C148	C	-1.621109	-0.105125	0.539422
C149	C	-1.287776	0.228208	0.872755
C150	C	-0.954442	0.561541	1.206088
C151	C	-1.621101	-0.105123	0.460621
C152	C	-1.287768	0.228210	0.793955
C153	C	-0.954435	0.561544	1.127288
C154	C	-1.506095	-0.102589	0.421238
C155	C	-1.172761	0.230744	0.754571
C156	C	-0.839428	0.564078	1.087905
C157	C	-1.583243	-0.145137	0.703664
C158	C	-1.249910	0.188197	1.036997
C159	C	-0.916577	0.521530	1.370330
C160	C	-1.583265	-0.145130	0.782467
C161	C	-1.249932	0.188203	1.115800
C162	C	-0.916599	0.521536	1.449134
C163	C	-1.429049	-0.060050	0.782496
C164	C	-1.095716	0.273284	1.115830
C165	C	-0.762383	0.606617	1.449163
C166	C	-1.429039	-0.060052	0.703695
C167	C	-1.095706	0.273281	1.037028
C168	C	-0.762373	0.606614	1.370361
C169	C	-1.506134	-0.102600	0.664283
C170	C	-1.172801	0.230734	0.997616
C171	C	-0.839467	0.564067	1.330950
N172	N	-1.506164	-0.102594	0.821881
N173	N	-1.172831	0.230739	1.155215
N174	N	-0.839498	0.564072	1.488548
H175	H	-1.115648	0.018075	-0.000034
H176	H	-0.782314	0.351409	0.333299
H177	H	-0.448981	0.684742	0.666633
H178	H	-1.297493	-0.098015	0.571534
H179	H	-0.964159	0.235318	0.904868
H180	H	-0.630826	0.568652	1.238201
H181	H	-1.368837	0.454144	-0.094824
H182	H	-1.035503	0.787477	0.238509
H183	H	-0.702170	1.120810	0.571843
H184	H	-1.645959	-0.179770	0.185487
H185	H	-1.312626	0.153563	0.518820
H186	H	-0.979292	0.486897	0.852154
H187	H	-0.896885	-0.223338	-0.000050
H188	H	-0.563552	0.109996	0.333283
H189	H	-0.230219	0.443329	0.666616
H190	H	-1.714731	-0.107182	0.428531
H191	H	-1.381397	0.226152	0.761865
H192	H	-1.048064	0.559485	1.095198
H193	H	-1.639895	0.472126	0.094883
H194	H	-1.306561	0.805459	0.428217
H195	H	-0.973228	1.138793	0.761550
H196	H	-1.645979	-0.179770	0.328442
H197	H	-1.312645	0.153563	0.661775
H198	H	-0.979312	0.486897	0.995108
H199	H	-1.643429	0.340678	0.094896
H200	H	-1.310096	0.674011	0.428230
H201	H	-0.976762	1.007345	0.761563
H202	H	-1.366253	-0.025413	0.671632
H203	H	-1.032920	0.307920	1.004965
H204	H	-0.699586	0.641253	1.338299
H205	H	-1.070752	-0.164628	0.113912
H206	H	-0.737419	0.168706	0.447246
H207	H	-0.404085	0.502039	0.780579
H208	H	-1.513855	0.108214	0.123866
H209	H	-1.180521	0.441547	0.457199
H210	H	-0.847188	0.774881	0.790532
H211	H	-1.498360	0.686600	-0.123793
H212	H	-1.165027	1.019933	0.209540
H213	H	-0.831693	1.353266	0.542873
H214	H	-0.941526	-0.040503	0.113923
H215	H	-0.608193	0.292830	0.447256
H216	H	-0.274860	0.626164	0.780590
H217	H	-1.646056	-0.179770	0.814528
H218	H	-1.312723	0.153563	1.147862
H219	H	-0.979390	0.486896	1.481195
H220	H	-1.297471	-0.098014	0.428582
H221	H	-0.964138	0.235319	0.761916
H222	H	-0.630805	0.568653	1.095249
H223	H	-1.510330	0.239672	0.123851
H224	H	-1.176996	0.573006	0.457184
H225	H	-0.843663	0.906339	0.790518
H226	H	-0.941522	-0.040504	-0.113868
H227	H	-0.608189	0.292829	0.219465
H228	H	-0.274856	0.626163	0.552798
H229	H	-1.714747	-0.107184	0.571493
H230	H	-1.381413	0.226150	0.904826
H231	H	-1.048080	0.559483	1.238159
H232	H	-1.366201	-0.025396	0.185541
H233	H	-1.032867	0.307937	0.518875
H234	H	-0.699534	0.641270	0.852208
H235	H	-1.498281	0.686639	0.123830
H236	H	-1.164948	1.019972	0.457163
H237	H	-0.831614	1.353305	0.790496
H238	H	-1.646019	-0.179781	0.671573
H239	H	-1.312686	0.153553	1.004906
H240	H	-0.979353	0.486886	1.338240
H241	H	-1.070557	-0.164627	-0.113996
H242	H	-0.737223	0.168706	0.219338
H243	H	-0.403890	0.502040	0.552671
H244	H	-1.366273	-0.025416	0.814591
H245	H	-1.032940	0.307917	1.147924
H246	H	-0.699606	0.641250	1.481258
H247	H	-1.513974	0.108185	-0.123763
H248	H	-1.180640	0.441519	0.209571
H249	H	-0.847307	0.774852	0.542904
H250	H	-1.372383	0.322688	-0.094820
H251	H	-1.039049	0.656022	0.238513
H252	H	-0.705716	0.989355	0.571846
H253	H	-1.510414	0.239634	-0.123769
H254	H	-1.177081	0.572967	0.209565
H255	H	-0.843747	0.906300	0.542898
H256	H	-1.501923	0.555151	-0.123788
H257	H	-1.168589	0.888484	0.209545
H258	H	-0.835256	1.221818	0.542878
H259	H	-1.366217	-0.025409	0.328504
H260	H	-1.032883	0.307924	0.661838
H261	H	-0.699550	0.641258	0.995171
H262	H	-1.501836	0.555186	0.123838
H263	H	-1.168503	0.888519	0.457171
H264	H	-0.835169	1.221852	0.790505
