data_functionalizedCrystal
_audit_creation_method	'MofGen! by Chris Wilmer'
_symmetry_space_group_name_H-M	'P1'
_symmetry_Int_Tables_number	1
_symmetry_cell_setting	triclinic
loop_
_symmetry_equiv_pos_as_xyz
  x,y,z
_cell_length_a	14.044191
_cell_length_b	19.188930
_cell_length_c	12.503572
_cell_angle_alpha	93.506241
_cell_angle_beta	86.162165
_cell_angle_gamma	88.168279
loop_
_atom_site_label
_atom_site_type_symbol
_atom_site_fract_x
_atom_site_fract_y
_atom_site_fract_z
O1	O	1.262490	0.164610	-0.089291
O2	O	1.512490	0.414610	0.160709
O3	O	1.762490	0.664610	0.410709
O4	O	2.012490	0.914610	0.660709
O5	O	0.986547	0.158532	-0.089304
O6	O	1.236547	0.408532	0.160696
O7	O	1.486547	0.658532	0.410696
O8	O	1.736547	0.908532	0.660696
O9	O	1.132480	0.060430	-0.089276
O10	O	1.382480	0.310430	0.160724
O11	O	1.632480	0.560430	0.410724
O12	O	1.882480	0.810430	0.660724
O13	O	1.116557	0.262712	-0.089319
O14	O	1.366557	0.512712	0.160681
O15	O	1.616557	0.762712	0.410681
O16	O	1.866557	1.012712	0.660681
O17	O	1.121505	0.067821	0.089364
O18	O	1.371505	0.317821	0.339364
O19	O	1.621505	0.567821	0.589364
O20	O	1.871505	0.817821	0.839364
O21	O	0.975571	0.165923	0.089336
O22	O	1.225571	0.415923	0.339336
O23	O	1.475571	0.665923	0.589336
O24	O	1.725571	0.915923	0.839336
O25	O	1.251515	0.172001	0.089349
O26	O	1.501515	0.422001	0.339349
O27	O	1.751515	0.672001	0.589349
O28	O	2.001515	0.922001	0.839349
Cu29	Cu	1.112541	0.169637	0.105654
Cu30	Cu	1.362541	0.419637	0.355654
Cu31	Cu	1.612541	0.669637	0.605654
Cu32	Cu	1.862541	0.919637	0.855654
Cu33	Cu	1.125520	0.160896	-0.105609
Cu34	Cu	1.375520	0.410896	0.144391
Cu35	Cu	1.625520	0.660896	0.394391
Cu36	Cu	1.875520	0.910896	0.644391
O37	O	1.105581	0.270103	0.089321
O38	O	1.355581	0.520103	0.339321
O39	O	1.605581	0.770103	0.589321
O40	O	1.855581	1.020103	0.839321
C41	C	0.945756	0.159568	0.000015
C42	C	1.195756	0.409568	0.250015
C43	C	1.445756	0.659568	0.500015
C44	C	1.695756	0.909568	0.750015
C45	C	0.840563	0.151637	0.000011
C46	C	1.090563	0.401637	0.250011
C47	C	1.340563	0.651637	0.500011
C48	C	1.590563	0.901637	0.750011
C49	C	0.590103	0.193385	0.000013
C50	C	0.840103	0.443385	0.250013
C51	C	1.090103	0.693385	0.500013
C52	C	1.340103	0.943385	0.750013
C53	C	0.647965	0.137150	0.000023
C54	C	0.897965	0.387150	0.250023
C55	C	1.147965	0.637150	0.500023
C56	C	1.397965	0.887150	0.750023
C57	C	0.755136	0.145213	0.000016
C58	C	1.005136	0.395213	0.250016
C59	C	1.255136	0.645213	0.500016
C60	C	1.505136	0.895213	0.750016
C61	C	0.482922	0.185324	0.000020
C62	C	0.732922	0.435324	0.250020
C63	C	0.982922	0.685324	0.500020
C64	C	1.232922	0.935324	0.750020
C65	C	1.126477	0.038081	0.000047
C66	C	1.376477	0.288081	0.250047
C67	C	1.626477	0.538081	0.500047
C68	C	1.876477	0.788081	0.750047
C69	C	1.124928	-0.039523	0.000056
C70	C	1.374928	0.210477	0.250056
C71	C	1.624928	0.460477	0.500056
C72	C	1.874928	0.710477	0.750056
C73	C	1.210557	-0.078919	0.000065
C74	C	1.460557	0.171081	0.250065
C75	C	1.710557	0.421081	0.500065
C76	C	1.960557	0.671081	0.750065
C77	C	1.209104	-0.151837	0.000048
C78	C	1.459104	0.098163	0.250048
C79	C	1.709104	0.348163	0.500048
C80	C	1.959104	0.598163	0.750048
C81	C	1.122015	-0.185356	0.000043
C82	C	1.372015	0.064644	0.250043
C83	C	1.622015	0.314644	0.500043
C84	C	1.872015	0.564644	0.750043
C85	C	1.036374	-0.145950	0.000028
C86	C	1.286374	0.104050	0.250028
C87	C	1.536374	0.354050	0.500028
C88	C	1.786374	0.604050	0.750028
C89	C	1.037831	-0.073034	0.000035
C90	C	1.287831	0.176966	0.250035
C91	C	1.537831	0.426966	0.500035
C92	C	1.787831	0.676966	0.750035
N93	N	1.051710	-0.295142	0.060835
N94	N	1.301710	-0.045142	0.310835
N95	N	1.551710	0.204858	0.560835
N96	N	1.801710	0.454858	0.810835
N97	N	1.050332	-0.364410	0.060831
N98	N	1.300332	-0.114410	0.310831
N99	N	1.550332	0.135590	0.560831
N100	N	1.800332	0.385590	0.810831
C101	C	1.117621	-0.405049	0.000021
C102	C	1.367621	-0.155049	0.250021
C103	C	1.617621	0.094951	0.500021
C104	C	1.867621	0.344951	0.750021
N105	N	1.186354	-0.373803	-0.060771
N106	N	1.436354	-0.123803	0.189229
N107	N	1.686354	0.126197	0.439229
N108	N	1.936354	0.376197	0.689229
N109	N	1.187734	-0.304529	-0.060762
N110	N	1.437734	-0.054529	0.189238
N111	N	1.687734	0.195471	0.439238
N112	N	1.937734	0.445471	0.689238
C113	C	1.120426	-0.264421	0.000036
C114	C	1.370426	-0.014421	0.250036
C115	C	1.620426	0.235579	0.500036
C116	C	1.870426	0.485579	0.750036
C117	C	1.201681	-0.523512	0.000010
C118	C	1.451681	-0.273512	0.250010
C119	C	1.701681	-0.023512	0.500010
C120	C	1.951681	0.226488	0.750010
C121	C	1.200224	-0.596432	-0.000014
C122	C	1.450224	-0.346432	0.249986
C123	C	1.700224	-0.096432	0.499986
C124	C	1.950224	0.153568	0.749986
C125	C	1.027491	-0.590543	-0.000023
C126	C	1.277491	-0.340543	0.249977
C127	C	1.527491	-0.090543	0.499977
C128	C	1.777491	0.159457	0.749977
C129	C	1.028951	-0.517625	-0.000010
C130	C	1.278951	-0.267625	0.249990
C131	C	1.528951	-0.017625	0.499990
C132	C	1.778951	0.232375	0.749990
C133	C	1.116048	-0.484114	0.000012
C134	C	1.366048	-0.234114	0.250012
C135	C	1.616048	0.015886	0.500012
C136	C	1.866048	0.265886	0.750012
C137	C	1.292306	0.170964	0.000028
C138	C	1.542306	0.420964	0.250028
C139	C	1.792306	0.670964	0.500028
C140	C	2.042306	0.920964	0.750028
C141	C	1.397499	0.178895	0.000025
C142	C	1.647499	0.428895	0.250025
C143	C	1.897499	0.678895	0.500025
C144	C	2.147499	0.928895	0.750025
C145	C	1.111585	0.292451	-0.000004
C146	C	1.361585	0.542451	0.249996
C147	C	1.611585	0.792451	0.499996
C148	C	1.861585	1.042451	0.749996
C149	C	1.113134	0.370055	-0.000020
C150	C	1.363134	0.620055	0.249980
C151	C	1.613134	0.870055	0.499980
C152	C	1.863134	1.120055	0.749980
N153	N	1.103419	0.175785	0.254244
N154	N	1.353419	0.425785	0.504244
N155	N	1.603419	0.675785	0.754244
N156	N	1.853419	0.925785	1.004244
N157	N	1.134650	0.154743	-0.254199
N158	N	1.384650	0.404743	-0.004199
N159	N	1.634650	0.654743	0.245801
N160	N	1.884650	0.904743	0.495801
C161	C	1.090000	0.184834	0.473357
C162	C	1.340000	0.434834	0.723357
C163	C	1.590000	0.684834	0.973357
C164	C	1.840000	0.934834	1.223357
C165	C	1.148066	0.145695	0.526695
C166	C	1.398066	0.395695	0.776695
C167	C	1.648066	0.645695	1.026695
C168	C	1.898066	0.895695	1.276695
C169	C	1.140599	0.150731	0.648617
C170	C	1.390599	0.400731	0.898617
C171	C	1.640599	0.650731	1.148617
C172	C	1.890599	0.900731	1.398617
C173	C	1.097465	0.179800	0.351424
C174	C	1.347465	0.429800	0.601424
C175	C	1.597465	0.679800	0.851424
C176	C	1.847465	0.929800	1.101424
H177	H	0.621053	0.247581	-0.000002
H178	H	0.871053	0.497581	0.249998
H179	H	1.121053	0.747581	0.499998
H180	H	1.371053	0.997581	0.749998
C181	C	1.297489	-0.486648	0.000018
C182	C	1.547489	-0.236648	0.250018
C183	C	1.797489	0.013352	0.500018
C184	C	2.047489	0.263352	0.750018
N185	N	1.369653	-0.458884	0.000020
N186	N	1.619653	-0.208884	0.250020
N187	N	1.869653	0.041116	0.500020
N188	N	2.119653	0.291116	0.750020
H189	H	0.617018	0.082947	-0.000041
H190	H	0.867018	0.332947	0.249959
H191	H	1.117018	0.582947	0.499959
H192	H	1.367018	0.832947	0.749959
H193	H	1.269957	-0.628508	-0.000012
H194	H	1.519957	-0.378508	0.249988
H195	H	1.769957	-0.128508	0.499988
H196	H	2.019957	0.121492	0.749988
H197	H	1.281479	-0.051639	0.000079
H198	H	1.531479	0.198361	0.250079
H199	H	1.781479	0.448361	0.500079
H200	H	2.031479	0.698361	0.750079
H201	H	1.278836	-0.183920	0.000051
H202	H	1.528836	0.066080	0.250051
H203	H	1.778836	0.316080	0.500051
H204	H	2.028836	0.566080	0.750051
H205	H	0.965466	-0.173246	0.000022
H206	H	1.215466	0.076754	0.250022
H207	H	1.465466	0.326754	0.500022
H208	H	1.715466	0.576754	0.750022
H209	H	1.203386	0.108406	0.480793
H210	H	1.453386	0.358406	0.730793
H211	H	1.703386	0.608406	0.980793
H212	H	1.953386	0.858406	1.230793
H213	H	0.956582	-0.617833	-0.000032
H214	H	1.206582	-0.367833	0.249968
H215	H	1.456582	-0.117833	0.499968
H216	H	1.706582	0.132167	0.749968
H217	H	1.034685	0.222122	0.519254
H218	H	1.284685	0.472122	0.769254
H219	H	1.534685	0.722122	1.019254
H220	H	1.784685	0.972122	1.269254
H221	H	0.968099	-0.040958	0.000028
H222	H	1.218099	0.209042	0.250028
H223	H	1.468099	0.459042	0.500028
H224	H	1.718099	0.709042	0.750028
H225	H	0.959222	-0.485548	-0.000011
H226	H	1.209222	-0.235548	0.249989
H227	H	1.459222	0.014452	0.499989
H228	H	1.709222	0.264452	0.749989
