data_functionalizedCrystal
_audit_creation_method	'MofGen! by Chris Wilmer'
_symmetry_space_group_name_H-M	'P1'
_symmetry_Int_Tables_number	1
_symmetry_cell_setting	triclinic
loop_
_symmetry_equiv_pos_as_xyz
  x,y,z
_cell_length_a	8.497374
_cell_length_b	8.497366
_cell_length_c	18.050591
_cell_angle_alpha	89.959554
_cell_angle_beta	89.991419
_cell_angle_gamma	89.957952
loop_
_atom_site_label
_atom_site_type_symbol
_atom_site_fract_x
_atom_site_fract_y
_atom_site_fract_z
Zn1	Zn	-0.627847	-0.892377	1.135605
Zn2	Zn	-0.891785	-0.628617	1.135545
Zn3	Zn	-0.627994	-0.628568	1.011382
Zn4	Zn	-0.891560	-0.892313	1.011443
O5	O	-0.759797	-0.760469	1.073494
O6	O	-0.662891	-0.857437	1.239522
O7	O	-0.856948	-0.407848	1.119023
O8	O	-0.407212	-0.663570	1.027860
O9	O	-0.856805	-0.663653	1.239477
O10	O	-0.407104	-0.857389	1.119126
O11	O	-0.663142	-0.407812	1.027801
O12	O	-0.662925	-0.663507	0.907465
O13	O	-0.856423	-1.113084	1.027965
O14	O	-0.856566	-0.857279	0.907511
O15	O	-0.662673	-1.113132	1.119186
O16	O	-1.112517	-0.663591	1.119083
O17	O	-1.112352	-0.857327	1.027906
C18	C	-0.759738	-0.760382	0.880542
C19	C	-0.759751	-0.760382	0.797996
C20	C	-0.348316	-0.760477	1.073488
C21	C	-0.169672	-0.760481	1.073488
C22	C	-0.759653	-0.171950	1.073537
C23	C	-0.759983	-0.350593	1.073439
C24	C	-0.654327	-0.655251	0.598499
C25	C	-0.798236	-0.616456	0.549112
C26	C	-0.759799	-0.760453	0.646865
C27	C	-0.615939	-0.799244	0.549171
C28	C	-0.759832	-0.760519	0.500880
C29	C	-0.903783	-0.721583	0.598566
C30	C	-0.721390	-0.904438	0.598629
C31	C	-0.865398	-0.865698	0.549264
C32	C	-0.759777	-0.760411	0.730964
C33	C	-0.759870	-0.760561	0.416784
C34	C	-0.759857	-0.760558	1.267199
C35	C	-0.759882	-0.760595	1.349745
H36	H	-0.565228	-0.566189	0.620118
O37	O	-0.682647	-1.049545	0.624728
C38	C	-0.684554	-1.047782	0.702828
H39	H	-0.763338	-0.947907	0.722927
H40	H	-0.559892	-1.029279	0.724457
C41	C	-0.651846	-1.328432	0.707090
C42	C	-0.748621	-1.205772	0.731775
H43	H	-0.691358	-1.425890	0.724946
H44	H	-0.650555	-1.329621	0.654472
H45	H	-0.547968	-1.312993	0.725115
H46	H	-0.852490	-1.221202	0.713741
H47	H	-0.749930	-1.204590	0.784390
H48	H	-0.830747	-0.494719	0.527363
H49	H	-0.954710	-0.954692	0.527781
H50	H	-1.025493	-0.688666	0.620171
H51	H	-0.494282	-0.831972	0.527436
