data_functionalizedCrystal
_audit_creation_method	'MofGen! by Chris Wilmer'
_symmetry_space_group_name_H-M	'P1'
_symmetry_Int_Tables_number	1
_symmetry_cell_setting	triclinic
loop_
_symmetry_equiv_pos_as_xyz
  x,y,z
_cell_length_a	25.639242
_cell_length_b	12.759399
_cell_length_c	12.759393
_cell_angle_alpha	90.030906
_cell_angle_beta	89.968488
_cell_angle_gamma	89.989356
loop_
_atom_site_label
_atom_site_type_symbol
_atom_site_fract_x
_atom_site_fract_y
_atom_site_fract_z
Zn1	Zn	0.799359	0.418341	-0.594313
Zn2	Zn	1.299359	0.918341	-0.094313
Zn3	Zn	0.799304	0.594056	-0.418632
Zn4	Zn	1.299304	1.094056	0.081368
Zn5	Zn	0.711921	0.418378	-0.418616
Zn6	Zn	1.211921	0.918378	0.081384
Zn7	Zn	0.711916	0.593964	-0.594237
Zn8	Zn	1.211916	1.093964	-0.094237
O9	O	0.755625	0.506185	-0.506450
O10	O	1.255625	1.006185	-0.006450
O11	O	0.872517	0.441672	-0.571048
O12	O	1.372517	0.941672	-0.071048
O13	O	0.787692	0.570806	-0.271609
O14	O	1.287692	1.070806	0.228391
O15	O	0.723545	0.271352	-0.441948
O16	O	1.223545	0.771352	0.058052
O17	O	0.872477	0.570770	-0.441975
O18	O	1.372477	1.070770	0.058025
O19	O	0.787785	0.271325	-0.571032
O20	O	1.287785	0.771325	-0.071032
O21	O	0.723492	0.441736	-0.271597
O22	O	1.223492	0.941736	0.228403
O23	O	0.638755	0.441647	-0.441874
O24	O	1.138755	0.941647	0.058126
O25	O	0.723537	0.570613	-0.741268
O26	O	1.223537	1.070613	-0.241268
O27	O	0.638752	0.570650	-0.570902
O28	O	1.138752	1.070650	-0.070902
O29	O	0.787781	0.441583	-0.741324
O30	O	1.287781	0.941583	-0.241324
O31	O	0.787687	0.741065	-0.441901
O32	O	1.287687	1.241065	0.058099
O33	O	0.723484	0.740998	-0.570918
O34	O	1.223484	1.240998	-0.070918
C35	C	0.619783	0.506144	-0.506379
C36	C	1.119783	1.006144	-0.006379
C37	C	0.561669	0.506151	-0.506373
C38	C	1.061669	1.006151	-0.006373
C39	C	0.755593	0.779152	-0.506426
C40	C	1.255593	1.279152	-0.006426
C41	C	0.755627	0.895929	-0.506451
C42	C	1.255627	1.395929	-0.006451
C43	C	0.755664	0.506084	-0.780483
C44	C	1.255664	1.006084	-0.280483
C45	C	0.755681	0.506041	-0.897260
C46	C	1.255681	1.006041	-0.397260
C47	C	0.201313	0.573469	-0.573571
C48	C	0.701313	1.073469	-0.073571
C49	C	0.146708	0.573475	-0.573588
C50	C	0.646708	1.073475	-0.073588
O51	O	0.118478	0.630660	-0.630661
O52	O	0.618478	1.130660	-0.130661
N53	N	0.119386	0.506214	-0.506518
N54	N	0.619386	1.006214	-0.006518
C55	C	0.146671	0.438934	-0.439436
C56	C	0.646671	0.938934	0.060564
O57	O	0.118417	0.381723	-0.382390
O58	O	0.618417	0.881723	0.117610
C59	C	0.201274	0.438923	-0.439425
C60	C	0.701274	0.938923	0.060575
C61	C	0.228594	0.506196	-0.506491
C62	C	0.728594	1.006196	-0.006491
C63	C	0.228632	0.640736	-0.640632
C64	C	0.728632	1.140736	-0.140632
C65	C	0.283233	0.640731	-0.640614
C66	C	0.783233	1.140731	-0.140614
C67	C	0.310514	0.573458	-0.573534
C68	C	0.810514	1.073458	-0.073534
C69	C	0.283194	0.506191	-0.506473
C70	C	0.783194	1.006191	-0.006473
C71	C	0.228558	0.371639	-0.372349
C72	C	0.728558	0.871639	0.127651
C73	C	0.283165	0.371633	-0.372345
C74	C	0.783165	0.871633	0.127655
C75	C	0.310485	0.438907	-0.439411
C76	C	0.810485	0.938907	0.060589
C77	C	0.365076	0.438914	-0.439375
C78	C	0.865076	0.938914	0.060625
N79	N	0.392398	0.506175	-0.506444
N80	N	0.892398	1.006175	-0.006444
C81	C	0.365117	0.573447	-0.573524
C82	C	0.865117	1.073447	-0.073524
C83	C	0.032000	0.438961	-0.439464
C84	C	0.532000	0.938961	0.060536
C85	C	-0.022602	0.438976	-0.439469
C86	C	0.477398	0.938976	0.060531
C87	C	-0.022561	0.573516	-0.573622
C88	C	0.477439	1.073516	-0.073622
C89	C	0.032042	0.573505	-0.573612
C90	C	0.532042	1.073505	-0.073612
C91	C	0.059323	0.506222	-0.506533
C92	C	0.559323	1.006222	-0.006533
C93	C	0.479782	0.573432	-0.573480
C94	C	0.979782	1.073432	-0.073480
C95	C	0.534387	0.573423	-0.573453
C96	C	1.034387	1.073423	-0.073453
C97	C	0.534342	0.438880	-0.439304
C98	C	1.034342	0.938880	0.060696
C99	C	0.479741	0.438892	-0.439326
C100	C	0.979741	0.938892	0.060674
C101	C	0.452463	0.506171	-0.506423
C102	C	0.952463	1.006171	-0.006423
O103	O	0.393341	0.381755	-0.382334
O104	O	0.893341	0.881755	0.117666
O105	O	0.393377	0.630639	-0.630570
O106	O	0.893377	1.130639	-0.130570
C107	C	0.891998	0.506227	-0.506522
C108	C	1.391998	1.006227	-0.006522
C109	C	0.950112	0.506245	-0.506553
C110	C	1.450112	1.006245	-0.006553
C111	C	0.755672	0.232152	-0.506497
C112	C	1.255672	0.732152	-0.006497
C113	C	0.755691	0.115375	-0.506517
C114	C	1.255691	0.615375	-0.006517
C115	C	0.789096	0.950791	-0.439349
C116	C	1.289096	1.450791	0.060651
C117	C	0.789130	1.060515	-0.439384
C118	C	1.289130	1.560515	0.060616
C119	C	0.722221	1.060505	-0.573627
C120	C	1.222221	1.560505	-0.073627
C121	C	0.722190	0.950783	-0.573596
C122	C	1.222190	1.450783	-0.073596
C123	C	0.789135	0.438844	-0.952153
C124	C	1.289135	0.938844	-0.452153
C125	C	0.789144	0.438799	-1.061877
C126	C	1.289144	0.938799	-0.561877
C127	C	0.722243	0.573156	-1.061806
C128	C	1.222243	1.073156	-0.561806
C129	C	0.722232	0.573195	-0.952084
C130	C	1.222232	1.073195	-0.452084
C131	C	0.755616	0.506210	-0.233482
C132	C	1.255616	1.006210	0.266518
C133	C	0.755701	0.505957	-0.116706
C134	C	1.255701	1.005957	0.383294
H135	H	0.556628	0.628209	-0.628067
H136	H	1.056628	1.128209	-0.128067
H137	H	-0.044841	0.384206	-0.384846
H138	H	0.455159	0.884206	0.115154
Cl139	Cl	0.831132	0.881835	-0.354941
Cl140	Cl	1.331132	1.381835	0.145059
H141	H	0.816385	0.384079	-1.106566
H142	H	1.316385	0.884079	-0.606566
H143	H	0.305374	0.316836	-0.317726
H144	H	0.805374	0.816836	0.182274
H145	H	0.457578	0.628214	-0.628119
H146	H	0.957578	1.128214	-0.128119
Cl147	Cl	0.317569	0.725301	-0.724937
Cl148	Cl	0.817569	1.225301	-0.224937
H149	H	0.206426	0.695517	-0.695262
H150	H	0.706426	1.195517	-0.195262
H151	H	0.054282	0.628284	-0.628224
H152	H	0.554282	1.128284	-0.128224
Cl153	Cl	0.066290	0.354376	-0.355120
Cl154	Cl	0.566290	0.854376	0.144880
H155	H	0.694997	1.105181	-0.628292
H156	H	1.194997	1.605181	-0.128292
H157	H	0.694936	0.906111	-0.628244
H158	H	1.194936	1.406111	-0.128244
Cl159	Cl	0.831183	0.354418	-0.883235
Cl160	Cl	1.331183	0.854418	-0.383235
Cl161	Cl	0.680198	0.657580	-1.130734
Cl162	Cl	1.180198	1.157580	-0.630734
H163	H	-0.044783	0.628290	-0.628245
H164	H	0.455217	1.128290	-0.128245
Cl165	Cl	0.194227	0.287053	-0.288039
Cl166	Cl	0.694227	0.787053	0.211961
Cl167	Cl	0.831208	1.129480	-0.355025
Cl168	Cl	1.331208	1.629480	0.144975
H169	H	0.694986	0.627914	-0.907389
H170	H	1.194986	1.127914	-0.407389
H171	H	0.457496	0.384114	-0.384714
H172	H	0.957496	0.884114	0.115286
H173	H	0.556564	0.384112	-0.384686
H174	H	1.056564	0.884112	0.115314
