data_functionalizedCrystal
_audit_creation_method	'MofGen! by Chris Wilmer'
_symmetry_space_group_name_H-M	'P1'
_symmetry_Int_Tables_number	1
_symmetry_cell_setting	triclinic
loop_
_symmetry_equiv_pos_as_xyz
  x,y,z
_cell_length_a	16.625546
_cell_length_b	12.827893
_cell_length_c	12.827885
_cell_angle_alpha	90.019272
_cell_angle_beta	89.964686
_cell_angle_gamma	89.977561
loop_
_atom_site_label
_atom_site_type_symbol
_atom_site_fract_x
_atom_site_fract_y
_atom_site_fract_z
Zn1	Zn	-0.320962	-1.597618	-0.590810
Zn2	Zn	0.179038	-1.097618	-0.090810
Zn3	Zn	-0.455816	-1.597491	-0.416054
Zn4	Zn	0.044184	-1.097491	0.083946
Zn5	Zn	-0.321001	-1.422860	-0.416084
Zn6	Zn	0.178999	-0.922860	0.083916
Zn7	Zn	-0.455756	-1.422823	-0.590754
Zn8	Zn	0.044244	-0.922823	-0.090754
O9	O	-0.388384	-1.510198	-0.503425
O10	O	0.111616	-1.010198	-0.003425
O11	O	-0.338859	-1.743837	-0.567639
O12	O	0.161141	-1.243837	-0.067639
O13	O	-0.437975	-1.574287	-0.269822
O14	O	0.062025	-1.074287	0.230178
O15	O	-0.208164	-1.446110	-0.439297
O16	O	0.291836	-0.946110	0.060703
O17	O	-0.437936	-1.743744	-0.439247
O18	O	0.062064	-1.243744	0.060753
O19	O	-0.208135	-1.574505	-0.567668
O20	O	0.291865	-1.074505	-0.067668
O21	O	-0.338927	-1.445987	-0.269843
O22	O	0.161073	-0.945987	0.230157
O23	O	-0.338868	-1.276619	-0.439243
O24	O	0.161132	-0.776619	0.060757
O25	O	-0.437833	-1.446048	-0.736997
O26	O	0.062167	-0.946048	-0.236997
O27	O	-0.437872	-1.276592	-0.567572
O28	O	0.062128	-0.776592	-0.067572
O29	O	-0.338801	-1.574469	-0.737039
O30	O	0.161199	-1.074469	-0.237039
O31	O	-0.568641	-1.574252	-0.439192
O32	O	-0.068641	-1.074252	0.060808
O33	O	-0.568596	-1.445925	-0.567544
O34	O	-0.068596	-0.945925	-0.067544
C35	C	-0.388368	-1.238688	-0.503405
C36	C	0.111632	-0.738688	-0.003405
C37	C	-0.388381	-1.122535	-0.503422
C38	C	0.111619	-0.622535	-0.003422
C39	C	-0.597875	-1.510099	-0.503382
C40	C	-0.097875	-1.010099	-0.003382
C41	C	-0.687496	-1.510152	-0.503398
C42	C	-0.187496	-1.010152	-0.003398
C43	C	-0.388306	-1.510269	-0.775996
C44	C	0.111694	-1.010269	-0.275996
C45	C	-0.388272	-1.510299	-0.892149
C46	C	0.111728	-1.010299	-0.392149
C47	C	-1.015671	-1.510335	-0.503507
C48	C	-0.515671	-1.010335	-0.003507
C49	C	-0.924363	-1.510281	-0.503479
C50	C	-0.424363	-1.010281	-0.003479
C51	C	-0.851587	-1.510243	-0.503452
C52	C	-0.351587	-1.010243	-0.003452
C53	C	-0.760272	-1.510190	-0.503425
C54	C	-0.260272	-1.010190	-0.003425
C55	C	-0.178075	-1.510326	-0.503492
C56	C	0.321925	-1.010326	-0.003492
C57	C	-0.088454	-1.510380	-0.503521
C58	C	0.411546	-1.010380	-0.003521
C59	C	-0.388400	-1.782768	-0.503446
C60	C	0.111600	-1.282768	-0.003446
C61	C	-0.388407	-1.898921	-0.503455
C62	C	0.111593	-1.398921	-0.003455
C63	C	-0.437448	-1.070765	-0.566825
C64	C	0.062552	-0.570765	-0.066825
C65	C	-0.437462	-0.950714	-0.566844
C66	C	0.062538	-0.450714	-0.066844
C67	C	-0.339218	-1.446865	-1.063989
C68	C	0.160782	-0.946865	-0.563989
C69	C	-0.339251	-1.446832	-0.943938
C70	C	0.160749	-0.946832	-0.443938
C71	C	-0.388404	-1.510187	-0.231915
C72	C	0.111596	-1.010187	0.268085
C73	C	-0.388210	-1.510359	-0.115763
C74	C	0.111790	-1.010359	0.384237
H75	H	-0.479442	-1.115319	-0.621098
H76	H	0.020558	-0.615319	-0.121098
H77	H	-0.297246	-1.392534	-1.108540
H78	H	0.202754	-0.892534	-0.608540
H79	H	-0.297309	-1.392470	-0.899414
H80	H	0.202691	-0.892470	-0.399414
H81	H	-0.430175	-1.564699	-1.071212
H82	H	0.069825	-1.064699	-0.571212
O83	O	-0.438392	-1.575191	-0.945089
O84	O	0.061608	-1.075191	-0.445089
C85	C	-0.483962	-1.634215	-0.873618
C86	C	0.016038	-1.134215	-0.373618
H87	H	-0.486828	-1.591461	-0.795782
H88	H	0.013172	-1.091461	-0.295782
H89	H	-0.454450	-1.713607	-0.862064
H90	H	0.045550	-1.213607	-0.362064
C91	C	-0.566218	-1.701713	-1.011896
C92	C	-0.066218	-1.201713	-0.511896
C93	C	-0.569743	-1.649196	-0.916299
C94	C	-0.069743	-1.149196	-0.416299
H95	H	-0.619130	-1.710958	-1.038225
H96	H	-0.119130	-1.210958	-0.538225
H97	H	-0.535514	-1.661950	-1.060049
H98	H	-0.035514	-1.161950	-0.560049
H99	H	-0.541620	-1.767866	-1.002255
H100	H	-0.041620	-1.267866	-0.502255
H101	H	-0.594330	-1.583039	-0.925943
H102	H	-0.094330	-1.083039	-0.425943
H103	H	-0.600452	-1.688948	-0.868149
H104	H	-0.100452	-1.188948	-0.368149
O105	O	-0.487653	-0.897771	-0.631643
O106	O	0.012347	-0.397771	-0.131643
C107	C	-0.533244	-0.969246	-0.690599
C108	C	-0.033244	-0.469246	-0.190599
H109	H	-0.536046	-1.047055	-0.647848
H110	H	-0.036046	-0.547055	-0.147848
H111	H	-0.503791	-0.980865	-0.770040
H112	H	-0.003791	-0.480865	-0.270040
C113	C	-0.615606	-0.830951	-0.757948
C114	C	-0.115606	-0.330951	-0.257948
C115	C	-0.619052	-0.926515	-0.705435
C116	C	-0.119052	-0.426515	-0.205435
H117	H	-0.668535	-0.804592	-0.767104
H118	H	-0.168535	-0.304592	-0.267104
H119	H	-0.584889	-0.782796	-0.718231
H120	H	-0.084889	-0.282796	-0.218231
H121	H	-0.591058	-0.840646	-0.824143
H122	H	-0.091058	-0.340646	-0.324143
H123	H	-0.643590	-0.916816	-0.639237
H124	H	-0.143590	-0.416816	-0.139237
H125	H	-0.649775	-0.974668	-0.745141
H126	H	-0.149775	-0.474668	-0.245141
O127	O	-0.338400	-0.952135	-0.438638
O128	O	0.161600	-0.452135	0.061362
C129	C	-0.384283	-1.015202	-0.371066
C130	C	0.115717	-0.515202	0.128934
H131	H	-0.445431	-1.031443	-0.407792
H132	H	0.054569	-0.531443	0.092208
H133	H	-0.393046	-0.973159	-0.293571
H134	H	0.106954	-0.473159	0.206429
C135	C	-0.264862	-1.098997	-0.307217
C136	C	0.235138	-0.598997	0.192783
C137	C	-0.339963	-1.118952	-0.352329
C138	C	0.160037	-0.618952	0.147671
H139	H	-0.237523	-1.162994	-0.295654
H140	H	0.262477	-0.662994	0.204346
H141	H	-0.233949	-1.056505	-0.352738
H142	H	0.266051	-0.556505	0.147262
H143	H	-0.272176	-1.063959	-0.242643
H144	H	0.227824	-0.563959	0.257357
H145	H	-0.332648	-1.153977	-0.416907
H146	H	0.167352	-0.653977	0.083093
H147	H	-0.370874	-1.161453	-0.306817
H148	H	0.129126	-0.661453	0.193183
H149	H	-0.346381	-1.077981	-0.449157
H150	H	0.153619	-0.577981	0.050843
