data_functionalizedCrystal
_audit_creation_method	'MofGen! by Chris Wilmer'
_symmetry_space_group_name_H-M	'P1'
_symmetry_Int_Tables_number	1
_symmetry_cell_setting	triclinic
loop_
_symmetry_equiv_pos_as_xyz
  x,y,z
_cell_length_a	14.560432
_cell_length_b	23.196402
_cell_length_c	23.196401
_cell_angle_alpha	60.008520
_cell_angle_beta	90.014265
_cell_angle_gamma	59.998663
loop_
_atom_site_label
_atom_site_type_symbol
_atom_site_fract_x
_atom_site_fract_y
_atom_site_fract_z
Zr1	Zr	0.884718	0.631012	-0.075627
O2	O	0.738031	0.751284	-0.167678
O3	O	0.929689	0.510741	-0.047410
O4	O	0.929639	0.631013	-0.167678
O5	O	0.738117	0.631011	0.047461
O6	O	1.080780	0.631011	-0.167675
O7	O	0.738081	0.631013	-0.047411
O8	O	1.080869	0.415868	0.047462
O9	O	0.738028	0.846155	-0.167676
O10	O	1.061660	0.560208	-0.035372
O11	O	0.948892	0.560208	0.035428
O12	O	0.948833	0.701812	-0.106172
O13	O	0.836066	0.701813	-0.035373
Zr14	Zr	1.125828	0.631007	0.075686
Zr15	Zr	1.125771	0.631009	-0.075623
Zr16	Zr	0.884776	0.631009	0.075682
Zr17	Zr	0.884714	0.782319	-0.075624
Zr18	Zr	1.125833	0.479699	0.075683
O19	O	1.080858	0.751277	0.047469
O20	O	1.080776	0.751281	-0.167673
O21	O	0.738113	0.751281	0.047463
O22	O	1.272516	0.510734	0.167737
O23	O	1.272434	0.510738	-0.047404
O24	O	0.929771	0.510738	0.167732
O25	O	1.272430	0.631007	-0.047402
O26	O	1.080908	0.631006	0.167737
O27	O	0.929767	0.631008	0.167734
O28	O	1.272466	0.631006	0.047470
O29	O	0.929632	0.846153	-0.167673
O30	O	1.080915	0.415866	0.167732
O31	O	1.272519	0.415864	0.167735
O32	O	1.272473	0.415866	0.047465
O33	O	0.738074	0.846153	-0.047406
O34	O	0.929678	0.846151	-0.047403
O35	O	1.061714	0.560206	0.106231
O36	O	1.174481	0.560206	0.035431
O37	O	1.061655	0.701810	-0.035369
O38	O	0.948887	0.701810	0.035431
C39	C	1.005280	0.441746	0.000026
C40	C	1.005282	0.377512	0.000024
C41	C	0.703754	0.631012	0.000025
C42	C	0.601421	0.631014	0.000023
C43	C	1.064139	-0.085331	-0.036915
C44	C	1.064137	-0.024972	-0.036921
C45	C	1.005275	0.005210	0.000036
C46	C	0.946388	-0.024957	0.036987
C47	C	0.946383	-0.085309	0.036986
C48	C	1.013710	0.067236	0.061941
C49	C	1.013723	0.127583	0.061944
C50	C	1.005283	0.191358	0.000036
C51	C	0.996852	0.194771	-0.061873
C52	C	0.996847	0.134419	-0.061874
C53	C	1.005273	0.070652	0.000040
C54	C	1.064157	0.286970	-0.036924
C55	C	1.064146	0.347333	-0.036932
C56	C	0.946404	0.347342	0.036983
C57	C	0.946408	0.286985	0.036984
C58	C	1.005290	0.256800	0.000033
C59	C	0.601357	0.631025	-0.104517
C60	C	0.553247	0.631034	-0.156787
C61	C	0.457098	0.631034	-0.156785
C62	C	0.409057	0.631022	-0.104506
C63	C	0.457166	0.631014	-0.052236
C64	C	0.553316	0.631016	-0.052245
C65	C	0.457235	0.630996	0.052306
C66	C	0.553380	0.631002	0.052302
C67	C	0.409195	0.630985	0.104585
C68	C	0.457299	0.630983	0.156853
C69	C	0.553454	0.630984	0.156848
C70	C	0.601490	0.630994	0.104572
C71	C	1.306793	0.631006	0.000034
C72	C	1.409126	0.631005	0.000036
C73	C	1.005201	0.631012	-0.189235
C74	C	1.005177	0.631013	-0.253470
C75	C	1.005267	0.820272	0.000033
C76	C	1.005265	0.884506	0.000035
C77	C	0.946288	0.704927	-0.320600
C78	C	0.946317	0.704928	-0.380955
C79	C	1.005219	0.631011	-0.374176
C80	C	1.064120	0.557088	-0.307034
C81	C	1.064099	0.557089	-0.246680
C82	C	0.996857	0.574381	-0.441494
C83	C	0.996870	0.574383	-0.501848
C84	C	1.005290	0.631005	-0.560323
C85	C	1.013674	0.687638	-0.558445
C86	C	1.013653	0.687639	-0.498092
C87	C	1.005249	0.631002	-0.439615
C88	C	0.946429	0.704925	-0.692900
C89	C	0.946466	0.704923	-0.753255
C90	C	1.064262	0.557081	-0.679332
C91	C	1.064233	0.557085	-0.618979
C92	C	1.005310	0.631009	-0.625768
C93	C	1.005346	0.631006	0.189294
C94	C	1.005370	0.631005	0.253528
C95	C	1.306799	0.441743	0.000030
C96	C	1.409134	0.377508	0.000031
C97	C	1.005352	0.441743	0.189290
C98	C	1.005378	0.377508	0.253523
C99	C	1.306871	0.441740	0.189295
C100	C	1.409231	0.377504	0.253530
C101	C	0.703676	0.820278	-0.189236
C102	C	0.601316	0.884514	-0.253471
C103	C	0.703748	0.820275	0.000029
C104	C	0.601413	0.884511	0.000028
C105	C	1.005195	0.820275	-0.189231
C106	C	1.005169	0.884510	-0.253464
C107	C	1.398300	0.347344	-0.036934
C108	C	1.494446	0.286996	-0.036948
C109	C	1.601424	0.256810	0.000008
C110	C	1.612256	0.286981	0.036974
C111	C	1.516112	0.347331	0.036983
C112	C	1.064283	0.347342	0.320653
C113	C	1.064303	0.286995	0.381013
C114	C	1.005426	0.256811	0.374241
C115	C	0.946514	0.286984	0.307105
C116	C	0.946488	0.347334	0.246746
C117	C	1.516174	0.347338	0.246738
C118	C	1.612361	0.286990	0.307088
C119	C	1.601602	0.256805	0.374229
C120	C	1.494648	0.286977	0.381018
C121	C	1.398464	0.347328	0.320669
C122	C	0.494373	0.914688	-0.246680
C123	C	0.398186	0.975055	-0.307029
C124	C	0.408945	1.005243	-0.374170
C125	C	0.515899	0.975067	-0.380960
C126	C	0.612083	0.914706	-0.320610
C127	C	0.612247	0.914681	0.036987
C128	C	0.516101	0.975045	0.036984
C129	C	0.409123	1.005233	0.000026
C130	C	0.398291	0.975060	-0.036937
C131	C	0.494435	0.914701	-0.036938
C132	C	1.064058	0.914675	-0.246670
C133	C	1.064055	0.975022	-0.307018
C134	C	1.005155	1.005209	-0.374160
C135	C	0.946264	0.975038	-0.380953
C136	C	0.946275	0.914687	-0.320605
H137	H	1.112082	-0.109904	-0.067005
H138	H	1.112020	0.890106	-0.192006
Br139	Br	1.480067	0.246002	0.472143
H140	H	1.112055	0.496898	-0.192018
H141	H	0.330616	1.054393	-0.423304
H142	H	0.898524	0.371888	0.192089
H143	H	0.524943	0.999602	0.067086
H144	H	1.020598	0.124794	0.112355
H145	H	0.330909	0.630980	0.104587
Br146	Br	0.278651	1.087150	0.000035
H147	H	0.330775	0.631012	-0.104502
Br148	Br	1.530836	0.388257	0.087159
H149	H	1.112009	0.999581	-0.301474
H150	H	0.699345	0.890106	0.067087
Br151	Br	1.144204	0.388288	0.329862
Br152	Br	1.005473	0.174906	0.456164
H153	H	0.898472	0.371919	0.067070
Br154	Br	0.530480	1.016045	-0.472084
Br155	Br	0.618451	0.631041	-0.227731
Br156	Br	0.866324	1.016021	-0.472079
Br157	Br	1.144262	0.246058	0.472117
H158	H	1.112181	0.496896	-0.564317
H159	H	0.311109	0.999614	-0.301487
H160	H	0.418183	0.630968	0.199417
H161	H	0.592623	0.630972	0.199414
Br162	Br	0.253096	1.016037	-0.087088
H163	H	1.699371	0.262394	0.067061
Br164	Br	0.866614	0.246011	0.297927
H165	H	1.679702	0.207668	-0.000005
Br166	Br	0.757217	0.873759	-0.329840
Br167	Br	0.479711	0.873759	-0.087097
Br168	Br	1.025157	-0.019309	0.145964
Br169	Br	1.005151	1.087115	-0.456054
Br170	Br	1.025098	0.764490	-0.637801
Br171	Br	1.253127	0.388299	-0.087096
H172	H	1.485604	0.262439	-0.067050
H173	H	0.990036	0.528272	-0.503373
H174	H	0.898315	0.890134	-0.326147
H175	H	0.898459	-0.000377	0.067076
Br176	Br	1.530806	0.388295	0.155627
Br177	Br	1.025031	0.764494	-0.495542
H178	H	1.699439	0.262430	0.301547
H179	H	1.112080	-0.000409	-0.067011
H180	H	1.679931	0.207663	0.423363
H181	H	1.112083	0.371896	-0.067025
Br182	Br	0.391812	0.631036	-0.227718
Br183	Br	0.731972	0.631003	0.104556
H184	H	1.311390	0.371881	0.326209
Br185	Br	0.866293	0.805252	-0.329815
Br186	Br	0.866395	0.805246	-0.472073
Br187	Br	0.866493	0.805248	-0.702109
H188	H	0.989980	0.137202	-0.112283
Br189	Br	0.985414	0.281311	-0.145894
H190	H	1.112098	0.262395	-0.067015
Br191	Br	0.866507	0.246043	0.087136
H192	H	0.898438	-0.109867	0.067076
Br193	Br	0.985535	0.497481	-0.362112
Br194	Br	0.731831	0.631045	-0.104535
Br195	Br	0.866548	0.805243	-0.844366
H196	H	1.112223	0.496896	-0.673811
H197	H	1.112080	0.496904	-0.301518
Br198	Br	0.479741	0.873729	-0.155568
