data_functionalizedCrystal
_audit_creation_method	'MofGen! by Chris Wilmer'
_symmetry_space_group_name_H-M	'P1'
_symmetry_Int_Tables_number	1
_symmetry_cell_setting	triclinic
loop_
_symmetry_equiv_pos_as_xyz
  x,y,z
_cell_length_a	12.594517
_cell_length_b	12.594516
_cell_length_c	12.759393
_cell_angle_alpha	89.971993
_cell_angle_beta	89.985226
_cell_angle_gamma	90.016010
loop_
_atom_site_label
_atom_site_type_symbol
_atom_site_fract_x
_atom_site_fract_y
_atom_site_fract_z
Zn1	Zn	1.627272	-0.423692	-0.593901
Zn2	Zn	1.627161	-0.601708	-0.418228
Zn3	Zn	1.449274	-0.423744	-0.418251
Zn4	Zn	1.449258	-0.601629	-0.593880
O5	O	1.538241	-0.512693	-0.506065
O6	O	1.776203	-0.447318	-0.570596
O7	O	1.603525	-0.578156	-0.271210
O8	O	1.472939	-0.274791	-0.441569
O9	O	1.776122	-0.578106	-0.441530
O10	O	1.603713	-0.274753	-0.570618
O11	O	1.472832	-0.447406	-0.271227
O12	O	1.300326	-0.447329	-0.441549
O13	O	1.472911	-0.577971	-0.740904
O14	O	1.300314	-0.578021	-0.570584
O15	O	1.603697	-0.447241	-0.740919
O16	O	1.603509	-0.750643	-0.441511
O17	O	1.472804	-0.750585	-0.570562
C18	C	1.261700	-0.512673	-0.506067
C19	C	1.143395	-0.512690	-0.506093
C20	C	1.538172	-0.789234	-0.506055
C21	C	1.538239	-0.907540	-0.506085
C22	C	1.003403	-0.583902	-0.576145
C23	C	1.074172	-0.609812	-0.480260
C24	C	1.074197	-0.486826	-0.601968
C25	C	1.003379	-0.538685	-0.410126
C26	C	1.003397	-0.415654	-0.531899
C27	C	1.074135	-0.441528	-0.435948
C28	C	1.467142	-0.976800	-0.576227
C29	C	1.441208	-1.047668	-0.480362
C30	C	1.564270	-1.047470	-0.601967
C31	C	1.512254	-0.976850	-0.410170
C32	C	1.635361	-0.976646	-0.531839
C33	C	1.609464	-1.047482	-0.435908
C34	C	1.815862	-0.512715	-0.506063
C35	C	1.934168	-0.512724	-0.506062
C36	C	1.538315	-0.512591	-0.780098
C37	C	1.538346	-0.512548	-0.896875
C38	C	1.538340	-0.235073	-0.506098
C39	C	1.538383	-0.116767	-0.506112
C40	C	1.606401	-0.580603	-0.951726
C41	C	1.606433	-0.580558	-1.061450
C42	C	1.470346	-0.444399	-1.061463
C43	C	1.470320	-0.444440	-0.951741
C44	C	1.674427	-0.648712	-0.896860
C45	C	1.742487	-0.716773	-0.951711
C46	C	1.742519	-0.716728	-1.061435
C47	C	1.674491	-0.648621	-1.116308
C48	C	1.538229	-0.512718	-0.233098
C49	C	1.538404	-0.512462	-0.116321
H50	H	1.105260	-0.691888	-0.458412
H51	H	0.972403	-0.560675	-0.329010
H52	H	1.414961	-0.388950	-1.106149
H53	H	1.797879	-0.772217	-0.907026
H54	H	1.406910	-0.945764	-0.635457
O55	O	1.110915	-0.369822	-0.365040
C56	C	1.074613	-0.397489	-0.264114
H57	H	1.054837	-0.485797	-0.261970
H58	H	1.000449	-0.349498	-0.244667
C59	C	1.186142	-0.264789	-0.185668
C60	C	1.161862	-0.373253	-0.183033
H61	H	1.239959	-0.249835	-0.135652
H62	H	1.210597	-0.246146	-0.253664
H63	H	1.124332	-0.224809	-0.169465
H64	H	1.223668	-0.413230	-0.199249
H65	H	1.137420	-0.391902	-0.115038
H66	H	1.717410	-0.945429	-0.553646
O67	O	1.808665	-0.782935	-1.114556
C68	C	1.868717	-0.843033	-1.042598
H69	H	1.825096	-0.846742	-0.964384
H70	H	1.949568	-0.804072	-1.030930
C71	C	1.937597	-0.951745	-1.181470
C72	C	1.884017	-0.956308	-1.085409
H73	H	1.947040	-1.021617	-1.207879
H74	H	1.897142	-0.911254	-1.229951
H75	H	2.004967	-0.919273	-1.171734
H76	H	1.816644	-0.988767	-1.095149
H77	H	1.924461	-0.996807	-1.036931
O78	O	1.343234	-1.084840	-0.454551
C79	C	1.268434	-1.048813	-0.528666
H80	H	1.310706	-1.028861	-0.605198
H81	H	1.227085	-0.974814	-0.497378
C82	C	1.133564	-1.160876	-0.454508
C83	C	1.185481	-1.136380	-0.548510
H84	H	1.082391	-1.214888	-0.466747
H85	H	1.183956	-1.185146	-0.404573
H86	H	1.099115	-1.099203	-0.428445
H87	H	1.219940	-1.198048	-0.574565
H88	H	1.135092	-1.112122	-0.598450
H89	H	1.490199	-0.945957	-0.329073
H90	H	1.674406	-0.648759	-0.807517
H91	H	1.669650	-1.078322	-0.376535
O92	O	1.404106	-0.378305	-0.898614
C93	C	1.344079	-0.318173	-0.970566
H94	H	1.340396	-0.361735	-1.048777
H95	H	1.383085	-0.237332	-0.982241
C96	C	1.235317	-0.249343	-0.831678
C97	C	1.230786	-0.302850	-0.927737
H98	H	1.165434	-0.239886	-0.805259
H99	H	1.275760	-0.289851	-0.783202
H100	H	1.267826	-0.181981	-0.841421
H101	H	1.198289	-0.370215	-0.917990
H102	H	1.190335	-0.262352	-0.976210
H103	H	1.586230	-1.078492	-0.683042
H104	H	0.972345	-0.644155	-0.635324
H105	H	0.972286	-0.333602	-0.553774
H106	H	1.105304	-0.464936	-0.683062
H107	H	1.674531	-0.648581	-1.205653
