data_functionalizedCrystal
_audit_creation_method	'MofGen! by Chris Wilmer'
_symmetry_space_group_name_H-M	'P1'
_symmetry_Int_Tables_number	1
_symmetry_cell_setting	triclinic
loop_
_symmetry_equiv_pos_as_xyz
  x,y,z
_cell_length_a	17.699083
_cell_length_b	22.610064
_cell_length_c	17.699092
_cell_angle_alpha	89.994252
_cell_angle_beta	83.284691
_cell_angle_gamma	90.002185
loop_
_atom_site_label
_atom_site_type_symbol
_atom_site_fract_x
_atom_site_fract_y
_atom_site_fract_z
O1	O	1.004084	0.049099	0.095701
O2	O	1.504084	0.549099	0.595701
O3	O	0.783706	0.049119	0.108153
O4	O	1.283706	0.549119	0.608153
O5	O	0.900118	0.049107	-0.008262
O6	O	1.400118	0.549107	0.491738
O7	O	0.887672	0.049111	0.212116
O8	O	1.387672	0.549111	0.712116
O9	O	0.900097	-0.049262	-0.008245
O10	O	1.400097	0.450738	0.491755
O11	O	0.783685	-0.049251	0.108170
O12	O	1.283685	0.450749	0.608170
O13	O	1.004063	-0.049270	0.095718
O14	O	1.504063	0.450730	0.595718
Zn15	Zn	0.893871	-0.064878	0.101946
Zn16	Zn	1.393871	0.435122	0.601946
Zn17	Zn	0.893898	0.064727	0.101924
Zn18	Zn	1.393898	0.564727	0.601924
O19	O	0.887651	-0.049258	0.212133
O20	O	1.387651	0.450742	0.712133
C21	C	0.755499	-0.000064	0.107715
C22	C	1.255499	0.499936	0.607715
C23	C	0.671480	-0.000056	0.106377
C24	C	1.171480	0.499944	0.606377
C25	C	0.622862	-0.000055	0.174710
C26	C	1.122862	0.499945	0.674710
C27	C	0.543918	-0.000063	0.173448
C28	C	1.043918	0.499937	0.673448
C29	C	0.513595	-0.000067	0.103851
C30	C	1.013595	0.499933	0.603851
C31	C	0.562220	-0.000070	0.035513
C32	C	1.062220	0.499930	0.535513
C33	C	0.641162	-0.000067	0.036776
C34	C	1.141162	0.499933	0.536776
C35	C	0.243857	-0.000085	0.030418
C36	C	0.743857	0.499915	0.530418
C37	C	0.164909	-0.000087	0.029160
C38	C	0.664909	0.499913	0.529160
C39	C	0.146613	-0.000081	0.167089
C40	C	0.646613	0.499919	0.667089
C41	C	0.225555	-0.000078	0.168352
C42	C	0.725555	0.499922	0.668352
C43	C	0.274173	-0.000084	0.100014
C44	C	0.774173	0.499916	0.600014
C45	C	0.359772	-0.000076	0.101384
C46	C	0.859772	0.499924	0.601384
C47	C	0.427998	-0.000070	0.102481
C48	C	0.927998	0.499930	0.602481
N49	N	0.893858	-0.153331	0.101961
N50	N	1.393858	0.346669	0.601961
C51	C	0.945448	-0.561977	0.050383
C52	C	1.445448	-0.061977	0.550383
C53	C	0.945452	-0.623897	0.050378
C54	C	1.445452	-0.123897	0.550378
O55	O	0.989283	-0.655920	0.006536
O56	O	1.489283	-0.155920	0.506536
N57	N	0.893898	-0.654868	0.101908
N58	N	1.393898	-0.154868	0.601908
C59	C	0.842331	-0.623916	0.153443
C60	C	1.342331	-0.123916	0.653443
O61	O	0.798480	-0.655944	0.197272
O62	O	1.298480	-0.155944	0.697272
C63	C	0.842324	-0.561997	0.153444
C64	C	1.342324	-0.061997	0.653444
C65	C	0.893887	-0.531029	0.101915
C66	C	1.393887	-0.031029	0.601915
C67	C	0.997005	-0.531010	-0.001142
C68	C	1.497005	-0.031010	0.498858
C69	C	0.997002	-0.469094	-0.001135
C70	C	1.497002	0.030906	0.498865
C71	C	0.945441	-0.438146	0.050397
C72	C	1.445441	0.061854	0.550397
C73	C	0.893884	-0.469114	0.101922
C74	C	1.393884	0.030886	0.601922
C75	C	0.790755	-0.531046	0.204974
C76	C	1.290755	-0.031046	0.704974
C77	C	0.790752	-0.469123	0.204970
C78	C	1.290752	0.030877	0.704970
C79	C	0.842315	-0.438155	0.153442
C80	C	1.342315	0.061845	0.653442
C81	C	0.842320	-0.376250	0.153460
C82	C	1.342320	0.123750	0.653460
N83	N	0.893874	-0.345279	0.101930
N84	N	1.393874	0.154721	0.601930
C85	C	0.945435	-0.376227	0.050398
C86	C	1.445435	0.123773	0.550398
C87	C	0.842349	-0.753949	0.153435
C88	C	1.342349	-0.253949	0.653435
C89	C	0.842359	-0.815867	0.153438
C90	C	1.342359	-0.315867	0.653438
C91	C	0.945478	-0.815844	0.050372
C92	C	1.445478	-0.315844	0.550372
C93	C	0.945471	-0.753925	0.050373
C94	C	1.445471	-0.253925	0.550373
C95	C	0.893903	-0.722979	0.101905
C96	C	1.393903	-0.222979	0.601905
C97	C	0.945425	-0.246200	0.050416
C98	C	1.445425	0.253800	0.550416
C99	C	0.945419	-0.184279	0.050430
C100	C	1.445419	0.315721	0.550430
C101	C	0.842297	-0.184307	0.153492
C102	C	1.342297	0.315693	0.653492
C103	C	0.842305	-0.246223	0.153482
C104	C	1.342305	0.253777	0.653482
C105	C	0.893872	-0.277168	0.101938
C106	C	1.393872	0.222832	0.601938
O107	O	0.798509	-0.344188	0.197278
O108	O	1.298509	0.155812	0.697278
O109	O	0.989271	-0.344191	0.006569
O110	O	1.489271	0.155809	0.506569
C111	C	1.032271	-0.000086	0.096155
C112	C	1.532271	0.499914	0.596155
C113	C	1.116289	-0.000090	0.097494
C114	C	1.616289	0.499910	0.597494
N115	N	0.893917	0.153180	0.101903
N116	N	1.393917	0.653180	0.601903
C117	C	0.899661	-0.000077	-0.036450
C118	C	1.399661	0.499923	0.463550
C119	C	0.898319	-0.000074	-0.120468
C120	C	1.398319	0.499926	0.379532
C121	C	0.897702	0.053548	-0.159945
C122	C	1.397702	0.553548	0.340055
C123	C	0.896437	0.053549	-0.238888
C124	C	1.396437	0.553549	0.261112
C125	C	0.895795	-0.000073	-0.278353
C126	C	1.395795	0.499927	0.221647
C127	C	0.896410	-0.053699	-0.238871
C128	C	1.396410	0.446301	0.261129
C129	C	0.897669	-0.053699	-0.159929
C130	C	1.397669	0.446301	0.340071
C131	C	0.891330	-0.053699	-0.557236
C132	C	1.391330	0.446301	-0.057236
C133	C	0.890072	-0.053695	-0.636184
C134	C	1.390072	0.446305	-0.136184
C135	C	0.890098	0.053549	-0.636195
C136	C	1.390098	0.553549	-0.136195
C137	C	0.891357	0.053548	-0.557253
C138	C	1.391357	0.553548	-0.057253
C139	C	0.891968	-0.000077	-0.517777
C140	C	1.391968	0.499923	-0.017777
C141	C	0.893338	-0.000077	-0.432178
C142	C	1.393338	0.499923	0.067822
C143	C	0.894430	-0.000073	-0.363952
C144	C	1.394430	0.499927	0.136048
C145	C	0.888109	-0.000073	0.240321
C146	C	1.388109	0.499927	0.740321
C147	C	0.889450	-0.000072	0.324339
C148	C	1.389450	0.499928	0.824339
H149	H	0.140224	-0.000091	-0.027517
H150	H	0.640224	0.499909	0.472483
C151	C	0.895700	-0.112683	-0.282277
C152	C	1.395700	0.387317	0.217723
H153	H	0.896240	-0.144618	-0.247456
H154	H	1.396240	0.355382	0.252544
H155	H	0.939327	-0.114918	-0.318924
H156	H	1.439327	0.385082	0.181076
H157	H	0.851083	-0.114906	-0.307218
H158	H	1.351083	0.385094	0.192782
H159	H	0.537525	-0.000082	-0.021154
H160	H	1.037525	0.499918	0.478846
H161	H	0.800357	-0.728755	0.195404
H162	H	1.300357	-0.228755	0.695404
H163	H	0.283433	-0.000090	-0.025227
H164	H	0.783433	0.499910	0.474773
C165	C	0.895762	0.112531	-0.282313
C166	C	1.395762	0.612531	0.217687
H167	H	0.894911	0.104854	-0.334979
H168	H	1.394911	0.604854	0.165021
H169	H	0.940094	0.134558	-0.275232
H170	H	1.440094	0.634558	0.224768
H171	H	0.851851	0.134568	-0.263524
H172	H	1.351851	0.634568	0.236476
C173	C	0.898348	-0.112681	-0.116501
C174	C	1.398348	0.387319	0.383499
H175	H	0.899182	-0.105002	-0.063833
H176	H	1.399182	0.394998	0.436167
H177	H	0.942254	-0.134721	-0.135284
H178	H	1.442254	0.365279	0.364716
H179	H	0.854010	-0.134706	-0.123584
H180	H	1.354010	0.365294	0.376416
H181	H	0.647544	-0.000051	0.231383
H182	H	1.147544	0.499949	0.731383
H183	H	0.680748	-0.000067	-0.018868
H184	H	1.180748	0.499933	0.481132
H185	H	0.748756	-0.443929	0.246932
H186	H	1.248756	0.056071	0.746932
H187	H	0.891884	0.097213	-0.525124
H188	H	1.391884	0.597213	-0.025124
C189	C	1.002148	-0.150215	-0.006243
C190	C	1.502148	0.349785	0.493757
H191	H	0.994773	-0.108905	0.001146
H192	H	1.494773	0.391095	0.501146
H193	H	0.994036	-0.160353	-0.056752
H194	H	1.494036	0.339647	0.443248
H195	H	1.052640	-0.160368	0.001930
H196	H	1.552640	0.339632	0.501930
C197	C	0.490440	-0.000060	0.248614
C198	C	0.990440	0.499940	0.748614
H199	H	0.519806	-0.000049	0.290243
H200	H	1.019806	0.499951	0.790243
H201	H	0.459266	-0.034365	0.250999
H202	H	0.959266	0.465635	0.750999
H203	H	0.459265	0.034246	0.250980
H204	H	0.959265	0.534246	0.750980
H205	H	0.800325	-0.271437	0.195449
H206	H	1.300325	0.228563	0.695449
C207	C	0.734033	-0.565099	0.261651
C208	C	1.234033	-0.065099	0.761651
H209	H	0.741414	-0.606410	0.254281
H210	H	1.241414	-0.106410	0.754281
H211	H	0.683542	-0.554949	0.253487
H212	H	1.183542	-0.054949	0.753487
H213	H	0.742157	-0.554954	0.312158
H214	H	1.242157	-0.054954	0.812158
C215	C	0.889357	-0.112681	-0.679594
C216	C	1.389357	0.387319	-0.179594
H217	H	0.889892	-0.144619	-0.644776
H218	H	1.389892	0.355381	-0.144776
H219	H	0.932983	-0.114918	-0.716241
H220	H	1.432983	0.385082	-0.216241
H221	H	0.844740	-0.114898	-0.704535
H222	H	1.344740	0.385102	-0.204535
H223	H	0.250239	-0.000071	0.225025
H224	H	0.750239	0.499929	0.725025
C225	C	1.002149	-0.280231	-0.006278
C226	C	1.502149	0.219769	0.493722
H227	H	1.032855	-0.252912	-0.036955
H228	H	1.532855	0.247088	0.463045
H229	H	0.974992	-0.304384	-0.037758
H230	H	1.474992	0.195616	0.462242
H231	H	1.033610	-0.304385	0.020911
H232	H	1.533610	0.195615	0.520911
C233	C	1.053713	-0.435037	-0.057826
C234	C	1.553713	0.064963	0.442174
H235	H	1.084411	-0.462344	-0.088518
H236	H	1.584411	0.037656	0.411482
H237	H	1.085171	-0.410881	-0.030648
H238	H	1.585171	0.089119	0.469352
H239	H	1.026538	-0.410886	-0.089302
H240	H	1.526538	0.089114	0.410698
H241	H	0.107018	-0.000079	0.222733
H242	H	0.607018	0.499921	0.722733
C243	C	0.892015	-0.112684	-0.513824
C244	C	1.392015	0.387316	-0.013824
H245	H	0.891462	-0.144618	-0.548638
H246	H	1.391462	0.355382	-0.048638
H247	H	0.848388	-0.114916	-0.477174
H248	H	1.348388	0.385084	0.022826
H249	H	0.936632	-0.114915	-0.488884
H250	H	1.436632	0.385085	0.011116
H251	H	1.038992	-0.556202	-0.043108
H252	H	1.538992	-0.056202	0.456892
H253	H	0.987457	-0.728715	0.008414
H254	H	1.487457	-0.228715	0.508414
H255	H	0.987461	-0.841053	0.008411
H256	H	1.487461	-0.341053	0.508411
C257	C	0.785641	-0.849925	0.210120
C258	C	1.285641	-0.349925	0.710120
H259	H	0.754931	-0.822620	0.240804
H260	H	1.254931	-0.322620	0.740804
H261	H	0.812799	-0.874085	0.241595
H262	H	1.312799	-0.374085	0.741595
H263	H	0.754184	-0.874073	0.182923
H264	H	1.254184	-0.374073	0.682923
C265	C	0.785583	-0.150259	0.210174
C266	C	1.285583	0.349741	0.710174
H267	H	0.754876	-0.177567	0.240867
H268	H	1.254876	0.322433	0.740867
H269	H	0.754133	-0.126103	0.182982
H270	H	1.254133	0.373897	0.682982
H271	H	0.812752	-0.126107	0.241650
H272	H	1.312752	0.373893	0.741650
H273	H	0.898230	0.097213	-0.127818
H274	H	1.398230	0.597213	0.372182
H275	H	0.889596	0.097213	-0.668346
H276	H	1.389596	0.597213	-0.168346
