data_functionalizedCrystal
_audit_creation_method	'MofGen! by Chris Wilmer'
_symmetry_space_group_name_H-M	'P1'
_symmetry_Int_Tables_number	1
_symmetry_cell_setting	triclinic
loop_
_symmetry_equiv_pos_as_xyz
  x,y,z
_cell_length_a	19.121102
_cell_length_b	19.121063
_cell_length_c	19.120904
_cell_angle_alpha	85.258387
_cell_angle_beta	89.911827
_cell_angle_gamma	90.126902
loop_
_atom_site_label
_atom_site_type_symbol
_atom_site_fract_x
_atom_site_fract_y
_atom_site_fract_z
Zn1	Zn	1.039579	-0.343506	0.456040
Zn2	Zn	1.289579	-0.093506	0.706040
Zn3	Zn	1.539579	0.156494	0.956040
Zn4	Zn	1.789579	0.406494	1.206040
Zn5	Zn	1.039493	-0.456149	0.343386
Zn6	Zn	1.289493	-0.206149	0.593386
Zn7	Zn	1.539493	0.043851	0.843386
Zn8	Zn	1.789493	0.293851	1.093386
Zn9	Zn	0.927792	-0.333518	0.333417
Zn10	Zn	1.177792	-0.083518	0.583417
Zn11	Zn	1.427792	0.166482	0.833417
Zn12	Zn	1.677792	0.416482	1.083417
Zn13	Zn	0.917325	-0.455677	0.455570
Zn14	Zn	1.167325	-0.205677	0.705570
Zn15	Zn	1.417325	0.044323	0.955570
Zn16	Zn	1.667325	0.294323	1.205570
O17	O	0.981047	-0.397212	0.397103
O18	O	1.231047	-0.147212	0.647103
O19	O	1.481047	0.102788	0.897103
O20	O	1.731047	0.352788	1.147103
O21	O	1.137479	-0.362826	0.445465
O22	O	1.387479	-0.112826	0.695465
O23	O	1.637479	0.137174	0.945465
O24	O	1.887479	0.387174	1.195465
O25	O	1.029020	-0.435899	0.243797
O26	O	1.279020	-0.185899	0.493797
O27	O	1.529020	0.064101	0.743797
O28	O	1.779020	0.314101	0.993797
O29	O	0.947038	-0.236577	0.345708
O30	O	1.197038	0.013423	0.595708
O31	O	1.447038	0.263423	0.845708
O32	O	1.697038	0.513423	1.095708
O33	O	1.137415	-0.445584	0.362699
O34	O	1.387415	-0.195584	0.612699
O35	O	1.637415	0.054416	0.862699
O36	O	1.887415	0.304416	1.112699
O37	O	1.029167	-0.243915	0.435798
O38	O	1.279167	0.006085	0.685798
O39	O	1.529167	0.256085	0.935798
O40	O	1.779167	0.506085	1.185798
O41	O	0.946954	-0.345802	0.236473
O42	O	1.196954	-0.095802	0.486473
O43	O	1.446954	0.154198	0.736473
O44	O	1.696954	0.404198	0.986473
O45	O	0.828493	-0.345345	0.345252
O46	O	1.078493	-0.095345	0.595252
O47	O	1.328493	0.154655	0.845252
O48	O	1.578493	0.404655	1.095252
O49	O	0.929198	-0.444780	0.553899
O50	O	1.179198	-0.194780	0.803899
O51	O	1.429198	0.055220	1.053899
O52	O	1.679198	0.305220	1.303899
O53	O	0.820803	-0.435094	0.434997
O54	O	1.070803	-0.185094	0.684997
O55	O	1.320803	0.064906	0.934997
O56	O	1.570803	0.314906	1.184997
O57	O	1.019018	-0.362368	0.554244
O58	O	1.269018	-0.112368	0.804244
O59	O	1.519018	0.137632	1.054244
O60	O	1.769018	0.387632	1.304244
O61	O	1.018870	-0.554352	0.362243
O62	O	1.268870	-0.304352	0.612243
O63	O	1.518870	-0.054352	0.862243
O64	O	1.768870	0.195648	1.112243
O65	O	0.929114	-0.554005	0.444664
O66	O	1.179114	-0.304005	0.694664
O67	O	1.429114	-0.054005	0.944664
O68	O	1.679114	0.195995	1.194664
C69	C	0.799261	-0.389085	0.388992
C70	C	1.049261	-0.139085	0.638992
C71	C	1.299261	0.110915	0.888992
C72	C	1.549261	0.360915	1.138992
C73	C	0.721490	-0.385626	0.385539
C74	C	0.971490	-0.135626	0.635539
C75	C	1.221490	0.114374	0.885539
C76	C	1.471490	0.364374	1.135539
C77	C	0.972865	-0.579659	0.404501
C78	C	1.222865	-0.329659	0.654501
C79	C	1.472865	-0.079659	0.904501
C80	C	1.722865	0.170341	1.154501
C81	C	0.969428	-0.657714	0.407691
C82	C	1.219428	-0.407714	0.657691
C83	C	1.469428	-0.157714	0.907691
C84	C	1.719428	0.092286	1.157691
C85	C	0.680968	-0.430793	0.430575
C86	C	0.930968	-0.180793	0.680575
C87	C	1.180968	0.069207	0.930575
C88	C	1.430968	0.319207	1.180575
C89	C	0.607894	-0.427534	0.427334
C90	C	0.857894	-0.177534	0.677334
C91	C	1.107894	0.072466	0.927334
C92	C	1.357894	0.322466	1.177334
C93	C	0.575344	-0.379110	0.379053
C94	C	0.825344	-0.129110	0.629053
C95	C	1.075344	0.120890	0.879053
C96	C	1.325344	0.370890	1.129053
C97	C	0.615872	-0.333937	0.334016
C98	C	0.865872	-0.083937	0.584016
C99	C	1.115872	0.166063	0.834016
C100	C	1.365872	0.416063	1.084016
C101	C	0.688944	-0.337194	0.337261
C102	C	0.938944	-0.087194	0.587261
C103	C	1.188944	0.162806	0.837261
C104	C	1.438944	0.412806	1.087261
C105	C	0.354913	-0.366933	0.366924
C106	C	0.604913	-0.116933	0.616924
C107	C	0.854913	0.133067	0.866924
C108	C	1.104913	0.383067	1.116924
C109	C	0.281835	-0.363681	0.363681
C110	C	0.531835	-0.113681	0.613681
C111	C	0.781835	0.136319	0.863681
C112	C	1.031835	0.386319	1.113681
C113	C	0.273863	-0.457277	0.457000
C114	C	0.523863	-0.207277	0.707000
C115	C	0.773863	0.042723	0.957000
C116	C	1.023863	0.292723	1.207000
C117	C	0.346937	-0.460532	0.460238
C118	C	0.596937	-0.210532	0.710238
C119	C	0.846937	0.039468	0.960238
C120	C	1.096937	0.289468	1.210238
C121	C	0.387458	-0.415357	0.415203
C122	C	0.637458	-0.165357	0.665203
C123	C	0.887458	0.084643	0.915203
C124	C	1.137458	0.334643	1.165203
C125	C	0.500651	-0.375778	0.375738
C126	C	0.750651	-0.125778	0.625738
C127	C	1.000651	0.124222	0.875738
C128	C	1.250651	0.374222	1.125738
C129	C	0.462149	-0.418686	0.418523
C130	C	0.712149	-0.168686	0.668523
C131	C	0.962149	0.081314	0.918523
C132	C	1.212149	0.331314	1.168523
C133	C	1.014577	-0.694545	0.366317
C134	C	1.264577	-0.444545	0.616317
C135	C	1.514577	-0.194545	0.866317
C136	C	1.764577	0.055455	1.116317
C137	C	1.011348	-0.767887	0.369323
C138	C	1.261348	-0.517887	0.619323
C139	C	1.511348	-0.267887	0.869323
C140	C	1.761348	-0.017887	1.119323
C141	C	0.962966	-0.804396	0.413699
C142	C	1.212966	-0.554396	0.663699
C143	C	1.462966	-0.304396	0.913699
C144	C	1.712966	-0.054396	1.163699
C145	C	0.917815	-0.767560	0.455078
C146	C	1.167815	-0.517560	0.705078
C147	C	1.417815	-0.267560	0.955078
C148	C	1.667815	-0.017560	1.205078
C149	C	0.921048	-0.694220	0.452076
C150	C	1.171048	-0.444220	0.702076
C151	C	1.421048	-0.194220	0.952076
C152	C	1.671048	0.055780	1.202076
C153	C	0.950869	-1.025828	0.424912
C154	C	1.200869	-0.775828	0.674912
C155	C	1.450869	-0.525828	0.924912
C156	C	1.700869	-0.275828	1.174912
C157	C	0.947638	-1.099173	0.427909
C158	C	1.197638	-0.849173	0.677909
C159	C	1.447638	-0.599173	0.927909
C160	C	1.697638	-0.349173	1.177909
C161	C	1.041173	-1.099494	0.342155
C162	C	1.291173	-0.849494	0.592155
C163	C	1.541173	-0.599494	0.842155
C164	C	1.791173	-0.349494	1.092155
C165	C	1.044399	-1.026153	0.339154
C166	C	1.294399	-0.776153	0.589154
C167	C	1.544399	-0.526153	0.839154
C168	C	1.794399	-0.276153	1.089154
C169	C	0.999250	-0.989323	0.380535
C170	C	1.249250	-0.739323	0.630535
C171	C	1.499250	-0.489323	0.880535
C172	C	1.749250	-0.239323	1.130535
C173	C	0.959663	-0.879363	0.416770
C174	C	1.209663	-0.629363	0.666770
C175	C	1.459663	-0.379363	0.916770
C176	C	1.709663	-0.129363	1.166770
C177	C	1.002557	-0.914358	0.377467
C178	C	1.252557	-0.664358	0.627467
C179	C	1.502557	-0.414358	0.877467
C180	C	1.752557	-0.164358	1.127467
C181	C	1.163544	-0.405372	0.405246
C182	C	1.413544	-0.155372	0.655246
C183	C	1.663544	0.094628	0.905246
C184	C	1.913544	0.344628	1.155246
C185	C	1.241313	-0.408849	0.408717
C186	C	1.491313	-0.158849	0.658717
C187	C	1.741313	0.091151	0.908717
C188	C	1.991313	0.341151	1.158717
C189	C	0.972950	-0.404635	0.580263
C190	C	1.222950	-0.154635	0.830263
C191	C	1.472950	0.095365	1.080263
C192	C	1.722950	0.345365	1.330263
C193	C	0.969500	-0.407799	0.658315
C194	C	1.219500	-0.157799	0.908315
C195	C	1.469500	0.092201	1.158315
C196	C	1.719500	0.342201	1.408315
C197	C	0.989280	-0.214054	0.389693
C198	C	1.239280	0.035946	0.639693
C199	C	1.489280	0.285946	0.889693
C200	C	1.739280	0.535946	1.139693
C201	C	0.992788	-0.136003	0.386535
C202	C	1.242788	0.113997	0.636535
C203	C	1.492788	0.363997	0.886535
C204	C	1.742788	0.613997	1.136535
C205	C	0.989156	-0.389769	0.214655
C206	C	1.239156	-0.139769	0.464655
C207	C	1.489156	0.110231	0.714655
C208	C	1.739156	0.360231	0.964655
C209	C	0.992751	-0.386414	0.136602
C210	C	1.242751	-0.136414	0.386602
C211	C	1.492751	0.113586	0.636602
C212	C	1.742751	0.363586	0.886602
C213	C	1.014640	-0.366379	0.695165
C214	C	1.264640	-0.116379	0.945165
C215	C	1.514640	0.133621	1.195165
C216	C	1.764640	0.383621	1.445165
C217	C	1.011390	-0.369348	0.768503
C218	C	1.261390	-0.119348	1.018503
C219	C	1.511390	0.130652	1.268503
C220	C	1.761390	0.380652	1.518503
C221	C	0.963001	-0.413741	0.804990
C222	C	1.213001	-0.163741	1.054990
C223	C	1.463001	0.086259	1.304990
C224	C	1.713001	0.336259	1.554990
C225	C	0.917856	-0.455162	0.768135
C226	C	1.167856	-0.205162	1.018135
C227	C	1.417856	0.044838	1.268135
C228	C	1.667856	0.294838	1.518135
C229	C	0.921103	-0.452188	0.694798
C230	C	1.171103	-0.202188	0.944798
C231	C	1.421103	0.047812	1.194798
C232	C	1.671103	0.297812	1.444798
C233	C	0.950853	-0.424862	1.026410
C234	C	1.200853	-0.174862	1.276410
C235	C	1.450853	0.075138	1.526410
C236	C	1.700853	0.325138	1.776410
C237	C	0.947610	-0.427833	1.099752
C238	C	1.197610	-0.177833	1.349752
C239	C	1.447610	0.072167	1.599752
C240	C	1.697610	0.322167	1.849752
C241	C	1.041143	-0.342019	1.100115
C242	C	1.291143	-0.092019	1.350115
C243	C	1.541143	0.157981	1.600115
C244	C	1.791143	0.407981	1.850115
C245	C	1.044390	-0.339052	1.026777
C246	C	1.294390	-0.089052	1.276777
C247	C	1.544390	0.160948	1.526777
C248	C	1.794390	0.410948	1.776777
C249	C	0.999242	-0.380470	0.989928
C250	C	1.249242	-0.130470	1.239928
C251	C	1.499242	0.119530	1.489928
C252	C	1.749242	0.369530	1.739928
C253	C	0.959679	-0.416779	0.879953
C254	C	1.209679	-0.166779	1.129953
C255	C	1.459679	0.083221	1.379953
C256	C	1.709679	0.333221	1.629953
C257	C	1.002561	-0.377429	0.914966
C258	C	1.252561	-0.127429	1.164966
C259	C	1.502561	0.122571	1.414966
C260	C	1.752561	0.372571	1.664966
H261	H	0.707464	-0.470228	0.469888
H262	H	0.957464	-0.220228	0.719888
H263	H	1.207464	0.029772	0.969888
H264	H	1.457464	0.279772	1.219888
H265	H	0.589364	-0.294506	0.294708
H266	H	0.839364	-0.044506	0.544708
H267	H	1.089364	0.205494	0.794708
H268	H	1.339364	0.455494	1.044708
F269	F	0.902802	-0.468943	0.987202
F270	F	1.152802	-0.218943	1.237202
F271	F	1.402802	0.031057	1.487202
F272	F	1.652802	0.281057	1.737202
F273	F	1.089188	-0.297940	1.139337
F274	F	1.339188	-0.047940	1.389337
F275	F	1.589188	0.202060	1.639337
F276	F	1.839188	0.452060	1.889337
H277	H	1.083795	-0.996429	0.303019
H278	H	1.333795	-0.746429	0.553019
H279	H	1.583795	-0.496429	0.803019
H280	H	1.833795	-0.246429	1.053019
H281	H	0.908204	-0.463985	1.129457
H282	H	1.158204	-0.213985	1.379457
H283	H	1.408204	0.036015	1.629457
H284	H	1.658204	0.286015	1.879457
H285	H	1.053972	-0.664824	0.330178
H286	H	1.303972	-0.414824	0.580178
H287	H	1.553972	-0.164824	0.830178
H288	H	1.803972	0.085176	1.080178
H289	H	0.721937	-0.300410	0.300591
H290	H	0.971937	-0.050410	0.550591
H291	H	1.221937	0.199590	0.800591
H292	H	1.471937	0.449590	1.050591
H293	H	1.048113	-0.797871	0.335631
H294	H	1.298113	-0.547871	0.585631
H295	H	1.548113	-0.297871	0.835631
H296	H	1.798113	-0.047871	1.085631
F297	F	0.466003	-0.324243	0.324355
F298	F	0.716003	-0.074243	0.574355
F299	F	0.966003	0.175757	0.824355
F300	F	1.216003	0.425757	1.074355
H301	H	0.914106	-0.995847	0.458605
H302	H	1.164106	-0.745847	0.708605
H303	H	1.414106	-0.495847	0.958605
H304	H	1.664106	-0.245847	1.208605
H305	H	0.920284	-0.452927	0.909669
H306	H	1.170284	-0.202927	1.159669
H307	H	1.420284	0.047073	1.409669
H308	H	1.670284	0.297073	1.659669
H309	H	0.878424	-0.797292	0.491213
H310	H	1.128424	-0.547292	0.741213
H311	H	1.378424	-0.297292	0.991213
H312	H	1.628424	-0.047292	1.241213
F313	F	0.866354	-0.502405	0.806968
F314	F	1.116354	-0.252405	1.056968
F315	F	1.366354	-0.002405	1.306968
F316	F	1.616354	0.247595	1.556968
F317	F	0.247195	-0.312143	0.312288
F318	F	0.497195	-0.062143	0.562288
F319	F	0.747195	0.187857	0.812288
F320	F	0.997195	0.437857	1.062288
H321	H	0.574904	-0.464315	0.464006
H322	H	0.824904	-0.214315	0.714006
H323	H	1.074904	0.035685	0.964006
H324	H	1.324904	0.285685	1.214006
H325	H	0.373433	-0.499966	0.499552
H326	H	0.623433	-0.249966	0.749552
H327	H	0.873433	0.000034	0.999552
H328	H	1.123433	0.250034	1.249552
H329	H	0.920269	-0.909097	0.452900
H330	H	1.170269	-0.659097	0.702900
H331	H	1.420269	-0.409097	0.952900
H332	H	1.670269	-0.159097	1.202900
H333	H	0.488655	-0.458110	0.457836
H334	H	0.738655	-0.208110	0.707836
H335	H	0.988655	0.041890	0.957836
H336	H	1.238655	0.291890	1.207836
F337	F	0.872995	-0.655022	0.496114
F338	F	1.122995	-0.405022	0.746114
F339	F	1.372995	-0.155022	0.996114
F340	F	1.622995	0.094978	1.246114
F341	F	1.054052	-0.330178	0.876132
F342	F	1.304052	-0.080178	1.126132
F343	F	1.554052	0.169822	1.376132
F344	F	1.804052	0.419822	1.626132
F345	F	0.230732	-0.505353	0.504925
F346	F	0.480732	-0.255353	0.754925
F347	F	0.730732	-0.005353	1.004925
F348	F	0.980732	0.244647	1.254925
F349	F	1.095892	-0.291804	0.987950
F350	F	1.345892	-0.041804	1.237950
F351	F	1.595892	0.208196	1.487950
F352	F	1.845892	0.458196	1.737950
F353	F	0.398029	-0.318851	0.318995
F354	F	0.648029	-0.068851	0.568995
F355	F	0.898029	0.181149	0.818995
F356	F	1.148029	0.431149	1.068995
F357	F	0.873057	-0.496271	0.655580
F358	F	1.123057	-0.246271	0.905580
F359	F	1.373057	0.003729	1.155580
F360	F	1.623057	0.253729	1.405580
F361	F	0.896134	-1.138026	0.475135
F362	F	1.146134	-0.888026	0.725135
F363	F	1.396134	-0.638026	0.975135
F364	F	1.646134	-0.388026	1.225135
H365	H	1.077932	-1.129489	0.308466
H366	H	1.327932	-0.879489	0.558466
H367	H	1.577932	-0.629489	0.808466
H368	H	1.827932	-0.379489	1.058466
F369	F	1.054050	-0.875502	0.330243
F370	F	1.304050	-0.625502	0.580243
F371	F	1.554050	-0.375502	0.830243
F372	F	1.804050	-0.125502	1.080243
H373	H	1.054046	-0.330232	0.665463
H374	H	1.304046	-0.080232	0.915463
H375	H	1.554046	0.169768	1.165463
H376	H	1.804046	0.419768	1.415463
F377	F	1.059458	-0.325289	0.807720
F378	F	1.309458	-0.075289	1.057720
F379	F	1.559458	0.174711	1.307720
F380	F	1.809458	0.424711	1.557720
