data_functionalizedCrystal
_audit_creation_method	'MofGen! by Chris Wilmer'
_symmetry_space_group_name_H-M	'P1'
_symmetry_Int_Tables_number	1
_symmetry_cell_setting	triclinic
loop_
_symmetry_equiv_pos_as_xyz
  x,y,z
_cell_length_a	21.295419
_cell_length_b	21.295417
_cell_length_c	13.032268
_cell_angle_alpha	82.858212
_cell_angle_beta	82.839550
_cell_angle_gamma	90.044503
loop_
_atom_site_label
_atom_site_type_symbol
_atom_site_fract_x
_atom_site_fract_y
_atom_site_fract_z
Zn1	Zn	0.917103	-0.295547	0.590820
Zn2	Zn	0.930393	-0.387455	0.416067
Zn3	Zn	0.825210	-0.282233	0.416097
Zn4	Zn	0.811802	-0.400805	0.590752
O5	O	0.871127	-0.341510	0.503434
O6	O	1.006954	-0.307724	0.567655
O7	O	0.927613	-0.362338	0.269843
O8	O	0.837449	-0.195913	0.439315
O9	O	1.016718	-0.375249	0.439265
O10	O	0.904962	-0.205695	0.567683
O11	O	0.850335	-0.285032	0.269865
O12	O	0.735343	-0.297977	0.439249
O13	O	0.814598	-0.398001	0.736990
O14	O	0.725492	-0.385091	0.567568
O15	O	0.891962	-0.320669	0.737040
O16	O	0.914612	-0.477312	0.439199
O17	O	0.827484	-0.487120	0.567539
C18	C	0.707577	-0.341538	0.503405
C19	C	0.637608	-0.341567	0.503417
C20	C	0.599672	-0.306481	0.570373
C21	C	0.533929	-0.306464	0.570377
C22	C	0.506124	-0.341546	0.503436
C23	C	0.544069	-0.376634	0.436467
C24	C	0.609811	-0.376644	0.436458
N25	N	0.403475	-0.396000	0.495271
N26	N	0.341023	-0.395988	0.495286
C27	C	0.308048	-0.341515	0.503459
N28	N	0.339884	-0.287054	0.511637
N29	N	0.402342	-0.287066	0.511627
C30	C	0.434839	-0.341538	0.503439
C31	C	0.198826	-0.306408	0.570423
C32	C	0.133082	-0.306390	0.570420
C33	C	0.143223	-0.376565	0.436515
C34	C	0.208966	-0.376577	0.436513
C35	C	0.236763	-0.341500	0.503473
C36	C	0.871051	-0.505058	0.503381
C37	C	0.871073	-0.575027	0.503394
C38	C	0.906201	-0.612933	0.570283
C39	C	0.906221	-0.678678	0.570309
C40	C	0.871121	-0.706512	0.503427
C41	C	0.835986	-0.668597	0.436533
C42	C	0.835962	-0.602854	0.436516
N43	N	0.873367	-0.802782	0.411975
N44	N	0.873394	-0.865235	0.411994
C45	C	0.871191	-0.904590	0.503474
N46	N	0.868974	-0.879133	0.594936
N47	N	0.868951	-0.816674	0.594916
C48	C	0.871144	-0.777798	0.503437
C49	C	0.906343	-1.013785	0.570396
C50	C	0.906358	-1.079530	0.570424
C51	C	0.836128	-1.069448	0.436639
C52	C	0.836108	-1.003704	0.436621
C53	C	0.871219	-0.975876	0.503498
C54	C	1.035315	-0.341482	0.503464
C55	C	1.105282	-0.341471	0.503477
C56	C	0.850301	-0.362309	0.775990
C57	C	0.841427	-0.371172	0.892137
C58	C	0.871219	-0.177326	0.503510
C59	C	0.871258	-0.107360	0.503543
C60	C	0.891907	-0.320746	0.231939
C61	C	0.900904	-0.311706	0.115792
C62	C	0.875749	-0.336862	0.943944
C63	C	0.866577	-0.346021	1.063988
H64	H	0.102195	-0.277814	0.624942
H65	H	0.805249	-0.407324	0.936656
H66	H	0.807545	-1.092110	0.382189
H67	H	0.120585	-0.405129	0.382010
H68	H	0.503036	-0.277890	0.624899
H69	H	0.521427	-0.405197	0.381963
O70	O	0.249885	-0.414424	0.364295
H71	H	0.276251	-0.450058	0.410959
H72	H	0.911920	-0.300703	0.899425
H73	H	0.640700	-0.405217	0.381932
O74	O	0.228816	-0.268567	0.642624
H75	H	0.191389	-0.244156	0.689171
H76	H	0.830397	-0.382176	1.108503
O77	O	0.944080	-0.582916	0.642393
H78	H	0.968513	-0.620324	0.688907
O79	O	0.944110	-0.719578	0.642452
H80	H	0.994884	-0.705550	0.624589
O81	O	0.629657	-0.268636	0.642571
H82	H	0.592228	-0.244229	0.689120
H83	H	0.934963	-1.110394	0.624898
H84	H	0.937077	-0.275544	1.071279
H85	H	0.807356	-0.571990	0.382046
O86	O	0.798137	-0.698611	0.364380
H87	H	0.804063	-0.750694	0.375616
H88	H	0.807507	-0.972838	0.382149
O89	O	0.944203	-0.983763	0.642532
H90	H	0.968626	-1.021171	0.689062
