data_functionalizedCrystal
_audit_creation_method	'MofGen! by Chris Wilmer'
_symmetry_space_group_name_H-M	'P1'
_symmetry_Int_Tables_number	1
_symmetry_cell_setting	triclinic
loop_
_symmetry_equiv_pos_as_xyz
  x,y,z
_cell_length_a	17.038278
_cell_length_b	19.288865
_cell_length_c	17.766277
_cell_angle_alpha	90.011603
_cell_angle_beta	89.990672
_cell_angle_gamma	92.876626
loop_
_atom_site_label
_atom_site_type_symbol
_atom_site_fract_x
_atom_site_fract_y
_atom_site_fract_z
O1	O	1.036886	-0.150793	-0.062615
O2	O	0.809263	-0.148401	-0.062615
O3	O	0.929651	-0.048874	-0.062600
O4	O	0.916497	-0.250320	-0.062630
O5	O	0.929630	-0.048867	0.062588
O6	O	0.809242	-0.148394	0.062574
O7	O	1.036865	-0.150787	0.062574
Cu8	Cu	0.923051	-0.149590	0.074004
Cu9	Cu	0.923076	-0.149598	-0.074046
O10	O	0.916476	-0.250314	0.062559
C11	C	0.780131	-0.146220	-0.000020
C12	C	0.693359	-0.139723	-0.000020
C13	C	0.203076	-0.099809	-0.000017
C14	C	0.284607	-0.105919	-0.000013
C15	C	0.315828	-0.171685	-0.000026
C16	C	0.265514	-0.231345	-0.000035
C17	C	0.183985	-0.225235	-0.000034
C18	C	0.561516	-0.193272	-0.000027
C19	C	0.643051	-0.199379	-0.000031
C20	C	0.662139	-0.073951	-0.000008
C21	C	0.580607	-0.067847	-0.000010
C22	C	0.530300	-0.127507	-0.000016
C23	C	0.399165	-0.177932	-0.000025
C24	C	0.446964	-0.121259	-0.000011
C25	C	0.929218	-0.022968	-0.000004
C26	C	0.927947	0.054215	0.000003
C27	C	1.065996	-0.152968	-0.000023
C28	C	1.152768	-0.159465	-0.000028
C29	C	0.916910	-0.276220	-0.000040
C30	C	0.918180	-0.353402	-0.000051
N31	N	0.923039	-0.149584	0.178135
C32	C	0.998586	0.094541	0.000007
C33	C	0.997392	0.167062	-0.000005
C34	C	0.925556	0.199253	-0.000006
C35	C	0.854908	0.158918	-0.000014
C36	C	0.856103	0.086398	-0.000009
C37	C	0.869076	0.311037	0.043845
C38	C	0.867884	0.383555	0.043845
C39	C	0.921865	0.422927	-0.000022
C40	C	0.977052	0.389773	-0.043881
C41	C	0.978247	0.317254	-0.043877
C42	C	0.924251	0.277888	-0.000011
C43	C	0.991214	0.541889	-0.000033
C44	C	0.990017	0.614412	-0.000049
C45	C	0.847531	0.606266	-0.000050
C46	C	0.848730	0.533745	-0.000041
C47	C	0.920573	0.501562	-0.000029
N48	N	0.923094	-0.149598	-0.178176
C49	C	0.976365	-0.105538	0.217528
C50	C	0.976369	-0.105535	0.296330
C51	C	0.923056	-0.149591	0.335735
C52	C	0.869721	-0.193640	0.296332
C53	C	0.869712	-0.193637	0.217532
C54	C	0.912591	-0.212231	0.460564
C55	C	0.912605	-0.212235	0.539363
C56	C	0.923077	-0.149600	0.578782
C57	C	0.933552	-0.086959	0.539392
C58	C	0.933543	-0.086956	0.460592
C59	C	0.923058	-0.149599	0.421181
C60	C	0.976410	-0.105547	0.703621
C61	C	0.976409	-0.105543	0.782424
C62	C	0.869764	-0.193654	0.782425
C63	C	0.869761	-0.193652	0.703623
C64	C	0.923088	-0.149600	0.664226
H65	H	0.424595	-0.231479	-0.000038
O66	O	0.944865	-0.019393	0.581888
H67	H	0.897204	0.015225	0.566777
H68	H	0.421540	-0.067713	-0.000009
O69	O	1.076070	0.059826	-0.000001
H70	H	1.124990	0.100056	-0.000012
O71	O	1.033935	-0.058041	0.824919
H72	H	1.071020	-0.027418	0.784282
O73	O	1.033897	-0.058033	0.338830
H74	H	1.024146	-0.003299	0.323724
H75	H	0.826352	-0.229523	0.814508
H76	H	1.049713	0.515684	-0.000026
O77	O	0.299189	-0.302279	-0.000044
H78	H	0.250507	-0.342735	-0.000043
H79	H	0.796418	0.185133	-0.000016
H80	H	1.054916	0.199902	-0.000005
O81	O	0.507264	-0.257619	-0.000041
H82	H	0.469661	-0.257841	0.050988
O83	O	0.808368	0.419313	0.091152
H84	H	0.748194	0.401945	0.073089
O85	O	1.037753	0.281491	-0.091189
H86	H	1.075087	0.321046	-0.121702
H87	H	0.904080	-0.263242	0.571428
H88	H	0.703107	-0.025380	-0.000002
H89	H	0.177663	-0.046255	-0.000011
H90	H	1.019830	-0.069674	0.671542
O91	O	0.812255	-0.241168	0.661126
H92	H	0.775187	-0.271808	0.701763
H93	H	0.798579	0.053564	-0.000012
O94	O	0.810856	0.268573	0.091170
H95	H	0.750219	0.279037	0.073124
H96	H	0.325565	-0.057341	-0.000001
O97	O	0.129718	-0.289576	-0.000049
H98	H	0.165123	-0.336335	-0.000066
H99	H	1.021008	0.421829	-0.079603
H100	H	0.904050	-0.263239	0.428476
O101	O	0.546932	0.003087	0.000018
H102	H	0.595612	0.043544	0.000037
O103	O	0.944827	-0.019398	0.418103
H104	H	0.952104	0.024159	0.458746
O105	O	0.676723	-0.270318	-0.000040
H106	H	0.741867	-0.264541	-0.000049
H107	H	0.826311	-0.229510	0.328420
H108	H	1.047542	0.647245	-0.000051
O109	O	0.772537	0.490248	-0.000037
H110	H	0.785436	0.434413	-0.000039
O111	O	0.770046	0.640974	-0.000047
H112	H	0.781081	0.698178	-0.000045
O113	O	1.033869	-0.058017	0.175033
H114	H	1.070944	-0.027382	0.215670
H115	H	0.826287	-0.229505	0.185457
