data_functionalizedCrystal
_audit_creation_method	'MofGen! by Chris Wilmer'
_symmetry_space_group_name_H-M	'P1'
_symmetry_Int_Tables_number	1
_symmetry_cell_setting	triclinic
loop_
_symmetry_equiv_pos_as_xyz
  x,y,z
_cell_length_a	18.101398
_cell_length_b	16.120297
_cell_length_c	16.120444
_cell_angle_alpha	84.384883
_cell_angle_beta	92.924515
_cell_angle_gamma	87.116993
loop_
_atom_site_label
_atom_site_type_symbol
_atom_site_fract_x
_atom_site_fract_y
_atom_site_fract_z
Zn1	Zn	1.094036	0.489362	-0.356785
Zn2	Zn	1.093940	0.356674	-0.489475
Zn3	Zn	0.976807	0.349618	-0.349717
Zn4	Zn	0.963545	0.496408	-0.496512
O5	O	1.032082	0.423016	-0.423122
O6	O	1.197655	0.471765	-0.374399
O7	O	1.083913	0.238776	-0.465033
O8	O	0.997947	0.362254	-0.233689
O9	O	1.197585	0.374280	-0.471886
O10	O	1.084075	0.464923	-0.238881
O11	O	0.997855	0.233592	-0.362353
O12	O	0.871415	0.369086	-0.369177
O13	O	0.975344	0.612436	-0.483880
O14	O	0.861672	0.476932	-0.477026
O15	O	1.071216	0.607259	-0.381223
O16	O	1.071053	0.381112	-0.607374
O17	O	0.975252	0.483774	-0.612544
C18	C	1.021722	0.433992	-0.640288
C19	C	1.017357	0.438715	-0.733194
C20	C	0.839673	0.423009	-0.423099
C21	C	0.757357	0.423027	-0.423110
C22	C	0.606648	0.423026	-0.423125
C23	C	0.569189	0.490785	-0.491076
C24	C	0.483567	0.490607	-0.491328
C25	C	0.458265	0.423027	-0.423141
C26	C	0.492380	0.336024	-0.442172
C27	C	0.577986	0.336421	-0.442652
C28	C	0.578216	0.441492	-0.335944
C29	C	0.492451	0.443459	-0.336527
C30	C	0.374405	0.423022	-0.423148
C31	C	0.690508	0.423025	-0.423120
C32	C	1.021811	0.641023	-0.434125
C33	C	1.017435	0.733924	-0.438813
C34	C	1.225242	0.423023	-0.423146
C35	C	1.307556	0.423026	-0.423156
C36	C	1.042358	0.205854	-0.412102
C37	C	1.046889	0.112941	-0.407178
C38	C	1.009418	0.904015	-0.447355
C39	C	1.054904	0.942855	-0.398639
C40	C	1.050443	1.037500	-0.403392
C41	C	1.013877	0.809362	-0.442603
C42	C	1.054901	0.398692	-0.942105
C43	C	1.009400	0.447348	-0.903289
C44	C	1.013828	0.442543	-0.808639
C45	C	1.050473	0.403496	-1.036763
C46	C	1.042501	0.412015	-0.205109
C47	C	1.046942	0.407328	-0.112205
H48	H	0.460172	0.555247	-0.479982
C49	C	0.470964	0.266205	-0.377106
C50	C	0.498378	0.175162	-0.383381
C51	C	0.476961	0.105344	-0.318314
C52	C	0.428129	0.126570	-0.246971
C53	C	0.400712	0.217618	-0.240693
C54	C	0.422130	0.287435	-0.305760
H55	H	0.534529	0.159445	-0.436196
H56	H	0.497257	0.037945	-0.322962
H57	H	0.412275	0.074887	-0.198804
H58	H	0.364562	0.233334	-0.187878
H59	H	0.401834	0.354835	-0.301112
H60	H	1.097195	0.905027	-0.353362
C61	C	1.112015	0.337543	-0.890976
C62	C	1.116414	0.332765	-0.794962
C63	C	1.173525	0.271615	-0.743822
C64	C	1.226239	0.215243	-0.788695
C65	C	1.221842	0.220019	-0.884714
C66	C	1.164731	0.281169	-0.935854
H67	H	1.077390	0.374497	-0.761740
H68	H	1.176780	0.268080	-0.672742
H69	H	1.268516	0.169976	-0.750837
H70	H	1.260866	0.178287	-0.917936
H71	H	1.161476	0.284704	-1.006934
H72	H	0.967130	0.941841	-0.492628
C73	C	0.952270	0.508489	-0.954417
C74	C	0.947858	0.513263	-1.050431
C75	C	0.890728	0.574396	-1.101563
C76	C	0.838010	0.630755	-1.056682
C77	C	0.842420	0.625983	-0.960663
C78	C	0.899550	0.564850	-0.909531
H79	H	0.986885	0.471541	-1.083660
H80	H	0.887463	0.577929	-1.172643
H81	H	0.795718	0.676010	-1.094533
H82	H	0.803393	0.667705	-0.927434
H83	H	0.902815	0.561317	-0.838451
C84	C	0.460551	0.313749	-0.527096
C85	C	0.376557	0.305912	-0.541655
C86	C	0.344728	0.283642	-0.626581
C87	C	0.396894	0.269208	-0.696948
C88	C	0.480893	0.277045	-0.682392
C89	C	0.512721	0.299315	-0.597466
H90	H	0.337936	0.316597	-0.489563
H91	H	0.282547	0.277841	-0.637356
H92	H	0.373333	0.252723	-0.759816
H93	H	0.519514	0.266360	-0.734484
H94	H	0.574903	0.305116	-0.586690
C95	C	0.593772	0.578401	-0.475997
C96	C	0.648163	0.589499	-0.401800
C97	C	0.672752	0.677118	-0.386720
C98	C	0.642950	0.753640	-0.445836
C99	C	0.588556	0.742544	-0.520038
C100	C	0.563967	0.654925	-0.535118
H101	H	0.670228	0.532851	-0.358035
H102	H	0.713018	0.685331	-0.331791
H103	H	0.661152	0.818500	-0.434672
H104	H	0.566491	0.799192	-0.563803
H105	H	0.523701	0.646713	-0.590047
C106	C	0.452629	0.474525	-0.578726
C107	C	0.505849	0.461799	-0.648508
C108	C	0.474911	0.445714	-0.735910
C109	C	0.390754	0.442356	-0.753531
C110	C	0.337530	0.455083	-0.683748
C111	C	0.368467	0.471167	-0.596346
H112	H	0.568151	0.464284	-0.635465
H113	H	0.514312	0.436293	-0.787568
H114	H	0.367853	0.430450	-0.818231
H115	H	0.275227	0.452598	-0.696790
H116	H	0.329066	0.480589	-0.544688
C117	C	0.469596	0.381200	-0.265013
C118	C	0.490351	0.287361	-0.264846
C119	C	0.467497	0.225089	-0.193340
C120	C	0.423889	0.256656	-0.122000
C121	C	0.403131	0.350499	-0.122163
C122	C	0.425985	0.412772	-0.193670
H123	H	0.522635	0.263990	-0.317659
H124	H	0.482864	0.155619	-0.193219
H125	H	0.406971	0.210558	-0.069066
H126	H	0.370847	0.373871	-0.069351
H127	H	0.410619	0.482241	-0.193791
H128	H	0.588313	0.479047	-0.555406
C129	C	0.612060	0.266185	-0.378348
C130	C	0.662637	0.195939	-0.406819
C131	C	0.696706	0.125700	-0.342520
C132	C	0.680198	0.125706	-0.249751
C133	C	0.629618	0.195954	-0.221275
C134	C	0.595550	0.266194	-0.285574
H135	H	0.674860	0.195932	-0.475496
H136	H	0.734148	0.073697	-0.363600
H137	H	0.705417	0.073711	-0.202153
H138	H	0.617395	0.195961	-0.152598
H139	H	0.558107	0.318196	-0.264494
H140	H	0.595794	0.320302	-0.506236
H141	H	0.597865	0.503630	-0.317676
H142	H	0.469925	0.507466	-0.322087
C143	C	0.611689	0.374761	-0.267626
C144	C	0.664559	0.303859	-0.290776
C145	C	0.698036	0.237126	-0.222466
C146	C	0.678644	0.241295	-0.131005
C147	C	0.625772	0.312200	-0.107850
C148	C	0.592295	0.378932	-0.176160
H149	H	0.678916	0.300770	-0.358485
H150	H	0.737176	0.184638	-0.239608
H151	H	0.703426	0.191895	-0.080438
H152	H	0.611414	0.315288	-0.040142
H153	H	0.553155	0.431421	-0.159019
