data_functionalizedCrystal
_audit_creation_method	'MofGen! by Chris Wilmer'
_symmetry_space_group_name_H-M	'P1'
_symmetry_Int_Tables_number	1
_symmetry_cell_setting	triclinic
loop_
_symmetry_equiv_pos_as_xyz
  x,y,z
_cell_length_a	19.288840
_cell_length_b	17.699092
_cell_length_c	17.766277
_cell_angle_alpha	89.995315
_cell_angle_beta	89.983415
_cell_angle_gamma	83.206192
loop_
_atom_site_label
_atom_site_type_symbol
_atom_site_fract_x
_atom_site_fract_y
_atom_site_fract_z
O1	O	0.921478	0.094327	-0.062717
O2	O	1.421478	0.594327	0.437283
O3	O	0.719231	0.107083	-0.062691
O4	O	1.219231	0.607083	0.437309
O5	O	0.826066	-0.009492	-0.062703
O6	O	1.326066	0.490508	0.437297
O7	O	0.814644	0.210902	-0.062705
O8	O	1.314644	0.710902	0.437295
O9	O	0.826047	-0.009498	0.062486
O10	O	1.326047	0.490502	0.562486
O11	O	0.719212	0.107077	0.062498
O12	O	1.219212	0.607077	0.562498
O13	O	0.921460	0.094321	0.062471
O14	O	1.421460	0.594321	0.562471
Cu15	Cu	0.820334	0.100698	0.073915
Cu16	Cu	1.320334	0.600698	0.573915
Cu17	Cu	0.820356	0.100705	-0.074135
Cu18	Cu	1.320356	0.600705	0.425865
O19	O	0.814625	0.210896	0.062484
O20	O	1.314625	0.710896	0.562484
C21	C	0.693344	0.106673	-0.000093
C22	C	1.193344	0.606673	0.499907
C23	C	0.616238	0.105450	-0.000083
C24	C	1.116238	0.605450	0.499917
C25	C	0.580044	0.104866	-0.068325
C26	C	1.080044	0.604866	0.431675
C27	C	0.507596	0.103709	-0.068334
C28	C	1.007596	0.603709	0.431666
C29	C	0.471346	0.103120	-0.000098
C30	C	0.971346	0.603120	0.499902
C31	C	0.507548	0.103709	0.068154
C32	C	1.007548	0.603709	0.568154
C33	C	0.579994	0.104874	0.068161
C34	C	1.079994	0.604874	0.568161
C35	C	0.361955	0.056941	0.052171
C36	C	0.861955	0.556941	0.552171
C37	C	0.289511	0.055771	0.052161
C38	C	0.789511	0.555771	0.552161
C39	C	0.247898	0.099531	-0.000117
C40	C	0.747898	0.599531	0.499883
C41	C	0.278740	0.144451	-0.052398
C42	C	0.778740	0.644451	0.447602
C43	C	0.351186	0.145615	-0.052391
C44	C	0.851186	0.645615	0.447609
C45	C	0.392791	0.101858	-0.000098
C46	C	0.892791	0.601858	0.499902
C47	C	0.133147	0.097693	-0.068374
C48	C	0.633147	0.597693	0.431626
C49	C	0.060697	0.096541	-0.068380
C50	C	0.560697	0.596541	0.431620
C51	C	0.060652	0.096533	0.068110
C52	C	0.560652	0.596533	0.568110
C53	C	0.133100	0.097693	0.068114
C54	C	0.633100	0.597693	0.568114
C55	C	0.169344	0.098270	-0.000130
C56	C	0.669344	0.598270	0.499870
C57	C	0.825646	-0.037692	-0.000110
C58	C	1.325646	0.462308	0.499890
C59	C	0.824415	-0.121708	-0.000113
C60	C	1.324415	0.378292	0.499887
C61	C	0.823849	-0.161171	-0.068354
C62	C	1.323849	0.338829	0.431646
C63	C	0.822688	-0.240112	-0.068355
C64	C	1.322688	0.259888	0.431645
C65	C	0.822098	-0.279589	-0.000114
C66	C	1.322098	0.220411	0.499886
C67	C	0.822663	-0.240120	0.068132
C68	C	1.322663	0.259880	0.568132
C69	C	0.823819	-0.161180	0.068132
C70	C	1.323819	0.338820	0.568132
C71	C	0.818000	-0.558478	0.068134
C72	C	1.318000	-0.058478	0.568134
C73	C	0.816847	-0.637424	0.068129
C74	C	1.316847	-0.137424	0.568129
C75	C	0.816870	-0.637411	-0.068353
C76	C	1.316870	-0.137411	0.431647
C77	C	0.818025	-0.558470	-0.068353
C78	C	1.318025	-0.058470	0.431647
C79	C	0.818586	-0.519007	-0.000107
C80	C	1.318586	-0.019007	0.499893
C81	C	0.819844	-0.433410	-0.000107
C82	C	1.319844	0.066590	0.499893
C83	C	0.820846	-0.365186	-0.000113
C84	C	1.320846	0.134814	0.499887
C85	C	0.947346	0.094731	-0.000128
C86	C	1.447346	0.594731	0.499872
C87	C	1.024452	0.095954	-0.000143
C88	C	1.524452	0.595954	0.499857
C89	C	0.815044	0.239096	-0.000111
C90	C	1.315044	0.739096	0.499889
C91	C	0.816275	0.323111	-0.000113
C92	C	1.316275	0.823111	0.499887
N93	N	0.820324	0.100693	0.178046
N94	N	1.320324	0.600693	0.678046
N95	N	0.820372	0.100705	-0.178265
N96	N	1.320372	0.600705	0.321735
C97	C	0.867645	0.049099	0.217427
C98	C	1.367645	0.549099	0.717427
C99	C	0.867649	0.049095	0.296229
C100	C	1.367649	0.549095	0.796229
C101	C	0.820338	0.100699	0.335646
C102	C	1.320338	0.600699	0.835646
C103	C	0.773008	0.152297	0.296255
C104	C	1.273008	0.652297	0.796255
C105	C	0.773000	0.152294	0.217455
C106	C	1.273000	0.652294	0.717455
C107	C	0.811123	0.169661	0.460484
C108	C	1.311123	0.669661	0.960484
C109	C	0.811135	0.169665	0.539283
C110	C	1.311135	0.669665	1.039283
C111	C	0.820357	0.100708	0.578693
C112	C	1.320357	0.600708	1.078693
C113	C	0.829581	0.031744	0.539293
C114	C	1.329581	0.531744	1.039293
C115	C	0.829574	0.031741	0.460493
C116	C	1.329574	0.531741	0.960493
C117	C	0.820341	0.100708	0.421092
C118	C	1.320341	0.600708	0.921092
C119	C	0.867685	0.049106	0.703520
C120	C	1.367685	0.549106	1.203520
C121	C	0.867685	0.049101	0.782323
C122	C	1.367685	0.549101	1.282323
C123	C	0.773046	0.152310	0.782348
C124	C	1.273046	0.652310	1.282348
C125	C	0.773044	0.152308	0.703546
C126	C	1.273044	0.652308	1.203546
C127	C	0.820367	0.100707	0.664137
C128	C	1.320367	0.600707	1.164137
H129	H	0.244860	0.180087	-0.094966
H130	H	0.744860	0.680087	0.405034
O131	O	0.824432	-0.118616	0.141738
O132	O	1.324432	0.381384	0.641738
H133	H	0.825328	-0.057091	0.130274
H134	H	1.325328	0.442909	0.630274
O135	O	0.384504	0.194023	-0.108767
O136	O	0.884504	0.694023	0.391233
H137	H	0.363236	0.254588	-0.101070
H138	H	0.863236	0.754588	0.398930
H139	H	0.837083	-0.024412	0.428418
H140	H	1.337083	0.475588	0.928418
O141	O	0.822039	-0.282703	0.141734
O142	O	1.322039	0.217297	0.641734
H143	H	0.774196	-0.311770	0.145007
H144	H	1.274196	0.188230	0.645007
O145	O	0.172135	0.098325	0.141725
O146	O	0.672135	0.598325	0.641725
H147	H	0.211431	0.047286	0.145001
H148	H	0.711431	0.547286	0.645001
H149	H	0.162657	0.098171	-0.123942
H150	H	0.662657	0.598171	0.376058
H151	H	0.609463	0.105350	0.123734
H152	H	1.109463	0.605350	0.623734
H153	H	0.031229	0.096070	-0.123954
H154	H	0.531229	0.596070	0.376046
O155	O	0.824484	-0.118599	-0.141961
O156	O	1.324484	0.381401	0.358039
H157	H	0.825389	-0.057077	-0.130500
H158	H	1.325389	0.442923	0.369500
H159	H	0.906217	0.007086	0.671432
H160	H	1.406217	0.507086	1.171432
H161	H	0.822230	-0.272240	-0.123924
H162	H	1.322230	0.227760	0.376076
O163	O	0.818661	-0.515895	-0.141959
O164	O	1.318661	-0.015895	0.358041
H165	H	0.819566	-0.454374	-0.130494
H166	H	1.319566	0.045626	0.369506
H167	H	0.816410	-0.669550	-0.123922
H168	H	1.316410	-0.169550	0.376078
H169	H	0.906218	0.007083	0.814388
H170	H	1.406218	0.507083	1.314388
H171	H	0.816365	-0.669564	0.123702
H172	H	1.316365	-0.169564	0.623702
O173	O	0.918696	-0.006554	0.338714
O174	O	1.418696	0.493446	0.838714
H175	H	0.910748	0.002116	0.400129
H176	H	1.410748	0.502116	0.900129
H177	H	0.818471	-0.526359	0.123704
H178	H	1.318471	-0.026359	0.623704
H179	H	0.906177	0.007080	0.185342
H180	H	1.406177	0.507080	0.685342
O181	O	0.468566	0.103166	0.141830
O182	O	0.968566	0.603166	0.641830
H183	H	0.476284	0.155004	0.174437
H184	H	0.976284	0.655004	0.674437
H185	H	0.031138	0.096059	0.123669
H186	H	0.531138	0.596059	0.623669
H187	H	0.837090	-0.024408	0.571379
H188	H	1.337090	0.475592	1.071379
H189	H	0.734522	0.194324	0.814441
H190	H	1.234522	0.694324	1.314441
H191	H	0.734513	0.194324	0.671480
H192	H	1.234513	0.694324	1.171480
O193	O	0.468554	0.103069	-0.141946
O194	O	0.968554	0.603069	0.358054
H195	H	0.429264	0.154115	-0.145226
H196	H	0.929264	0.654115	0.354774
O197	O	0.801200	0.244043	0.581777
O198	O	1.301200	0.744043	1.081777
H199	H	0.794777	0.291993	0.541137
H200	H	1.294777	0.791993	1.041137
O201	O	0.801181	0.244041	0.417980
O202	O	1.301181	0.744041	0.917980
H203	H	0.794781	0.291995	0.458612
H204	H	1.294781	0.791995	0.958612
O205	O	0.721981	0.207962	0.338762
O206	O	1.221981	0.707962	0.838762
H207	H	0.729941	0.199303	0.400174
H208	H	1.229941	0.699303	0.900174
H209	H	0.734464	0.194310	0.185390
H210	H	1.234464	0.694310	0.685390
H211	H	0.609549	0.105335	-0.123895
H212	H	1.109549	0.605335	0.376105
H213	H	0.264406	0.019192	0.094728
H214	H	0.764406	0.519192	0.594728
H215	H	0.395830	0.021305	0.094746
H216	H	0.895830	0.521305	0.594746
