data_functionalizedCrystal
_audit_creation_method	'MofGen! by Chris Wilmer'
_symmetry_space_group_name_H-M	'P1'
_symmetry_Int_Tables_number	1
_symmetry_cell_setting	triclinic
loop_
_symmetry_equiv_pos_as_xyz
  x,y,z
_cell_length_a	10.967874
_cell_length_b	10.967829
_cell_length_c	14.586319
_cell_angle_alpha	77.868327
_cell_angle_beta	77.867796
_cell_angle_gamma	82.165976
loop_
_atom_site_label
_atom_site_type_symbol
_atom_site_fract_x
_atom_site_fract_y
_atom_site_fract_z
O1	O	1.657207	0.175028	-0.365707
O2	O	2.157207	0.675028	0.134293
O3	O	1.294050	0.191781	-0.310982
O4	O	1.794050	0.691781	0.189018
O5	O	1.484003	0.001826	-0.310977
O6	O	1.984003	0.501826	0.189023
O7	O	1.467254	0.364983	-0.365712
O8	O	1.967254	0.864983	0.134288
O9	O	1.483990	0.001823	-0.158493
O10	O	1.983990	0.501823	0.341507
O11	O	1.294037	0.191778	-0.158498
O12	O	1.794037	0.691778	0.341502
O13	O	1.657193	0.175025	-0.213224
O14	O	2.157193	0.675025	0.286776
Cu15	Cu	1.475614	0.183401	-0.171938
Cu16	Cu	1.975614	0.683401	0.328062
Cu17	Cu	1.475630	0.183405	-0.352267
Cu18	Cu	1.975630	0.683405	0.147733
O19	O	1.467240	0.364980	-0.213229
O20	O	1.967240	0.864980	0.286771
C21	C	1.247544	0.190561	-0.227201
C22	C	1.747544	0.690561	0.272799
C23	C	1.108988	0.186913	-0.204736
C24	C	1.608988	0.686913	0.295264
C25	C	1.047223	0.185288	-0.273711
C26	C	1.547223	0.685288	0.226289
C27	C	0.904018	0.181518	-0.250493
C28	C	1.404018	0.681518	0.249507
C29	C	1.482777	-0.044675	-0.227197
C30	C	1.982777	0.455325	0.272803
C31	C	1.479128	-0.183231	-0.204733
C32	C	1.979128	0.316769	0.295267
C33	C	1.477508	-0.244996	-0.273710
C34	C	1.977508	0.255004	0.226290
C35	C	1.473736	-0.388201	-0.250494
C36	C	1.973736	0.111799	0.249506
C37	C	1.703700	0.176246	-0.297006
C38	C	2.203700	0.676246	0.202994
C39	C	1.842256	0.179893	-0.319478
C40	C	2.342256	0.679893	0.180522
C41	C	1.468467	0.411482	-0.297011
C42	C	1.968467	0.911482	0.202989
C43	C	1.472116	0.550038	-0.319481
C44	C	1.972116	1.050038	0.180519
N45	N	1.475612	0.183398	-0.045106
N46	N	1.975612	0.683398	0.454894
N47	N	1.475641	0.183398	-0.479100
N48	N	1.975641	0.683398	0.020900
C49	C	1.559751	0.099315	0.189894
C50	C	2.059751	0.599315	0.689894
C51	C	1.559755	0.099312	0.285875
C52	C	2.059755	0.599312	0.785875
C53	C	1.391493	0.267486	0.285894
C54	C	1.891493	0.767486	0.785894
C55	C	1.391484	0.267482	0.189917
C56	C	1.891484	0.767482	0.689917
C57	C	1.475621	0.183398	0.141918
C58	C	1.975621	0.683398	0.641918
C59	C	1.475633	0.183399	0.333876
C60	C	1.975633	0.683399	0.833876
C61	C	1.475636	0.183396	0.437944
C62	C	1.975636	0.683396	0.937944
C63	C	1.475616	0.183398	0.037845
C64	C	1.975616	0.683398	0.537845
H65	H	1.055848	0.185520	-0.128496
H66	H	1.555848	0.685520	0.371504
H67	H	1.478907	-0.191856	-0.349950
H68	H	1.978907	0.308144	0.150050
H69	H	1.628260	0.030843	0.324935
H70	H	2.128260	0.530843	0.824935
H71	H	0.895387	0.181302	-0.395725
H72	H	1.395387	0.681302	0.104275
H73	H	1.322993	0.335947	0.324984
H74	H	1.822993	0.835947	0.824984
C75	C	1.579741	-0.441661	-0.117129
C76	C	2.079741	0.058339	0.382871
C77	C	1.471834	-0.459920	-0.147562
C78	C	1.971834	0.040080	0.352438
H79	H	1.578559	-0.485935	-0.053583
H80	H	2.078559	0.014065	0.446417
H81	H	1.651815	-0.471833	-0.157920
H82	H	2.151815	0.028167	0.342080
H83	H	1.582016	-0.354832	-0.119229
H84	H	2.082016	0.145168	0.380771
H85	H	1.469564	-0.546750	-0.145469
H86	H	1.969564	-0.046750	0.354531
H87	H	1.399741	-0.429755	-0.106760
H88	H	1.899741	0.070245	0.393240
H89	H	1.473507	-0.396828	-0.395725
H90	H	1.973507	0.103172	0.104275
H91	H	1.477714	-0.236370	-0.128491
H92	H	1.977714	0.263630	0.371509
C93	C	1.726059	-0.066927	0.199523
C94	C	2.226059	0.433073	0.699523
C95	C	1.652220	0.006880	0.137137
C96	C	2.152220	0.506880	0.637137
H97	H	1.783139	-0.124001	0.166955
H98	H	2.283139	0.375999	0.666955
H99	H	1.771394	-0.014572	0.221514
H100	H	2.271394	0.485428	0.721514
H101	H	1.673717	-0.112280	0.252403
H102	H	2.173717	0.387720	0.752403
H103	H	1.704562	0.052240	0.084259
H104	H	2.204562	0.552240	0.584259
H105	H	1.606882	-0.045482	0.115131
H106	H	2.106882	0.454518	0.615131
C107	C	1.225168	0.433731	0.199566
C108	C	1.725168	0.933731	0.699566
C109	C	1.299004	0.359917	0.137173
C110	C	1.799004	0.859917	0.637173
H111	H	1.168081	0.490795	0.167000
H112	H	1.668081	0.990795	0.667000
H113	H	1.179840	0.381380	0.252439
H114	H	1.679840	0.881380	0.752439
H115	H	1.277510	0.479095	0.221558
H116	H	1.777510	0.979095	0.721558
H117	H	1.246662	0.314545	0.115185
H118	H	1.746662	0.814545	0.615185
H119	H	1.344335	0.412274	0.084282
H120	H	1.844335	0.912274	0.584282
H121	H	1.100361	0.186695	-0.349952
H122	H	1.600361	0.686695	0.150048
H123	H	0.850883	0.180125	-0.174248
H124	H	1.350883	0.680125	0.325752
