data_functionalizedCrystal
_audit_creation_method	'MofGen! by Chris Wilmer'
_symmetry_space_group_name_H-M	'P1'
_symmetry_Int_Tables_number	1
_symmetry_cell_setting	triclinic
loop_
_symmetry_equiv_pos_as_xyz
  x,y,z
_cell_length_a	12.759401
_cell_length_b	16.959454
_cell_length_c	16.959447
_cell_angle_alpha	90.025463
_cell_angle_beta	90.015904
_cell_angle_gamma	90.020236
loop_
_atom_site_label
_atom_site_type_symbol
_atom_site_fract_x
_atom_site_fract_y
_atom_site_fract_z
Zn1	Zn	1.606189	-0.314672	0.446885
Zn2	Zn	1.606075	-0.446862	0.314715
Zn3	Zn	1.430499	-0.314702	0.314727
Zn4	Zn	1.430463	-0.446813	0.446858
O5	O	1.518307	-0.380762	0.380796
O6	O	1.753195	-0.332216	0.429358
O7	O	1.582752	-0.429363	0.204105
O8	O	1.453868	-0.204087	0.332275
O9	O	1.753111	-0.429335	0.332253
O10	O	1.582946	-0.204065	0.429370
O11	O	1.453757	-0.332266	0.204115
O12	O	1.283473	-0.332218	0.332249
O13	O	1.453807	-0.429252	0.557472
O14	O	1.283447	-0.429280	0.429324
O15	O	1.582912	-0.332169	0.557492
O16	O	1.582717	-0.557466	0.332227
O17	O	1.453696	-0.557431	0.429312
C18	C	1.245339	-0.380748	0.380785
C19	C	1.128563	-0.380761	0.380800
C20	C	1.073715	-0.431382	0.431263
C21	C	0.963990	-0.431392	0.431272
C22	C	0.963972	-0.330157	0.330346
C23	C	1.073695	-0.330144	0.330342
C24	C	1.073724	-0.489831	0.489530
C25	C	0.964000	-0.489841	0.489538
C26	C	1.518219	-0.586129	0.380783
C27	C	1.518277	-0.673985	0.380803
C28	C	1.451223	-1.045472	0.431343
C29	C	1.585683	-1.045449	0.330330
C30	C	1.585647	-0.962904	0.330323
C31	C	1.518396	-0.921638	0.380825
C32	C	1.451182	-0.962919	0.431336
C33	C	1.652852	-0.921617	0.279808
C34	C	1.652817	-0.839066	0.279798
C35	C	1.585571	-0.797799	0.330305
C36	C	1.518355	-0.839085	0.380818
C37	C	1.451104	-0.797819	0.431321
C38	C	1.383893	-0.839103	0.481838
C39	C	1.383936	-0.921652	0.481843
C40	C	1.585528	-0.715251	0.330300
C41	C	1.451063	-0.715266	0.431314
C42	C	1.792340	-0.380778	0.380807
C43	C	1.909117	-0.380784	0.380812
C44	C	1.518368	-0.380702	0.586964
C45	C	1.518394	-0.380676	0.674821
C46	C	1.518424	-0.174594	0.380827
C47	C	1.518474	-0.086738	0.380840
C48	C	1.518306	-0.380766	0.175430
C49	C	1.518484	-0.380569	0.087574
C50	C	1.585569	-0.431217	0.716092
C51	C	1.451237	-0.330115	0.716104
C52	C	1.451255	-0.330091	0.798650
C53	C	1.518430	-0.380632	0.839921
C54	C	1.585587	-0.431197	0.798645
C55	C	1.384092	-0.279534	0.839931
C56	C	1.384106	-0.279509	0.922482
C57	C	1.451287	-0.330047	0.963754
C58	C	1.518448	-0.380612	0.922474
C59	C	1.585623	-0.431153	0.963745
C60	C	1.652789	-0.481716	0.922466
C61	C	1.652768	-0.481734	0.839918
C62	C	1.451309	-0.330028	1.046303
C63	C	1.585641	-0.431133	1.046299
H64	H	0.919285	-0.288947	0.289266
H65	H	1.103531	-0.473511	0.550776
H66	H	1.707480	-0.522869	0.956080
H67	H	1.118348	-0.288918	0.289255
H68	H	1.107732	-0.547949	0.467499
H69	H	1.329394	-0.238391	0.806322
Br70	Br	0.907322	-0.453428	0.586529
H71	H	0.934198	-0.551042	0.473039
Br72	Br	1.359798	-0.659269	0.499864
Br73	Br	1.292620	-0.783090	0.550369
H74	H	1.640245	-0.681641	0.289166
H75	H	1.329415	-0.238338	0.956084
Br76	Br	1.743918	-0.550345	0.783893
H77	H	1.396621	-0.288863	1.079908
H78	H	1.329215	-0.955272	0.522971
Br79	Br	1.744119	-0.977623	0.211276
H80	H	1.396504	-1.079089	0.472475
H81	H	1.640429	-1.079053	0.289208
H82	H	1.707544	-0.805458	0.238665
H83	H	1.640348	-0.472287	1.079895
H84	H	1.640257	-0.472381	0.682479
Br85	Br	1.360098	-0.261510	0.660093
