data_functionalizedCrystal
_audit_creation_method	'MofGen! by Chris Wilmer'
_symmetry_space_group_name_H-M	'P1'
_symmetry_Int_Tables_number	1
_symmetry_cell_setting	triclinic
loop_
_symmetry_equiv_pos_as_xyz
  x,y,z
_cell_length_a	19.188930
_cell_length_b	19.188930
_cell_length_c	18.266242
_cell_angle_alpha	90.010255
_cell_angle_beta	90.022820
_cell_angle_gamma	83.144779
loop_
_atom_site_label
_atom_site_type_symbol
_atom_site_fract_x
_atom_site_fract_y
_atom_site_fract_z
O1	O	0.926149	0.087167	0.061124
O2	O	1.426149	0.587167	0.561124
O3	O	0.722838	0.098902	0.061075
O4	O	1.222838	0.598902	0.561075
O5	O	0.830361	-0.008621	0.061087
O6	O	1.330361	0.491379	0.561087
O7	O	0.818627	0.194690	0.061113
O8	O	1.318627	0.694690	0.561113
O9	O	0.830343	-0.008624	-0.060675
O10	O	1.330343	0.491376	0.439325
O11	O	0.722820	0.098899	-0.060687
O12	O	1.222820	0.598899	0.439313
O13	O	0.926131	0.087164	-0.060638
O14	O	1.426131	0.587164	0.439362
Zn15	Zn	0.824473	0.093031	-0.079994
Zn16	Zn	1.324473	0.593031	0.420006
Zn17	Zn	0.824497	0.093035	0.080432
Zn18	Zn	1.324497	0.593035	0.580432
O19	O	0.818608	0.194687	-0.060649
O20	O	1.318608	0.694687	0.439351
C21	C	0.696818	0.098520	0.000188
C22	C	1.196818	0.598520	0.500188
C23	C	0.619313	0.097380	0.000169
C24	C	1.119313	0.597380	0.500169
C25	C	0.829972	-0.034634	0.000204
C26	C	1.329972	0.465366	0.500204
C27	C	0.828831	-0.112138	0.000197
C28	C	1.328831	0.387862	0.500197
C29	C	0.574389	0.160470	0.000188
C30	C	1.074389	0.660470	0.500188
C31	C	0.501566	0.159399	0.000196
C32	C	1.001566	0.659399	0.500196
C33	C	0.473669	0.095233	0.000199
C34	C	0.973669	0.595233	0.500199
C35	C	0.518603	0.032133	0.000175
C36	C	1.018603	0.532133	0.500175
C37	C	0.591425	0.033207	0.000160
C38	C	1.091425	0.533207	0.500160
N39	N	0.365695	0.046187	0.041663
N40	N	0.865695	0.546187	0.541663
N41	N	0.296517	0.045171	0.041679
N42	N	0.796517	0.545171	0.541679
C43	C	0.254260	0.091994	0.000243
C44	C	0.754260	0.591994	0.500243
N45	N	0.283795	0.139882	-0.041200
N46	N	0.783795	0.639882	0.458800
N47	N	0.352980	0.140900	-0.041213
N48	N	0.852980	0.640900	0.458787
C49	C	0.394707	0.094062	0.000215
C50	C	0.894707	0.594062	0.500215
C51	C	0.130372	0.153928	0.000270
C52	C	0.630372	0.653928	0.500270
C53	C	0.057547	0.152853	0.000274
C54	C	0.557547	0.652853	0.500274
C55	C	0.074586	0.025586	0.000261
C56	C	0.574586	0.525586	0.500261
C57	C	0.147409	0.026662	0.000250
C58	C	0.647409	0.526662	0.500250
C59	C	0.175298	0.090835	0.000258
C60	C	0.675298	0.590835	0.500258
C61	C	0.891922	-0.157062	0.000209
C62	C	1.391922	0.342938	0.500209
C63	C	0.890850	-0.229886	0.000220
C64	C	1.390850	0.270114	0.500220
C65	C	0.826684	-0.257782	0.000206
C66	C	1.326684	0.242218	0.500206
C67	C	0.763585	-0.212849	0.000198
C68	C	1.263585	0.287151	0.500198
C69	C	0.764658	-0.140026	0.000194
C70	C	1.264658	0.359974	0.500194
N71	N	0.777631	-0.365788	-0.041244
N72	N	1.277631	0.134212	0.458756
N73	N	0.776615	-0.434967	-0.041242
N74	N	1.276615	0.065033	0.458758
C75	C	0.823446	-0.477191	0.000220
C76	C	1.323446	0.022809	0.500220
N77	N	0.871341	-0.447625	0.041669
N78	N	1.371341	0.052375	0.541669
N79	N	0.872359	-0.378440	0.041664
N80	N	1.372359	0.121560	0.541664
C81	C	0.825513	-0.336745	0.000210
C82	C	1.325513	0.163255	0.500210
C83	C	0.885379	-0.601079	0.000245
C84	C	1.385379	-0.101079	0.500245
C85	C	0.884305	-0.673904	0.000261
C86	C	1.384305	-0.173904	0.500261
C87	C	0.757038	-0.656865	0.000231
C88	C	1.257038	-0.156865	0.500231
C89	C	0.758114	-0.584042	0.000222
C90	C	1.258114	-0.084042	0.500222
C91	C	0.822287	-0.556154	0.000226
C92	C	1.322287	-0.056154	0.500226
C93	C	0.952151	0.087546	0.000252
C94	C	1.452151	0.587546	0.500252
C95	C	1.029656	0.088687	0.000276
C96	C	1.529656	0.588687	0.500276
C97	C	0.818997	0.220700	0.000236
C98	C	1.318997	0.720700	0.500236
C99	C	0.820138	0.298204	0.000247
C100	C	1.320138	0.798204	0.500247
N101	N	0.824461	0.093028	-0.189481
N102	N	1.324461	0.593028	0.310519
C103	C	0.866670	0.135273	-0.227768
C104	C	1.366670	0.635273	0.272232
C105	C	0.866682	0.135271	-0.304413
C106	C	1.366682	0.635271	0.195587
C107	C	0.824471	0.093032	-0.342768
C108	C	1.324471	0.593032	0.157232
C109	C	0.782260	0.050778	-0.304473
C110	C	1.282260	0.550778	0.195527
C111	C	0.782254	0.050776	-0.227829
C112	C	1.282254	0.550776	0.272171
N113	N	0.763324	0.091312	-0.463136
N114	N	1.263324	0.591312	0.036864
N115	N	0.763330	0.091318	-0.535944
N116	N	1.263330	0.591318	-0.035944
C117	C	0.824485	0.093035	-0.573691
C118	C	1.324485	0.593035	-0.073691
N119	N	0.885634	0.094759	-0.535878
N120	N	1.385634	0.594759	-0.035878
N121	N	0.885626	0.094757	-0.463064
N122	N	1.385626	0.594757	0.036936
C123	C	0.824472	0.093029	-0.425875
C124	C	1.324472	0.593029	0.074125
C125	C	0.866711	0.135280	-0.695084
C126	C	1.366711	0.635280	-0.195084
C127	C	0.866724	0.135273	-0.771730
C128	C	1.366724	0.635273	-0.271730
C129	C	0.782295	0.050784	-0.771789
C130	C	1.282295	0.550784	-0.271789
C131	C	0.782288	0.050787	-0.695144
C132	C	1.282288	0.550787	-0.195144
C133	C	0.824495	0.093039	-0.656796
C134	C	1.324495	0.593039	-0.156796
N135	N	0.824513	0.093033	0.189919
N136	N	1.324513	0.593033	0.689919
H137	H	0.597091	0.212725	0.000196
H138	H	1.097091	0.712725	0.500196
H139	H	0.020970	0.204232	0.000285
H140	H	0.520970	0.704232	0.500285
Br141	Br	0.725019	-0.006553	-0.823835
Br142	Br	1.225019	0.493447	-0.323835
Br143	Br	0.972468	-0.563226	0.000242
Br144	Br	1.472468	-0.063226	0.500242
H145	H	0.935683	-0.710481	0.000274
H146	H	1.435683	-0.210481	0.500274
H147	H	0.704792	-0.679578	0.000222
H148	H	1.204792	-0.179578	0.500222
H149	H	0.464982	0.210776	0.000210
H150	H	0.964982	0.710776	0.500210
H151	H	0.051874	-0.026659	0.000309
H152	H	0.551874	0.473341	0.500309
H153	H	0.183988	-0.024713	0.000238
H154	H	0.683988	0.475287	0.500238
H155	H	0.747914	0.016389	-0.663971
H156	H	1.247914	0.516389	-0.163971
H157	H	0.901041	0.169676	-0.196549
H158	H	1.401041	0.669676	0.303451
H159	H	0.944176	-0.134360	0.000214
H160	H	1.444176	0.365640	0.500214
Br161	Br	0.924018	0.192606	-0.823692
Br162	Br	1.424018	0.692606	-0.323692
H163	H	0.628003	-0.018171	0.000145
H164	H	1.128003	0.481829	0.500145
H165	H	0.901078	0.169684	-0.663859
H166	H	1.401078	0.669684	-0.163859
Br167	Br	0.672486	-0.523070	0.000205
Br168	Br	1.172486	-0.023070	0.500205
H169	H	0.901054	0.169675	-0.335591
H170	H	1.401054	0.669675	0.164409
Br171	Br	0.976479	-0.290866	0.000240
Br172	Br	1.476479	0.209134	0.500240
H173	H	0.495885	-0.020111	0.000188
H174	H	0.995885	0.479889	0.500188
Br175	Br	0.676502	-0.250706	0.000187
Br176	Br	1.176502	0.249294	0.500187
H177	H	0.747892	0.016386	-0.335707
H178	H	1.247892	0.516386	0.164293
Br179	Br	0.724963	-0.006559	-0.175866
Br180	Br	1.224963	0.493441	0.324134
H181	H	0.153080	0.206181	0.000267
H182	H	0.653080	0.706181	0.500267
H183	H	0.713281	-0.103448	0.000184
H184	H	1.213281	0.396552	0.500184
