data_functionalizedCrystal
_audit_creation_method	'MofGen! by Chris Wilmer'
_symmetry_space_group_name_H-M	'P1'
_symmetry_Int_Tables_number	1
_symmetry_cell_setting	triclinic
loop_
_symmetry_equiv_pos_as_xyz
  x,y,z
_cell_length_a	17.699097
_cell_length_b	17.699092
_cell_length_c	14.586319
_cell_angle_alpha	89.997896
_cell_angle_beta	89.992901
_cell_angle_gamma	83.287399
loop_
_atom_site_label
_atom_site_type_symbol
_atom_site_fract_x
_atom_site_fract_y
_atom_site_fract_z
O1	O	1.004071	0.095758	-0.076313
O2	O	0.783695	0.108200	-0.076298
O3	O	0.900106	-0.008210	-0.076304
O4	O	0.887660	0.212167	-0.076307
O5	O	0.900098	-0.008212	0.076177
O6	O	0.783687	0.108198	0.076183
O7	O	1.004063	0.095756	0.076168
Cu8	Cu	0.893874	0.101977	0.090098
Cu9	Cu	0.893884	0.101979	-0.090228
O10	O	0.887652	0.212165	0.076174
C11	C	0.755494	0.107751	-0.000055
C12	C	0.671476	0.106409	-0.000050
C13	C	0.155762	0.098180	-0.083204
C14	C	0.234706	0.099437	-0.083199
C15	C	0.274168	0.100065	-0.000078
C16	C	0.234682	0.099429	0.083044
C17	C	0.155740	0.098168	0.083038
C18	C	0.553046	0.104517	0.083068
C19	C	0.631994	0.105781	0.083067
C20	C	0.632012	0.105786	-0.083170
C21	C	0.553070	0.104524	-0.083175
C22	C	0.513592	0.103884	-0.000054
C23	C	0.427992	0.102521	-0.000060
C24	C	0.359766	0.101434	-0.000071
C25	C	0.899655	-0.036408	-0.000065
C26	C	0.898314	-0.120425	-0.000069
C27	C	0.897690	-0.159892	-0.083187
C28	C	0.896425	-0.238835	-0.083188
C29	C	0.895789	-0.278311	-0.000070
C30	C	0.896411	-0.238838	0.083055
C31	C	0.897671	-0.159896	0.083055
C32	C	0.891331	-0.557204	0.083057
C33	C	0.890073	-0.636152	0.083050
C34	C	0.890085	-0.636143	-0.083186
C35	C	0.891345	-0.557200	-0.083186
C36	C	0.891962	-0.517734	-0.000062
C37	C	0.893332	-0.432135	-0.000062
C38	C	0.894425	-0.363909	-0.000069
C39	C	1.032264	0.096204	-0.000077
C40	C	1.116282	0.097547	-0.000088
C41	C	0.888103	0.240363	-0.000067
C42	C	0.889444	0.324381	-0.000069
N43	N	0.893873	0.101975	0.216930
N44	N	0.893891	0.101975	-0.217060
C45	C	0.945437	0.050446	0.451934
C46	C	0.945439	0.050444	0.547915
C47	C	0.842322	0.153506	0.547930
C48	C	0.842316	0.153504	0.451950
C49	C	0.893878	0.101975	0.403955
C50	C	0.893886	0.101975	0.595915
C51	C	0.893888	0.101973	0.699983
C52	C	0.893876	0.101975	0.299881
H53	H	0.123637	0.097674	-0.150891
H54	H	0.520914	0.103985	0.150750
H55	H	0.266848	0.099948	-0.150880
H56	H	0.891866	-0.525063	-0.150870
Br57	Br	0.685549	0.106635	0.195882
Br58	Br	0.898513	-0.106333	0.195863
H59	H	0.889554	-0.668290	0.150739
Br60	Br	1.015412	-0.019488	0.386800
H61	H	0.889578	-0.668285	-0.150870
Br62	Br	0.772349	0.223437	0.613069
Br63	Br	0.892153	-0.503650	0.195868
Br64	Br	0.895577	-0.292394	-0.195997
Br65	Br	0.772333	0.223434	0.386828
Br66	Br	0.895536	-0.292410	0.195860
H67	H	0.520944	0.104016	-0.150861
Br68	Br	0.288237	0.100278	0.195853
H69	H	0.123595	0.097660	0.150719
Br70	Br	0.685594	0.106650	-0.195980
H71	H	0.898212	-0.127757	-0.150872
H72	H	0.987422	0.008484	0.586977
