data_functionalizedCrystal
_audit_creation_method	'MofGen! by Chris Wilmer'
_symmetry_space_group_name_H-M	'P1'
_symmetry_Int_Tables_number	1
_symmetry_cell_setting	triclinic
loop_
_symmetry_equiv_pos_as_xyz
  x,y,z
_cell_length_a	6.817900
_cell_length_b	11.102288
_cell_length_c	11.102300
_cell_angle_alpha	91.947187
_cell_angle_beta	108.605850
_cell_angle_gamma	108.605689
loop_
_atom_site_label
_atom_site_type_symbol
_atom_site_fract_x
_atom_site_fract_y
_atom_site_fract_z
V1	V	-4.111530	-0.175839	-0.396257
O2	O	-4.070563	0.008450	-0.388713
O3	O	-4.088307	-0.348659	-0.393547
O4	O	-4.088311	-0.173134	-0.569078
O5	O	-4.070559	-0.168290	-0.211967
V6	V	-4.588633	-0.153796	-0.374214
O7	O	-4.386872	-0.224192	-0.444609
O8	O	-4.763488	-0.105442	-0.325862
O9	O	-4.388649	0.019025	-0.376924
O10	O	-4.746997	-0.338085	-0.381757
O11	O	-4.747001	-0.161344	-0.558503
O12	O	-4.388645	-0.156501	-0.201393
C13	C	-3.938618	-0.390789	-0.387295
C14	C	-4.001085	-0.532072	-0.386232
C15	C	-4.214440	-0.604920	-0.392073
C16	C	-4.273128	-0.737671	-0.391083
C17	C	-3.905082	-0.724713	-0.378406
C18	C	-3.846402	-0.591966	-0.379405
C19	C	-3.938622	-0.166888	-0.611201
C20	C	-4.001088	-0.165819	-0.752483
C21	C	-4.214446	-0.171665	-0.825332
C22	C	-4.273125	-0.170657	-0.958081
C23	C	-3.905070	-0.157963	-0.945120
C24	C	-3.846389	-0.158962	-0.812373
C25	C	-4.201681	0.061148	-0.383172
C26	C	-4.118453	0.202429	-0.384244
C27	C	-4.201677	-0.162751	-0.159263
C28	C	-4.118448	-0.163813	-0.017979
H29	H	-4.446859	-0.796980	-0.395841
O30	O	-4.480405	-0.176507	-1.029008
C31	C	-4.582539	-0.286903	-1.123408
H32	H	-4.450608	-0.318104	-1.143420
H33	H	-4.688836	-0.264015	-1.215619
H34	H	-4.690759	-0.367856	-1.087521
O35	O	-4.364597	-0.546624	-0.398882
C36	C	-4.398883	-0.487494	-0.510435
H37	H	-4.249377	-0.467723	-0.541945
H38	H	-4.422655	-0.393013	-0.488950
H39	H	-4.552338	-0.553927	-0.590613
H40	H	-4.340414	-0.177247	-0.776574
O41	O	-3.639206	-0.153525	-0.741715
C42	C	-3.598793	-0.259993	-0.787504
H43	H	-3.762574	-0.340709	-0.839825
H44	H	-3.495901	-0.294902	-0.703071
H45	H	-3.505227	-0.230461	-0.856640
H46	H	-3.779130	-0.152383	-0.993899
H47	H	-3.779151	-0.773495	-0.372845
H48	H	-3.672659	-0.532651	-0.374653
