data_functionalizedCrystal
_audit_creation_method	'MofGen! by Chris Wilmer'
_symmetry_space_group_name_H-M	'P1'
_symmetry_Int_Tables_number	1
_symmetry_cell_setting	triclinic
loop_
_symmetry_equiv_pos_as_xyz
  x,y,z
_cell_length_a	11.169417
_cell_length_b	13.897448
_cell_length_c	13.897441
_cell_angle_alpha	90.029627
_cell_angle_beta	90.016405
_cell_angle_gamma	90.018571
loop_
_atom_site_label
_atom_site_type_symbol
_atom_site_fract_x
_atom_site_fract_y
_atom_site_fract_z
Zn1	Zn	1.834860	-0.383971	0.545325
Zn2	Zn	2.084860	-0.133971	0.795325
Zn3	Zn	2.334860	0.116029	1.045325
Zn4	Zn	2.584860	0.366029	1.295325
Zn5	Zn	1.834736	-0.545290	0.384026
Zn6	Zn	2.084736	-0.295290	0.634026
Zn7	Zn	2.334736	-0.045290	0.884026
Zn8	Zn	2.584736	0.204710	1.134026
Zn9	Zn	1.634158	-0.384013	0.384049
Zn10	Zn	1.884158	-0.134013	0.634049
Zn11	Zn	2.134158	0.115987	0.884049
Zn12	Zn	2.384158	0.365987	1.134049
Zn13	Zn	1.634128	-0.545228	0.545285
Zn14	Zn	1.884128	-0.295228	0.795285
Zn15	Zn	2.134128	-0.045228	1.045285
Zn16	Zn	2.384128	0.204772	1.295285
O17	O	1.734471	-0.464625	0.464671
O18	O	1.984471	-0.214625	0.714671
O19	O	2.234471	0.035375	0.964671
O20	O	2.484471	0.285375	1.214671
O21	O	2.002794	-0.405378	0.523935
O22	O	2.252794	-0.155378	0.773935
O23	O	2.502794	0.094622	1.023935
O24	O	2.752794	0.344622	1.273935
O25	O	1.808090	-0.523939	0.249048
O26	O	2.058090	-0.273939	0.499048
O27	O	2.308090	-0.023939	0.749048
O28	O	2.558090	0.226061	0.999048
O29	O	1.660847	-0.249026	0.405469
O30	O	1.910847	0.000974	0.655469
O31	O	2.160847	0.250974	0.905469
O32	O	2.410847	0.500974	1.155469
O33	O	2.002702	-0.523899	0.405430
O34	O	2.252702	-0.273899	0.655430
O35	O	2.502702	-0.023899	0.905430
O36	O	2.752702	0.226101	1.155430
O37	O	1.808302	-0.248995	0.523958
O38	O	2.058302	0.001005	0.773958
O39	O	2.308302	0.251005	1.023958
O40	O	2.558302	0.501005	1.273958
O41	O	1.660726	-0.405450	0.249065
O42	O	1.910726	-0.155450	0.499065
O43	O	2.160726	0.094550	0.749065
O44	O	2.410726	0.344550	0.999065
O45	O	1.466205	-0.405390	0.405431
O46	O	1.716205	-0.155390	0.655431
O47	O	1.966205	0.094610	0.905431
O48	O	2.216205	0.344610	1.155431
O49	O	1.660795	-0.523793	0.680272
O50	O	1.910795	-0.273793	0.930272
O51	O	2.160795	-0.023793	1.180272
O52	O	2.410795	0.226207	1.430272
O53	O	1.466182	-0.523834	0.523890
O54	O	1.716182	-0.273834	0.773890
O55	O	1.966182	-0.023834	1.023890
O56	O	2.216182	0.226166	1.273890
O57	O	1.808272	-0.405318	0.680301
O58	O	2.058272	-0.155318	0.930301
O59	O	2.308272	0.094682	1.180301
O60	O	2.558272	0.344682	1.430301
O61	O	1.808060	-0.680263	0.405391
O62	O	2.058060	-0.430263	0.655391
O63	O	2.308060	-0.180263	0.905391
O64	O	2.558060	0.069737	1.155391
O65	O	1.660674	-0.680218	0.523867
O66	O	1.910674	-0.430218	0.773867
O67	O	2.160674	-0.180218	1.023867
O68	O	2.410674	0.069782	1.273867
C69	C	1.422646	-0.464611	0.464659
C70	C	1.672646	-0.214611	0.714659
C71	C	1.922646	0.035389	0.964659
C72	C	2.172646	0.285389	1.214659
C73	C	1.289246	-0.464628	0.464676
C74	C	1.539246	-0.214628	0.714676
C75	C	1.789246	0.035372	0.964676
C76	C	2.039246	0.285372	1.214676
C77	C	1.734383	-0.715240	0.464643
C78	C	1.984383	-0.465240	0.714643
C79	C	2.234383	-0.215240	0.964643
C80	C	2.484383	0.034760	1.214643
C81	C	1.734456	-0.822454	0.464664
C82	C	1.984456	-0.572454	0.714664
C83	C	2.234456	-0.322454	0.964664
C84	C	2.484456	-0.072454	1.214664
C85	C	1.734582	-1.018749	0.464724
C86	C	1.984582	-0.768749	0.714724
C87	C	2.234582	-0.518749	0.964724
C88	C	2.484582	-0.268749	1.214724
C89	C	1.734508	-0.909516	0.464693
C90	C	1.984508	-0.659516	0.714693
C91	C	2.234508	-0.409516	0.964693
C92	C	2.484508	-0.159516	1.214693
C93	C	2.047513	-0.464641	0.464684
C94	C	2.297513	-0.214641	0.714684
C95	C	2.547513	0.035359	0.964684
C96	C	2.797513	0.285359	1.214684
C97	C	2.180913	-0.464647	0.464690
C98	C	2.430913	-0.214647	0.714690
C99	C	2.680913	0.035353	0.964690
C100	C	2.930913	0.285353	1.214690
C101	C	1.734544	-0.464544	0.716264
C102	C	1.984544	-0.214544	0.966264
C103	C	2.234544	0.035456	1.216264
C104	C	2.484544	0.285456	1.466264
C105	C	1.734576	-0.464510	0.823478
C106	C	1.984576	-0.214510	1.073478
C107	C	2.234576	0.035490	1.323478
C108	C	2.484576	0.285490	1.573478
C109	C	1.734591	-0.213032	0.464720
C110	C	1.984591	0.036968	0.714720
C111	C	2.234591	0.286968	0.964720
C112	C	2.484591	0.536968	1.214720
C113	C	1.734643	-0.105818	0.464741
C114	C	1.984643	0.144182	0.714741
C115	C	2.234643	0.394182	0.964741
C116	C	2.484643	0.644182	1.214741
C117	C	1.734467	-0.464636	0.214057
C118	C	1.984467	-0.214636	0.464057
C119	C	2.234467	0.035364	0.714057
C120	C	2.484467	0.285364	0.964057
C121	C	1.734668	-0.464399	0.106844
C122	C	1.984668	-0.214399	0.356844
C123	C	2.234668	0.035601	0.606844
C124	C	2.484668	0.285601	0.856844
C125	C	1.734600	-0.464483	0.910548
C126	C	1.984600	-0.214483	1.160548
C127	C	2.234600	0.035517	1.410548
C128	C	2.484600	0.285517	1.660548
C129	C	1.734635	-0.464439	1.019781
C130	C	1.984635	-0.214439	1.269781
C131	C	2.234635	0.035561	1.519781
C132	C	2.484635	0.285561	1.769781
