data_functionalizedCrystal
_audit_creation_method	'MofGen! by Chris Wilmer'
_symmetry_space_group_name_H-M	'P1'
_symmetry_Int_Tables_number	1
_symmetry_cell_setting	triclinic
loop_
_symmetry_equiv_pos_as_xyz
  x,y,z
_cell_length_a	15.944551
_cell_length_b	9.730223
_cell_length_c	10.654550
_cell_angle_alpha	90.004131
_cell_angle_beta	83.991821
_cell_angle_gamma	89.996201
loop_
_atom_site_label
_atom_site_type_symbol
_atom_site_fract_x
_atom_site_fract_y
_atom_site_fract_z
O1	O	1.115457	0.114143	0.161968
O2	O	0.871023	0.114177	0.181937
O3	O	0.998860	0.114154	-0.010860
O4	O	0.987620	0.114166	0.354764
O5	O	0.998858	-0.114426	-0.010869
O6	O	0.871021	-0.114403	0.181927
O7	O	1.115455	-0.114437	0.161959
Zn8	Zn	0.993238	-0.150712	0.171941
Zn9	Zn	0.993240	0.150452	0.171954
O10	O	0.987618	-0.114414	0.354755
C11	C	0.839723	-0.000109	0.181103
C12	C	0.746463	-0.000096	0.178618
N13	N	0.993243	-0.356249	0.171932
C14	C	0.998034	-0.000134	-0.057652
C15	C	0.995565	-0.000129	-0.197063
C16	C	0.530880	-0.000127	0.053173
C17	C	0.470198	0.112577	0.111430
C18	C	0.575711	-0.000112	0.174122
C19	C	0.470219	-0.112785	0.111449
C20	C	0.410773	-0.000134	0.169770
C21	C	0.516257	0.112684	0.232412
C22	C	0.516284	-0.112779	0.232414
C23	C	0.455620	-0.000047	0.290759
C24	C	0.670728	-0.000099	0.176625
C25	C	0.315757	-0.000138	0.167276
C26	C	1.146755	-0.000148	0.162792
C27	C	1.240015	-0.000152	0.165278
N28	N	0.993242	0.355988	0.171953
C29	C	1.049955	0.427904	0.086748
C30	C	1.049957	0.571787	0.086740
C31	C	0.936527	0.571825	0.257146
C32	C	0.936529	0.427945	0.257159
C33	C	1.106667	0.355947	0.001542
C34	C	1.163384	0.427863	-0.083671
C35	C	1.163387	0.571746	-0.083679
C36	C	1.106673	0.643713	0.001526
C37	C	1.070833	-0.000144	-0.277523
C38	C	1.068508	-0.000134	-0.408513
C39	C	0.915639	-0.000100	-0.378572
C40	C	0.917965	-0.000101	-0.247584
C41	C	1.148432	-0.000172	-0.227002
C42	C	1.223707	-0.000188	-0.307463
C43	C	1.221382	-0.000178	-0.438453
C44	C	1.143782	-0.000152	-0.488983
C45	C	0.988444	-0.000123	0.401547
C46	C	0.990913	-0.000119	0.540958
H47	H	0.563632	0.000009	-0.047204
C48	C	0.442623	0.241284	0.042332
H49	H	0.468634	0.241147	-0.042068
H50	H	0.459147	0.321320	0.084486
H51	H	0.383071	0.240769	0.041923
C52	C	0.835172	-0.000087	-0.159074
H53	H	0.788624	-0.000089	-0.207920
H54	H	0.832907	0.079625	-0.107349
H55	H	0.832902	-0.079807	-0.107358
H56	H	1.286886	-0.000175	-0.266312
H57	H	0.449836	-0.208064	0.060267
H58	H	1.282674	-0.000177	-0.503962
C59	C	1.141225	-0.000134	-0.633070
H60	H	1.197167	-0.000150	-0.673756
H61	H	1.112471	0.079582	-0.657165
H62	H	1.112472	-0.079850	-0.657182
H63	H	1.106685	0.760873	0.001520
C64	C	0.543649	0.241551	0.301466
H65	H	0.495415	0.295298	0.328746
H66	H	0.581362	0.294233	0.245726
H67	H	0.571058	0.214616	0.372544
C68	C	0.411603	0.000040	0.426491
H69	H	0.427361	0.080172	0.469251
H70	H	0.428079	-0.079258	0.469770
H71	H	0.352204	-0.000711	0.424186
H72	H	1.150334	-0.000185	-0.120344
H73	H	0.890352	0.630430	0.326516
C74	C	0.543890	-0.241495	0.301454
H75	H	0.528299	-0.321501	0.258355
H76	H	0.517080	-0.242303	0.385381
H77	H	0.603333	-0.240107	0.303191
H78	H	1.106669	0.238791	0.001538
H79	H	1.209573	0.630299	-0.153054
C80	C	1.225765	0.348707	-0.177387
H81	H	1.217637	0.252716	-0.165189
H82	H	1.281873	0.372279	-0.163541
H83	H	1.216257	0.372278	-0.261258
H84	H	0.852461	-0.000081	-0.419724
H85	H	0.890349	0.369391	0.326543
