data_functionalizedCrystal
_audit_creation_method	'MofGen! by Chris Wilmer'
_symmetry_space_group_name_H-M	'P1'
_symmetry_Int_Tables_number	1
_symmetry_cell_setting	triclinic
loop_
_symmetry_equiv_pos_as_xyz
  x,y,z
_cell_length_a	8.634740
_cell_length_b	7.681481
_cell_length_c	14.971494
_cell_angle_alpha	95.747531
_cell_angle_beta	92.093932
_cell_angle_gamma	83.381330
loop_
_atom_site_label
_atom_site_type_symbol
_atom_site_fract_x
_atom_site_fract_y
_atom_site_fract_z
O1	O	2.032048	0.146422	0.298885
O2	O	1.583050	0.146425	0.274427
O3	O	1.819577	0.146419	0.157485
O4	O	1.795521	0.146427	0.415827
O5	O	1.848689	-0.146439	0.143053
O6	O	1.612162	-0.146434	0.259995
O7	O	2.061161	-0.146437	0.284453
Zn8	Zn	1.841284	-0.192933	0.269933
Zn9	Zn	1.802927	0.192921	0.288947
O10	O	1.824633	-0.146431	0.401395
C11	C	1.540145	-0.000004	0.261670
C12	C	1.368930	-0.000003	0.245151
N13	N	1.867472	-0.456268	0.256956
C14	C	2.104065	-0.000004	0.297210
C15	C	2.275278	0.000006	0.313730
C16	C	1.833055	-0.000007	0.116853
C17	C	1.829823	0.000001	0.017280
N18	N	1.776750	0.456256	0.301918
C19	C	1.812439	0.159640	-0.021627
C20	C	1.809394	0.159642	-0.115187
C21	C	1.823743	0.000003	-0.169837
C22	C	1.841123	-0.159648	-0.130924
C23	C	1.844158	-0.159648	-0.037366
C24	C	1.834801	-0.159636	-0.325928
C25	C	1.831769	-0.159637	-0.419492
C26	C	1.800037	0.159654	-0.403748
C27	C	1.803071	0.159654	-0.310190
C28	C	1.820455	0.000002	-0.271284
C29	C	1.811155	-0.000001	0.442028
C30	C	1.814385	0.000003	0.541601
H31	H	1.326085	-0.000007	0.385081
Cl32	Cl	2.010482	-0.572373	0.186109
Cl33	Cl	1.778171	0.360360	-0.452659
H34	H	1.684141	-0.468545	0.347809
H35	H	1.800763	0.289637	0.022863
Cl36	Cl	1.787542	0.360341	-0.164095
H37	H	1.791398	0.289646	-0.265696
H38	H	1.843441	-0.289629	-0.463987
Cl39	Cl	1.856661	-0.360345	-0.277018
H40	H	1.318113	0.000045	0.173796
H41	H	1.852797	-0.289629	-0.175428
Cl42	Cl	1.866010	-0.360346	0.011546
