data_functionalizedCrystal
_audit_creation_method	'MofGen! by Chris Wilmer'
_symmetry_space_group_name_H-M	'P1'
_symmetry_Int_Tables_number	1
_symmetry_cell_setting	triclinic
loop_
_symmetry_equiv_pos_as_xyz
  x,y,z
_cell_length_a	22.610064
_cell_length_b	17.038275
_cell_length_c	17.038272
_cell_angle_alpha	88.888330
_cell_angle_beta	89.996529
_cell_angle_gamma	90.009308
loop_
_atom_site_label
_atom_site_type_symbol
_atom_site_fract_x
_atom_site_fract_y
_atom_site_fract_z
O1	O	-0.049100	-1.048767	0.170537
O2	O	0.284234	-0.715434	0.503871
O3	O	0.617567	-0.382101	0.837204
O4	O	-0.049119	-0.820956	0.167829
O5	O	0.284214	-0.487622	0.501162
O6	O	0.617547	-0.154289	0.834496
O7	O	-0.049105	-0.933508	0.055277
O8	O	0.284228	-0.600174	0.388611
O9	O	0.617562	-0.266841	0.721944
O10	O	-0.049114	-0.936215	0.283089
O11	O	0.284219	-0.602882	0.616422
O12	O	0.617553	-0.269549	0.949756
O13	O	0.049264	-0.933471	0.055276
O14	O	0.382598	-0.600138	0.388609
O15	O	0.715931	-0.266804	0.721943
O16	O	0.049250	-0.820919	0.167828
O17	O	0.382583	-0.487586	0.501161
O18	O	0.715916	-0.154253	0.834494
O19	O	0.049270	-1.048731	0.170536
O20	O	0.382603	-0.715398	0.503869
O21	O	0.715936	-0.382064	0.837203
Zn22	Zn	0.064878	-0.934819	0.169181
Zn23	Zn	0.398211	-0.601486	0.502515
Zn24	Zn	0.731545	-0.268153	0.835848
Zn25	Zn	-0.064728	-0.934867	0.169183
Zn26	Zn	0.268606	-0.601534	0.502517
Zn27	Zn	0.601939	-0.268201	0.835850
O28	O	0.049255	-0.936179	0.283088
O29	O	0.382588	-0.602846	0.616421
O30	O	0.715922	-0.269512	0.949754
C31	C	0.000063	-0.791645	0.165365
C32	C	0.333396	-0.458312	0.498699
C33	C	0.666729	-0.124978	0.832032
C34	C	0.000055	-0.704361	0.158017
C35	C	0.333389	-0.371028	0.491350
C36	C	0.666722	-0.037695	0.824684
N37	N	0.153330	-0.934792	0.169180
N38	N	0.486664	-0.601459	0.502513
N39	N	0.819997	-0.268126	0.835847
C40	C	0.000052	-0.658752	0.225481
C41	C	0.333386	-0.325419	0.558814
C42	C	0.666719	0.007915	0.892147
C43	C	0.000060	-0.576740	0.218572
C44	C	0.333393	-0.243407	0.551905
C45	C	0.666727	0.089926	0.885238
C46	C	0.000066	-0.540339	0.144198
C47	C	0.333399	-0.207006	0.477532
C48	C	0.666733	0.126328	0.810865
C49	C	0.000071	-0.585954	0.076730
C50	C	0.333404	-0.252621	0.410063
C51	C	0.666737	0.080712	0.743396
C52	C	0.000067	-0.667965	0.083639
C53	C	0.333401	-0.334631	0.416973
C54	C	0.666734	-0.001298	0.750306
C55	C	0.000080	-0.292951	0.119787
C56	C	0.333413	0.040382	0.453120
C57	C	0.666747	0.373716	0.786454
C58	C	0.000082	-0.210935	0.112882
C59	C	0.333415	0.122399	0.446216
C60	C	0.666748	0.455732	0.779549
C61	C	0.000072	-0.201726	0.254725
C62	C	0.333405	0.131607	0.588058
C63	C	0.666739	0.464941	0.921392
C64	C	0.000065	-0.283738	0.261628
C65	C	0.333399	0.049595	0.594962
C66	C	0.666732	0.382928	0.928295
C67	C	0.000073	-0.329347	0.194160
C68	C	0.333406	0.003987	0.527493
C69	C	0.666740	0.337320	0.860826
C70	C	0.000072	-0.456510	0.137134
C71	C	0.333405	-0.123177	0.470468
C72	C	0.666739	0.210157	0.803801
C73	C	0.000071	-0.413174	0.201224
C74	C	0.333405	-0.079841	0.534558
C75	C	0.666738	0.253492	0.867891
C76	C	0.561974	-0.985658	0.220008
C77	C	0.895308	-0.652325	0.553342
C78	C	1.228641	-0.318992	0.886675
C79	C	0.623894	-0.985667	0.220008
C80	C	0.957228	-0.652334	0.553341
C81	C	1.290561	-0.319001	0.886674
O82	O	0.655915	-1.028887	0.263213
O83	O	0.989248	-0.695554	0.596546
O84	O	1.322582	-0.362221	0.929880
N85	N	0.654868	-0.934874	0.169183
N86	N	0.988201	-0.601541	0.502517
N87	N	1.321534	-0.268207	0.835850
C88	C	0.623918	-0.884074	0.118350
C89	C	0.957251	-0.550740	0.451684
C90	C	1.290584	-0.217407	0.785017
O91	O	0.655949	-0.840871	0.075120
O92	O	0.989282	-0.507538	0.408453
O93	O	1.322615	-0.174205	0.741786
C94	C	0.561999	-0.884069	0.118348
C95	C	0.895332	-0.550736	0.451681
C96	C	1.228666	-0.217403	0.785014
C97	C	0.531029	-0.934860	0.169181
C98	C	0.864362	-0.601527	0.502514
C99	C	1.197696	-0.268194	0.835848
C100	C	0.531004	-1.036446	0.270837
C101	C	0.864337	-0.703113	0.604170
C102	C	1.197671	-0.369779	0.937504
C103	C	0.469088	-1.036436	0.270838
C104	C	0.802422	-0.703102	0.604172
C105	C	1.135755	-0.369769	0.937505
C106	C	0.438143	-0.985638	0.220011
C107	C	0.771476	-0.652304	0.553344
C108	C	1.104810	-0.318971	0.886678
C109	C	0.469113	-0.934850	0.169182
C110	C	0.802447	-0.601517	0.502516
C111	C	1.135780	-0.268183	0.835849
C112	C	0.531050	-0.833273	0.067511
C113	C	0.864384	-0.499940	0.400845
C114	C	1.197717	-0.166607	0.734178
C115	C	0.469127	-0.833274	0.067513
C116	C	0.802461	-0.499940	0.400846
C117	C	1.135794	-0.166607	0.734179
C118	C	0.438157	-0.884065	0.118346
C119	C	0.771491	-0.550732	0.451679
C120	C	1.104824	-0.217398	0.785013
C121	C	0.376252	-0.884042	0.118357
C122	C	0.709586	-0.550708	0.451690
C123	C	1.042919	-0.217375	0.785023
N124	N	0.345279	-0.934835	0.169181
N125	N	0.678612	-0.601502	0.502515
N126	N	1.011945	-0.268169	0.835848
C127	C	0.376224	-0.985633	0.220008
C128	C	0.709558	-0.652300	0.553342
C129	C	1.042891	-0.318967	0.886675
C130	C	0.753951	-0.884088	0.118359
C131	C	1.087285	-0.550755	0.451692
C132	C	1.420618	-0.217421	0.785026
C133	C	0.815869	-0.884088	0.118365
C134	C	1.149202	-0.550755	0.451698
C135	C	1.482536	-0.217421	0.785032
C136	C	0.815841	-0.985683	0.220022
C137	C	1.149175	-0.652350	0.553355
C138	C	1.482508	-0.319016	0.886688
C139	C	0.753922	-0.985678	0.220019
C140	C	1.087256	-0.652345	0.553352
C141	C	1.420589	-0.319012	0.886686
C142	C	0.722978	-0.934882	0.169184
C143	C	1.056311	-0.601548	0.502517
C144	C	1.389645	-0.268215	0.835850
C145	C	0.246197	-0.985607	0.220008
C146	C	0.579530	-0.652274	0.553341
C147	C	0.912864	-0.318941	0.886675
C148	C	0.184276	-0.985590	0.220007
C149	C	0.517609	-0.652257	0.553341
C150	C	0.850942	-0.318924	0.886674
C151	C	0.184309	-0.883999	0.118348
C152	C	0.517642	-0.550665	0.451682
C153	C	0.850976	-0.217332	0.785015
C154	C	0.246225	-0.884012	0.118352
C155	C	0.579558	-0.550679	0.451685
C156	C	0.912891	-0.217346	0.785018
C157	C	0.277167	-0.934823	0.169184
C158	C	0.610501	-0.601490	0.502518
C159	C	0.943834	-0.268156	0.835851
O160	O	0.344192	-0.840846	0.075171
O161	O	0.677525	-0.507513	0.408505
O162	O	1.010859	-0.174180	0.741838
O163	O	0.344186	-1.028836	0.263225
O164	O	0.677519	-0.695502	0.596558
O165	O	1.010852	-0.362169	0.929891
N166	N	0.846820	-0.934889	0.169190
N167	N	1.180153	-0.601556	0.502523
N168	N	1.513487	-0.268223	0.835856
C169	C	0.000079	-0.931026	0.025984
C170	C	0.333413	-0.597693	0.359317
C171	C	0.666746	-0.264360	0.692651
C172	C	0.000079	-0.923678	-0.061300
C173	C	0.333412	-0.590345	0.272034
C174	C	0.666745	-0.257012	0.605367
C175	C	0.000084	-0.078042	0.172999
C176	C	0.333417	0.255292	0.506332
C177	C	0.666750	0.588625	0.839666
C178	C	0.000079	-0.165325	0.180346
C179	C	0.333412	0.168008	0.513679
C180	C	0.666746	0.501341	0.847013
C181	C	0.000085	-0.991142	-0.106909
C182	C	0.333418	-0.657809	0.226425
C183	C	0.666752	-0.324475	0.559758
C184	C	0.000079	-0.984233	-0.188921
C185	C	0.333412	-0.650900	0.144413
C186	C	0.666746	-0.317566	0.477746
C187	C	0.000070	-0.909860	-0.225322
C188	C	0.333404	-0.576527	0.108011
C189	C	0.666737	-0.243193	0.441345
C190	C	0.000062	-0.842391	-0.179707
C191	C	0.333395	-0.509058	0.153627
C192	C	0.666729	-0.175725	0.486960
C193	C	0.000064	-0.849301	-0.097696
C194	C	0.333397	-0.515968	0.235637
C195	C	0.666731	-0.182634	0.568970
C196	C	0.000060	-0.885449	-0.472710
C197	C	0.333394	-0.552116	-0.139377
C198	C	0.666727	-0.218783	0.193957
C199	C	0.000060	-0.878545	-0.554726
C200	C	0.333393	-0.545211	-0.221393
C201	C	0.666727	-0.211878	0.111940
C202	C	0.000076	-1.020387	-0.563935
C203	C	0.333409	-0.687054	-0.230601
C204	C	0.666742	-0.353721	0.102732
C205	C	0.000081	-1.027290	-0.481922
C206	C	0.333415	-0.693957	-0.148589
C207	C	0.666748	-0.360624	0.184744
C208	C	0.000070	-0.959822	-0.436314
C209	C	0.333403	-0.626488	-0.102981
C210	C	0.666736	-0.293155	0.230352
C211	C	0.000066	-0.902796	-0.309151
C212	C	0.333399	-0.569463	0.024182
C213	C	0.666733	-0.236129	0.357516
C214	C	0.000070	-0.966886	-0.352487
C215	C	0.333403	-0.633553	-0.019153
C216	C	0.666737	-0.300220	0.314180
C217	C	0.000070	-0.938660	0.312381
C218	C	0.333403	-0.605327	0.645714
C219	C	0.666736	-0.271993	0.979048
C220	C	0.000066	-0.946008	0.399665
C221	C	0.333400	-0.612675	0.732998
C222	C	0.666733	-0.279342	1.066331
H223	H	0.000047	-0.688383	0.286043
H224	H	0.333380	-0.355050	0.619377
H225	H	0.666714	-0.021717	0.952710
Br226	Br	0.000041	-0.793884	-0.410823
Br227	Br	0.333374	-0.460550	-0.077490
Br228	Br	0.666708	-0.127217	0.255843
Br229	Br	0.000041	-0.741455	-0.229107
Br230	Br	0.333374	-0.408121	0.104226
Br231	Br	0.666707	-0.074788	0.437559
Br232	Br	0.000062	-0.139826	0.346284
Br233	Br	0.333396	0.193507	0.679618
Br234	Br	0.666729	0.526841	1.012951
H235	H	0.556256	-0.791915	0.026116
H236	H	0.889589	-0.458581	0.359450
H237	H	1.222922	-0.125248	0.692783
H238	H	0.000059	-0.794365	-0.060562
H239	H	0.333392	-0.461031	0.272771
H240	H	0.666725	-0.127698	0.606105
H241	H	0.556193	-1.077816	0.312227
H242	H	0.889527	-0.744483	0.645560
H243	H	1.222860	-0.411149	0.978894
Br244	Br	0.000076	-0.729864	-0.007922
Br245	Br	0.333409	-0.396531	0.325411
Br246	Br	0.666743	-0.063198	0.658745
Br247	Br	0.000076	-1.067818	-0.303084
Br248	Br	0.333410	-0.734485	0.030250
Br249	Br	0.666743	-0.401152	0.363583
Br250	Br	0.427067	-1.105356	0.339845
Br251	Br	0.760400	-0.772023	0.673178
Br252	Br	1.093734	-0.438689	1.006511
H253	H	0.000063	-0.817978	-0.584361
H254	H	0.333396	-0.484645	-0.251028
H255	H	0.666729	-0.151311	0.082305
H256	H	0.000057	-0.539608	0.273508
H257	H	0.333390	-0.206275	0.606841
H258	H	0.666724	0.127058	0.940175
Br259	Br	0.000074	-1.128229	-0.432526
Br260	Br	0.333407	-0.794896	-0.099193
Br261	Br	0.666740	-0.461563	0.234140
H262	H	0.000053	-0.313370	0.322191
H263	H	0.333387	0.019963	0.655524
H264	H	0.666720	0.353296	0.988857
Br265	Br	0.711962	-0.815134	0.049370
Br266	Br	1.045295	-0.481801	0.382703
Br267	Br	1.378628	-0.148468	0.716036
H268	H	0.000086	-0.181300	0.052316
H269	H	0.333419	0.152033	0.385649
H270	H	0.666753	0.485367	0.718982
H271	H	0.159102	-0.842638	0.076968
H272	H	0.492436	-0.509305	0.410301
H273	H	0.825769	-0.175971	0.743635
Br274	Br	0.857892	-0.815140	0.049388
Br275	Br	1.191226	-0.481807	0.382721
Br276	Br	1.524559	-0.148474	0.716055
H277	H	0.000070	-0.442816	0.261779
H278	H	0.333403	-0.109482	0.595112
H279	H	0.666736	0.223851	0.928446
Br280	Br	0.427135	-0.764339	-0.001490
Br281	Br	0.760468	-0.431006	0.331843
Br282	Br	1.093802	-0.097672	0.665176
H283	H	0.000087	-0.330076	0.064849
H284	H	0.333420	0.003258	0.398182
H285	H	0.666753	0.336591	0.731516
H286	H	0.000084	-0.556310	0.016173
H287	H	0.333417	-0.222977	0.349506
H288	H	0.666751	0.110357	0.682840
Br289	Br	0.000079	-0.407102	0.036201
Br290	Br	0.333413	-0.073768	0.369535
Br291	Br	0.666746	0.259565	0.702868
H292	H	0.271442	-0.842645	0.076968
H293	H	0.604775	-0.509311	0.410302
H294	H	0.938109	-0.175978	0.743635
Br295	Br	0.142248	-1.054518	0.289008
Br296	Br	0.475582	-0.721185	0.622341
Br297	Br	0.808915	-0.387852	0.955674
Br298	Br	0.288181	-1.054566	0.288995
Br299	Br	0.621514	-0.721232	0.622328
Br300	Br	0.954847	-0.387899	0.955662
H301	H	0.000060	-0.842241	-0.338798
H302	H	0.333394	-0.508908	-0.005465
H303	H	0.666727	-0.175574	0.327868
Br304	Br	0.711898	-1.054614	0.289007
Br305	Br	1.045231	-0.721280	0.622341
Br306	Br	1.378565	-0.387947	0.955674
H307	H	0.000084	-1.075316	-0.601077
H308	H	0.333417	-0.741983	-0.267744
H309	H	0.666750	-0.408649	0.065589
H310	H	0.841048	-1.027045	0.261409
H311	H	1.174381	-0.693711	0.594742
H312	H	1.507715	-0.360378	0.928076
H313	H	0.000096	-1.051705	-0.077277
H314	H	0.333429	-0.718371	0.256056
H315	H	0.666762	-0.385038	0.589389
H316	H	0.000085	-1.039169	-0.226052
H317	H	0.333419	-0.705836	0.107281
H318	H	0.666752	-0.372503	0.440614
