data_functionalizedCrystal
_audit_creation_method	'MofGen! by Chris Wilmer'
_symmetry_space_group_name_H-M	'P1'
_symmetry_Int_Tables_number	1
_symmetry_cell_setting	triclinic
loop_
_symmetry_equiv_pos_as_xyz
  x,y,z
_cell_length_a	19.077409
_cell_length_b	18.101397
_cell_length_c	19.076919
_cell_angle_alpha	87.731459
_cell_angle_beta	85.523525
_cell_angle_gamma	92.322373
loop_
_atom_site_label
_atom_site_type_symbol
_atom_site_fract_x
_atom_site_fract_y
_atom_site_fract_z
Zn1	Zn	1.061691	-0.264951	0.355435
Zn2	Zn	1.395025	0.068382	0.688768
Zn3	Zn	1.728358	0.401715	1.022101
Zn4	Zn	1.066354	-0.383615	0.237548
Zn5	Zn	1.399688	-0.050281	0.570882
Zn6	Zn	1.733021	0.283052	0.904215
Zn7	Zn	0.948546	-0.264976	0.242283
Zn8	Zn	1.281880	0.068357	0.575616
Zn9	Zn	1.615213	0.401691	0.908950
Zn10	Zn	0.943784	-0.393942	0.360110
Zn11	Zn	1.277117	-0.060608	0.693443
Zn12	Zn	1.610450	0.272725	1.026776
O13	O	1.005094	-0.326871	0.298844
O14	O	1.338427	0.006462	0.632177
O15	O	1.671761	0.339796	0.965511
O16	O	1.160957	-0.276360	0.335859
O17	O	1.494291	0.056973	0.669192
O18	O	1.827624	0.390307	1.002525
O19	O	1.054671	-0.363565	0.139530
O20	O	1.388005	-0.030232	0.472863
O21	O	1.721338	0.303101	0.806196
O22	O	0.963597	-0.161339	0.257318
O23	O	1.296930	0.171994	0.590651
O24	O	1.630264	0.505328	0.923985
O25	O	1.164383	-0.363541	0.249248
O26	O	1.497717	-0.030208	0.582581
O27	O	1.831050	0.303125	0.915915
O28	O	1.046724	-0.161321	0.340450
O29	O	1.380057	0.172012	0.673783
O30	O	1.713391	0.505346	1.007116
O31	O	0.968119	-0.276402	0.143008
O32	O	1.301452	0.056931	0.476342
O33	O	1.634785	0.390265	0.809675
O34	O	0.849267	-0.286416	0.261851
O35	O	1.182600	0.046917	0.595185
O36	O	1.515934	0.380251	0.928518
O37	O	0.955480	-0.381143	0.458136
O38	O	1.288813	-0.047809	0.791470
O39	O	1.622146	0.285524	1.124803
O40	O	0.845768	-0.381166	0.348418
O41	O	1.179101	-0.047833	0.681751
O42	O	1.512435	0.285500	1.015085
O43	O	1.042106	-0.286374	0.454701
O44	O	1.375439	0.046959	0.788035
O45	O	1.708773	0.380293	1.121368
O46	O	1.050053	-0.488618	0.253781
O47	O	1.383387	-0.155285	0.587115
O48	O	1.716720	0.178049	0.920448
O49	O	0.960001	-0.496205	0.343827
O50	O	1.293335	-0.162872	0.677160
O51	O	1.626668	0.170461	1.010493
C52	C	0.821939	-0.334915	0.306156
C53	C	1.155273	-0.001582	0.639489
C54	C	1.488606	0.331752	0.972823
C55	C	0.743584	-0.338375	0.309301
C56	C	1.076917	-0.005042	0.642634
C57	C	1.410251	0.328292	0.975968
C58	C	0.302333	-0.363132	0.331890
C59	C	0.635666	-0.029799	0.665224
C60	C	0.968999	0.303534	0.998557
C61	C	0.375956	-0.359887	0.328922
C62	C	0.709289	-0.026553	0.662256
C63	C	1.042623	0.306780	0.995589
C64	C	0.414564	-0.308859	0.282442
C65	C	0.747897	0.024474	0.615776
C66	C	1.081230	0.357807	0.949109
C67	C	0.379544	-0.261080	0.238923
C68	C	0.712877	0.072254	0.572256
C69	C	1.046211	0.405587	0.905589
C70	C	0.305922	-0.264330	0.241888
C71	C	0.639256	0.069004	0.575221
C72	C	0.972589	0.402337	0.908554
C73	C	0.634943	-0.293845	0.268746
C74	C	0.968276	0.039488	0.602080
C75	C	1.301609	0.372821	0.935413
C76	C	0.708570	-0.290597	0.265786
C77	C	1.041903	0.042736	0.599119
C78	C	1.375236	0.376069	0.932453
C79	C	0.704977	-0.389406	0.355785
C80	C	1.038310	-0.056072	0.689119
C81	C	1.371643	0.277261	1.022452
C82	C	0.631353	-0.392648	0.358749
C83	C	0.964687	-0.059315	0.692082
C84	C	1.298020	0.274019	1.025416
C85	C	0.596340	-0.344871	0.315227
C86	C	0.929674	-0.011538	0.648560
C87	C	1.263007	0.321795	0.981894
N88	N	0.489819	-0.305539	0.279409
N89	N	0.823152	0.027795	0.612742
N90	N	1.156485	0.361128	0.946076
N91	N	0.521087	-0.348196	0.318257
N92	N	0.854420	-0.014863	0.651591
N93	N	1.187753	0.318471	0.984924
C94	C	1.005035	-0.519283	0.298812
C95	C	1.338368	-0.185949	0.632145
C96	C	1.671702	0.147384	0.965479
C97	C	1.005073	-0.601595	0.298820
C98	C	1.338407	-0.268262	0.632153
C99	C	1.671740	0.065071	0.965486
C100	C	1.005161	-0.900685	0.298880
C101	C	1.338494	-0.567352	0.632214
C102	C	1.671827	-0.234019	0.965547
C103	C	1.061673	-0.864556	0.242086
C104	C	1.395006	-0.531222	0.575420
C105	C	1.728340	-0.197889	0.908753
C106	C	1.061855	-0.778935	0.242220
C107	C	1.395189	-0.445602	0.575554
C108	C	1.728522	-0.112268	0.908887
C109	C	1.005117	-0.752303	0.298850
C110	C	1.338451	-0.418970	0.632183
C111	C	1.671784	-0.085637	0.965516
C112	C	1.022268	-0.785693	0.372349
C113	C	1.355601	-0.452360	0.705682
C114	C	1.688935	-0.119027	1.039016
C115	C	1.022700	-0.871307	0.372035
C116	C	1.356034	-0.537973	0.705368
C117	C	1.689367	-0.204640	1.038701
C118	C	0.931327	-0.871639	0.282824
C119	C	1.264660	-0.538306	0.616157
C120	C	1.597994	-0.204972	0.949491
C121	C	0.931762	-0.785900	0.281150
C122	C	1.265096	-0.452567	0.614484
C123	C	1.598429	-0.119234	0.947817
C124	C	1.005092	-0.668444	0.298837
C125	C	1.338425	-0.335111	0.632170
C126	C	1.671758	-0.001778	0.965503
C127	C	1.005188	-0.984544	0.298898
C128	C	1.338521	-0.651211	0.632231
C129	C	1.671855	-0.317878	0.965565
C130	C	1.188964	-0.318796	0.291504
C131	C	1.522297	0.014537	0.624837
C132	C	1.855630	0.347871	0.958170
C133	C	1.267318	-0.315355	0.288376
C134	C	1.600652	0.017978	0.621709
C135	C	1.933985	0.351312	0.955042
C136	C	0.997741	-0.334908	0.482712
C137	C	1.331075	-0.001574	0.816045
C138	C	1.664408	0.331759	1.149379
C139	C	0.994608	-0.338332	0.561066
C140	C	1.327942	-0.004999	0.894399
C141	C	1.661275	0.328334	1.227732
C142	C	1.005172	-0.133708	0.298890
C143	C	1.338505	0.199626	0.632224
C144	C	1.671838	0.532959	0.965557
C145	C	1.005205	-0.051393	0.298910
C146	C	1.338538	0.281940	0.632244
C147	C	1.671871	0.615274	0.965577
C148	C	1.012458	-0.318810	0.115689
C149	C	1.345792	0.014523	0.449023
C150	C	1.679125	0.347856	0.782356
C151	C	1.015728	-0.315171	0.037331
C152	C	1.349061	0.018162	0.370664
C153	C	1.682395	0.351496	0.703997
C154	C	1.038236	-0.290602	0.596089
C155	C	1.371569	0.042731	0.929423
C156	C	1.704902	0.376064	1.262756
C157	C	1.035283	-0.293818	0.669711
C158	C	1.368616	0.039515	1.003045
C159	C	1.701950	0.372849	1.336378
C160	C	0.988706	-0.344767	0.708308
C161	C	1.322040	-0.011434	1.041641
C162	C	1.655373	0.321899	1.374975
C163	C	0.945074	-0.392499	0.673280
C164	C	1.278408	-0.059166	1.006613
C165	C	1.611741	0.274168	1.339946
C166	C	0.948024	-0.389280	0.599659
C167	C	1.281357	-0.055946	0.932992
C168	C	1.614690	0.277387	1.266326
C169	C	0.975045	-0.359683	0.928682
C170	C	1.308379	-0.026350	1.262015
C171	C	1.641712	0.306983	1.595348
C172	C	0.972101	-0.362901	1.002307
C173	C	1.305434	-0.029568	1.335640
C174	C	1.638767	0.303766	1.668974
C175	C	1.062309	-0.264218	0.998734
C176	C	1.395642	0.069115	1.332067
C177	C	1.728976	0.402448	1.665400
C178	C	1.065257	-0.261006	0.925112
C179	C	1.398591	0.072327	1.258445
C180	C	1.731924	0.405660	1.591779
C181	C	1.021623	-0.308736	0.890090
C182	C	1.354956	0.024598	1.223423
C183	C	1.688289	0.357931	1.556757
N184	N	0.985689	-0.348057	0.783562
N185	N	1.319022	-0.014723	1.116895
N186	N	1.652355	0.318610	1.450228
N187	N	1.024637	-0.305442	0.814838
N188	N	1.357971	0.027891	1.148171
N189	N	1.691304	0.361225	1.481505
H190	H	0.404462	-0.398794	0.364355
H191	H	0.737795	-0.065460	0.697689
H192	H	1.071128	0.267873	1.031022
H193	H	0.599924	-0.434202	0.396597
H194	H	0.933257	-0.100868	0.729930
H195	H	1.266590	0.232465	1.063263
H196	H	0.733492	-0.428304	0.391218
H197	H	1.066825	-0.094970	0.724551
H198	H	1.400159	0.238363	1.057885
N199	N	1.088477	-0.235654	0.554462
N200	N	1.421810	0.097679	0.887795
N201	N	1.755144	0.431013	1.221129
H202	H	1.115665	-0.205905	0.587824
H203	H	1.448999	0.127428	0.921157
H204	H	1.782332	0.460762	1.254490
H205	H	1.061021	-0.201306	0.525068
H206	H	1.394354	0.132027	0.858401
H207	H	1.727688	0.465361	1.191734
N208	N	0.909891	-0.898290	0.213268
N209	N	1.243224	-0.564957	0.546601
N210	N	1.576557	-0.231623	0.879935
H211	H	0.947828	-0.929468	0.191460
H212	H	1.281162	-0.596134	0.524793
H213	H	1.614495	-0.262801	0.858126
H214	H	0.903153	-0.854270	0.180657
H215	H	1.236486	-0.520937	0.513990
H216	H	1.569819	-0.187604	0.847323
N217	N	0.970336	-0.903423	0.429788
N218	N	1.303670	-0.570090	0.763122
N219	N	1.637003	-0.236756	1.096455
H220	H	0.995494	-0.934681	0.464078
H221	H	1.328827	-0.601347	0.797411
H222	H	1.662160	-0.268014	1.130745
H223	H	0.933373	-0.935113	0.408587
H224	H	1.266706	-0.601780	0.741920
H225	H	1.600039	-0.268447	1.075253
N226	N	1.115495	-0.206043	0.883500
N227	N	1.448829	0.127290	1.216833
N228	N	1.782162	0.460624	1.550167
H229	H	1.104048	-0.154175	0.896771
H230	H	1.437381	0.179158	1.230104
H231	H	1.770715	0.512492	1.563437
H232	H	1.110731	-0.211299	0.831558
H233	H	1.444065	0.122034	1.164891
H234	H	1.777398	0.455368	1.498224
N235	N	0.268152	-0.212805	0.194950
N236	N	0.601485	0.120529	0.528283
N237	N	0.934818	0.453862	0.861616
H238	H	0.280530	-0.159823	0.205470
H239	H	0.613864	0.173510	0.538804
H240	H	0.947197	0.506844	0.872137
H241	H	0.215667	-0.222676	0.203903
H242	H	0.549001	0.110657	0.537236
H243	H	0.882334	0.443990	0.870569
N244	N	1.048110	-0.748685	0.169907
N245	N	1.381444	-0.415351	0.503241
N246	N	1.714777	-0.082018	0.836574
H247	H	1.041877	-0.790978	0.137656
H248	H	1.375211	-0.457644	0.470990
H249	H	1.708544	-0.124311	0.804323
H250	H	1.089291	-0.715191	0.150506
H251	H	1.422625	-0.381857	0.483839
H252	H	1.755958	-0.048524	0.817173
H253	H	0.907148	-0.433981	0.704711
H254	H	1.240481	-0.100647	1.038045
H255	H	1.573814	0.232686	1.371378
N256	N	0.421177	-0.206041	0.188788
N257	N	0.754511	0.127292	0.522121
N258	N	1.087844	0.460626	0.855454
H259	H	0.453016	-0.233302	0.154837
H260	H	0.786349	0.100031	0.488171
H261	H	1.119682	0.433364	0.821504
H262	H	0.450548	-0.171688	0.216318
H263	H	0.783881	0.161646	0.549651
H264	H	1.117215	0.494979	0.882984
H265	H	0.889258	-0.895436	0.324226
H266	H	1.222591	-0.562102	0.657559
H267	H	1.555925	-0.228769	0.990892
H268	H	0.740002	-0.249036	0.227942
H269	H	1.073335	0.084298	0.561275
H270	H	1.406669	0.417631	0.894608
H271	H	0.606444	-0.254945	0.233305
H272	H	0.939778	0.078389	0.566638
H273	H	1.273111	0.411722	0.899971
N274	N	1.048130	-0.889392	0.169541
N275	N	1.381463	-0.556058	0.502874
N276	N	1.714796	-0.222725	0.836208
H277	H	1.005233	-0.924309	0.172784
H278	H	1.338567	-0.590975	0.506117
H279	H	1.671900	-0.257642	0.839451
H280	H	1.090292	-0.915588	0.149136
H281	H	1.423625	-0.582255	0.482469
H282	H	1.756959	-0.248922	0.815802
H283	H	1.116129	-0.884154	0.252341
H284	H	1.449462	-0.550820	0.585674
H285	H	1.782796	-0.217487	0.919008
N286	N	1.134378	-0.749227	0.255980
N287	N	1.467712	-0.415894	0.589313
N288	N	1.801045	-0.082561	0.922646
H289	H	1.166352	-0.791766	0.261986
H290	H	1.499685	-0.458432	0.595319
H291	H	1.833019	-0.125099	0.928653
H292	H	1.131313	-0.720312	0.300238
H293	H	1.464646	-0.386978	0.633572
H294	H	1.797980	-0.053645	0.966905
H295	H	1.076580	-0.889536	0.385982
H296	H	1.409914	-0.556203	0.719316
H297	H	1.743247	-0.222869	1.052649
H298	H	0.912491	-0.428139	0.571144
H299	H	1.245824	-0.094806	0.904478
H300	H	1.579157	0.238528	1.237811
H301	H	0.982236	-0.768860	0.415674
H302	H	1.315569	-0.435527	0.749008
H303	H	1.648903	-0.102194	1.082341
N304	N	0.873296	-0.762220	0.332242
N305	N	1.206630	-0.428887	0.665575
N306	N	1.539963	-0.095553	0.998909
H307	H	0.838246	-0.734191	0.305741
H308	H	1.171579	-0.400858	0.639074
H309	H	1.504912	-0.067525	0.972408
H310	H	0.893674	-0.729256	0.367739
H311	H	1.227007	-0.395923	0.701072
H312	H	1.560341	-0.062589	1.034405
N313	N	0.260691	-0.418169	0.382021
N314	N	0.594024	-0.084836	0.715354
N315	N	0.927358	0.248498	1.048688
H316	H	0.271509	-0.408392	0.431893
H317	H	0.604843	-0.075058	0.765226
H318	H	0.938176	0.258275	1.098559
H319	H	0.273948	-0.469992	0.370399
H320	H	0.607281	-0.136658	0.703732
H321	H	0.940615	0.196675	1.037065
N322	N	0.914553	-0.756768	0.209524
N323	N	1.247887	-0.423435	0.542857
N324	N	1.581220	-0.090101	0.876190
H325	H	0.954103	-0.721951	0.188621
H326	H	1.287437	-0.388617	0.521955
H327	H	1.620770	-0.055284	0.855288
H328	H	0.869443	-0.729414	0.214344
H329	H	1.202777	-0.396080	0.547677
H330	H	1.536110	-0.062747	0.881010
H331	H	1.097833	-0.225359	1.027257
H332	H	1.431166	0.107974	1.360590
H333	H	1.764500	0.441308	1.693923
H334	H	1.075527	-0.762535	0.386594
H335	H	1.408860	-0.429202	0.719927
H336	H	1.742193	-0.095868	1.053260
N337	N	1.082324	-0.242324	0.707488
N338	N	1.415657	0.091009	1.040822
N339	N	1.748991	0.424342	1.374155
H340	H	1.112276	-0.209559	0.671866
H341	H	1.445610	0.123775	1.005199
H342	H	1.778943	0.457108	1.338533
H343	H	1.113713	-0.272360	0.736735
H344	H	1.447046	0.060973	1.070069
H345	H	1.780380	0.394307	1.403402
H346	H	0.934170	-0.404392	1.033731
H347	H	1.267504	-0.071059	1.367064
H348	H	1.600837	0.262275	1.700398
H349	H	0.939525	-0.398558	0.900175
H350	H	1.272859	-0.065225	1.233509
H351	H	1.606192	0.268108	1.566842
