data_functionalizedCrystal
_audit_creation_method	'MofGen! by Chris Wilmer'
_symmetry_space_group_name_H-M	'P1'
_symmetry_Int_Tables_number	1
_symmetry_cell_setting	triclinic
loop_
_symmetry_equiv_pos_as_xyz
  x,y,z
_cell_length_a	12.645331
_cell_length_b	12.645324
_cell_length_c	12.645330
_cell_angle_alpha	89.967451
_cell_angle_beta	90.011364
_cell_angle_gamma	89.977038
loop_
_atom_site_label
_atom_site_type_symbol
_atom_site_fract_x
_atom_site_fract_y
_atom_site_fract_z
Zn1	Zn	1.620773	-0.599441	-0.421988
Zn2	Zn	2.120773	-0.099441	0.078012
Zn3	Zn	1.620671	-0.422178	-0.599297
Zn4	Zn	2.120671	0.077822	-0.099297
Zn5	Zn	1.443487	-0.422185	-0.422045
Zn6	Zn	1.943487	0.077815	0.077955
Zn7	Zn	1.443486	-0.599394	-0.599206
Zn8	Zn	1.943486	-0.099394	-0.099206
O9	O	1.532104	-0.510799	-0.510634
O10	O	2.032104	-0.010799	-0.010634
O11	O	1.769107	-0.575943	-0.445522
O12	O	2.269107	-0.075943	0.054478
O13	O	1.597124	-0.273832	-0.575846
O14	O	2.097124	0.226168	-0.075846
O15	O	1.467048	-0.445721	-0.273690
O16	O	1.967048	0.054279	0.226310
O17	O	1.769031	-0.445709	-0.575790
O18	O	2.269031	0.054291	-0.075790
O19	O	1.597299	-0.575950	-0.273648
O20	O	2.097299	-0.075950	0.226352
O21	O	1.466948	-0.273837	-0.445620
O22	O	1.966948	0.226163	0.054380
O23	O	1.295140	-0.445675	-0.445532
O24	O	1.795140	0.054325	0.054468
O25	O	1.467046	-0.747747	-0.575636
O26	O	1.967046	-0.247747	-0.075636
O27	O	1.295139	-0.575870	-0.575692
O28	O	1.795139	-0.075870	-0.075692
O29	O	1.597298	-0.747782	-0.445434
O30	O	2.097298	-0.247782	0.054566
O31	O	1.597123	-0.445664	-0.747632
O32	O	2.097123	0.054336	-0.247632
O33	O	1.466947	-0.575863	-0.747566
O34	O	1.966947	-0.075863	-0.247566
C35	C	1.256675	-0.510769	-0.510609
C36	C	1.756675	-0.010769	-0.010609
C37	C	1.138845	-0.510781	-0.510624
C38	C	1.638845	-0.010781	-0.010624
C39	C	0.971245	-0.429327	-0.428363
C40	C	1.471245	0.070673	0.071637
C41	C	1.093805	-0.428968	-0.428576
C42	C	1.593805	0.071032	0.071424
C43	C	1.094334	-0.480264	-0.622301
C44	C	1.594334	0.019736	-0.122301
C45	C	0.971736	-0.479709	-0.621852
C46	C	1.471736	0.020291	-0.121852
C47	C	0.971693	-0.623065	-0.482269
C48	C	1.471693	-0.123065	0.017731
C49	C	1.094299	-0.622441	-0.479774
C50	C	1.594299	-0.122441	0.020226
C51	C	1.532184	-0.787305	-0.510519
C52	C	2.032184	-0.287305	-0.010519
C53	C	1.532218	-0.905135	-0.510470
C54	C	2.032218	-0.405135	-0.010470
C55	C	1.614478	-1.072721	-0.428797
C56	C	2.114478	-0.572721	0.071203
C57	C	1.614215	-0.950161	-0.428502
C58	C	2.114215	-0.450161	0.071498
C59	C	1.420533	-0.949613	-0.480110
C60	C	1.920533	-0.449613	0.019890
C61	C	1.421032	-1.072212	-0.479490
C62	C	1.921032	-0.572212	0.020510
C63	C	1.560735	-1.072331	-0.622621
C64	C	2.060735	-0.572331	-0.122621
C65	C	1.563179	-0.949726	-0.622057
C66	C	2.063179	-0.449726	-0.122057
C67	C	1.808609	-0.510831	-0.510660
C68	C	2.308609	-0.010831	-0.010660
C69	C	1.926440	-0.510844	-0.510671
C70	C	2.426440	-0.010844	-0.010671
C71	C	1.532052	-0.510781	-0.786064
C72	C	2.032052	-0.010781	-0.286064
C73	C	1.532127	-0.510808	-0.903894
C74	C	2.032127	-0.010808	-0.403894
C75	C	1.532086	-0.235370	-0.510672
C76	C	2.032086	0.264630	-0.010672
C77	C	1.532258	-0.117540	-0.510423
C78	C	2.032258	0.382460	-0.010423
C79	C	1.614115	-0.428970	-0.948773
C80	C	2.114115	0.071030	-0.448773
C81	C	1.613927	-0.428678	-1.071333
C82	C	2.113927	0.071322	-0.571333
C83	C	1.420411	-0.480788	-1.071902
C84	C	1.920411	0.019212	-0.571902
C85	C	1.420832	-0.480164	-0.949304
C86	C	1.920832	0.019836	-0.449304
C87	C	1.560991	-0.622934	-0.948961
C88	C	2.060991	-0.122934	-0.448961
C89	C	1.563509	-0.622365	-1.071566
C90	C	2.063509	-0.122365	-0.571566
C91	C	1.532185	-0.510841	-0.234129
C92	C	2.032185	-0.010841	0.265871
C93	C	1.532220	-0.510859	-0.116299
C94	C	2.032220	-0.010859	0.383701
H95	H	0.942720	-0.683802	-0.542218
H96	H	1.442720	-0.183802	-0.042218
F97	F	1.482958	-0.702634	-0.911004
F98	F	1.982958	-0.202634	-0.411004
H99	H	0.941774	-0.448249	-0.345301
H100	H	1.441774	0.051751	0.154699
H101	H	1.123898	-0.448096	-0.345763
H102	H	1.623898	0.051904	0.154237
F103	F	1.491219	-0.706328	-1.111565
F104	F	1.991219	-0.206328	-0.611565
F105	F	1.338279	-0.911500	-0.555435
F106	F	1.838279	-0.411500	-0.055435
H107	H	1.123085	-0.345808	-0.447349
H108	H	1.623085	0.154192	0.052651
F109	F	0.930909	-0.321272	-0.452612
F110	F	1.430909	0.178728	0.047388
F111	F	1.722777	-0.453224	-0.910150
F112	F	2.222777	0.046776	-0.410150
H113	H	1.645369	-0.920654	-0.644951
H114	H	2.145369	-0.420654	-0.144951
F115	F	1.132343	-0.652530	-0.372363
F116	F	1.632343	-0.152530	0.127637
H117	H	0.943092	-0.397669	-0.645936
H118	H	1.443092	0.102331	-0.145936
F119	F	1.388907	-0.373048	-0.912042
F120	F	1.888907	0.126952	-0.412042
F121	F	1.589419	-0.320995	-0.908620
F122	F	2.089419	0.179005	-0.408620
H123	H	1.594825	-0.345613	-1.100749
H124	H	2.094825	0.154387	-0.600749
F125	F	1.671052	-0.652019	-1.109492
F126	F	2.171052	-0.152019	-0.609492
H127	H	0.942098	-0.536493	-0.685254
H128	H	1.442098	-0.036493	-0.185254
F129	F	1.665718	-0.658743	-0.908459
F130	F	2.165718	-0.158743	-0.408459
H131	H	1.123510	-0.537774	-0.685266
H132	H	1.623510	-0.037774	-0.185266
F133	F	1.134401	-0.374183	-0.654324
F134	F	1.634401	0.125817	-0.154324
H135	H	0.940789	-0.650818	-0.402255
H136	H	1.440789	-0.150818	0.097745
H137	H	1.595864	-1.103545	-0.346142
H138	H	2.095864	-0.603545	0.153858
F139	F	1.134372	-0.706076	-0.552418
F140	F	1.634372	-0.206076	-0.052418
F141	F	1.388405	-0.909504	-0.374101
F142	F	1.888405	-0.409504	0.125899
H143	H	1.507647	-0.919072	-0.686148
H144	H	2.007647	-0.419072	-0.186148
F145	F	1.722464	-0.910853	-0.453340
F146	F	2.222464	-0.410853	0.046660
H147	H	1.396893	-1.100822	-0.397473
H148	H	1.896893	-0.600822	0.102527
H149	H	1.697569	-1.102213	-0.447571
H150	H	2.197569	-0.602213	0.052429
F151	F	1.338224	-1.110966	-0.553804
F152	F	1.838224	-0.610966	-0.053804
H153	H	1.357650	-0.537195	-0.919618
H154	H	1.857650	-0.037195	-0.419618
H155	H	1.595358	-0.920849	-0.345387
H156	H	2.095358	-0.420849	0.154613
F157	F	1.665366	-1.112758	-0.658709
F158	F	2.165366	-0.612758	-0.158709
F159	F	1.338419	-0.556320	-1.109972
F160	F	1.838419	-0.056320	-0.609972
F161	F	1.482459	-1.110210	-0.702116
F162	F	1.982459	-0.610210	-0.202116
H163	H	1.395592	-0.399749	-1.102697
H164	H	1.895592	0.100251	-0.602697
F165	F	1.722277	-0.453246	-1.110567
F166	F	2.222277	0.046754	-0.610567
