data_functionalizedCrystal
_audit_creation_method	'MofGen! by Chris Wilmer'
_symmetry_space_group_name_H-M	'P1'
_symmetry_Int_Tables_number	1
_symmetry_cell_setting	triclinic
loop_
_symmetry_equiv_pos_as_xyz
  x,y,z
_cell_length_a	10.654550
_cell_length_b	14.044220
_cell_length_c	9.730223
_cell_angle_alpha	89.994583
_cell_angle_beta	89.999957
_cell_angle_gamma	88.836904
loop_
_atom_site_label
_atom_site_type_symbol
_atom_site_fract_x
_atom_site_fract_y
_atom_site_fract_z
O1	O	1.681228	0.133232	-0.114191
O2	O	1.317025	0.145925	-0.114216
O3	O	1.493659	0.001558	-0.114190
O4	O	1.504593	0.277599	-0.114217
O5	O	1.493647	0.001554	0.114390
O6	O	1.317012	0.145921	0.114364
O7	O	1.681215	0.133228	0.114389
Zn8	Zn	1.499111	0.139574	0.150668
Zn9	Zn	1.499128	0.139579	-0.150496
O10	O	1.504580	0.277595	0.114363
C11	C	1.270127	0.144991	0.000070
C12	C	1.130403	0.142202	0.000061
C13	C	1.059459	0.227204	0.000057
C14	C	0.928175	0.224578	0.000081
C15	C	0.938790	0.051942	0.000108
C16	C	1.070072	0.054569	0.000094
C17	C	1.488867	-0.033790	0.000100
C18	C	1.474592	-0.139110	0.000101
C19	C	1.448493	-0.331943	0.000079
C20	C	1.549741	-0.388910	0.000082
C21	C	1.535219	-0.496209	0.000070
C22	C	1.463013	-0.224634	0.000091
C23	C	1.728113	0.134162	0.000099
C24	C	1.867836	0.136950	0.000100
C25	C	1.509372	0.312943	0.000070
C26	C	1.523648	0.418262	0.000060
N27	N	1.499109	0.139570	0.356205
N28	N	1.499140	0.139576	-0.356032
C29	C	1.577355	0.075671	0.428142
C30	C	1.577367	0.075671	0.572025
C31	C	1.420885	0.203477	0.572021
C32	C	1.420867	0.203471	0.428140
H33	H	0.889652	-0.019406	0.000143
H34	H	1.647328	-0.357098	-0.000004
H35	H	1.641080	0.023638	0.630593
H36	H	1.108577	0.298560	0.000041
O37	O	0.859449	0.307237	0.000011
C38	C	0.862784	0.478745	0.000058
C39	C	0.940766	0.385201	0.000102
H40	H	0.928495	0.541803	0.000161
H41	H	0.801074	0.481896	-0.095616
H42	H	0.801037	0.481782	0.095705
H43	H	1.002585	0.382102	-0.095480
H44	H	1.002394	0.382089	0.095839
H45	H	1.127837	-0.014653	0.000101
O46	O	1.332169	-0.370043	0.000137
C47	C	1.211462	-0.513293	0.000053
C48	C	1.343268	-0.470256	0.000012
H49	H	1.220391	-0.594321	-0.000078
H50	H	1.158191	-0.488776	0.095740
H51	H	1.158217	-0.488632	-0.095581
H52	H	1.396618	-0.494897	0.095580
H53	H	1.396444	-0.494769	-0.095739
O54	O	1.653384	0.013502	0.358476
C55	C	1.808641	-0.113230	0.373673
C56	C	1.722581	-0.042886	0.452735
H57	H	1.864628	-0.158825	0.449848
H58	H	1.749127	-0.161068	0.306370
H59	H	1.875947	-0.071821	0.306256
H60	H	1.655260	-0.084218	0.520228
H61	H	1.782173	0.004951	0.519952
O62	O	1.344707	0.265455	0.641844
C63	C	1.132414	0.319536	0.685833
C64	C	1.218538	0.249276	0.606700
H65	H	1.030391	0.306493	0.657427
H66	H	1.145761	0.308564	0.801041
H67	H	1.157350	0.395621	0.657541
H68	H	1.193656	0.173163	0.634877
H69	H	1.205178	0.260330	0.491511
O70	O	1.344995	0.265681	0.358315
C71	C	1.289755	0.430101	0.314318
C72	C	1.375781	0.359763	0.393455
H73	H	1.314597	0.506182	0.342721
H74	H	1.303186	0.419201	0.199110
H75	H	1.187723	0.416984	0.342610
H76	H	1.477845	0.372838	0.365278
H77	H	1.362241	0.370680	0.508643
