data_functionalizedCrystal
_audit_creation_method	'MofGen! by Chris Wilmer'
_symmetry_space_group_name_H-M	'P1'
_symmetry_Int_Tables_number	1
_symmetry_cell_setting	triclinic
loop_
_symmetry_equiv_pos_as_xyz
  x,y,z
_cell_length_a	17.699077
_cell_length_b	27.732025
_cell_length_c	16.776229
_cell_angle_alpha	90.007871
_cell_angle_beta	89.993415
_cell_angle_gamma	82.957023
loop_
_atom_site_label
_atom_site_type_symbol
_atom_site_fract_x
_atom_site_fract_y
_atom_site_fract_z
O1	O	1.003535	0.061114	-0.066252
O2	O	0.783085	0.069070	-0.066253
O3	O	0.900165	-0.005281	-0.066276
O4	O	0.886454	0.135465	-0.066228
O5	O	0.900150	-0.005286	0.066300
O6	O	0.783069	0.069065	0.066324
O7	O	1.003519	0.061109	0.066325
Zn8	Zn	0.893292	0.065086	0.087374
Zn9	Zn	0.893312	0.065092	-0.087302
O10	O	0.886439	0.135460	0.066348
C11	C	0.754882	0.068783	0.000035
C12	C	0.670872	0.067929	0.000033
C13	C	0.631400	0.067524	0.072302
C14	C	0.552464	0.066714	0.072302
C15	C	0.513002	0.066313	0.000034
C16	C	0.552480	0.066716	-0.072240
C17	C	0.631414	0.067523	-0.072240
C18	C	0.234146	0.063463	-0.072243
C19	C	0.155205	0.062658	-0.072237
C20	C	0.155195	0.062655	0.072299
C21	C	0.234130	0.063461	0.072300
C22	C	0.273602	0.063862	0.000026
C23	C	0.359193	0.064739	0.000027
C24	C	0.427412	0.065439	0.000033
C25	C	0.899872	-0.023292	0.000004
C26	C	0.899014	-0.076950	-0.000020
C27	C	0.892921	-0.460135	-0.072241
C28	C	0.896135	-0.258464	-0.072266
O29	O	0.896588	-0.232393	-0.133729
N30	N	0.896528	-0.233244	-0.000001
C31	C	0.896123	-0.258445	0.072276
O32	O	0.896539	-0.232367	0.133741
C33	C	0.892915	-0.460115	0.072301
C34	C	0.892513	-0.485332	0.000030
C35	C	0.892521	-0.485352	-0.144505
C36	C	0.891713	-0.535766	-0.144498
C37	C	0.891306	-0.560964	-0.072227
C38	C	0.891706	-0.535747	0.000038
C39	C	0.892515	-0.485316	0.144577
C40	C	0.891715	-0.535737	0.144576
C41	C	0.891314	-0.560954	0.072306
C42	C	0.890491	-0.611358	0.072316
N43	N	0.890098	-0.636579	0.000051
C44	C	0.890505	-0.611381	-0.072221
C45	C	0.897806	-0.152565	0.072258
C46	C	0.898606	-0.102148	0.072252
C47	C	0.898620	-0.102170	-0.072291
C48	C	0.897813	-0.152588	-0.072284
C49	C	0.897412	-0.177785	-0.000008
C50	C	0.888808	-0.717255	-0.072200
C51	C	0.887998	-0.767674	-0.072187
C52	C	0.887989	-0.767647	0.072355
C53	C	0.888795	-0.717232	0.072342
C54	C	0.889208	-0.692038	0.000058
O55	O	0.890046	-0.637461	0.133747
O56	O	0.890106	-0.637469	-0.133677
C57	C	0.893728	-0.409721	-0.072248
C58	C	0.894129	-0.384504	0.000016
C59	C	0.893721	-0.409701	0.072287
C60	C	0.894929	-0.334086	0.000010
C61	C	0.895337	-0.308889	-0.072261
C62	C	0.894943	-0.334109	-0.144526
C63	C	0.894136	-0.384523	-0.144519
C64	C	0.894115	-0.384481	0.144553
C65	C	0.894921	-0.334066	0.144540
C66	C	0.895329	-0.308869	0.072268
C67	C	1.031722	0.061396	0.000035
C68	C	1.115732	0.062250	0.000032
C69	C	0.886732	0.153471	0.000066
C70	C	0.887590	0.207129	0.000085
N71	N	0.893284	0.065082	0.206585
N72	N	0.893327	0.065093	-0.206513
C73	C	0.945142	0.032173	0.248291
C74	C	0.945147	0.032173	0.331744
C75	C	0.893295	0.065084	0.373488
C76	C	0.841431	0.097995	0.331775
C77	C	0.841423	0.097992	0.248325
C78	C	0.841458	0.098004	0.668323
C79	C	0.841471	0.098005	0.751779
C80	C	0.945181	0.032184	0.751741
C81	C	0.945174	0.032182	0.668291
C82	C	0.893307	0.065091	0.626586
C83	C	0.893302	0.065090	0.536097
C84	C	0.893303	0.065087	0.463975
H85	H	0.887668	-0.788203	-0.131040
H86	H	0.266274	0.063788	-0.131092
H87	H	0.799228	0.124800	0.634373
C88	C	0.895396	-0.306383	-0.224025
N89	N	0.895743	-0.285497	-0.283900
H90	H	0.520344	0.066386	-0.131082
H91	H	0.889145	-0.696748	-0.131061
H92	H	0.799244	0.124806	0.785766
C93	C	0.674833	0.067969	-0.151740
N94	N	0.707535	0.068304	-0.211623
H95	H	0.799208	0.124790	0.365768
H96	H	0.893785	-0.404992	0.203406
H97	H	0.987399	0.005384	0.634305
H98	H	0.799194	0.124790	0.214368
C99	C	1.002230	-0.004021	0.797624
N100	N	1.045198	-0.031289	0.832182
H101	H	0.891392	-0.556294	-0.203348
C102	C	0.899074	-0.074444	-0.151790
N103	N	0.899423	-0.053559	-0.211665
H104	H	0.663523	0.067855	0.131151
H105	H	0.520331	0.066377	0.131150
H106	H	0.895241	-0.313538	0.203395
C107	C	0.277535	0.063902	0.151800
N108	N	0.310226	0.064231	0.211682
H109	H	0.887654	-0.788171	0.131197
H110	H	0.987374	0.005375	0.365701
C111	C	0.111771	0.062209	0.151802
N112	N	0.079064	0.061873	0.211682
C113	C	0.111799	0.062211	-0.151742
N114	N	0.079106	0.061873	-0.211622
H115	H	0.897485	-0.173116	-0.131133
C116	C	0.892965	-0.457643	-0.224016
N117	N	0.893294	-0.436775	-0.283910
H118	H	0.898919	-0.081619	0.131101
H119	H	0.897479	-0.173076	0.131117
C120	C	0.892959	-0.457589	0.224081
N121	N	0.893296	-0.436706	0.283968
C122	C	0.891270	-0.563450	0.224088
N123	N	0.890932	-0.584323	0.283977
H124	H	0.889092	-0.696697	0.131191
H125	H	0.893809	-0.405051	-0.203369
C126	C	1.002184	-0.004033	0.202380
N127	N	1.045147	-0.031306	0.167803
