data_functionalizedCrystal
_audit_creation_method	'MofGen! by Chris Wilmer'
_symmetry_space_group_name_H-M	'P1'
_symmetry_Int_Tables_number	1
_symmetry_cell_setting	triclinic
loop_
_symmetry_equiv_pos_as_xyz
  x,y,z
_cell_length_a	18.215405
_cell_length_b	12.759401
_cell_length_c	12.759401
_cell_angle_alpha	89.998871
_cell_angle_beta	90.013527
_cell_angle_gamma	89.974954
loop_
_atom_site_label
_atom_site_type_symbol
_atom_site_fract_x
_atom_site_fract_y
_atom_site_fract_z
Zn1	Zn	-0.293112	-1.606001	0.593937
Zn2	Zn	0.206888	-1.106001	1.093937
Zn3	Zn	-0.416147	-1.605917	0.418239
Zn4	Zn	0.083853	-1.105917	0.918239
Zn5	Zn	-0.293099	-1.430356	0.418277
Zn6	Zn	0.206901	-0.930356	0.918277
Zn7	Zn	-0.416142	-1.430260	0.593880
Zn8	Zn	0.083858	-0.930260	1.093880
O9	O	-0.354625	-1.518134	0.506083
O10	O	0.145375	-1.018134	1.006083
O11	O	-0.309441	-1.753011	0.570638
O12	O	0.190559	-1.253011	1.070638
O13	O	-0.399821	-1.582634	0.271223
O14	O	0.100179	-1.082634	0.771223
O15	O	-0.190117	-1.453731	0.441618
O16	O	0.309883	-0.953731	0.941618
O17	O	-0.399834	-1.752949	0.441554
O18	O	0.100166	-1.252949	0.941554
O19	O	-0.190126	-1.582776	0.570675
O20	O	0.309874	-1.082776	1.070675
O21	O	-0.309418	-1.453650	0.271251
O22	O	0.190582	-0.953650	0.771251
O23	O	-0.309414	-1.283322	0.441563
O24	O	0.190586	-0.783322	0.941563
O25	O	-0.399825	-1.453568	0.740909
O26	O	0.100175	-0.953568	1.240909
O27	O	-0.399813	-1.283252	0.570578
O28	O	0.100187	-0.783252	1.070578
O29	O	-0.309436	-1.582683	0.740950
O30	O	0.190564	-1.082683	1.240950
O31	O	-0.519131	-1.582541	0.441498
O32	O	-0.019131	-1.082541	0.941498
O33	O	-0.519127	-1.453486	0.570541
O34	O	-0.019127	-0.953486	1.070541
C35	C	-0.354612	-1.245166	0.506069
C36	C	0.145388	-0.745166	1.006069
C37	C	-0.354624	-1.128390	0.506088
C38	C	0.145376	-0.628390	1.006088
C39	C	-0.545831	-1.518023	0.506033
C40	C	-0.045831	-1.018023	1.006033
C41	C	-0.627630	-1.518071	0.506046
C42	C	-0.127630	-1.018071	1.006046
C43	C	-0.354631	-1.518124	0.780116
C44	C	0.145369	-1.018124	1.280116
C45	C	-0.354634	-1.518120	0.896893
C46	C	0.145366	-1.018120	1.396893
C47	C	-0.815802	-1.585428	0.438977
C48	C	-0.315802	-1.085428	0.938977
C49	C	-0.892660	-1.585475	0.439003
C50	C	-0.392660	-1.085475	0.939003
C51	C	-0.892697	-1.450974	0.573265
C52	C	-0.392697	-0.950974	1.073265
C53	C	-0.815839	-1.450933	0.573244
C54	C	-0.315839	-0.950933	1.073244
C55	C	-0.777394	-1.518158	0.506094
C56	C	-0.277394	-1.018158	1.006094
C57	C	-0.931110	-1.518246	0.506140
C58	C	-0.431110	-1.018246	1.006140
C59	C	-1.014444	-1.518297	0.506168
C60	C	-0.514444	-1.018297	1.006168
C61	C	-0.694055	-1.518110	0.506067
C62	C	-0.194055	-1.018110	1.006067
C63	C	-0.162672	-1.518274	0.506157
C64	C	0.337328	-1.018274	1.006157
C65	C	-0.080873	-1.518333	0.506188
C66	C	0.419127	-1.018333	1.006188
C67	C	-0.354639	-1.792167	0.506098
C68	C	0.145361	-1.292167	1.006098
C69	C	-0.354645	-1.908944	0.506104
C70	C	0.145355	-1.408944	1.006104
C71	C	-0.401770	-1.073518	0.573155
C72	C	0.098230	-0.573518	1.073155
C73	C	-0.401779	-0.963794	0.573166
C74	C	0.098221	-0.463794	1.073166
C75	C	-0.307494	-0.963822	0.439034
C76	C	0.192506	-0.463822	0.939034
C77	C	-0.307482	-1.073544	0.439029
C78	C	0.192518	-0.573544	0.939029
C79	C	-0.456207	-1.073501	0.650592
C80	C	0.043793	-0.573501	1.150592
C81	C	-0.456216	-0.963777	0.650603
C82	C	0.043784	-0.463777	1.150603
C83	C	-0.401703	-1.585286	1.061461
C84	C	0.098297	-1.085286	1.561461
C85	C	-0.401703	-1.585278	0.951737
C86	C	0.098297	-1.085278	1.451737
C87	C	-0.307567	-1.450959	0.951778
C88	C	0.192433	-0.950959	1.451778
C89	C	-0.307571	-1.450963	1.061501
C90	C	0.192429	-0.950963	1.561501
C91	C	-0.456049	-1.662837	1.061437
C92	C	0.043951	-1.162837	1.561437
C93	C	-0.456049	-1.662828	0.951713
C94	C	0.043951	-1.162828	1.451713
C95	C	-0.354637	-1.518134	1.233116
C96	C	0.145363	-1.018134	1.733116
C97	C	-0.354638	-1.518133	1.116339
C98	C	0.145362	-1.018133	1.616339
H99	H	-0.923929	-1.640254	0.384351
H100	H	-0.423929	-1.140254	0.884351
C101	C	-0.529187	-1.623411	0.905699
C102	C	-0.029187	-1.123411	1.405699
H103	H	-0.526690	-1.624742	0.831339
H104	H	-0.026690	-1.124742	1.331339
H105	H	-0.568018	-1.667449	0.928670
H106	H	-0.068018	-1.167449	1.428670
H107	H	-0.537966	-1.553707	0.928687
H108	H	-0.037966	-1.053707	1.428687
H109	H	-0.440781	-1.744207	0.921938
H110	H	0.059219	-1.244207	1.421938
H111	H	-0.269112	-0.919154	0.384439
H112	H	0.230888	-0.419154	0.884439
H113	H	-0.441031	-1.103289	0.732001
H114	H	0.058969	-0.603289	1.232001
H115	H	-0.435894	-0.929761	0.727958
H116	H	0.064106	-0.429761	1.227958
C117	C	-0.533042	-1.633339	1.101639
C118	C	-0.033042	-1.133339	1.601639
H119	H	-0.564703	-1.621194	1.043715
H120	H	-0.064703	-1.121194	1.543715
H121	H	-0.551984	-1.689014	1.142991
H122	H	-0.051984	-1.189014	1.642991
H123	H	-0.529937	-1.571591	1.143001
H124	H	-0.029937	-1.071591	1.643001
H125	H	-0.435637	-1.740146	1.095476
H126	H	0.064363	-1.240146	1.595476
H127	H	-0.924008	-1.396240	0.627934
H128	H	-0.424008	-0.896240	1.127934
H129	H	-0.784501	-1.640168	0.384301
H130	H	-0.284501	-1.140168	0.884301
H131	H	-0.269254	-1.396270	1.106178
H132	H	0.230746	-0.896270	1.606178
H133	H	-0.784565	-1.396154	0.627903
H134	H	-0.284565	-0.896154	1.127903
C135	C	-0.255800	-1.377073	0.891458
C136	C	0.244200	-0.877073	1.391458
H137	H	-0.227775	-1.337073	0.939859
H138	H	0.272225	-0.837073	1.439859
H139	H	-0.223734	-1.417272	0.848658
H140	H	0.276266	-0.917272	1.348658
H141	H	-0.283960	-1.331272	0.848654
H142	H	0.216040	-0.831272	1.348654
C143	C	-0.255619	-1.133900	0.365259
C144	C	0.244381	-0.633900	0.865259
H145	H	-0.227553	-1.085519	0.325316
H146	H	0.272447	-0.585519	0.825316
H147	H	-0.223596	-1.176721	0.405529
H148	H	0.276404	-0.676721	0.905529
H149	H	-0.283719	-1.176684	0.319398
H150	H	0.216281	-0.676684	0.819398
C151	C	-0.529295	-1.119453	0.611030
C152	C	-0.029295	-0.619453	1.111030
H153	H	-0.561854	-1.063990	0.593421
H154	H	-0.061854	-0.563990	1.093421
H155	H	-0.520478	-1.161359	0.550795
H156	H	-0.020478	-0.661359	1.050795
H157	H	-0.550652	-1.161349	0.664480
H158	H	-0.050652	-0.661349	1.164480
C159	C	-0.533181	-0.923507	0.620958
C160	C	-0.033181	-0.423507	1.120958
H161	H	-0.564825	-0.981404	0.608747
H162	H	-0.064825	-0.481404	1.108747
H163	H	-0.552185	-0.882147	0.676600
H164	H	-0.052185	-0.382147	1.176600
H165	H	-0.530011	-0.882140	0.559220
H166	H	-0.030011	-0.382140	1.059220
