data_functionalizedCrystal
_audit_creation_method	'MofGen! by Chris Wilmer'
_symmetry_space_group_name_H-M	'P1'
_symmetry_Int_Tables_number	1
_symmetry_cell_setting	triclinic
loop_
_symmetry_equiv_pos_as_xyz
  x,y,z
_cell_length_a	10.540539
_cell_length_b	12.837943
_cell_length_c	11.892095
_cell_angle_alpha	94.310562
_cell_angle_beta	93.930600
_cell_angle_gamma	90.322784
loop_
_atom_site_label
_atom_site_type_symbol
_atom_site_fract_x
_atom_site_fract_y
_atom_site_fract_z
O1	O	0.322967	-1.384471	-0.093973
O2	O	0.306651	-1.082545	-0.093980
O3	O	0.130859	-1.240396	-0.093975
O4	O	0.498759	-1.226620	-0.093978
O5	O	0.145491	-1.227234	0.094032
O6	O	0.321283	-1.069383	0.094027
O7	O	0.337599	-1.371309	0.094034
Zn8	Zn	0.331764	-1.218257	0.123881
Zn9	Zn	0.312486	-1.235597	-0.123827
O10	O	0.513391	-1.213458	0.094029
C11	C	0.308455	-1.037303	0.000023
C12	C	0.292017	-0.922104	0.000020
C13	C	0.090759	-1.232782	0.000027
C14	C	-0.050529	-1.229692	0.000020
C15	C	0.335795	-1.416551	0.000029
C16	C	0.352232	-1.531751	0.000025
C17	C	-0.247002	-1.111279	-0.000404
C18	C	-0.100007	-1.114382	0.000019
C19	C	-0.097735	-1.277668	0.107383
C20	C	-0.244704	-1.273726	0.107473
C21	C	-0.261604	-1.291038	-0.106326
C22	C	-0.114616	-1.292200	-0.107745
C23	C	0.553491	-1.221072	0.000025
C24	C	0.694779	-1.224163	0.000024
N25	N	0.344921	-1.206429	0.292934
C26	C	0.489636	-0.682608	0.000034
C27	C	0.474197	-0.574368	0.000032
C28	C	0.245700	-0.597382	0.000022
C29	C	0.261139	-0.705621	0.000024
C30	C	0.383111	-0.748231	0.000028
C31	C	0.398549	-0.856473	0.000022
C32	C	0.170054	-0.879484	0.000020
C33	C	0.154614	-0.771244	0.000018
N34	N	0.299320	-1.247433	-0.292880
C35	C	0.207693	-1.329731	0.529586
C36	C	0.216900	-1.321471	0.647928
C37	C	0.372535	-1.181647	0.647961
C38	C	0.363328	-1.189906	0.529620
C39	C	0.280906	-1.263952	0.470436
C40	C	0.271706	-1.272215	0.352093
C41	C	0.427334	-1.132387	0.352128
C42	C	0.436540	-1.124127	0.470470
H43	H	-0.068190	-1.076106	-0.076943
C44	C	-0.054560	-1.391685	0.112789
H45	H	-0.084126	-1.419173	0.178331
H46	H	0.035663	-1.394113	0.116005
H47	H	-0.088609	-1.432119	0.047364
C48	C	0.623795	-0.729482	0.000029
H49	H	0.685028	-0.674896	0.000034
H50	H	0.629460	-0.775819	-0.065533
H51	H	0.639671	-0.766637	0.065600
H52	H	0.439632	-1.121354	0.696164
H53	H	0.157281	-1.375034	0.696085
C54	C	0.527202	-1.042688	0.535578
H55	H	0.522208	-1.047194	0.614530
H56	H	0.503487	-0.974694	0.516198
H57	H	0.611861	-1.055952	0.516182
C58	C	0.507886	-1.060039	0.287061
H59	H	0.490602	-1.075561	0.208104
H60	H	0.595554	-1.070592	0.306466
H61	H	0.487184	-0.989330	0.306461
H62	H	0.204598	-1.332509	0.303907
C63	C	-0.300504	-1.057013	-0.104401
H64	H	-0.358834	-1.102708	-0.148491
H65	H	-0.232762	-1.039789	-0.148615
H66	H	-0.342958	-0.995064	-0.080251
H67	H	0.140591	-1.390028	0.481398
H68	H	-0.057082	-1.065016	0.077107
C69	C	-0.286474	-1.042754	0.103023
H70	H	-0.338277	-1.082641	0.146466
H71	H	-0.332863	-0.984481	0.078339
H72	H	-0.212624	-1.018881	0.148087
H73	H	-0.271164	-1.227097	0.187727
C74	C	0.020456	-0.724368	0.000008
H75	H	0.026515	-0.650506	0.000000
H76	H	-0.018865	-0.742248	0.065563
H77	H	-0.029045	-0.751424	-0.065569
H78	H	-0.283183	-1.356314	0.112346
C79	C	-0.070141	-1.406394	-0.116492
H80	H	-0.110351	-1.442257	-0.182320
H81	H	-0.092108	-1.439432	-0.051563
H82	H	0.019474	-1.407944	-0.121001
C83	C	0.052871	-0.951672	0.000012
H84	H	0.079532	-1.022239	0.000018
H85	H	-0.001698	-0.943245	-0.065552
H86	H	0.008499	-0.934075	0.065580
H87	H	-0.303591	-1.259415	-0.187700
C88	C	-0.037531	-1.218031	0.215315
H89	H	0.016375	-1.163887	0.195179
H90	H	0.010898	-1.264828	0.258758
H91	H	-0.102739	-1.188561	0.258587
H92	H	-0.084400	-1.257157	-0.187169
H93	H	-0.299736	-1.374376	-0.107046
C94	C	0.532711	-0.903343	0.000030
H95	H	0.593941	-0.848753	0.000044
H96	H	0.538391	-0.949678	-0.065531
H97	H	0.548578	-0.940498	0.065602
H98	H	0.560941	-0.520940	0.000040
H99	H	0.146403	-0.562663	0.000112
