data_functionalizedCrystal
_audit_creation_method	'MofGen! by Chris Wilmer'
_symmetry_space_group_name_H-M	'P1'
_symmetry_Int_Tables_number	1
_symmetry_cell_setting	triclinic
loop_
_symmetry_equiv_pos_as_xyz
  x,y,z
_cell_length_a	23.532361
_cell_length_b	23.532407
_cell_length_c	9.730223
_cell_angle_alpha	89.994043
_cell_angle_beta	90.004093
_cell_angle_gamma	82.839173
loop_
_atom_site_label
_atom_site_type_symbol
_atom_site_fract_x
_atom_site_fract_y
_atom_site_fract_z
O1	O	0.755273	0.069006	-0.114166
O2	O	1.255273	0.569006	0.385834
O3	O	0.589406	0.079037	-0.114201
O4	O	1.089406	0.579037	0.385799
O5	O	0.677342	-0.008911	-0.114157
O6	O	1.177342	0.491089	0.385843
O7	O	0.667338	0.156954	-0.114210
O8	O	1.167338	0.656954	0.385790
O9	O	0.677341	-0.008909	0.114423
O10	O	1.177341	0.491091	0.614423
O11	O	0.589405	0.079039	0.114379
O12	O	1.089405	0.579039	0.614379
O13	O	0.755272	0.069008	0.114414
O14	O	1.255272	0.569008	0.614414
Zn15	Zn	0.672339	0.074024	0.150689
Zn16	Zn	1.172339	0.574024	0.650689
Zn17	Zn	0.672340	0.074021	-0.150475
Zn18	Zn	1.172340	0.574021	0.349525
O19	O	0.667337	0.156956	0.114370
O20	O	1.167337	0.656956	0.614370
C21	C	0.568189	0.078787	0.000085
C22	C	1.068189	0.578787	0.500085
C23	C	0.504971	0.078032	0.000073
C24	C	1.004971	0.578032	0.500073
C25	C	0.231728	0.074727	-0.124517
C26	C	0.731728	0.574727	0.375483
C27	C	0.291127	0.075442	-0.124520
C28	C	0.791127	0.575442	0.375480
O29	O	0.321854	0.075791	-0.230485
O30	O	0.821854	0.575791	0.269515
N31	N	0.320832	0.075804	0.000079
N32	N	0.820832	0.575804	0.500079
C33	C	0.291136	0.075446	0.124690
C34	C	0.791136	0.575446	0.624690
O35	O	0.321856	0.075819	0.230671
O36	O	0.821856	0.575819	0.730671
C37	C	0.231737	0.074727	0.124692
C38	C	0.731737	0.574727	0.624692
C39	C	0.202035	0.074370	0.000085
C40	C	0.702035	0.574370	0.500085
C41	C	0.202025	0.074370	-0.249114
C42	C	0.702025	0.574370	0.250886
C43	C	0.142629	0.073656	-0.249110
C44	C	0.642629	0.573656	0.250890
C45	C	0.112936	0.073299	-0.124509
C46	C	0.612936	0.573299	0.375491
C47	C	0.142639	0.073657	0.000089
C48	C	0.642639	0.573657	0.500089
C49	C	0.202042	0.074364	0.249302
C50	C	0.702042	0.574364	0.749302
C51	C	0.142640	0.073645	0.249293
C52	C	0.642640	0.573645	0.749293
C53	C	0.112937	0.073288	0.124686
C54	C	0.612937	0.573288	0.624686
C55	C	0.053550	0.072586	0.124694
C56	C	0.553550	0.572586	0.624694
N57	N	0.023845	0.072224	0.000095
N58	N	0.523845	0.572224	0.500095
C59	C	0.053538	0.072580	-0.124506
C60	C	0.553538	0.572580	0.375494
C61	C	0.415876	0.076955	0.124676
C62	C	0.915876	0.576955	0.624676
C63	C	0.475272	0.077678	0.124675
C64	C	0.975272	0.577678	0.624675
C65	C	0.475260	0.077673	-0.124536
C66	C	0.975260	0.577673	0.375464
C67	C	0.415862	0.076954	-0.124534
C68	C	0.915862	0.576954	0.375466
C69	C	0.386171	0.076593	0.000077
C70	C	0.886171	0.576593	0.500077
C71	C	-0.071198	0.071082	-0.124488
C72	C	0.428802	0.571082	0.375512
C73	C	-0.130599	0.070370	-0.124473
C74	C	0.369401	0.570370	0.375527
C75	C	-0.130581	0.070372	0.124737
C76	C	0.369419	0.570372	0.624737
C77	C	-0.071186	0.071087	0.124723
C78	C	0.428814	0.571087	0.624723
C79	C	-0.041495	0.071440	0.000099
C80	C	0.458505	0.571440	0.500099
O81	O	0.022786	0.072234	0.230605
O82	O	0.522786	0.572234	0.730605
O83	O	0.022811	0.072199	-0.230470
O84	O	0.522811	0.572199	0.269530
C85	C	0.677086	-0.030126	0.000136
C86	C	1.177086	0.469874	0.500136
C87	C	0.676320	-0.093343	0.000147
C88	C	1.176320	0.406657	0.500147
C89	C	0.723555	-0.492454	0.000081
C90	C	1.223555	0.007546	0.500081
C91	C	0.722844	-0.551854	0.000071
C92	C	1.222844	-0.051854	0.500071
O93	O	0.766630	-0.588606	0.000029
O94	O	1.266630	-0.088606	0.500029
N95	N	0.670566	-0.574471	0.000061
N96	N	1.170566	-0.074471	0.500061
C97	C	0.618997	-0.537685	0.000047
C98	C	1.118997	-0.037685	0.500047
O99	O	0.574465	-0.562377	0.000037
O100	O	1.074465	-0.062377	0.500037
C101	C	0.619709	-0.478286	0.000048
C102	C	1.119709	0.021714	0.500048
C103	C	0.671990	-0.455672	0.000072
C104	C	1.171990	0.044328	0.500072
C105	C	0.775832	-0.469839	0.000104
C106	C	1.275832	0.030161	0.500104
C107	C	0.776543	-0.410443	0.000117
C108	C	1.276543	0.089557	0.500117
C109	C	0.724977	-0.373662	0.000108
C110	C	1.224977	0.126338	0.500108
C111	C	0.672701	-0.396276	0.000085
C112	C	1.172701	0.103724	0.500085
C113	C	0.568140	-0.441501	0.000025
C114	C	1.068140	0.058499	0.500025
C115	C	0.568857	-0.382099	0.000025
C116	C	1.068857	0.117901	0.500025
C117	C	0.621137	-0.359485	0.000048
C118	C	1.121137	0.140515	0.500048
C119	C	0.621847	-0.300099	0.000089
C120	C	1.121847	0.199901	0.500089
N121	N	0.674124	-0.277481	0.000099
N122	N	1.174124	0.222519	0.500099
C123	C	0.725690	-0.314263	0.000108
C124	C	1.225690	0.185737	0.500108
C125	C	0.617505	-0.662427	0.000043
C126	C	1.117505	-0.162427	0.500043
C127	C	0.616793	-0.721825	0.000052
C128	C	1.116793	-0.221825	0.500052
C129	C	0.720640	-0.735990	0.000073
C130	C	1.220640	-0.235990	0.500073
C131	C	0.721352	-0.676591	0.000074
C132	C	1.221352	-0.176591	0.500074
C133	C	0.669783	-0.639810	0.000053
C134	C	1.169783	-0.139810	0.500053
C135	C	0.727179	-0.189526	0.000137
C136	C	1.227179	0.310474	0.500137
C137	C	0.727886	-0.130124	0.000156
C138	C	1.227886	0.369876	0.500156
C139	C	0.624039	-0.115965	0.000128
C140	C	1.124039	0.384035	0.500128
C141	C	0.623332	-0.175361	0.000116
C142	C	1.123332	0.324639	0.500116
C143	C	0.674907	-0.212141	0.000116
C144	C	1.174907	0.287859	0.500116
O145	O	0.578083	-0.263312	0.000125
O146	O	1.078083	0.236688	0.500125
O147	O	0.770214	-0.289562	0.000101
O148	O	1.270214	0.210438	0.500101
C149	C	0.776489	0.069258	0.000125
C150	C	1.276489	0.569258	0.500125
C151	C	0.839708	0.070014	0.000128
C152	C	1.339708	0.570014	0.500128
C153	C	0.667592	0.178171	0.000074
C154	C	1.167592	0.678171	0.500074
C155	C	0.668358	0.241388	0.000054
C156	C	1.168358	0.741388	0.500054
N157	N	0.672342	0.074026	0.356225
N158	N	1.172342	0.574026	0.856225
N159	N	0.672341	0.074015	-0.356012
N160	N	1.172341	0.574015	0.143988
C161	C	0.711289	0.035095	0.428170
C162	C	1.211289	0.535095	0.928170
C163	C	0.711288	0.035088	0.572053
C164	C	1.211288	0.535088	1.072053
C165	C	0.633390	0.112947	0.572033
C166	C	1.133390	0.612947	1.072033
C167	C	0.633389	0.112951	0.428152
C168	C	1.133389	0.612951	0.928152
C169	C	0.750243	-0.003830	0.356243
C170	C	1.250243	0.496170	0.856243
C171	C	0.789194	-0.042763	0.428188
C172	C	1.289194	0.457237	0.928188
C173	C	0.789192	-0.042770	0.572071
C174	C	1.289192	0.457230	1.072071
C175	C	0.750240	-0.003844	0.644009
C176	C	1.250240	0.496156	1.144009
H177	H	0.118451	0.073363	-0.350578
H178	H	0.618451	0.573363	0.149422
F179	F	0.830642	-0.084209	0.648639
F180	F	1.330642	0.415791	1.148639
F181	F	0.233618	0.074748	-0.381744
F182	F	0.733618	0.574748	0.118256
F183	F	0.591935	0.154385	0.351582
F184	F	1.091935	0.654385	0.851582
H185	H	-0.154781	0.070082	-0.225948
H186	H	0.345219	0.570082	0.274052
H187	H	0.391682	0.076664	-0.226000
H188	H	0.891682	0.576664	0.274000
F189	F	0.567689	-0.199430	0.000116
F190	F	1.067689	0.300570	0.500116
F191	F	0.233641	0.074744	0.381929
F192	F	0.733641	0.574744	0.881929
H193	H	0.118468	0.073356	0.350768
H194	H	0.618468	0.573356	0.850768
H195	H	-0.047002	0.071388	0.226188
H196	H	0.452998	0.571388	0.726188
F197	F	0.750249	-0.003824	0.203111
F198	F	1.250249	0.496176	0.703111
H199	H	-0.154768	0.070084	0.226184
H200	H	0.345232	0.570084	0.726184
F201	F	0.512495	-0.465555	-0.000007
F202	F	1.012495	0.034445	0.499993
H203	H	0.750238	-0.003857	0.761168
H204	H	1.250238	0.496143	1.261168
F205	F	0.561148	-0.745886	0.000052
F206	F	1.061148	-0.245886	0.500052
H207	H	0.601677	0.144640	0.630614
H208	H	1.101677	0.644640	1.130614
H209	H	0.499447	0.077963	-0.225993
H210	H	0.999447	0.577963	0.274007
H211	H	0.770461	-0.111716	0.000179
H212	H	1.270461	0.388284	0.500179
H213	H	0.769176	-0.219466	0.000132
H214	H	1.269176	0.280534	0.500132
H215	H	-0.047031	0.071370	-0.225969
H216	H	0.452969	0.571370	0.274031
F217	F	0.830720	-0.508977	0.000113
F218	F	1.330720	-0.008977	0.500113
F219	F	0.506876	0.078068	0.257299
F220	F	1.006876	0.578068	0.757299
H221	H	0.391704	0.076668	0.226155
H222	H	0.891704	0.576668	0.726155
F223	F	0.832188	-0.386384	0.000113
F224	F	1.332188	0.113616	0.500113
H225	H	0.820905	-0.074459	0.369609
H226	H	1.320905	0.425541	0.869609
H227	H	0.763923	-0.658183	0.000092
H228	H	1.263923	-0.158183	0.500092
F229	F	0.775521	-0.775146	0.000076
F230	F	1.275521	-0.275146	0.500076
H231	H	0.575509	-0.632483	0.000038
H232	H	1.075509	-0.132483	0.500038
F233	F	0.513968	-0.342956	-0.000000
F234	F	1.013968	0.157044	0.500000
F235	F	0.569162	-0.076809	0.000118
F236	F	1.069162	0.423191	0.500118
