data_functionalizedCrystal
_audit_creation_method	'MofGen! by Chris Wilmer'
_symmetry_space_group_name_H-M	'P1'
_symmetry_Int_Tables_number	1
_symmetry_cell_setting	triclinic
loop_
_symmetry_equiv_pos_as_xyz
  x,y,z
_cell_length_a	9.065218
_cell_length_b	9.065218
_cell_length_c	8.140239
_cell_angle_alpha	89.997972
_cell_angle_beta	90.004899
_cell_angle_gamma	94.984081
loop_
_atom_site_label
_atom_site_type_symbol
_atom_site_fract_x
_atom_site_fract_y
_atom_site_fract_z
O1	O	-1.960398	0.216356	-0.136692
O2	O	-1.460398	0.716356	0.363308
O3	O	-1.531113	0.234102	-0.136676
O4	O	-1.031113	0.734102	0.363324
O5	O	-1.754629	0.010586	-0.136679
O6	O	-1.254629	0.510586	0.363321
O7	O	-1.736882	0.439871	-0.136688
O8	O	-1.236882	0.939871	0.363312
O9	O	-1.754616	0.010584	0.136548
O10	O	-1.254616	0.510584	0.636548
O11	O	-1.531101	0.234099	0.136551
O12	O	-1.031101	0.734099	0.636551
O13	O	-1.960385	0.216353	0.136535
O14	O	-1.460385	0.716353	0.636535
Zn15	Zn	-1.745741	0.225226	0.179924
Zn16	Zn	-1.245741	0.725226	0.679924
Zn17	Zn	-1.745757	0.225229	-0.180065
Zn18	Zn	-1.245757	0.725229	0.319935
O19	O	-1.736870	0.439869	0.136539
O20	O	-1.236870	0.939869	0.636539
C21	C	-1.476120	0.232395	-0.000061
C22	C	-0.976120	0.732395	0.499939
C23	C	-1.312277	0.227295	-0.000055
C24	C	-0.812277	0.727295	0.499945
C25	C	-1.015378	0.218060	-0.000073
C26	C	-0.515378	0.718060	0.499927
C27	C	-1.179221	0.223159	-0.000060
C28	C	-0.679221	0.723159	0.499940
C29	C	-1.752917	-0.044402	-0.000068
C30	C	-1.252917	0.455598	0.499932
C31	C	-1.747817	-0.208244	-0.000075
C32	C	-1.247817	0.291756	0.499925
C33	C	-1.738581	0.494856	-0.000076
C34	C	-1.238581	0.994856	0.499924
C35	C	-1.743681	0.658699	-0.000080
C36	C	-1.243681	1.158699	0.499920
N37	N	-1.745740	0.225222	0.425607
N38	N	-1.245740	0.725222	0.925607
N39	N	-1.745769	0.225221	-0.425747
N40	N	-1.245769	0.725221	0.074253
