data_functionalizedCrystal
_audit_creation_method	'MofGen! by Chris Wilmer'
_symmetry_space_group_name_H-M	'P1'
_symmetry_Int_Tables_number	1
_symmetry_cell_setting	triclinic
loop_
_symmetry_equiv_pos_as_xyz
  x,y,z
_cell_length_a	19.121063
_cell_length_b	12.594517
_cell_length_c	12.594509
_cell_angle_alpha	89.978673
_cell_angle_beta	87.594190
_cell_angle_gamma	87.531195
loop_
_atom_site_label
_atom_site_type_symbol
_atom_site_fract_x
_atom_site_fract_y
_atom_site_fract_z
Zn1	Zn	-0.279596	-1.609106	0.619881
Zn2	Zn	-0.397059	-1.601367	0.449473
Zn3	Zn	-0.279626	-1.431108	0.441911
Zn4	Zn	-0.397010	-1.423466	0.627400
O5	O	-0.338323	-1.516262	0.534666
O6	O	-0.295185	-1.757025	0.597293
O7	O	-0.381514	-1.578742	0.299526
O8	O	-0.181338	-1.461157	0.459208
O9	O	-0.381485	-1.751339	0.472096
O10	O	-0.181315	-1.591931	0.589961
O11	O	-0.295237	-1.453653	0.293971
O12	O	-0.295189	-1.281149	0.466499
O13	O	-0.381402	-1.448132	0.775346
O14	O	-0.381431	-1.275534	0.602777
O15	O	-0.295138	-1.584521	0.769822
O16	O	-0.495337	-1.571331	0.479386
O17	O	-0.495301	-1.440628	0.610109
C18	C	-0.338309	-1.239722	0.534634
C19	C	-0.338319	-1.121416	0.534646
C20	C	-0.520803	-1.504339	0.546407
C21	C	-0.598868	-1.499336	0.551466
C22	C	-0.338261	-1.516337	0.812283
C23	C	-0.338235	-1.516369	0.930587
C24	C	-0.635539	-1.565089	0.485838
C25	C	-0.708890	-1.560390	0.490602
C26	C	-0.745569	-1.489932	0.560988
C27	C	-0.708893	-1.424176	0.626623
C28	C	-0.635544	-1.428881	0.621864
C29	C	-0.967038	-1.472323	0.578765
C30	C	-1.040393	-1.467620	0.583517
C31	C	-1.040385	-1.603835	0.447497
C32	C	-0.967034	-1.608530	0.442740
C33	C	-0.930365	-1.542779	0.508378
C34	C	-0.820546	-1.485124	0.565857
C35	C	-0.855389	-1.547592	0.503514
C36	C	-0.155130	-1.528260	0.522903
C37	C	-0.077064	-1.533373	0.517890
C38	C	-0.338337	-1.793882	0.534699
C39	C	-0.338343	-1.912187	0.534713
C40	C	-0.291349	-1.055190	0.460657
C41	C	-0.355414	-0.980217	0.438606
C42	C	-0.274285	-0.985587	0.556717
C43	C	-0.402419	-1.047999	0.512547
C44	C	-0.321246	-1.053378	0.630701
C45	C	-0.385356	-0.978435	0.608690
C46	C	-0.338333	-1.516251	0.258126
C47	C	-0.338162	-1.516438	0.139810
C48	C	-0.385127	-1.442211	1.002843
C49	C	-0.402288	-1.538217	1.074740
C50	C	-0.321032	-1.420442	1.069487
C51	C	-0.355429	-1.612424	1.000927
C52	C	-0.274143	-1.494585	0.995667
C53	C	-0.291280	-1.590659	1.067530
H54	H	-0.605680	-1.622458	0.428518
H55	H	-0.219990	-1.476092	0.961048
H56	H	-0.424844	-1.379541	0.974345
H57	H	-0.456598	-1.075422	0.493817
C58	C	-1.080746	-1.390124	0.660955
C59	C	-1.131242	-1.303346	0.618038
C60	C	-1.171597	-1.225857	0.695472
C61	C	-1.161456	-1.235147	0.815822
C62	C	-1.110957	-1.321929	0.858745
C63	C	-1.070602	-1.399417	0.781312
H64	H	-1.138752	-1.296466	0.528942
H65	H	-1.208980	-1.161616	0.663697
H66	H	-1.191329	-1.177785	0.873143
H67	H	-1.103448	-1.328809	0.947841
H68	H	-1.033220	-1.463659	0.813087
C69	C	-0.301408	-1.310812	1.110218
C70	C	-0.347321	-1.211206	1.085245
C71	C	-0.327703	-1.101574	1.125971
C72	C	-0.262173	-1.091548	1.191670
C73	C	-0.216256	-1.191157	1.216646
C74	C	-0.235873	-1.300789	1.175920
H75	H	-0.395834	-1.218624	1.036608
H76	H	-0.361694	-1.027836	1.107482
H77	H	-0.247651	-1.010392	1.221817
H78	H	-0.167743	-1.183739	1.265283
H79	H	-0.201882	-1.374527	1.194410
H80	H	-0.251593	-1.653471	1.095834
H81	H	-0.456457	-1.556680	1.109336
H82	H	-0.306771	-1.085502	0.711878
C83	C	-0.375133	-1.722086	0.960390
C84	C	-0.329621	-1.821843	0.986267
C85	C	-0.349326	-1.931503	0.945730
C86	C	-0.414545	-1.941405	0.879316
C87	C	-0.460062	-1.841645	0.853435
C88	C	-0.440356	-1.731985	0.893972
H89	H	-0.281338	-1.814516	1.035435
H90	H	-0.315631	-2.005352	0.964889
H91	H	-0.429132	-2.022582	0.849307
H92	H	-0.508344	-1.848972	0.804267
H93	H	-0.474051	-1.658136	0.874813
C94	C	-0.749224	-1.632725	0.418411
C95	C	-0.739206	-1.624750	0.296753
C96	C	-0.779538	-1.697095	0.224562
C97	C	-0.829886	-1.777416	0.274028
C98	C	-0.839906	-1.785395	0.395693
C99	C	-0.799575	-1.713050	0.467884
H100	H	-0.701933	-1.565288	0.260130
H101	H	-0.772120	-1.691188	0.134498
H102	H	-0.859742	-1.830970	0.220588
H103	H	-0.877179	-1.844856	0.432317
H104	H	-0.806992	-1.718957	0.557948
H105	H	-1.070249	-1.657368	0.394060
C106	C	-0.926713	-1.399987	0.650961
C107	C	-0.876355	-1.319673	0.601505
C108	C	-0.836028	-1.247331	0.673706
C109	C	-0.846059	-1.255304	0.795362
C110	C	-0.896419	-1.335621	0.844825
C111	C	-0.936746	-1.407962	0.772624
H112	H	-0.868927	-1.313769	0.511442
H113	H	-0.798748	-1.187875	0.637090
H114	H	-0.816206	-1.201752	0.848810
H115	H	-0.903846	-1.341525	0.934888
H116	H	-0.974026	-1.467419	0.809240
C117	C	-0.595202	-1.356551	0.694052
C118	C	-0.544841	-1.276246	0.644588
C119	C	-0.504499	-1.203917	0.716782
C120	C	-0.514519	-1.211893	0.838439
C121	C	-0.564883	-1.292201	0.887910
C122	C	-0.605224	-1.364530	0.815716
H123	H	-0.537421	-1.270338	0.554524
H124	H	-0.467217	-1.144467	0.680160
H125	H	-0.484656	-1.158351	0.891882
H126	H	-0.572302	-1.298108	0.977974
H127	H	-0.642506	-1.423979	0.852337
C128	C	-0.374941	-0.936855	0.328907
C129	C	-0.379154	-0.816125	0.309131
C130	C	-0.398673	-0.772773	0.199427
C131	C	-0.413979	-0.850150	0.109498
C132	C	-0.409766	-0.970887	0.129271
C133	C	-0.390247	-1.014240	0.238975
H134	H	-0.367823	-0.758839	0.375704
H135	H	-0.401791	-0.683395	0.184791
H136	H	-0.428428	-0.818058	0.028289
H137	H	-0.421097	-1.028173	0.062698
H138	H	-0.387129	-1.103618	0.253612
C139	C	-0.201117	-0.948363	0.581909
C140	C	-0.137321	-0.980395	0.508380
C141	C	-0.064152	-0.943174	0.533561
C142	C	-0.054778	-0.873923	0.632271
C143	C	-0.118575	-0.841887	0.705806
C144	C	-0.191745	-0.879108	0.680626
H145	H	-0.144259	-1.031662	0.435303
H146	H	-0.016925	-0.966890	0.479124
H147	H	-0.000614	-0.846370	0.650911
H148	H	-0.111638	-0.790620	0.778883
H149	H	-0.238972	-0.855392	0.735062
H150	H	-0.937172	-1.665902	0.385426
C151	C	-0.439090	-0.933290	0.693260
C152	C	-0.448686	-0.812290	0.709598
C153	C	-0.502422	-0.767143	0.794162
C154	C	-0.546563	-0.842998	0.862388
C155	C	-0.536969	-0.964006	0.846052
C156	C	-0.483233	-1.009152	0.761488
H157	H	-0.416009	-0.756131	0.659091
H158	H	-0.509524	-0.677565	0.806254
H159	H	-0.586342	-0.809578	0.924987
H160	H	-0.569646	-1.020165	0.896559
H161	H	-0.476131	-1.098731	0.749396
H162	H	-0.825523	-1.604963	0.446209
H163	H	-0.738763	-1.366812	0.683937
H164	H	-0.850418	-1.427755	0.623164
H165	H	-0.251666	-1.088788	0.398014
