data_functionalizedCrystal
_audit_creation_method	'MofGen! by Chris Wilmer'
_symmetry_space_group_name_H-M	'P1'
_symmetry_Int_Tables_number	1
_symmetry_cell_setting	triclinic
loop_
_symmetry_equiv_pos_as_xyz
  x,y,z
_cell_length_a	10.654550
_cell_length_b	11.792254
_cell_length_c	9.130313
_cell_angle_alpha	89.998555
_cell_angle_beta	89.996220
_cell_angle_gamma	84.341750
loop_
_atom_site_label
_atom_site_type_symbol
_atom_site_fract_x
_atom_site_fract_y
_atom_site_fract_z
O1	O	1.667391	0.159414	-0.121921
O2	O	1.301870	0.174602	-0.121897
O3	O	1.493493	0.001859	-0.121899
O4	O	1.475769	0.332157	-0.121919
O5	O	1.493490	0.001864	0.121700
O6	O	1.301868	0.174607	0.121702
O7	O	1.667389	0.159418	0.121678
Cu8	Cu	1.484628	0.167013	0.143932
Cu9	Cu	1.484631	0.167008	-0.144151
O10	O	1.475767	0.332162	0.121680
C11	C	1.255074	0.173489	-0.000095
C12	C	1.115640	0.170153	-0.000086
C13	C	1.035872	0.271861	-0.000113
C14	C	0.904860	0.268719	-0.000138
C15	C	0.933397	0.062152	-0.000114
C16	C	1.064407	0.065295	-0.000079
C17	C	1.019395	0.391122	-0.000133
C18	C	0.888383	0.387980	-0.000158
C19	C	1.492375	-0.040432	-0.000100
C20	C	1.489033	-0.166453	-0.000101
C21	C	1.486318	-0.268796	-0.000106
C22	C	1.482923	-0.397190	-0.000119
C23	C	1.714185	0.160531	-0.000127
C24	C	1.853619	0.163868	-0.000146
C25	C	1.476884	0.374453	-0.000122
C26	C	1.480226	0.500473	-0.000131
N27	N	1.484635	0.167016	0.346555
N28	N	1.484634	0.166995	-0.346774
C29	C	1.569508	0.090552	0.423206
C30	C	1.569504	0.090538	0.576543
C31	C	1.399752	0.243464	0.576564
C32	C	1.399751	0.243471	0.423230
C33	C	1.667516	0.002265	0.423195
C34	C	1.667513	0.002251	0.576532
H35	H	0.842611	0.424024	0.105008
H36	H	1.054946	0.429094	-0.105307
C37	C	1.058860	0.454131	0.137581
H38	H	1.147762	0.456270	0.137589
H39	H	1.034484	0.415286	0.222538
H40	H	1.018692	0.529722	0.137556
H41	H	1.330641	0.305710	0.639009
C42	C	1.790593	0.039596	0.358926
H43	H	1.845405	0.056211	0.436411
H44	H	1.771898	0.105689	0.300366
H45	H	1.830419	-0.020096	0.300366
H46	H	1.646316	-0.084976	0.381582
H47	H	1.129351	-0.017526	-0.000036
C48	C	0.831850	0.448526	-0.137995
H49	H	0.897504	0.475563	-0.194662
H50	H	0.773631	0.510937	-0.109862
H51	H	0.789562	0.396372	-0.194544
C52	C	1.306385	0.327574	0.338918
H53	H	1.255842	0.373111	0.406547
H54	H	1.253836	0.286303	0.279104
H55	H	1.351881	0.375216	0.279104
H56	H	1.637229	-0.080191	0.624086
C57	C	1.797809	0.028525	0.632754
H58	H	1.851393	0.039351	0.551822
H59	H	1.833720	-0.033363	0.690545
H60	H	1.788692	0.095817	0.690562
H61	H	0.891667	-0.023221	-0.000132
