data_functionalizedCrystal
_audit_creation_method	'MofGen! by Chris Wilmer'
_symmetry_space_group_name_H-M	'P1'
_symmetry_Int_Tables_number	1
_symmetry_cell_setting	triclinic
loop_
_symmetry_equiv_pos_as_xyz
  x,y,z
_cell_length_a	29.839134
_cell_length_b	21.295417
_cell_length_c	29.839104
_cell_angle_alpha	90.132525
_cell_angle_beta	89.913447
_cell_angle_gamma	89.974633
loop_
_atom_site_label
_atom_site_type_symbol
_atom_site_fract_x
_atom_site_fract_y
_atom_site_fract_z
Zn1	Zn	0.687040	0.250078	-0.254122
Zn2	Zn	1.187040	0.750078	0.245878
Zn3	Zn	0.686902	0.355534	-0.178990
Zn4	Zn	1.186902	0.855534	0.321010
Zn5	Zn	0.611838	0.250273	-0.178991
Zn6	Zn	1.111838	0.750273	0.321009
Zn7	Zn	0.611885	0.355304	-0.254079
Zn8	Zn	1.111885	0.855304	0.245921
O9	O	0.649416	0.302797	-0.216546
O10	O	1.149416	0.802797	0.283454
O11	O	0.749889	0.264081	-0.244173
O12	O	1.249889	0.764081	0.255827
O13	O	0.676867	0.341748	-0.116123
O14	O	1.176867	0.841748	0.383877
O15	O	0.621852	0.162157	-0.188976
O16	O	1.121852	0.662157	0.311024
O17	O	0.749787	0.341559	-0.188974
O18	O	1.249787	0.841559	0.311026
O19	O	0.677103	0.162014	-0.244175
O20	O	1.177103	0.662014	0.255825
O21	O	0.621718	0.264413	-0.116124
O22	O	1.121718	0.764413	0.383876
O23	O	0.548977	0.264191	-0.188934
O24	O	1.048977	0.764191	0.311066
O25	O	0.621932	0.341168	-0.316952
O26	O	1.121932	0.841168	0.183048
O27	O	0.549012	0.341357	-0.244101
O28	O	1.049012	0.841357	0.255899
O29	O	0.677148	0.263859	-0.316984
O30	O	1.177148	0.763859	0.183016
O31	O	0.676913	0.443593	-0.188932
O32	O	1.176913	0.943593	0.311068
O33	O	0.621798	0.443424	-0.244099
O34	O	1.121798	0.943424	0.255901
C35	C	0.649358	0.466349	-0.216521
C36	C	1.149358	0.966349	0.283479
C37	C	0.649373	0.536317	-0.216525
C38	C	1.149373	1.036317	0.283475
C39	C	0.532694	0.302770	-0.216513
C40	C	1.032694	0.802770	0.283487
C41	C	0.482759	0.302774	-0.216510
C42	C	0.982759	0.802774	0.283490
C43	C	0.649561	0.302466	-0.333725
C44	C	1.149561	0.802466	0.166275
C45	C	0.649622	0.302325	-0.383659
C46	C	1.149622	0.802325	0.116341
C47	C	0.173143	0.343037	-0.245236
C48	C	0.673143	0.843037	0.254764
C49	C	-0.014530	0.343055	-0.245256
C50	C	0.485470	0.843055	0.254744
O51	O	-0.038771	0.377258	-0.269660
O52	O	0.461229	0.877258	0.230340
N53	N	-0.038026	0.302820	-0.216579
N54	N	0.461974	0.802820	0.283421
C55	C	-0.014600	0.262575	-0.187898
C56	C	0.485400	0.762575	0.312102
O57	O	-0.038891	0.228349	-0.163511
O58	O	0.461109	0.728349	0.336489
C59	C	0.173072	0.262555	-0.187881
C60	C	0.673072	0.762555	0.312119
C61	C	0.196565	0.302797	-0.216556
C62	C	0.696565	0.802797	0.283444
C63	C	0.196637	0.383275	-0.273908
C64	C	0.696637	0.883275	0.226092
C65	C	0.243552	0.383273	-0.273901
C66	C	0.743552	0.883273	0.226099
C67	C	0.266974	0.343032	-0.245222
C68	C	0.766974	0.843032	0.254778
C69	C	0.243481	0.302794	-0.216549
C70	C	0.743481	0.802794	0.283451
C71	C	0.196496	0.222307	-0.159203
C72	C	0.696496	0.722307	0.340797
C73	C	0.243417	0.222305	-0.159202
C74	C	0.743417	0.722305	0.340798
C75	C	0.266911	0.262546	-0.187876
C76	C	0.766911	0.762546	0.312124
C77	C	0.313818	0.262551	-0.187862
C78	C	0.813818	0.762551	0.312138
N79	N	0.337314	0.302786	-0.216538
N80	N	0.837314	0.802786	0.283462
C81	C	0.313892	0.343026	-0.245218
C82	C	0.813892	0.843026	0.254782
C83	C	-0.113131	0.262590	-0.187909
C84	C	0.386869	0.762590	0.312091
C85	C	-0.160049	0.262595	-0.187913
C86	C	0.339951	0.762595	0.312087
C87	C	-0.159975	0.343074	-0.245270
C88	C	0.340025	0.843074	0.254730
C89	C	-0.113056	0.343071	-0.245264
C90	C	0.386944	0.843071	0.254736
C91	C	-0.089635	0.302824	-0.216585
C92	C	0.410365	0.802824	0.283415
C93	C	0.412418	0.343019	-0.245201
C94	C	0.912418	0.843019	0.254799
C95	C	0.459338	0.343015	-0.245190
C96	C	0.959338	0.843015	0.254810
C97	C	0.459259	0.262534	-0.187834
C98	C	0.959259	0.762534	0.312166
C99	C	0.412344	0.262540	-0.187843
C100	C	0.912344	0.762540	0.312157
C101	C	0.388924	0.302784	-0.216530
C102	C	0.888924	0.802784	0.283470
O103	O	0.338089	0.228361	-0.163474
O104	O	0.838089	0.728361	0.336526
O105	O	0.338191	0.377238	-0.269608
O106	O	0.838191	0.877238	0.230392
C107	C	0.126228	0.343039	-0.245243
C108	C	0.626228	0.843039	0.254757
C109	C	0.102734	0.302801	-0.216570
C110	C	0.602734	0.802801	0.283430
C111	C	0.126156	0.262561	-0.187890
C112	C	0.626156	0.762561	0.312110
C113	C	0.055817	0.302807	-0.216574
C114	C	0.555817	0.802807	0.283426
C115	C	0.032395	0.343048	-0.245253
C116	C	0.532395	0.843048	0.254747
C117	C	0.055891	0.383282	-0.273929
C118	C	0.555891	0.883282	0.226071
C119	C	0.102806	0.383280	-0.273922
C120	C	0.602806	0.883280	0.226078
C121	C	0.102660	0.222326	-0.159214
C122	C	0.602660	0.722326	0.340786
C123	C	0.055745	0.222333	-0.159223
C124	C	0.555745	0.722333	0.340777
C125	C	0.032323	0.262573	-0.187903
C126	C	0.532323	0.762573	0.312097
C127	C	0.766595	0.302824	-0.216578
C128	C	1.266595	0.802824	0.283422
C129	C	0.816529	0.302836	-0.216592
C130	C	1.316529	0.802836	0.283408
C131	C	0.649488	0.138607	-0.216580
C132	C	1.149488	0.638607	0.283420
C133	C	0.649518	0.068639	-0.216595
C134	C	1.149518	0.568639	0.283405
C135	C	0.678097	0.569250	-0.187829
C136	C	1.178097	1.069250	0.312171
C137	C	0.678118	0.634993	-0.187839
C138	C	1.178118	1.134993	0.312161
C139	C	0.649408	0.667799	-0.216541
C140	C	1.149408	1.167799	0.283459
C141	C	0.620682	0.634858	-0.245242
C142	C	1.120682	1.134858	0.254758
C143	C	0.620665	0.569117	-0.245235
C144	C	1.120665	1.069117	0.254765
N145	N	0.610111	0.771052	-0.219955
N146	N	1.110111	1.271052	0.280045
N147	N	0.610128	0.833503	-0.219959
N148	N	1.110128	1.333503	0.280041
C149	C	0.649458	0.865874	-0.216566
C150	C	1.149458	1.365874	0.283434
N151	N	0.688770	0.833434	-0.213160
N152	N	1.188770	1.333434	0.286840
N153	N	0.688752	0.770977	-0.213153
N154	N	1.188752	1.270977	0.286847
C155	C	0.649423	0.739085	-0.216552
C156	C	1.149423	1.239085	0.283448
C157	C	0.678207	0.970093	-0.187880
C158	C	1.178207	1.470093	0.312120
C159	C	0.678229	1.035837	-0.187893
C160	C	1.178229	1.535837	0.312107
C161	C	0.620788	1.035700	-0.245294
C162	C	1.120788	1.535700	0.254706
C163	C	0.620770	0.969958	-0.245283
C164	C	1.120770	1.469958	0.254717
C165	C	0.649479	0.937158	-0.216573
C166	C	1.149479	1.437158	0.283427
C167	C	0.649299	0.303081	-0.099823
C168	C	1.149299	0.803081	0.400177
C169	C	0.649324	0.303045	-0.049888
C170	C	1.149324	0.803045	0.450112
C171	C	0.678413	0.342627	0.306721
C172	C	1.178413	0.842627	0.806721
C173	C	0.678326	0.342831	0.119048
C174	C	1.178326	0.842831	0.619048
O175	O	0.702923	0.376831	0.094802
O176	O	1.202923	0.876831	0.594802
N177	N	0.649394	0.302886	0.095557
N178	N	1.149394	0.802886	0.595557
C179	C	0.620484	0.262884	0.118986
C180	C	1.120484	0.762884	0.618986
O181	O	0.595877	0.228908	0.094699
O182	O	1.095877	0.728908	0.594699
C183	C	0.620574	0.262678	0.306658
C184	C	1.120574	0.762678	0.806658
C185	C	0.649505	0.302630	0.330147
C186	C	1.149505	0.802630	0.830147
C187	C	0.707342	0.382576	0.330209
C188	C	1.207342	0.882576	0.830209
C189	C	0.707362	0.382527	0.377125
C190	C	1.207362	0.882527	0.877125
C191	C	0.678453	0.342530	0.400551
C192	C	1.178453	0.842530	0.900551
C193	C	0.649524	0.302581	0.377062
C194	C	1.149524	0.802581	0.877062
C195	C	0.591666	0.222674	0.330087
C196	C	1.091666	0.722674	0.830087
C197	C	0.591692	0.222625	0.377008
C198	C	1.091692	0.722625	0.877008
C199	C	0.620623	0.262577	0.400497
C200	C	1.120623	0.762577	0.900497
C201	C	0.620635	0.262535	0.447404
C202	C	1.120635	0.762535	0.947404
N203	N	0.649567	0.302480	0.470896
N204	N	1.149567	0.802480	0.970896
C205	C	0.678476	0.342478	0.447469
C206	C	1.178476	0.842478	0.947469
C207	C	0.620438	0.262996	0.020456
C208	C	1.120438	0.762996	0.520456
C209	C	0.620415	0.263048	-0.026462
C210	C	1.120415	0.763048	0.473538
C211	C	0.678258	0.342994	-0.026397
C212	C	1.178258	0.842994	0.473603
C213	C	0.678279	0.342944	0.020522
C214	C	1.178279	0.842944	0.520522
C215	C	0.649370	0.302941	0.043947
C216	C	1.149370	0.802941	0.543947
C217	C	0.678515	0.342372	0.545995
C218	C	1.178515	0.842372	1.045995
C219	C	0.678531	0.342322	0.592914
C220	C	1.178531	0.842322	1.092914
C221	C	0.620690	0.262374	0.592846
C222	C	1.120690	0.762374	1.092846
C223	C	0.620672	0.262427	0.545930
C224	C	1.120672	0.762427	1.045930
C225	C	0.649589	0.302428	0.522506
C226	C	1.149589	0.802428	1.022506
O227	O	0.596055	0.228548	0.471679
O228	O	1.096055	0.728548	0.971679
O229	O	0.703086	0.376438	0.471764
O230	O	1.203086	0.876438	0.971764
C231	C	0.678394	0.342676	0.259805
C232	C	1.178394	0.842676	0.759805
C233	C	0.649465	0.302728	0.236316
C234	C	1.149465	0.802728	0.736316
C235	C	0.620556	0.262731	0.259743
C236	C	1.120556	0.762731	0.759743
C237	C	0.649442	0.302780	0.189399
C238	C	1.149442	0.802780	0.689399
C239	C	0.678351	0.342777	0.165972
C240	C	1.178351	0.842777	0.665972
C241	C	0.707283	0.382722	0.189463
C242	C	1.207283	0.882722	0.689463
C243	C	0.707302	0.382673	0.236379
C244	C	1.207302	0.882673	0.736379
C245	C	0.591624	0.222786	0.236252
C246	C	1.091624	0.722786	0.736252
C247	C	0.591606	0.222838	0.189336
C248	C	1.091606	0.722838	0.689336
C249	C	0.620515	0.262835	0.165910
C250	C	1.120515	0.762835	0.665910
H251	H	0.478464	0.375787	-0.268541
H252	H	0.978464	0.875787	0.231459
H253	H	0.568044	0.190305	0.170216
H254	H	1.068044	0.690305	0.670216
H255	H	0.597274	0.542301	-0.268603
H256	H	1.097274	1.042301	0.231397
C257	C	0.560307	0.179283	0.261706
C258	C	1.060307	0.679283	0.761706
C259	C	0.585559	0.138640	0.288497
C260	C	1.085559	0.638640	0.788497
C261	C	0.556721	0.098551	0.311945
C262	C	1.056721	0.598551	0.811945
H263	H	0.540845	0.203465	0.280134
H264	H	1.040845	0.703465	0.780134
H265	H	0.543083	0.155466	0.241007
H266	H	1.043083	0.655466	0.741007
H267	H	0.602775	0.162454	0.309194
H268	H	1.102775	0.662454	0.809194
H269	H	0.605020	0.114443	0.270080
H270	H	1.105020	0.614443	0.770080
H271	H	0.539496	0.074735	0.291246
H272	H	1.039496	0.574735	0.791246
H273	H	0.537260	0.122739	0.330371
H274	H	1.037260	0.622739	0.830371
H275	H	0.573850	0.070967	0.330123
H276	H	1.073850	0.570967	0.830123
C277	C	0.560278	0.179295	0.402499
C278	C	1.060278	0.679295	0.902499
C279	C	0.531669	0.215190	0.429577
C280	C	1.031669	0.715190	0.929577
C281	C	0.502728	0.175299	0.453070
C282	C	1.002728	0.675299	0.953070
H283	H	0.543004	0.155497	0.381840
H284	H	1.043004	0.655497	0.881840
H285	H	0.577329	0.151689	0.420735
H286	H	1.077329	0.651689	0.920735
H287	H	0.514620	0.242785	0.411343
H288	H	1.014620	0.742785	0.911343
H289	H	0.548931	0.238987	0.450245
H290	H	1.048931	0.738987	0.950245
H291	H	0.519780	0.147692	0.471305
H292	H	1.019780	0.647692	0.971305
H293	H	0.485457	0.151503	0.432407
H294	H	0.985457	0.651503	0.932407
H295	H	0.483317	0.199647	0.471448
H296	H	0.983317	0.699647	0.971448
H297	H	0.597152	0.229812	0.611928
H298	H	1.097152	0.729812	1.111928
H299	H	0.597306	0.661573	-0.268612
H300	H	1.097306	1.161573	0.231388
H301	H	0.730919	0.415062	0.396245
H302	H	1.230919	0.915062	0.896245
C303	C	0.589242	0.218987	0.520506
C304	C	1.089242	0.718987	1.020506
C305	C	0.563935	0.183941	0.551067
C306	C	1.063935	0.683941	1.051067
C307	C	0.534984	0.143907	0.527666
C308	C	1.034984	0.643907	1.027666
H309	H	0.569734	0.243207	0.502290
H310	H	1.069734	0.743207	1.002290
H311	H	0.606280	0.191373	0.502122
H312	H	1.106280	0.691373	1.002122
H313	H	0.546898	0.211551	0.569443
H314	H	1.046898	0.711551	1.069443
H315	H	0.583431	0.159708	0.569284
H316	H	1.083431	0.659708	1.069284
H317	H	0.552022	0.116293	0.509282
H318	H	1.052022	0.616293	1.009282
H319	H	0.515479	0.168132	0.509451
H320	H	1.015479	0.668132	1.009451
H321	H	0.517813	0.120119	0.548398
H322	H	1.017813	0.620119	1.048398
H323	H	0.393355	0.375788	-0.268561
H324	H	0.893355	0.875788	0.231439
C325	C	0.268975	0.426983	-0.305088
C326	C	0.768975	0.926983	0.194912
C327	C	0.238413	0.462207	-0.330211
C328	C	0.738413	0.962207	0.169789
C329	C	0.261812	0.502473	-0.358952
C330	C	0.761812	1.002473	0.141048
H331	H	0.287245	0.454480	-0.287919
H332	H	0.787245	0.954480	0.212081
H333	H	0.287305	0.402902	-0.324718
H334	H	0.787305	0.902902	0.175282
H335	H	0.220091	0.486286	-0.310584
H336	H	0.720091	0.986286	0.189416
H337	H	0.220142	0.434726	-0.347389
H338	H	0.720142	0.934726	0.152611
H339	H	0.280142	0.478393	-0.378582
H340	H	0.780142	0.978393	0.121418
H341	H	0.280081	0.529967	-0.341779
H342	H	0.780081	1.029967	0.158221
H343	H	0.241079	0.526373	-0.376004
H344	H	0.741079	1.026373	0.123996
H345	H	0.596896	0.230419	0.039525
H346	H	1.096896	0.730419	0.539525
C347	C	0.738765	0.426071	0.261796
C348	C	1.238765	0.926071	0.761796
C349	C	0.764083	0.461092	0.231230
C350	C	1.264083	0.961092	0.731230
C351	C	0.793077	0.501072	0.254624
C352	C	1.293077	1.001072	0.754624
H353	H	0.721771	0.453707	0.280195
H354	H	1.221771	0.953707	0.780195
H355	H	0.758260	0.401794	0.279996
H356	H	1.258260	0.901794	0.779996
H357	H	0.744590	0.485368	0.213037
H358	H	1.244590	0.985368	0.713037
H359	H	0.781085	0.433473	0.212830
H360	H	1.281085	0.933473	0.712830
H361	H	0.812572	0.476795	0.272824
H362	H	1.312572	0.976795	0.772824
H363	H	0.776080	0.528704	0.273022
H364	H	1.276080	1.028704	0.773022
H365	H	0.810261	0.524835	0.233889
H366	H	1.310261	1.024835	0.733889
H367	H	0.036620	0.189564	-0.135868
H368	H	0.536620	0.689564	0.364132
C369	C	0.709225	0.670832	-0.156642
C370	C	1.209225	1.170832	0.343358
C371	C	0.683771	0.708703	-0.127836
C372	C	1.183771	1.208703	0.372164
C373	C	0.712408	0.741726	-0.099091
C374	C	1.212408	1.241726	0.400909
H375	H	0.726325	0.641947	-0.139501
H376	H	1.226325	1.141947	0.360499
H377	H	0.728812	0.696440	-0.173827
H378	H	1.228812	1.196440	0.326173
H379	H	0.664192	0.683097	-0.110653
H380	H	1.164192	1.183097	0.389347
H381	H	0.666672	0.737599	-0.144965
H382	H	1.166672	1.237599	0.355035
H383	H	0.731995	0.767334	-0.116275
H384	H	1.231995	1.267334	0.383725
H385	H	0.729506	0.712838	-0.081953
H386	H	1.229506	1.212838	0.418047
H387	H	0.695142	0.767430	-0.079545
H388	H	1.195142	1.267430	0.420455
H389	H	0.730820	0.415290	0.170381
H390	H	1.230820	0.915290	0.670381
H391	H	0.568107	0.190141	0.310971
H392	H	1.068107	0.690141	0.810971
H393	H	0.177572	0.416044	-0.297265
H394	H	0.677572	0.916044	0.202735
H395	H	0.121930	0.416049	-0.297273
H396	H	0.621930	0.916049	0.202727
C397	C	-0.087632	0.386782	-0.276449
C398	C	0.412368	0.886782	0.223551
C399	C	-0.118192	0.422010	-0.301571
C400	C	0.381808	0.922010	0.198429
C401	C	-0.094791	0.462277	-0.330310
C402	C	0.405209	0.962277	0.169690
H403	H	-0.069361	0.414276	-0.259279
H404	H	0.430639	0.914276	0.240721
H405	H	-0.069304	0.362700	-0.296080
H406	H	0.430696	0.862700	0.203920
H407	H	-0.136513	0.446090	-0.281943
H408	H	0.363487	0.946090	0.218057
H409	H	-0.136464	0.394533	-0.318751
H410	H	0.363536	0.894533	0.181249
H411	H	-0.076462	0.438196	-0.349941
H412	H	0.423538	0.938196	0.150059
H413	H	-0.076520	0.489767	-0.313136
H414	H	0.423480	0.989767	0.186864
H415	H	-0.115522	0.486181	-0.347362
H416	H	0.384478	0.986181	0.152638
H417	H	-0.179053	0.375839	-0.268623
H418	H	0.320947	0.875839	0.231377
H419	H	-0.179173	0.229833	-0.164558
H420	H	0.320827	0.729833	0.335442
C421	C	0.709919	0.385802	0.618359
C422	C	1.209919	0.885802	1.118359
C423	C	0.700433	0.448190	0.607090
C424	C	1.200433	0.948190	1.107090
C425	C	0.729341	0.488258	0.630514
C426	C	1.229341	0.988258	1.130514
H427	H	0.705821	0.380133	0.649664
H428	H	1.205821	0.880133	1.149664
H429	H	0.740064	0.376335	0.610580
H430	H	1.240064	0.876335	1.110580
H431	H	0.670295	0.457654	0.614872
H432	H	1.170295	0.957654	1.114872
H433	H	0.704534	0.453879	0.575789
H434	H	1.204534	0.953879	1.075789
H435	H	0.759486	0.478792	0.622735
H436	H	1.259486	0.978792	1.122735
H437	H	0.725241	0.482584	0.661818
H438	H	1.225241	0.982584	1.161818
H439	H	0.722912	0.530593	0.622868
H440	H	1.222912	1.030593	1.122868
C441	C	-0.087787	0.218869	-0.156718
C442	C	0.412213	0.718869	0.343282
C443	C	-0.118411	0.183652	-0.131600
C444	C	0.381589	0.683652	0.368400
C445	C	-0.095084	0.143377	-0.102857
C446	C	0.404916	0.643377	0.397143
H447	H	-0.069449	0.191367	-0.173885
H448	H	0.430551	0.691367	0.326115
H449	H	-0.069532	0.242944	-0.137084
H450	H	0.430468	0.742944	0.362916
H451	H	-0.136659	0.159578	-0.151231
H452	H	0.363341	0.659578	0.348769
H453	H	-0.136751	0.211136	-0.114424
H454	H	0.363249	0.711136	0.385576
H455	H	-0.076829	0.167452	-0.083223
H456	H	0.423171	0.667452	0.416777
H457	H	-0.076746	0.115880	-0.120027
H458	H	0.423254	0.615880	0.379973
H459	H	-0.115859	0.119482	-0.085808
H460	H	0.384141	0.619482	0.414192
H461	H	0.177376	0.189540	-0.135851
H462	H	0.677376	0.689540	0.364149
H463	H	0.597413	1.062411	-0.268665
H464	H	1.097413	1.562411	0.231335
C465	C	0.709516	1.071595	-0.156834
C466	C	1.209516	1.571595	0.343166
C467	C	0.738341	1.109160	-0.182339
C468	C	1.238341	1.609160	0.317661
C469	C	0.767192	1.142088	-0.153754
C470	C	1.267192	1.642088	0.346246
H471	H	0.692424	1.097405	-0.137215
H472	H	1.192424	1.597405	0.362785
H473	H	0.726635	1.042635	-0.139766
H474	H	1.226635	1.542635	0.360234
H475	H	0.721224	1.138117	-0.199400
H476	H	1.221224	1.638117	0.300600
H477	H	0.755443	1.083366	-0.201956
H478	H	1.255443	1.583366	0.298044
H479	H	0.784311	1.113128	-0.136685
H480	H	1.284311	1.613128	0.363315
H481	H	0.750096	1.167895	-0.134136
H482	H	1.250096	1.667895	0.365864
H483	H	0.786756	1.167576	-0.171055
H484	H	1.286756	1.667576	0.328945
H485	H	0.597379	0.943142	-0.268648
H486	H	1.097379	1.443142	0.231352
C487	C	0.709739	0.386343	0.045940
C488	C	1.209739	0.886343	0.545940
C489	C	0.735056	0.421370	0.015376
C490	C	1.235056	0.921370	0.515376
C491	C	0.764048	0.461350	0.038773
C492	C	1.264048	0.961350	0.538773
H493	H	0.692744	0.413975	0.064340
H494	H	1.192744	0.913975	0.564340
H495	H	0.729236	0.362066	0.064140
H496	H	1.229236	0.862066	0.564140
H497	H	0.715562	0.445645	-0.002815
H498	H	1.215562	0.945645	0.497185
H499	H	0.752060	0.393754	-0.003025
H500	H	1.252060	0.893754	0.496975
H501	H	0.783544	0.437073	0.056972
H502	H	1.283544	0.937073	0.556972
H503	H	0.747049	0.488979	0.057172
H504	H	1.247049	0.988979	0.557172
H505	H	0.781231	0.485117	0.018039
H506	H	1.281231	0.985117	0.518039
H507	H	0.702062	0.374944	0.526928
H508	H	1.202062	0.874944	1.026928
C509	C	0.030512	0.426932	-0.305143
C510	C	0.530512	0.926932	0.194857
C511	C	0.042007	0.413202	-0.349609
C512	C	0.542007	0.913202	0.150391
C513	C	0.018639	0.453398	-0.378375
C514	C	0.518639	0.953398	0.121625
H515	H	-0.000801	0.421204	-0.301098
H516	H	0.499199	0.921204	0.198902
H517	H	0.038183	0.469245	-0.298542
H518	H	0.538183	0.969245	0.201458
H519	H	0.034333	0.370899	-0.356207
H520	H	0.534333	0.870899	0.143793
H521	H	0.073316	0.418933	-0.353668
H522	H	0.573316	0.918933	0.146332
H523	H	0.026310	0.495711	-0.371774
H524	H	0.526310	0.995711	0.128226
H525	H	-0.012673	0.447667	-0.374326
H526	H	0.487327	0.947667	0.125674
H527	H	0.026438	0.444091	-0.408548
H528	H	0.526438	0.944091	0.091452
C529	C	0.709220	0.533527	-0.156679
C530	C	1.209220	1.033527	0.343321
C531	C	0.703051	0.468903	-0.162805
C532	C	1.203051	0.968903	0.337195
C533	C	0.731709	0.435973	-0.134114
C534	C	1.231709	0.935973	0.365886
H535	H	0.739429	0.544169	-0.163258
H536	H	1.239429	1.044169	0.336742
H537	H	0.702629	0.544377	-0.126479
H538	H	1.202629	1.044377	0.373521
H539	H	0.709645	0.458057	-0.192998
H540	H	1.209645	0.958057	0.307002
H541	H	0.672848	0.458242	-0.156222
H542	H	1.172848	0.958242	0.343778
H543	H	0.725118	0.446824	-0.103913
H544	H	1.225118	0.946824	0.396087
H545	H	0.761916	0.446621	-0.140696
H546	H	1.261916	0.946621	0.359304
H547	H	0.727524	0.392123	-0.138263
H548	H	1.227524	0.892123	0.361737
C549	C	0.128004	0.178612	-0.128023
C550	C	0.628004	0.678612	0.371977
C551	C	0.097381	0.143392	-0.102907
C552	C	0.597381	0.643392	0.397093
C553	C	0.120709	0.103121	-0.074162
C554	C	0.620709	0.603121	0.425838
H555	H	0.146346	0.151112	-0.145188
H556	H	0.646346	0.651112	0.354812
H557	H	0.146257	0.202689	-0.108389
H558	H	0.646257	0.702689	0.391611
H559	H	0.079136	0.119316	-0.122539
H560	H	0.579136	0.619316	0.377461
H561	H	0.079038	0.170875	-0.085733
H562	H	0.579038	0.670875	0.414267
H563	H	0.138961	0.127199	-0.054527
H564	H	0.638961	0.627199	0.445473
H565	H	0.139049	0.075626	-0.091330
H566	H	0.639049	0.575626	0.408670
H567	H	0.099934	0.079224	-0.057114
H568	H	0.599934	0.579224	0.442886
H569	H	0.393215	0.229773	-0.164493
H570	H	0.893215	0.729773	0.335507
C571	C	0.709426	0.934590	-0.156696
C572	C	1.209426	1.434590	0.343304
C573	C	0.734597	0.977507	-0.131577
C574	C	1.234597	1.477507	0.368423
C575	C	0.763364	0.944827	-0.102849
C576	C	1.263364	1.444827	0.397151
H577	H	0.692274	0.909033	-0.137059
H578	H	1.192274	1.409033	0.362941
H579	H	0.729024	0.908873	-0.173888
H580	H	1.229024	1.408873	0.326112
H581	H	0.715001	1.003214	-0.114386
H582	H	1.215001	1.503214	0.385614
H583	H	0.751758	1.003065	-0.151202
H584	H	1.251758	1.503065	0.348798
H585	H	0.782963	0.919109	-0.120041
H586	H	1.282963	1.419109	0.379959
H587	H	0.746209	0.919271	-0.083215
H588	H	1.246209	1.419271	0.416785
H589	H	0.780449	0.973941	-0.085805
H590	H	1.280449	1.473941	0.414195
H591	H	0.478338	0.229773	-0.164482
H592	H	0.978338	0.729773	0.335518
C593	C	0.268764	0.178587	-0.128010
C594	C	0.768764	0.678587	0.371990
C595	C	0.238143	0.143363	-0.102893
C596	C	0.738143	0.643363	0.397107
C597	C	0.261475	0.103093	-0.074150
C598	C	0.761475	0.603093	0.425850
H599	H	0.287106	0.151090	-0.145177
H600	H	0.787106	0.651090	0.354823
H601	H	0.287016	0.202666	-0.108376
H602	H	0.787016	0.702666	0.391624
H603	H	0.219899	0.119286	-0.122525
H604	H	0.719899	0.619286	0.377475
H605	H	0.219800	0.170844	-0.085718
H606	H	0.719800	0.670844	0.414282
H607	H	0.279727	0.127172	-0.054516
H608	H	0.779727	0.627172	0.445484
H609	H	0.279816	0.075601	-0.091320
H610	H	0.779816	0.575601	0.408680
H611	H	0.240702	0.079193	-0.057102
H612	H	0.740702	0.579193	0.442898
C613	C	0.588983	0.219607	-0.051880
C614	C	1.088983	0.719607	0.448120
C615	C	0.563682	0.184559	-0.021316
C616	C	1.063682	0.684559	0.478684
C617	C	0.534728	0.144525	-0.044713
C618	C	1.034728	0.644525	0.455287
H619	H	0.569472	0.243828	-0.070092
H620	H	1.069472	0.743828	0.429908
H621	H	0.606019	0.191995	-0.070267
H622	H	1.106019	0.691995	0.429733
H623	H	0.546648	0.212168	-0.002936
H624	H	1.046648	0.712168	0.497064
H625	H	0.583182	0.160326	-0.003103
H626	H	1.083182	0.660326	0.496897
H627	H	0.551764	0.116913	-0.063100
H628	H	1.051764	0.616913	0.436900
H629	H	0.515220	0.168750	-0.062924
H630	H	1.015220	0.668750	0.437076
H631	H	0.517561	0.120736	-0.023979
H632	H	1.017561	0.620736	0.476021
H633	H	0.730885	0.415146	0.311140
H634	H	1.230885	0.915146	0.811140
H635	H	0.701798	0.375559	-0.045479
H636	H	1.201798	0.875559	0.454521
