data_functionalizedCrystal
_audit_creation_method	'MofGen! by Chris Wilmer'
_symmetry_space_group_name_H-M	'P1'
_symmetry_Int_Tables_number	1
_symmetry_cell_setting	triclinic
loop_
_symmetry_equiv_pos_as_xyz
  x,y,z
_cell_length_a	12.759401
_cell_length_b	12.759400
_cell_length_c	12.759393
_cell_angle_alpha	89.969553
_cell_angle_beta	89.980316
_cell_angle_gamma	90.012280
loop_
_atom_site_label
_atom_site_type_symbol
_atom_site_fract_x
_atom_site_fract_y
_atom_site_fract_z
Zn1	Zn	1.606267	-0.418229	-0.594023
Zn2	Zn	1.606166	-0.593948	-0.418346
Zn3	Zn	1.430569	-0.418281	-0.418359
Zn4	Zn	1.430562	-0.593864	-0.593984
O5	O	1.518391	-0.506080	-0.506178
O6	O	1.753274	-0.441552	-0.570730
O7	O	1.582833	-0.570702	-0.271327
O8	O	1.453920	-0.271253	-0.441682
O9	O	1.753200	-0.570652	-0.441661
O10	O	1.583005	-0.271215	-0.570742
O11	O	1.453822	-0.441640	-0.271336
O12	O	1.283547	-0.441559	-0.441645
O13	O	1.453909	-0.570509	-0.741010
O14	O	1.283542	-0.570559	-0.570676
O15	O	1.582998	-0.441471	-0.741039
O16	O	1.582826	-0.740958	-0.441624
O17	O	1.453811	-0.740896	-0.570664
C18	C	1.245423	-0.506056	-0.506158
C19	C	1.128647	-0.506071	-0.506174
C20	C	1.073756	-0.438812	-0.439111
C21	C	0.964032	-0.438837	-0.439125
C22	C	0.964099	-0.573383	-0.573273
C23	C	1.073821	-0.573362	-0.573254
C24	C	1.128582	-0.371521	-0.372032
C25	C	1.073692	-0.304256	-0.304964
C26	C	0.963968	-0.304281	-0.304978
C27	C	0.909134	-0.371571	-0.372059
C28	C	1.518336	-0.779048	-0.506161
C29	C	1.518408	-0.895824	-0.506189
C30	C	1.585589	-0.950587	-0.573446
C31	C	1.585638	-1.060311	-0.573471
C32	C	1.451322	-1.060500	-0.438975
C33	C	1.451269	-0.950778	-0.438956
C34	C	1.652728	-0.895633	-0.640680
C35	C	1.719915	-0.950396	-0.707941
C36	C	1.719964	-1.060120	-0.707966
C37	C	1.652826	-1.115081	-0.640731
C38	C	1.792424	-0.506106	-0.506199
C39	C	1.909201	-0.506116	-0.506207
C40	C	1.518464	-0.505974	-0.780211
C41	C	1.518496	-0.505929	-0.896988
C42	C	1.518475	-0.232047	-0.506218
C43	C	1.518510	-0.115271	-0.506235
C44	C	1.585722	-0.438733	-0.951867
C45	C	1.585747	-0.438695	-1.061591
C46	C	1.451316	-0.573059	-1.061548
C47	C	1.451287	-0.573091	-0.951826
C48	C	1.652930	-0.371571	-0.897029
C49	C	1.720163	-0.304370	-0.951907
C50	C	1.720188	-0.304332	-1.061631
C51	C	1.652980	-0.371495	-1.116477
C52	C	1.518378	-0.506110	-0.233211
C53	C	1.518550	-0.505859	-0.116434
H54	H	0.919444	-0.628165	-0.627889
H55	H	1.217925	-0.371491	-0.372016
H56	H	0.819789	-0.371591	-0.372059
H57	H	1.396662	-1.105259	-0.384235
H58	H	1.652859	-1.204426	-0.640769
H59	H	1.652994	-0.371447	-1.205822
O60	O	1.385974	-0.897738	-0.373529
C61	C	1.326711	-0.969767	-0.314206
H62	H	1.369784	-1.047952	-0.310605
H63	H	1.315520	-0.938123	-0.231418
H64	H	1.246909	-0.981469	-0.352622
O65	O	1.785337	-0.238937	-1.114986
C66	C	1.725561	-0.171065	-1.178478
H67	H	1.642808	-0.164580	-1.145406
H68	H	1.763586	-0.090215	-1.179736
H69	H	1.721954	-0.203515	-1.261629
H70	H	1.652920	-0.371597	-0.807686
O71	O	1.785404	-0.239224	-0.898473
C72	C	1.770949	-0.253644	-0.789861
H73	H	1.736515	-0.334726	-0.774853
H74	H	1.849637	-0.246534	-0.748170
H75	H	1.715010	-0.191332	-0.758733
H76	H	1.774571	-0.905640	-0.762688
H77	H	1.396599	-0.627740	-1.106212
O78	O	1.126790	-0.238867	-0.239700
C79	C	1.054809	-0.179494	-0.180525
H80	H	0.976593	-0.222539	-0.176829
H81	H	1.086470	-0.168186	-0.097761
H82	H	1.043160	-0.099747	-0.219133
H83	H	0.919279	-0.249517	-0.250361
O84	O	1.126986	-0.638725	-0.638502
C85	C	1.055069	-0.698133	-0.697701
H86	H	0.976857	-0.655123	-0.701429
H87	H	1.086818	-0.709429	-0.780453
H88	H	1.043380	-0.777883	-0.659094
H89	H	1.652698	-0.806290	-0.640664
O90	O	1.385973	-0.638486	-0.898673
C91	C	1.326659	-0.697756	-0.970599
H92	H	1.369699	-0.701355	-1.048824
H93	H	1.315449	-0.780548	-0.938882
H94	H	1.246867	-0.659296	-0.982254
O95	O	1.785320	-1.113155	-0.773337
C96	C	1.844542	-1.041118	-0.832691
H97	H	1.848164	-0.962935	-0.789643
H98	H	1.927329	-1.072755	-0.843975
H99	H	1.806024	-1.029414	-0.912449
