data_functionalizedCrystal
_audit_creation_method	'MofGen! by Chris Wilmer'
_symmetry_space_group_name_H-M	'P1'
_symmetry_Int_Tables_number	1
_symmetry_cell_setting	triclinic
loop_
_symmetry_equiv_pos_as_xyz
  x,y,z
_cell_length_a	19.805407
_cell_length_b	17.639999
_cell_length_c	19.805399
_cell_angle_alpha	101.224068
_cell_angle_beta	89.982197
_cell_angle_gamma	101.196798
loop_
_atom_site_label
_atom_site_type_symbol
_atom_site_fract_x
_atom_site_fract_y
_atom_site_fract_z
Zn1	Zn	1.089264	0.314739	-0.328270
Zn2	Zn	1.112078	0.446914	-0.192228
Zn3	Zn	0.976082	0.314755	-0.215095
Zn4	Zn	0.998933	0.446866	-0.305387
O5	O	1.044089	0.380819	-0.260245
O6	O	1.187009	0.332286	-0.310230
O7	O	1.094022	0.429410	-0.100540
O8	O	0.971984	0.204148	-0.249254
O9	O	1.203771	0.429395	-0.210281
O10	O	1.055139	0.204136	-0.332403
O11	O	0.994106	0.332313	-0.117340
O12	O	0.884394	0.332266	-0.227066
O13	O	1.010932	0.429312	-0.403144
O14	O	0.901183	0.429328	-0.293403
O15	O	1.077297	0.332239	-0.419955
O16	O	1.116181	0.557513	-0.188093
O17	O	1.033054	0.557477	-0.271230
C18	C	0.868229	0.380794	-0.260233
C19	C	0.792999	0.380802	-0.260240
C20	C	0.748943	0.330327	-0.312334
C21	C	0.678255	0.330331	-0.312336
C22	C	0.651625	0.380815	-0.260246
C23	C	0.695686	0.431292	-0.208147
C24	C	0.766372	0.431284	-0.208143
C25	C	0.410619	0.431328	-0.208162
C26	C	0.339928	0.431334	-0.208171
C27	C	0.322502	0.330376	-0.312355
C28	C	0.393188	0.330367	-0.312351
C29	C	0.437242	0.380841	-0.260250
C30	C	0.513890	0.380835	-0.260248
C31	C	0.574980	0.380826	-0.260251
C32	C	1.079591	0.586174	-0.224712
C33	C	1.094841	0.674025	-0.209533
C34	C	0.928411	0.963004	-0.375786
C35	C	0.942742	1.045554	-0.361502
C36	C	1.029356	1.045525	-0.275019
C37	C	1.015035	0.962974	-0.289298
C38	C	0.964561	0.921719	-0.339682
C39	C	1.051185	0.921689	-0.253194
C40	C	1.036862	0.839145	-0.267470
C41	C	0.986390	0.797885	-0.317850
C42	C	0.950239	0.839175	-0.353958
C43	C	1.101655	0.962945	-0.202807
C44	C	1.137805	0.921660	-0.166703
C45	C	1.123486	0.839114	-0.180982
C46	C	1.073013	0.797854	-0.231362
C47	C	1.159637	0.797824	-0.144874
C48	C	1.145314	0.715280	-0.159149
C49	C	1.058691	0.715310	-0.245638
C50	C	1.220636	0.380844	-0.260258
C51	C	1.295870	0.380855	-0.260263
C52	C	1.044119	0.380769	-0.436796
C53	C	1.044131	0.380748	-0.512032
C54	C	1.008446	1.174662	-0.295929
C55	C	0.993203	1.086810	-0.311127
C56	C	1.078688	0.330199	-0.556132
C57	C	1.078691	0.330176	-0.626824
C58	C	1.044141	0.380706	-0.653415
C59	C	1.009579	0.431257	-0.609310
C60	C	1.009573	0.431275	-0.538620
C61	C	1.009605	0.431183	-0.894396
C62	C	1.009616	0.431163	-0.965092
C63	C	1.078723	0.330084	-0.982601
C64	C	1.078717	0.330102	-0.911910
C65	C	1.044152	0.380650	-0.867812
C66	C	1.044149	0.380673	-0.791160
C67	C	1.044148	0.380688	-0.730065
C68	C	1.044089	0.380811	-0.084390
C69	C	1.044169	0.380610	-0.009194
H70	H	0.446480	0.472428	-0.165739
H71	H	0.887316	0.929413	-0.416819
H72	H	0.318249	0.472446	-0.165751
H73	H	0.802242	0.472385	-0.165723
C74	C	0.902978	1.090965	-0.401225
H75	H	0.870872	1.054570	-0.433279
H76	H	0.879097	1.123206	-0.369734
H77	H	0.934439	1.123125	-0.425181
C78	C	0.971603	0.486743	-0.994341
H79	H	0.951010	0.516844	-0.957955
H80	H	1.003446	0.521180	-1.015959
H81	H	0.936890	0.456485	-1.027149
H82	H	0.981472	0.472354	-0.858497
C83	C	1.215152	0.843210	-0.089454
H84	H	1.218506	0.898283	-0.086125
H85	H	1.202935	0.829710	-0.046303
H86	H	1.258272	0.829643	-0.101754
H87	H	0.673998	0.472393	-0.165732
C88	C	0.971575	0.486840	-0.638558
H89	H	0.976534	0.479596	-0.686974
H90	H	0.924097	0.475271	-0.628970
H91	H	0.990662	0.539952	-0.617778
C92	C	1.185080	0.669863	-0.119439
H93	H	1.217196	0.706255	-0.087393
H94	H	1.153626	0.637698	-0.095487
H95	H	1.208962	0.637626	-0.150940
H96	H	0.770619	0.289220	-0.354753
H97	H	1.017595	0.681719	-0.286670
H98	H	0.974724	0.730671	-0.329467
C99	C	0.894727	0.793790	-0.409388
H100	H	0.875247	0.830198	-0.428849
H101	H	0.915016	0.761554	-0.444472
H102	H	0.859666	0.761625	-0.389033
H103	H	0.981424	0.472429	-0.502715
C104	C	1.084877	1.090909	-0.219604
H105	H	1.088234	1.145983	-0.216276
H106	H	1.072664	1.077413	-0.176451
H107	H	1.127994	1.077337	-0.231910
H108	H	0.286624	0.289275	-0.354776
C109	C	1.193326	0.967044	-0.111288
H110	H	1.196683	1.022118	-0.107960
H111	H	1.181113	0.953548	-0.068135
H112	H	1.236443	0.953472	-0.123594
H113	H	1.113316	1.030158	-0.191187
H114	H	1.106826	0.289054	-0.534487
H115	H	1.106833	0.289016	-0.662727
H116	H	0.642387	0.289231	-0.354757
C117	C	1.116720	0.274520	-0.882661
H118	H	1.111770	0.281775	-0.834243
H119	H	1.097639	0.221410	-0.903438
H120	H	1.164202	0.286094	-0.892248
C121	C	0.422477	0.274833	-0.369647
H122	H	0.386113	0.244766	-0.400670
H123	H	0.455303	0.305106	-0.393856
H124	H	0.444074	0.240350	-0.349761
C125	C	1.116739	0.274477	-1.031111
H126	H	1.111790	0.281694	-1.077022
H127	H	1.164214	0.286057	-1.017529
H128	H	1.097653	0.221370	-1.028717
