data_functionalizedCrystal
_audit_creation_method	'MofGen! by Chris Wilmer'
_symmetry_space_group_name_H-M	'P1'
_symmetry_Int_Tables_number	1
_symmetry_cell_setting	triclinic
loop_
_symmetry_equiv_pos_as_xyz
  x,y,z
_cell_length_a	10.723024
_cell_length_b	17.019294
_cell_length_c	9.798715
_cell_angle_alpha	86.117884
_cell_angle_beta	89.996609
_cell_angle_gamma	83.929829
loop_
_atom_site_label
_atom_site_type_symbol
_atom_site_fract_x
_atom_site_fract_y
_atom_site_fract_z
O1	O	1.655492	0.110636	-0.126482
O2	O	1.292177	0.121226	-0.127731
O3	O	1.483970	0.001154	-0.113611
O4	O	1.463699	0.230709	-0.140602
O5	O	1.483956	0.001153	0.113371
O6	O	1.292163	0.121226	0.099251
O7	O	1.655478	0.110636	0.100500
Zn8	Zn	1.473818	0.115931	0.135914
Zn9	Zn	1.473837	0.115931	-0.163145
O10	O	1.463685	0.230709	0.086380
C11	C	1.245683	0.120456	-0.014150
C12	C	1.107164	0.118150	-0.013880
C13	C	0.916504	0.046526	-0.005462
C14	C	1.059671	0.048908	-0.005740
C15	C	1.483194	-0.028240	0.003333
C16	C	1.480888	-0.115823	0.013622
C17	C	1.479816	-0.156965	-0.105271
C18	C	1.477641	-0.239257	-0.095599
C19	C	1.476548	-0.280407	0.032967
C20	C	1.477617	-0.239259	0.151869
C21	C	1.479783	-0.156967	0.142196
C22	C	1.470001	-0.528875	0.068364
C23	C	1.467839	-0.611173	0.078029
C24	C	1.467861	-0.611165	-0.169441
C25	C	1.470034	-0.528872	-0.179103
C26	C	1.471096	-0.487731	-0.060201
C27	C	1.474330	-0.364524	0.042857
C28	C	1.473306	-0.403615	-0.070092
C29	C	1.701973	0.111407	-0.013084
C30	C	1.840492	0.113713	-0.013362
C31	C	1.464461	0.260102	-0.030567
C32	C	1.466767	0.347685	-0.040865
N33	N	1.473815	0.115930	0.340014
N34	N	1.473851	0.115926	-0.367244
C35	C	1.554346	0.065293	0.413745
C36	C	1.554367	0.065290	0.570909
H37	H	0.881406	0.172996	-0.020324
H38	H	1.404878	0.159278	0.393241
O39	O	1.645654	0.007865	0.343249
H40	H	1.704642	-0.029233	0.421166
H41	H	1.124985	-0.008609	0.001015
H42	H	1.041857	0.175670	-0.020650
O43	O	1.480984	-0.112581	-0.243940
H44	H	1.479857	-0.155017	-0.324988
O45	O	1.476422	-0.283630	-0.223833
H46	H	1.477538	-0.241190	-0.314857
H47	H	1.470926	-0.495374	-0.283796
H48	H	1.480639	-0.123469	0.239012
H49	H	0.875590	-0.012758	0.001529
H50	H	1.466994	-0.644671	-0.266244
H51	H	1.466943	-0.644675	0.182728
H52	H	1.470891	-0.495390	0.165183
O53	O	1.476463	-0.283638	0.290543
H54	H	1.474799	-0.347775	0.277299
H55	H	1.474188	-0.370107	-0.174770
H56	H	1.623318	0.021940	0.634291
O57	O	1.382501	0.173345	0.548808
H58	H	1.435180	0.211846	0.479153
H59	H	1.473444	-0.398038	0.147536
