data_functionalizedCrystal
_audit_creation_method	'MofGen! by Chris Wilmer'
_symmetry_space_group_name_H-M	'P1'
_symmetry_Int_Tables_number	1
_symmetry_cell_setting	triclinic
loop_
_symmetry_equiv_pos_as_xyz
  x,y,z
_cell_length_a	27.731993
_cell_length_b	27.732048
_cell_length_c	26.210047
_cell_angle_alpha	89.999521
_cell_angle_beta	90.002578
_cell_angle_gamma	82.631525
loop_
_atom_site_label
_atom_site_type_symbol
_atom_site_fract_x
_atom_site_fract_y
_atom_site_fract_z
O1	O	0.640948	0.057384	-0.042297
O2	O	0.890948	0.307384	0.207703
O3	O	1.140948	0.557384	0.457703
O4	O	1.390948	0.807384	0.707703
O5	O	0.500151	0.066158	-0.042329
O6	O	0.750151	0.316158	0.207671
O7	O	1.000151	0.566158	0.457671
O8	O	1.250151	0.816158	0.707671
O9	O	0.574923	-0.008627	-0.042302
O10	O	0.824923	0.241373	0.207698
O11	O	1.074923	0.491373	0.457698
O12	O	1.324923	0.741373	0.707698
O13	O	0.566177	0.132169	-0.042324
O14	O	0.816177	0.382169	0.207676
O15	O	1.066177	0.632169	0.457676
O16	O	1.316177	0.882169	0.707676
O17	O	0.574908	-0.008615	0.042556
O18	O	0.824908	0.241385	0.292556
O19	O	1.074908	0.491385	0.542556
O20	O	1.324908	0.741385	0.792556
O21	O	0.500137	0.066169	0.042529
O22	O	0.750137	0.316169	0.292529
O23	O	1.000137	0.566169	0.542529
O24	O	1.250137	0.816169	0.792529
O25	O	0.640934	0.057396	0.042561
O26	O	0.890934	0.307396	0.292561
O27	O	1.140934	0.557396	0.542561
O28	O	1.390934	0.807396	0.792561
Cu29	Cu	0.570534	0.061784	0.050293
Cu30	Cu	0.820534	0.311784	0.300293
Cu31	Cu	1.070534	0.561784	0.550293
Cu32	Cu	1.320534	0.811784	0.800293
Cu33	Cu	0.570551	0.061770	-0.050061
Cu34	Cu	0.820551	0.311770	0.199939
Cu35	Cu	1.070551	0.561770	0.449939
Cu36	Cu	1.320551	0.811770	0.699939
O37	O	0.566163	0.132180	0.042534
O38	O	0.816163	0.382180	0.292534
O39	O	1.066163	0.632180	0.542534
O40	O	1.316163	0.882180	0.792534
C41	C	0.482137	0.065983	0.000096
C42	C	0.732137	0.315983	0.250096
C43	C	0.982137	0.565983	0.500096
C44	C	1.232137	0.815983	0.750096
C45	C	0.428480	0.065441	0.000084
C46	C	0.678480	0.315441	0.250084
C47	C	0.928480	0.565441	0.500084
C48	C	1.178480	0.815441	0.750084
C49	C	0.045328	0.061504	-0.046147
C50	C	0.295328	0.311504	0.203853
C51	C	0.545328	0.561504	0.453853
C52	C	0.795328	0.811504	0.703853
C53	C	0.246985	0.063571	-0.046161
C54	C	0.496985	0.313571	0.203839
C55	C	0.746985	0.563571	0.453839
C56	C	0.996985	0.813571	0.703839
O57	O	0.273065	0.063813	-0.085501
O58	O	0.523065	0.313813	0.164499
O59	O	0.773065	0.563813	0.414499
O60	O	1.023065	0.813813	0.664499
N61	N	0.272198	0.063836	0.000094
N62	N	0.522198	0.313836	0.250094
N63	N	0.772198	0.563836	0.500094
N64	N	1.022198	0.813836	0.750094
C65	C	0.246993	0.063581	0.046356
C66	C	0.496993	0.313581	0.296356
C67	C	0.746993	0.563581	0.546356
C68	C	0.996993	0.813581	0.796356
O69	O	0.273066	0.063849	0.085699
O70	O	0.523066	0.313849	0.335699
O71	O	0.773066	0.563849	0.585699
O72	O	1.023066	0.813849	0.835699
C73	C	0.045337	0.061511	0.046370
C74	C	0.295337	0.311511	0.296370
C75	C	0.545337	0.561511	0.546370
C76	C	0.795337	0.811511	0.796370
C77	C	0.020127	0.061251	0.000112
C78	C	0.270127	0.311251	0.250112
C79	C	0.520127	0.561251	0.500112
C80	C	0.770127	0.811251	0.750112
C81	C	0.020118	0.061243	-0.092401
C82	C	0.270118	0.311243	0.157599
C83	C	0.520118	0.561243	0.407599
C84	C	0.770118	0.811243	0.657599
C85	C	-0.030294	0.060729	-0.092397
C86	C	0.219706	0.310729	0.157603
C87	C	0.469706	0.560729	0.407603
C88	C	0.719706	0.810729	0.657603
C89	C	-0.055495	0.060476	-0.046139
C90	C	0.194505	0.310476	0.203861
C91	C	0.444505	0.560476	0.453861
C92	C	0.694505	0.810476	0.703861
C93	C	-0.030285	0.060736	0.000116
C94	C	0.219715	0.310736	0.250116
C95	C	0.469715	0.560736	0.500116
C96	C	0.719715	0.810736	0.750116
C97	C	0.020134	0.061252	0.092631
C98	C	0.270134	0.311252	0.342631
C99	C	0.520134	0.561252	0.592631
C100	C	0.770134	0.811252	0.842631
C101	C	-0.030283	0.060733	0.092630
C102	C	0.219717	0.310733	0.342630
C103	C	0.469717	0.560733	0.592630
C104	C	0.719717	0.810733	0.842630
C105	C	-0.055493	0.060473	0.046372
C106	C	0.194507	0.310473	0.296372
C107	C	0.444507	0.560473	0.546372
C108	C	0.694507	0.810473	0.796372
C109	C	-0.105898	0.059969	0.046378
C110	C	0.144102	0.309969	0.296378
C111	C	0.394102	0.559969	0.546378
C112	C	0.644102	0.809969	0.796378
N113	N	-0.131110	0.059704	0.000123
N114	N	0.118890	0.309704	0.250123
N115	N	0.368890	0.559704	0.500123
N116	N	0.618890	0.809704	0.750123
C117	C	-0.105909	0.059957	-0.046135
C118	C	0.144091	0.309957	0.203865
C119	C	0.394091	0.559957	0.453865
C120	C	0.644091	0.809957	0.703865
C121	C	0.352865	0.064669	0.046346
C122	C	0.602865	0.314669	0.296346
C123	C	0.852865	0.564669	0.546346
C124	C	1.102865	0.814669	0.796346
C125	C	0.403279	0.065188	0.046343
C126	C	0.653279	0.315188	0.296343
C127	C	0.903279	0.565188	0.546343
C128	C	1.153279	0.815188	0.796343
C129	C	0.403268	0.065177	-0.046175
C130	C	0.653268	0.315177	0.203825
C131	C	0.903268	0.565177	0.453825
C132	C	1.153268	0.815177	0.703825
C133	C	0.352853	0.064662	-0.046171
C134	C	0.602853	0.314662	0.203829
C135	C	0.852853	0.564662	0.453829
C136	C	1.102853	0.814662	0.703829
C137	C	0.327653	0.064404	0.000091
C138	C	0.577653	0.314404	0.250091
C139	C	0.827653	0.564404	0.500091
C140	C	1.077653	0.814404	0.750091
C141	C	-0.211777	0.058878	-0.046123
C142	C	0.038223	0.308878	0.203877
C143	C	0.288223	0.558878	0.453877
C144	C	0.538223	0.808878	0.703877
C145	C	-0.262194	0.058366	-0.046115
C146	C	-0.012194	0.308366	0.203885
C147	C	0.237806	0.558366	0.453885
C148	C	0.487806	0.808366	0.703885
C149	C	-0.262178	0.058375	0.046402
C150	C	-0.012178	0.308375	0.296402
C151	C	0.237822	0.558375	0.546402
C152	C	0.487822	0.808375	0.796402
C153	C	-0.211766	0.058889	0.046394
C154	C	0.038234	0.308889	0.296394
C155	C	0.288234	0.558889	0.546394
C156	C	0.538234	0.808889	0.796394
C157	C	-0.186567	0.059139	0.000127
C158	C	0.063433	0.309139	0.250127
C159	C	0.313433	0.559139	0.500127
C160	C	0.563433	0.809139	0.750127
O161	O	-0.132008	0.059721	0.085698
O162	O	0.117992	0.309721	0.335698
O163	O	0.367992	0.559721	0.585698
O164	O	0.617992	0.809721	0.835698
O165	O	-0.131989	0.059679	-0.085472
O166	O	0.118011	0.309679	0.164528
O167	O	0.368011	0.559679	0.414528
O168	O	0.618011	0.809679	0.664528
C169	C	0.095740	0.062018	-0.046151
C170	C	0.345740	0.312018	0.203849
C171	C	0.595740	0.562018	0.453849
C172	C	0.845740	0.812018	0.703849
C173	C	0.120950	0.062279	0.000104
C174	C	0.370950	0.312279	0.250104
C175	C	0.620950	0.562279	0.500104
C176	C	0.870950	0.812279	0.750104
C177	C	0.095749	0.062025	0.046362
C178	C	0.345749	0.312025	0.296362
C179	C	0.595749	0.562025	0.546362
C180	C	0.845749	0.812025	0.796362
C181	C	0.171364	0.062797	0.000101
C182	C	0.421364	0.312797	0.250101
C183	C	0.671364	0.562797	0.500101
C184	C	0.921364	0.812797	0.750101
C185	C	0.196565	0.063051	-0.046158
C186	C	0.446565	0.313051	0.203842
C187	C	0.696565	0.563051	0.453842
C188	C	0.946565	0.813051	0.703842
C189	C	0.171353	0.062786	-0.092413
C190	C	0.421353	0.312786	0.157587
C191	C	0.671353	0.562786	0.407587
C192	C	0.921353	0.812786	0.657587
C193	C	0.120941	0.062272	-0.092409
C194	C	0.370941	0.312272	0.157591
C195	C	0.620941	0.562272	0.407591
C196	C	0.870941	0.812272	0.657591
C197	C	0.120961	0.062290	0.092617
C198	C	0.370961	0.312290	0.342617
C199	C	0.620961	0.562290	0.592617
C200	C	0.870961	0.812290	0.842617
C201	C	0.171373	0.062805	0.092609
C202	C	0.421373	0.312805	0.342609
C203	C	0.671373	0.562805	0.592609
C204	C	0.921373	0.812805	0.842609
C205	C	0.196574	0.063058	0.046351
C206	C	0.446574	0.313058	0.296351
C207	C	0.696574	0.563058	0.546351
C208	C	0.946574	0.813058	0.796351
C209	C	0.574732	-0.026628	0.000128
C210	C	0.824732	0.223372	0.250128
C211	C	1.074732	0.473372	0.500128
C212	C	1.324732	0.723372	0.750128
C213	C	0.574179	-0.080282	0.000132
C214	C	0.824179	0.169718	0.250132
C215	C	1.074179	0.419718	0.500132
C216	C	1.324179	0.669718	0.750132
C217	C	0.614884	-0.419105	0.000115
C218	C	0.864884	-0.169105	0.250115
C219	C	1.114884	0.080895	0.500115
C220	C	1.364884	0.330895	0.750115
C221	C	0.612833	-0.620765	0.000108
C222	C	0.862833	-0.370765	0.250108
C223	C	1.112833	-0.120765	0.500108
C224	C	1.362833	0.129235	0.750108
O225	O	0.650055	-0.652028	0.000094
O226	O	0.900055	-0.402028	0.250094
O227	O	1.150055	-0.152028	0.500094
O228	O	1.400055	0.097972	0.750094
N229	N	0.568497	-0.639880	0.000098
N230	N	0.818497	-0.389880	0.250098
N231	N	1.068497	-0.139880	0.500098
N232	N	1.318497	0.110120	0.750098
C233	C	0.524670	-0.608576	0.000087
C234	C	0.774670	-0.358576	0.250087
C235	C	1.024670	-0.108576	0.500087
C236	C	1.274670	0.141424	0.750087
O237	O	0.486912	-0.629462	0.000073
O238	O	0.736912	-0.379462	0.250073
O239	O	0.986912	-0.129462	0.500073
O240	O	1.236912	0.120538	0.750073
C241	C	0.526721	-0.406918	0.000091
C242	C	0.776721	-0.156918	0.250091
C243	C	1.026721	0.093082	0.500091
C244	C	1.276721	0.343082	0.750091
C245	C	0.571061	-0.387806	0.000106
C246	C	0.821061	-0.137806	0.250106
C247	C	1.071061	0.112194	0.500106
C248	C	1.321061	0.362194	0.750106
C249	C	0.659220	-0.399993	0.000129
C250	C	0.909220	-0.149993	0.250129
C251	C	1.159220	0.100007	0.500129
C252	C	1.409220	0.350007	0.750129
C253	C	0.659732	-0.349581	0.000134
C254	C	0.909732	-0.099581	0.250134
C255	C	1.159732	0.150419	0.500134
C256	C	1.409732	0.400419	0.750134
C257	C	0.615909	-0.318282	0.000124
C258	C	0.865909	-0.068282	0.250124
C259	C	1.115909	0.181718	0.500124
C260	C	1.365909	0.431718	0.750124
C261	C	0.571573	-0.337394	0.000110
C262	C	0.821573	-0.087394	0.250110
C263	C	1.071573	0.162606	0.500110
C264	C	1.321573	0.412606	0.750110
C265	C	0.482895	-0.375616	0.000076
C266	C	0.732895	-0.125616	0.250076
C267	C	0.982895	0.124384	0.500076
C268	C	1.232895	0.374384	0.750076
C269	C	0.483412	-0.325199	0.000076
C270	C	0.733412	-0.075199	0.250076
C271	C	0.983412	0.174801	0.500076
C272	C	1.233412	0.424801	0.750076
C273	C	0.527751	-0.306087	0.000091
C274	C	0.777751	-0.056087	0.250091
C275	C	1.027751	0.193913	0.500091
C276	C	1.277751	0.443913	0.750091
C277	C	0.528262	-0.255683	0.000105
C278	C	0.778262	-0.005683	0.250105
C279	C	1.028262	0.244317	0.500105
C280	C	1.278262	0.494317	0.750105
N281	N	0.572598	-0.236568	0.000115
N282	N	0.822598	0.013432	0.250115
N283	N	1.072598	0.263432	0.500115
N284	N	1.322598	0.513432	0.750115
C285	C	0.616422	-0.267867	0.000124
C286	C	0.866422	-0.017867	0.250124
C287	C	1.116422	0.232133	0.500124
C288	C	1.366422	0.482133	0.750124
C289	C	0.523596	-0.714450	0.000086
C290	C	0.773596	-0.464450	0.250086
C291	C	1.023596	-0.214450	0.500086
C292	C	1.273596	0.035550	0.750086
C293	C	0.523083	-0.764865	0.000086
C294	C	0.773083	-0.514865	0.250086
C295	C	1.023083	-0.264865	0.500086
C296	C	1.273083	-0.014865	0.750086
C297	C	0.611246	-0.777049	0.000105
C298	C	0.861246	-0.527049	0.250105
C299	C	1.111246	-0.277049	0.500105
C300	C	1.361246	-0.027049	0.750105
C301	C	0.611759	-0.726634	0.000109
C302	C	0.861759	-0.476634	0.250109
C303	C	1.111759	-0.226634	0.500109
C304	C	1.361759	0.023366	0.750109
C305	C	0.567932	-0.695335	0.000095
C306	C	0.817932	-0.445335	0.250095
C307	C	1.067932	-0.195335	0.500095
C308	C	1.317932	0.054665	0.750095
C309	C	0.617494	-0.161998	0.000135
C310	C	0.867494	0.088002	0.250135
C311	C	1.117494	0.338002	0.500135
C312	C	1.367494	0.588002	0.750135
C313	C	0.618003	-0.111582	0.000142
C314	C	0.868003	0.138418	0.250142
C315	C	1.118003	0.388418	0.500142
C316	C	1.368003	0.638418	0.750142
C317	C	0.529839	-0.099401	0.000119
C318	C	0.779839	0.150599	0.250119
C319	C	1.029839	0.400599	0.500119
C320	C	1.279839	0.650599	0.750119
C321	C	0.529331	-0.149814	0.000115
C322	C	0.779331	0.100186	0.250115
C323	C	1.029331	0.350186	0.500115
C324	C	1.279331	0.600186	0.750115
C325	C	0.573162	-0.181112	0.000121
C326	C	0.823162	0.068888	0.250121
C327	C	1.073162	0.318888	0.500121
C328	C	1.323162	0.568888	0.750121
O329	O	0.491060	-0.224392	0.000114
O330	O	0.741060	0.025608	0.250114
O331	O	0.991060	0.275608	0.500114
O332	O	1.241060	0.525608	0.750114
O333	O	0.654174	-0.246972	0.000127
O334	O	0.904174	0.003028	0.250127
O335	O	1.154174	0.253028	0.500127
O336	O	1.404174	0.503028	0.750127
C337	C	0.614372	-0.469517	0.000110
C338	C	0.864372	-0.219517	0.250110
C339	C	1.114372	0.030483	0.500110
C340	C	1.364372	0.280483	0.750110
C341	C	0.570036	-0.488630	0.000096
C342	C	0.820036	-0.238630	0.250096
C343	C	1.070036	0.011370	0.500096
C344	C	1.320036	0.261370	0.750096
C345	C	0.526213	-0.457331	0.000087
C346	C	0.776213	-0.207331	0.250087
C347	C	1.026213	0.042669	0.500087
C348	C	1.276213	0.292669	0.750087
C349	C	0.569523	-0.539044	0.000096
C350	C	0.819523	-0.289044	0.250096
C351	C	1.069523	-0.039044	0.500096
C352	C	1.319523	0.210956	0.750096
C353	C	0.613346	-0.570343	0.000106
C354	C	0.863346	-0.320343	0.250106
C355	C	1.113346	-0.070343	0.500106
C356	C	1.363346	0.179657	0.750106
C357	C	0.657683	-0.551228	0.000115
C358	C	0.907683	-0.301228	0.250115
C359	C	1.157683	-0.051228	0.500115
C360	C	1.407683	0.198772	0.750115
C361	C	0.658195	-0.500817	0.000120
C362	C	0.908195	-0.250817	0.250120
C363	C	1.158195	-0.000817	0.500120
C364	C	1.408195	0.249183	0.750120
C365	C	0.481876	-0.476446	0.000077
C366	C	0.731876	-0.226446	0.250077
C367	C	0.981876	0.023554	0.500077
C368	C	1.231876	0.273554	0.750077
C369	C	0.481368	-0.526858	0.000073
C370	C	0.731368	-0.276858	0.250073
C371	C	0.981368	-0.026858	0.500073
C372	C	1.231368	0.223142	0.750073
C373	C	0.525191	-0.558157	0.000083
C374	C	0.775191	-0.308157	0.250083
C375	C	1.025191	-0.058157	0.500083
C376	C	1.275191	0.191843	0.750083
C377	C	0.658949	0.057570	0.000135
C378	C	0.908949	0.307570	0.250135
C379	C	1.158949	0.557570	0.500135
C380	C	1.408949	0.807570	0.750135
C381	C	0.712605	0.058113	0.000143
C382	C	0.962605	0.308113	0.250143
C383	C	1.212605	0.558113	0.500143
C384	C	1.462605	0.808113	0.750143
C385	C	0.566353	0.150181	0.000103
C386	C	0.816353	0.400181	0.250103
C387	C	1.066353	0.650181	0.500103
C388	C	1.316353	0.900181	0.750103
C389	C	0.566906	0.203836	0.000095
C390	C	0.816906	0.453836	0.250095
C391	C	1.066906	0.703836	0.500095
C392	C	1.316906	0.953836	0.750095
N393	N	0.570526	0.061793	0.120877
N394	N	0.820526	0.311793	0.370877
N395	N	1.070526	0.561793	0.620877
N396	N	1.320526	0.811793	0.870877
N397	N	0.570564	0.061757	-0.120645
N398	N	0.820564	0.311757	0.129355
N399	N	1.070564	0.561757	0.379355
N400	N	1.320564	0.811757	0.629355
C401	C	0.603657	0.028663	0.473403
C402	C	0.853657	0.278663	0.723403
C403	C	1.103657	0.528663	0.973403
C404	C	1.353657	0.778663	1.223403
C405	C	0.603667	0.028656	0.687062
C406	C	0.853667	0.278656	0.937062
C407	C	1.103667	0.528656	1.187062
C408	C	1.353667	0.778656	1.437062
O409	O	0.631818	0.000490	0.714693
O410	O	0.881818	0.250490	0.964693
O411	O	1.131818	0.500490	1.214693
O412	O	1.381818	0.750490	1.464693
N413	N	0.570554	0.061759	0.713771
N414	N	0.820554	0.311759	0.963771
N415	N	1.070554	0.561759	1.213771
N416	N	1.320554	0.811759	1.463771
C417	C	0.537433	0.094864	0.687063
C418	C	0.787433	0.344864	0.937063
C419	C	1.037433	0.594864	1.187063
C420	C	1.287433	0.844864	1.437063
O421	O	0.509265	0.123017	0.714683
O422	O	0.759265	0.373017	0.964683
O423	O	1.009265	0.623017	1.214683
O424	O	1.259265	0.873017	1.464683
C425	C	0.537421	0.094868	0.473405
C426	C	0.787421	0.344868	0.723405
C427	C	1.037421	0.594868	0.973405
C428	C	1.287421	0.844868	1.223405
C429	C	0.570540	0.061766	0.446698
C430	C	0.820540	0.311766	0.696698
C431	C	1.070540	0.561766	0.946698
C432	C	1.320540	0.811766	1.196698
C433	C	0.636772	-0.004437	0.446696
C434	C	0.886772	0.245563	0.696696
C435	C	1.136772	0.495563	0.946696
C436	C	1.386772	0.745563	1.196696
C437	C	0.636771	-0.004433	0.393285
C438	C	0.886771	0.245567	0.643285
C439	C	1.136771	0.495567	0.893285
C440	C	1.386771	0.745567	1.143285
C441	C	0.603654	0.028671	0.366580
C442	C	0.853654	0.278671	0.616580
C443	C	1.103654	0.528671	0.866580
C444	C	1.353654	0.778671	1.116580
C445	C	0.570538	0.061770	0.393287
C446	C	0.820538	0.311770	0.643287
C447	C	1.070538	0.561770	0.893287
C448	C	1.320538	0.811770	1.143287
C449	C	0.504298	0.127971	0.446697
C450	C	0.754298	0.377971	0.696697
C451	C	1.004298	0.627971	0.946697
C452	C	1.254298	0.877971	1.196697
C453	C	0.504297	0.127968	0.393280
C454	C	0.754297	0.377968	0.643280
C455	C	1.004297	0.627968	0.893280
C456	C	1.254297	0.877968	1.143280
C457	C	0.537416	0.094866	0.366573
C458	C	0.787416	0.344866	0.616573
C459	C	1.037416	0.594866	0.866573
C460	C	1.287416	0.844866	1.116573
C461	C	0.537420	0.094877	0.313171
C462	C	0.787420	0.344877	0.563171
C463	C	1.037420	0.594877	0.813171
C464	C	1.287420	0.844877	1.063171
N465	N	0.570533	0.061774	0.286461
N466	N	0.820533	0.311774	0.536461
N467	N	1.070533	0.561774	0.786461
N468	N	1.320533	0.811774	1.036461
C469	C	0.603650	0.028671	0.313166
C470	C	0.853650	0.278671	0.563166
C471	C	1.103650	0.528671	0.813166
C472	C	1.353650	0.778671	1.063166
C473	C	0.537443	0.094861	0.799236
C474	C	0.787443	0.344861	1.049236
C475	C	1.037443	0.594861	1.299236
C476	C	1.287443	0.844861	1.549236
C477	C	0.537446	0.094860	0.852650
C478	C	0.787446	0.344860	1.102650
C479	C	1.037446	0.594860	1.352650
C480	C	1.287446	0.844860	1.602650
C481	C	0.603680	0.028651	0.852645
C482	C	0.853680	0.278651	1.102645
C483	C	1.103680	0.528651	1.352645
C484	C	1.353680	0.778651	1.602645
C485	C	0.603678	0.028654	0.799230
C486	C	0.853678	0.278654	1.049230
C487	C	1.103678	0.528654	1.299230
C488	C	1.353678	0.778654	1.549230
C489	C	0.570556	0.061757	0.772526
C490	C	0.820556	0.311757	1.022526
C491	C	1.070556	0.561757	1.272526
C492	C	1.320556	0.811757	1.522526
C493	C	0.603646	0.028682	0.200998
C494	C	0.853646	0.278682	0.450998
C495	C	1.103646	0.528682	0.700998
C496	C	1.353646	0.778682	0.950998
C497	C	0.603643	0.028690	0.147582
C498	C	0.853643	0.278690	0.397582
C499	C	1.103643	0.528690	0.647582
C500	C	1.353643	0.778690	0.897582
C501	C	0.537408	0.094897	0.147591
C502	C	0.787408	0.344897	0.397591
C503	C	1.037408	0.594897	0.647591
C504	C	1.287408	0.844897	0.897591
C505	C	0.537412	0.094891	0.201003
C506	C	0.787412	0.344891	0.451003
C507	C	1.037412	0.594891	0.701003
C508	C	1.287412	0.844891	0.951003
C509	C	0.570533	0.061779	0.227705
C510	C	0.820533	0.311779	0.477705
C511	C	1.070533	0.561779	0.727705
C512	C	1.320533	0.811779	0.977705
O513	O	0.509281	0.123025	0.285506
O514	O	0.759281	0.373025	0.535506
O515	O	1.009281	0.623025	0.785506
O516	O	1.259281	0.873025	1.035506
O517	O	0.631807	0.000515	0.285536
O518	O	0.881807	0.250515	0.535536
O519	O	1.131807	0.500515	0.785536
O520	O	1.381807	0.750515	1.035536
C521	C	0.603658	0.028659	0.526814
C522	C	0.853658	0.278659	0.776814
C523	C	1.103658	0.528659	1.026814
C524	C	1.353658	0.778659	1.276814
C525	C	0.570542	0.061759	0.553521
C526	C	0.820542	0.311759	0.803521
C527	C	1.070542	0.561759	1.053521
C528	C	1.320542	0.811759	1.303521
C529	C	0.537425	0.094862	0.526816
C530	C	0.787425	0.344862	0.776816
C531	C	1.037425	0.594862	1.026816
C532	C	1.287425	0.844862	1.276816
C533	C	0.570546	0.061759	0.606935
C534	C	0.820546	0.311759	0.856935
C535	C	1.070546	0.561759	1.106935
C536	C	1.320546	0.811759	1.356935
C537	C	0.603663	0.028655	0.633640
C538	C	0.853663	0.278655	0.883640
C539	C	1.103663	0.528655	1.133640
C540	C	1.353663	0.778655	1.383640
C541	C	0.636776	-0.004448	0.606931
C542	C	0.886776	0.245552	0.856931
C543	C	1.136776	0.495552	1.106931
C544	C	1.386776	0.745552	1.356931
C545	C	0.636775	-0.004444	0.553519
C546	C	0.886775	0.245556	0.803519
C547	C	1.136775	0.495556	1.053519
C548	C	1.386775	0.745556	1.303519
C549	C	0.504311	0.127965	0.553526
C550	C	0.754311	0.377965	0.803526
C551	C	1.004311	0.627965	1.053526
C552	C	1.254311	0.877965	1.303526
C553	C	0.504316	0.127959	0.606937
C554	C	0.754316	0.377959	0.856937
C555	C	1.004316	0.627959	1.106937
C556	C	1.254316	0.877959	1.356937
C557	C	0.537433	0.094856	0.633642
C558	C	0.787433	0.344856	0.883642
C559	C	1.037433	0.594856	1.133642
C560	C	1.287433	0.844856	1.383642
H561	H	0.332330	0.064450	-0.083838
H562	H	0.582330	0.314450	0.166162
H563	H	0.832330	0.564450	0.416162
H564	H	1.082330	0.814450	0.666162
H565	H	0.332353	0.064458	0.084020
H566	H	0.582353	0.314458	0.334020
H567	H	0.832353	0.564458	0.584020
H568	H	1.082353	0.814458	0.834020
H569	H	-0.282718	0.058156	-0.083786
H570	H	-0.032718	0.308156	0.166214
H571	H	0.217282	0.558156	0.416214
H572	H	0.467282	0.808156	0.666214
H573	H	0.486977	-0.780421	0.000083
H574	H	0.736977	-0.530421	0.250083
H575	H	0.986977	-0.280421	0.500083
H576	H	1.236977	-0.030421	0.750083
F577	F	0.046954	0.061529	0.141866
F578	F	0.296954	0.311529	0.391866
F579	F	0.546954	0.561529	0.641866
F580	F	0.796954	0.811529	0.891866
F581	F	0.046931	0.061512	-0.141640
F582	F	0.296931	0.311512	0.108360
F583	F	0.546931	0.561512	0.358360
F584	F	0.796931	0.811512	0.608360
H585	H	0.447722	-0.299717	0.000064
H586	H	0.697722	-0.049717	0.250064
H587	H	0.947722	0.200283	0.500064
H588	H	1.197722	0.450283	0.750064
H589	H	0.487905	-0.688970	0.000075
H590	H	0.737905	-0.438970	0.250075
H591	H	0.987905	-0.188970	0.500075
H592	H	1.237905	0.061030	0.750075
F593	F	0.706924	-0.329247	0.000139
F594	F	0.956924	-0.079247	0.250139
F595	F	1.206924	0.170753	0.500139
F596	F	1.456924	0.420753	0.750139
F597	F	0.502164	0.130127	0.119162
F598	F	0.752164	0.380127	0.369162
F599	F	1.002164	0.630127	0.619162
F600	F	1.252164	0.880127	0.869162
F601	F	0.672024	-0.039676	0.525102
F602	F	0.922024	0.210324	0.775102
F603	F	1.172024	0.460324	1.025102
F604	F	1.422024	0.710324	1.275102
F605	F	0.430103	0.065474	0.095577
F606	F	0.680103	0.315474	0.345577
F607	F	0.930103	0.565474	0.595577
F608	F	1.180103	0.815474	0.845577
H609	H	0.654110	-0.096024	0.000155
H610	H	0.904110	0.153976	0.250155
H611	H	1.154110	0.403976	0.500155
H612	H	1.404110	0.653976	0.750155
H613	H	0.694301	-0.485261	0.000132
H614	H	0.944301	-0.235261	0.250132
H615	H	1.194301	0.014739	0.500132
H616	H	1.444301	0.264739	0.750132
H617	H	0.446789	-0.391168	0.000061
H618	H	0.696789	-0.141168	0.250061
H619	H	0.946789	0.108832	0.500061
H620	H	1.196789	0.358832	0.750061
H621	H	0.477324	0.154924	0.371540
H622	H	0.727324	0.404924	0.621540
H623	H	0.977324	0.654924	0.871540
H624	H	1.227324	0.904924	1.121540
F625	F	0.198182	0.063058	-0.141644
F626	F	0.448182	0.313058	0.108356
F627	F	0.698182	0.563058	0.358356
F628	F	0.948182	0.813058	0.608356
F629	F	0.672023	-0.039678	0.635361
F630	F	0.922023	0.210322	0.885361
F631	F	1.172023	0.460322	1.135361
F632	F	1.422023	0.710322	1.385361
H633	H	0.646929	-0.802542	0.000113
H634	H	0.896929	-0.552542	0.250113
H635	H	1.146929	-0.302542	0.500113
H636	H	1.396929	-0.052542	0.750113
H637	H	-0.050799	0.060528	0.130303
H638	H	0.199201	0.310528	0.380303
H639	H	0.449201	0.560528	0.630303
H640	H	0.699201	0.810528	0.880303
H641	H	0.630614	0.001734	0.125839
H642	H	0.880614	0.251734	0.375839
H643	H	1.130614	0.501734	0.625839
H644	H	1.380614	0.751734	0.875839
F645	F	0.482140	-0.170155	0.000109
F646	F	0.732140	0.079845	0.250109
F647	F	0.982140	0.329845	0.500109
F648	F	1.232140	0.579845	0.750109
H649	H	-0.191240	0.059111	0.084061
H650	H	0.058760	0.309111	0.334061
H651	H	0.308760	0.559111	0.584061
H652	H	0.558760	0.809111	0.834061
H653	H	0.630615	0.001719	0.222733
H654	H	0.880615	0.251719	0.472733
H655	H	1.130615	0.501719	0.722733
H656	H	1.380615	0.751719	0.972733
F657	F	0.434172	-0.547192	0.000061
F658	F	0.684172	-0.297192	0.250061
F659	F	0.934172	-0.047192	0.500061
F660	F	1.184172	0.202808	0.750061
F661	F	0.638926	-0.006580	0.881076
F662	F	0.888926	0.243420	1.131076
F663	F	1.138926	0.493420	1.381076
F664	F	1.388926	0.743420	1.631076
F665	F	0.483202	-0.066082	0.000109
F666	F	0.733202	0.183918	0.250109
F667	F	0.983202	0.433918	0.500109
F668	F	1.233202	0.683918	0.750109
H669	H	0.510470	0.121818	0.777497
H670	H	0.760470	0.371818	1.027497
H671	H	1.010470	0.621818	1.277497
H672	H	1.260470	0.871818	1.527497
H673	H	0.477347	0.154919	0.628678
H674	H	0.727347	0.404919	0.878678
H675	H	0.977347	0.654919	1.128678
H676	H	1.227347	0.904919	1.378678
H677	H	0.100448	0.062081	0.130287
H678	H	0.350448	0.312081	0.380287
H679	H	0.600448	0.562081	0.630287
H680	H	0.850448	0.812081	0.880287
H681	H	0.191894	0.063021	0.130281
H682	H	0.441894	0.313021	0.380281
H683	H	0.691894	0.563021	0.630281
H684	H	0.941894	0.813021	0.880281
H685	H	-0.282706	0.058170	0.084064
H686	H	-0.032706	0.308170	0.334064
H687	H	0.217294	0.558170	0.584064
H688	H	0.467294	0.808170	0.834064
F689	F	0.664144	-0.195301	0.000141
F690	F	0.914144	0.054699	0.250141
F691	F	1.164144	0.304699	0.500141
F692	F	1.414144	0.554699	0.750141
F693	F	-0.057118	0.060449	-0.141631
F694	F	0.192882	0.310449	0.108369
F695	F	0.442882	0.560449	0.358369
F696	F	0.692882	0.810449	0.608369
F697	F	-0.184966	0.059145	-0.095365
F698	F	0.065034	0.309145	0.154635
F699	F	0.315034	0.559145	0.404635
F700	F	0.565034	0.809145	0.654635
F701	F	0.704323	-0.584548	0.000128
F702	F	0.954323	-0.334548	0.250128
F703	F	1.204323	-0.084548	0.500128
F704	F	1.454323	0.165452	0.750128
F705	F	0.672022	-0.039673	0.475110
F706	F	0.922022	0.210327	0.725110
F707	F	1.172022	0.460327	0.975110
F708	F	1.422022	0.710327	1.225110
F709	F	0.435231	-0.443141	0.000065
F710	F	0.685231	-0.193141	0.250065
F711	F	0.935231	0.056859	0.500065
F712	F	1.185231	0.306859	0.750065
H713	H	0.663738	-0.031389	0.371543
H714	H	0.913738	0.218611	0.621543
H715	H	1.163738	0.468611	0.871543
H716	H	1.413738	0.718611	1.121543
F717	F	0.094116	0.061994	-0.141643
F718	F	0.344116	0.311994	0.108357
F719	F	0.594116	0.561994	0.358357
F720	F	0.844116	0.811994	0.608357
H721	H	0.694908	-0.425472	0.000135
H722	H	0.944908	-0.175472	0.250135
H723	H	1.194908	0.074528	0.500135
H724	H	1.444908	0.324528	0.750135
F725	F	0.638927	-0.006578	0.770812
F726	F	0.888927	0.243422	1.020812
F727	F	1.138927	0.493422	1.270812
F728	F	1.388927	0.743422	1.520812
H729	H	0.510483	0.121820	0.874391
H730	H	0.760483	0.371820	1.124391
H731	H	1.010483	0.621820	1.374391
H732	H	1.260483	0.871820	1.624391
F733	F	0.658950	-0.706298	0.000125
F734	F	0.908950	-0.456298	0.250125
F735	F	1.158950	-0.206298	0.500125
F736	F	1.408950	0.043702	0.750125
F737	F	0.469048	0.163202	0.475111
F738	F	0.719048	0.413202	0.725111
F739	F	0.969048	0.663202	0.975111
F740	F	1.219048	0.913202	1.225111
H741	H	0.510448	0.121850	0.222748
H742	H	0.760448	0.371850	0.472748
H743	H	1.010448	0.621850	0.722748
H744	H	1.260448	0.871850	0.972748
F745	F	0.469062	0.163200	0.525111
F746	F	0.719062	0.413200	0.775111
F747	F	0.969062	0.663200	1.025111
F748	F	1.219062	0.913200	1.275111
H749	H	0.423795	0.065385	-0.083840
H750	H	0.673795	0.315385	0.166160
H751	H	0.923795	0.565385	0.416160
H752	H	1.173795	0.815385	0.666160
