data_functionalizedCrystal
_audit_creation_method	'MofGen! by Chris Wilmer'
_symmetry_space_group_name_H-M	'P1'
_symmetry_Int_Tables_number	1
_symmetry_cell_setting	triclinic
loop_
_symmetry_equiv_pos_as_xyz
  x,y,z
_cell_length_a	21.295418
_cell_length_b	21.295417
_cell_length_c	18.215399
_cell_angle_alpha	89.967848
_cell_angle_beta	89.961117
_cell_angle_gamma	90.046319
loop_
_atom_site_label
_atom_site_type_symbol
_atom_site_fract_x
_atom_site_fract_y
_atom_site_fract_z
Zn1	Zn	0.962326	-0.250350	-0.416469
Zn2	Zn	0.962237	-0.355621	-0.293393
Zn3	Zn	0.857058	-0.250399	-0.293375
Zn4	Zn	0.857018	-0.355614	-0.416377
O5	O	0.909660	-0.302996	-0.354904
O6	O	1.050403	-0.264297	-0.400188
O7	O	0.948264	-0.341686	-0.190407
O8	O	0.871075	-0.162303	-0.309734
O9	O	1.050338	-0.341639	-0.309765
O10	O	0.948415	-0.162267	-0.400171
O11	O	0.870989	-0.264380	-0.190393
O12	O	0.768963	-0.264373	-0.309646
O13	O	0.871008	-0.341627	-0.519374
O14	O	0.768934	-0.341675	-0.400015
O15	O	0.948377	-0.264290	-0.519441
O16	O	0.948226	-0.443710	-0.309677
O17	O	0.870922	-0.443705	-0.400033
C18	C	0.746108	-0.303029	-0.354819
C19	C	0.676140	-0.303058	-0.354800
C20	C	0.643275	-0.343363	-0.401785
C21	C	0.577532	-0.343347	-0.401818
C22	C	0.544657	-0.303034	-0.354853
C23	C	0.577531	-0.262722	-0.307865
C24	C	0.643272	-0.262734	-0.307838
N25	N	0.441386	-0.298117	-0.290486
N26	N	0.378935	-0.298109	-0.290513
C27	C	0.346583	-0.302994	-0.354931
N28	N	0.379042	-0.307899	-0.419322
N29	N	0.441499	-0.307910	-0.419294
C30	C	0.473372	-0.303016	-0.354877
C31	C	0.242432	-0.343283	-0.401956
C32	C	0.176688	-0.343263	-0.401990
C33	C	0.176688	-0.262642	-0.308030
C34	C	0.242430	-0.262658	-0.308003
C35	C	0.275298	-0.302983	-0.354964
C36	C	0.909577	-0.466548	-0.354863
C37	C	0.909599	-0.536516	-0.354870
C38	C	0.949887	-0.569364	-0.307870
C39	C	0.949917	-0.635107	-0.307886
C40	C	0.909647	-0.667998	-0.354895
C41	C	0.869357	-0.635142	-0.401904
C42	C	0.869333	-0.569401	-0.401892
N43	N	0.854580	-0.771279	-0.360477
N44	N	0.854604	-0.833731	-0.360485
C45	C	0.909718	-0.866073	-0.354938
N46	N	0.964807	-0.833604	-0.349368
N47	N	0.964782	-0.771147	-0.349356
C48	C	0.909669	-0.739284	-0.354915
C49	C	0.950041	-0.970207	-0.307953
C50	C	0.950071	-1.035950	-0.307975
C51	C	0.869506	-1.035985	-0.401989
C52	C	0.869481	-0.970242	-0.401971
C53	C	0.909747	-0.937357	-0.354949
C54	C	1.073850	-0.302963	-0.354989
C55	C	1.143818	-0.302949	-0.355025
C56	C	0.909698	-0.302953	-0.546857
C57	C	0.909714	-0.302934	-0.628655
C58	C	0.909760	-0.138806	-0.354961
C59	C	0.909802	-0.068838	-0.354985
C60	C	0.950015	-0.262627	-0.816886
C61	C	0.950022	-0.262609	-0.893744
C62	C	0.869458	-0.343144	-0.893663
C63	C	0.869448	-0.343159	-0.816806
C64	C	0.909730	-0.302901	-0.778419
C65	C	0.909748	-0.302868	-0.932135
C66	C	0.909756	-0.302848	-1.015469
C67	C	0.909721	-0.302920	-0.695080
C68	C	0.909658	-0.302994	-0.163697
C69	C	0.909763	-0.302835	-0.081899
H70	H	0.550768	-0.376167	-0.440081
C71	C	0.958969	-1.110012	-0.209085
C72	C	0.994394	-1.072096	-0.256382
H73	H	0.986344	-1.132340	-0.177259
H74	H	0.931582	-1.084441	-0.180822
H75	H	0.934965	-1.138978	-0.237100
H76	H	1.018395	-1.043127	-0.228367
H77	H	1.021792	-1.097670	-0.284648
H78	H	0.982825	-0.229812	-0.925061
H79	H	0.836639	-0.375954	-0.785486
H80	H	0.836525	-0.542655	-0.440166
H81	H	0.982831	-0.943431	-0.269667
H82	H	0.982813	-0.229845	-0.785633
H83	H	0.836664	-0.375922	-0.924927
H84	H	0.836672	-0.943495	-0.440240
C85	C	0.663585	-0.374167	-0.526329
C86	C	0.679401	-0.387680	-0.453413
H87	H	0.685892	-0.401524	-0.558202
H88	H	0.619733	-0.379929	-0.533060
H89	H	0.674414	-0.331884	-0.537177
H90	H	0.668568	-0.429961	-0.442563
H91	H	0.723263	-0.381923	-0.446678
C92	C	0.476753	-0.226920	-0.266172
C93	C	0.541397	-0.218415	-0.256233
H94	H	0.454447	-0.199567	-0.234292
H95	H	0.466031	-0.217755	-0.315635
H96	H	0.465938	-0.269205	-0.255317
H97	H	0.552213	-0.176131	-0.267094
H98	H	0.552123	-0.227575	-0.206758
H99	H	0.836720	-1.062764	-0.440268
H100	H	0.269194	-0.376114	-0.440199
C101	C	0.636667	-0.183045	-0.214965
C102	C	0.679401	-0.218434	-0.256182
H103	H	0.658974	-0.155700	-0.183070
H104	H	0.611082	-0.158994	-0.247091
H105	H	0.610969	-0.210441	-0.186769
H106	H	0.705096	-0.191038	-0.284382
H107	H	0.704997	-0.242486	-0.224051
H108	H	0.149930	-0.376083	-0.440255
C109	C	0.075915	-0.226855	-0.266316
C110	C	0.140560	-0.218347	-0.256382
H111	H	0.053610	-0.199516	-0.234420
H112	H	0.065188	-0.217675	-0.315774
H113	H	0.065105	-0.269145	-0.255479
H114	H	0.151370	-0.176059	-0.267224
H115	H	0.151291	-0.227524	-0.206913
H116	H	0.269190	-0.229841	-0.269739
C117	C	1.029529	-0.575939	-0.214948
C118	C	0.994157	-0.533218	-0.256195
H119	H	1.056863	-0.553621	-0.183051
H120	H	1.002125	-0.601625	-0.186760
H121	H	1.053596	-0.601537	-0.247061
H122	H	0.970086	-0.507623	-0.224081
H123	H	1.021564	-0.507521	-0.284384
C124	C	1.034607	-0.708969	-0.297764
C125	C	0.994187	-0.671232	-0.256207
H126	H	1.061933	-0.731269	-0.265855
H127	H	1.010628	-0.737954	-0.325770
H128	H	1.058679	-0.683275	-0.329843
H129	H	0.970111	-0.696926	-0.224132
H130	H	1.018168	-0.642244	-0.228189
C131	C	0.833615	-0.735935	-0.443659
C132	C	0.825089	-0.671294	-0.453576
H133	H	0.806283	-0.758252	-0.475559
H134	H	0.875903	-0.746650	-0.454494
H135	H	0.824429	-0.746742	-0.394198
H136	H	0.834280	-0.660486	-0.503036
H137	H	0.782791	-0.660574	-0.442745
