data_functionalizedCrystal
_audit_creation_method	'MofGen! by Chris Wilmer'
_symmetry_space_group_name_H-M	'P1'
_symmetry_Int_Tables_number	1
_symmetry_cell_setting	triclinic
loop_
_symmetry_equiv_pos_as_xyz
  x,y,z
_cell_length_a	8.559649
_cell_length_b	11.792254
_cell_length_c	7.088929
_cell_angle_alpha	83.733108
_cell_angle_beta	95.325015
_cell_angle_gamma	76.988631
loop_
_atom_site_label
_atom_site_type_symbol
_atom_site_fract_x
_atom_site_fract_y
_atom_site_fract_z
O1	O	2.103507	-0.025390	-0.158956
O2	O	1.638813	0.033181	-0.158967
O3	O	1.882428	-0.162306	-0.158948
O4	O	1.859892	0.170098	-0.158976
O5	O	1.914984	-0.188484	0.159030
O6	O	1.671369	0.007004	0.159010
O7	O	2.136063	-0.051567	0.159022
Cu8	Cu	1.906689	-0.024672	0.188050
Cu9	Cu	1.868187	0.006286	-0.187996
O10	O	1.892448	0.143920	0.159002
C11	C	1.595600	0.024531	0.000020
C12	C	1.418335	0.037743	0.000016
C13	C	1.897286	-0.217556	0.000040
C14	C	1.893038	-0.343180	0.000038
C15	C	1.889585	-0.445200	0.000031
C16	C	1.885267	-0.573190	0.000014
C17	C	2.179276	-0.042917	0.000030
C18	C	2.356540	-0.056128	0.000021
C19	C	1.877589	0.199170	0.000010
C20	C	1.881837	0.324795	-0.000001
N21	N	1.933780	-0.046448	0.452540
N22	N	1.841108	0.028052	-0.452486
H23	H	1.439247	-0.146602	0.000019
N24	N	1.308812	0.157610	0.000013
H25	H	1.226830	0.177099	-0.117861
H26	H	1.251085	0.157598	0.117966
H27	H	2.029842	-0.123650	0.534204
N28	N	1.713883	0.130321	0.439371
H29	H	1.715791	0.128776	0.297421
H30	H	1.604018	0.124310	0.474281
