data_functionalizedCrystal
_audit_creation_method	'MofGen! by Chris Wilmer'
_symmetry_space_group_name_H-M	'P1'
_symmetry_Int_Tables_number	1
_symmetry_cell_setting	triclinic
loop_
_symmetry_equiv_pos_as_xyz
  x,y,z
_cell_length_a	23.532407
_cell_length_b	23.532407
_cell_length_c	14.048226
_cell_angle_alpha	89.988910
_cell_angle_beta	89.996211
_cell_angle_gamma	82.848712
loop_
_atom_site_label
_atom_site_type_symbol
_atom_site_fract_x
_atom_site_fract_y
_atom_site_fract_z
O1	O	0.755261	0.069136	-0.079110
O2	O	1.088594	0.402470	0.254223
O3	O	1.421928	0.735803	0.587557
O4	O	0.589398	0.079140	-0.079127
O5	O	0.922731	0.412473	0.254207
O6	O	1.256064	0.745806	0.587540
O7	O	0.677331	-0.008794	-0.079100
O8	O	1.010664	0.324540	0.254233
O9	O	1.343998	0.657873	0.587566
O10	O	0.667328	0.157070	-0.079136
O11	O	1.000661	0.490403	0.254197
O12	O	1.333994	0.823736	0.587530
O13	O	0.677320	-0.008799	0.079221
O14	O	1.010654	0.324535	0.412554
O15	O	1.343987	0.657868	0.745888
O16	O	0.589387	0.079134	0.079195
O17	O	0.922720	0.412468	0.412528
O18	O	1.256054	0.745801	0.745861
O19	O	0.755250	0.069131	0.079211
O20	O	1.088584	0.402465	0.412545
O21	O	1.421917	0.735798	0.745878
Zn22	Zn	0.672317	0.074132	0.104340
Zn23	Zn	1.005650	0.407465	0.437673
Zn24	Zn	1.338984	0.740799	0.771007
Zn25	Zn	0.672331	0.074139	-0.104255
Zn26	Zn	1.005664	0.407472	0.229078
Zn27	Zn	1.338998	0.740805	0.562411
O28	O	0.667317	0.157065	0.079185
O29	O	1.000650	0.490398	0.412518
O30	O	1.333984	0.823731	0.745852
C31	C	0.568176	0.078882	0.000032
C32	C	0.901510	0.412216	0.333366
C33	C	1.234843	0.745549	0.666699
C34	C	0.504959	0.078116	0.000027
C35	C	0.838293	0.411450	0.333360
C36	C	1.171626	0.744783	0.666693
C37	C	0.238792	0.022921	0.000065
C38	C	0.572125	0.356254	0.333398
C39	C	0.905458	0.689588	0.666731
C40	C	0.298192	0.023632	0.000064
C41	C	0.631525	0.356966	0.333398
C42	C	0.964859	0.690299	0.666731
O43	O	0.334937	-0.020153	0.000107
O44	O	0.668270	0.313180	0.333440
O45	O	1.001603	0.646513	0.666773
N46	N	0.320818	0.075909	0.000046
N47	N	0.654152	0.409242	0.333380
N48	N	0.987485	0.742575	0.666713
C49	C	0.284041	0.127477	0.000039
C50	C	0.617374	0.460810	0.333372
C51	C	0.950707	0.794144	0.666705
O52	O	0.308740	0.172007	0.000024
O53	O	0.642074	0.505341	0.333358
O54	O	0.975407	0.838674	0.666691
C55	C	0.224642	0.126765	0.000046
C56	C	0.557975	0.460098	0.333379
C57	C	0.891308	0.793432	0.666713
C58	C	0.202019	0.074485	0.000054
C59	C	0.535352	0.407819	0.333387
C60	C	0.868686	0.741152	0.666721
C61	C	0.216168	-0.029354	0.000074
C62	C	0.549502	0.303979	0.333407
C63	C	0.882835	0.637312	0.666740
C64	C	0.156772	-0.030066	0.000072
C65	C	0.490106	0.303268	0.333406
C66	C	0.823439	0.636601	0.666739
C67	C	0.119999	0.021499	0.000062
C68	C	0.453333	0.354832	0.333395
C69	C	0.786666	0.688165	0.666729
C70	C	0.142623	0.073774	0.000053
C71	C	0.475956	0.407107	0.333386
C72	C	0.809289	0.740441	0.666719
C73	C	0.187865	0.178333	0.000045
C74	C	0.521199	0.511666	0.333378
C75	C	0.854532	0.844999	0.666712
C76	C	0.128463	0.177616	0.000053
C77	C	0.461796	0.510949	0.333386
C78	C	0.795129	0.844283	0.666720
C79	C	0.105840	0.125336	0.000061
C80	C	0.439173	0.458670	0.333394
C81	C	0.772507	0.792003	0.666728
C82	C	0.046454	0.124627	0.000041
C83	C	0.379787	0.457960	0.333374
C84	C	0.713120	0.791294	0.666707
N85	N	0.023828	0.072351	0.000059
N86	N	0.357161	0.405684	0.333392
N87	N	0.690494	0.739017	0.666725
C88	C	0.060600	0.020787	0.000069
C89	C	0.393934	0.354120	0.333402
C90	C	0.727267	0.687453	0.666736
C91	C	0.408783	0.128968	0.000025
C92	C	0.742117	0.462302	0.333359
C93	C	1.075450	0.795635	0.666692
C94	C	0.468181	0.129681	0.000011
C95	C	0.801514	0.463014	0.333345
C96	C	1.134848	0.796348	0.666678
C97	C	0.482328	0.025836	0.000038
C98	C	0.815662	0.359170	0.333372
C99	C	1.148995	0.692503	0.666705
C100	C	0.422929	0.025124	0.000046
C101	C	0.756263	0.358457	0.333379
C102	C	1.089596	0.691791	0.666712
C103	C	0.386157	0.076692	0.000043
C104	C	0.719490	0.410025	0.333376
C105	C	1.052824	0.743359	0.666710
C106	C	-0.064136	0.019297	0.000065
C107	C	0.269197	0.352630	0.333399
C108	C	0.602530	0.685964	0.666732
C109	C	-0.123538	0.018590	0.000060
C110	C	0.209795	0.351924	0.333393
C111	C	0.543128	0.685257	0.666727
C112	C	-0.137680	0.122435	0.000038
C113	C	0.195653	0.455768	0.333371
C114	C	0.528986	0.789101	0.666705
C115	C	-0.078284	0.123142	0.000038
C116	C	0.255050	0.456475	0.333371
C117	C	0.588383	0.789808	0.666705
C118	C	-0.041512	0.071568	0.000055
C119	C	0.291821	0.404901	0.333388
C120	C	0.625154	0.738235	0.666722
O121	O	0.009675	0.168390	0.000002
O122	O	0.343008	0.501723	0.333336
O123	O	0.676341	0.835057	0.666669
O124	O	0.035892	-0.023737	0.000096
O125	O	0.369226	0.309597	0.333429
O126	O	0.702559	0.642930	0.666763
C127	C	0.677071	-0.030012	0.000063
C128	C	1.010404	0.303321	0.333396
C129	C	1.343738	0.636654	0.666729
C130	C	0.676305	-0.093229	0.000070
C131	C	1.009638	0.240104	0.333403
C132	C	1.342972	0.573437	0.666737
C133	C	0.723538	-0.492332	0.000022
C134	C	1.056872	-0.158999	0.333356
C135	C	1.390205	0.174334	0.666689
C136	C	0.722827	-0.551733	0.000015
C137	C	1.056160	-0.218399	0.333348
C138	C	1.389494	0.114934	0.666682
O139	O	0.766613	-0.588477	-0.000016
O140	O	1.099946	-0.255144	0.333318
O141	O	1.433280	0.078190	0.666651
N142	N	0.670551	-0.574359	0.000011
N143	N	1.003884	-0.241025	0.333344
N144	N	1.337217	0.092308	0.666677
C145	C	0.618982	-0.537581	0.000004
C146	C	0.952316	-0.204248	0.333337
C147	C	1.285649	0.129085	0.666670
O148	O	0.574452	-0.562281	-0.000002
O149	O	0.907785	-0.228948	0.333332
O150	O	1.241119	0.104386	0.666665
C151	C	0.619695	-0.478182	0.000004
C152	C	0.953028	-0.144849	0.333338
C153	C	1.286361	0.188485	0.666671
C154	C	0.671974	-0.455559	0.000018
C155	C	1.005308	-0.122226	0.333352
C156	C	1.338641	0.211107	0.666685
C157	C	0.775814	-0.469709	0.000035
C158	C	1.109147	-0.136376	0.333369
C159	C	1.442481	0.196958	0.666702
C160	C	0.776525	-0.410313	0.000045
C161	C	1.109858	-0.076980	0.333378
C162	C	1.443192	0.256354	0.666711
C163	C	0.724961	-0.373540	0.000041
C164	C	1.058294	-0.040207	0.333374
C165	C	1.391628	0.293127	0.666707
C166	C	0.672685	-0.396163	0.000027
C167	C	1.006019	-0.062830	0.333361
C168	C	1.339352	0.270503	0.666694
C169	C	0.568127	-0.441406	-0.000009
C170	C	0.901460	-0.108072	0.333324
C171	C	1.234794	0.225261	0.666657
C172	C	0.568843	-0.382003	-0.000010
C173	C	0.902177	-0.048670	0.333324
C174	C	1.235510	0.284663	0.666657
C175	C	0.621123	-0.359381	0.000004
C176	C	0.954457	-0.026047	0.333338
C177	C	1.287790	0.307286	0.666671
C178	C	0.621832	-0.299994	0.000033
C179	C	0.955166	0.033339	0.333366
C180	C	1.288499	0.366672	0.666699
N181	N	0.674109	-0.277368	0.000037
N182	N	1.007442	0.055965	0.333370
N183	N	1.340775	0.389299	0.666704
C184	C	0.725673	-0.314141	0.000041
C185	C	1.059006	0.019192	0.333374
C186	C	1.392340	0.352526	0.666708
C187	C	0.617491	-0.662324	0.000001
C188	C	0.950824	-0.328990	0.333334
C189	C	1.284158	0.004343	0.666668
C190	C	0.616778	-0.721722	0.000007
C191	C	0.950112	-0.388388	0.333341
C192	C	1.283445	-0.055055	0.666674
C193	C	0.720623	-0.735869	0.000017
C194	C	1.053957	-0.402536	0.333350
C195	C	1.387290	-0.069202	0.666684
C196	C	0.721335	-0.676470	0.000017
C197	C	1.054669	-0.343137	0.333351
C198	C	1.388002	-0.009803	0.666684
C199	C	0.669767	-0.639698	0.000006
C200	C	1.003101	-0.306364	0.333339
C201	C	1.336434	0.026969	0.666672
C202	C	0.727163	-0.189404	0.000061
C203	C	1.060496	0.143929	0.333394
C204	C	1.393829	0.477262	0.666728
C205	C	0.727869	-0.130002	0.000074
C206	C	1.061203	0.203331	0.333407
C207	C	1.394536	0.536664	0.666741
C208	C	0.624025	-0.115860	0.000059
C209	C	0.957358	0.217473	0.333393
C210	C	1.290691	0.550807	0.666726
C211	C	0.623318	-0.175257	0.000051
C212	C	0.956651	0.158076	0.333385
C213	C	1.289984	0.491410	0.666718
C214	C	0.674891	-0.212028	0.000049
C215	C	1.008225	0.121305	0.333382
C216	C	1.341558	0.454639	0.666716
O217	O	0.578069	-0.263215	0.000059
O218	O	0.911403	0.070118	0.333393
O219	O	1.244736	0.403452	0.666726
O220	O	0.770196	-0.289433	0.000034
O221	O	1.103529	0.043900	0.333367
O222	O	1.436863	0.377234	0.666701
C223	C	0.776472	0.069389	0.000050
C224	C	1.109805	0.402722	0.333384
C225	C	1.443138	0.736055	0.666717
C226	C	0.839689	0.070155	0.000050
C227	C	1.173022	0.403488	0.333383
C228	C	1.506355	0.736821	0.666716
C229	C	0.667577	0.178283	0.000020
C230	C	1.000910	0.511617	0.333353
C231	C	1.334244	0.844950	0.666687
C232	C	0.668343	0.241500	0.000006
C233	C	1.001676	0.574834	0.333340
C234	C	1.335010	0.908167	0.666673
N235	N	0.672312	0.074127	0.246701
N236	N	1.005645	0.407461	0.580034
N237	N	1.338978	0.740794	0.913367
N238	N	0.672341	0.074139	-0.246616
N239	N	1.005674	0.407473	0.086717
N240	N	1.339007	0.740806	0.420051
C241	C	0.711261	0.035206	0.296530
C242	C	1.044594	0.368540	0.629864
C243	C	1.377927	0.701873	0.963197
C244	C	0.711265	0.035206	0.396188
C245	C	1.044598	0.368539	0.729521
C246	C	1.377931	0.701873	1.062855
C247	C	0.672322	0.074130	0.446014
C248	C	1.005655	0.407463	0.779347
C249	C	1.338988	0.740796	1.112681
C250	C	0.633369	0.113052	0.396177
C251	C	0.966702	0.446386	0.729511
C252	C	1.300035	0.779719	1.062844
C253	C	0.633363	0.113050	0.296522
C254	C	0.966696	0.446383	0.629855
C255	C	1.300029	0.779716	0.963188
C256	C	0.633385	0.113056	0.603892
C257	C	0.966718	0.446390	0.937225
C258	C	1.300052	0.779723	1.270558
C259	C	0.633392	0.113060	0.703554
C260	C	0.966725	0.446394	1.036888
C261	C	1.300058	0.779727	1.370221
C262	C	0.711287	0.035213	0.703558
C263	C	1.044620	0.368546	1.036891
C264	C	1.377954	0.701879	1.370225
C265	C	0.711281	0.035210	0.603902
C266	C	1.044614	0.368543	0.937235
C267	C	1.377948	0.701877	1.270569
C268	C	0.672328	0.074134	0.554072
C269	C	1.005662	0.407467	0.887406
C270	C	1.338995	0.740800	1.220739
H271	H	0.098525	0.219610	0.000055
H272	H	0.431858	0.552943	0.333389
H273	H	0.765191	0.886277	0.666722
Cl274	Cl	0.584431	0.161994	0.766186
Cl275	Cl	0.917765	0.495327	1.099519
Cl276	Cl	1.251098	0.828661	1.432852
Cl277	Cl	0.584413	0.161989	0.541253
Cl278	Cl	0.917747	0.495323	0.874586
Cl279	Cl	1.251080	0.828656	1.207919
Cl280	Cl	0.528568	-0.038988	0.000051
Cl281	Cl	0.861902	0.294345	0.333385
Cl282	Cl	1.195235	0.627679	0.666718
Cl283	Cl	0.785447	-0.782109	0.000015
Cl284	Cl	1.118781	-0.448776	0.333349
Cl285	Cl	1.452114	-0.115442	0.666682
H286	H	-0.167631	0.164417	0.000025
H287	H	0.165702	0.497750	0.333358
H288	H	0.499035	0.831084	0.666691
Cl289	Cl	0.394496	-0.040601	0.000061
Cl290	Cl	0.727829	0.292732	0.333394
Cl291	Cl	1.061163	0.626066	0.666728
Cl292	Cl	0.551053	-0.750154	0.000008
Cl293	Cl	0.884386	-0.416820	0.333341
Cl294	Cl	1.217719	-0.083487	0.666675
H295	H	-0.059864	0.165712	0.000030
H296	H	0.273470	0.499045	0.333364
H297	H	0.606803	0.832379	0.666697
H298	H	0.575496	-0.632386	-0.000000
H299	H	0.908829	-0.299053	0.333333
H300	H	1.242162	0.034281	0.666666
H301	H	0.206274	0.220904	0.000034
H302	H	0.539607	0.554238	0.333368
H303	H	0.872940	0.887571	0.666701
H304	H	0.742994	0.003518	0.563334
H305	H	1.076327	0.336851	0.896667
H306	H	1.409660	0.670185	1.230000
H307	H	0.763906	-0.658055	0.000028
H308	H	1.097239	-0.324722	0.333362
H309	H	1.430573	0.008612	0.666695
Cl310	Cl	0.793597	-0.101567	0.000090
Cl311	Cl	1.126931	0.231767	0.333423
Cl312	Cl	1.460264	0.565100	0.666756
Cl313	Cl	0.760256	-0.013718	0.766204
Cl314	Cl	1.093589	0.319615	1.099537
Cl315	Cl	1.426922	0.652949	1.432871
H316	H	0.601646	0.144742	0.255951
H317	H	0.934979	0.478076	0.589285
H318	H	1.268312	0.811409	0.922618
Cl319	Cl	0.502400	-0.469830	-0.000033
Cl320	Cl	0.835733	-0.136497	0.333300
Cl321	Cl	1.169066	0.196836	0.666633
H322	H	0.769159	-0.219337	0.000055
H323	H	1.102492	0.113996	0.333389
H324	H	1.435825	0.447330	0.666722
H325	H	0.526850	-0.352065	-0.000021
H326	H	0.860183	-0.018732	0.333313
H327	H	1.193516	0.314601	0.666646
H328	H	0.582043	-0.085909	0.000059
H329	H	0.915376	0.247424	0.333393
H330	H	1.248709	0.580758	0.666726
H331	H	0.378846	0.170964	0.000016
H332	H	0.712179	0.504297	0.333349
H333	H	1.045512	0.837630	0.666683
Cl334	Cl	0.760223	-0.013727	0.233902
Cl335	Cl	1.093557	0.319606	0.567235
Cl336	Cl	1.426890	0.652940	0.900569
H337	H	0.601658	0.144743	0.436752
H338	H	0.934991	0.478076	0.770085
H339	H	1.268325	0.811410	1.103418
H340	H	0.819097	-0.391900	0.000052
H341	H	1.152430	-0.058566	0.333386
H342	H	1.485763	0.274767	0.666719
Cl343	Cl	0.840647	-0.515928	0.000042
Cl344	Cl	1.173980	-0.182595	0.333376
Cl345	Cl	1.507314	0.150738	0.666709
H346	H	0.580747	-0.193677	0.000066
H347	H	0.914081	0.139656	0.333400
H348	H	1.247414	0.472990	0.666733
Cl349	Cl	0.262388	-0.094187	0.000088
Cl350	Cl	0.595721	0.239146	0.333421
Cl351	Cl	0.929054	0.572479	0.666754
H352	H	0.742979	0.003513	0.436759
H353	H	1.076313	0.336847	0.770092
H354	H	1.409646	0.670180	1.103425
H355	H	-0.034204	-0.022699	0.000079
H356	H	0.299130	0.310634	0.333412
H357	H	0.632463	0.643967	0.666746
Cl358	Cl	0.128342	-0.095792	0.000074
Cl359	Cl	0.461675	0.237541	0.333408
Cl360	Cl	0.795008	0.570874	0.666741
Cl361	Cl	-0.151974	-0.047138	0.000064
Cl362	Cl	0.181359	0.286196	0.333397
Cl363	Cl	0.514693	0.619529	0.666731
H364	H	0.486595	0.172252	-0.000009
H365	H	0.819928	0.505586	0.333325
H366	H	1.153261	0.838919	0.666658
