data_functionalizedCrystal
_audit_creation_method	'MofGen! by Chris Wilmer'
_symmetry_space_group_name_H-M	'P1'
_symmetry_Int_Tables_number	1
_symmetry_cell_setting	triclinic
loop_
_symmetry_equiv_pos_as_xyz
  x,y,z
_cell_length_a	10.654562
_cell_length_b	10.540510
_cell_length_c	9.730223
_cell_angle_alpha	90.001116
_cell_angle_beta	89.996961
_cell_angle_gamma	84.501707
loop_
_atom_site_label
_atom_site_type_symbol
_atom_site_fract_x
_atom_site_fract_y
_atom_site_fract_z
O1	O	1.667869	0.178374	-0.114372
O2	O	1.302396	0.195345	-0.114354
O3	O	1.493490	0.002148	-0.114363
O4	O	1.476775	0.371571	-0.114363
O5	O	1.493488	0.002153	0.114217
O6	O	1.302394	0.195350	0.114226
O7	O	1.667866	0.178379	0.114208
Zn8	Zn	1.485130	0.186865	0.150509
Zn9	Zn	1.485133	0.186859	-0.150655
O10	O	1.476773	0.371576	0.114217
C11	C	1.255597	0.194098	-0.000062
C12	C	1.116154	0.190360	-0.000056
C13	C	1.050622	0.188619	0.124533
C14	C	0.919598	0.185116	0.124510
C15	C	0.919651	0.185102	-0.124701
C16	C	1.050673	0.188595	-0.124676
C17	C	1.116103	0.190384	0.249153
C18	C	1.050570	0.188644	0.373752
C19	C	0.919547	0.185142	0.373729
C20	C	0.854056	0.183379	0.249107
C21	C	1.492243	-0.045153	-0.000076
C22	C	1.488517	-0.186101	-0.000084
C23	C	1.621269	-0.403599	0.000433
C24	C	1.625244	-0.257004	-0.000089
C25	C	1.418527	-0.230841	-0.130608
C26	C	1.415520	-0.377601	-0.130710
C27	C	1.412670	-0.377403	0.129228
C28	C	1.419155	-0.231064	0.130946
C29	C	1.714666	0.179626	-0.000087
C30	C	1.854109	0.183364	-0.000103
C31	C	1.478019	0.418877	-0.000074
C32	C	1.481746	0.559825	-0.000075
N33	N	1.485137	0.186869	0.356045
N34	N	1.485136	0.186845	-0.356192
C35	C	1.569775	0.101351	0.427967
C36	C	1.569772	0.101335	0.571850
C37	C	1.400488	0.272368	0.571876
C38	C	1.400486	0.272376	0.427996
C39	C	1.654426	0.015844	0.356016
C40	C	1.739072	-0.069681	0.427939
C41	C	1.739069	-0.069696	0.571822
C42	C	1.654419	0.015813	0.643782
H43	H	1.222788	0.193240	0.249186
C44	C	1.122604	0.190580	0.510823
H45	H	1.210020	0.192927	0.492996
H46	H	1.110037	0.116113	0.562022
H47	H	1.092203	0.263918	0.562009
C48	C	1.699218	-0.217369	0.126301
H49	H	1.701748	-0.127518	0.126154
H50	H	1.782733	-0.257894	0.123072
H51	H	1.658795	-0.242231	0.207662
C52	C	0.847464	0.183226	0.510777
H53	H	0.905231	0.184787	0.584994
H54	H	0.805263	0.107966	0.515959
H55	H	0.787441	0.255771	0.515939
H56	H	1.654415	0.015784	0.760942
H57	H	1.331565	0.342012	0.369436
H58	H	0.747369	0.180524	0.249099
H59	H	1.319334	-0.181966	0.138833
H60	H	0.866318	0.183670	-0.226161
C61	C	1.692820	-0.462369	-0.125318
H62	H	1.777031	-0.439807	-0.124220
H63	H	1.652092	-0.431050	-0.207052
H64	H	1.693496	-0.552515	-0.122247
H65	H	1.104030	0.190019	-0.226127
C66	C	1.480076	-0.431952	-0.262555
H67	H	1.507901	-0.364309	-0.315542
H68	H	1.421783	-0.474936	-0.314696
H69	H	1.550373	-0.490122	-0.238773
H70	H	1.331571	0.341987	0.630476
C71	C	1.693231	-0.460282	0.126890
H72	H	1.638840	-0.506773	0.180508
H73	H	1.721527	-0.393373	0.180623
H74	H	1.763716	-0.515694	0.097555
C75	C	1.699640	-0.218645	-0.126718
H76	H	1.727538	-0.292697	-0.178048
H77	H	1.770484	-0.177346	-0.097624
H78	H	1.646778	-0.162241	-0.182627
H79	H	1.313256	-0.400564	-0.136619
H80	H	1.310014	-0.399521	0.130112
C81	C	1.282554	-0.166775	-0.137176
H82	H	1.267227	-0.112037	-0.060193
H83	H	1.225064	-0.230305	-0.135961
H84	H	1.271496	-0.118432	-0.219423
C85	C	1.484186	-0.189196	-0.261844
H86	H	1.441133	-0.216710	-0.340284
H87	H	1.569050	-0.226219	-0.263020
H88	H	1.482862	-0.098958	-0.263200
C89	C	1.471047	-0.434746	0.262880
H90	H	1.538102	-0.497512	0.241068
H91	H	1.408510	-0.472838	0.313850
H92	H	1.502575	-0.369261	0.316162
C93	C	1.487938	-0.192421	0.261395
H94	H	1.558628	-0.149059	0.236126
H95	H	1.515648	-0.266557	0.312652
H96	H	1.431972	-0.137774	0.315876
C97	C	1.832175	-0.163740	0.348795
H98	H	1.882573	-0.214683	0.412240
H99	H	1.884856	-0.117575	0.292671
H100	H	1.786527	-0.217013	0.292664
C101	C	1.832171	-0.163769	0.650933
H102	H	1.882587	-0.214682	0.587471
H103	H	1.786537	-0.217051	0.707058
H104	H	1.884851	-0.117599	0.707061
H105	H	1.654439	0.015851	0.238860
