data_functionalizedCrystal
_audit_creation_method	'MofGen! by Chris Wilmer'
_symmetry_space_group_name_H-M	'P1'
_symmetry_Int_Tables_number	1
_symmetry_cell_setting	triclinic
loop_
_symmetry_equiv_pos_as_xyz
  x,y,z
_cell_length_a	19.288864
_cell_length_b	15.995350
_cell_length_c	17.766277
_cell_angle_alpha	89.995869
_cell_angle_beta	89.976791
_cell_angle_gamma	83.314311
loop_
_atom_site_label
_atom_site_type_symbol
_atom_site_fract_x
_atom_site_fract_y
_atom_site_fract_z
O1	O	0.921624	0.104452	-0.062832
O2	O	1.254958	0.437785	0.270501
O3	O	1.588291	0.771118	0.603835
O4	O	0.719400	0.118542	-0.062780
O5	O	1.052733	0.451875	0.270553
O6	O	1.386067	0.785208	0.603887
O7	O	0.826040	-0.010412	-0.062807
O8	O	1.159373	0.322922	0.270527
O9	O	1.492707	0.656255	0.603860
O10	O	0.814984	0.233405	-0.062805
O11	O	1.148318	0.566739	0.270528
O12	O	1.481651	0.900072	0.603861
O13	O	0.826021	-0.010418	0.062382
O14	O	1.159355	0.322915	0.395715
O15	O	1.492688	0.656248	0.729048
O16	O	0.719381	0.118535	0.062408
O17	O	1.052715	0.451869	0.395742
O18	O	1.386048	0.785202	0.729075
O19	O	0.921605	0.104445	0.062357
O20	O	1.254939	0.437778	0.395690
O21	O	1.588272	0.771112	0.729023
Cu22	Cu	0.820492	0.111490	0.073813
Cu23	Cu	1.153825	0.444823	0.407147
Cu24	Cu	1.487158	0.778156	0.740480
Cu25	Cu	0.820514	0.111497	-0.074237
Cu26	Cu	1.153847	0.444831	0.259097
Cu27	Cu	1.487181	0.778164	0.592430
O28	O	0.814965	0.233399	0.062383
O29	O	1.148299	0.566732	0.395717
O30	O	1.481632	0.900065	0.729050
C31	C	0.693513	0.118085	-0.000179
C32	C	1.026846	0.451419	0.333154
C33	C	1.360180	0.784752	0.666487
C34	C	0.616406	0.116724	-0.000159
C35	C	0.949739	0.450058	0.333174
C36	C	1.283073	0.783391	0.666507
C37	C	0.571906	0.192388	-0.000171
C38	C	0.905239	0.525722	0.333162
C39	C	1.238573	0.859055	0.666496
C40	C	0.499456	0.191110	-0.000179
C41	C	0.832789	0.524443	0.333154
C42	C	1.166122	0.857776	0.666487
C43	C	0.471508	0.114163	-0.000191
C44	C	0.804842	0.447496	0.333142
C45	C	1.138175	0.780829	0.666475
C46	C	0.516018	0.038489	-0.000176
C47	C	0.849351	0.371822	0.333158
C48	C	1.182685	0.705155	0.666491
C49	C	0.588467	0.039769	-0.000160
C50	C	0.921800	0.373103	0.333174
C51	C	1.255134	0.706436	0.666507
C52	C	0.363096	0.053676	-0.044076
C53	C	0.696429	0.387009	0.289257
C54	C	1.029763	0.720343	0.622591
C55	C	0.290648	0.052398	-0.044097
C56	C	0.623982	0.385732	0.289237
C57	C	0.957315	0.719065	0.622570
C58	C	0.248053	0.110209	-0.000237
C59	C	0.581386	0.443543	0.333097
C60	C	0.914719	0.776876	0.666430
C61	C	0.277912	0.169312	0.043634
C62	C	0.611246	0.502645	0.376967
C63	C	0.944579	0.835979	0.710300
C64	C	0.350361	0.170593	0.043650
C65	C	0.683694	0.503926	0.376983
C66	C	1.017028	0.837259	0.710316
C67	C	0.392951	0.112765	-0.000208
C68	C	0.726284	0.446099	0.333125
C69	C	1.059618	0.779432	0.666459
C70	C	0.124993	0.184492	-0.000256
C71	C	0.458327	0.517826	0.333077
C72	C	0.791660	0.851159	0.666410
C73	C	0.052542	0.183210	-0.000260
C74	C	0.385875	0.516544	0.333073
C75	C	0.719208	0.849877	0.666407
C76	C	0.069106	0.030587	-0.000264
C77	C	0.402439	0.363920	0.333070
C78	C	0.735773	0.697254	0.666403
C79	C	0.141556	0.031871	-0.000253
C80	C	0.474889	0.365204	0.333081
C81	C	0.808222	0.698538	0.666414
C82	C	0.169495	0.108826	-0.000252
C83	C	0.502828	0.442159	0.333081
C84	C	0.836161	0.775493	0.666414
C85	C	0.825574	-0.041608	-0.000214
C86	C	1.158907	0.291725	0.333120
C87	C	1.492240	0.625059	0.666453
C88	C	0.824203	-0.134553	-0.000218
C89	C	1.157537	0.198780	0.333116
C90	C	1.490870	0.532113	0.666449
C91	C	0.819282	-0.472282	-0.000214
C92	C	1.152616	-0.138949	0.333119
C93	C	1.485949	0.194384	0.666453
C94	C	0.743335	-0.424562	-0.000475
C95	C	1.076669	-0.091228	0.332858
C96	C	1.410002	0.242105	0.666191
C97	C	0.744706	-0.327877	-0.000193
C98	C	1.078039	0.005457	0.333140
C99	C	1.411373	0.338790	0.666473
C100	C	0.821723	-0.304731	-0.000216
C101	C	1.155057	0.028602	0.333117
C102	C	1.488390	0.361936	0.666450
C103	C	0.859172	-0.345953	0.071262
C104	C	1.192506	-0.012620	0.404595
C105	C	1.525839	0.320713	0.737928
C106	C	0.857264	-0.442582	0.071322
C107	C	1.190598	-0.109249	0.404655
C108	C	1.523931	0.224085	0.737989
C109	C	0.858855	-0.442939	-0.071041
C110	C	1.192188	-0.109605	0.262292
C111	C	1.525521	0.223728	0.595625
C112	C	0.858837	-0.345993	-0.071986
C113	C	1.192170	-0.012660	0.261347
C114	C	1.525503	0.320674	0.594681
C115	C	0.823107	-0.210039	-0.000215
C116	C	1.156440	0.123295	0.333118
C117	C	1.489774	0.456628	0.666452
C118	C	0.817901	-0.566975	-0.000210
C119	C	1.151234	-0.233642	0.333123
C120	C	1.484568	0.099692	0.666457
C121	C	0.947492	0.104902	-0.000246
C122	C	1.280826	0.438235	0.333087
C123	C	1.614159	0.771568	0.666421
C124	C	1.024600	0.106263	-0.000271
C125	C	1.357933	0.439596	0.333063
C126	C	1.691266	0.772929	0.666396
C127	C	0.815432	0.264595	-0.000211
C128	C	1.148765	0.597928	0.333122
C129	C	1.482099	0.931262	0.666455
C130	C	0.816802	0.357540	-0.000212
C131	C	1.150136	0.690873	0.333121
C132	C	1.483469	1.024207	0.666454
N133	N	0.820481	0.111484	0.177944
N134	N	1.153815	0.444817	0.511277
N135	N	1.487148	0.778150	0.844610
N136	N	0.820530	0.111497	-0.178367
N137	N	1.153863	0.444830	0.154966
N138	N	1.487197	0.778163	0.488300
C139	C	0.867717	0.054411	0.217319
C140	C	1.201050	0.387744	0.550652
C141	C	1.534383	0.721078	0.883985
C142	C	0.867721	0.054407	0.296120
C143	C	1.201054	0.387740	0.629454
C144	C	1.534387	0.721074	0.962787
C145	C	0.820496	0.111490	0.335544
C146	C	1.153829	0.444824	0.668877
C147	C	1.487163	0.778157	1.002211
C148	C	0.773251	0.168567	0.296160
C149	C	1.106585	0.501901	0.629493
C150	C	1.439918	0.835234	0.962826
C151	C	0.773244	0.168564	0.217359
C152	C	1.106577	0.501897	0.550693
C153	C	1.439911	0.835231	0.884026
C154	C	0.811395	0.187781	0.460384
C155	C	1.144728	0.521114	0.793717
C156	C	1.478062	0.854448	1.127051
C157	C	0.811407	0.187785	0.539183
C158	C	1.144741	0.521119	0.872516
C159	C	1.478074	0.854452	1.205849
C160	C	0.820514	0.111500	0.578590
C161	C	1.153848	0.444834	0.911924
C162	C	1.487181	0.778167	1.245257
C163	C	0.829624	0.035208	0.539190
C164	C	1.162957	0.368541	0.872523
C165	C	1.496291	0.701874	1.205856
C166	C	0.829617	0.035204	0.460389
C167	C	1.162950	0.368538	0.793723
C168	C	1.496284	0.701871	1.127056
C169	C	0.820498	0.111500	0.420990
C170	C	1.153832	0.444833	0.754323
C171	C	1.487165	0.778167	1.087656
C172	C	0.867757	0.054419	0.703411
C173	C	1.201090	0.387752	1.036745
C174	C	1.534424	0.721085	1.370078
C175	C	0.867756	0.054414	0.782215
C176	C	1.201089	0.387747	1.115548
C177	C	1.534423	0.721080	1.448881
C178	C	0.773290	0.168581	0.782252
C179	C	1.106623	0.501915	1.115586
C180	C	1.439957	0.835248	1.448919
C181	C	0.773288	0.168579	0.703451
C182	C	1.106621	0.501912	1.036784
C183	C	1.439954	0.835246	1.370117
C184	C	0.820525	0.111499	0.664035
C185	C	1.153858	0.444832	0.997368
C186	C	1.487191	0.778165	1.330702
H187	H	0.594649	0.255051	-0.000172
H188	H	0.927982	0.588384	0.333161
H189	H	1.261316	0.921718	0.666495
F190	F	0.703666	-0.448628	-0.067473
F191	F	1.037000	-0.115295	0.265861
F192	F	1.370333	0.218038	0.599194
F193	F	0.722968	0.229311	0.175452
F194	F	1.056301	0.562645	0.508785
F195	F	1.389634	0.895978	0.842118
H196	H	0.715054	-0.299903	0.051147
H197	H	1.048388	0.033431	0.384480
H198	H	1.381721	0.366764	0.717813
H199	H	0.837032	-0.026916	0.428312
H200	H	1.170366	0.306417	0.761646
H201	H	1.503699	0.639751	1.094979
H202	H	0.829941	-0.460783	0.124769
H203	H	1.163274	-0.127450	0.458102
H204	H	1.496607	0.205884	0.791436
F205	F	0.722989	0.229317	0.338117
F206	F	1.056322	0.562650	0.671451
F207	F	1.389656	0.895984	1.004784
H208	H	0.734836	0.215056	0.814350
H209	H	1.068169	0.548390	1.147684
H210	H	1.401503	0.881723	1.481017
H211	H	0.914850	-0.474911	-0.071538
H212	H	1.248183	-0.141577	0.261795
H213	H	1.581517	0.191756	0.595128
H214	H	0.734827	0.215056	0.671389
H215	H	1.068160	0.548390	1.004723
H216	H	1.401493	0.881723	1.338056
F217	F	0.933130	-0.327771	0.074717
F218	F	1.266463	0.005562	0.408051
F219	F	1.599797	0.338896	0.741384
H220	H	0.715268	-0.299341	-0.051431
H221	H	1.048601	0.033992	0.281903
H222	H	1.381934	0.367326	0.615236
F223	F	0.452087	0.271645	-0.000189
F224	F	0.785420	0.604978	0.333144
F225	F	1.118754	0.938312	0.666477
H226	H	0.837040	-0.026911	0.571273
H227	H	1.170373	0.306422	0.904607
H228	H	1.503706	0.639755	1.237940
H229	H	0.834032	-0.463382	-0.125218
H230	H	1.167365	-0.130048	0.208115
H231	H	1.500699	0.203285	0.541449
H232	H	0.833147	-0.317477	0.124469
H233	H	1.166480	0.015857	0.457802
H234	H	1.499813	0.349190	0.791136
F235	F	0.232584	0.230844	0.090316
F236	F	0.565918	0.564177	0.423649
F237	F	0.899251	0.897511	0.756982
F238	F	0.917987	-0.006341	0.175371
F239	F	1.251320	0.326992	0.508705
F240	F	1.584654	0.660325	0.842038
F241	F	0.930143	-0.485010	0.075548
F242	F	1.263476	-0.151677	0.408881
F243	F	1.596810	0.181657	0.742215
H244	H	0.831457	-0.318638	-0.124863
H245	H	1.164790	0.014695	0.208470
H246	H	1.498123	0.348028	0.541803
H247	H	0.803967	0.249906	0.428305
H248	H	1.137300	0.583239	0.761638
H249	H	1.470634	0.916572	1.094971
H250	H	0.906187	0.007930	0.328186
H251	H	1.239520	0.341263	0.661519
H252	H	1.572853	0.674596	0.994852
F253	F	0.703723	-0.450308	0.065986
F254	F	1.037056	-0.116974	0.399319
F255	F	1.370389	0.216359	0.732653
H256	H	0.906218	0.007938	0.671318
H257	H	1.239551	0.341271	1.004651
H258	H	1.572885	0.674604	1.337985
H259	H	0.374670	0.218713	0.079373
H260	H	0.708003	0.552047	0.412706
H261	H	1.041336	0.885380	0.746039
F262	F	0.918029	-0.006338	0.824122
F263	F	1.251362	0.326995	1.157456
F264	F	1.584696	0.660328	1.490789
H265	H	0.147742	0.247153	-0.000245
H266	H	0.481076	0.580487	0.333088
H267	H	0.814409	0.913820	0.666422
H268	H	0.266342	0.004277	-0.079822
H269	H	0.599675	0.337610	0.253512
H270	H	0.933009	0.670944	0.586845
H271	H	0.016310	0.244828	-0.000265
H272	H	0.349643	0.578161	0.333069
H273	H	0.682977	0.911495	0.666402
H274	H	0.915002	-0.330843	-0.076319
H275	H	1.248335	0.002491	0.257014
H276	H	1.581668	0.335824	0.590348
F277	F	0.486274	-0.043404	-0.000185
F278	F	0.819607	0.289929	0.333148
F279	F	1.152940	0.623263	0.666482
F280	F	0.408423	-0.007859	-0.090760
F281	F	0.741757	0.325474	0.242573
F282	F	1.075090	0.658808	0.575906
H283	H	0.624700	-0.021848	-0.000151
H284	H	0.958033	0.311486	0.333182
H285	H	1.291366	0.644819	0.666516
H286	H	0.046352	-0.032065	-0.000320
H287	H	0.379685	0.301269	0.333013
H288	H	0.713019	0.634602	0.666346
H289	H	0.803994	0.249907	0.571257
H290	H	1.137327	0.583241	0.904590
H291	H	1.470661	0.916574	1.237924
H292	H	0.177789	-0.029743	-0.000247
H293	H	0.511122	0.303590	0.333086
H294	H	0.844455	0.636924	0.666419
