data_functionalizedCrystal
_audit_creation_method	'MofGen! by Chris Wilmer'
_symmetry_space_group_name_H-M	'P1'
_symmetry_Int_Tables_number	1
_symmetry_cell_setting	triclinic
loop_
_symmetry_equiv_pos_as_xyz
  x,y,z
_cell_length_a	14.971482
_cell_length_b	13.448316
_cell_length_c	14.971486
_cell_angle_alpha	90.002892
_cell_angle_beta	83.613368
_cell_angle_gamma	90.004360
loop_
_atom_site_label
_atom_site_type_symbol
_atom_site_fract_x
_atom_site_fract_y
_atom_site_fract_z
O1	O	1.186948	0.082679	0.116544
O2	O	0.926547	0.082684	0.130506
O3	O	1.063727	0.082675	-0.006675
O4	O	1.049768	0.082689	0.253725
O5	O	1.063713	-0.082709	-0.006674
O6	O	0.926533	-0.082699	0.130508
O7	O	1.186934	-0.082704	0.116545
Cu8	Cu	1.056732	-0.097803	0.123527
Cu9	Cu	1.056749	0.097783	0.123525
O10	O	1.049754	-0.082695	0.253727
C11	C	0.893215	-0.000007	0.129883
C12	C	0.793918	-0.000005	0.128014
C13	C	0.747266	-0.090157	0.127134
C14	C	0.653968	-0.090158	0.125363
C15	C	0.607322	-0.000007	0.124479
C16	C	0.653981	0.090152	0.125356
C17	C	0.747279	0.090152	0.127120
C18	C	0.459519	0.090146	0.121680
C19	C	0.366215	0.090146	0.119918
C20	C	0.366208	-0.090165	0.119924
C21	C	0.459506	-0.090165	0.121688
C22	C	0.506158	-0.000006	0.122567
C23	C	1.063096	-0.000017	-0.039999
C24	C	1.061225	-0.000016	-0.139296
C25	C	1.220266	-0.000011	0.117168
C26	C	1.319563	-0.000006	0.119038
N27	N	1.056728	-0.235367	0.123527
C28	C	1.002458	-0.712617	0.069178
C29	C	1.002455	-0.608514	0.069175
C30	C	1.056750	-0.556448	0.123517
C31	C	1.111059	-0.608492	0.177859
C32	C	1.111066	-0.712593	0.177857
C33	C	1.111038	-0.391512	0.177863
C34	C	1.111030	-0.287403	0.177867
C35	C	1.002427	-0.287432	0.069181
C36	C	1.002435	-0.391533	0.069178
C37	C	1.056742	-0.443570	0.123522
N38	N	1.056760	0.235347	0.123517
C39	C	1.141814	-0.000018	-0.196522
C40	C	1.140051	-0.000008	-0.289822
C41	C	1.057698	-0.000003	-0.325893
C42	C	0.977102	0.000002	-0.268659
C43	C	0.978866	-0.000001	-0.175362
C44	C	0.973431	0.000006	-0.463122
C45	C	0.971667	0.000007	-0.556426
C46	C	1.134616	-0.000002	-0.577582
C47	C	1.136380	-0.000004	-0.484284
C48	C	1.055784	-0.000001	-0.427057
C49	C	1.050385	-0.000001	0.287051
C50	C	1.052256	0.000005	0.386348
H51	H	0.785237	-0.163569	0.127862
H52	H	1.155263	-0.433877	0.222113
H53	H	1.205675	-0.000012	-0.336413
C54	C	0.942728	-0.769879	0.009396
N55	N	0.897739	-0.813006	-0.035636
H56	H	1.155285	-0.754960	0.222105
H57	H	0.913242	0.000001	-0.128768
H58	H	0.615996	0.163555	0.124629
C59	C	0.942714	-0.551278	0.009401
N60	N	0.897714	-0.508170	-0.035623
H61	H	1.208876	-0.000029	-0.167161
C62	C	0.602652	-0.189333	0.124416
N63	N	0.564001	-0.264035	0.123710
H64	H	0.904607	-0.000005	-0.585792
H65	H	0.497481	-0.163574	0.122414
C66	C	0.798595	0.189326	0.128090
N67	N	0.837246	0.264028	0.128818
C68	C	0.314890	-0.189341	0.118951
N69	N	0.276232	-0.264038	0.118220
C70	C	0.942618	-0.230190	0.009473
N71	N	0.897542	-0.187071	-0.035468
C72	C	0.314907	0.189317	0.118941
N73	N	0.276262	0.264015	0.118204
H74	H	0.958218	-0.433922	0.024932
C75	C	0.884771	0.000005	-0.400173
N76	N	0.817993	-0.000004	-0.352761
C77	C	1.170763	-0.230134	0.237641
N78	N	1.215756	-0.186998	0.282662
H79	H	0.497500	0.163563	0.122396
H80	H	1.155271	-0.566092	0.222102
H81	H	1.203439	-0.000016	-0.454919
C82	C	1.223273	0.000002	-0.640534
N83	N	1.290046	0.000004	-0.687953
H84	H	0.910049	0.000013	-0.298036
