data_functionalizedCrystal
_audit_creation_method	'MofGen! by Chris Wilmer'
_symmetry_space_group_name_H-M	'P1'
_symmetry_Int_Tables_number	1
_symmetry_cell_setting	triclinic
loop_
_symmetry_equiv_pos_as_xyz
  x,y,z
_cell_length_a	10.654550
_cell_length_b	8.965430
_cell_length_c	10.654542
_cell_angle_alpha	89.996807
_cell_angle_beta	95.516524
_cell_angle_gamma	90.000604
loop_
_atom_site_label
_atom_site_type_symbol
_atom_site_fract_x
_atom_site_fract_y
_atom_site_fract_z
O1	O	1.667836	0.123941	-0.176390
O2	O	1.302358	0.123970	-0.193196
O3	O	1.493505	0.123931	-0.002053
O4	O	1.476689	0.123980	-0.367533
O5	O	1.493489	-0.124147	-0.002066
O6	O	1.302341	-0.124109	-0.193209
O7	O	1.667820	-0.124137	-0.176403
Cu8	Cu	1.485079	-0.146775	-0.184807
Cu9	Cu	1.485098	0.146607	-0.184792
O10	O	1.476673	-0.124099	-0.367546
C11	C	1.255552	-0.000066	-0.191969
C12	C	1.116108	-0.000056	-0.188277
N13	N	1.485075	-0.353124	-0.184817
C14	C	1.036620	-0.000045	-0.300819
C15	C	0.905599	-0.000072	-0.297342
C16	C	0.933568	-0.000113	-0.068772
C17	C	1.064586	-0.000098	-0.072250
C18	C	1.396648	-0.450412	-0.273185
C19	C	1.510351	-0.549831	-0.298543
C20	C	1.371421	-0.549832	-0.159469
C21	C	1.598835	-0.450354	-0.210233
C22	C	1.459830	-0.450347	-0.071109
C23	C	1.573614	-0.549721	-0.096420
C24	C	1.714626	-0.000098	-0.177631
C25	C	1.854069	-0.000098	-0.181322
C26	C	1.492264	-0.000111	0.044738
C27	C	1.488575	-0.000119	0.184182
N28	N	1.485113	0.352956	-0.184772
C29	C	1.597644	-0.000137	0.394697
C30	C	1.601119	-0.000137	0.263676
C31	C	1.372549	-0.000117	0.235715
C32	C	1.369075	-0.000128	0.366733
C33	C	1.477920	-0.000077	0.585663
C34	C	1.481627	-0.000131	0.446222
H35	H	1.078564	-0.000023	-0.395295
N36	N	1.712619	-0.000140	0.475875
N37	N	1.816197	-0.000148	0.429848
H38	H	1.897404	-0.000154	0.487176
N39	N	1.302943	-0.395670	-0.367015
N40	N	1.287293	-0.258341	-0.381466
H41	H	1.221119	-0.219675	-0.447736
H42	H	1.129310	-0.000111	0.019401
N43	N	1.250559	-0.000152	0.419373
N44	N	1.174424	-0.104722	0.395381
H45	H	1.090726	-0.104747	0.432559
H46	H	0.891602	-0.000156	0.025693
H47	H	0.840884	-0.000066	-0.388985
H48	H	1.695592	-0.000144	0.221732
N49	N	1.432998	-0.395471	0.049468
N50	N	1.503404	-0.429072	0.145976
H51	H	1.484444	-0.390313	0.231135
N52	N	1.257589	-0.000061	0.154513
N53	N	1.180699	0.104529	0.159790
H54	H	1.099506	0.104578	0.102442
N55	N	1.537164	-0.604636	-0.419156
N56	N	1.465669	-0.572817	-0.515376
H57	H	1.484598	-0.611515	-0.600563
H58	H	1.275289	-0.593533	-0.138050
N59	N	1.719457	-0.395757	-0.237238
N60	N	1.738894	-0.258446	-0.241656
H61	H	1.824081	-0.219882	-0.260730
H62	H	1.648492	-0.593051	-0.021667
