data_functionalizedCrystal
_audit_creation_method	'MofGen! by Chris Wilmer'
_symmetry_space_group_name_H-M	'P1'
_symmetry_Int_Tables_number	1
_symmetry_cell_setting	triclinic
loop_
_symmetry_equiv_pos_as_xyz
  x,y,z
_cell_length_a	19.077068
_cell_length_b	19.077372
_cell_length_c	19.076919
_cell_angle_alpha	94.474666
_cell_angle_beta	85.529249
_cell_angle_gamma	85.467681
loop_
_atom_site_label
_atom_site_type_symbol
_atom_site_fract_x
_atom_site_fract_y
_atom_site_fract_z
Zn1	Zn	-0.252675	-1.051083	0.366041
Zn2	Zn	0.247325	-0.551083	0.866041
Zn3	Zn	-0.365832	-1.050995	0.252889
Zn4	Zn	0.134168	-0.550995	0.752889
Zn5	Zn	-0.252697	-0.937937	0.252886
Zn6	Zn	0.247303	-0.437937	0.752886
Zn7	Zn	-0.375678	-0.928012	0.375858
Zn8	Zn	0.124322	-0.428012	0.875858
O9	O	-0.311720	-0.992007	0.311919
O10	O	0.188280	-0.492007	0.811919
O11	O	-0.263556	-1.149892	0.346923
O12	O	0.236444	-0.649892	0.846923
O13	O	-0.346713	-1.040115	0.154070
O14	O	0.153287	-0.540115	0.654070
O15	O	-0.153869	-0.957136	0.263787
O16	O	0.346131	-0.457136	0.763787
O17	O	-0.346692	-1.149828	0.263791
O18	O	0.153308	-0.649828	0.763791
O19	O	-0.153853	-1.040264	0.346921
O20	O	0.346147	-0.540264	0.846921
O21	O	-0.263593	-0.957052	0.154068
O22	O	0.236407	-0.457052	0.654068
O23	O	-0.273140	-0.837799	0.273307
O24	O	0.226860	-0.337799	0.773307
O25	O	-0.363473	-0.940220	0.473375
O26	O	0.136527	-0.440220	0.973375
O27	O	-0.363494	-0.830507	0.363654
O28	O	0.136506	-0.330507	0.863654
O29	O	-0.273103	-1.030640	0.466162
O30	O	0.226897	-0.530640	0.966162
O31	O	-0.465963	-1.030491	0.273311
O32	O	0.034037	-0.530491	0.773311
O33	O	-0.473197	-0.940135	0.363656
O34	O	0.026803	-0.440135	0.863656
C35	C	-0.319388	-0.808530	0.319546
C36	C	0.180612	-0.308530	0.819546
C37	C	-0.322686	-0.730037	0.322826
C38	C	0.177314	-0.230037	0.822826
C39	C	-0.346287	-0.287795	0.346389
C40	C	0.153713	0.212205	0.846389
C41	C	-0.343193	-0.361548	0.343294
C42	C	0.156807	0.138452	0.843294
C43	C	-0.294534	-0.402199	0.294779
C44	C	0.205466	0.097801	0.794779
C45	C	-0.248971	-0.369092	0.249352
C46	C	0.251029	0.130908	0.749352
C47	C	-0.252069	-0.295340	0.252444
C48	C	0.247931	0.204660	0.752444
C49	C	-0.280221	-0.623178	0.280491
C50	C	0.219779	-0.123178	0.780491
C51	C	-0.277125	-0.696935	0.277404
C52	C	0.222875	-0.196935	0.777404
C53	C	-0.371348	-0.689386	0.371345
C54	C	0.128652	-0.189386	0.871345
C55	C	-0.374439	-0.615633	0.374436
C56	C	0.125561	-0.115633	0.874436
C57	C	-0.328879	-0.582533	0.329006
C58	C	0.171121	-0.082533	0.829006
N59	N	-0.291369	-0.477586	0.291616
N60	N	0.208631	0.022414	0.791616
N61	N	-0.332048	-0.507147	0.332167
N62	N	0.167952	-0.007147	0.832167
C63	C	-0.495204	-0.984245	0.319564
C64	C	0.004796	-0.484245	0.819564
C65	C	-0.573697	-0.980988	0.322855
C66	C	-0.073697	-0.480988	0.822855
C67	C	-0.606784	-1.026535	0.277400
C68	C	-0.106784	-0.526535	0.777400
C69	C	-0.680537	-1.023476	0.280500
C70	C	-0.180537	-0.523476	0.780500
C71	C	-0.721202	-0.974866	0.329052
C72	C	-0.221202	-0.474866	0.829052
C73	C	-0.688110	-0.929317	0.374512
C74	C	-0.188110	-0.429317	0.874512
C75	C	-0.614358	-0.932380	0.371415
C76	C	-0.114358	-0.432380	0.871415
C77	C	-0.942182	-0.960660	0.343358
C78	C	-0.442182	-0.460660	0.843358
C79	C	-1.015939	-0.957599	0.346450
C80	C	-0.515939	-0.457599	0.846450
C81	C	-1.008360	-1.051759	0.252437
C82	C	-0.508360	-0.551759	0.752437
C83	C	-0.934608	-1.054814	0.249342
C84	C	-0.434608	-0.554814	0.749342
C85	C	-0.901522	-1.009268	0.294805
C86	C	-0.401522	-0.509268	0.794805
N87	N	-0.796589	-0.971736	0.332220
N88	N	-0.296589	-0.471736	0.832220
N89	N	-0.826136	-1.012402	0.291639
N90	N	-0.326136	-0.512402	0.791639
C91	C	-0.127520	-0.999817	0.304258
C92	C	0.372480	-0.499817	0.804258
C93	C	-0.049025	-1.003145	0.300994
C94	C	0.450975	-0.503145	0.800994
C95	C	-0.319384	-0.984332	0.496107
C96	C	0.180616	-0.484332	0.996107
C97	C	-0.322650	-0.981062	0.574597
C98	C	0.177350	-0.481062	1.074597
C99	C	-0.304019	-0.176200	0.304254
C100	C	0.195981	0.323800	0.804254
C101	C	-0.300726	-0.254693	0.300966
C102	C	0.199274	0.245307	0.800966
C103	C	-0.304034	-0.999694	0.128443
C104	C	0.195966	-0.499694	0.628443
C105	C	-0.300564	-1.003109	0.049939
C106	C	0.199436	-0.503109	0.549939
C107	C	-0.277135	-1.026600	0.607718
C108	C	0.222865	-0.526600	1.107718
C109	C	-0.280202	-1.023519	0.681468
C110	C	0.219798	-0.523519	1.181468
C111	C	-0.328786	-0.974903	0.722096
C112	C	0.171214	-0.474903	1.222096
C113	C	-0.374302	-0.929360	0.688971
C114	C	0.125698	-0.429360	1.188971
C115	C	-0.371232	-0.932438	0.615222
C116	C	0.128768	-0.432438	1.115222
C117	C	-0.343010	-0.960645	0.943065
C118	C	0.156990	-0.460645	1.443065
C119	C	-0.346078	-0.957571	1.016818
C120	C	0.153922	-0.457571	1.516818
C121	C	-0.251976	-1.051730	1.009311
C122	C	0.248024	-0.551730	1.509311
C123	C	-0.248913	-1.054807	0.935561
C124	C	0.251087	-0.554807	1.435561
C125	C	-0.294427	-1.009261	0.902442
C126	C	0.205573	-0.509261	1.402442
N127	N	-0.331923	-0.971753	0.797481
N128	N	0.168077	-0.471753	1.297481
N129	N	-0.291286	-1.012408	0.827058
N130	N	0.208714	-0.512408	1.327058
H131	H	-0.243125	-0.596237	0.243497
H132	H	0.256875	-0.096237	0.743497
N133	N	-0.906502	-0.911530	0.392382
N134	N	-0.406502	-0.411530	0.892382
H135	H	-0.920951	-0.919818	0.442930
H136	H	-0.420951	-0.419818	0.942930
H137	H	-0.921052	-0.861030	0.383945
H138	H	-0.421052	-0.361030	0.883945
H139	H	-0.707472	-1.060564	0.243484
H140	H	-0.207472	-0.560564	0.743484
N141	N	-0.890751	-1.107251	0.196980
N142	N	-0.390751	-0.607251	0.696980
H143	H	-0.839009	-1.102279	0.201915
H144	H	-0.339009	-0.602279	0.701915
H145	H	-0.902033	-1.097866	0.147535
H146	H	-0.402033	-0.597866	0.647535
N147	N	-0.196492	-0.412932	0.197021
N148	N	0.303508	0.087068	0.697021
H149	H	-0.201440	-0.464677	0.201955
H150	H	0.298560	0.035323	0.701955
H151	H	-0.147076	-0.401709	0.206536
H152	H	0.352924	0.098291	0.706536
N153	N	-1.059802	-0.905171	0.398822
N154	N	-0.559802	-0.405171	0.898822
H155	H	-1.090611	-0.872391	0.372742
H156	H	-0.590611	-0.372391	0.872742
H157	H	-1.027605	-0.876832	0.427141
H158	H	-0.527605	-0.376832	0.927141
N159	N	-0.562923	-1.078964	0.225034
N160	N	-0.062923	-0.578964	0.725034
H161	H	-0.574147	-1.069608	0.175564
H162	H	-0.074147	-0.569608	0.675564
H163	H	-0.574077	-1.128398	0.234546
H164	H	-0.074077	-0.628398	0.734546
N165	N	-0.578675	-0.883248	0.420441
N166	N	-0.078675	-0.383248	0.920441
H167	H	-0.548288	-0.853012	0.391793
H168	H	-0.048288	-0.353012	0.891793
H169	H	-0.548239	-0.911875	0.450704
H170	H	-0.048239	-0.411875	0.950704
H171	H	-0.214967	-0.268390	0.215458
H172	H	0.285033	0.231610	0.715458
H173	H	-0.385907	-0.254703	0.385898
H174	H	0.114093	0.245297	0.885898
H175	H	-0.209352	-1.094397	0.902486
H176	H	0.290648	-0.594397	1.402486
H177	H	-0.721225	-0.889741	0.414048
H178	H	-0.221225	-0.389741	0.914048
H179	H	-0.380296	-0.388496	0.380280
H180	H	0.119704	0.111504	0.880280
H181	H	-0.414064	-0.582541	0.413940
H182	H	0.085936	-0.082541	0.913940
N183	N	-0.224738	-1.079041	0.563900
N184	N	0.275262	-0.579041	1.063900
H185	H	-0.196370	-1.107420	0.596076
H186	H	0.303630	-0.607420	1.096076
H187	H	-0.191983	-1.052960	0.533135
H188	H	0.308017	-0.552960	1.033135
N189	N	-1.044044	-1.100878	0.203402
N190	N	-0.544044	-0.600878	0.703402
H191	H	-1.096936	-1.091563	0.212728
H192	H	-0.596936	-0.591563	0.712728
H193	H	-1.029456	-1.151382	0.211791
H194	H	-0.529456	-0.651382	0.711791
H195	H	-0.243141	-1.060602	0.708432
H196	H	0.256859	-0.560602	1.208432
N197	N	-0.420491	-0.725087	0.420337
N198	N	0.079509	-0.225087	0.920337
H199	H	-0.411149	-0.777976	0.411017
H200	H	0.088851	-0.277976	0.911017
H201	H	-0.470988	-0.710522	0.411897
H202	H	0.029012	-0.210522	0.911897
N203	N	-0.202887	-1.100850	1.045031
N204	N	0.297113	-0.600850	1.545031
H205	H	-0.212202	-1.091525	1.097916
H206	H	0.287798	-0.591525	1.597916
H207	H	-0.152374	-1.092534	1.030499
H208	H	0.347626	-0.592534	1.530499
H209	H	-0.380080	-0.923568	0.916108
H210	H	0.119920	-0.423568	1.416108
N211	N	-0.224643	-0.740782	0.225073
N212	N	0.275357	-0.240782	0.725073
H213	H	-0.196252	-0.708623	0.196761
H214	H	0.303748	-0.208623	0.696761
H215	H	-0.250696	-0.771524	0.192264
H216	H	0.249304	-0.271524	0.692264
H217	H	-0.413858	-0.889773	0.722056
H218	H	0.086142	-0.389773	1.222056
N219	N	-0.398484	-0.905135	1.060642
N220	N	0.101516	-0.405135	1.560642
H221	H	-0.426851	-0.876749	1.028471
H222	H	0.073149	-0.376749	1.528471
H223	H	-0.372375	-0.872401	1.091405
H224	H	0.127625	-0.372401	1.591405
N225	N	-0.420316	-0.883316	0.579495
N226	N	0.079684	-0.383316	1.079495
H227	H	-0.451559	-0.852050	0.616422
H228	H	0.048441	-0.352050	1.116422
H229	H	-0.450524	-0.911947	0.549058
H230	H	0.049476	-0.411947	1.049058
