data_functionalizedCrystal
_audit_creation_method	'MofGen! by Chris Wilmer'
_symmetry_space_group_name_H-M	'P1'
_symmetry_Int_Tables_number	1
_symmetry_cell_setting	triclinic
loop_
_symmetry_equiv_pos_as_xyz
  x,y,z
_cell_length_a	10.540539
_cell_length_b	14.185569
_cell_length_c	10.540514
_cell_angle_alpha	76.712156
_cell_angle_beta	84.520326
_cell_angle_gamma	103.291372
loop_
_atom_site_label
_atom_site_type_symbol
_atom_site_fract_x
_atom_site_fract_y
_atom_site_fract_z
O1	O	1.657349	-0.083370	0.207407
O2	O	1.287931	-0.083382	0.224267
O3	O	1.481087	-0.083371	0.031127
O4	O	1.464194	-0.083381	0.400548
O5	O	1.538146	0.083467	-0.025922
O6	O	1.344991	0.083456	0.167218
O7	O	1.714409	0.083468	0.150358
Cu8	Cu	1.534910	0.098695	0.153579
Cu9	Cu	1.467430	-0.098610	0.221046
O10	O	1.521254	0.083457	0.343498
C11	C	1.269157	0.000035	0.194479
C12	C	1.128208	0.000031	0.190699
C13	C	1.508356	0.000047	-0.044701
C14	C	1.504586	0.000044	-0.185649
N15	N	1.582381	0.237469	0.106126
C16	C	0.944929	0.000424	0.045646
C17	C	1.091414	0.000038	0.049612
C18	C	1.033946	-0.095240	0.291172
C19	C	0.887378	-0.095309	0.286381
C20	C	0.951777	0.094416	0.224375
C21	C	1.099186	0.095665	0.225248
C22	C	1.733182	0.000048	0.180147
C23	C	1.874129	0.000046	0.183929
N24	N	1.419969	-0.237383	0.268490
C25	C	1.280498	0.605102	0.407853
C26	C	1.316466	0.710125	0.371916
C27	C	1.487541	0.710096	0.200955
C28	C	1.451583	0.605070	0.236873
C29	C	1.348062	0.552581	0.340324
C30	C	1.519147	0.552550	0.169344
C31	C	1.483197	0.447534	0.205265
C32	C	1.379682	0.395037	0.308714
C33	C	1.312112	0.447565	0.376244
C34	C	1.622674	0.605041	0.065900
C35	C	1.690238	0.552521	-0.001629
C36	C	1.654282	0.447502	0.034285
C37	C	1.550768	0.395006	0.137734
C38	C	1.721853	0.394975	-0.033246
C39	C	1.685902	0.289958	0.002675
C40	C	1.514817	0.289989	0.173655
C41	C	1.493983	0.000037	0.419327
C42	C	1.497751	0.000033	0.560278
C43	C	1.359610	0.000030	0.630984
C44	C	1.363616	0.000414	0.777466
C45	C	1.605401	0.095129	0.720095
C46	C	1.600573	0.095203	0.573530
C47	C	1.537727	-0.094530	0.638012
C48	C	1.538635	-0.095774	0.785416
H49	H	1.157390	0.068332	-0.027165
H50	H	1.286598	-0.067734	0.843435
H51	H	1.350417	0.309526	0.337963
H52	H	1.740922	0.247196	-0.052314
H53	H	1.227806	0.404826	0.460476
C54	C	1.166613	0.547352	0.521634
H55	H	1.154876	0.477287	0.533343
H56	H	1.187027	0.564556	0.600615
H57	H	1.087666	0.564576	0.501116
H58	H	1.571832	0.752845	0.116727
C59	C	1.438736	-0.190810	0.873310
H60	H	1.459857	-0.248519	0.855348
H61	H	1.442382	-0.192559	0.963499
H62	H	1.352334	-0.189988	0.855296
C63	C	1.242080	0.767895	0.446147
H64	H	1.175259	0.721590	0.512879
H65	H	1.302190	0.808880	0.485435
H66	H	1.202864	0.808843	0.385902
C67	C	1.835721	0.452716	-0.147033
H68	H	1.870816	0.406395	-0.182103
H69	H	1.803615	0.493695	-0.214330
H70	H	1.902998	0.493669	-0.114853
C71	C	1.400932	0.232240	0.287435
H72	H	1.389195	0.162175	0.299144
H73	H	1.421345	0.249444	0.366416
H74	H	1.321985	0.249464	0.266918
C75	C	1.662227	0.720557	0.026384
H76	H	1.733567	0.744296	-0.044885
H77	H	1.589083	0.744332	0.000091
H78	H	1.688459	0.744310	0.099573
C79	C	1.804099	0.610264	-0.115422
H80	H	1.815830	0.680331	-0.127151
H81	H	1.883048	0.593039	-0.094938
H82	H	1.783647	0.593054	-0.194397
H83	H	1.582848	0.166157	0.738376
H84	H	1.109768	-0.068372	0.019204
H85	H	1.575097	0.166550	0.520905
C86	C	1.252398	-0.092061	0.623915
H87	H	1.290915	-0.131332	0.577773
H88	H	1.213992	-0.131220	0.710754
H89	H	1.186147	-0.070438	0.578822
H90	H	1.327676	0.068112	0.577473
H91	H	1.333571	0.068971	0.795753
H92	H	0.834817	-0.166523	0.260550
C93	C	1.058713	-0.191025	0.260219
H94	H	1.001200	-0.248279	0.321563
H95	H	1.042526	-0.191880	0.173314
H96	H	1.147699	-0.192015	0.266707
C97	C	1.739524	0.100690	0.506795
H98	H	1.798673	0.102872	0.569293
H99	H	1.736636	0.043192	0.474313
H100	H	1.768996	0.159413	0.435618
H101	H	1.125369	0.101415	0.326142
H102	H	1.710152	0.098400	0.741291
H103	H	1.467086	-0.166623	0.631175
H104	H	1.639420	-0.101796	0.811664
H105	H	0.837920	-0.099636	0.389326
H106	H	1.639305	-0.095446	0.591065
H107	H	0.944933	0.166631	0.154024
C108	C	0.937875	0.092715	-0.061220
H109	H	0.981163	0.091540	-0.143921
H110	H	0.848125	0.091451	-0.066907
H111	H	0.980004	0.152098	-0.038770
C112	C	0.872748	-0.091350	0.002037
H113	H	0.916158	-0.090544	-0.081598
H114	H	0.873426	-0.151013	0.065006
H115	H	0.784123	-0.089101	-0.004221
C116	C	1.062493	-0.100053	0.432778
H117	H	1.004403	-0.158216	0.491910
H118	H	1.151197	-0.102916	0.436983
H119	H	1.049467	-0.041997	0.456810
C120	C	1.187063	0.190884	0.125674
H121	H	1.169040	0.248481	0.147092
H122	H	1.277258	0.192642	0.129286
H123	H	1.169084	0.190279	0.039206
C124	C	0.888270	0.095284	0.361742
H125	H	0.814796	0.038449	0.394325
H126	H	0.951243	0.093185	0.420373
H127	H	0.859565	0.154745	0.355264
