data_functionalizedCrystal
_audit_creation_method	'MofGen! by Chris Wilmer'
_symmetry_space_group_name_H-M	'P1'
_symmetry_Int_Tables_number	1
_symmetry_cell_setting	triclinic
loop_
_symmetry_equiv_pos_as_xyz
  x,y,z
_cell_length_a	18.050591
_cell_length_b	18.050590
_cell_length_c	16.120297
_cell_angle_alpha	87.128980
_cell_angle_beta	87.117317
_cell_angle_gamma	90.017393
loop_
_atom_site_label
_atom_site_type_symbol
_atom_site_fract_x
_atom_site_fract_y
_atom_site_fract_z
Zn1	Zn	1.114092	-0.316988	0.471281
Zn2	Zn	1.120310	-0.434883	0.331867
Zn3	Zn	0.996196	-0.310710	0.331895
Zn4	Zn	0.989882	-0.441137	0.471244
O5	O	1.055120	-0.375929	0.401572
O6	O	1.218841	-0.332637	0.452792
O7	O	1.109091	-0.413166	0.215208
O8	O	1.011876	-0.207619	0.350413
O9	O	1.223409	-0.419254	0.350364
O10	O	1.098493	-0.212232	0.452819
O11	O	1.017905	-0.321937	0.215228
O12	O	0.891434	-0.328001	0.350376
O13	O	1.001114	-0.429913	0.587912
O14	O	0.886795	-0.423825	0.452755
O15	O	1.092370	-0.338702	0.587939
O16	O	1.102968	-0.539636	0.350328
O17	O	1.007143	-0.544230	0.452727
C18	C	0.862168	-0.375911	0.401565
C19	C	0.779622	-0.375922	0.401582
C20	C	1.055064	-0.568880	0.401539
C21	C	1.055107	-0.651426	0.401552
C22	C	0.528298	-0.428130	0.457179
C23	C	0.581102	-0.442769	0.381084
C24	C	0.482501	-0.375945	0.401580
C25	C	0.576779	-0.361330	0.477672
C26	C	0.628486	-0.375936	0.401585
C27	C	0.534220	-0.390617	0.325445
C28	C	0.529890	-0.309149	0.422084
C29	C	0.582674	-0.323759	0.345936
C30	C	0.398403	-0.375952	0.401579
C31	C	0.712583	-0.375928	0.401578
C32	C	1.107317	-0.848355	0.345945
C33	C	1.122021	-0.901126	0.422032
C34	C	1.055148	-0.802558	0.401585
C35	C	1.040517	-0.896870	0.325533
C36	C	1.055189	-0.948544	0.401611
C37	C	1.069886	-0.854244	0.477712
C38	C	0.988352	-0.849982	0.381162
C39	C	1.003029	-0.902733	0.457301
C40	C	1.055126	-0.718459	0.401570
C41	C	1.055210	-1.032642	0.401635
C42	C	1.248825	-0.375948	0.401579
C43	C	1.331371	-0.375957	0.401582
C44	C	1.045344	-0.385705	0.619021
C45	C	1.041178	-0.389871	0.711685
C46	C	1.055195	-0.182226	0.401623
C47	C	1.055227	-0.099681	0.401645
C48	C	1.064901	-0.366138	0.184969
C49	C	1.069210	-0.361763	0.092305
C50	C	1.033545	-0.397460	0.881343
C51	C	1.076841	-0.354176	0.922653
C52	C	1.072594	-0.358399	1.017056
C53	C	1.037791	-0.393239	0.786931
H54	H	0.603568	-0.499252	0.363738
H55	H	1.082218	-0.835501	0.542095
C56	C	0.943451	-0.934703	0.520946
H57	H	0.908421	-0.962455	0.493135
H58	H	0.966286	-0.966117	0.561184
H59	H	0.918882	-0.895255	0.547775
H60	H	0.515504	-0.403043	0.261080
H61	H	1.028125	-0.915707	0.261206
H62	H	0.606333	-0.279622	0.298865
C63	C	0.499507	-0.232873	0.445547
H64	H	0.513958	-0.222566	0.499655
H65	H	0.518896	-0.195698	0.406607
H66	H	0.446912	-0.233304	0.444875
C67	C	0.602187	-0.344631	0.564596
H68	H	0.583499	-0.381759	0.604026
H69	H	0.654841	-0.344299	0.563852
H70	H	0.583879	-0.297540	0.579543
H71	H	1.117097	-0.313947	0.887120
C72	C	1.166927	-0.816206	0.282449
H73	H	1.214371	-0.833747	0.297109
H74	H	1.156986	-0.831446	0.228551
H75	H	1.166205	-0.763585	0.282531
H76	H	1.178526	-0.923564	0.439323
H77	H	0.931865	-0.827527	0.363849
C78	C	0.496152	-0.487785	0.520616
H79	H	0.465367	-0.464890	0.561406
H80	H	0.467711	-0.522239	0.492795
H81	H	0.535553	-0.513021	0.546793
H82	H	0.993292	-0.437686	0.916873
