data_functionalizedCrystal
_audit_creation_method	'MofGen! by Chris Wilmer'
_symmetry_space_group_name_H-M	'P1'
_symmetry_Int_Tables_number	1
_symmetry_cell_setting	triclinic
loop_
_symmetry_equiv_pos_as_xyz
  x,y,z
_cell_length_a	21.295420
_cell_length_b	21.295418
_cell_length_c	19.805399
_cell_angle_alpha	89.973313
_cell_angle_beta	89.981320
_cell_angle_gamma	90.024169
loop_
_atom_site_label
_atom_site_type_symbol
_atom_site_fract_x
_atom_site_fract_y
_atom_site_fract_z
Zn1	Zn	0.962328	-0.250695	-0.382708
Zn2	Zn	0.962245	-0.355963	-0.269521
Zn3	Zn	0.857062	-0.250704	-0.269534
Zn4	Zn	0.857024	-0.355922	-0.382670
O5	O	0.909665	-0.303321	-0.326108
O6	O	1.050406	-0.264672	-0.367704
O7	O	0.948273	-0.342022	-0.174806
O8	O	0.871076	-0.162614	-0.284568
O9	O	1.050345	-0.342012	-0.284546
O10	O	0.948415	-0.162607	-0.367716
O11	O	0.870996	-0.264688	-0.174816
O12	O	0.768968	-0.264648	-0.284531
O13	O	0.871012	-0.341942	-0.477391
O14	O	0.768940	-0.341952	-0.367652
O15	O	0.948378	-0.264632	-0.477419
O16	O	0.948237	-0.444047	-0.284509
O17	O	0.870932	-0.444017	-0.367639
C18	C	0.746113	-0.303297	-0.326089
C19	C	0.676145	-0.303302	-0.326097
C20	C	0.176718	-0.263145	-0.369489
C21	C	0.242461	-0.263140	-0.369489
C22	C	0.275306	-0.303340	-0.326124
C23	C	0.242403	-0.343559	-0.282768
C24	C	0.176661	-0.343567	-0.282774
N25	N	0.378501	-0.308085	-0.266858
N26	N	0.440953	-0.308073	-0.266854
C27	C	0.473380	-0.303320	-0.326104
N28	N	0.440997	-0.298565	-0.385359
N29	N	0.378540	-0.298573	-0.385362
C30	C	0.346591	-0.303336	-0.326113
C31	C	0.577561	-0.263101	-0.369460
C32	C	0.643305	-0.263101	-0.369461
C33	C	0.643245	-0.343517	-0.282735
C34	C	0.577503	-0.343520	-0.282740
C35	C	0.544665	-0.303309	-0.326102
C36	C	0.909588	-0.466873	-0.326083
C37	C	0.909613	-0.536841	-0.326095
C38	C	0.950013	-1.036242	-0.369490
C39	C	0.949995	-0.970499	-0.369479
C40	C	0.909751	-0.937680	-0.326150
C41	C	0.869533	-0.970609	-0.282816
C42	C	0.869557	-1.036350	-0.282824
N43	N	0.854614	-0.834507	-0.320892
N44	N	0.854593	-0.772055	-0.320889
C45	C	0.909677	-0.739606	-0.326125
N46	N	0.964784	-0.771967	-0.331378
N47	N	0.964804	-0.834424	-0.331384
C48	C	0.909720	-0.866395	-0.326137
C49	C	0.949875	-0.635399	-0.369441
C50	C	0.949857	-0.569655	-0.369426
C51	C	0.869390	-0.569766	-0.282766
C52	C	0.869413	-0.635509	-0.282778
C53	C	0.909654	-0.668321	-0.326119
C54	C	1.073855	-0.303346	-0.326128
C55	C	1.143823	-0.303356	-0.326136
C56	C	0.909700	-0.303281	-0.502651
C57	C	0.909715	-0.303265	-0.577883
C58	C	0.909759	-0.139131	-0.326148
C59	C	0.909799	-0.069163	-0.326165
C60	C	0.950001	-0.263007	-0.613243
C61	C	0.950007	-0.262989	-0.683931
C62	C	0.909731	-0.303232	-0.719259
C63	C	0.869441	-0.343491	-0.683894
C64	C	0.869432	-0.343505	-0.613207
C65	C	0.869477	-0.343432	-0.968967
C66	C	0.869490	-0.343416	-1.039659
C67	C	0.950052	-0.262916	-1.039692
C68	C	0.950043	-0.262930	-0.969005
C69	C	0.909751	-0.303187	-0.933646
C70	C	0.909743	-0.303205	-0.856998
C71	C	0.909741	-0.303217	-0.795906
C72	C	0.909666	-0.303315	-0.150252
C73	C	0.909773	-0.303155	-0.075021
H74	H	0.670087	-0.230358	-0.404769
O75	O	0.830374	-0.382562	-0.718313
C76	C	0.839009	-0.373907	-0.788287
H77	H	0.887603	-0.353298	-0.797956
H78	H	0.834714	-0.421053	-0.815138
H79	H	0.801694	-0.340374	-0.808348
H80	H	0.269149	-0.376292	-0.247462
O81	O	0.830233	-0.382526	-0.578830
C82	C	0.789598	-0.346694	-0.537930
H83	H	0.785740	-0.297109	-0.559240
H84	H	0.741141	-0.369456	-0.537117
H85	H	0.809052	-0.344543	-0.484360
O86	O	0.675240	-0.382510	-0.240633
C87	C	0.740320	-0.373896	-0.249938
H88	H	0.749324	-0.325340	-0.272193
H89	H	0.765286	-0.378106	-0.199230
H90	H	0.758976	-0.411274	-0.285913
H91	H	0.149879	-0.376314	-0.247470
H92	H	0.149985	-0.230404	-0.404800
H93	H	0.836809	-1.063154	-0.247542
H94	H	0.982608	-0.542851	-0.404704
H95	H	0.836625	-0.543046	-0.247484
H96	H	0.269249	-0.230392	-0.404791
H97	H	0.836663	-0.662313	-0.247501
O98	O	0.989128	-0.223823	-1.074145
C99	C	0.980512	-0.232445	-1.144111
H100	H	0.931921	-0.253050	-1.153752
H101	H	0.984813	-0.185287	-1.170985
H102	H	1.017833	-0.265968	-1.164172
O103	O	0.989059	-0.223823	-0.578960
C104	C	0.975347	-0.161080	-0.596262
H105	H	0.925062	-0.157893	-0.615683
H106	H	0.980782	-0.129989	-0.549787
H107	H	1.009109	-0.144623	-0.637306
O108	O	0.830301	-0.382527	-1.073873
C109	C	0.794746	-0.418072	-1.027508
H110	H	0.792573	-0.392300	-0.977125
H111	H	0.745148	-0.424770	-1.047925
H112	H	0.817764	-0.465889	-1.019982
O113	O	0.545642	-0.382596	-0.240556
C114	C	0.588727	-0.418089	-0.202292
H115	H	0.635597	-0.392298	-0.199993
H116	H	0.569710	-0.424742	-0.148952
H117	H	0.595712	-0.465927	-0.226987
H118	H	0.836767	-0.943884	-0.247536
H119	H	0.550823	-0.230358	-0.404768
H120	H	0.982786	-1.062954	-0.404777
O121	O	0.989075	-0.938608	-0.411638
C122	C	1.024608	-0.981667	-0.449882
H123	H	0.998846	-1.028552	-0.452195
H124	H	1.031270	-0.962639	-0.503217
H125	H	1.072441	-0.988627	-0.425158
O126	O	0.989018	-0.667180	-0.411566
C127	C	1.024499	-0.624022	-0.449818
H128	H	1.026691	-0.577176	-0.422085
H129	H	1.074094	-0.642981	-0.457108
H130	H	1.001403	-0.617011	-0.501192
H131	H	0.982813	-0.230209	-0.712718
H132	H	0.982842	-0.230162	-0.940245
O133	O	0.830364	-0.382482	-0.934521
C134	C	0.838998	-0.373880	-0.864555
H135	H	0.859638	-0.325304	-0.854913
H136	H	0.791839	-0.378152	-0.837683
H137	H	0.872497	-0.411227	-0.844492
