data_functionalizedCrystal
_audit_creation_method	'MofGen! by Chris Wilmer'
_symmetry_space_group_name_H-M	'P1'
_symmetry_Int_Tables_number	1
_symmetry_cell_setting	triclinic
loop_
_symmetry_equiv_pos_as_xyz
  x,y,z
_cell_length_a	27.731994
_cell_length_b	27.731996
_cell_length_c	26.210047
_cell_angle_alpha	89.998501
_cell_angle_beta	89.997128
_cell_angle_gamma	82.620961
loop_
_atom_site_label
_atom_site_type_symbol
_atom_site_fract_x
_atom_site_fract_y
_atom_site_fract_z
O1	O	0.640938	0.057387	-0.042363
O2	O	1.140938	0.557387	0.457637
O3	O	0.500139	0.066160	-0.042381
O4	O	1.000139	0.566160	0.457619
O5	O	0.574924	-0.008626	-0.042360
O6	O	1.074924	0.491374	0.457640
O7	O	0.566152	0.132173	-0.042383
O8	O	1.066152	0.632173	0.457617
O9	O	0.574910	-0.008614	0.042498
O10	O	1.074910	0.491386	0.542498
O11	O	0.500124	0.066172	0.042477
O12	O	1.000124	0.566172	0.542477
O13	O	0.640923	0.057398	0.042495
O14	O	1.140923	0.557398	0.542495
Cu15	Cu	0.570522	0.061786	0.050235
Cu16	Cu	1.070522	0.561786	0.550235
Cu17	Cu	0.570540	0.061772	-0.050120
Cu18	Cu	1.070540	0.561772	0.449880
O19	O	0.566138	0.132184	0.042475
O20	O	1.066138	0.632184	0.542475
C21	C	0.482124	0.065986	0.000046
C22	C	0.982124	0.565986	0.500046
C23	C	0.428468	0.065443	0.000040
C24	C	0.928468	0.565443	0.500040
C25	C	0.095742	0.062034	0.046316
C26	C	0.595742	0.562034	0.546316
C27	C	-0.105915	0.059972	0.046322
C28	C	0.394085	0.559972	0.546322
O29	O	-0.131995	0.059690	0.085661
O30	O	0.368005	0.559690	0.585661
N31	N	-0.131122	0.059710	0.000066
N32	N	0.368878	0.559710	0.500066
C33	C	-0.105911	0.059960	-0.046195
C34	C	0.394089	0.559960	0.453805
O35	O	-0.131978	0.059684	-0.085538
O36	O	0.368022	0.559684	0.414462
C37	C	0.095746	0.062018	-0.046200
C38	C	0.595746	0.562018	0.453800
C39	C	0.120950	0.062285	0.000059
C40	C	0.620950	0.562285	0.500059
C41	C	0.120946	0.062301	0.092572
C42	C	0.620946	0.562301	0.592572
C43	C	0.171357	0.062819	0.092570
C44	C	0.671357	0.562819	0.592570
C45	C	0.196564	0.063070	0.046312
C46	C	0.696564	0.563070	0.546312
C47	C	0.171361	0.062803	0.000057
C48	C	0.671361	0.562803	0.500057
C49	C	0.120957	0.062264	-0.092460
C50	C	0.620957	0.562264	0.407540
C51	C	0.171374	0.062777	-0.092458
C52	C	0.671374	0.562777	0.407542
C53	C	0.196578	0.063045	-0.046199
C54	C	0.696578	0.563045	0.453801
C55	C	0.246979	0.063572	-0.046202
C56	C	0.746979	0.563572	0.453798
N57	N	0.272186	0.063835	0.000054
N58	N	0.772186	0.563835	0.500054
C59	C	0.246979	0.063584	0.046311
C60	C	0.746979	0.563584	0.546311
C61	C	-0.211784	0.058880	-0.046188
C62	C	0.288216	0.558880	0.453812
C63	C	-0.262199	0.058366	-0.046187
C64	C	0.237801	0.558366	0.453813
C65	C	-0.262199	0.058378	0.046330
C66	C	0.237801	0.558378	0.546330
C67	C	-0.211785	0.058895	0.046328
C68	C	0.288215	0.558895	0.546328
C69	C	-0.186578	0.059142	0.000068
C70	C	0.313422	0.559142	0.500068
C71	C	0.352845	0.064672	0.046303
C72	C	0.852845	0.564672	0.546303
C73	C	0.403261	0.065192	0.046297
C74	C	0.903261	0.565192	0.546297
C75	C	0.403257	0.065178	-0.046220
C76	C	0.903257	0.565178	0.453780
C77	C	0.352846	0.064660	-0.046214
C78	C	0.852846	0.564660	0.453786
C79	C	0.327642	0.064406	0.000052
C80	C	0.827642	0.564406	0.500052
O81	O	0.273090	0.063849	-0.085521
O82	O	0.773090	0.563849	0.414479
O83	O	0.273055	0.063848	0.085649
O84	O	0.773055	0.563848	0.585649
C85	C	0.045331	0.061516	0.046318
C86	C	0.545331	0.561516	0.546318
C87	C	0.020127	0.061249	0.000063
C88	C	0.520127	0.561249	0.500063
C89	C	0.045335	0.061500	-0.046194
C90	C	0.545335	0.561500	0.453806
C91	C	-0.030287	0.060735	0.000064
C92	C	0.469713	0.560735	0.500064
C93	C	-0.055494	0.060484	0.046322
C94	C	0.444506	0.560484	0.546322
C95	C	-0.030287	0.060746	0.092578
C96	C	0.469713	0.560746	0.592578
C97	C	0.020124	0.061264	0.092576
C98	C	0.520124	0.561264	0.592576
C99	C	0.020128	0.061238	-0.092450
C100	C	0.520128	0.561238	0.407550
C101	C	-0.030283	0.060720	-0.092445
C102	C	0.469717	0.560720	0.407555
C103	C	-0.055491	0.060469	-0.046187
C104	C	0.444509	0.560469	0.453813
C105	C	0.574737	-0.026628	0.000071
C106	C	1.074737	0.473372	0.500071
C107	C	0.574194	-0.080284	0.000076
C108	C	1.074194	0.419716	0.500076
C109	C	0.570787	-0.413006	-0.046206
C110	C	1.070787	0.086994	0.453794
C111	C	0.568726	-0.614664	-0.046215
C112	C	1.068726	-0.114664	0.453785
O113	O	0.568445	-0.640740	-0.085554
O114	O	1.068445	-0.140740	0.414446
N115	N	0.568462	-0.639874	0.000041
N116	N	1.068462	-0.139874	0.500041
C117	C	0.568710	-0.614667	0.046302
C118	C	1.068710	-0.114667	0.546302
O119	O	0.568434	-0.640737	0.085645
O120	O	1.068434	-0.140737	0.585645
C121	C	0.570768	-0.413010	0.046311
C122	C	1.070768	0.086990	0.546311
C123	C	0.571037	-0.387802	0.000052
C124	C	1.071037	0.112198	0.500052
C125	C	0.571055	-0.387798	-0.092461
C126	C	1.071055	0.112202	0.407539
C127	C	0.571573	-0.337387	-0.092458
C128	C	1.071573	0.162613	0.407542
C129	C	0.571823	-0.312184	-0.046200
C130	C	1.071823	0.187816	0.453800
C131	C	0.571555	-0.337391	0.000055
C132	C	1.071555	0.162609	0.500055
C133	C	0.571013	-0.387803	0.092571
C134	C	1.071013	0.112197	0.592571
C135	C	0.571526	-0.337385	0.092569
C136	C	1.071526	0.162615	0.592569
C137	C	0.571795	-0.312178	0.046311
C138	C	1.071795	0.187822	0.546311
C139	C	0.572322	-0.261777	0.046315
C140	C	1.072322	0.238223	0.546315
N141	N	0.572586	-0.236566	0.000060
N142	N	1.072586	0.263434	0.500060
C143	C	0.572336	-0.261769	-0.046198
C144	C	1.072336	0.238231	0.453802
C145	C	0.567631	-0.720540	0.046294
C146	C	1.067631	-0.220540	0.546294
C147	C	0.567118	-0.770954	0.046292
C148	C	1.067118	-0.270954	0.546292
C149	C	0.567132	-0.770947	-0.046225
C150	C	1.067132	-0.270947	0.453775
C151	C	0.567649	-0.720533	-0.046222
C152	C	1.067649	-0.220533	0.453778
C153	C	0.567895	-0.695329	0.000038
C154	C	1.067895	-0.195329	0.500038
C155	C	0.573424	-0.155903	-0.046189
C156	C	1.073424	0.344097	0.453811
C157	C	0.573944	-0.105487	-0.046182
C158	C	1.073944	0.394513	0.453818
C159	C	0.573927	-0.105498	0.046335
C160	C	1.073927	0.394502	0.546335
C161	C	0.573410	-0.155910	0.046328
C162	C	1.073410	0.344090	0.546328
C163	C	0.573157	-0.181110	0.000062
C164	C	1.073157	0.318890	0.500062
O165	O	0.572598	-0.235669	0.085634
O166	O	1.072598	0.264331	0.585634
O167	O	0.572602	-0.235689	-0.085535
O168	O	1.072602	0.264311	0.414465
C169	C	0.570269	-0.463417	-0.046209
C170	C	1.070269	0.036583	0.453791
C171	C	0.570001	-0.488624	0.000046
C172	C	1.070001	0.011376	0.500046
C173	C	0.570251	-0.463421	0.046304
C174	C	1.070251	0.036579	0.546304
C175	C	0.569487	-0.539039	0.000044
C176	C	1.069487	-0.039039	0.500044
C177	C	0.569238	-0.564242	-0.046213
C178	C	1.069238	-0.064242	0.453787
C179	C	0.569502	-0.539031	-0.092469
C180	C	1.069502	-0.039031	0.407531
C181	C	0.570020	-0.488620	-0.092466
C182	C	1.070020	0.011380	0.407534
C183	C	0.569987	-0.488632	0.092560
C184	C	1.069987	0.011368	0.592560
C185	C	0.569469	-0.539043	0.092553
C186	C	1.069469	-0.039043	0.592553
C187	C	0.569220	-0.564246	0.046296
C188	C	1.069220	-0.064246	0.546296
C189	C	0.658938	0.057573	0.000067
C190	C	1.158938	0.557573	0.500067
C191	C	0.712594	0.058115	0.000070
C192	C	1.212594	0.558115	0.500070
C193	C	0.566325	0.150186	0.000043
C194	C	1.066325	0.650186	0.500043
C195	C	0.566868	0.203842	0.000034
C196	C	1.066868	0.703842	0.500034
N197	N	0.570514	0.061795	0.120818
N198	N	1.070514	0.561795	0.620818
N199	N	0.570552	0.061759	-0.120704
N200	N	1.070552	0.561759	0.379296
C201	C	0.603651	0.028664	0.473342
C202	C	1.103651	0.528664	0.973342
C203	C	0.603662	0.028658	0.687000
C204	C	1.103662	0.528658	1.187000
O205	O	0.631818	0.000491	0.714630
O206	O	1.131818	0.500491	1.214630
N207	N	0.570542	0.061762	0.713712
N208	N	1.070542	0.561762	1.213712
C209	C	0.537415	0.094867	0.687007
C210	C	1.037415	0.594867	1.187007
O211	O	0.509242	0.123021	0.714630
O212	O	1.009242	0.623021	1.214630
C213	C	0.537403	0.094872	0.473349
C214	C	1.037403	0.594872	0.973349
C215	C	0.570528	0.061769	0.446640
C216	C	1.070528	0.561769	0.946640
C217	C	0.636773	-0.004436	0.446632
C218	C	1.136773	0.495564	0.946632
C219	C	0.636772	-0.004432	0.393221
C220	C	1.136772	0.495568	0.893221
C221	C	0.603649	0.028672	0.366519
C222	C	1.103649	0.528672	0.866519
C223	C	0.570527	0.061773	0.393228
C224	C	1.070527	0.561773	0.893228
C225	C	0.504274	0.127975	0.446644
C226	C	1.004274	0.627975	0.946644
C227	C	0.504273	0.127972	0.393226
C228	C	1.004273	0.627972	0.893226
C229	C	0.537398	0.094869	0.366517
C230	C	1.037398	0.594869	0.866517
C231	C	0.537402	0.094881	0.313115
C232	C	1.037402	0.594881	0.813115
N233	N	0.570522	0.061777	0.286403
N234	N	1.070522	0.561777	0.786403
C235	C	0.603645	0.028672	0.313105
C236	C	1.103645	0.528672	0.813105
C237	C	0.537425	0.094864	0.799180
C238	C	1.037425	0.594864	1.299180
C239	C	0.537429	0.094863	0.852594
C240	C	1.037429	0.594863	1.352594
C241	C	0.603675	0.028653	0.852584
C242	C	1.103675	0.528653	1.352584
C243	C	0.603673	0.028656	0.799169
C244	C	1.103673	0.528656	1.299169
C245	C	0.570545	0.061760	0.772468
C246	C	1.070545	0.561760	1.272468
C247	C	0.603640	0.028683	0.200937
C248	C	1.103640	0.528683	0.700937
C249	C	0.603637	0.028691	0.147520
C250	C	1.103637	0.528691	0.647520
C251	C	0.537390	0.094900	0.147535
C252	C	1.037390	0.594900	0.647535
C253	C	0.537394	0.094894	0.200947
C254	C	1.037394	0.594894	0.700947
C255	C	0.570521	0.061781	0.227646
C256	C	1.070521	0.561781	0.727646
O257	O	0.509257	0.123029	0.285452
O258	O	1.009257	0.623029	0.785452
O259	O	0.631807	0.000516	0.285472
O260	O	1.131807	0.500516	0.785472
C261	C	0.603652	0.028661	0.526753
C262	C	1.103652	0.528661	1.026753
C263	C	0.570530	0.061761	0.553463
C264	C	1.070530	0.561761	1.053463
C265	C	0.537407	0.094865	0.526761
C266	C	1.037407	0.594865	1.026761
C267	C	0.570534	0.061761	0.606877
C268	C	1.070534	0.561761	1.106877
C269	C	0.603657	0.028657	0.633579
C270	C	1.103657	0.528657	1.133579
C271	C	0.636777	-0.004447	0.606867
C272	C	1.136777	0.495553	1.106867
C273	C	0.636776	-0.004444	0.553455
C274	C	1.136776	0.495556	1.053455
C275	C	0.504287	0.127969	0.553473
C276	C	1.004287	0.627969	1.053473
C277	C	0.504292	0.127963	0.606884
C278	C	1.004292	0.627963	1.106884
C279	C	0.537415	0.094859	0.633586
C280	C	1.037415	0.594859	1.133586
H281	H	0.423779	0.065411	0.083969
H282	H	0.923779	0.565411	0.583969
N283	N	-0.186041	0.059178	0.093579
N284	N	0.313959	0.559178	0.593579
N285	N	-0.196394	0.093217	0.124541
N286	N	0.303606	0.593217	0.624541
H287	H	-0.178214	0.093418	0.157913
H288	H	0.321786	0.593418	0.657913
N289	N	0.327112	0.064410	0.093566
N290	N	0.827112	0.564410	0.593566
N291	N	0.349630	0.064648	0.134859
N292	N	0.849630	0.564648	0.634859
H293	H	0.331456	0.064466	0.168239
H294	H	0.831456	0.564466	0.668239
H295	H	0.567867	-0.700012	-0.083890
H296	H	1.067867	-0.200012	0.416110
H297	H	0.570238	-0.468101	-0.130135
H298	H	1.070238	0.031899	0.369865
H299	H	0.571790	-0.316867	-0.130126
H300	H	1.071790	0.183133	0.369874
N301	N	0.470446	0.161788	0.526210
N302	N	0.970446	0.661788	1.026210
N303	N	0.440878	0.191339	0.550072
N304	N	0.940878	0.691339	1.050072
H305	H	0.416976	0.215226	0.530820
H306	H	0.916976	0.715226	1.030820
H307	H	0.570850	-0.408313	-0.130131
H308	H	1.070850	0.091687	0.369869
N309	N	0.670610	-0.038254	0.526169
N310	N	1.170610	0.461746	1.026169
N311	N	0.700498	-0.023133	0.496361
N312	N	1.200498	0.476867	0.996361
H313	H	0.724394	-0.047013	0.477092
H314	H	1.224394	0.452987	0.977092
H315	H	0.191874	0.063033	0.130239
H316	H	0.691874	0.563033	0.630239
N317	N	-0.056049	0.060495	0.139824
N318	N	0.443951	0.560495	0.639824
N319	N	-0.101061	0.060035	0.139812
N320	N	0.398939	0.560035	0.639812
H321	H	-0.119259	0.059857	0.173178
H322	H	0.380741	0.559857	0.673178
H323	H	0.477295	0.154929	0.371489
H324	H	0.977295	0.654929	0.871489
H325	H	0.566906	-0.791475	0.083961
H326	H	1.066906	-0.291475	0.583961
H327	H	0.100428	0.062095	0.130242
H328	H	0.600428	0.562095	0.630242
N329	N	-0.287953	0.058131	0.093583
N330	N	0.212047	0.558131	0.593583
N331	N	-0.320804	0.091933	0.103898
N332	N	0.179196	0.591933	0.603898
H333	H	-0.338993	0.091757	0.137269
H334	H	0.161007	0.591757	0.637269
H335	H	0.663746	-0.031396	0.468368
H336	H	1.163746	0.468604	0.968368
H337	H	0.571719	-0.316866	0.130242
H338	H	1.071719	0.183134	0.630242
H339	H	0.573195	-0.176435	0.083996
H340	H	1.073195	0.323565	0.583996
H341	H	-0.050800	0.060507	-0.130117
H342	H	0.449200	0.560507	0.369883
N343	N	0.570743	-0.413536	0.139829
N344	N	1.070743	0.086464	0.639829
N345	N	0.570964	-0.391017	0.181122
N346	N	1.070964	0.108983	0.681122
H347	H	0.570774	-0.409190	0.214502
H348	H	1.070774	0.090810	0.714502
H349	H	0.566929	-0.791477	-0.083890
H350	H	1.066929	-0.291477	0.416110
H351	H	0.574164	-0.084966	-0.083853
H352	H	1.074164	0.415034	0.416147
H353	H	0.567833	-0.700025	0.083967
H354	H	1.067833	-0.200025	0.583967
H355	H	0.574133	-0.084969	0.083997
H356	H	1.074133	0.415031	0.583997
N357	N	0.569240	-0.564773	-0.139725
N358	N	1.069240	-0.064773	0.360275
N359	N	0.569475	-0.542265	-0.181026
N360	N	1.069475	-0.042265	0.318974
H361	H	0.569287	-0.560447	-0.214399
H362	H	1.069287	-0.060447	0.285601
N363	N	0.045865	0.061492	-0.139708
N364	N	0.545865	0.561492	0.360292
N365	N	0.023348	0.061256	-0.181001
N366	N	0.523348	0.561256	0.318999
H367	H	0.041522	0.061438	-0.214381
H368	H	0.541522	0.561438	0.285619
H369	H	0.569254	-0.559563	0.130225
H370	H	1.069254	-0.059563	0.630225
H371	H	0.510425	0.121854	0.222694
H372	H	1.010425	0.621854	0.722694
H373	H	0.100445	0.062046	-0.130130
H374	H	0.600445	0.562046	0.369870
H375	H	0.040640	0.061482	0.130245
H376	H	0.540640	0.561482	0.630245
N377	N	0.503587	0.128678	0.771900
N378	N	1.003587	0.628678	1.271900
N379	N	0.473696	0.113559	0.742098
N380	N	0.973696	0.613559	1.242098
H381	H	0.449800	0.137441	0.722832
H382	H	0.949800	0.637441	1.222832
H383	H	0.570191	-0.468116	0.130229
H384	H	1.070191	0.031884	0.630229
N385	N	0.637474	-0.005132	0.120246
N386	N	1.137474	0.494868	0.620246
N387	N	0.667040	-0.034691	0.144098
N388	N	1.167040	0.465309	0.644098
H389	H	0.690934	-0.058582	0.124837
H390	H	1.190934	0.441418	0.624837
N391	N	0.637480	-0.005145	0.228196
N392	N	1.137480	0.494855	0.728196
N393	N	0.667048	-0.034694	0.204334
N394	N	1.167048	0.465306	0.704334
H395	H	0.690949	-0.058584	0.223585
H396	H	1.190949	0.441416	0.723585
N397	N	0.503562	0.128712	0.120246
N398	N	1.003562	0.628712	0.620246
N399	N	0.503569	0.128705	0.072556
N400	N	1.003569	0.628705	0.572556
H401	H	0.479676	0.152584	0.053281
H402	H	0.979676	0.652584	0.553281
H403	H	0.332323	0.064450	-0.083882
H404	H	0.832323	0.564450	0.416118
H405	H	-0.282716	0.058156	-0.083856
H406	H	0.217284	0.558156	0.416144
H407	H	0.663744	-0.031389	0.371477
H408	H	1.163744	0.468611	0.871477
H409	H	0.630646	0.001700	0.777425
H410	H	1.130646	0.501700	1.277425
H411	H	0.573216	-0.176415	-0.083863
H412	H	1.073216	0.323585	0.416137
H413	H	0.630646	0.001699	0.874334
H414	H	1.130646	0.501699	1.374334
N415	N	0.503596	0.128687	0.879866
N416	N	1.003596	0.628687	1.379866
N417	N	0.474026	0.158240	0.856012
N418	N	0.974026	0.658240	1.356012
H419	H	0.450128	0.182129	0.875270
H420	H	0.950128	0.682129	1.375270
N421	N	0.197115	0.063026	-0.139718
N422	N	0.697115	0.563026	0.360282
N423	N	0.174602	0.062786	-0.181013
N424	N	0.674602	0.562786	0.318987
H425	H	0.192780	0.062961	-0.214391
H426	H	0.692780	0.562961	0.285609
N427	N	0.470437	0.161796	0.473910
N428	N	0.970437	0.661796	0.973910
N429	N	0.440867	0.191347	0.450053
N430	N	0.940867	0.691347	0.950053
H431	H	0.416968	0.215235	0.469308
H432	H	0.916968	0.715235	0.969308
H433	H	0.663749	-0.031401	0.628616
H434	H	1.163749	0.468599	1.128616
H435	H	0.423790	0.065384	-0.083881
H436	H	0.923790	0.565384	0.416119
N437	N	0.470446	0.161780	0.634155
N438	N	0.970446	0.661780	1.134155
N439	N	0.425774	0.161429	0.628184
N440	N	0.925774	0.661429	1.128184
H441	H	0.401868	0.185309	0.647442
H442	H	0.901868	0.685309	1.147442
N443	N	-0.186047	0.059131	-0.093450
N444	N	0.313953	0.559131	0.406550
N445	N	-0.208565	0.058897	-0.134743
N446	N	0.291435	0.558897	0.365257
H447	H	-0.190391	0.059076	-0.168123
H448	H	0.309609	0.559076	0.331877
