data_functionalizedCrystal
_audit_creation_method	'MofGen! by Chris Wilmer'
_symmetry_space_group_name_H-M	'P1'
_symmetry_Int_Tables_number	1
_symmetry_cell_setting	triclinic
loop_
_symmetry_equiv_pos_as_xyz
  x,y,z
_cell_length_a	12.759395
_cell_length_b	16.625546
_cell_length_c	12.759387
_cell_angle_alpha	89.963284
_cell_angle_beta	89.981185
_cell_angle_gamma	90.024005
loop_
_atom_site_label
_atom_site_type_symbol
_atom_site_fract_x
_atom_site_fract_y
_atom_site_fract_z
Zn1	Zn	1.606194	-0.320917	-0.593970
Zn2	Zn	1.606066	-0.455775	-0.418276
Zn3	Zn	1.430498	-0.320964	-0.418307
Zn4	Zn	1.430461	-0.455715	-0.593915
O5	O	1.518305	-0.388343	-0.506117
O6	O	1.753199	-0.338812	-0.570674
O7	O	1.582739	-0.437937	-0.271259
O8	O	1.453873	-0.208125	-0.441645
O9	O	1.753104	-0.437891	-0.441592
O10	O	1.582957	-0.208091	-0.570704
O11	O	1.453749	-0.338891	-0.271282
O12	O	1.283472	-0.338833	-0.441592
O13	O	1.453811	-0.437789	-0.740944
O14	O	1.283445	-0.437834	-0.570610
O15	O	1.582921	-0.338753	-0.740984
O16	O	1.582703	-0.568599	-0.441539
O17	O	1.453687	-0.568555	-0.570580
C18	C	1.245337	-0.388333	-0.506099
C19	C	1.128561	-0.388348	-0.506116
C20	C	1.518206	-0.597833	-0.506073
C21	C	1.518259	-0.687454	-0.506090
C22	C	1.128571	-0.491605	-0.640246
C23	C	1.073716	-0.543239	-0.707314
C24	C	0.963994	-0.543249	-0.707327
C25	C	0.909126	-0.491617	-0.640267
C26	C	0.963981	-0.439982	-0.573199
C27	C	1.073705	-0.439980	-0.573191
C28	C	0.963971	-0.336723	-0.439076
C29	C	1.073692	-0.336716	-0.439056
C30	C	0.909102	-0.285091	-0.372016
C31	C	0.963958	-0.233459	-0.304942
C32	C	1.073686	-0.233452	-0.304931
C33	C	1.128548	-0.285081	-0.371989
C34	C	1.518442	-1.015630	-0.506199
C35	C	1.518388	-0.924322	-0.506171
C36	C	1.518350	-0.851545	-0.506144
C37	C	1.518297	-0.760231	-0.506117
C38	C	1.792338	-0.388353	-0.506136
C39	C	1.909115	-0.388357	-0.506144
C40	C	1.518376	-0.388259	-0.780151
C41	C	1.518407	-0.388224	-0.896928
C42	C	1.518433	-0.178034	-0.506184
C43	C	1.518488	-0.088412	-0.506213
C44	C	1.384099	-0.285081	-0.896970
C45	C	1.316964	-0.233493	-0.951852
C46	C	1.316995	-0.233464	-1.061574
C47	C	1.384167	-0.285030	-1.116416
C48	C	1.451301	-0.336617	-1.061534
C49	C	1.451265	-0.336639	-0.951810
C50	C	1.585602	-0.439763	-1.061491
C51	C	1.585578	-0.439789	-0.951770
C52	C	1.652774	-0.491329	-1.116334
C53	C	1.719915	-0.542913	-1.061451
C54	C	1.719882	-0.542940	-0.951723
C55	C	1.652713	-0.491377	-0.896888
C56	C	1.518294	-0.388367	-0.233150
C57	C	1.518468	-0.388176	-0.116374
H58	H	1.217912	-0.491608	-0.640234
H59	H	1.217889	-0.285083	-0.371983
Cl60	Cl	0.771165	-0.285098	-0.372038
Cl61	Cl	1.804342	-0.607736	-1.130400
H62	H	0.919331	-0.585290	-0.761944
H63	H	0.819784	-0.491623	-0.640292
H64	H	1.118402	-0.585276	-0.761914
H65	H	0.919275	-0.191420	-0.250352
H66	H	1.384177	-0.285009	-1.205757
H67	H	1.262327	-0.191458	-1.106259
Cl68	Cl	1.652803	-0.491300	-1.254270
H69	H	1.262272	-0.191512	-0.907188
H70	H	1.118343	-0.191399	-0.250323
H71	H	1.384075	-0.285093	-0.807629
H72	H	1.774555	-0.584946	-0.907044
Cl73	Cl	1.652669	-0.491403	-0.758951
