data_functionalizedCrystal
_audit_creation_method	'MofGen! by Chris Wilmer'
_symmetry_space_group_name_H-M	'P1'
_symmetry_Int_Tables_number	1
_symmetry_cell_setting	triclinic
loop_
_symmetry_equiv_pos_as_xyz
  x,y,z
_cell_length_a	14.853567
_cell_length_b	17.699083
_cell_length_c	16.176319
_cell_angle_alpha	90.007696
_cell_angle_beta	90.004441
_cell_angle_gamma	83.458973
loop_
_atom_site_label
_atom_site_type_symbol
_atom_site_fract_x
_atom_site_fract_y
_atom_site_fract_z
O1	O	-1.196004	-0.098817	-0.068691
O2	O	-0.933502	-0.110588	-0.068706
O3	O	-1.072169	0.005467	-0.068691
O4	O	-1.057337	-0.214872	-0.068706
O5	O	-1.072150	0.005475	0.068802
O6	O	-0.933483	-0.110581	0.068788
O7	O	-1.195985	-0.098809	0.068802
Cu8	Cu	-1.064732	-0.104694	0.081349
Cu9	Cu	-1.064755	-0.104703	-0.081253
O10	O	-1.057318	-0.214865	0.068787
C11	C	-0.899905	-0.110051	0.000039
C12	C	-0.799828	-0.108453	0.000034
C13	C	-1.071628	0.033670	0.000056
C14	C	-1.070034	0.117692	0.000056
C15	C	-1.229582	-0.099347	0.000055
C16	C	-1.329659	-0.100945	0.000055
C17	C	-0.387572	-0.032757	0.000058
C18	C	-0.365784	-0.170634	0.000047
C19	C	-0.459812	-0.172136	0.000045
C20	C	-0.517725	-0.103948	0.000047
C21	C	-0.481610	-0.034258	0.000053
C22	C	-0.495934	-0.241826	0.000031
C23	C	-0.589968	-0.243332	0.000027
C24	C	-0.647883	-0.175143	0.000036
C25	C	-0.611762	-0.105449	0.000042
C26	C	-0.669675	-0.037261	0.000045
C27	C	-0.633556	0.032433	0.000057
C28	C	-0.539524	0.033931	0.000061
C29	C	-0.741915	-0.176641	0.000031
C30	C	-0.763712	-0.038762	0.000039
C31	C	-1.057859	-0.243067	0.000039
C32	C	-1.059453	-0.327089	0.000033
N33	N	-1.064723	-0.104688	0.195714
C34	C	-1.151429	0.166101	0.000062
C35	C	-1.149925	0.245049	0.000054
C36	C	-1.067026	0.275585	0.000047
C37	C	-0.985625	0.227169	0.000039
C38	C	-0.987129	0.148223	0.000041
C39	C	-0.979555	0.545548	0.000032
C40	C	-0.978057	0.624499	0.000033
C41	C	-1.142352	0.642373	0.000046
C42	C	-1.143856	0.563428	0.000047
C43	C	-1.062455	0.515019	0.000035
C44	C	-1.064087	0.429415	0.000041
C45	C	-1.065394	0.361187	0.000047
N46	N	-1.064771	-0.104704	-0.195618
C47	C	-1.126144	-0.053319	0.238985
C48	C	-1.126148	-0.053319	0.325532
C49	C	-1.064736	-0.104690	0.368807
C50	C	-1.003309	-0.156061	0.325530
C51	C	-1.003301	-0.156058	0.238984
C52	C	-1.003340	-0.156075	0.674558
C53	C	-1.003354	-0.156076	0.761110
C54	C	-1.126187	-0.053336	0.761106
C55	C	-1.126179	-0.053333	0.674560
C56	C	-1.064749	-0.104701	0.631291
C57	C	-1.064744	-0.104700	0.537447
C58	C	-1.064745	-0.104695	0.462649
H59	H	-0.810860	0.016766	0.000045
H60	H	-0.619367	-0.300081	0.000017
Br61	Br	-1.256366	0.521990	0.000056
Br62	Br	-0.712163	0.124970	0.000051
H63	H	-0.918126	0.252037	0.000028
H64	H	-1.218935	0.141246	0.000073
H65	H	-0.510108	0.090673	0.000091
Br66	Br	-1.209502	0.016399	0.384260
H67	H	-0.910546	0.649358	0.000029
H68	H	-0.318626	-0.226149	0.000038
H69	H	-0.953301	-0.197887	0.360769
H70	H	-0.953285	-0.197886	0.203754
Br71	Br	-0.876660	0.082522	0.000026
Br72	Br	-0.338558	0.061824	0.000082
Br73	Br	-1.260395	0.310746	0.000062
Br74	Br	-0.417336	-0.334361	0.000009
Br75	Br	-0.920004	-0.225801	0.819840
H76	H	-0.771318	-0.233385	0.000023
H77	H	-1.208632	0.681798	0.000052
Br78	Br	-0.919975	-0.225788	0.615840
H79	H	-0.913274	0.506142	0.000022
H80	H	-1.176156	-0.011490	0.203756
Br81	Br	-1.209531	0.016384	0.615833
H82	H	-1.176204	-0.011507	0.796345
