data_functionalizedCrystal
_audit_creation_method	'MofGen! by Chris Wilmer'
_symmetry_space_group_name_H-M	'P1'
_symmetry_Int_Tables_number	1
_symmetry_cell_setting	triclinic
loop_
_symmetry_equiv_pos_as_xyz
  x,y,z
_cell_length_a	15.944551
_cell_length_b	15.944493
_cell_length_c	7.540329
_cell_angle_alpha	89.997607
_cell_angle_beta	89.998701
_cell_angle_gamma	96.513109
loop_
_atom_site_label
_atom_site_type_symbol
_atom_site_fract_x
_atom_site_fract_y
_atom_site_fract_z
O1	O	-0.108099	1.114553	-0.147439
O2	O	0.391901	1.614553	0.352561
O3	O	-0.121506	0.869996	-0.147446
O4	O	0.378494	1.369996	0.352554
O5	O	0.007474	0.998953	-0.147453
O6	O	0.507474	1.498953	0.352547
O7	O	-0.237079	0.985596	-0.147432
O8	O	0.262921	1.485596	0.352568
O9	O	0.007475	0.998945	0.147512
O10	O	0.507475	1.498945	0.647512
O11	O	-0.121504	0.869989	0.147519
O12	O	0.378496	1.369989	0.647519
O13	O	-0.108097	1.114545	0.147526
O14	O	0.391903	1.614545	0.647526
Cu15	Cu	-0.114801	0.992266	0.174455
Cu16	Cu	0.385199	1.492266	0.674455
Cu17	Cu	-0.114803	0.992275	-0.174375
Cu18	Cu	0.385197	1.492275	0.325625
O19	O	-0.237077	0.985589	0.147533
O20	O	0.262923	1.485589	0.647533
C21	C	-0.120957	0.838698	0.000036
C22	C	0.379043	1.338698	0.500036
C23	C	-0.119314	0.745449	0.000032
C24	C	0.380686	1.245449	0.500032
C25	C	-0.195235	0.509689	0.000037
C26	C	0.304765	1.009689	0.500037
C27	C	-0.154293	0.459127	0.145475
C28	C	0.345707	0.959127	0.645475
C29	C	-0.116270	0.574728	0.000036
C30	C	0.383730	1.074728	0.500036
C31	C	-0.154276	0.459139	-0.145338
C32	C	0.345724	0.959139	0.354662
C33	C	-0.113336	0.409819	0.000031
C34	C	0.386664	0.909819	0.500031
C35	C	-0.075350	0.525394	0.145593
C36	C	0.424650	1.025394	0.645593
C37	C	-0.075344	0.525410	-0.145350
C38	C	0.424656	1.025410	0.354650
C39	C	-0.034345	0.474880	0.000123
C40	C	0.465655	0.974880	0.500123
C41	C	-0.117963	0.669728	0.000040
C42	C	0.382037	1.169728	0.500040
C43	C	-0.111637	0.314821	0.000039
C44	C	0.388363	0.814821	0.500039
C45	C	-0.268372	0.986147	0.000053
C46	C	0.231628	1.486147	0.500053
C47	C	-0.361617	0.987809	0.000060
C48	C	0.138383	1.487809	0.500060
C49	C	-0.576457	1.071716	0.000036
C50	C	-0.076457	1.571716	0.500036
C51	C	-0.637480	1.032749	0.145469
C52	C	-0.137480	1.532749	0.645469
C53	C	-0.532343	0.990817	0.000045
C54	C	-0.032343	1.490817	0.500045
C55	C	-0.637467	1.032737	-0.145343
C56	C	-0.137467	1.532737	0.354657
C57	C	-0.697255	0.993728	0.000022
C58	C	-0.197255	1.493728	0.500022
C59	C	-0.592138	0.951827	0.145598
C60	C	-0.092138	1.451827	0.645598
C61	C	-0.592119	0.951827	-0.145345
C62	C	-0.092119	1.451827	0.354655
C63	C	-0.653125	0.912801	0.000125
C64	C	-0.153125	1.412801	0.500125
C65	C	-0.437341	0.989142	0.000059
C66	C	0.062659	1.489142	0.500059
C67	C	-0.792256	0.995396	0.000020
C68	C	-0.292256	1.495396	0.500020
C69	C	0.038768	0.998395	0.000023
C70	C	0.538768	1.498395	0.500023
C71	C	0.132014	0.996732	0.000004
C72	C	0.632014	1.496732	0.500004
C73	C	-0.108646	1.145844	0.000040
C74	C	0.391354	1.645844	0.500040
C75	C	-0.110289	1.239092	0.000032
C76	C	0.389711	1.739092	0.500032
N77	N	-0.114799	0.992266	0.419804
N78	N	0.385201	1.492266	0.919804
N79	N	-0.114798	0.992282	-0.419724
N80	N	0.385202	1.492282	0.080276
H81	H	-0.263254	0.525313	0.000179
H82	H	0.236746	1.025313	0.500179
F83	F	0.054626	0.454659	0.000225
F84	F	0.554626	0.954659	0.500225
H85	H	-0.042021	0.554219	0.268671
H86	H	0.457979	1.054219	0.768671
H87	H	-0.657579	1.066963	0.268425
H88	H	-0.157579	1.566963	0.768425
H89	H	-0.571998	0.917642	-0.268306
H90	H	-0.071998	1.417642	0.231694
H91	H	-0.042022	0.554359	-0.268316
H92	H	0.457978	1.054359	0.231684
H93	H	-0.187641	0.430204	-0.268276
H94	H	0.312359	0.930204	0.231724
H95	H	-0.543137	1.138867	0.000180
H96	H	-0.043137	1.638867	0.500180
H97	H	-0.572153	0.917633	0.268684
H98	H	-0.072153	1.417633	0.768684
H99	H	-0.686297	0.845592	0.000204
H100	H	-0.186297	1.345592	0.500204
F101	F	-0.197879	0.421298	0.306192
F102	F	0.302121	0.921298	0.806192
H103	H	-0.657551	1.066973	-0.268289
H104	H	-0.157551	1.566973	0.231711
