data_functionalizedCrystal
_audit_creation_method	'MofGen! by Chris Wilmer'
_symmetry_space_group_name_H-M	'P1'
_symmetry_Int_Tables_number	1
_symmetry_cell_setting	triclinic
loop_
_symmetry_equiv_pos_as_xyz
  x,y,z
_cell_length_a	12.759401
_cell_length_b	18.101395
_cell_length_c	12.759393
_cell_angle_alpha	89.966505
_cell_angle_beta	89.980163
_cell_angle_gamma	90.032629
loop_
_atom_site_label
_atom_site_type_symbol
_atom_site_fract_x
_atom_site_fract_y
_atom_site_fract_z
Zn1	Zn	1.606135	-0.294755	-0.594006
Zn2	Zn	1.605979	-0.418617	-0.418321
Zn3	Zn	1.430437	-0.294797	-0.418342
Zn4	Zn	1.430376	-0.418563	-0.593958
O5	O	1.518232	-0.356683	-0.506157
O6	O	1.753136	-0.311191	-0.570713
O7	O	1.582654	-0.402232	-0.271302
O8	O	1.453835	-0.191159	-0.441673
O9	O	1.753021	-0.402192	-0.441637
O10	O	1.582920	-0.191128	-0.570733
O11	O	1.453684	-0.311262	-0.271318
O12	O	1.283408	-0.311210	-0.441626
O13	O	1.453730	-0.402099	-0.740986
O14	O	1.283363	-0.402140	-0.570651
O15	O	1.582860	-0.311139	-0.741021
O16	O	1.582594	-0.522243	-0.441590
O17	O	1.453579	-0.522203	-0.570630
C18	C	1.245265	-0.356674	-0.506136
C19	C	1.128488	-0.356688	-0.506152
C20	C	1.073630	-0.404107	-0.573229
C21	C	0.963906	-0.404110	-0.573250
C22	C	0.963908	-0.309272	-0.439107
C23	C	1.073630	-0.309266	-0.439092
C24	C	1.518091	-0.549094	-0.506126
C25	C	1.518127	-0.631408	-0.506148
C26	C	1.518358	-0.930499	-0.506204
C27	C	1.437373	-0.899179	-0.587594
C28	C	1.436988	-0.813561	-0.587340
C29	C	1.518243	-0.782116	-0.506177
C30	C	1.488263	-0.813277	-0.395451
C31	C	1.487741	-0.898922	-0.395938
C32	C	1.629500	-0.898838	-0.534565
C33	C	1.628847	-0.813187	-0.536994
C34	C	1.518181	-0.698257	-0.506155
C35	C	1.518418	-1.014358	-0.506219
C36	C	1.792265	-0.356693	-0.506178
C37	C	1.909042	-0.356697	-0.506187
C38	C	1.518305	-0.356608	-0.780190
C39	C	1.518337	-0.356576	-0.896967
C40	C	1.518402	-0.163521	-0.506211
C41	C	1.518474	-0.081207	-0.506234
C42	C	1.451206	-0.309200	-0.951836
C43	C	1.451230	-0.309177	-1.061561
C44	C	1.585525	-0.403910	-1.061536
C45	C	1.585495	-0.403936	-0.951814
C46	C	1.518219	-0.356704	-0.233189
C47	C	1.518392	-0.356528	-0.116413
H48	H	1.455746	-0.792491	-0.669442
H49	H	1.545393	-0.792910	-0.333156
H50	H	1.692377	-0.791778	-0.482034
C51	C	0.904211	-0.455639	-0.645905
C52	C	0.841133	-0.503045	-0.586310
C53	C	0.786118	-0.550518	-0.653208
H54	H	0.952480	-0.483949	-0.685863
H55	H	0.861393	-0.427371	-0.691746
H56	H	0.883948	-0.531310	-0.540487
H57	H	0.792845	-0.474755	-0.546354
H58	H	0.743300	-0.522250	-0.699049
H59	H	0.834394	-0.578822	-0.693163
H60	H	0.743306	-0.582683	-0.612783
H61	H	1.689837	-0.919091	-0.475286
H62	H	1.355493	-0.920769	-0.569045
H63	H	1.118292	-0.442720	-0.627836
C64	C	0.904155	-0.257870	-0.366340
C65	C	0.796323	-0.268037	-0.380689
C66	C	0.741249	-0.220704	-0.313663
H67	H	0.922053	-0.208095	-0.381776
H68	H	0.922034	-0.268653	-0.295696
H69	H	0.778451	-0.257249	-0.451317
H70	H	0.778393	-0.317803	-0.365245
H71	H	0.759128	-0.231487	-0.243019
H72	H	0.759156	-0.170931	-0.329105
H73	H	0.668079	-0.227601	-0.323383
H74	H	1.396565	-0.270599	-1.106230
C75	C	1.462260	-0.926682	-0.697340
C76	C	1.550811	-0.972262	-0.693845
C77	C	1.573758	-0.997626	-0.794922
H78	H	1.475715	-0.885739	-0.741969
H79	H	1.404304	-0.953925	-0.723642
H80	H	1.608754	-0.945019	-0.667557
H81	H	1.537380	-1.013216	-0.649236
H82	H	1.515802	-1.024869	-0.821223
H83	H	1.587209	-0.956678	-0.839543
H84	H	1.633836	-1.028560	-0.792562
H85	H	1.640203	-0.442467	-1.106206
H86	H	1.118296	-0.270647	-0.384470
C87	C	1.327090	-0.786471	-0.562210
C88	C	1.260776	-0.847219	-0.547198
C89	C	1.159530	-0.822293	-0.524026
H90	H	1.301714	-0.757337	-0.618694
H91	H	1.328768	-0.757498	-0.500170
H92	H	1.259093	-0.876180	-0.609230
H93	H	1.286117	-0.876360	-0.490710
H94	H	1.161208	-0.793319	-0.461986
H95	H	1.134165	-0.793159	-0.580514
H96	H	1.114526	-0.863506	-0.513828
C97	C	1.379329	-0.925511	-0.363942
C98	C	1.314918	-0.864463	-0.344346
C99	C	1.215036	-0.888924	-0.314884
H100	H	1.384562	-0.954750	-0.302323
H101	H	1.350026	-0.954270	-0.418883
H102	H	1.344214	-0.835716	-0.289409
H103	H	1.309654	-0.835218	-0.405951
H104	H	1.185732	-0.917683	-0.369825
H105	H	1.220279	-0.918162	-0.253267
H106	H	1.171317	-0.847507	-0.301594
C107	C	1.378109	-0.257882	-0.892341
C108	C	1.274153	-0.274014	-0.918999
C109	C	1.206781	-0.226764	-0.864205
H110	H	1.393391	-0.208093	-0.910296
H111	H	1.387633	-0.264688	-0.819125
H112	H	1.264633	-0.267202	-0.992198
H113	H	1.258838	-0.323795	-0.901042
H114	H	1.216306	-0.233569	-0.790990
H115	H	1.222072	-0.176977	-0.882164
H116	H	1.136240	-0.237707	-0.882278
H117	H	1.544168	-0.919643	-0.333229
C118	C	1.658919	-0.786185	-0.645749
C119	C	1.673898	-0.846956	-0.711905
C120	C	1.701562	-0.822114	-0.812112
H121	H	1.721946	-0.758378	-0.641741
H122	H	1.604480	-0.755924	-0.672866
H123	H	1.728332	-0.877204	-0.684796
H124	H	1.610883	-0.874769	-0.715946
H125	H	1.647123	-0.791853	-0.839228
H126	H	1.764587	-0.794307	-0.808092
H127	H	1.711719	-0.863342	-0.857013
C128	C	1.658499	-0.455405	-0.892422
C129	C	1.717345	-0.496856	-0.963937
C130	C	1.784610	-0.544269	-0.909263
H131	H	1.618382	-0.487744	-0.849603
H132	H	1.704345	-0.427104	-0.849654
H133	H	1.671505	-0.525154	-1.006687
H134	H	1.757484	-0.464536	-1.006758
H135	H	1.830456	-0.515969	-0.866495
H136	H	1.744484	-0.576604	-0.866446
H137	H	1.824552	-0.572395	-0.957777
H138	H	1.407879	-0.791895	-0.370996
H139	H	1.656833	-0.920380	-0.613930
