data_functionalizedCrystal
_audit_creation_method	'MofGen! by Chris Wilmer'
_symmetry_space_group_name_H-M	'P1'
_symmetry_Int_Tables_number	1
_symmetry_cell_setting	triclinic
loop_
_symmetry_equiv_pos_as_xyz
  x,y,z
_cell_length_a	16.109301
_cell_length_b	10.654550
_cell_length_c	14.586319
_cell_angle_alpha	89.997374
_cell_angle_beta	89.999213
_cell_angle_gamma	83.973192
loop_
_atom_site_label
_atom_site_type_symbol
_atom_site_fract_x
_atom_site_fract_y
_atom_site_fract_z
O1	O	1.104091	0.161419	-0.076180
O2	O	0.862148	0.181507	-0.076194
O3	O	0.988682	-0.011352	-0.076183
O4	O	0.977557	0.354278	-0.076191
O5	O	0.988673	-0.011354	0.076297
O6	O	0.862139	0.181504	0.076287
O7	O	1.104082	0.161416	0.076301
Cu8	Cu	0.983110	0.171460	0.090216
Cu9	Cu	0.983120	0.171463	-0.090110
O10	O	0.977548	0.354275	0.076290
C11	C	0.831164	0.180692	0.000044
C12	C	0.738854	0.178253	0.000039
C13	C	0.517228	0.287019	0.000047
C14	C	0.430494	0.284717	0.000053
C15	C	0.449008	0.055896	0.000054
C16	C	0.535741	0.058199	0.000055
C17	C	0.569848	0.173764	0.000047
C18	C	0.396382	0.169159	0.000052
C19	C	0.302341	0.166662	0.000058
C20	C	0.663895	0.176262	0.000042
C21	C	0.987861	-0.058140	0.000056
C22	C	0.985417	-0.197550	0.000053
C23	C	1.059918	-0.278046	0.000060
C24	C	1.057616	-0.409036	0.000053
C25	C	0.906306	-0.379020	0.000036
C26	C	0.908608	-0.248033	0.000036
C27	C	1.136726	-0.227564	0.000076
C28	C	1.211233	-0.308061	0.000084
C29	C	1.208932	-0.439051	0.000078
C30	C	1.132123	-0.489543	0.000063
C31	C	1.135066	0.162231	0.000060
C32	C	1.227376	0.164671	0.000060
C33	C	0.978369	0.401063	0.000049
C34	C	0.980813	0.540473	0.000046
N35	N	0.983108	0.171457	0.217048
N36	N	0.983128	0.171457	-0.216942
C37	C	1.039156	0.086088	0.452059
C38	C	1.039159	0.086084	0.548041
C39	C	0.927074	0.256830	0.548040
C40	C	0.927068	0.256826	0.452061
C41	C	0.983114	0.171456	0.404073
C42	C	0.983122	0.171457	0.596034
C43	C	0.983124	0.171455	0.700101
C44	C	0.983111	0.171457	0.299999
H45	H	1.138609	-0.120907	0.000084
H46	H	1.273768	-0.266942	0.000073
O47	O	0.586896	-0.051789	0.000213
C48	C	0.695603	-0.181947	0.079181
C49	C	0.637705	-0.057362	0.079123
H50	H	0.736709	-0.186481	0.142963
H51	H	0.656371	-0.264990	0.079238
H52	H	0.736635	-0.186563	0.015340
H53	H	0.596662	-0.052623	0.142953
H54	H	0.676986	0.025622	0.079018
O55	O	1.281382	-0.517068	0.000122
C56	C	1.431703	-0.533008	0.000088
C57	C	1.349715	-0.444513	0.000054
H58	H	1.486972	-0.474383	0.000014
H59	H	1.434459	-0.595067	0.063914
H60	H	1.434371	-0.595102	-0.063712
H61	H	1.346993	-0.382340	0.063811
H62	H	1.346993	-0.382541	-0.063814
H63	H	0.387654	0.376940	0.000056
O64	O	1.093565	0.002988	0.594553
C65	C	1.140998	-0.215357	0.623964
C66	C	1.079347	-0.121383	0.571216
H67	H	1.129513	-0.315932	0.605130
H68	H	1.207696	-0.199065	0.605069
H69	H	1.131388	-0.200634	0.700802
H70	H	1.088881	-0.136051	0.494366
H71	H	1.012672	-0.137699	0.590187
H72	H	0.843772	-0.420141	0.000026
O73	O	0.416011	-0.056467	0.000091
C74	C	0.443530	-0.283182	0.000024
C75	C	0.481006	-0.156017	0.000009
H76	H	0.496060	-0.363702	-0.000061
H77	H	0.403413	-0.290079	0.063848
H78	H	0.403362	-0.289902	-0.063778
H79	H	0.521212	-0.149212	0.063768
H80	H	0.521075	-0.149176	-0.063857
H81	H	1.130255	-0.596205	0.000048
O82	O	0.836185	-0.169956	-0.000092
C83	C	0.707601	-0.104151	-0.079135
C84	C	0.789580	-0.192667	-0.079086
H85	H	0.669907	-0.122464	-0.143004
H86	H	0.669774	-0.122512	-0.015370
H87	H	0.722466	-0.001873	-0.079092
H88	H	0.774792	-0.294977	-0.079162
H89	H	0.827385	-0.174198	-0.142846
O90	O	1.093460	0.003053	0.405363
C91	C	1.110100	-0.168592	0.297119
C92	C	1.048521	-0.074569	0.349912
H93	H	1.073791	-0.231392	0.252290
H94	H	1.151959	-0.114504	0.252095
H95	H	1.150145	-0.229548	0.347949
H96	H	1.008421	-0.013590	0.299149
H97	H	1.006719	-0.128735	0.394951
O98	O	0.872719	0.339714	0.594800
C99	C	0.823023	0.415351	0.742661
C100	C	0.884636	0.321431	0.689824
H101	H	0.832624	0.400583	0.819497
H102	H	0.834435	0.515967	0.723849
H103	H	0.756347	0.398972	0.723744
H104	H	0.951335	0.337694	0.708713
H105	H	0.873151	0.220847	0.708640
H106	H	0.881428	0.326344	0.412988
H107	H	0.544995	0.381119	0.000048
