data_functionalizedCrystal
_audit_creation_method	'MofGen! by Chris Wilmer'
_symmetry_space_group_name_H-M	'P1'
_symmetry_Int_Tables_number	1
_symmetry_cell_setting	triclinic
loop_
_symmetry_equiv_pos_as_xyz
  x,y,z
_cell_length_a	18.050589
_cell_length_b	11.169417
_cell_length_c	18.050591
_cell_angle_alpha	89.998601
_cell_angle_beta	90.000604
_cell_angle_gamma	90.029470
loop_
_atom_site_label
_atom_site_type_symbol
_atom_site_fract_x
_atom_site_fract_y
_atom_site_fract_z
Zn1	Zn	-0.295811	1.834565	0.419862
Zn2	Zn	-0.419956	1.834465	0.295682
Zn3	Zn	-0.295787	1.633925	0.295694
Zn4	Zn	-0.419966	1.633796	0.419838
O5	O	-0.357880	1.734188	0.357769
O6	O	-0.312285	2.002502	0.403394
O7	O	-0.403471	1.807875	0.191759
O8	O	-0.191866	1.660636	0.312181
O9	O	-0.403494	2.002428	0.312159
O10	O	-0.191883	1.808046	0.403406
O11	O	-0.312244	1.660539	0.191768
O12	O	-0.312254	1.465958	0.312157
O13	O	-0.403511	1.660417	0.523766
O14	O	-0.403488	1.465864	0.403365
O15	O	-0.312295	1.807921	0.523784
O16	O	-0.523882	1.807751	0.312136
O17	O	-0.523890	1.660320	0.403353
C18	C	-0.357870	1.422363	0.357761
C19	C	-0.357884	1.288963	0.357775
C20	C	-0.550832	1.734043	0.357757
C21	C	-0.633378	1.734091	0.357776
C22	C	-0.832860	1.653997	0.407363
C23	C	-0.882273	1.624773	0.339597
C24	C	-0.784508	1.734209	0.357786
C25	C	-0.882177	1.763491	0.425560
C26	C	-0.930493	1.734320	0.357801
C27	C	-0.832835	1.704928	0.289984
C28	C	-0.832734	1.843696	0.375993
C29	C	-0.882125	1.814515	0.308180
C30	C	-0.700410	1.734141	0.357778
C31	C	-1.014590	1.734388	0.357801
C32	C	-0.164174	1.734366	0.357798
C33	C	-0.081629	1.734442	0.357810
C34	C	-0.357907	1.734166	0.551475
C35	C	-0.357918	1.734156	0.634020
C36	C	-0.357891	2.047230	0.357778
C37	C	-0.357895	2.180630	0.357782
C38	C	-0.407515	1.653934	0.833461
C39	C	-0.425682	1.763413	0.882850
C40	C	-0.357908	1.734161	0.785151
C41	C	-0.339765	1.624689	0.882844
C42	C	-0.357899	1.734157	0.931136
C43	C	-0.376110	1.843699	0.833452
C44	C	-0.290162	1.704901	0.833442
C45	C	-0.308303	1.814457	0.882808
C46	C	-0.357915	1.734163	0.701052
C47	C	-0.357892	1.734168	1.015232
C48	C	-0.357877	1.734189	1.164817
C49	C	-0.357887	1.734164	1.082271
H50	H	-0.811227	1.586064	0.449229
C51	C	-0.803679	1.671378	0.212540
N52	N	-0.781717	1.646103	0.154212
H53	H	-0.810959	1.936213	0.391411
C54	C	-0.212792	1.671411	0.804095
N55	N	-0.154516	1.646173	0.781988
H56	H	-0.903621	1.882395	0.266213
C57	C	-0.911456	1.796892	0.502982
N58	N	-0.933506	1.822041	0.561298
C59	C	-0.319036	1.499621	0.912151
N60	N	-0.303427	1.405417	0.934221
H61	H	-0.449502	1.586173	0.811795
H62	H	-0.266348	1.882379	0.904338
C63	C	-0.396931	1.968801	0.804267
N64	N	-0.412617	2.063025	0.782283
C65	C	-0.911671	1.499753	0.318795
N66	N	-0.933811	1.405585	0.303133
C67	C	-0.503075	1.796854	0.912173
N68	N	-0.561368	1.822033	0.934257
