data_functionalizedCrystal
_audit_creation_method	'MofGen! by Chris Wilmer'
_symmetry_space_group_name_H-M	'P1'
_symmetry_Int_Tables_number	1
_symmetry_cell_setting	triclinic
loop_
_symmetry_equiv_pos_as_xyz
  x,y,z
_cell_length_a	15.297327
_cell_length_b	21.395362
_cell_length_c	21.395356
_cell_angle_alpha	90.042977
_cell_angle_beta	99.650480
_cell_angle_gamma	80.274117
loop_
_atom_site_label
_atom_site_type_symbol
_atom_site_fract_x
_atom_site_fract_y
_atom_site_fract_z
Zn1	Zn	-0.358826	-0.914748	-0.397682
Zn2	Zn	-0.025493	-0.581414	-0.064349
Zn3	Zn	0.307840	-0.248081	0.268985
Zn4	Zn	-0.509702	-0.896527	-0.311025
Zn5	Zn	-0.176369	-0.563194	0.022308
Zn6	Zn	0.156964	-0.229860	0.355642
Zn7	Zn	-0.358892	-0.809956	-0.292891
Zn8	Zn	-0.025559	-0.476623	0.040442
Zn9	Zn	0.307774	-0.143290	0.373776
Zn10	Zn	-0.509697	-0.791807	-0.415729
Zn11	Zn	-0.176363	-0.458474	-0.082396
Zn12	Zn	0.156970	-0.125141	0.250938
O13	O	-0.434279	-0.853260	-0.354332
O14	O	-0.100946	-0.519926	-0.020998
O15	O	0.232387	-0.186593	0.312335
O16	O	-0.378815	-1.000011	-0.386223
O17	O	-0.045482	-0.666678	-0.052890
O18	O	0.287852	-0.333345	0.280444
O19	O	-0.489727	-0.885013	-0.220945
O20	O	-0.156394	-0.551680	0.112388
O21	O	0.176940	-0.218346	0.445721
O22	O	-0.232629	-0.839078	-0.291650
O23	O	0.100704	-0.505744	0.041684
O24	O	0.434037	-0.172411	0.375017
O25	O	-0.489663	-0.986625	-0.322557
O26	O	-0.156329	-0.653292	0.010777
O27	O	0.177004	-0.319958	0.344110
O28	O	-0.232581	-0.916067	-0.368639
O29	O	0.100753	-0.582734	-0.035306
O30	O	0.434086	-0.249401	0.298028
O31	O	-0.378928	-0.821410	-0.207622
O32	O	-0.045594	-0.488077	0.125711
O33	O	0.287739	-0.154743	0.459044
O34	O	-0.378922	-0.719868	-0.309150
O35	O	-0.045589	-0.386534	0.024184
O36	O	0.287744	-0.053201	0.357517
O37	O	-0.489653	-0.808146	-0.501009
O38	O	-0.156320	-0.474812	-0.167676
O39	O	0.177013	-0.141479	0.165657
O40	O	-0.489717	-0.706534	-0.399398
O41	O	-0.156384	-0.373201	-0.066065
O42	O	0.176949	-0.039867	0.267269
O43	O	-0.378809	-0.898469	-0.487750
O44	O	-0.045476	-0.565136	-0.154417
O45	O	0.287857	-0.231803	0.178916
O46	O	-0.635956	-0.867415	-0.340056
O47	O	-0.302622	-0.534082	-0.006723
O48	O	0.030711	-0.200748	0.326610
O49	O	-0.635952	-0.790478	-0.416982
O50	O	-0.302618	-0.457145	-0.083649
O51	O	0.030715	-0.123811	0.249685
C52	C	-0.434327	-0.690466	-0.354265
C53	C	-0.100994	-0.357133	-0.020932
C54	C	0.232340	-0.023799	0.312402
C55	C	-0.434369	-0.620820	-0.354254
C56	C	-0.101036	-0.287486	-0.020920
C57	C	0.232297	0.045847	0.312413
C58	C	-0.668690	-0.825017	-0.382459
C59	C	-0.335357	-0.491684	-0.049126
C60	C	-0.002023	-0.158350	0.284208
C61	C	-0.768972	-0.812992	-0.394513
C62	C	-0.435638	-0.479659	-0.061179
C63	C	-0.102305	-0.146325	0.272154
C64	C	-0.434223	-0.853316	-0.517748
C65	C	-0.100890	-0.519982	-0.184415
C66	C	0.232443	-0.186649	0.148918
C67	C	-0.434200	-0.853339	-0.587387
C68	C	-0.100866	-0.520006	-0.254054
C69	C	0.232467	-0.186673	0.079280
C70	C	-1.051533	-0.939462	-0.268395
C71	C	-0.718199	-0.606129	0.064939
C72	C	-0.384866	-0.272796	0.398272
C73	C	-0.957313	-0.950760	-0.257066
C74	C	-0.623979	-0.617427	0.076267
C75	C	-0.290646	-0.284093	0.409600
C76	C	-0.910223	-0.916319	-0.291427
C77	C	-0.576890	-0.582986	0.041906
C78	C	-0.243556	-0.249653	0.375240
C79	C	-0.957362	-0.870578	-0.337118
C80	C	-0.624029	-0.537245	-0.003785
C81	C	-0.290695	-0.203912	0.329549
C82	C	-1.051591	-0.859276	-0.348444
C83	C	-0.718258	-0.525943	-0.015111
C84	C	-0.384924	-0.192609	0.318223
C85	C	-0.910281	-0.836133	-0.371476
C86	C	-0.576948	-0.502799	-0.038143
C87	C	-0.243615	-0.169466	0.295190
C88	C	-0.957420	-0.790392	-0.417167
C89	C	-0.624087	-0.457059	-0.083834
C90	C	-0.290754	-0.123725	0.249499
C91	C	-1.051640	-0.779092	-0.428491
C92	C	-0.718307	-0.445759	-0.095158
C93	C	-0.384973	-0.112425	0.238175
C94	C	-1.098730	-0.813533	-0.394131
C95	C	-0.765397	-0.480199	-0.060797
C96	C	-0.432063	-0.146866	0.272536
C97	C	-0.816052	-0.847435	-0.360150
C98	C	-0.482719	-0.514102	-0.026817
C99	C	-0.149386	-0.180769	0.306516
C100	C	-0.816111	-0.767249	-0.440200
C101	C	-0.482777	-0.433915	-0.106866
C102	C	-0.149444	-0.100582	0.226467
C103	C	-0.910330	-0.755951	-0.451528
C104	C	-0.576997	-0.422618	-0.118195
C105	C	-0.243664	-0.089284	0.215139
C106	C	-0.198953	-0.881630	-0.326109
C107	C	0.134380	-0.548296	0.007225
C108	C	0.467713	-0.214963	0.340558
C109	C	-0.098672	-0.893719	-0.314081
C110	C	0.234662	-0.560386	0.019252
C111	C	0.567995	-0.227052	0.352585
C112	C	-0.434232	-1.016689	-0.354399
C113	C	-0.100899	-0.683355	-0.021066
C114	C	0.232435	-0.350022	0.312267
C115	C	-0.434212	-1.086332	-0.354428
C116	C	-0.100879	-0.752999	-0.021095
C117	C	0.232455	-0.419666	0.312238
C118	C	-0.492137	-0.581171	-0.401195
C119	C	-0.158803	-0.247838	-0.067862
C120	C	0.174530	0.085496	0.265471
C121	C	-0.492115	-0.515738	-0.401221
C122	C	-0.158781	-0.182405	-0.067887
C123	C	0.174552	0.150928	0.265446
C124	C	-0.434334	-0.489956	-0.354294
C125	C	-0.101001	-0.156622	-0.020961
C126	C	0.232332	0.176711	0.312373
C127	C	-0.376556	-0.529614	-0.307348
C128	C	-0.043222	-0.196280	0.025985
C129	C	0.290111	0.137053	0.359318
C130	C	-0.376573	-0.595046	-0.307328
C131	C	-0.043240	-0.261712	0.026005
C132	C	0.290094	0.071621	0.359339
C133	C	-0.427079	-0.387103	-0.297018
C134	C	-0.093746	-0.053770	0.036316
C135	C	0.239587	0.279563	0.369649
C136	C	-0.427068	-0.321672	-0.297037
C137	C	-0.093735	0.011661	0.036296
C138	C	0.239599	0.344995	0.369629
C139	C	-0.434276	-0.288142	-0.354356
C140	C	-0.100942	0.045191	-0.021023
C141	C	0.232391	0.378525	0.312310
C142	C	-0.441513	-0.320050	-0.411659
C143	C	-0.108180	0.013284	-0.078326
C144	C	0.225154	0.346617	0.255008
C145	C	-0.441530	-0.385482	-0.411639
C146	C	-0.108197	-0.052148	-0.078306
C147	C	0.225136	0.281185	0.255028
C148	C	-0.434309	-0.419006	-0.354311
C149	C	-0.100975	-0.085673	-0.020978
C150	C	0.232358	0.247660	0.312356
C151	C	-0.492022	-0.177543	-0.401329
C152	C	-0.158689	0.155790	-0.067996
C153	C	0.174644	0.489123	0.265338
C154	C	-0.491994	-0.112110	-0.401355
C155	C	-0.158660	0.221223	-0.068021
C156	C	0.174673	0.554557	0.265312
C157	C	-0.376440	-0.125986	-0.307477
C158	C	-0.043106	0.207347	0.025856
C159	C	0.290227	0.540680	0.359189
C160	C	-0.376463	-0.191419	-0.307457
C161	C	-0.043130	0.141915	0.025877
C162	C	0.290203	0.475248	0.359210
C163	C	-0.434259	-0.217193	-0.354382
C164	C	-0.100926	0.116141	-0.021049
C165	C	0.232407	0.449474	0.312284
C166	C	-0.376500	-0.820233	-0.613152
C167	C	-0.043167	-0.486899	-0.279819
C168	C	0.290167	-0.153566	0.053515
C169	C	-0.376483	-0.820233	-0.678586
C170	C	-0.043150	-0.486899	-0.345252
C171	C	0.290183	-0.153566	-0.011919
C172	C	-0.434157	-0.853352	-0.718250
C173	C	-0.100823	-0.520018	-0.384917
C174	C	0.232510	-0.186685	-0.051583
C175	C	-0.491868	-0.886460	-0.692478
C176	C	-0.158534	-0.553126	-0.359145
C177	C	0.174799	-0.219793	-0.025812
C178	C	-0.491889	-0.886454	-0.627047
C179	C	-0.158556	-0.553120	-0.293713
C180	C	0.174778	-0.219787	0.039620
C181	C	-0.441227	-0.908954	-0.822805
C182	C	-0.107894	-0.575621	-0.489471
C183	C	0.225439	-0.242287	-0.156138
C184	C	-0.441200	-0.908962	-0.888234
C185	C	-0.107866	-0.575629	-0.554901
C186	C	0.225467	-0.242295	-0.221568
C187	C	-0.434096	-0.853369	-0.920064
C188	C	-0.100762	-0.520036	-0.586730
C189	C	0.232571	-0.186702	-0.253397
C190	C	-0.427001	-0.797769	-0.886453
C191	C	-0.093667	-0.464436	-0.553120
C192	C	0.239666	-0.131102	-0.219786
C193	C	-0.427022	-0.797763	-0.821021
C194	C	-0.093689	-0.464430	-0.487688
C195	C	0.239644	-0.131096	-0.154355
C196	C	-0.434140	-0.853361	-0.789201
C197	C	-0.100807	-0.520028	-0.455867
C198	C	0.232526	-0.186695	-0.122534
C199	C	-0.376375	-0.820259	-1.016779
C200	C	-0.043042	-0.486926	-0.683446
C201	C	0.290292	-0.153593	-0.350112
C202	C	-0.376364	-0.820257	-1.082214
C203	C	-0.043031	-0.486924	-0.748881
C204	C	0.290302	-0.153591	-0.415548
C205	C	-0.491744	-0.886491	-1.096105
C206	C	-0.158411	-0.553157	-0.762772
C207	C	0.174923	-0.219824	-0.429439
C208	C	-0.491759	-0.886486	-1.030672
C209	C	-0.158426	-0.553153	-0.697338
C210	C	0.174907	-0.219820	-0.364005
C211	C	-0.434070	-0.853372	-0.991012
C212	C	-0.100736	-0.520039	-0.657679
C213	C	0.232597	-0.186706	-0.324345
C214	C	-0.434270	-0.853248	-0.191543
C215	C	-0.100937	-0.519914	0.141790
C216	C	0.232397	-0.186581	0.475124
C217	C	-0.434040	-0.853376	-0.121875
C218	C	-0.100706	-0.520042	0.211459
C219	C	0.232627	-0.186709	0.544792
H220	H	-0.777680	-0.884678	-0.322948
H221	H	-0.444347	-0.551344	0.010385
H222	H	-0.111013	-0.218011	0.343718
H223	H	-0.421210	-0.752501	-0.912366
H224	H	-0.087877	-0.419168	-0.579033
H225	H	0.245457	-0.085834	-0.245699
H226	H	-0.329493	-0.793275	-0.699567
H227	H	0.003841	-0.459942	-0.366234
H228	H	0.337174	-0.126608	-0.032901
H229	H	-0.446972	-0.954235	-0.915595
H230	H	-0.113639	-0.620902	-0.582261
H231	H	0.219694	-0.287569	-0.248928
H232	H	-0.948724	-0.718708	-0.488730
H233	H	-0.615391	-0.385375	-0.155396
H234	H	-0.282058	-0.052041	0.177937
Br235	Br	-0.298013	-0.091004	-0.243795
Br236	Br	0.035320	0.242329	0.089538
Br237	Br	0.368653	0.575662	0.422872
H238	H	-0.539079	-0.198530	-0.439541
H239	H	-0.205745	0.134803	-0.106208
H240	H	0.127588	0.468137	0.227125
H241	H	-0.833505	-0.925520	-0.282200
H242	H	-0.500172	-0.592187	0.051133
H243	H	-0.166838	-0.258853	0.384467
Br244	Br	-0.298210	-0.775290	-0.559331
Br245	Br	0.035123	-0.441957	-0.225998
Br246	Br	0.368456	-0.108624	0.107336
H247	H	-0.777771	-0.739203	-0.468178
H248	H	-0.444437	-0.405869	-0.134845
H249	H	-0.111104	-0.072536	0.198489
H250	H	-0.329509	-0.508618	-0.269141
H251	H	0.003824	-0.175284	0.064192
H252	H	0.337158	0.158049	0.397525
H253	H	-1.090018	-0.741839	-0.465689
H254	H	-0.756685	-0.408506	-0.132355
H255	H	-0.423352	-0.075173	0.200978
H256	H	-0.447380	-0.292751	-0.458334
H257	H	-0.114047	0.040582	-0.125000
H258	H	0.219286	0.373915	0.208333
Br259	Br	-0.570392	-0.058299	-0.465071
Br260	Br	-0.237059	0.275034	-0.131738
Br261	Br	0.096275	0.608367	0.201595
Br262	Br	-0.298060	-0.245232	-0.243746
Br263	Br	0.035273	0.088102	0.089587
Br264	Br	0.368606	0.421435	0.422920
H265	H	-0.539198	-0.602152	-0.439407
H266	H	-0.205864	-0.268818	-0.106073
H267	H	0.127469	0.064515	0.227260
Br268	Br	-0.570147	-0.931401	-0.746308
Br269	Br	-0.236813	-0.598068	-0.412975
Br270	Br	0.096520	-0.264734	-0.079641
H271	H	-0.447421	-0.411459	-0.458297
H272	H	-0.114087	-0.078125	-0.124963
H273	H	0.219246	0.255208	0.208370
H274	H	-0.329381	-0.793293	-1.103191
H275	H	0.003952	-0.459960	-0.769857
H276	H	0.337286	-0.126626	-0.436524
H277	H	-1.089882	-0.967495	-0.240419
H278	H	-0.756548	-0.634162	0.092914
H279	H	-0.423215	-0.300829	0.426247
H280	H	-0.421181	-0.295697	-0.250379
H281	H	-0.087847	0.037636	0.082955
H282	H	0.245486	0.370970	0.416288
Br283	Br	-0.450879	-0.984407	-0.779616
Br284	Br	-0.117546	-0.651073	-0.446283
Br285	Br	0.215787	-0.317740	-0.112949
H286	H	-0.421247	-0.752491	-0.793658
H287	H	-0.087914	-0.419158	-0.460325
H288	H	0.245420	-0.085825	-0.126992
H289	H	-0.538701	-0.913458	-1.128399
H290	H	-0.205368	-0.580125	-0.795066
H291	H	0.127965	-0.246791	-0.461733
H292	H	-0.421206	-0.414399	-0.250338
H293	H	-0.087873	-0.081065	0.082995
H294	H	0.245460	0.252268	0.416329
Br295	Br	-0.893344	-1.012839	-0.195065
Br296	Br	-0.560011	-0.679506	0.138268
Br297	Br	-0.226678	-0.346173	0.471601
Br298	Br	-0.570517	-0.461919	-0.464933
Br299	Br	-0.237184	-0.128585	-0.131599
Br300	Br	0.096149	0.204748	0.201734
H301	H	-1.175452	-0.804338	-0.403353
H302	H	-0.842118	-0.471005	-0.070020
H303	H	-0.508785	-0.137671	0.263313
Br304	Br	-0.298166	-0.648859	-0.243618
Br305	Br	0.035167	-0.315526	0.089716
Br306	Br	0.368501	0.017807	0.423049
Br307	Br	-0.570202	-0.931387	-0.592077
Br308	Br	-0.236869	-0.598054	-0.258744
Br309	Br	0.096464	-0.264721	0.074590
H310	H	-0.538742	-0.913447	-1.009694
H311	H	-0.205409	-0.580114	-0.676361
H312	H	0.127924	-0.246780	-0.343027
Br313	Br	-0.298088	-0.775317	-0.962952
Br314	Br	0.035245	-0.441984	-0.629618
Br315	Br	0.368579	-0.108651	-0.296285
