data_functionalizedCrystal
_audit_creation_method	'MofGen! by Chris Wilmer'
_symmetry_space_group_name_H-M	'P1'
_symmetry_Int_Tables_number	1
_symmetry_cell_setting	triclinic
loop_
_symmetry_equiv_pos_as_xyz
  x,y,z
_cell_length_a	19.805407
_cell_length_b	13.032721
_cell_length_c	19.805399
_cell_angle_alpha	82.844098
_cell_angle_beta	90.019573
_cell_angle_gamma	97.204665
loop_
_atom_site_label
_atom_site_type_symbol
_atom_site_fract_x
_atom_site_fract_y
_atom_site_fract_z
Zn1	Zn	1.000535	-0.416068	0.416943
Zn2	Zn	1.500535	0.083932	0.916943
Zn3	Zn	0.986084	-0.590828	0.318130
Zn4	Zn	1.486084	-0.090828	0.818130
Zn5	Zn	0.887347	-0.416097	0.303770
Zn6	Zn	1.387347	0.083903	0.803770
Zn7	Zn	0.872952	-0.590772	0.431272
Zn8	Zn	1.372952	-0.090772	0.931272
O9	O	0.936729	-0.503441	0.367529
O10	O	1.436729	-0.003441	0.867529
O11	O	1.093333	-0.439261	0.403849
O12	O	1.593333	0.060739	0.903849
O13	O	0.972963	-0.567684	0.221512
O14	O	1.472963	-0.067684	0.721512
O15	O	0.914433	-0.269853	0.306777
O16	O	1.414433	0.230147	0.806777
O17	O	1.082717	-0.567656	0.331251
O18	O	1.582717	-0.067656	0.831251
O19	O	0.997592	-0.269832	0.389925
O20	O	1.497592	0.230168	0.889925
O21	O	0.900421	-0.439310	0.210962
O22	O	1.400421	0.060690	0.710962
O23	O	0.790722	-0.439257	0.320671
O24	O	1.290722	0.060743	0.820671
O25	O	0.889899	-0.567562	0.524085
O26	O	1.389899	-0.067562	1.024085
O27	O	0.780146	-0.567590	0.414346
O28	O	1.280146	-0.067590	0.914346
O29	O	0.983634	-0.439207	0.513558
O30	O	1.483634	0.060793	1.013558
O31	O	0.959005	-0.737060	0.345145
O32	O	1.459005	-0.237060	0.845145
O33	O	0.875887	-0.737019	0.428270
O34	O	1.375887	-0.237019	0.928270
C35	C	0.760875	-0.503421	0.367506
C36	C	1.260875	-0.003421	0.867506
C37	C	0.685642	-0.503438	0.367514
C38	C	1.185642	-0.003438	0.867514
C39	C	0.644800	-0.570361	0.416228
C40	C	1.144800	-0.070361	0.916228
C41	C	0.574112	-0.570363	0.416238
C42	C	1.074112	-0.070363	0.916238
C43	C	0.544265	-0.503446	0.367529
C44	C	1.044265	-0.003446	0.867529
C45	C	0.585113	-0.436515	0.318812
C46	C	1.085113	0.063485	0.818812
C47	C	0.655800	-0.436508	0.318806
C48	C	1.155800	0.063492	0.818806
C49	C	0.300037	-0.436538	0.318836
C50	C	0.800037	0.063462	0.818836
C51	C	0.229344	-0.436551	0.318845
C52	C	0.729344	0.063449	0.818845
C53	C	0.218349	-0.570393	0.416269
C54	C	0.718349	-0.070393	0.916269
C55	C	0.289036	-0.570386	0.416262
C56	C	0.789036	-0.070386	0.916262
C57	C	0.329878	-0.503452	0.367548
C58	C	0.829878	-0.003452	0.867548
C59	C	0.406526	-0.503449	0.367538
C60	C	0.906526	-0.003449	0.867538
C61	C	0.467618	-0.503453	0.367535
C62	C	0.967618	-0.003453	0.867535
C63	C	0.914334	-0.774958	0.389835
C64	C	1.414334	-0.274958	0.889835
C65	C	0.904816	-0.891114	0.399401
C66	C	1.404816	-0.391114	0.899401
C67	C	0.941733	-0.942886	0.362567
C68	C	1.441733	-0.442886	0.862567
C69	C	0.931896	-1.062939	0.372453
C70	C	1.431896	-0.562939	0.872453
C71	C	1.113270	-0.503462	0.367553
C72	C	1.613270	-0.003462	0.867553
C73	C	1.188502	-0.503471	0.367563
C74	C	1.688502	-0.003471	0.867563
C75	C	0.936773	-0.503375	0.544066
C76	C	1.436773	-0.003375	1.044066
C77	C	0.936791	-0.503347	0.619296
C78	C	1.436791	-0.003347	1.119296
C79	C	0.959230	-0.230864	0.345151
C80	C	1.459230	0.269136	0.845151
C81	C	0.968819	-0.114708	0.335614
C82	C	1.468819	0.385292	0.835614
C83	C	0.936731	-0.503431	0.191672
C84	C	1.436731	-0.003431	0.691672
C85	C	0.936868	-0.503165	0.116419
C86	C	1.436868	-0.003165	0.616419
C87	C	0.985600	-0.436510	0.649160
C88	C	1.485600	0.063490	1.149160
C89	C	0.985609	-0.436479	0.719846
C90	C	1.485609	0.063521	1.219846
C91	C	0.936813	-0.503293	0.760667
C92	C	1.436813	-0.003293	1.260667
C93	C	0.887999	-0.570133	0.730799
C94	C	1.387999	-0.070133	1.230799
C95	C	0.887987	-0.570157	0.660114
C96	C	1.387987	-0.070157	1.160114
C97	C	0.888045	-0.570036	1.015865
C98	C	1.388045	-0.070036	1.515865
C99	C	0.888062	-0.570008	1.086555
C100	C	1.388062	-0.070008	1.586555
C101	C	0.985668	-0.436358	1.075596
C102	C	1.485668	0.063642	1.575596
C103	C	0.985656	-0.436382	1.004911
C104	C	1.485656	0.063618	1.504911
C105	C	0.936840	-0.503218	0.975049
C106	C	1.436840	-0.003218	1.475049
C107	C	0.936830	-0.503249	0.898403
C108	C	1.436830	-0.003249	1.398403
C109	C	0.936825	-0.503268	0.837312
C110	C	1.436825	-0.003268	1.337312
H111	H	0.669095	-0.624857	0.455891
H112	H	1.169095	-0.124857	0.955891
F113	F	1.037540	-0.365402	0.605720
F114	F	1.537540	0.134598	1.105720
F115	F	0.530648	-0.641592	0.468087
F116	F	1.030648	-0.141592	0.968087
F117	F	0.343495	-0.365297	0.266991
F118	F	0.843495	0.134703	0.766991
F119	F	0.553347	-0.365289	0.266976
F120	F	1.053347	0.134711	0.766976
H121	H	0.865929	-0.935669	0.438256
H122	H	1.365929	-0.435669	0.938256
H123	H	1.007714	-1.070157	0.296761
H124	H	1.507714	-0.570157	0.796761
H125	H	1.025356	-0.382056	0.744157
H126	H	1.525356	0.117944	1.244157
F127	F	1.037594	-0.365274	0.961469
F128	F	1.537594	0.134726	1.461469
F129	F	0.992570	-0.884654	0.311786
F130	F	1.492570	-0.384654	0.811786
F131	F	0.881064	-1.121166	0.423243
F132	F	1.381064	-0.621166	0.923243
H133	H	0.313333	-0.624881	0.455924
H134	H	0.813333	-0.124881	0.955924
H135	H	0.185087	-0.624890	0.455937
H136	H	0.685087	-0.124890	0.955937
F137	F	0.699267	-0.365277	0.266958
F138	F	1.199267	0.134723	0.766958
F139	F	0.836063	-0.641237	0.774246
F140	F	1.336063	-0.141237	1.274246
F141	F	1.037620	-0.365221	1.107383
F142	F	1.537620	0.134779	1.607383
H143	H	0.848322	-0.624418	1.119791
H144	H	1.348322	-0.124418	1.619791
H145	H	0.848305	-0.624473	0.991561
H146	H	1.348305	-0.124473	1.491561
F147	F	0.197582	-0.365324	0.267001
F148	F	0.697582	0.134676	0.767001
H149	H	0.848236	-0.624573	0.635800
H150	H	1.348236	-0.124573	1.135800
