data_functionalizedCrystal
_audit_creation_method	'MofGen! by Chris Wilmer'
_symmetry_space_group_name_H-M	'P1'
_symmetry_Int_Tables_number	1
_symmetry_cell_setting	triclinic
loop_
_symmetry_equiv_pos_as_xyz
  x,y,z
_cell_length_a	21.295420
_cell_length_b	21.295417
_cell_length_c	12.759393
_cell_angle_alpha	89.962952
_cell_angle_beta	89.977103
_cell_angle_gamma	90.027953
loop_
_atom_site_label
_atom_site_type_symbol
_atom_site_fract_x
_atom_site_fract_y
_atom_site_fract_z
Zn1	Zn	0.962348	-0.250608	-0.594027
Zn2	Zn	1.462348	0.249392	-0.094027
Zn3	Zn	0.962255	-0.355890	-0.418327
Zn4	Zn	1.462255	0.144110	0.081673
Zn5	Zn	0.857074	-0.250636	-0.418356
Zn6	Zn	1.357074	0.249364	0.081644
Zn7	Zn	0.857042	-0.355840	-0.593958
Zn8	Zn	1.357042	0.144160	-0.093958
O9	O	0.909680	-0.303244	-0.506167
O10	O	1.409680	0.196756	-0.006167
O11	O	1.050425	-0.264583	-0.570737
O12	O	1.550425	0.235417	-0.070737
O13	O	0.948277	-0.341960	-0.271310
O14	O	1.448277	0.158040	0.228690
O15	O	0.871091	-0.162543	-0.441700
O16	O	1.371091	0.337457	0.058300
O17	O	1.050357	-0.341934	-0.441651
O18	O	1.550357	0.158066	0.058349
O19	O	0.948435	-0.162522	-0.570765
O20	O	1.448435	0.337478	-0.070765
O21	O	0.871001	-0.264630	-0.271331
O22	O	1.371001	0.235370	0.228669
O23	O	0.768981	-0.264582	-0.441634
O24	O	1.268981	0.235418	0.058366
O25	O	0.871036	-0.341848	-0.740989
O26	O	1.371036	0.158152	-0.240989
O27	O	0.768957	-0.341875	-0.570648
O28	O	1.268957	0.158125	-0.070648
O29	O	0.948404	-0.264535	-0.741039
O30	O	1.448404	0.235465	-0.241039
O31	O	0.948246	-0.443973	-0.441584
O32	O	1.448246	0.056027	0.058416
O33	O	0.870946	-0.443936	-0.570620
O34	O	1.370946	0.056064	-0.070620
C35	C	0.746128	-0.303226	-0.506137
C36	C	1.246128	0.196774	-0.006137
C37	C	0.676160	-0.303234	-0.506149
C38	C	1.176160	0.196766	-0.006149
C39	C	0.176706	-0.343564	-0.573280
C40	C	0.676706	0.156436	-0.073280
C41	C	0.242449	-0.343564	-0.573269
C42	C	0.742449	0.156436	-0.073269
C43	C	0.275321	-0.303258	-0.506200
C44	C	0.775321	0.196742	-0.006200
C45	C	0.242445	-0.262959	-0.439119
C46	C	0.742445	0.237041	0.060881
C47	C	0.176703	-0.262965	-0.439124
C48	C	0.676703	0.237035	0.060876
N49	N	0.378561	-0.248142	-0.498300
N50	N	0.878561	0.251858	0.001700
N51	N	0.441012	-0.248138	-0.498301
N52	N	0.941012	0.251862	0.001699
C53	C	0.473395	-0.303240	-0.506178
C54	C	0.973395	0.196760	-0.006178
N55	N	0.440968	-0.358346	-0.514075
N56	N	0.940968	0.141654	-0.014075
N57	N	0.378511	-0.358349	-0.514079
N58	N	0.878511	0.141651	-0.014079
C59	C	0.346606	-0.303248	-0.506186
C60	C	0.846606	0.196752	-0.006186
C61	C	0.577549	-0.343539	-0.573238
C62	C	1.077549	0.156461	-0.073238
C63	C	0.643293	-0.343541	-0.573219
C64	C	1.143293	0.156459	-0.073219
C65	C	0.643287	-0.262930	-0.439075
C66	C	1.143287	0.237070	0.060925
C67	C	0.577545	-0.262934	-0.439088
C68	C	1.077545	0.237066	0.060912
C69	C	0.544680	-0.303238	-0.506175
C70	C	1.044680	0.196762	-0.006175
C71	C	0.909599	-0.466795	-0.506114
C72	C	1.409599	0.033205	-0.006114
C73	C	0.909623	-0.536763	-0.506126
C74	C	1.409623	-0.036763	-0.006126
C75	C	0.949873	-0.569562	-0.573378
C76	C	1.449873	-0.069562	-0.073378
C77	C	0.949895	-0.635305	-0.573404
C78	C	1.449895	-0.135305	-0.073404
C79	C	0.909674	-0.668246	-0.506160
C80	C	1.409674	-0.168246	-0.006160
C81	C	0.869416	-0.635439	-0.438903
C82	C	1.369416	-0.135439	0.061097
C83	C	0.869390	-0.569698	-0.438886
C84	C	1.369390	-0.069698	0.061114
N85	N	0.904916	-0.771514	-0.414213
N86	N	1.404916	-0.271514	0.085787
N87	N	0.904944	-0.833965	-0.414231
N88	N	1.404944	-0.333965	0.085769
C89	C	0.909747	-0.866320	-0.506207
C90	C	1.409747	-0.366320	-0.006207
N91	N	0.914534	-0.833865	-0.598165
N92	N	1.414534	-0.333865	-0.098165
N93	N	0.914509	-0.771408	-0.598145
N94	N	1.414509	-0.271408	-0.098145
C95	C	0.909697	-0.739531	-0.506170
C96	C	1.409697	-0.239531	-0.006170
C97	C	0.950023	-0.970405	-0.573493
C98	C	1.450023	-0.470405	-0.073493
C99	C	0.950041	-1.036149	-0.573520
C100	C	1.450041	-0.536149	-0.073520
C101	C	0.869566	-1.036281	-0.439010
C102	C	1.369566	-0.536281	0.060990
C103	C	0.869545	-0.970539	-0.438991
C104	C	1.369545	-0.470539	0.061009
C105	C	0.909777	-0.937605	-0.506231
C106	C	1.409777	-0.437605	-0.006231
C107	C	1.073870	-0.303261	-0.506198
C108	C	1.573870	0.196739	-0.006198
C109	C	1.143838	-0.303269	-0.506211
C110	C	1.643838	0.196731	-0.006211
C111	C	0.909727	-0.303183	-0.780201
C112	C	1.409727	0.196817	-0.280201
C113	C	0.909747	-0.303157	-0.896977
C114	C	1.409747	0.196843	-0.396977
C115	C	0.909777	-0.139053	-0.506244
C116	C	1.409777	0.360947	-0.006244
C117	C	0.909819	-0.069085	-0.506276
C118	C	1.409819	0.430915	-0.006276
C119	C	0.950035	-0.262894	-0.951867
C120	C	1.450035	0.237106	-0.451867
C121	C	0.950046	-0.262867	-1.061592
C122	C	1.450046	0.237133	-0.561592
C123	C	0.869478	-0.343372	-1.061526
C124	C	1.369478	0.156628	-0.561526
C125	C	0.869465	-0.343396	-0.951804
C126	C	1.369465	0.156604	-0.451804
C127	C	0.972601	-0.188598	-1.211585
C128	C	1.472601	0.311402	-0.711585
C129	C	1.012899	-0.148340	-1.266479
C130	C	1.512899	0.351660	-0.766479
C131	C	1.074324	-0.138690	-1.230893
C132	C	1.574324	0.361310	-0.730893
C133	C	1.095462	-0.169308	-1.140415
C134	C	1.595462	0.330692	-0.640415
C135	C	1.055167	-0.209571	-1.085527
C136	C	1.555167	0.290429	-0.585527
C137	C	0.993734	-0.219209	-1.121111
C138	C	1.493734	0.280791	-0.621111
C139	C	0.846916	-0.417665	-0.801808
C140	C	1.346916	0.082335	-0.301808
C141	C	0.806624	-0.457932	-0.746918
C142	C	1.306624	0.042068	-0.246918
C143	C	0.745198	-0.467587	-0.782502
C144	C	1.245198	0.032413	-0.282502
C145	C	0.724062	-0.436980	-0.872984
C146	C	1.224062	0.063020	-0.372984
C147	C	0.764354	-0.396714	-0.927874
C148	C	1.264354	0.103286	-0.427874
C149	C	0.825779	-0.387057	-0.892282
C150	C	1.325779	0.112943	-0.392282
C151	C	0.909669	-0.303258	-0.233200
C152	C	1.409669	0.196742	0.266800
C153	C	0.909771	-0.303107	-0.116424
C154	C	1.409771	0.196893	0.383576
H155	H	0.550783	-0.230119	-0.384477
H156	H	1.050783	0.269881	0.115523
F157	F	0.658687	-0.447258	-0.910861
F158	F	1.158687	0.052742	-0.410861
F159	F	1.160843	-0.159044	-1.102557
F160	F	1.660843	0.340956	-0.602557
F161	F	0.542569	-0.386436	-0.644632
F162	F	1.042569	0.113564	-0.144632
H163	H	0.670053	-0.376359	-0.627832
H164	H	1.170053	0.123641	-0.127832
H165	H	0.836772	-0.943832	-0.384224
H166	H	1.336772	-0.443832	0.115776
F167	F	0.702321	-0.510454	-0.724091
F168	F	1.202321	-0.010454	-0.224091
F169	F	0.992905	-0.220067	-0.893521
F170	F	1.492905	0.279933	-0.393521
H171	H	1.072379	-0.234502	-1.011864
H172	H	1.572379	0.265498	-0.511864
H173	H	0.670051	-0.230113	-0.384463
H174	H	1.170051	0.269887	0.115537
F175	F	1.117211	-0.095846	-1.289320
F176	F	1.617211	0.404154	-0.789320
F177	F	0.829123	-0.490512	-0.650625
F178	F	1.329123	0.009488	-0.150625
H179	H	0.896932	-0.409802	-0.772822
H180	H	1.396932	0.090198	-0.272822
H181	H	0.269213	-0.230142	-0.384510
H182	H	0.769213	0.269858	0.115490
F183	F	0.826612	-0.386196	-1.119886
F184	F	1.326612	0.113804	-0.619886
H185	H	0.995683	-0.123411	-1.340146
H186	H	1.495683	0.376589	-0.840146
F187	F	0.907223	-0.198857	-1.249457
F188	F	1.407223	0.301143	-0.749457
F189	F	0.992688	-0.534515	-0.644947
F190	F	1.492688	-0.034515	-0.144947
H191	H	0.982666	-0.662015	-0.628181
H192	H	1.482666	-0.162015	-0.128181
F193	F	0.826607	-0.670498	-0.367341
F194	F	1.326607	-0.170498	0.132659
F195	F	0.741857	-0.364139	-1.024173
F196	F	1.241857	0.135861	-0.524173
H197	H	0.149951	-0.376385	-0.627903
H198	H	0.649951	0.123615	-0.127903
H199	H	0.269215	-0.376378	-0.627887
H200	H	0.769215	0.123622	-0.127887
H201	H	0.149942	-0.230149	-0.384509
H202	H	0.649942	0.269851	0.115491
F203	F	0.826548	-0.534789	-0.367305
F204	F	1.326548	-0.034789	0.132695
F205	F	0.992839	-0.935351	-0.645058
F206	F	1.492839	-0.435351	-0.145058
H207	H	0.982817	-1.062852	-0.628290
H208	H	1.482817	-0.562852	-0.128290
H209	H	0.836813	-1.063101	-0.384264
H210	H	1.336813	-0.563101	0.115736
