data_functionalizedCrystal
_audit_creation_method	'MofGen! by Chris Wilmer'
_symmetry_space_group_name_H-M	'P1'
_symmetry_Int_Tables_number	1
_symmetry_cell_setting	triclinic
loop_
_symmetry_equiv_pos_as_xyz
  x,y,z
_cell_length_a	14.044220
_cell_length_b	16.109301
_cell_length_c	15.186229
_cell_angle_alpha	90.005167
_cell_angle_beta	89.998463
_cell_angle_gamma	88.325179
loop_
_atom_site_label
_atom_site_type_symbol
_atom_site_fract_x
_atom_site_fract_y
_atom_site_fract_z
O1	O	-1.257643	-0.200436	-0.073140
O2	O	-0.757643	0.299564	0.426860
O3	O	-0.981676	-0.193203	-0.073163
O4	O	-0.481676	0.306797	0.426837
O5	O	-1.127241	-0.076352	-0.073142
O6	O	-0.627241	0.423648	0.426858
O7	O	-1.112079	-0.317286	-0.073161
O8	O	-0.612079	0.182714	0.426839
O9	O	-1.127231	-0.076350	0.073315
O10	O	-0.627231	0.423650	0.573315
O11	O	-0.981667	-0.193200	0.073295
O12	O	-0.481667	0.306800	0.573295
O13	O	-1.257634	-0.200433	0.073317
O14	O	-0.757634	0.299567	0.573317
Zn15	Zn	-1.119649	-0.196816	0.096559
Zn16	Zn	-0.619649	0.303184	0.596559
Zn17	Zn	-1.119661	-0.196820	-0.096405
Zn18	Zn	-0.619661	0.303180	0.403595
O19	O	-1.112069	-0.317284	0.073296
O20	O	-0.612069	0.182716	0.573296
C21	C	-0.946358	-0.190036	0.000063
C22	C	-0.446358	0.309964	0.500063
C23	C	-0.841135	-0.180592	0.000055
C24	C	-0.341135	0.319408	0.500055
C25	C	-1.292952	-0.203600	0.000089
C26	C	-0.792952	0.296400	0.500089
C27	C	-1.398175	-0.213044	0.000091
C28	C	-0.898175	0.286956	0.500091
C29	C	-0.648479	-0.163326	0.000074
C30	C	-0.148479	0.336674	0.500074
C31	C	-0.590825	-0.230306	0.000072
C32	C	-0.090825	0.269694	0.500072
C33	C	-0.483625	-0.220699	0.000083
C34	C	0.016375	0.279301	0.500083
C35	C	-0.755690	-0.172932	0.000064
C36	C	-0.255690	0.327068	0.500064
C37	C	-1.126622	-0.045330	0.000087
C38	C	-0.626622	0.454670	0.500087
C39	C	-1.124781	0.047102	0.000088
C40	C	-0.624781	0.547102	0.500088
C41	C	-1.112688	-0.348306	0.000065
C42	C	-0.612688	0.151694	0.500065
C43	C	-1.114529	-0.440738	0.000058
C44	C	-0.614529	0.059262	0.500058
N45	N	-1.119647	-0.196814	0.228252
N46	N	-0.619647	0.303186	0.728252
C47	C	-1.206874	0.263266	0.000081
C48	C	-0.706874	0.763266	0.500081
C49	C	-1.205137	0.350116	0.000073
C50	C	-0.705137	0.850116	0.500073
C51	C	-1.032429	0.343091	0.000063
C52	C	-0.532429	0.843091	0.500063
C53	C	-1.034168	0.256243	0.000064
C54	C	-0.534168	0.756243	0.500064
C55	C	-1.121393	0.216333	0.000078
C56	C	-0.621393	0.716333	0.500078
C57	C	-1.117917	0.390031	0.000069
C58	C	-0.617917	0.890031	0.500069
C59	C	-1.116032	0.484197	0.000061
C60	C	-0.616032	0.984197	0.500061
C61	C	-1.123278	0.122161	0.000084
C62	C	-0.623278	0.622161	0.500084
N63	N	-1.119671	-0.196816	-0.228097
N64	N	-0.619671	0.303184	0.271903
C65	C	-1.184125	-0.145093	0.453984
C66	C	-0.684125	0.354907	0.953984
C67	C	-1.184128	-0.145092	0.546173
C68	C	-0.684128	0.354908	1.046173
C69	C	-1.055186	-0.248539	0.546164
C70	C	-0.555186	0.251461	1.046164
C71	C	-1.055179	-0.248536	0.453976
C72	C	-0.555179	0.251464	0.953976
C73	C	-1.119654	-0.196814	0.407888
C74	C	-0.619654	0.303186	0.907888
C75	C	-1.119664	-0.196816	0.592266
C76	C	-0.619664	0.303184	1.092266
C77	C	-1.119666	-0.196814	0.692222
C78	C	-0.619666	0.303186	1.192222
C79	C	-1.119650	-0.196814	0.307926
C80	C	-0.619650	0.303186	0.807926
H81	H	-0.621976	-0.294863	0.000063
H82	H	-0.121976	0.205137	0.500063
H83	H	-0.961413	0.375597	0.000054
H84	H	-0.461413	0.875597	0.500054
C85	C	-1.311587	-0.042848	0.536916
C86	C	-0.811587	0.457152	1.036916
C87	C	-1.255000	-0.088242	0.596841
C88	C	-0.755000	0.411758	1.096841
H89	H	-1.355345	-0.007754	0.568198
H90	H	-0.855345	0.492246	1.068198
H91	H	-1.272144	-0.009997	0.500966
H92	H	-0.772144	0.490003	1.000966
H93	H	-1.345662	-0.080012	0.500953
H94	H	-0.845662	0.419988	1.000953
H95	H	-1.220920	-0.051078	0.632800
H96	H	-0.720920	0.448922	1.132800
H97	H	-1.294449	-0.121096	0.632806
H98	H	-0.794449	0.378904	1.132806
H99	H	-0.964554	0.218029	0.000059
H100	H	-0.464554	0.718029	0.500059
C101	C	-0.506834	-0.083413	0.000078
C102	C	-0.006834	0.416587	0.500078
C103	C	-0.606433	-0.076180	0.000075
C104	C	-0.106433	0.423820	0.500075
H105	H	-0.480871	-0.029612	0.000071
H106	H	0.019129	0.470388	0.500071
H107	H	-0.486046	-0.112751	0.051150
H108	H	0.013954	0.387249	0.551150
H109	H	-0.486040	-0.112772	-0.050996
H110	H	0.013960	0.387228	0.449004
H111	H	-0.627228	-0.046826	0.051153
H112	H	-0.127228	0.453174	0.551153
H113	H	-0.627230	-0.046830	-0.051002
H114	H	-0.127230	0.453170	0.448998
C115	C	-1.377412	0.278937	0.000074
C116	C	-0.877412	0.778937	0.500074
C117	C	-1.302750	0.219396	0.000080
C118	C	-0.802750	0.719396	0.500080
H119	H	-1.436602	0.251853	0.000064
H120	H	-0.936602	0.751853	0.500064
H121	H	-1.373146	0.312665	0.051145
H122	H	-0.873146	0.812665	0.551145
H123	H	-1.373129	0.312662	-0.051002
H124	H	-0.873129	0.812662	0.448998
H125	H	-1.307030	0.185674	0.051159
H126	H	-0.807030	0.685674	0.551159
H127	H	-1.307018	0.185653	-0.050996
H128	H	-0.807018	0.685653	0.449004
C129	C	-1.204664	-0.033440	0.350373
C130	C	-0.704664	0.466560	0.850373
C131	C	-1.254963	-0.088195	0.403344
C132	C	-0.754963	0.411805	0.903344
H133	H	-1.248392	0.001697	0.319116
H134	H	-0.748392	0.501697	0.819116
H135	H	-1.165205	-0.000633	0.386359
H136	H	-0.665205	0.499367	0.886359
H137	H	-1.166296	-0.064253	0.309709
H138	H	-0.666296	0.435747	0.809709
H139	H	-1.293326	-0.057382	0.444013
H140	H	-0.793326	0.442618	0.944013
H141	H	-1.294438	-0.121005	0.367355
H142	H	-0.794438	0.378995	0.867355
H143	H	-1.002675	-0.290653	0.416443
H144	H	-0.502675	0.209347	0.916443
C145	C	-1.303383	0.451839	-0.075217
C146	C	-0.803383	0.951839	0.424783
C147	C	-1.299102	0.401703	0.000076
C148	C	-0.799102	0.901703	0.500076
H149	H	-1.361400	0.483681	-0.075218
H150	H	-0.861400	0.983681	0.424782
H151	H	-1.251199	0.488038	-0.075216
H152	H	-0.751199	0.988038	0.424784
H153	H	-1.300471	0.417795	-0.126281
H154	H	-0.800471	0.917795	0.373719
H155	H	-1.302008	0.435747	0.051140
H156	H	-0.802008	0.935747	0.551140
H157	H	-1.351301	0.365500	0.000083
H158	H	-0.851301	0.865500	0.500083
C159	C	-0.997951	-0.294484	0.687479
C160	C	-0.497951	0.205516	1.187479
C161	C	-0.984327	-0.305398	0.596827
C162	C	-0.484327	0.194602	1.096827
H163	H	-0.954209	-0.329594	0.718753
H164	H	-0.454209	0.170406	1.218753
H165	H	-0.987671	-0.238237	0.702592
H166	H	-0.487671	0.261763	1.202592
H167	H	-1.061210	-0.308236	0.702571
H168	H	-0.561210	0.191764	1.202571
H169	H	-0.921070	-0.291641	0.581734
H170	H	-0.421070	0.208359	1.081734
H171	H	-0.994599	-0.361658	0.581708
H172	H	-0.494599	0.138342	1.081708
