data_functionalizedCrystal
_audit_creation_method	'MofGen! by Chris Wilmer'
_symmetry_space_group_name_H-M	'P1'
_symmetry_Int_Tables_number	1
_symmetry_cell_setting	triclinic
loop_
_symmetry_equiv_pos_as_xyz
  x,y,z
_cell_length_a	18.215407
_cell_length_b	16.959454
_cell_length_c	16.959447
_cell_angle_alpha	89.973264
_cell_angle_beta	89.984408
_cell_angle_gamma	90.020523
loop_
_atom_site_label
_atom_site_type_symbol
_atom_site_fract_x
_atom_site_fract_y
_atom_site_fract_z
Zn1	Zn	1.125066	-0.314656	-0.446955
Zn2	Zn	1.458399	0.018677	-0.113622
Zn3	Zn	1.791732	0.352010	0.219711
Zn4	Zn	1.124994	-0.446849	-0.314785
Zn5	Zn	1.458327	-0.113516	0.018548
Zn6	Zn	1.791660	0.219818	0.351882
Zn7	Zn	1.002007	-0.314689	-0.314790
Zn8	Zn	1.335341	0.018644	0.018544
Zn9	Zn	1.668674	0.351977	0.351877
Zn10	Zn	1.001975	-0.446798	-0.446921
Zn11	Zn	1.335308	-0.113465	-0.113587
Zn12	Zn	1.668641	0.219869	0.219746
O13	O	1.063510	-0.380748	-0.380863
O14	O	1.396844	-0.047415	-0.047529
O15	O	1.730177	0.285918	0.285804
O16	O	1.228040	-0.332200	-0.429435
O17	O	1.561374	0.001134	-0.096102
O18	O	1.894707	0.334467	0.237232
O19	O	1.108663	-0.429353	-0.204175
O20	O	1.441996	-0.096019	0.129159
O21	O	1.775329	0.237314	0.462492
O22	O	1.018375	-0.204074	-0.332338
O23	O	1.351709	0.129259	0.000995
O24	O	1.685042	0.462593	0.334328
O25	O	1.227987	-0.429321	-0.332330
O26	O	1.561321	-0.095988	0.001003
O27	O	1.894654	0.237346	0.334337
O28	O	1.108786	-0.204050	-0.429440
O29	O	1.442119	0.129283	-0.096106
O30	O	1.775452	0.462617	0.237227
O31	O	1.018305	-0.332256	-0.204178
O32	O	1.351639	0.001078	0.129155
O33	O	1.684972	0.334411	0.462488
O34	O	0.899019	-0.332206	-0.332305
O35	O	1.232352	0.001127	0.001029
O36	O	1.565685	0.334460	0.334362
O37	O	1.018319	-0.429234	-0.557536
O38	O	1.351653	-0.095901	-0.224203
O39	O	1.684986	0.237433	0.109131
O40	O	0.898995	-0.429266	-0.429381
O41	O	1.232328	-0.095933	-0.096047
O42	O	1.565661	0.237401	0.237286
O43	O	1.108754	-0.332150	-0.557562
O44	O	1.442087	0.001183	-0.224228
O45	O	1.775421	0.334516	0.109105
O46	O	1.108631	-0.557453	-0.332296
O47	O	1.441964	-0.224120	0.001037
O48	O	1.775298	0.109214	0.334370
O49	O	1.018249	-0.557416	-0.429376
O50	O	1.351583	-0.224082	-0.096043
O51	O	1.684916	0.109251	0.237291
C52	C	0.872304	-0.380735	-0.380840
C53	C	1.205637	-0.047401	-0.047507
C54	C	1.538971	0.285932	0.285827
C55	C	0.790505	-0.380748	-0.380849
C56	C	1.123839	-0.047415	-0.047516
C57	C	1.457172	0.285919	0.285818
C58	C	0.602318	-0.431366	-0.431333
C59	C	0.935651	-0.098033	-0.098000
C60	C	1.268985	0.235300	0.235334
C61	C	0.525459	-0.431369	-0.431343
C62	C	0.858793	-0.098035	-0.098010
C63	C	1.192126	0.235298	0.235324
C64	C	0.525455	-0.330144	-0.330409
C65	C	0.858788	0.003189	0.002924
C66	C	1.192121	0.336522	0.336257
C67	C	0.602312	-0.330138	-0.330404
C68	C	0.935645	0.003195	0.002929
C69	C	1.268979	0.336528	0.336262
C70	C	0.640742	-0.380754	-0.380865
C71	C	0.974075	-0.047421	-0.047531
C72	C	1.307408	0.285913	0.285802
C73	C	0.487026	-0.380762	-0.380880
C74	C	0.820359	-0.047429	-0.047547
C75	C	1.153692	0.285904	0.285787
C76	C	0.403692	-0.380765	-0.380890
C77	C	0.737025	-0.047431	-0.047557
C78	C	1.070359	0.285902	0.285776
C79	C	0.724081	-0.380751	-0.380856
C80	C	1.057414	-0.047417	-0.047522
C81	C	1.390747	0.285916	0.285811
C82	C	1.063449	-0.586114	-0.380849
C83	C	1.396782	-0.252781	-0.047516
C84	C	1.730115	0.080552	0.285818
C85	C	1.063490	-0.673971	-0.380870
C86	C	1.396823	-0.340638	-0.047536
C87	C	1.730156	-0.007304	0.285797
C88	C	1.016517	-1.045457	-0.431406
C89	C	1.349850	-0.712124	-0.098073
C90	C	1.683184	-0.378790	0.235260
C91	C	1.110709	-1.045436	-0.330399
C92	C	1.444042	-0.712103	0.002934
C93	C	1.777375	-0.378769	0.336267
C94	C	1.110683	-0.962890	-0.330392
C95	C	1.444016	-0.629557	0.002941
C96	C	1.777350	-0.296224	0.336275
C97	C	1.063573	-0.921624	-0.380892
C98	C	1.396906	-0.588291	-0.047559
C99	C	1.730239	-0.254957	0.285775
C100	C	1.016488	-0.962904	-0.431399
C101	C	1.349822	-0.629570	-0.098066
C102	C	1.683155	-0.296237	0.235268
C103	C	1.157761	-0.921605	-0.279880
C104	C	1.491095	-0.588271	0.053453
C105	C	1.824428	-0.254938	0.386787
C106	C	1.157737	-0.839054	-0.279870
C107	C	1.491070	-0.505720	0.053463
C108	C	1.824404	-0.172387	0.386797
C109	C	1.110630	-0.797786	-0.330375
C110	C	1.443963	-0.464452	0.002959
C111	C	1.777297	-0.131119	0.336292
C112	C	1.063544	-0.839070	-0.380884
C113	C	1.396877	-0.505737	-0.047551
C114	C	1.730211	-0.172404	0.285782
C115	C	1.016434	-0.797804	-0.431384
C116	C	1.349767	-0.464471	-0.098051
C117	C	1.683100	-0.131137	0.235282
C118	C	0.969351	-0.839087	-0.481899
C119	C	1.302684	-0.505754	-0.148566
C120	C	1.636018	-0.172421	0.184768
C121	C	0.969381	-0.921636	-0.481904
C122	C	1.302714	-0.588302	-0.148570
C123	C	1.636048	-0.254969	0.184763
C124	C	1.110600	-0.715237	-0.330370
C125	C	1.443933	-0.381904	0.002963
C126	C	1.777267	-0.048571	0.336297
C127	C	1.016405	-0.715251	-0.431377
C128	C	1.349738	-0.381917	-0.098044
C129	C	1.683072	-0.048584	0.235290
C130	C	1.255463	-0.380762	-0.380886
C131	C	1.588797	-0.047429	-0.047552
C132	C	1.922130	0.285904	0.285781
C133	C	1.337262	-0.380768	-0.380896
C134	C	1.670595	-0.047435	-0.047562
C135	C	2.003929	0.285898	0.285771
C136	C	1.063541	-0.380683	-0.587031
C137	C	1.396874	-0.047349	-0.253698
C138	C	1.730208	0.285984	0.079636
C139	C	1.063554	-0.380655	-0.674888
C140	C	1.396887	-0.047322	-0.341554
C141	C	1.730221	0.286012	-0.008221
C142	C	1.063592	-0.174580	-0.380893
C143	C	1.396926	0.158753	-0.047560
C144	C	1.730259	0.492087	0.285773
C145	C	1.063627	-0.086723	-0.380907
C146	C	1.396961	0.246610	-0.047573
C147	C	1.730294	0.579943	0.285760
C148	C	1.016557	-0.431118	-1.046353
C149	C	1.349890	-0.097785	-0.713019
C150	C	1.683223	0.235548	-0.379686
C151	C	1.110727	-0.330025	-1.046374
C152	C	1.444060	0.003309	-0.713041
C153	C	1.777394	0.336642	-0.379707
C154	C	1.110708	-0.330041	-0.963828
C155	C	1.444041	0.003292	-0.630495
C156	C	1.777374	0.336625	-0.297162
C157	C	1.063613	-0.380598	-0.922541
C158	C	1.396946	-0.047265	-0.589207
C159	C	1.730279	0.286068	-0.255874
C160	C	1.016537	-0.431138	-0.963799
C161	C	1.349871	-0.097805	-0.630466
C162	C	1.683204	0.235528	-0.297132
C163	C	1.157787	-0.279508	-0.922564
C164	C	1.491121	0.053826	-0.589230
C165	C	1.824454	0.387159	-0.255897
C166	C	1.157770	-0.279523	-0.840013
C167	C	1.491103	0.053810	-0.506679
C168	C	1.824437	0.387144	-0.173346
C169	C	1.110671	-0.330077	-0.798724
C170	C	1.444004	0.003257	-0.465390
C171	C	1.777338	0.336590	-0.132057
C172	C	1.063593	-0.380618	-0.839987
C173	C	1.396926	-0.047285	-0.506654
C174	C	1.730260	0.286048	-0.173320
C175	C	1.016498	-0.431175	-0.798699
C176	C	1.349832	-0.097842	-0.465366
C177	C	1.683165	0.235492	-0.132033
C178	C	0.969416	-0.481713	-0.839961
C179	C	1.302749	-0.148380	-0.506628
C180	C	1.636083	0.184953	-0.173295
C181	C	0.969438	-0.481692	-0.922510
C182	C	1.302771	-0.148359	-0.589177
C183	C	1.636105	0.184975	-0.255843
C184	C	1.110649	-0.330098	-0.716175
C185	C	1.443982	0.003235	-0.382842
C186	C	1.777316	0.336569	-0.049508
C187	C	1.016479	-0.431195	-0.716146
C188	C	1.349812	-0.097862	-0.382813
C189	C	1.683145	0.235472	-0.049479
C190	C	1.063522	-0.380756	-0.175496
C191	C	1.396856	-0.047423	0.157837
C192	C	1.730189	0.285910	0.491170
C193	C	1.063652	-0.380562	-0.087640
C194	C	1.396985	-0.047228	0.245693
C195	C	1.730318	0.286105	0.579026
H196	H	0.494156	-0.288936	-0.289325
H197	H	0.827489	0.044397	0.044008
H198	H	1.160823	0.377730	0.377342
H199	H	0.978045	-0.681657	-0.472503
H200	H	1.311378	-0.348323	-0.139170
H201	H	1.644711	-0.014990	0.194163
O202	O	0.643764	-0.275559	-0.275956
O203	O	0.977097	0.057774	0.057377
O204	O	1.310430	0.391108	0.390710
H205	H	0.604130	-0.240376	-0.240856
H206	H	0.937464	0.092957	0.092477
H207	H	1.270797	0.426290	0.425810
H208	H	1.196075	-0.805446	-0.238740
H209	H	1.529408	-0.472113	0.094594
H210	H	1.862741	-0.138779	0.427927
O211	O	1.161391	-0.670714	-0.275907
O212	O	1.494724	-0.337381	0.057427
O213	O	1.828057	-0.004047	0.390760
H214	H	1.153461	-0.606380	-0.284388
H215	H	1.486794	-0.273046	0.048945
H216	H	1.820127	0.060287	0.382279
O217	O	0.965777	-0.485625	-1.090852
O218	O	1.299111	-0.152292	-0.757519
O219	O	1.632444	0.181042	-0.424185
H220	H	0.908022	-0.472059	-1.075008
H221	H	1.241356	-0.138726	-0.741675
H222	H	1.574689	0.194607	-0.408341
H223	H	0.930990	-0.805479	-0.523013
H224	H	1.264323	-0.472145	-0.189679
H225	H	1.597657	-0.138812	0.143654
O226	O	0.918591	-0.966168	-0.536366
O227	O	1.251924	-0.632834	-0.203033
O228	O	1.585258	-0.299501	0.130301
H229	H	0.951511	-1.003742	-0.576611
H230	H	1.284844	-0.670409	-0.243278
H231	H	1.618178	-0.337076	0.090056
O232	O	0.965666	-0.485707	-0.671614
O233	O	1.299000	-0.152374	-0.338281
O234	O	1.632333	0.180959	-0.004947
H235	H	0.932931	-0.520840	-0.714176
H236	H	1.266264	-0.187506	-0.380842
H237	H	1.599598	0.145827	-0.047509
O238	O	1.161501	-0.275474	-1.090899
O239	O	1.494834	0.057859	-0.757566
O240	O	1.828167	0.391192	-0.424233
H241	H	1.153596	-0.283941	-1.155233
H242	H	1.486929	0.049393	-0.821899
H243	H	1.820262	0.382726	-0.488566
H244	H	0.931075	-0.522880	-0.806334
H245	H	1.264408	-0.189547	-0.473001
H246	H	1.597741	0.143786	-0.139668
H247	H	0.978185	-1.079073	-0.472536
H248	H	1.311519	-0.745740	-0.139203
H249	H	1.644852	-0.412407	0.194130
O250	O	1.208554	-0.224951	-0.967091
O251	O	1.541887	0.108382	-0.633757
O252	O	1.875221	0.441715	-0.300424
H253	H	1.200640	-0.233411	-1.031424
H254	H	1.533973	0.099922	-0.698090
H255	H	1.867307	0.433255	-0.364757
H256	H	0.633605	-0.472579	-0.472423
H257	H	0.966938	-0.139245	-0.139090
H258	H	1.300272	0.194088	0.194243
O259	O	1.161430	-0.275603	-0.671670
O260	O	1.494763	0.057730	-0.338336
O261	O	1.828096	0.391064	-0.005003
H262	H	1.128503	-0.235395	-0.634064
H263	H	1.461837	0.097939	-0.300730
H264	H	1.795170	0.431272	0.032603
H265	H	0.931109	-0.522840	-0.956113
H266	H	1.264442	-0.189507	-0.622779
H267	H	1.597775	0.143827	-0.289446
H268	H	0.494178	-0.472581	-0.472440
H269	H	0.827511	-0.139248	-0.139107
H270	H	1.160845	0.194085	0.194226
O271	O	1.161539	-1.089938	-0.275954
O272	O	1.494873	-0.756605	0.057379
O273	O	1.828206	-0.423272	0.390712
H274	H	1.153659	-1.154275	-0.284455
H275	H	1.486992	-0.820942	0.048878
H276	H	1.820325	-0.487609	0.382212
H277	H	1.196107	-0.238371	-0.806424
H278	H	1.529440	0.094962	-0.473091
H279	H	1.862773	0.428296	-0.139758
H280	H	1.196111	-0.955210	-0.238760
H281	H	1.529444	-0.621876	0.094573
H282	H	1.862777	-0.288543	0.427907
