data_functionalizedCrystal
_audit_creation_method	'MofGen! by Chris Wilmer'
_symmetry_space_group_name_H-M	'P1'
_symmetry_Int_Tables_number	1
_symmetry_cell_setting	triclinic
loop_
_symmetry_equiv_pos_as_xyz
  x,y,z
_cell_length_a	12.594517
_cell_length_b	19.121063
_cell_length_c	12.594509
_cell_angle_alpha	87.594190
_cell_angle_beta	90.021327
_cell_angle_gamma	92.468805
loop_
_atom_site_label
_atom_site_type_symbol
_atom_site_fract_x
_atom_site_fract_y
_atom_site_fract_z
Zn1	Zn	1.609106	-0.279596	0.619881
Zn2	Zn	1.601367	-0.397059	0.449473
Zn3	Zn	1.431108	-0.279626	0.441911
Zn4	Zn	1.423466	-0.397010	0.627400
O5	O	1.516262	-0.338323	0.534666
O6	O	1.757025	-0.295185	0.597293
O7	O	1.578742	-0.381514	0.299526
O8	O	1.461157	-0.181338	0.459208
O9	O	1.751339	-0.381485	0.472096
O10	O	1.591931	-0.181315	0.589961
O11	O	1.453653	-0.295237	0.293971
O12	O	1.281149	-0.295189	0.466499
O13	O	1.448132	-0.381402	0.775346
O14	O	1.275534	-0.381431	0.602777
O15	O	1.584521	-0.295138	0.769822
O16	O	1.571331	-0.495337	0.479386
O17	O	1.440628	-0.495301	0.610109
C18	C	1.239722	-0.338309	0.534634
C19	C	1.121416	-0.338319	0.534646
C20	C	1.055190	-0.291349	0.460657
C21	C	0.980217	-0.355414	0.438606
C22	C	0.985587	-0.274285	0.556717
C23	C	1.047999	-0.402419	0.512547
C24	C	1.053378	-0.321246	0.630701
C25	C	0.978435	-0.385356	0.608690
C26	C	1.504339	-0.520803	0.546407
C27	C	1.499336	-0.598868	0.551466
C28	C	1.565089	-0.635539	0.485838
C29	C	1.560390	-0.708890	0.490602
C30	C	1.489932	-0.745569	0.560988
C31	C	1.424176	-0.708893	0.626623
C32	C	1.428881	-0.635544	0.621864
C33	C	1.472323	-0.967038	0.578765
C34	C	1.467620	-1.040393	0.583517
C35	C	1.603835	-1.040385	0.447497
C36	C	1.608530	-0.967034	0.442740
C37	C	1.542779	-0.930365	0.508378
C38	C	1.485124	-0.820546	0.565857
C39	C	1.547592	-0.855389	0.503514
C40	C	1.793882	-0.338337	0.534699
C41	C	1.912187	-0.338343	0.534713
C42	C	1.516337	-0.338261	0.812283
C43	C	1.516369	-0.338235	0.930587
C44	C	1.528260	-0.155130	0.522903
C45	C	1.533373	-0.077064	0.517890
C46	C	1.516251	-0.338333	0.258126
C47	C	1.516438	-0.338162	0.139810
C48	C	1.442211	-0.385127	1.002843
C49	C	1.538217	-0.402288	1.074740
C50	C	1.420442	-0.321032	1.069487
C51	C	1.612424	-0.355429	1.000927
C52	C	1.494585	-0.274143	0.995667
C53	C	1.590659	-0.291280	1.067530
H54	H	0.948119	-0.369870	0.357403
O55	O	1.615973	-0.819840	0.434998
C56	C	1.591590	-0.837812	0.330058
H57	H	1.547265	-0.891094	0.331268
H58	H	1.539522	-0.796579	0.291495
C59	C	1.749608	-0.775725	0.264400
C60	C	1.695175	-0.841170	0.265886
H61	H	1.813502	-0.777793	0.224813
H62	H	1.766033	-0.763614	0.335099
H63	H	1.706206	-0.741371	0.232266
H64	H	1.738571	-0.875521	0.298031
H65	H	1.678759	-0.853287	0.195190
H66	H	1.693597	-0.370011	0.970908
H67	H	1.410257	-1.070255	0.640852
O68	O	1.095105	-0.243998	0.385854
C69	C	1.010759	-0.211240	0.332863
H70	H	0.935565	-0.246468	0.340518
H71	H	0.996725	-0.159050	0.369953
C72	C	1.131509	-0.155100	0.205134
C73	C	1.039157	-0.198371	0.214528
H74	H	1.149027	-0.147159	0.132141
H75	H	1.188336	-0.177167	0.240837
H76	H	1.119802	-0.111613	0.236049
H77	H	1.050869	-0.241860	0.183626
H78	H	0.982333	-0.176311	0.178818
O79	O	1.560421	-0.466863	1.116078
C80	C	1.653957	-0.461991	1.177351
H81	H	1.703515	-0.413251	1.150041
H82	H	1.632153	-0.458297	1.264723
C83	C	1.657774	-0.587361	1.196694
C84	C	1.718646	-0.527501	1.163145
H85	H	1.697675	-0.627771	1.187936
H86	H	1.594754	-0.590644	1.155417
H87	H	1.639608	-0.584273	1.269501
H88	H	1.736800	-0.530585	1.090336
H89	H	1.781671	-0.524220	1.204410
H90	H	1.418783	-0.937188	0.632208
H91	H	1.653471	-0.251593	1.095834
O92	O	0.952844	-0.209618	0.578836
C93	C	0.992024	-0.160258	0.500575
H94	H	1.065173	-0.181027	0.461293
H95	H	0.928106	-0.151031	0.438035
C96	C	0.932511	-0.065242	0.600878
C97	C	1.022360	-0.090748	0.552638
H98	H	0.951220	-0.022364	0.632991
H99	H	0.906111	-0.098496	0.653603
H100	H	0.879254	-0.057559	0.548753
H101	H	1.075609	-0.098440	0.604765
H102	H	1.048770	-0.057494	0.499923
H103	H	1.375340	-0.605687	0.675306
H104	H	1.427755	-0.850418	0.623164
H105	H	1.366812	-0.738763	0.683937
H106	H	1.476092	-0.219990	0.961048
H107	H	1.657368	-1.070249	0.394060
H108	H	1.075422	-0.456598	0.493817
H109	H	1.085502	-0.306771	0.711878
O110	O	1.633589	-0.599836	0.417606
C111	C	1.705045	-0.557352	0.475510
H112	H	1.668168	-0.546340	0.555422
H113	H	1.782105	-0.585574	0.489111
C114	C	1.774114	-0.501225	0.314293
C115	C	1.728817	-0.487694	0.412439
H116	H	1.788782	-0.458257	0.275387
H117	H	1.725976	-0.529848	0.275281
H118	H	1.838326	-0.524744	0.325642
H119	H	1.664600	-0.464183	0.401090
H120	H	1.776945	-0.459065	0.451448
O121	O	1.323593	-0.303826	1.105522
C122	C	1.280600	-0.358973	1.172238
H123	H	1.318466	-0.409940	1.152481
H124	H	1.297502	-0.347122	1.258730
C125	C	1.113147	-0.303778	1.179233
C126	C	1.159648	-0.366377	1.154960
H127	H	1.038538	-0.308344	1.168580
H128	H	1.142113	-0.266622	1.134289
H129	H	1.127242	-0.293908	1.251309
H130	H	1.145564	-0.376241	1.082883
H131	H	1.130677	-0.403535	1.199892
O132	O	1.367560	-0.432600	0.968892
C133	C	1.390959	-0.500063	1.009348
H134	H	1.479166	-0.501386	1.029293
H135	H	1.342076	-0.513203	1.084267
C136	C	1.255063	-0.552593	0.900899
C137	C	1.363402	-0.554220	0.925387
H138	H	1.238061	-0.586000	0.849111
H139	H	1.239295	-0.507142	0.873645
H140	H	1.214340	-0.563541	0.963339
H141	H	1.404123	-0.543263	0.862950
H142	H	1.379177	-0.599670	0.952628
H143	H	1.613932	-0.738745	0.437161
O144	O	0.938610	-0.432902	0.683259
C145	C	0.970491	-0.500311	0.659638
H146	H	0.990112	-0.501573	0.571402
H147	H	1.043840	-0.513386	0.708402
C148	C	0.855630	-0.553028	0.795525
C149	C	0.879720	-0.554580	0.687151
H150	H	0.799641	-0.586504	0.812501
H151	H	0.834154	-0.507614	0.811443
H152	H	0.916762	-0.563922	0.836149
H153	H	0.818593	-0.543677	0.646529
H154	H	0.901184	-0.599994	0.671227
H155	H	1.665902	-0.937172	0.385426
