data_functionalizedCrystal
_audit_creation_method	'MofGen! by Chris Wilmer'
_symmetry_space_group_name_H-M	'P1'
_symmetry_Int_Tables_number	1
_symmetry_cell_setting	triclinic
loop_
_symmetry_equiv_pos_as_xyz
  x,y,z
_cell_length_a	21.295418
_cell_length_b	29.839131
_cell_length_c	21.295411
_cell_angle_alpha	90.020364
_cell_angle_beta	90.043738
_cell_angle_gamma	90.057233
loop_
_atom_site_label
_atom_site_type_symbol
_atom_site_fract_x
_atom_site_fract_y
_atom_site_fract_z
Zn1	Zn	0.962308	-0.178715	0.356239
Zn2	Zn	1.462308	0.321285	0.856239
Zn3	Zn	0.962190	-0.253830	0.250967
Zn4	Zn	1.462190	0.246170	0.750967
Zn5	Zn	0.857031	-0.178736	0.250949
Zn6	Zn	1.357031	0.321264	0.750949
Zn7	Zn	0.856981	-0.253839	0.356163
Zn8	Zn	1.356981	0.246161	0.856163
O9	O	0.909628	-0.216280	0.303580
O10	O	1.409628	0.283720	0.803580
O11	O	1.050382	-0.188667	0.342314
O12	O	1.550382	0.311333	0.842314
O13	O	0.948213	-0.243874	0.162875
O14	O	1.448213	0.256126	0.662875
O15	O	0.871067	-0.115866	0.264940
O16	O	1.371067	0.384134	0.764940
O17	O	1.050295	-0.243854	0.264971
O18	O	1.550295	0.256146	0.764971
O19	O	0.948413	-0.115851	0.342296
O20	O	1.448413	0.384149	0.842296
O21	O	0.870953	-0.188703	0.162862
O22	O	1.370953	0.311297	0.662862
O23	O	0.768935	-0.188711	0.264867
O24	O	1.268935	0.311289	0.764867
O25	O	0.870981	-0.243869	0.444263
O26	O	1.370981	0.256131	0.944263
O27	O	0.768898	-0.243889	0.342167
O28	O	1.268898	0.256111	0.842167
O29	O	0.948364	-0.188675	0.444319
O30	O	1.448364	0.311325	0.944319
O31	O	0.948164	-0.316699	0.264897
O32	O	1.448164	0.183301	0.764897
O33	O	0.870866	-0.316705	0.342185
O34	O	1.370866	0.183295	0.842185
C35	C	0.746076	-0.216304	0.303507
C36	C	1.246076	0.283696	0.803507
C37	C	0.676108	-0.216325	0.303491
C38	C	1.176108	0.283675	0.803491
C39	C	0.643238	-0.245094	0.343681
C40	C	1.143238	0.254906	0.843681
C41	C	0.577496	-0.245083	0.343710
C42	C	1.077496	0.254917	0.843710
C43	C	0.544625	-0.216307	0.303536
C44	C	1.044625	0.283693	0.803536
C45	C	0.577503	-0.187532	0.263343
C46	C	1.077503	0.312468	0.763343
C47	C	0.643244	-0.187541	0.263321
C48	C	1.143244	0.312459	0.763321
N49	N	0.441350	-0.212791	0.248479
N50	N	0.941350	0.287209	0.748479
N51	N	0.378899	-0.212785	0.248502
N52	N	0.878899	0.287215	0.748502
C53	C	0.346551	-0.216279	0.303603
C54	C	0.846551	0.283721	0.803603
N55	N	0.379013	-0.219787	0.358681
N56	N	0.879013	0.280213	0.858681
N57	N	0.441470	-0.219795	0.358657
N58	N	0.941470	0.280205	0.858657
C59	C	0.473340	-0.216294	0.303557
C60	C	0.973340	0.283706	0.803557
C61	C	0.242396	-0.245037	0.343827
C62	C	0.742396	0.254963	0.843827
C63	C	0.176652	-0.245023	0.343857
C64	C	0.676652	0.254977	0.843857
C65	C	0.176660	-0.187475	0.263485
C66	C	0.676660	0.312525	0.763485
C67	C	0.242403	-0.187487	0.263461
C68	C	0.742403	0.312513	0.763461
C69	C	0.275266	-0.216271	0.303632
C70	C	0.775266	0.283729	0.803632
C71	C	0.909514	-0.333003	0.303548
C72	C	1.409514	0.166997	0.803548
C73	C	0.909523	-0.382937	0.303556
C74	C	1.409523	0.117063	0.803556
C75	C	0.949949	-0.692564	0.263395
C76	C	1.449949	-0.192564	0.763395
C77	C	0.950027	-0.880238	0.263419
C78	C	1.450027	-0.380238	0.763419
O79	O	0.984309	-0.904489	0.229249
O80	O	1.484309	-0.404489	0.729249
N81	N	0.909758	-0.903722	0.303627
N82	N	1.409758	-0.403722	0.803627
C83	C	0.869470	-0.880286	0.343835
C84	C	1.369470	-0.380286	0.843835
O85	O	0.835225	-0.904567	0.378039
O86	O	1.335225	-0.404567	0.878039
C87	C	0.869396	-0.692614	0.343813
C88	C	1.369396	-0.192614	0.843813
C89	C	0.909663	-0.669131	0.303598
C90	C	1.409663	-0.169131	0.803598
C91	C	0.990214	-0.669082	0.223184
C92	C	1.490214	-0.169082	0.723184
C93	C	0.990192	-0.622167	0.223176
C94	C	1.490192	-0.122167	0.723176
C95	C	0.949905	-0.598734	0.263379
C96	C	1.449905	-0.098734	0.763379
C97	C	0.909641	-0.622216	0.303590
C98	C	1.409641	-0.122216	0.803590
C99	C	0.829111	-0.669178	0.384023
C100	C	1.329111	-0.169178	0.884023
C101	C	0.829097	-0.622257	0.384015
C102	C	1.329097	-0.122257	0.884015
C103	C	0.869364	-0.598775	0.343800
C104	C	1.369364	-0.098775	0.843800
C105	C	0.869332	-0.551867	0.343785
C106	C	1.369332	-0.051867	0.843785
N107	N	0.909601	-0.528383	0.303577
N108	N	1.409601	-0.028383	0.803577
C109	C	0.949887	-0.551816	0.263374
C110	C	1.449887	-0.051816	0.763374
C111	C	0.869511	-0.978816	0.343842
C112	C	1.369511	-0.478816	0.843842
C113	C	0.869528	-1.025734	0.343847
C114	C	1.369528	-0.525734	0.843847
C115	C	0.950087	-1.025683	0.263432
C116	C	1.450087	-0.525683	0.763432
C117	C	0.950065	-0.978764	0.263425
C118	C	1.450065	-0.478764	0.763425
C119	C	0.909780	-0.955332	0.303634
C120	C	1.409780	-0.455332	0.803634
C121	C	0.949837	-0.453290	0.263359
C122	C	1.449837	0.046710	0.763359
C123	C	0.949810	-0.406370	0.263353
C124	C	1.449810	0.093630	0.763353
C125	C	0.869254	-0.406426	0.343770
C126	C	1.369254	0.093574	0.843770
C127	C	0.869279	-0.453341	0.343774
C128	C	1.369279	0.046659	0.843774
C129	C	0.909576	-0.476772	0.303567
C130	C	1.409576	0.023228	0.803567
O131	O	0.835073	-0.527587	0.377942
O132	O	1.335073	-0.027587	0.877942
O133	O	0.984137	-0.527526	0.229185
O134	O	1.484137	-0.027526	0.729185
C135	C	0.949972	-0.739480	0.263403
C136	C	1.449972	-0.239480	0.763403
C137	C	0.909707	-0.762962	0.303614
C138	C	1.409707	-0.262962	0.803614
C139	C	0.869421	-0.739529	0.343817
C140	C	1.369421	-0.239529	0.843817
C141	C	0.909725	-0.809880	0.303619
C142	C	1.409725	-0.309880	0.803619
C143	C	0.950012	-0.833313	0.263416
C144	C	1.450012	-0.333313	0.763416
C145	C	0.990281	-0.809829	0.223208
C146	C	1.490281	-0.309829	0.723208
C147	C	0.990258	-0.762913	0.223200
C148	C	1.490258	-0.262913	0.723200
C149	C	0.829152	-0.763014	0.384025
C150	C	1.329152	-0.263014	0.884025
C151	C	0.829177	-0.809929	0.384029
C152	C	1.329177	-0.309929	0.884029
C153	C	0.869463	-0.833362	0.343826
C154	C	1.369463	-0.333362	0.843826
C155	C	1.073818	-0.216257	0.303653
C156	C	1.573818	0.283743	0.803653
C157	C	1.143786	-0.216247	0.303684
C158	C	1.643786	0.283753	0.803684
C159	C	0.909680	-0.216271	0.467770
C160	C	1.409680	0.283729	0.967770
C161	C	0.909702	-0.216267	0.537738
C162	C	1.409702	0.283733	1.037738
C163	C	0.909759	-0.099102	0.303625
C164	C	1.409759	0.400898	0.803625
C165	C	0.909815	-0.049167	0.303644
C166	C	1.409815	0.450833	0.803644
C167	C	0.909612	-0.216257	0.140028
C168	C	1.409612	0.283743	0.640028
C169	C	0.909712	-0.216135	0.070060
C170	C	1.409712	0.283865	0.570060
C171	C	0.949994	-0.187526	0.570635
C172	C	1.449994	0.312474	1.070635
C173	C	0.949993	-0.187507	0.636377
C174	C	1.449993	0.312493	1.136377
C175	C	0.909707	-0.216236	0.669221
C176	C	1.409707	0.283764	1.169221
C177	C	0.869407	-0.244978	0.636316
C178	C	1.369407	0.255022	1.136316
C179	C	0.869405	-0.244994	0.570575
C180	C	1.369405	0.255006	1.070575
N181	N	0.904840	-0.255537	0.772436
N182	N	1.404840	0.244463	1.272436
N183	N	0.904846	-0.255521	0.834887
N184	N	1.404846	0.244479	1.334887
C185	C	0.909711	-0.216190	0.867295
C186	C	1.409711	0.283810	1.367295
N187	N	0.914582	-0.176875	0.834893
N188	N	1.414582	0.323125	1.334893
N189	N	0.914580	-0.176891	0.772436
N190	N	1.414580	0.323109	1.272436
C191	C	0.909705	-0.216222	0.740506
C192	C	1.409705	0.283778	1.240506
C193	C	0.950004	-0.187426	0.971478
C194	C	1.450004	0.312574	1.471478
C195	C	0.949999	-0.187406	1.037221
C196	C	1.449999	0.312594	1.537221
C197	C	0.869416	-0.244882	1.037159
C198	C	1.369416	0.255118	1.537159
C199	C	0.869418	-0.244898	0.971417
C200	C	1.369418	0.255102	1.471417
C201	C	0.909716	-0.216171	0.938580
C202	C	1.409716	0.283829	1.438580
H203	H	0.982600	-0.387253	0.230603
H204	H	1.482600	0.112747	0.730603
H205	H	0.550736	-0.164102	0.230635
H206	H	1.050736	0.335898	0.730635
H207	H	0.982802	-0.164100	0.663167
H208	H	1.482802	0.335900	1.163167
F209	F	0.678227	-0.156919	0.220543
F210	F	1.178227	0.343081	0.720543
H211	H	0.836604	-0.268368	0.663061
H212	H	1.336604	0.231632	1.163061
F213	F	0.786258	-0.694159	0.426831
F214	F	1.286258	-0.194159	0.926831
F215	F	0.826382	-0.381478	0.386556
F216	F	1.326382	0.118522	0.886556
F217	F	0.826519	-0.275585	0.535563
F218	F	1.326519	0.224415	1.035563
H219	H	0.550728	-0.268510	0.376440
H220	H	1.050728	0.231490	0.876440
F221	F	1.033118	-0.737927	0.180399
F222	F	1.533118	-0.237927	0.680399
H223	H	1.023082	-0.828916	0.190472
H224	H	1.523082	-0.328916	0.690472
F225	F	0.277374	-0.275669	0.386582
F226	F	0.777374	0.224331	0.886582
F227	F	0.992880	-0.156950	0.535691
F228	F	1.492880	0.343050	1.035691
H229	H	0.149891	-0.268450	0.376588
H230	H	0.649891	0.231550	0.876588
H231	H	0.669992	-0.268531	0.376392
H232	H	1.169992	0.231469	0.876392
F233	F	0.992889	-0.156851	0.936528
F234	F	1.492889	0.343149	1.436528
H235	H	0.796292	-0.603181	0.416761
H236	H	1.296292	-0.103181	0.916761
H237	H	0.149898	-0.164043	0.230778
H238	H	0.649898	0.335957	0.730778
F239	F	0.992893	-0.156820	1.072232
F240	F	1.492893	0.343180	1.572232
H241	H	0.836608	-0.268269	1.063899
H242	H	1.336608	0.231731	1.563899
H243	H	0.836612	-0.268304	0.944632
H244	H	1.336612	0.231696	1.444632
H245	H	1.023023	-0.688157	0.190445
H246	H	1.523023	-0.188157	0.690445
H247	H	0.982652	-0.472362	0.230620
H248	H	1.482652	0.027638	0.730620
F249	F	0.277386	-0.156867	0.220683
F250	F	0.777386	0.343133	0.720683
H251	H	1.022982	-0.603050	0.190431
H252	H	1.522982	-0.103050	0.690431
H253	H	0.982855	-0.959647	0.230679
H254	H	1.482855	-0.459647	0.730679
H255	H	0.982890	-1.044770	0.230698
H256	H	1.482890	-0.544770	0.730698
H257	H	0.836733	-1.044849	0.376588
H258	H	1.336733	-0.544849	0.876588
F259	F	0.826629	-0.953884	0.386641
F260	F	1.326629	-0.453884	0.886641
F261	F	0.786314	-0.834916	0.426833
F262	F	1.286314	-0.334916	0.926833
F263	F	0.786271	-0.738081	0.426817
F264	F	1.286271	-0.238081	0.926817
F265	F	0.826411	-0.478334	0.386563
F266	F	1.326411	0.021666	0.886563
