data_functionalizedCrystal
_audit_creation_method	'MofGen! by Chris Wilmer'
_symmetry_space_group_name_H-M	'P1'
_symmetry_Int_Tables_number	1
_symmetry_cell_setting	triclinic
loop_
_symmetry_equiv_pos_as_xyz
  x,y,z
_cell_length_a	23.532361
_cell_length_b	22.010155
_cell_length_c	17.699083
_cell_angle_alpha	90.003354
_cell_angle_beta	96.943659
_cell_angle_gamma	90.004127
loop_
_atom_site_label
_atom_site_type_symbol
_atom_site_fract_x
_atom_site_fract_y
_atom_site_fract_z
O1	O	0.755544	0.050465	-0.091699
O2	O	1.255544	0.550465	0.408301
O3	O	0.589716	0.050480	-0.105030
O4	O	1.089716	0.550480	0.394970
O5	O	0.677315	0.050467	0.011850
O6	O	1.177315	0.550467	0.511850
O7	O	0.667945	0.050479	-0.208578
O8	O	1.167945	0.550479	0.291422
O9	O	0.677299	-0.050583	0.011832
O10	O	1.177299	0.449417	0.511832
O11	O	0.589700	-0.050570	-0.105047
O12	O	1.089700	0.449430	0.394953
O13	O	0.755528	-0.050585	-0.091717
O14	O	1.255528	0.449415	0.408283
Cu15	Cu	0.672613	-0.059804	-0.098384
Cu16	Cu	1.172613	0.440196	0.401616
Cu17	Cu	0.672631	0.059700	-0.098363
Cu18	Cu	1.172631	0.559700	0.401637
O19	O	0.667929	-0.050572	-0.208596
O20	O	1.167929	0.449428	0.291404
C21	C	0.568490	-0.000043	-0.104705
C22	C	1.068490	0.499957	0.395295
C23	C	0.505269	-0.000038	-0.103701
C24	C	1.005269	0.499962	0.396299
N25	N	0.672604	-0.143857	-0.098398
N26	N	1.172604	0.356143	0.401602
C27	C	0.232021	0.055041	-0.099301
C28	C	0.732021	0.555041	0.400699
C29	C	0.291424	0.055043	-0.100251
C30	C	0.791424	0.555043	0.399749
O31	O	0.322158	0.101887	-0.100708
O32	O	0.822158	0.601887	0.399292
N33	N	0.321122	-0.000040	-0.100741
N34	N	0.821122	0.499960	0.399259
C35	C	0.291415	-0.055128	-0.100273
C36	C	0.791415	0.444872	0.399727
O37	O	0.322131	-0.101980	-0.100775
O38	O	0.822131	0.398020	0.399225
C39	C	0.232015	-0.055129	-0.099317
C40	C	0.732015	0.444871	0.400683
C41	C	0.202319	-0.000043	-0.098835
C42	C	0.702319	0.499957	0.401165
C43	C	0.202325	0.110123	-0.098819
C44	C	0.702325	0.610123	0.401181
C45	C	0.142926	0.110121	-0.097870
C46	C	0.642926	0.610121	0.402130
C47	C	0.113224	0.055037	-0.097404
C48	C	0.613224	0.555037	0.402596
C49	C	0.142920	-0.000044	-0.097887
C50	C	0.642920	0.499956	0.402113
C51	C	0.202310	-0.110216	-0.098843
C52	C	0.702310	0.389784	0.401157
C53	C	0.142905	-0.110212	-0.097887
C54	C	0.642905	0.389788	0.402113
C55	C	0.113209	-0.055126	-0.097405
C56	C	0.613209	0.444874	0.402595
C57	C	0.053819	-0.055130	-0.096472
C58	C	0.553819	0.444870	0.403528
N59	N	0.024121	-0.000047	-0.095982
N60	N	0.524121	0.499953	0.404018
C61	C	0.053823	0.055037	-0.096448
C62	C	0.553823	0.555037	0.403552
C63	C	0.416161	-0.055122	-0.102278
C64	C	0.916161	0.444878	0.397722
C65	C	0.475561	-0.055122	-0.103239
C66	C	0.975561	0.444878	0.396761
C67	C	0.475565	0.055049	-0.103216
C68	C	0.975565	0.555049	0.396784
C69	C	0.416164	0.055048	-0.102261
C70	C	0.916164	0.555048	0.397739
C71	C	0.386463	-0.000039	-0.101788
C72	C	0.886463	0.499961	0.398212
C73	C	-0.070918	0.055029	-0.094457
C74	C	0.429082	0.555029	0.405543
C75	C	-0.130322	0.055022	-0.093511
C76	C	0.369678	0.555022	0.406489
C77	C	-0.130321	-0.055148	-0.093530
C78	C	0.369679	0.444852	0.406470
C79	C	-0.070922	-0.055142	-0.094480
C80	C	0.429078	0.444858	0.405520
C81	C	-0.041222	-0.000049	-0.094940
C82	C	0.458778	0.499951	0.405060
O83	O	0.023047	-0.101950	-0.096011
O84	O	0.523047	0.398050	0.403989
O85	O	0.023101	0.101881	-0.095935
O86	O	0.523101	0.601881	0.404065
C87	C	0.711423	-0.563642	-0.046616
C88	C	1.211423	-0.063642	0.453384
C89	C	0.711425	-0.627249	-0.046611
C90	C	1.211425	-0.127249	0.453389
O91	O	0.744408	-0.660146	-0.002594
O92	O	1.244408	-0.160146	0.497406
N93	N	0.672631	-0.659064	-0.098347
N94	N	1.172631	-0.159064	0.401653
C95	C	0.633828	-0.627267	-0.150087
C96	C	1.133828	-0.127267	0.349913
O97	O	0.600830	-0.660168	-0.194091
O98	O	1.100830	-0.160168	0.305909
C99	C	0.633823	-0.563661	-0.150088
C100	C	1.133823	-0.063661	0.349912
C101	C	0.672624	-0.531850	-0.098353
C102	C	1.172624	-0.031850	0.401647
C103	C	0.750220	-0.531831	0.005115
C104	C	1.250220	-0.031831	0.505115
C105	C	0.750218	-0.468228	0.005109
C106	C	1.250218	0.031772	0.505109
C107	C	0.711419	-0.436435	-0.046629
C108	C	1.211419	0.063565	0.453371
C109	C	0.672621	-0.468247	-0.098360
C110	C	1.172621	0.031753	0.401640
C111	C	0.595017	-0.531865	-0.201823
C112	C	1.095017	-0.031865	0.298177
C113	C	0.595015	-0.468255	-0.201819
C114	C	1.095015	0.031745	0.298181
C115	C	0.633816	-0.436444	-0.150085
C116	C	1.133816	0.063556	0.349915
C117	C	0.633820	-0.372851	-0.150103
C118	C	1.133820	0.127149	0.349897
N119	N	0.672614	-0.341037	-0.098367
N120	N	1.172614	0.158963	0.401633
C121	C	0.711414	-0.372829	-0.046630
C122	C	1.211414	0.127171	0.453370
C123	C	0.633840	-0.760845	-0.150080
C124	C	1.133840	-0.260845	0.349920
C125	C	0.633848	-0.824450	-0.150083
C126	C	1.133848	-0.324450	0.349917
C127	C	0.711445	-0.824428	-0.046606
C128	C	1.211445	-0.324428	0.453394
C129	C	0.711440	-0.760822	-0.046607
C130	C	1.211440	-0.260822	0.453393
C131	C	0.672635	-0.729031	-0.098343
C132	C	1.172635	-0.229031	0.401657
C133	C	0.711407	-0.239258	-0.046647
C134	C	1.211407	0.260742	0.453353
C135	C	0.711403	-0.175649	-0.046660
C136	C	1.211403	0.324351	0.453340
C137	C	0.633804	-0.175676	-0.150134
C138	C	1.133804	0.324324	0.349866
C139	C	0.633810	-0.239280	-0.150124
C140	C	1.133810	0.260720	0.349876
C141	C	0.672613	-0.271069	-0.098375
C142	C	1.172613	0.228931	0.401625
O143	O	0.600853	-0.339914	-0.194095
O144	O	1.100853	0.160086	0.305905
O145	O	0.744401	-0.339920	-0.002626
O146	O	1.244401	0.160080	0.497374
C147	C	0.776754	-0.000060	-0.092042
C148	C	1.276754	0.499940	0.407958
C149	C	0.839975	-0.000062	-0.093045
C150	C	1.339975	0.499938	0.406955
C151	C	0.676971	-0.000058	0.040036
C152	C	1.176971	0.499942	0.540036
C153	C	0.675964	-0.000058	0.124049
C154	C	1.175964	0.499942	0.624049
N155	N	0.672645	0.143752	-0.098343
N156	N	1.172645	0.643752	0.401657
C157	C	0.668273	-0.000045	-0.236782
C158	C	1.168273	0.499955	0.263218
C159	C	0.669280	-0.000041	-0.320795
C160	C	1.169280	0.499959	0.179205
C161	C	0.727383	-0.000064	0.172942
C162	C	1.227383	0.499936	0.672942
C163	C	0.726433	-0.000058	0.251880
C164	C	1.226433	0.499942	0.751880
C165	C	0.674064	-0.000052	0.281924
C166	C	1.174064	0.499948	0.781924
C167	C	0.622641	-0.000044	0.233024
C168	C	1.122641	0.499956	0.733024
C169	C	0.623591	-0.000046	0.154088
C170	C	1.123591	0.499954	0.654088
C171	C	0.618807	-0.000039	0.551367
C172	C	1.118807	0.499961	1.051367
C173	C	0.617860	-0.000040	0.630310
C174	C	1.117860	0.499960	1.130310
C175	C	0.721649	-0.000052	0.649160
C176	C	1.221649	0.499948	1.149160
C177	C	0.722599	-0.000053	0.570223
C178	C	1.222599	0.499947	1.070223
C179	C	0.671177	-0.000043	0.521331
C180	C	1.171177	0.499957	1.021331
C181	C	0.672207	-0.000047	0.435737
C182	C	1.172207	0.499953	0.935737
C183	C	0.673033	-0.000051	0.367516
C184	C	1.173033	0.499949	0.867516
H185	H	-0.154498	0.099882	-0.093121
H186	H	0.345502	0.599882	0.406879
H187	H	-0.046743	0.099891	-0.094833
H188	H	0.453257	0.599891	0.405167
N189	N	0.232651	0.166400	-0.099289
N190	N	0.732651	0.666400	0.400711
N191	N	0.206119	0.215571	-0.098856
N192	N	0.706119	0.715571	0.401144
H193	H	0.227532	0.255321	-0.099192
H194	H	0.727532	0.755321	0.400808
H195	H	0.499759	0.099901	-0.103595
H196	H	0.999759	0.599901	0.396405
H197	H	0.768304	-0.000064	0.291687
H198	H	1.268304	0.499936	0.791687
H199	H	0.602216	-0.149781	-0.192261
H200	H	1.102216	0.350219	0.307739
H201	H	0.781811	-0.442331	0.047237
H202	H	1.281811	0.057669	0.547237
N203	N	0.776098	-0.000065	0.539548
N204	N	1.276098	0.499935	1.039548
N205	N	0.822006	-0.000070	0.583212
N206	N	1.322006	0.499930	1.083212
H207	H	0.859791	-0.000077	0.561550
H208	H	1.359791	0.499923	1.061550
H209	H	0.118754	0.154978	-0.097474
H210	H	0.618754	0.654978	0.402526
H211	H	0.391982	-0.099984	-0.101903
H212	H	0.891982	0.400016	0.398097
H213	H	0.499733	-0.099979	-0.103643
H214	H	0.999733	0.400021	0.396357
H215	H	0.602242	-0.734964	-0.192216
H216	H	1.102242	-0.234964	0.307784
H217	H	0.770028	-0.000073	0.148487
H218	H	1.270028	0.499927	0.648487
N219	N	0.232626	-0.166492	-0.099325
N220	N	0.732626	0.333508	0.400675
N221	N	0.206089	-0.215664	-0.098895
N222	N	0.706089	0.284336	0.401105
H223	H	0.227499	-0.255413	-0.099230
H224	H	0.727499	0.244587	0.400770
N225	N	0.751063	-0.856919	0.006255
N226	N	1.251063	-0.356919	0.506255
N227	N	0.751047	-0.913710	0.006255
N228	N	1.251047	-0.413710	0.506255
H229	H	0.779022	-0.936659	0.043591
H230	H	1.279022	-0.436659	0.543591
N231	N	-0.040571	-0.111400	-0.094992
N232	N	0.459429	0.388600	0.405008
N233	N	-0.012747	-0.123675	-0.148882
N234	N	0.487253	0.376325	0.351118
H235	H	0.008689	-0.163406	-0.149240
H236	H	0.508689	0.336594	0.350760
H237	H	0.581720	-0.000041	0.114279
H238	H	1.081720	0.499959	0.614279
N239	N	0.112577	-0.166490	-0.097399
N240	N	0.612577	0.333510	0.402601
N241	N	0.139103	-0.215665	-0.097828
N242	N	0.639103	0.284335	0.402172
H243	H	0.117685	-0.255412	-0.097485
H244	H	0.617685	0.244588	0.402515
N245	N	-0.160669	-0.111412	-0.093066
N246	N	0.339331	0.388588	0.406934
N247	N	-0.199146	-0.123700	-0.145893
N248	N	0.300854	0.376300	0.354107
H249	H	-0.220581	-0.163437	-0.145561
H250	H	0.279419	0.336563	0.354439
N251	N	0.385842	0.111322	-0.101769
N252	N	0.885842	0.611322	0.398231
N253	N	0.412376	0.160497	-0.102190
N254	N	0.912376	0.660497	0.397810
H255	H	0.390964	0.200244	-0.101841
H256	H	0.890964	0.700244	0.398159
N257	N	0.774173	-0.000063	0.699115
N258	N	1.274173	0.499937	1.199115
N259	N	0.773321	-0.000062	0.769593
N260	N	1.273321	0.499938	1.269593
H261	H	0.810414	-0.000072	0.804873
H262	H	1.310414	0.499928	1.304873
H263	H	0.563422	-0.557757	-0.243950
H264	H	1.063422	-0.057757	0.256050
N265	N	0.555370	-0.435791	-0.254671
N266	N	1.055370	0.064209	0.245329
N267	N	0.520732	-0.464207	-0.300854
N268	N	1.020732	0.035793	0.199146
H269	H	0.492733	-0.441281	-0.338182
H270	H	0.992733	0.058719	0.161818
N271	N	0.569141	-0.000049	0.263698
N272	N	1.069141	0.499951	0.763698
N273	N	0.523235	-0.000049	0.220031
N274	N	1.023235	0.499951	0.720031
H275	H	0.485449	-0.000056	0.241692
H276	H	0.985449	0.499944	0.741692
H277	H	0.743001	-0.149750	-0.004532
H278	H	1.243001	0.350250	0.495468
N279	N	0.751045	-0.271714	0.006221
N280	N	1.251045	0.228286	0.506221
N281	N	0.785679	-0.243293	0.052402
N282	N	1.285679	0.256707	0.552402
H283	H	0.813675	-0.266215	0.089738
H284	H	1.313675	0.233785	0.589738
H285	H	0.602220	-0.265181	-0.192259
H286	H	1.102220	0.234819	0.307741
N287	N	0.789857	-0.564290	0.057977
N288	N	1.289857	-0.064290	0.557977
N289	N	0.824489	-0.535867	0.104158
N290	N	1.324489	-0.035867	0.604158
H291	H	0.852489	-0.558787	0.141493
H292	H	1.352489	-0.058787	0.641493
N293	N	0.751040	-0.728322	0.006273
N294	N	1.251040	-0.228322	0.506273
N295	N	0.750325	-0.735431	0.076219
N296	N	1.250325	-0.235431	0.576219
H297	H	0.778282	-0.712475	0.113578
H298	H	1.278282	-0.212475	0.613578
N299	N	0.594218	-0.856931	-0.202945
N300	N	1.094218	-0.356931	0.297055
N301	N	0.559583	-0.828530	-0.249135
N302	N	1.059583	-0.328530	0.250865
H303	H	0.531591	-0.851467	-0.286469
H304	H	1.031591	-0.351467	0.213531
N305	N	0.564358	-0.000037	0.660987
N306	N	1.064358	0.499963	1.160987
N307	N	0.518449	-0.000029	0.617326
N308	N	1.018449	0.499971	1.117326
H309	H	0.480665	-0.000028	0.638991
H310	H	0.980665	0.499972	1.138991
H311	H	0.576935	-0.000031	0.511568
H312	H	1.076935	0.499969	1.011568
