data_functionalizedCrystal
_audit_creation_method	'MofGen! by Chris Wilmer'
_symmetry_space_group_name_H-M	'P1'
_symmetry_Int_Tables_number	1
_symmetry_cell_setting	triclinic
loop_
_symmetry_equiv_pos_as_xyz
  x,y,z
_cell_length_a	6.817900
_cell_length_b	11.168129
_cell_length_c	14.125286
_cell_angle_alpha	94.674868
_cell_angle_beta	100.396688
_cell_angle_gamma	108.508637
loop_
_atom_site_label
_atom_site_type_symbol
_atom_site_fract_x
_atom_site_fract_y
_atom_site_fract_z
V1	V	-4.016801	-0.173730	-0.299999
V2	V	-3.683467	0.159604	0.033334
V3	V	-3.350134	0.492937	0.366668
O4	O	-3.978159	0.009352	-0.294279
O5	O	-3.644825	0.342685	0.039054
O6	O	-3.311492	0.676018	0.372387
O7	O	-3.993723	-0.345442	-0.297955
O8	O	-3.660390	-0.012108	0.035378
O9	O	-3.327057	0.321225	0.368711
O10	O	-3.952496	-0.170617	-0.430835
O11	O	-3.619162	0.162716	-0.097502
O12	O	-3.285829	0.496050	0.235832
O13	O	-4.019671	-0.166683	-0.160480
O14	O	-3.686338	0.166650	0.172853
O15	O	-3.353005	0.499984	0.506187
V16	V	-4.499208	-0.151883	-0.283310
V17	V	-4.165875	0.181450	0.050023
V18	V	-3.832541	0.514784	0.383356
O19	O	-4.280506	-0.221652	-0.336607
O20	O	-3.947172	0.111681	-0.003273
O21	O	-3.613839	0.445015	0.330060
O22	O	-4.685700	-0.103961	-0.246702
O23	O	-4.352367	0.229373	0.086631
O24	O	-4.019034	0.562706	0.419964
O25	O	-4.299079	0.019829	-0.285354
O26	O	-3.965746	0.353162	0.047980
O27	O	-3.632412	0.686496	0.381313
O28	O	-4.655247	-0.334964	-0.289030
O29	O	-4.321914	-0.001631	0.044304
O30	O	-3.988580	0.331702	0.377637
O31	O	-4.613734	-0.158930	-0.422829
O32	O	-4.280401	0.174404	-0.089496
O33	O	-3.947067	0.507737	0.243838
O34	O	-4.340306	-0.154996	-0.152474
O35	O	-4.006973	0.178338	0.180859
O36	O	-3.673640	0.511671	0.514192
C37	C	-3.845399	-0.387315	-0.293225
C38	C	-3.512066	-0.053982	0.040108
C39	C	-3.178732	0.279352	0.373442
C40	C	-3.907711	-0.527689	-0.292426
C41	C	-3.574378	-0.194356	0.040907
C42	C	-3.241045	0.138978	0.374240
C43	C	-4.030723	-0.752212	-0.374979
C44	C	-3.697390	-0.418879	-0.041646
C45	C	-3.364056	-0.085546	0.291688
C46	C	-3.966321	-0.607129	-0.375806
C47	C	-3.632987	-0.273796	-0.042473
C48	C	-3.299654	0.059538	0.290860
C49	C	-3.792808	-0.164307	-0.462725
C50	C	-3.459475	0.169026	-0.129391
C51	C	-3.126142	0.502359	0.203942
C52	C	-3.821683	-0.162899	-0.569684
C53	C	-3.488350	0.170435	-0.236351
C54	C	-3.155016	0.503768	0.096983
C55	C	-4.060830	-0.165458	-0.817806
C56	C	-3.727496	0.167875	-0.484473
C57	C	-3.394163	0.501209	-0.151139
C58	C	-3.874560	-0.160153	-0.765491
C59	C	-3.541226	0.173181	-0.432158
C60	C	-3.207893	0.506514	-0.098825
C61	C	-3.845140	-0.161681	-0.656534
C62	C	-3.511806	0.171653	-0.323201
C63	C	-3.178473	0.504986	0.010133
C64	C	-4.090257	-0.163930	-0.926773
C65	C	-3.756924	0.169403	-0.593440
C66	C	-3.423591	0.502737	-0.260106
C67	C	-4.110747	0.061696	-0.290082
C68	C	-3.777413	0.395029	0.043252
C69	C	-3.444080	0.728362	0.376585
C70	C	-4.027672	0.202069	-0.290886
C71	C	-3.694338	0.535402	0.042447
C72	C	-3.361005	0.868735	0.375780
C73	C	-4.163337	-0.161309	-0.120579
C74	C	-3.830004	0.172024	0.212754
C75	C	-3.496671	0.505357	0.546087
C76	C	-4.113700	-0.162712	-0.013619
C77	C	-3.780367	0.170622	0.319714
C78	C	-3.447033	0.503955	0.653047
H79	H	-3.977390	-0.729664	-0.219505
H80	H	-3.644057	-0.396331	0.113829
H81	H	-3.310724	-0.062998	0.447162
H82	H	-4.198194	-0.171148	-0.780767
H83	H	-3.864861	0.162185	-0.447433
H84	H	-3.531528	0.495518	-0.114100
O85	O	-3.904358	-0.579829	-0.197047
O86	O	-3.571025	-0.246495	0.136286
O87	O	-3.237691	0.086838	0.469620
H88	H	-4.065951	-0.643881	-0.196130
H89	H	-3.732618	-0.310548	0.137203
H90	H	-3.399285	0.022786	0.470537
O91	O	-3.692583	-0.152635	-0.814547
O92	O	-3.359249	0.180698	-0.481213
O93	O	-3.025916	0.514032	-0.147880
H94	H	-3.744612	-0.152616	-0.893671
H95	H	-3.411278	0.180717	-0.560338
H96	H	-3.077945	0.514051	-0.227005
H97	H	-4.081026	-0.820480	-0.446361
H98	H	-3.747693	-0.487147	-0.113028
H99	H	-3.414360	-0.153814	0.220305
H100	H	-3.968816	-0.567746	-0.447802
H101	H	-3.635483	-0.234413	-0.114469
H102	H	-3.302149	0.098920	0.218865
