data_functionalizedCrystal
_audit_creation_method	'MofGen! by Chris Wilmer'
_symmetry_space_group_name_H-M	'P1'
_symmetry_Int_Tables_number	1
_symmetry_cell_setting	triclinic
loop_
_symmetry_equiv_pos_as_xyz
  x,y,z
_cell_length_a	19.077105
_cell_length_b	19.077068
_cell_length_c	19.077174
_cell_angle_alpha	94.657148
_cell_angle_beta	85.483752
_cell_angle_gamma	90.115316
loop_
_atom_site_label
_atom_site_type_symbol
_atom_site_fract_x
_atom_site_fract_y
_atom_site_fract_z
Zn1	Zn	1.080478	-0.341972	-0.455027
Zn2	Zn	1.071301	-0.454742	-0.341487
Zn3	Zn	0.958244	-0.332134	-0.332045
Zn4	Zn	0.958197	-0.454696	-0.454603
O5	O	1.017055	-0.395886	-0.395791
O6	O	1.177751	-0.361068	-0.444095
O7	O	1.052483	-0.434380	-0.241427
O8	O	0.978319	-0.234951	-0.344585
O9	O	1.171009	-0.443920	-0.360677
O10	O	1.068124	-0.242180	-0.434939
O11	O	0.969420	-0.344300	-0.234490
O12	O	0.859748	-0.344255	-0.344174
O13	O	0.978239	-0.443841	-0.553467
O14	O	0.859713	-0.434301	-0.434217
O15	O	1.068079	-0.361024	-0.553779
O16	O	1.052438	-0.553224	-0.360266
O17	O	0.969340	-0.553190	-0.443372
C18	C	0.834193	-0.388206	-0.388125
C19	C	0.755964	-0.384938	-0.384863
C20	C	0.719207	-0.430350	-0.430143
C21	C	0.645702	-0.427270	-0.427081
C22	C	0.608956	-0.378782	-0.378736
C23	C	0.645719	-0.333365	-0.333454
C24	C	0.719222	-0.336442	-0.336520
C25	C	0.389126	-0.364542	-0.364550
C26	C	0.315618	-0.361471	-0.361486
C27	C	0.315607	-0.455375	-0.455114
C28	C	0.389111	-0.458451	-0.458173
C29	C	0.425867	-0.413032	-0.412894
N30	N	0.533823	-0.375634	-0.375603
N31	N	0.500999	-0.416176	-0.416030
C32	C	1.009908	-0.578745	-0.402813
C33	C	1.006916	-0.656976	-0.405844
C34	C	1.048810	-0.693727	-0.364038
C35	C	1.046000	-0.767234	-0.366893
C36	C	1.001291	-0.803989	-0.411551
C37	C	0.959395	-0.767233	-0.453361
C38	C	0.962209	-0.693728	-0.450510
C39	C	0.988234	-1.023827	-0.424718
C40	C	0.985422	-1.097337	-0.427565
C41	C	1.072029	-1.097333	-0.341097
C42	C	1.074836	-1.023826	-0.338247
C43	C	1.032942	-0.987077	-0.380060
N44	N	0.998416	-0.879124	-0.414468
N45	N	1.035821	-0.911943	-0.377146
C46	C	1.200631	-0.403597	-0.403486
C47	C	1.278861	-0.406882	-0.406766
C48	C	1.024177	-0.403525	-0.579959
C49	C	1.027212	-0.406780	-0.658440
C50	C	1.024250	-0.212315	-0.388757
C51	C	1.027316	-0.134088	-0.385759
C52	C	0.985394	-0.361410	-0.691699
C53	C	0.988242	-0.364475	-0.765441
C54	C	1.032914	-0.412906	-0.805923
C55	C	1.074734	-0.458280	-0.772659
C56	C	1.071881	-0.455219	-0.698918
C57	C	1.046080	-0.427094	-1.026851
C58	C	1.048931	-0.430150	-1.100597
C59	C	0.962438	-0.336345	-1.093373
C60	C	0.959592	-0.333285	-1.019632
C61	C	1.001410	-0.378662	-0.986374
N62	N	1.035828	-0.416037	-0.881299
N63	N	0.998491	-0.375533	-0.911000
C64	C	1.010004	-0.388228	-0.212338
C65	C	1.007113	-0.384781	-0.133855
H66	H	0.419044	-0.327564	-0.327676
H67	H	0.949023	-1.127262	-0.463943
H68	H	1.111241	-0.993902	-0.301883
O69	O	1.112706	-1.133143	-0.300562
C70	C	1.146741	-1.246378	-0.266613
C71	C	1.100640	-1.205913	-0.312566
H72	H	1.136990	-1.305219	-0.276291
H73	H	1.204530	-1.234818	-0.280887
H74	H	1.132794	-1.229044	-0.208597
H75	H	1.114524	-1.223224	-0.370594
H76	H	1.042862	-1.217475	-0.298232
H77	H	1.080115	-0.797153	-0.332849
O78	O	0.947460	-0.988241	-0.465347
C79	C	0.861273	-0.996010	-0.551424
C80	C	0.907407	-1.036401	-0.505440
H81	H	0.828890	-1.034931	-0.583862
H82	H	0.824514	-0.958775	-0.516129
H83	H	0.896306	-0.964417	-0.588362
H84	H	0.872430	-1.068034	-0.468496
H85	H	0.944172	-1.073594	-0.540778
H86	H	0.949021	-0.321969	-0.658744
H87	H	0.615795	-0.293882	-0.294093
H88	H	0.954186	-0.327532	-0.792517
O89	O	0.609910	-0.471412	-0.470961
C90	C	0.523600	-0.563387	-0.480480
C91	C	0.564075	-0.513423	-0.430705
H92	H	0.486543	-0.597376	-0.447953
H93	H	0.491836	-0.531263	-0.514770
H94	H	0.562499	-0.598546	-0.515574
H95	H	0.525224	-0.478254	-0.395567
H96	H	0.595849	-0.545590	-0.396463
H97	H	0.922995	-0.797165	-0.489726
O98	O	0.754819	-0.292303	-0.292459
C99	C	0.747080	-0.198815	-0.199293
C100	C	0.706679	-0.248775	-0.249139
H101	H	0.708177	-0.163600	-0.164267
H102	H	0.778774	-0.230943	-0.164946
H103	H	0.784209	-0.164883	-0.231807
H104	H	0.669513	-0.282718	-0.216682
H105	H	0.675031	-0.216606	-0.283489
O106	O	0.424697	-0.505573	-0.505199
C107	C	0.416924	-0.598420	-0.597710
C108	C	0.376537	-0.545073	-0.544501
H109	H	0.378003	-0.630380	-0.629490
H110	H	0.454016	-0.569177	-0.634928
H111	H	0.448656	-0.635232	-0.568063
H112	H	0.344764	-0.508248	-0.574089
H113	H	0.339487	-0.574362	-0.507285
H114	H	0.928095	-0.663806	-0.484553
H115	H	0.923214	-0.293850	-0.986676
H116	H	0.928392	-0.299403	-1.120460
H117	H	1.085311	-0.469589	-1.133555
H118	H	1.080123	-0.464050	-0.999782
H119	H	1.111103	-0.497717	-0.805625
H120	H	1.105940	-0.492158	-0.671840
O121	O	0.279875	-0.499387	-0.499170
C122	C	0.200185	-0.509474	-0.591364
C123	C	0.240625	-0.459553	-0.541518
H124	H	0.168431	-0.477288	-0.625605
H125	H	0.239043	-0.544647	-0.626497
H126	H	0.163104	-0.543453	-0.558852
H127	H	0.277707	-0.425529	-0.573974
H128	H	0.201727	-0.424428	-0.506383
O129	O	0.754792	-0.477473	-0.477169
C130	C	0.747012	-0.570312	-0.569687
C131	C	0.706628	-0.516969	-0.516471
H132	H	0.708089	-0.602268	-0.601467
H133	H	0.784102	-0.541065	-0.606905
H134	H	0.778746	-0.607127	-0.540047
H135	H	0.674854	-0.480140	-0.546053
H136	H	0.669581	-0.546261	-0.479255
O137	O	1.092199	-0.658097	-0.320559
C138	C	1.122650	-0.632056	-0.201040
C139	C	1.073472	-0.672455	-0.250201
H140	H	1.107518	-0.643638	-0.144144
H141	H	1.179331	-0.649363	-0.216366
H142	H	1.117478	-0.573212	-0.206218
H143	H	1.078582	-0.731307	-0.245049
H144	H	1.016811	-0.655090	-0.234861
O145	O	0.280032	-0.314301	-0.314502
C146	C	0.287794	-0.221510	-0.221933
C147	C	0.328183	-0.274878	-0.275118
H148	H	0.326705	-0.189633	-0.190067
H149	H	0.256095	-0.184624	-0.251532
H150	H	0.250668	-0.250805	-0.184792
H151	H	0.365344	-0.245642	-0.312273
H152	H	0.359835	-0.311762	-0.245473
