data_functionalizedCrystal
_audit_creation_method	'MofGen! by Chris Wilmer'
_symmetry_space_group_name_H-M	'P1'
_symmetry_Int_Tables_number	1
_symmetry_cell_setting	triclinic
loop_
_symmetry_equiv_pos_as_xyz
  x,y,z
_cell_length_a	13.262390
_cell_length_b	15.944493
_cell_length_c	11.804365
_cell_angle_alpha	101.834508
_cell_angle_beta	62.657606
_cell_angle_gamma	83.974277
loop_
_atom_site_label
_atom_site_type_symbol
_atom_site_fract_x
_atom_site_fract_y
_atom_site_fract_z
O1	O	1.519272	0.012350	-0.591093
O2	O	1.190902	0.042787	-0.484737
O3	O	1.364090	-0.095179	-0.540841
O4	O	1.346083	0.150317	-0.534989
O5	O	1.318496	-0.058892	-0.328015
O6	O	1.145308	0.079075	-0.271911
O7	O	1.473678	0.048637	-0.378267
Cu8	Cu	1.305330	0.067169	-0.305656
Cu9	Cu	1.359250	0.024255	-0.557348
O10	O	1.300490	0.186604	-0.322163
C11	C	1.126085	0.062562	-0.364715
C12	C	1.000881	0.067412	-0.324163
C13	C	0.747376	0.001949	-0.673920
C14	C	0.865013	-0.002612	-0.712022
C15	C	0.898986	0.014894	-0.615061
C16	C	0.815310	0.036962	-0.479990
C17	C	0.697662	0.041517	-0.441884
C18	C	0.849272	0.054461	-0.383025
C19	C	0.765596	0.076529	-0.247954
C20	C	0.647961	0.081084	-0.209855
C21	C	0.613988	0.063578	-0.306816
C22	C	0.966920	0.049906	-0.421131
C23	C	0.917206	0.089474	-0.189095
C24	C	0.799569	0.094035	-0.150993
C25	C	1.340559	-0.108293	-0.434195
C26	C	1.338356	-0.201430	-0.433497
C27	C	1.440292	-0.442488	-0.466491
C28	C	1.407799	-0.508088	-0.553619
C29	C	1.334265	-0.371936	-0.432157
C30	C	1.362823	-0.472287	-0.343781
C31	C	1.330321	-0.536637	-0.430860
C32	C	1.301819	-0.436324	-0.519382
C33	C	1.256838	-0.400503	-0.309455
C34	C	1.224273	-0.466071	-0.396583
C35	C	1.336541	-0.277056	-0.432907
C36	C	1.328039	-0.631515	-0.430118
C37	C	1.538495	0.028862	-0.498292
C38	C	1.663701	0.024010	-0.538852
C39	C	1.324022	0.199718	-0.428812
C40	C	1.326226	0.292853	-0.429518
N41	N	1.267414	0.097352	-0.128633
N42	N	1.397175	-0.005934	-0.734374
C43	C	1.488226	-0.078429	0.173784
C44	C	1.516908	-0.101265	0.039831
C45	C	1.454537	-0.051613	-0.002292
C46	C	1.363479	0.020880	0.089552
C47	C	1.334799	0.043722	0.223517
C48	C	1.301110	0.070538	0.047441
C49	C	1.210052	0.143031	0.139285
C50	C	1.181377	0.165869	0.273236
C51	C	1.243749	0.116217	0.315359
C52	C	1.329789	0.047695	-0.086524
C53	C	1.176363	0.169847	-0.036791
C54	C	1.147680	0.192683	0.097162
H55	H	0.994772	0.011179	-0.646092
N56	N	0.487106	0.068491	-0.265720
H57	H	0.458168	0.024840	-0.213962
H58	H	0.439945	0.129896	-0.208075
H59	H	0.944865	0.103727	-0.110141
H60	H	1.539006	-0.118845	0.208090
H61	H	1.477894	-0.070210	-0.111363
N62	N	1.212819	0.140848	0.459839
H63	H	1.222301	0.202577	0.486800
H64	H	1.129294	0.138028	0.516838
N65	N	1.083164	0.244054	0.372300
H66	H	1.047996	0.272039	0.325296
H67	H	1.021425	0.223927	0.444023
H68	H	1.531645	-0.431629	-0.496177
H69	H	1.471582	-0.554489	-0.656837
N70	N	0.955260	-0.026422	-0.857694
H71	H	0.915891	-0.036821	-0.913337
H72	H	0.996007	0.023336	-0.875601
N73	N	1.049472	0.270868	0.196234
H74	H	1.080660	0.315315	0.237852
H75	H	1.014340	0.298789	0.149150
N76	N	1.615114	-0.179446	-0.059225
H77	H	1.650273	-0.207436	-0.012217
H78	H	1.583848	-0.223834	-0.100819
N79	N	0.710737	-0.016945	-0.778489
H80	H	0.623516	-0.010714	-0.733851
H81	H	0.732991	0.026132	-0.832852
H82	H	0.579836	0.099038	-0.099872
H83	H	1.276093	-0.420318	-0.593695
N84	N	1.057154	0.026104	-0.566807
H85	H	1.038389	0.070762	-0.607928
H86	H	1.136800	0.025857	-0.576134
H87	H	0.731425	0.112003	-0.041016
H88	H	1.132884	-0.476792	-0.367037
H89	H	1.193093	-0.354089	-0.206246
H90	H	1.388618	-0.488423	-0.269584
N91	N	1.109075	0.223411	-0.082193
H92	H	1.164060	0.248904	-0.151737
H93	H	1.071047	0.184360	-0.121521
N94	N	1.427985	-0.030490	-0.185585
H95	H	1.503041	-0.020971	-0.188218
H96	H	1.409919	-0.085428	-0.158012
