data_functionalizedCrystal
_audit_creation_method	'MofGen! by Chris Wilmer'
_symmetry_space_group_name_H-M	'P1'
_symmetry_Int_Tables_number	1
_symmetry_cell_setting	triclinic
loop_
_symmetry_equiv_pos_as_xyz
  x,y,z
_cell_length_a	18.215407
_cell_length_b	17.640280
_cell_length_c	18.215399
_cell_angle_alpha	101.224603
_cell_angle_beta	90.017368
_cell_angle_gamma	78.798252
loop_
_atom_site_label
_atom_site_type_symbol
_atom_site_fract_x
_atom_site_fract_y
_atom_site_fract_z
Zn1	Zn	1.184378	-0.314728	0.356899
Zn2	Zn	1.209194	-0.446906	0.208984
Zn3	Zn	1.061314	-0.314746	0.233848
Zn4	Zn	1.086174	-0.446855	0.332023
O5	O	1.135265	-0.380809	0.282939
O6	O	1.290657	-0.332275	0.337283
O7	O	1.189559	-0.429404	0.109292
O8	O	1.056849	-0.204139	0.270988
O9	O	1.308889	-0.429386	0.228610
O10	O	1.147264	-0.204125	0.361393
O11	O	1.080912	-0.332307	0.127560
O12	O	0.961625	-0.332258	0.246867
O13	O	1.099220	-0.429299	0.438313
O14	O	0.979890	-0.429317	0.318996
O15	O	1.171370	-0.332225	0.456589
O16	O	1.213664	-0.557505	0.204488
O17	O	1.123282	-0.557467	0.294885
C18	C	0.944054	-0.380785	0.282930
C19	C	0.862257	-0.380793	0.282941
C20	C	0.664588	-0.330332	0.339581
C21	C	0.587731	-0.330338	0.339583
C22	C	0.606698	-0.431308	0.226305
C23	C	0.683553	-0.431297	0.226301
C24	C	0.712497	-0.380810	0.282943
C25	C	0.558784	-0.380828	0.282948
C26	C	0.475452	-0.380836	0.282949
C27	C	0.795834	-0.380801	0.282942
C28	C	1.173884	-0.586165	0.244305
C29	C	1.190473	-0.674017	0.227802
C30	C	1.009545	-0.962991	0.408577
C31	C	1.025134	-1.045542	0.393046
C32	C	1.119307	-1.045515	0.299011
C33	C	1.103729	-0.962963	0.314536
C34	C	1.048846	-0.921708	0.369319
C35	C	1.143030	-0.921680	0.275279
C36	C	1.127449	-0.839135	0.290800
C37	C	1.072568	-0.797873	0.345579
C38	C	1.033266	-0.839163	0.384841
C39	C	1.197908	-0.962937	0.220493
C40	C	1.237209	-0.921653	0.181235
C41	C	1.221633	-0.839107	0.196760
C42	C	1.166752	-0.797845	0.251539
C43	C	1.260935	-0.797817	0.157498
C44	C	1.245355	-0.715272	0.173020
C45	C	1.151171	-0.715300	0.267060
C46	C	1.327223	-0.380834	0.282947
C47	C	1.409024	-0.380845	0.282951
C48	C	1.135300	-0.380754	0.474902
C49	C	1.135314	-0.380731	0.556705
C50	C	1.096515	-0.174651	0.321739
C51	C	1.080003	-0.086799	0.338273
C52	C	1.135262	-0.380806	0.091733
C53	C	1.135348	-0.380607	0.009972
C54	C	1.172891	-0.330138	0.754426
C55	C	1.172895	-0.330115	0.831289
C56	C	1.097767	-0.431203	0.812246
C57	C	1.097758	-0.431221	0.735385
C58	C	1.135325	-0.380690	0.706477
C59	C	1.135338	-0.380648	0.860200
C60	C	1.135342	-0.380624	0.943539
C61	C	1.135319	-0.380713	0.623133
H62	H	1.106486	-0.681709	0.311675
H63	H	1.277358	-0.681659	0.141051
H64	H	1.067162	-0.472386	0.696343
C65	C	0.749010	-0.319469	0.440633
C66	C	0.696403	-0.274833	0.401838
H67	H	0.768645	-0.285203	0.479070
H68	H	0.788539	-0.349523	0.406903
H69	H	0.725517	-0.353945	0.462246
H70	H	0.719897	-0.240361	0.380221
H71	H	0.656867	-0.244766	0.435573
C72	C	0.499295	-0.319507	0.440633
C73	C	0.535069	-0.274855	0.401843
H74	H	0.466781	-0.285250	0.479067
H75	H	0.535774	-0.353972	0.462242
H76	H	0.471058	-0.349571	0.406894
H77	H	0.563310	-0.244795	0.435580
H78	H	0.498585	-0.240376	0.380233
H79	H	0.583123	-0.472414	0.180189
H80	H	1.067184	-0.472345	0.835792
H81	H	1.203484	-0.288949	0.870327
H82	H	0.988580	-0.805571	0.429456
H83	H	0.722562	-0.472403	0.180175
H84	H	0.993135	-1.079152	0.425027
C85	C	1.269812	-0.319177	0.670072
C86	C	1.214174	-0.274587	0.722649
H87	H	1.295299	-0.284878	0.650460
H88	H	1.247439	-0.349281	0.630517
H89	H	1.304440	-0.353604	0.693585
H90	H	1.179543	-0.240164	0.699134
H91	H	1.236548	-0.244470	0.762210
C92	C	0.918023	-0.971300	0.499996
C93	C	0.949227	-0.917635	0.468806
H94	H	0.880787	-0.943297	0.537175
H95	H	0.956144	-1.003459	0.522120
H96	H	0.895967	-1.003531	0.461844
H97	H	0.971289	-0.885407	0.506957
H98	H	0.911100	-0.885463	0.446683
C99	C	1.031541	-0.679673	0.297783
C100	C	1.055440	-0.707138	0.362643
H101	H	1.020972	-0.623657	0.308319
H102	H	0.987594	-0.698387	0.281503
H103	H	1.069856	-0.698338	0.259544
H104	H	1.017123	-0.688477	0.400881
H105	H	1.099392	-0.688415	0.378934
H106	H	1.163990	-1.079117	0.254405
H107	H	1.281892	-0.955254	0.136629
C108	C	1.238958	-1.081130	0.268291
C109	C	1.215046	-1.053672	0.203431
H110	H	1.249544	-1.137146	0.257756
H111	H	1.200650	-1.062476	0.306528
H112	H	1.282905	-1.062400	0.284569
H113	H	1.171095	-1.072398	0.187156
H114	H	1.253357	-1.072335	0.165182
H115	H	1.305615	-0.831420	0.112889
