data_functionalizedCrystal
_audit_creation_method	'MofGen! by Chris Wilmer'
_symmetry_space_group_name_H-M	'P1'
_symmetry_Int_Tables_number	1
_symmetry_cell_setting	triclinic
loop_
_symmetry_equiv_pos_as_xyz
  x,y,z
_cell_length_a	18.760492
_cell_length_b	14.560438
_cell_length_c	14.560438
_cell_angle_alpha	89.999809
_cell_angle_beta	59.998431
_cell_angle_gamma	59.999761
loop_
_atom_site_label
_atom_site_type_symbol
_atom_site_fract_x
_atom_site_fract_y
_atom_site_fract_z
Zr1	Zr	0.780254	-0.120578	0.884721
O2	O	0.928965	-0.267229	0.738067
O3	O	0.631543	-0.075617	0.929684
O4	O	0.780253	-0.267225	0.929676
O5	O	0.780256	0.075518	0.738075
O6	O	0.780253	-0.267228	1.080815
O7	O	0.780254	-0.075621	0.738075
O8	O	0.514238	0.075524	1.080829
O9	O	1.046272	-0.267234	0.738061
O10	O	0.692711	-0.056450	1.061647
O11	O	0.692712	0.056345	0.948854
O12	O	0.867799	-0.169249	0.948845
O13	O	0.867800	-0.056454	0.836052
Zr14	Zr	0.780258	0.120465	1.125772
Zr15	Zr	0.780255	-0.120583	1.125771
Zr16	Zr	0.780258	0.120470	0.884723
Zr17	Zr	0.967346	-0.120587	0.884713
Zr18	Zr	0.593167	0.120474	1.125781
O19	O	0.928970	0.075504	1.080810
O20	O	0.928966	-0.267236	1.080808
O21	O	0.928969	0.075510	0.738069
O22	O	0.631548	0.267115	1.272427
O23	O	0.631544	-0.075624	1.272425
O24	O	0.631547	0.267122	0.929686
O25	O	0.780256	-0.075631	1.272418
O26	O	0.780260	0.267112	1.080818
O27	O	0.780260	0.267115	0.929679
O28	O	0.780258	0.075507	1.272419
O29	O	1.046272	-0.267238	0.929664
O30	O	0.514241	0.267125	1.080830
O31	O	0.514241	0.267121	1.272432
O32	O	0.514239	0.075520	1.272431
O33	O	1.046274	-0.075633	0.738062
O34	O	1.046275	-0.075637	0.929665
O35	O	0.692714	0.169136	1.061649
O36	O	0.692713	0.056341	1.174441
O37	O	0.867801	-0.056458	1.061639
O38	O	0.867802	0.056337	0.948846
C39	C	0.546234	-0.000046	1.005258
C40	C	0.466809	-0.000042	1.005261
C41	C	0.780255	-0.000051	0.703731
C42	C	0.780255	-0.000049	0.601399
C43	C	0.780260	0.301458	1.005248
C44	C	0.780262	0.403789	1.005249
C45	C	0.131015	0.058811	0.946356
C46	C	0.131018	-0.058949	1.064113
C47	C	0.205634	-0.058942	1.064122
C48	C	0.242944	-0.000060	1.005245
C49	C	0.205639	0.058817	0.946360
C50	C	0.242951	-0.117827	1.122997
C51	C	0.317572	-0.117824	1.123007
C52	C	0.354879	-0.058934	1.064136
C53	C	0.317569	-0.000054	1.005249
C54	C	0.354879	0.058829	0.946372
C55	C	0.317565	0.117716	0.887491
C56	C	0.242946	0.117707	0.887489
C57	C	0.429498	-0.058925	1.064138
C58	C	0.429504	0.058835	0.946376
C59	C	1.014279	-0.000068	1.005236
C60	C	1.093704	-0.000072	1.005232
C61	C	0.780252	-0.301571	1.005245
C62	C	0.780251	-0.403902	1.005245
C63	C	0.871654	0.392987	0.946369
C64	C	0.871649	0.489142	0.946363
C65	C	0.688852	0.606897	1.064126
C66	C	0.688857	0.510743	1.064125
C67	C	0.780259	0.083204	0.457160
C68	C	0.780254	0.083215	0.553315
C69	C	0.780251	-0.083322	0.553329
C70	C	0.780249	-0.083327	0.457180
C71	C	0.780258	-0.000063	1.306763
C72	C	0.780258	-0.000065	1.409095
C73	C	0.546235	-0.000051	1.306774
C74	C	0.466810	-0.000050	1.409109
C75	C	0.546238	0.301469	1.005259
C76	C	0.466814	0.403804	1.005263
C77	C	0.546239	0.301463	1.306775
C78	C	0.466815	0.403796	1.409112
C79	C	1.014274	-0.301576	0.703718
C80	C	1.093697	-0.403910	0.601382
C81	C	1.014278	-0.000062	0.703720
C82	C	1.093703	-0.000064	0.601384
C83	C	1.014275	-0.301582	1.005235
C84	C	1.093699	-0.403917	1.005230
C85	C	0.429511	-0.058934	1.398290
C86	C	0.354893	-0.058955	1.494436
C87	C	0.317571	-0.000084	1.601400
C88	C	0.354878	0.058803	1.612217
C89	C	0.429500	0.058816	1.516073
C90	C	0.429517	0.510747	1.064143
C91	C	0.354900	0.606911	1.064142
C92	C	0.317577	0.596129	1.005269
C93	C	0.354882	0.489175	0.946382
C94	C	0.429502	0.393013	0.946377
C95	C	0.429517	0.392975	1.516056
C96	C	0.354901	0.489118	1.612221
C97	C	0.317579	0.596082	1.601439
C98	C	0.354885	0.606901	1.494482
C99	C	0.429505	0.510759	1.398320
C100	C	1.131005	-0.393088	0.494437
C101	C	1.205645	-0.489232	0.398273
C102	C	1.242970	-0.596196	0.409055
C103	C	1.205659	-0.607014	0.516011
C104	C	1.131026	-0.510872	0.612174
C105	C	1.131010	0.058811	0.612204
C106	C	1.205648	0.058805	0.516058
C107	C	1.242973	-0.000069	0.409094
C108	C	1.205662	-0.058952	0.398276
C109	C	1.131030	-0.058952	0.494421
C110	C	1.130998	-0.393099	1.064116
C111	C	1.205615	-0.489245	1.064134
C112	C	1.242937	-0.596207	1.005259
C113	C	1.205630	-0.607023	0.946372
C114	C	1.131009	-0.510878	0.946361
H115	H	0.347958	0.165652	0.839548
N116	N	1.245859	-0.477572	1.127633
H117	H	1.232865	-0.514822	1.186898
H118	H	1.210883	-0.395203	1.164843
N119	N	0.314650	0.477445	1.727575
H120	H	0.327640	0.514692	1.770104
H121	H	0.349623	0.395075	1.719718
H122	H	0.459897	-0.106888	1.311203
N123	N	0.780258	0.173031	0.605143
H124	H	0.842410	0.136709	0.604996
H125	H	0.718062	0.216768	0.685050
H126	H	0.946070	0.480338	0.898415
H127	H	0.459860	0.305939	0.898434
H128	H	0.780246	-0.151114	0.592488
H129	H	1.236010	-0.480401	0.311194
H130	H	0.324487	0.694004	1.485720
N131	N	1.323411	-0.699901	1.005288
H132	H	1.341371	-0.676807	1.051530
H133	H	1.385293	-0.746149	0.925519
H134	H	1.303741	-0.674472	0.330744
N135	N	1.090770	-0.277730	0.482786
H136	H	1.037828	-0.218454	0.559926
H137	H	1.059872	-0.268822	0.440259
H138	H	1.100623	-0.306014	1.112058
N139	N	1.245897	-0.722394	0.882868
H140	H	1.210950	-0.714671	0.845557
H141	H	1.232908	-0.764846	0.936937
H142	H	0.780245	-0.151135	0.418045
N143	N	0.314649	-0.122454	1.482761
H144	H	0.327643	-0.181721	1.520009
H145	H	0.349626	-0.159662	1.400390
H146	H	0.347948	-0.165771	1.170951
N147	N	1.245921	-0.722385	0.527632
H148	H	1.298857	-0.781640	0.450480
H149	H	1.188931	-0.731299	0.570139
H150	H	0.324480	0.106733	1.699321
H151	H	0.256816	0.674439	1.005282
H152	H	1.100651	-0.519696	0.699250
N153	N	0.237087	-0.000109	1.705089
H154	H	0.175169	0.033396	1.705121
H155	H	0.219180	0.046101	1.774442
N156	N	1.090793	-0.522565	0.882838
H157	H	1.147743	-0.565050	0.800475
H158	H	1.037842	-0.445400	0.891841
H159	H	0.614430	0.519547	1.112072
N160	N	0.469723	0.122336	1.527750
H161	H	0.434749	0.159626	1.610103
H162	H	0.456726	0.181538	1.490435
N163	N	0.469761	0.522393	1.127650
H164	H	0.434804	0.604739	1.164941
H165	H	0.544675	0.485056	1.073584
H166	H	0.324482	0.480412	0.898449
H167	H	1.100626	0.106761	0.699291
N168	N	1.245880	0.122317	0.527740
H169	H	1.210898	0.159621	0.610092
H170	H	1.232899	0.181509	0.490409
N171	N	0.090766	0.122325	0.882859
H172	H	0.103754	0.068328	0.823605
H173	H	0.125743	0.159626	0.845634
H174	H	1.303743	-0.000060	0.330816
H175	H	0.459875	0.106787	0.898433
H176	H	0.324536	0.693988	1.112099
N177	N	0.469753	0.277615	1.527703
H178	H	0.434794	0.285365	1.610050
H179	H	0.544668	0.235146	1.490366
N180	N	1.245912	-0.122432	0.282904
H181	H	1.188972	-0.091532	0.273903
H182	H	1.276890	-0.204790	0.273943
N183	N	0.090784	-0.122455	1.127619
H184	H	0.147724	-0.204820	1.096735
H185	H	0.037838	-0.113443	1.118665
N186	N	0.237096	0.699774	1.705162
H187	H	0.219134	0.676678	1.774544
H188	H	0.175219	0.746014	1.705119
H189	H	1.100657	-0.106891	0.485596
N190	N	0.469726	0.522429	1.282970
H191	H	0.500686	0.564906	1.273959
H192	H	0.412730	0.564882	1.274060
H193	H	0.212576	-0.165774	1.170926
N194	N	0.202697	0.181210	0.823987
H195	H	0.215694	0.127200	0.764734
H196	H	0.237666	0.218517	0.786761
H197	H	0.946081	0.305904	0.898426
N198	N	0.469751	-0.122441	1.127627
H199	H	0.412817	-0.091568	1.209996
H200	H	0.522697	-0.113482	1.118608
N201	N	0.590270	0.722252	1.127642
H202	H	0.604132	0.781528	1.118717
H203	H	0.550369	0.731143	1.209980
H204	H	0.780264	0.151003	0.418013
