data_functionalizedCrystal
_audit_creation_method	'MofGen! by Chris Wilmer'
_symmetry_space_group_name_H-M	'P1'
_symmetry_Int_Tables_number	1
_symmetry_cell_setting	triclinic
loop_
_symmetry_equiv_pos_as_xyz
  x,y,z
_cell_length_a	14.971506
_cell_length_b	10.540510
_cell_length_c	14.048226
_cell_angle_alpha	90.004622
_cell_angle_beta	90.001638
_cell_angle_gamma	84.067849
loop_
_atom_site_label
_atom_site_type_symbol
_atom_site_fract_x
_atom_site_fract_y
_atom_site_fract_z
O1	O	1.187849	0.165550	0.079162
O2	O	0.927562	0.185333	0.079162
O3	O	1.063658	-0.009334	0.079162
O4	O	1.051753	0.360217	0.079162
O5	O	1.063655	-0.009350	-0.079160
O6	O	0.927559	0.185317	-0.079159
O7	O	1.187846	0.165534	-0.079159
Zn8	Zn	1.057702	0.175423	-0.104296
Zn9	Zn	1.057706	0.175444	0.104299
O10	O	1.051750	0.360201	-0.079159
C11	C	0.894231	0.184436	0.000001
C12	C	0.794920	0.181771	0.000001
C13	C	0.357217	0.285964	0.000011
C14	C	0.450531	0.288458	0.000015
C15	C	0.507115	0.174083	0.000011
C16	C	0.470380	0.057207	0.000012
C17	C	0.377068	0.054714	0.000015
C18	C	0.664872	0.062411	0.000004
C19	C	0.758191	0.064903	-0.000000
C20	C	0.738335	0.296155	0.000005
C21	C	0.645023	0.293662	0.000007
C22	C	0.608295	0.176785	0.000007
C23	C	1.062769	-0.056636	0.000003
C24	C	1.060115	-0.197556	0.000009
C25	C	1.154660	-0.416075	-0.000354
C26	C	1.157491	-0.269511	0.000008
C27	C	1.010269	-0.241745	0.090416
C28	C	1.008128	-0.388482	0.090487
C29	C	1.006097	-0.388286	-0.089554
C30	C	1.010715	-0.241997	-0.090744
C31	C	1.221177	0.166431	0.000003
C32	C	1.320488	0.169096	0.000010
C33	C	1.052639	0.407503	0.000002
C34	C	1.055293	0.548423	0.000002
N35	N	1.057709	0.175449	0.246660
N36	N	1.057706	0.175408	-0.246657
C37	C	1.118087	0.089420	0.296477
C38	C	1.118090	0.089416	0.396135
C39	C	1.057711	0.175436	0.445973
C40	C	0.997331	0.261474	0.396148
C41	C	0.997332	0.261483	0.296492
C42	C	0.997331	0.261447	0.603862
C43	C	0.997328	0.261437	0.703525
C44	C	1.118089	0.089380	0.703505
C45	C	1.118090	0.089389	0.603849
C46	C	1.057709	0.175426	0.554031
H47	H	0.311151	0.379101	0.000008
H48	H	1.167255	0.019366	0.436696
H49	H	0.516459	-0.035919	0.000014
H50	H	0.347166	-0.040451	0.000015
H51	H	1.046985	-0.213799	-0.157627
H52	H	1.196492	-0.240612	-0.064798
C53	C	0.490927	0.417021	0.000004
N54	N	0.521352	0.513861	-0.000008
H55	H	0.634973	-0.032763	0.000008
H56	H	1.167251	0.019339	0.563272
H57	H	1.044888	-0.211271	0.157697
H58	H	0.804261	-0.028231	0.000004
H59	H	0.948168	0.331538	0.255931
C60	C	0.913426	-0.176627	0.094966
N61	N	0.840483	-0.127575	0.098392
H62	H	0.948162	0.331484	0.744098
H63	H	0.939623	-0.192131	-0.096204
C64	C	1.210485	-0.231717	0.087714
N65	N	1.250400	-0.203252	0.153781
C66	C	0.907332	-0.417119	-0.090387
N67	N	0.832946	-0.438849	-0.091011
C68	C	1.054164	-0.443325	0.181778
N69	N	1.088846	-0.484628	0.250537
H70	H	1.167250	0.019368	0.255906
C71	C	0.930905	0.356090	0.549065
N72	N	0.880871	0.427368	0.507791
H73	H	1.192596	-0.458463	-0.065190
C74	C	1.184523	-0.005244	0.758307
N75	N	1.234560	-0.076509	0.799588
H76	H	1.037040	-0.430823	-0.158083
C77	C	1.205619	-0.475407	0.086742
N78	N	1.243999	-0.520098	0.152345
C79	C	0.778737	0.424721	0.000013
N80	N	0.809172	0.521553	0.000018
H81	H	0.598953	0.386796	0.000005
C82	C	0.909738	-0.418444	0.096048
N83	N	0.835633	-0.441007	0.100246
H84	H	0.948172	0.331519	0.436732
