data_functionalizedCrystal
_audit_creation_method	'MofGen! by Chris Wilmer'
_symmetry_space_group_name_H-M	'P1'
_symmetry_Int_Tables_number	1
_symmetry_cell_setting	triclinic
loop_
_symmetry_equiv_pos_as_xyz
  x,y,z
_cell_length_a	14.519709
_cell_length_b	16.992694
_cell_length_c	16.053802
_cell_angle_alpha	92.750953
_cell_angle_beta	92.569364
_cell_angle_gamma	92.825816
loop_
_atom_site_label
_atom_site_type_symbol
_atom_site_fract_x
_atom_site_fract_y
_atom_site_fract_z
O1	O	0.191936	-1.043963	-0.069327
O2	O	0.189789	-0.815676	-0.069352
O3	O	0.057059	-0.935872	-0.069332
O4	O	0.324666	-0.923768	-0.069348
O5	O	0.064333	-0.929256	0.069526
O6	O	0.197063	-0.809060	0.069506
O7	O	0.199210	-1.037348	0.069530
Zn8	Zn	0.199291	-0.922154	0.091565
Zn9	Zn	0.189708	-0.930870	-0.091386
O10	O	0.331940	-0.917152	0.069510
C11	C	0.026296	-0.932000	0.000097
C12	C	-0.076207	-0.930309	0.000098
C13	C	0.190666	-0.783152	0.000074
C14	C	0.182430	-0.696097	0.000065
C15	C	0.198333	-1.069872	0.000103
C16	C	0.206569	-1.156927	0.000106
C17	C	-0.451551	-0.924087	0.000075
C18	C	-0.347118	-0.925815	0.000082
C19	C	-0.263882	-0.927198	0.000087
C20	C	-0.159443	-0.928926	0.000092
C21	C	0.362703	-0.921024	0.000079
C22	C	0.465206	-0.922715	0.000073
N23	N	0.205832	-0.916210	0.216424
C24	C	0.261890	-0.645968	0.000061
C25	C	0.254147	-0.564170	0.000073
C26	C	0.166943	-0.532503	0.000083
C27	C	0.087478	-0.582638	0.000089
C28	C	0.095222	-0.664434	0.000083
C29	C	0.134847	-0.288859	0.000107
C30	C	0.127109	-0.207056	0.000111
C31	C	0.293779	-0.188594	0.000095
C32	C	0.301515	-0.270393	0.000084
C33	C	0.222050	-0.320520	0.000095
N34	N	0.159027	-0.448892	0.000092
N35	N	0.229968	-0.404129	0.000092
N36	N	0.183161	-0.936820	-0.216246
C37	C	0.149377	-0.967373	0.260127
C38	C	0.153962	-0.963222	0.347533
C39	C	0.215006	-0.907913	0.391235
C40	C	0.271462	-0.856746	0.347526
C41	C	0.266872	-0.860893	0.260121
C42	C	0.235027	-0.889799	0.652641
C43	C	0.239615	-0.885658	0.740052
C44	C	0.122113	-0.992134	0.740053
C45	C	0.117533	-0.996279	0.652646
C46	C	0.173985	-0.945109	0.608945
N47	N	0.219695	-0.903672	0.480578
N48	N	0.169291	-0.949347	0.519604
H49	H	0.332900	-0.671745	0.000052
H50	H	0.067826	-1.041316	0.617066
H51	H	0.070141	-0.329663	0.000117
H52	H	0.016475	-0.556847	0.000110
H53	H	0.321162	-0.811708	0.383113
H54	H	0.312842	-0.819230	0.224539
H55	H	0.372525	-0.296170	0.000066
H56	H	0.318852	-0.523358	0.000068
C57	C	0.082227	-1.028215	0.212059
C58	C	0.077174	-1.032783	0.115918
C59	C	0.010019	-1.093625	0.067853
C60	C	-0.052083	-1.149898	0.115930
C61	C	-0.047032	-1.145332	0.212077
C62	C	0.020123	-1.084490	0.260142
H63	H	0.123148	-0.991124	0.080323
H64	H	0.006281	-1.097005	-0.003321
H65	H	-0.101795	-1.194937	0.080350
H66	H	-0.093006	-1.186990	0.247672
H67	H	0.023861	-1.081110	0.331316
C68	C	0.060010	-1.048413	0.788124
C69	C	-0.009655	-1.014827	0.848225
C70	C	-0.071764	-1.071107	0.896295
C71	C	-0.064209	-1.160973	0.884264
C72	C	0.005459	-1.194564	0.824160
C73	C	0.067568	-1.138284	0.776090
H74	H	-0.015250	-0.948298	0.857134
H75	H	-0.123337	-1.046240	0.940788
H76	H	-0.110186	-1.202635	0.919849
H77	H	0.011055	-1.261093	0.815252
H78	H	0.119141	-1.163151	0.731597
C79	C	0.306765	-0.824810	0.788122
C80	C	0.368858	-0.768525	0.740050
C81	C	0.436007	-0.707681	0.788118
C82	C	0.441063	-0.703123	0.884260
C83	C	0.378969	-0.759409	0.932338
C84	C	0.311820	-0.820253	0.884269
H85	H	0.365117	-0.771898	0.668875
H86	H	0.481974	-0.666014	0.752527
H87	H	0.490771	-0.658083	0.919843
H88	H	0.382710	-0.756036	1.003512
H89	H	0.265853	-0.861920	0.919860
C90	C	0.381186	-0.133452	0.000092
C91	C	0.395008	-0.078101	-0.072008
C92	C	0.482420	-0.022958	-0.072006
C93	C	0.556010	-0.023166	0.000094
C94	C	0.542191	-0.078519	0.072200
C95	C	0.454779	-0.133662	0.072199
H96	H	0.340530	-0.077945	-0.125386
H97	H	0.492650	0.018017	-0.125384
H98	H	0.620718	0.017653	0.000095
H99	H	0.596669	-0.078675	0.125578
H100	H	0.444549	-0.174637	0.125576
C101	C	0.007815	-0.719580	0.000086
C102	C	-0.058219	-0.712525	0.072198
C103	C	-0.145628	-0.767670	0.072205
C104	C	-0.167002	-0.829871	0.000101
C105	C	-0.100966	-0.836928	-0.072016
C106	C	-0.013557	-0.781783	-0.072023
H107	H	-0.042398	-0.666478	0.125578
H108	H	-0.194512	-0.762445	0.125591
H109	H	-0.231707	-0.870692	0.000107
H110	H	-0.116787	-0.882975	-0.125396
H111	H	0.035327	-0.787008	-0.125409
H112	H	0.107992	-1.004882	0.383115
H113	H	0.056094	-0.181277	0.000118
H114	H	0.280995	-0.848135	0.617067
