data_functionalizedCrystal
_audit_creation_method	'MofGen! by Chris Wilmer'
_symmetry_space_group_name_H-M	'P1'
_symmetry_Int_Tables_number	1
_symmetry_cell_setting	triclinic
loop_
_symmetry_equiv_pos_as_xyz
  x,y,z
_cell_length_a	17.000371
_cell_length_b	17.019294
_cell_length_c	9.730223
_cell_angle_alpha	86.119703
_cell_angle_beta	89.999521
_cell_angle_gamma	79.505866
loop_
_atom_site_label
_atom_site_type_symbol
_atom_site_fract_x
_atom_site_fract_y
_atom_site_fract_z
O1	O	1.056066	0.028424	-0.117659
O2	O	1.556066	0.528424	0.382341
O3	O	0.824300	0.057056	-0.121048
O4	O	1.324300	0.557056	0.378952
O5	O	0.946649	-0.072541	-0.105704
O6	O	1.446649	0.427459	0.394296
O7	O	0.933717	0.158021	-0.133003
O8	O	1.433717	0.658021	0.366997
O9	O	0.946648	-0.072538	0.122876
O10	O	1.446648	0.427462	0.622876
O11	O	0.824299	0.057059	0.107531
O12	O	1.324299	0.557059	0.607531
O13	O	1.056064	0.028427	0.110921
O14	O	1.556064	0.528427	0.610921
Zn15	Zn	0.940181	0.042744	0.145518
Zn16	Zn	1.440181	0.542744	0.645518
Zn17	Zn	0.940183	0.042739	-0.155646
Zn18	Zn	1.440183	0.542739	0.344354
O19	O	0.933716	0.158024	0.095576
O20	O	1.433716	0.658024	0.595576
C21	C	0.794644	0.058595	-0.006941
C22	C	1.294644	0.558595	0.493059
C23	C	0.706280	0.063168	-0.007482
C24	C	1.206280	0.563168	0.492518
C25	C	0.674335	-0.007205	0.000853
C26	C	1.174335	0.492795	0.500853
C27	C	0.591307	-0.002903	0.000334
C28	C	1.091307	0.497097	0.500334
C29	C	0.540226	0.071772	-0.008511
C30	C	1.040226	0.571772	0.491489
C31	C	0.572176	0.142151	-0.016851
C32	C	1.072176	0.642151	0.483149
C33	C	0.655203	0.137849	-0.016341
C34	C	1.155203	0.637849	0.483659
C35	C	0.289061	0.088391	-0.010488
C36	C	0.789061	0.588391	0.489512
C37	C	0.206030	0.092688	-0.010993
C38	C	0.706030	0.592688	0.489007
C39	C	0.225166	-0.052367	0.006189
C40	C	0.725166	0.447633	0.506189
C41	C	0.308193	-0.056663	0.006706
C42	C	0.808193	0.443337	0.506706
C43	C	0.340136	0.013716	-0.001641
C44	C	0.840136	0.513716	0.498359
C45	C	0.455358	0.076171	-0.009037
C46	C	0.955358	0.576171	0.490963
C47	C	0.425003	0.009316	-0.001124
C48	C	0.925003	0.509316	0.498876
C49	C	0.946158	-0.101894	0.012059
C50	C	1.446158	0.398106	0.512059
C51	C	0.944687	-0.189363	0.022407
C52	C	1.444687	0.310637	0.522407
C53	C	0.943999	-0.230453	-0.097330
C54	C	1.443999	0.269547	0.402670
C55	C	0.942612	-0.312637	-0.087602
C56	C	1.442612	0.187363	0.412398
C57	C	0.941919	-0.353731	0.041863
C58	C	1.441919	0.146269	0.541863
C59	C	0.942605	-0.312635	0.161608
C60	C	1.442605	0.187365	0.661608
C61	C	0.943986	-0.230451	0.151879
C62	C	1.443986	0.269549	0.651879
C63	C	0.937744	-0.601874	0.077470
C64	C	1.437744	-0.101874	0.577470
C65	C	0.936365	-0.684064	0.087190
C66	C	1.436365	-0.184064	0.587190
C67	C	0.936371	-0.684061	-0.162022
C68	C	1.436371	-0.184061	0.337978
C69	C	0.937757	-0.601876	-0.171739
C70	C	1.437757	-0.101876	0.328261
C71	C	0.938438	-0.560786	-0.051994
C72	C	1.438438	-0.060786	0.448006
C73	C	0.940504	-0.437738	0.051808
C74	C	1.440504	0.062262	0.551808
C75	C	0.939848	-0.476780	-0.061941
C76	C	1.439848	0.023220	0.438059
C77	C	1.085720	0.026888	-0.003190
C78	C	1.585720	0.526888	0.496810
C79	C	1.174084	0.022315	-0.002658
C80	C	1.674084	0.522315	0.497342
C81	C	0.934207	0.187377	-0.022190
C82	C	1.434207	0.687377	0.477810
C83	C	0.935677	0.274846	-0.032547
C84	C	1.435677	0.774846	0.467453
N85	N	0.940186	0.042745	0.351054
N86	N	1.440186	0.542745	0.851054
N87	N	0.940185	0.042731	-0.361181
N88	N	1.440185	0.542731	0.138819
C89	C	0.994376	-0.014623	0.429773
C90	C	1.494376	0.485377	0.929773
C91	C	0.994374	-0.014632	0.573657
C92	C	1.494374	0.485368	1.073657
C93	C	0.885989	0.100102	0.560090
C94	C	1.385989	0.600102	1.060090
C95	C	0.885988	0.100107	0.416209
C96	C	1.385988	0.600107	0.916209
C97	C	1.048573	-0.071985	0.364618
C98	C	1.548573	0.428015	0.864618
C99	C	1.102768	-0.129357	0.443337
C100	C	1.602768	0.370643	0.943337
C101	C	1.102766	-0.129367	0.587221
C102	C	1.602766	0.370633	1.087221
C103	C	1.048569	-0.072004	0.652386
C104	C	1.548569	0.427996	1.152386
H105	H	0.715920	-0.068014	0.008061
H106	H	1.215920	0.431986	0.508061
H107	H	0.935797	-0.717520	0.192621
H108	H	1.435797	-0.217520	0.692621
H109	H	0.565302	-0.060209	0.007120
H110	H	1.065302	0.439791	0.507120
H111	H	0.530579	0.202954	-0.024061
H112	H	1.030579	0.702954	0.475939
H113	H	0.938322	-0.568423	-0.277163
H114	H	1.438322	-0.068423	0.222837
H115	H	1.146888	-0.176086	0.651313
H116	H	1.646888	0.323914	1.151313
H117	H	0.413759	0.136972	-0.016237
H118	H	0.913759	0.636972	0.483763
H119	H	0.681211	0.195154	-0.023122
H120	H	1.181211	0.695154	0.476878
H121	H	0.942036	-0.346100	0.267021
H122	H	1.442036	0.153900	0.767021
H123	H	0.935814	-0.717525	-0.259511
H124	H	1.435814	-0.217525	0.240489
H125	H	0.939943	-0.471206	0.157219
H126	H	1.439943	0.028794	0.657219
H127	H	0.938315	-0.568431	0.174976
H128	H	1.438315	-0.068431	0.674976
H129	H	0.942055	-0.346090	-0.185105
H130	H	1.442055	0.153910	0.314895
H131	H	0.944536	-0.196994	0.249381
H132	H	1.444536	0.303006	0.749381
H133	H	0.315059	0.145698	-0.017294
H134	H	0.815059	0.645698	0.482706
H135	H	1.048581	-0.071981	0.247460
H136	H	1.548581	0.428019	0.747460
H137	H	0.841865	0.146806	0.613157
H138	H	1.341865	0.646806	1.113157
H139	H	0.940406	-0.443316	-0.167351
H140	H	1.440406	0.056684	0.332649
H141	H	0.841861	0.146821	0.352115
H142	H	1.341861	0.646821	0.852115
H143	H	0.944568	-0.197001	-0.202754
H144	H	1.444568	0.302999	0.297246
H145	H	1.146889	-0.176065	0.390272
H146	H	1.646889	0.323935	0.890272
H147	H	1.048567	-0.072021	0.769547
H148	H	1.548567	0.427979	1.269547
H149	H	0.349779	-0.117472	0.013914
H150	H	0.849779	0.382528	0.513914
H151	H	0.199148	-0.109666	0.012969
H152	H	0.699148	0.390334	0.512969
H153	H	0.164440	0.153501	-0.018189
H154	H	0.664440	0.653501	0.481811
H155	H	0.466597	-0.051484	0.006069
H156	H	0.966597	0.448516	0.506069
