data_functionalizedCrystal
_audit_creation_method	'MofGen! by Chris Wilmer'
_symmetry_space_group_name_H-M	'P1'
_symmetry_Int_Tables_number	1
_symmetry_cell_setting	triclinic
loop_
_symmetry_equiv_pos_as_xyz
  x,y,z
_cell_length_a	19.288867
_cell_length_b	19.288855
_cell_length_c	17.766277
_cell_angle_alpha	89.992874
_cell_angle_beta	89.995769
_cell_angle_gamma	83.134656
loop_
_atom_site_label
_atom_site_type_symbol
_atom_site_fract_x
_atom_site_fract_y
_atom_site_fract_z
O1	O	-0.921346	-0.086654	0.062572
O2	O	-0.421346	0.413346	0.562572
O3	O	-0.719085	-0.098342	0.062580
O4	O	-0.219085	0.401658	0.562580
O5	O	-0.826063	0.008633	0.062566
O6	O	-0.326063	0.508633	0.562566
O7	O	-0.814367	-0.193629	0.062586
O8	O	-0.314367	0.306371	0.562586
O9	O	-0.826051	0.008635	-0.062623
O10	O	-0.326051	0.508635	0.437377
O11	O	-0.719073	-0.098339	-0.062609
O12	O	-0.219073	0.401661	0.437391
O13	O	-0.921334	-0.086652	-0.062616
O14	O	-0.421334	0.413348	0.437384
Cu15	Cu	-0.820202	-0.092495	-0.074043
Cu16	Cu	-0.320202	0.407505	0.425957
Cu17	Cu	-0.820216	-0.092498	0.074007
Cu18	Cu	-0.320216	0.407502	0.574007
O19	O	-0.814355	-0.193626	-0.062602
O20	O	-0.314355	0.306374	0.437398
C21	C	-0.693202	-0.097964	-0.000013
C22	C	-0.193202	0.402036	0.499987
C23	C	-0.616099	-0.096835	-0.000011
C24	C	-0.116099	0.403165	0.499989
C25	C	-0.825682	0.034511	-0.000029
C26	C	-0.325682	0.534511	0.499971
C27	C	-0.824556	0.111615	-0.000032
C28	C	-0.324556	0.611615	0.499968
N29	N	-0.820198	-0.092493	-0.178174
N30	N	-0.320198	0.407507	0.321826
C31	C	-0.947216	-0.087029	-0.000021
C32	C	-0.447216	0.412971	0.499979
C33	C	-1.024320	-0.088159	-0.000019
C34	C	-0.524320	0.411841	0.499981
C35	C	-0.060540	-0.088700	0.068220
C36	C	0.439460	0.411300	0.568220
C37	C	-0.132988	-0.089757	0.068223
C38	C	0.367012	0.410243	0.568223
C39	C	-0.169210	-0.090287	-0.000017
C40	C	0.330790	0.409713	0.499983
C41	C	-0.132981	-0.089743	-0.068265
C42	C	0.367019	0.410257	0.431735
C43	C	-0.060536	-0.088678	-0.068266
C44	C	0.439464	0.411322	0.431734
C45	C	-0.278531	-0.132654	-0.052294
C46	C	0.221469	0.367346	0.447706
C47	C	-0.350974	-0.133722	-0.052290
C48	C	0.149026	0.366278	0.447710
C49	C	-0.392655	-0.093566	-0.000017
C50	C	0.107345	0.406434	0.499983
C51	C	-0.361883	-0.052351	0.052265
C52	C	0.138117	0.447649	0.552265
C53	C	-0.289438	-0.051287	0.052264
C54	C	0.210562	0.448713	0.552264
C55	C	-0.247765	-0.091441	-0.000024
C56	C	0.252235	0.408559	0.499976
C57	C	-0.507432	-0.095252	0.068230
C58	C	-0.007432	0.404748	0.568230
C59	C	-0.579882	-0.096305	0.068230
C60	C	-0.079882	0.403695	0.568230
C61	C	-0.579873	-0.096298	-0.068260
C62	C	-0.079873	0.403702	0.431740
C63	C	-0.507425	-0.095238	-0.068258
C64	C	-0.007425	0.404762	0.431742
C65	C	-0.471209	-0.094719	-0.000011
C66	C	0.028791	0.405281	0.499989
C67	C	-0.824036	0.147824	0.068208
C68	C	-0.324036	0.647824	0.568208
C69	C	-0.822968	0.220270	0.068213
C70	C	-0.322968	0.720270	0.568213
C71	C	-0.822433	0.256506	-0.000026
C72	C	-0.322433	0.756506	0.499974
C73	C	-0.822949	0.220287	-0.068275
C74	C	-0.322949	0.720287	0.431725
C75	C	-0.824010	0.147842	-0.068278
C76	C	-0.324010	0.647842	0.431722
C77	C	-0.861431	0.376738	-0.052303
C78	C	-0.361431	0.876738	0.447697
C79	C	-0.860374	0.449183	-0.052297
C80	C	-0.360374	0.949183	0.447703
C81	C	-0.819157	0.479952	-0.000019
C82	C	-0.319157	0.979952	0.499981
C83	C	-0.779006	0.438268	0.052266
C84	C	-0.279006	0.938268	0.552266
C85	C	-0.780068	0.365822	0.052263
C86	C	-0.280068	0.865822	0.552263
C87	C	-0.821282	0.335061	-0.000030
C88	C	-0.321282	0.835061	0.499970
C89	C	-0.817479	0.594715	0.068231
C90	C	-0.317479	1.094715	0.568231
C91	C	-0.816406	0.667162	0.068234
C92	C	-0.316406	1.167162	0.568234
C93	C	-0.816394	0.667179	-0.068256
C94	C	-0.316394	1.167179	0.431744
C95	C	-0.817459	0.594733	-0.068257
C96	C	-0.317459	1.094733	0.431743
C97	C	-0.818005	0.558506	-0.000011
C98	C	-0.318005	1.058506	0.499989
C99	C	-0.814738	0.780496	-0.000008
C100	C	-0.314738	1.280496	0.499992
C101	C	-0.815870	0.703393	-0.000006
C102	C	-0.315870	1.203393	0.499994
C103	C	-0.867598	-0.045140	-0.782468
C104	C	-0.367598	0.454860	-0.282468
C105	C	-0.867599	-0.045142	-0.703667
C106	C	-0.367599	0.454858	-0.203667
C107	C	-0.820216	-0.092492	-0.664262
C108	C	-0.320216	0.407508	-0.164262
C109	C	-0.772842	-0.139856	-0.703666
C110	C	-0.272842	0.360144	-0.203666
C111	C	-0.772847	-0.139858	-0.782467
C112	C	-0.272847	0.360142	-0.282467
C113	C	-0.756924	-0.101761	-0.539428
C114	C	-0.256924	0.398239	-0.039428
C115	C	-0.756918	-0.101755	-0.460629
C116	C	-0.256918	0.398245	0.039371
C117	C	-0.820201	-0.092491	-0.421216
C118	C	-0.320201	0.407509	0.078784
C119	C	-0.883493	-0.083218	-0.460612
C120	C	-0.383493	0.416782	0.039388
C121	C	-0.883498	-0.083220	-0.539412
C122	C	-0.383498	0.416780	-0.039412
C123	C	-0.820206	-0.092496	-0.578817
C124	C	-0.320206	0.407504	-0.078817
C125	C	-0.867577	-0.045135	-0.296376
C126	C	-0.367577	0.454865	0.203624
C127	C	-0.867579	-0.045141	-0.217572
C128	C	-0.367579	0.454859	0.282428
C129	C	-0.772817	-0.139852	-0.217574
C130	C	-0.272817	0.360148	0.282426
C131	C	-0.772821	-0.139849	-0.296375
C132	C	-0.272821	0.360151	0.203625
C133	C	-0.820200	-0.092487	-0.335772
C134	C	-0.320200	0.407513	0.164228
N135	N	-0.820226	-0.092495	0.178137
N136	N	-0.320226	0.407505	0.678137
H137	H	-0.031058	-0.088274	0.123792
H138	H	0.468942	0.411726	0.623792
H139	H	-0.824430	0.118360	-0.123849
H140	H	-0.324430	0.618360	0.376151
H141	H	-0.906178	-0.006576	-0.814543
H142	H	-0.406178	0.493424	-0.314543
C143	C	-0.904537	0.495028	-0.109808
C144	C	-0.404537	0.995028	0.390192
H145	H	-0.929226	0.466328	-0.140952
H146	H	-0.429226	0.966328	0.359048
H147	H	-0.936843	0.527668	-0.083926
H148	H	-0.436843	1.027668	0.416074
H149	H	-0.874781	0.519363	-0.140038
H150	H	-0.374781	1.019363	0.359962
H151	H	-0.815953	0.696681	-0.123818
H152	H	-0.315953	1.196681	0.376182
H153	H	-0.906175	-0.006578	-0.671586
H154	H	-0.406175	0.493422	-0.171586
H155	H	-0.734264	-0.178411	-0.671579
H156	H	-0.234264	0.321589	-0.171579
H157	H	-0.609364	-0.096727	-0.123822
H158	H	-0.109364	0.403273	0.376178
C159	C	-0.687304	-0.111976	-0.417297
C160	C	-0.187304	0.388024	0.082703
H161	H	-0.696363	-0.110646	-0.364722
H162	H	-0.196363	0.389354	0.135278
H163	H	-0.662417	-0.155855	-0.430215
H164	H	-0.162417	0.344145	0.069785
H165	H	-0.660188	-0.075726	-0.430214
H166	H	-0.160188	0.424274	0.069786
C167	C	-0.172838	-0.090360	0.143288
C168	C	0.327162	0.409640	0.643288
H169	H	-0.140892	-0.089904	0.183933
H170	H	0.359108	0.410096	0.683933
H171	H	-0.206529	-0.050283	0.146131
H172	H	0.293471	0.449717	0.646131
H173	H	-0.195667	-0.131280	0.146117
H174	H	0.304333	0.368720	0.646117
H175	H	-0.477944	-0.094827	0.123801
H176	H	0.022056	0.405173	0.623801
C177	C	-0.906772	0.342900	-0.109814
C178	C	-0.406772	0.842900	0.390186
H179	H	-0.930538	0.378100	-0.140943
H180	H	-0.430538	0.878100	0.359057
H181	H	-0.877853	0.310714	-0.140048
H182	H	-0.377853	0.810714	0.359952
H183	H	-0.939905	0.319018	-0.083924
H184	H	-0.439905	0.819018	0.416076
C185	C	-0.255588	-0.005951	0.109763
C186	C	0.244412	0.494049	0.609763
H187	H	-0.206473	-0.011074	0.102276
H188	H	0.293527	0.488926	0.602276
H189	H	-0.273855	0.041617	0.103181
H190	H	0.226145	0.541617	0.603181
H191	H	-0.265543	-0.020436	0.159308
H192	H	0.234457	0.479564	0.659308
C193	C	-0.735904	0.319970	0.109766
C194	C	-0.235904	0.819970	0.609766
H195	H	-0.742445	0.272419	0.102278
H196	H	-0.242445	0.772419	0.602278
H197	H	-0.687988	0.325446	0.103191
H198	H	-0.187988	0.825446	0.603191
H199	H	-0.750044	0.333750	0.159310
H200	H	-0.250044	0.833750	0.659310
C201	C	-0.619725	-0.096901	0.143297
C202	C	-0.119725	0.403099	0.643297
H203	H	-0.587776	-0.096445	0.183939
H204	H	-0.087776	0.403555	0.683939
H205	H	-0.653411	-0.056819	0.146138
H206	H	-0.153411	0.443181	0.646138
H207	H	-0.642559	-0.137817	0.146130
H208	H	-0.142559	0.362183	0.646130
H209	H	-0.477934	-0.094800	-0.123826
H210	H	0.022066	0.405200	0.376174
H211	H	-0.822541	0.249757	0.123784
H212	H	-0.322541	0.749757	0.623784
C213	C	-0.733664	0.472103	0.109774
C214	C	-0.233664	0.972103	0.609774
H215	H	-0.738774	0.521218	0.102284
H216	H	-0.238774	1.021218	0.602284
H217	H	-0.748146	0.462142	0.159314
H218	H	-0.248146	0.962142	0.659314
H219	H	-0.686094	0.453832	0.103190
H220	H	-0.186094	0.953832	0.603190
H221	H	-0.824479	0.118332	0.123779
H222	H	-0.324479	0.618332	0.623779
H223	H	-0.031045	-0.088241	-0.123836
H224	H	0.468955	0.411759	0.376164
H225	H	-0.162478	-0.090173	-0.123827
H226	H	0.337522	0.409827	0.376173
H227	H	-0.935032	-0.075672	-0.571485
H228	H	-0.435032	0.424328	-0.071485
C229	C	-0.407723	-0.008177	0.109769
C230	C	0.092277	0.491823	0.609769
H231	H	-0.455277	-0.014706	0.102278
H232	H	0.044723	0.485294	0.602278
H233	H	-0.393937	-0.022311	0.159310
H234	H	0.106063	0.477689	0.659310
H235	H	-0.402244	0.039742	0.103182
H236	H	0.097756	0.539742	0.603182
C237	C	-0.818071	0.554862	0.143297
C238	C	-0.318071	1.054862	0.643297
H239	H	-0.817598	0.586804	0.183941
H240	H	-0.317598	1.086804	0.683941
H241	H	-0.858982	0.532026	0.146133
H242	H	-0.358982	1.032026	0.646133
H243	H	-0.777985	0.521174	0.146133
H244	H	-0.277985	1.021174	0.646133
H245	H	-0.822511	0.249795	-0.123835
H246	H	-0.322511	0.749795	0.376165
C247	C	-0.953109	-0.073040	-0.417269
C248	C	-0.453109	0.426960	0.082731
H249	H	-0.944044	-0.074378	-0.364696
H250	H	-0.444044	0.425622	0.135304
H251	H	-0.978024	-0.029171	-0.430180
H252	H	-0.478024	0.470829	0.069820
H253	H	-0.980200	-0.109307	-0.430181
H254	H	-0.480200	0.390693	0.069819
C255	C	-0.919696	0.006954	-0.339718
C256	C	-0.419696	0.506954	0.160282
H257	H	-0.912908	0.000177	-0.392292
H258	H	-0.412908	0.500177	0.107708
H259	H	-0.966026	-0.000471	-0.326799
H260	H	-0.466026	0.499529	0.173201
H261	H	-0.912296	0.053294	-0.326810
H262	H	-0.412296	0.553294	0.173190
C263	C	-0.815832	0.706992	0.143302
C264	C	-0.315832	1.206992	0.643302
H265	H	-0.816314	0.675039	0.183943
H266	H	-0.316314	1.175039	0.683943
H267	H	-0.774921	0.729826	0.146145
H268	H	-0.274921	1.229826	0.646145
H269	H	-0.855918	0.740680	0.146134
H270	H	-0.355918	1.240680	0.646134
H271	H	-0.906158	-0.006581	-0.185497
H272	H	-0.406158	0.493419	0.314503
H273	H	-0.817888	0.565252	-0.123825
H274	H	-0.317888	1.065252	0.376175
C275	C	-0.384819	-0.179040	-0.109811
C276	C	0.115181	0.320960	0.390189
H277	H	-0.349624	-0.202788	-0.140957
H278	H	0.150376	0.297212	0.359043
H279	H	-0.408705	-0.212179	-0.083942
H280	H	0.091295	0.287821	0.416058
H281	H	-0.417004	-0.150101	-0.140039
H282	H	0.082996	0.349899	0.359961
H283	H	-0.734240	-0.178409	-0.185491
H284	H	-0.234240	0.321591	0.314509
H285	H	-0.244600	-0.165351	-0.094869
H286	H	0.255400	0.334649	0.405131
C287	C	-0.720707	-0.191936	-0.339711
C288	C	-0.220707	0.308064	0.160289
H289	H	-0.692484	-0.220134	-0.304960
H290	H	-0.192484	0.279866	0.195040
H291	H	-0.745602	-0.220786	-0.370443
H292	H	-0.245602	0.279214	0.129557
H293	H	-0.691873	-0.167020	-0.370459
H294	H	-0.191873	0.332980	0.129541
C295	C	-0.687311	-0.112064	-0.582774
C296	C	-0.187311	0.387936	-0.082774
H297	H	-0.649619	-0.117610	-0.548028
H298	H	-0.149619	0.382390	-0.048028
H299	H	-0.685851	-0.152537	-0.613463
H300	H	-0.185851	0.347463	-0.113463
H301	H	-0.683516	-0.072425	-0.613565
H302	H	-0.183516	0.427575	-0.113565
C303	C	-0.720727	-0.191942	-0.825802
C304	C	-0.220727	0.308058	-0.325802
H305	H	-0.692503	-0.220140	-0.791052
H306	H	-0.192503	0.279860	-0.291052
H307	H	-0.745615	-0.220792	-0.856541
H308	H	-0.245615	0.279208	-0.356541
H309	H	-0.691895	-0.167018	-0.856543
H310	H	-0.191895	0.332982	-0.356543
