data_functionalizedCrystal
_audit_creation_method	'MofGen! by Chris Wilmer'
_symmetry_space_group_name_H-M	'P1'
_symmetry_Int_Tables_number	1
_symmetry_cell_setting	triclinic
loop_
_symmetry_equiv_pos_as_xyz
  x,y,z
_cell_length_a	10.723024
_cell_length_b	19.188930
_cell_length_c	9.198806
_cell_angle_alpha	89.991701
_cell_angle_beta	89.996352
_cell_angle_gamma	83.806325
loop_
_atom_site_label
_atom_site_type_symbol
_atom_site_fract_x
_atom_site_fract_y
_atom_site_fract_z
O1	O	1.655155	0.097922	-0.120901
O2	O	1.291808	0.107295	-0.120908
O3	O	1.483967	0.001021	-0.120876
O4	O	1.462996	0.204196	-0.120933
O5	O	1.483952	0.001021	0.120909
O6	O	1.291793	0.107295	0.120877
O7	O	1.655140	0.097922	0.120884
Cu8	Cu	1.473465	0.102608	0.142957
Cu9	Cu	1.473483	0.102609	-0.142982
O10	O	1.462981	0.204196	0.120852
C11	C	1.245315	0.106613	-0.000016
C12	C	1.106803	0.104572	-0.000017
C13	C	1.030586	0.164037	-0.000035
C14	C	0.887427	0.161930	-0.000036
C15	C	1.483280	-0.024995	0.000021
C16	C	1.481242	-0.102512	0.000033
C17	C	1.593994	-0.146704	0.000042
C18	C	1.592079	-0.219540	0.000019
C19	C	1.477405	-0.248182	0.000016
C20	C	1.364638	-0.203981	-0.000002
C21	C	1.366556	-0.131146	0.000007
N22	N	1.389745	-0.356756	0.082298
N23	N	1.387930	-0.425947	0.082293
C24	C	1.471618	-0.467628	-0.000014
N25	N	1.557208	-0.437506	-0.082297
N26	N	1.559026	-0.368310	-0.082285
C27	C	1.475312	-0.327158	0.000005
C28	C	1.582302	-0.590797	-0.000032
C29	C	1.580382	-0.663634	-0.000065
C30	C	1.352937	-0.648073	-0.000070
C31	C	1.354860	-0.575238	-0.000053
C32	C	1.469546	-0.546604	-0.000027
C33	C	1.701633	0.098604	-0.000012
C34	C	1.840145	0.100645	-0.000020
C35	C	1.463668	0.230211	-0.000048
C36	C	1.465706	0.307729	-0.000070
N37	N	1.473462	0.102608	0.344071
N38	N	1.473496	0.102604	-0.344096
C39	C	1.554148	0.057789	0.416282
C40	C	1.554167	0.057787	0.583694
H41	H	0.821937	0.212836	-0.000057
O42	O	1.636527	0.011912	0.657608
C43	C	1.616274	-0.057271	0.620573
H44	H	1.568244	-0.057404	0.510033
H45	H	1.710111	-0.091317	0.615512
H46	H	1.554092	-0.079035	0.706225
O47	O	1.390891	0.148313	0.418100
C48	C	1.267309	0.136557	0.381014
H49	H	1.266691	0.080693	0.339088
H50	H	1.204759	0.144314	0.481190
H51	H	1.230546	0.175157	0.292778
H52	H	1.675686	-0.567482	-0.000018
O53	O	1.241464	-0.675806	0.000118
C54	C	1.172754	-0.653304	0.125358
H55	H	1.206476	-0.602638	0.167120
H56	H	1.068789	-0.643694	0.097190
H57	H	1.187432	-0.695385	0.213036
H58	H	1.687380	-0.123395	0.000058
O59	O	1.256941	-0.088286	-0.000187
C60	C	1.187314	-0.101323	-0.125435
H61	H	1.218257	-0.156413	-0.167195
H62	H	1.083214	-0.096701	-0.097277
H63	H	1.204166	-0.061399	-0.213110
O64	O	0.918382	0.039953	-0.000197
C65	C	0.994553	0.037306	-0.125438
H66	H	1.000709	0.092767	-0.167203
H67	H	1.092556	0.011832	-0.097270
H68	H	0.951990	0.005180	-0.213114
O69	O	1.391250	0.148415	0.581684
C70	C	1.458134	0.191686	0.493644
H71	H	1.555832	0.164223	0.470976
H72	H	1.406109	0.202498	0.386560
H73	H	1.466545	0.243327	0.552203
O74	O	1.636740	0.012043	0.342381
C75	C	1.760305	0.023840	0.379451
H76	H	1.760197	0.050705	0.489983
H77	H	1.821821	-0.028403	0.384548
H78	H	1.798814	0.058757	0.293801
H79	H	1.683899	-0.255527	0.000020
H80	H	1.066070	0.052101	-0.000040
O81	O	1.253321	-0.231882	-0.000196
C82	C	1.245405	-0.273524	-0.125439
H83	H	1.343856	-0.291186	-0.167182
H84	H	1.195926	-0.321452	-0.097281
H85	H	1.190033	-0.241609	-0.213127
O86	O	1.690031	-0.706464	0.000007
C87	C	1.791659	-0.665569	-0.000002
H88	H	1.759681	-0.611374	0.045780
H89	H	1.870627	-0.692061	0.070202
H90	H	1.826847	-0.660201	-0.115991
O91	O	1.245363	-0.532278	-0.000303
C92	C	1.239688	-0.489658	-0.125502
H93	H	1.303649	-0.516013	-0.213026
H94	H	1.139135	-0.481949	-0.167538
H95	H	1.271690	-0.436550	-0.097183
O96	O	1.079375	0.226578	-0.000110
C97	C	1.211452	0.214760	-0.000062
H98	H	1.242189	0.160407	-0.045825
H99	H	1.251303	0.256030	-0.070262
H100	H	1.247664	0.218286	0.115937
