data_functionalizedCrystal
_audit_creation_method	'MofGen! by Chris Wilmer'
_symmetry_space_group_name_H-M	'P1'
_symmetry_Int_Tables_number	1
_symmetry_cell_setting	triclinic
loop_
_symmetry_equiv_pos_as_xyz
  x,y,z
_cell_length_a	16.120530
_cell_length_b	17.640280
_cell_length_c	16.120704
_cell_angle_alpha	82.224934
_cell_angle_beta	89.859679
_cell_angle_gamma	104.611321
loop_
_atom_site_label
_atom_site_type_symbol
_atom_site_fract_x
_atom_site_fract_y
_atom_site_fract_z
Zn1	Zn	1.337048	0.401017	0.453696
Zn2	Zn	1.837048	0.901017	0.953696
Zn3	Zn	1.372191	0.526918	0.289251
Zn4	Zn	1.872191	1.026918	0.789251
Zn5	Zn	1.202064	0.387597	0.310321
Zn6	Zn	1.702064	0.887597	0.810321
Zn7	Zn	1.225969	0.526235	0.421357
Zn8	Zn	1.725969	1.026235	0.921357
O9	O	1.284318	0.460442	0.368656
O10	O	1.784318	0.960442	0.868656
O11	O	1.459395	0.423620	0.436598
O12	O	1.959395	0.923620	0.936598
O13	O	1.354326	0.503106	0.176756
O14	O	1.854326	1.003106	0.676756
O15	O	1.195258	0.278666	0.351692
O16	O	1.695258	0.778666	0.851692
O17	O	1.485214	0.516119	0.315781
O18	O	1.985214	1.016119	0.815781
O19	O	1.294430	0.288526	0.457029
O20	O	1.794430	0.788526	0.957029
O21	O	1.229335	0.400748	0.192236
O22	O	1.729335	0.900748	0.692236
O23	O	1.087550	0.400086	0.320334
O24	O	1.587550	0.900086	0.820334
O25	O	1.236000	0.514956	0.540937
O26	O	1.736000	1.014956	1.040937
O27	O	1.105112	0.501943	0.401912
O28	O	1.605112	1.001943	0.901912
O29	O	1.317609	0.422958	0.564696
O30	O	1.817609	0.922958	1.064696
O31	O	1.377506	0.637539	0.284424
O32	O	1.877506	1.137539	0.784424
O33	O	1.270077	0.637037	0.381482
O34	O	1.770077	1.137037	0.881482
C35	C	1.065816	0.449484	0.359901
C36	C	1.565816	0.949484	0.859901
C37	C	0.972344	0.444817	0.356171
C38	C	1.472344	0.944817	0.856171
C39	C	1.330221	0.665996	0.327176
C40	C	1.830221	1.165996	0.827176
C41	C	1.349934	0.753938	0.309461
C42	C	1.849934	1.253938	0.809461
C43	C	1.275551	0.470378	0.583546
C44	C	1.775551	0.970378	1.083546
C45	C	1.271815	0.474612	0.675119
C46	C	1.771815	0.974612	1.175119
C47	C	0.801206	0.436276	0.349372
C48	C	1.301206	0.936276	0.849372
C49	C	0.768281	0.484669	0.387990
C50	C	1.268281	0.984669	0.887990
C51	C	0.673054	0.479917	0.384207
C52	C	1.173054	0.979917	0.884207
C53	C	0.896441	0.441027	0.353154
C54	C	1.396441	0.941027	0.853154
C55	C	1.503672	0.471443	0.377447
C56	C	2.003672	0.971443	0.877447
C57	C	1.597148	0.476131	0.381193
C58	C	2.097148	0.976131	0.881193
C59	C	1.238258	0.254087	0.410318
C60	C	1.738258	0.754087	0.910318
C61	C	1.218630	0.166151	0.428071
C62	C	1.718630	0.666151	0.928071
C63	C	1.134891	1.041973	0.503548
C64	C	1.634891	1.541973	1.003548
C65	C	1.153417	1.124607	0.486876
C66	C	1.653417	1.624607	0.986876
C67	C	1.265345	1.125072	0.385919
C68	C	1.765345	1.625072	0.885919
C69	C	1.246831	1.042437	0.402585
C70	C	1.746831	1.542437	0.902585
C71	C	1.181602	1.000894	0.461400
C72	C	1.681602	1.500894	0.961400
C73	C	1.293542	1.001358	0.360437
C74	C	1.793542	1.501358	0.860437
C75	C	1.275026	0.918730	0.377099
C76	C	1.775026	1.418730	0.877099
C77	C	1.209799	0.877181	0.435910
C78	C	1.709799	1.377181	0.935910
C79	C	1.163086	0.918266	0.478062
C80	C	1.663086	1.418266	0.978062
C81	C	1.358766	1.042902	0.301619
C82	C	1.858766	1.542902	0.801619
C83	C	1.405478	1.001823	0.259471
C84	C	1.905478	1.501823	0.759471
C85	C	1.386966	0.919194	0.276137
C86	C	1.886966	1.419194	0.776137
C87	C	1.321739	0.877645	0.334947
C88	C	1.821739	1.377645	0.834947
C89	C	1.433679	0.878109	0.233984
C90	C	1.933679	1.378109	0.733984
C91	C	1.415163	0.795481	0.250647
C92	C	1.915163	1.295481	0.750647
C93	C	1.303223	0.795017	0.351609
C94	C	1.803223	1.295017	0.851609
C95	C	1.303670	0.438661	0.895350
C96	C	1.803670	0.938661	1.395350
C97	C	1.264959	0.482308	0.842785
C98	C	1.764959	0.982308	1.342785
C99	C	1.268775	0.478024	0.749487
C100	C	1.768775	0.978024	1.249487
C101	C	1.299855	0.442943	0.988657
C102	C	1.799855	0.942943	1.488657
C103	C	1.293055	0.450570	1.154598
C104	C	1.793055	0.950570	1.654598
C105	C	1.296812	0.446359	1.063021
C106	C	1.796812	0.946359	1.563021
H107	H	0.811611	0.529666	0.423894
H108	H	1.311611	1.029666	0.923894
H109	H	1.339676	0.398081	0.870284
H110	H	1.839676	0.898081	1.370284
H111	H	1.228946	0.522887	0.867853
H112	H	1.728946	1.022887	1.367853
N113	N	1.064532	0.997159	0.566979
N114	N	1.564532	1.497159	1.066979
H115	H	1.059891	0.938582	0.571134
H116	H	1.559891	1.438582	1.071134
H117	H	1.078400	1.014951	0.623447
H118	H	1.578400	1.514951	1.123447
H119	H	0.757879	0.391282	0.313471
H120	H	1.257879	0.891282	0.813471
N121	N	1.504015	0.922918	0.170537
N122	N	2.004015	1.422918	0.670537
H123	H	1.508651	0.981496	0.166371
H124	H	2.008651	1.481496	0.666371
H125	H	1.560301	0.912041	0.188728
H126	H	2.060301	1.412041	0.688728
H127	H	1.250113	0.761191	0.399508
H128	H	1.750113	1.261191	0.899508
H129	H	1.194719	0.809899	0.449469
H130	H	1.694719	1.309899	0.949469
N131	N	1.378734	1.132022	0.283644
N132	N	1.878734	1.632022	0.783644
H133	H	1.396299	1.155291	0.336780
H134	H	1.896299	1.655291	0.836780
H135	H	1.427118	1.152041	0.239962
H136	H	1.927118	1.652041	0.739962
N137	N	1.092739	0.873443	0.541502
N138	N	1.592739	1.373443	1.041502
H139	H	1.106568	0.891173	0.598005
H140	H	1.606568	1.391173	1.098005
H141	H	1.036444	0.884276	0.523275
H142	H	1.536444	1.384276	1.023275
N143	N	1.103030	1.168916	0.532336
N144	N	1.603030	1.668916	1.032336
H145	H	1.058900	1.130057	0.572121
H146	H	1.558900	1.630057	1.072121
H147	H	1.143348	1.206644	0.564956
H148	H	1.643348	1.706644	1.064956
H149	H	1.318452	1.158908	0.338029
H150	H	1.818452	1.658908	0.838029
N151	N	1.475820	1.046631	0.196028
N152	N	1.975820	1.546631	0.696028
H153	H	1.480460	1.105209	0.191864
H154	H	1.980460	1.605209	0.691864
H155	H	1.532101	1.035749	0.214225
H156	H	2.032101	1.535749	0.714225
H157	H	1.453199	0.762034	0.216324
H158	H	1.953199	1.262034	0.716324
