data_functionalizedCrystal
_audit_creation_method	'MofGen! by Chris Wilmer'
_symmetry_space_group_name_H-M	'P1'
_symmetry_Int_Tables_number	1
_symmetry_cell_setting	triclinic
loop_
_symmetry_equiv_pos_as_xyz
  x,y,z
_cell_length_a	14.519709
_cell_length_b	27.732048
_cell_length_c	12.996460
_cell_angle_alpha	89.988908
_cell_angle_beta	90.000034
_cell_angle_gamma	83.161400
loop_
_atom_site_label
_atom_site_type_symbol
_atom_site_fract_x
_atom_site_fract_y
_atom_site_fract_z
O1	O	1.222766	0.063362	-0.085445
O2	O	1.722766	0.563362	0.414555
O3	O	0.954160	0.070824	-0.085477
O4	O	1.454160	0.570824	0.414523
O5	O	1.096805	-0.003264	-0.085440
O6	O	1.596805	0.496736	0.414560
O7	O	1.080121	0.137450	-0.085482
O8	O	1.580121	0.637450	0.414518
O9	O	1.096791	-0.003268	0.085693
O10	O	1.596791	0.496732	0.585693
O11	O	0.954145	0.070820	0.085656
O12	O	1.454145	0.570820	0.585656
O13	O	1.222752	0.063358	0.085689
O14	O	1.722752	0.563358	0.585689
Cu15	Cu	1.088447	0.067089	0.101299
Cu16	Cu	1.588447	0.567089	0.601299
Cu17	Cu	1.088464	0.067093	-0.101087
Cu18	Cu	1.588464	0.567093	0.398913
O19	O	1.080106	0.137446	0.085652
O20	O	1.580106	0.637446	0.585652
C21	C	0.919799	0.070474	0.000086
C22	C	1.419799	0.570474	0.500086
C23	C	0.817435	0.069432	0.000074
C24	C	1.317435	0.569432	0.500074
C25	C	0.442606	0.065596	0.000122
C26	C	0.942606	0.565596	0.500122
C27	C	0.546896	0.066661	0.000108
C28	C	1.046896	0.566661	0.500108
C29	C	0.630018	0.067514	0.000097
C30	C	1.130018	0.567514	0.500097
C31	C	0.734314	0.068579	0.000085
C32	C	1.234314	0.568579	0.500085
C33	C	1.096448	-0.021274	0.000129
C34	C	1.596448	0.478726	0.500129
C35	C	1.095393	-0.074934	0.000138
C36	C	1.595393	0.425066	0.500138
C37	C	1.173048	-0.413378	0.000094
C38	C	1.673048	0.086622	0.500094
C39	C	1.169135	-0.615057	0.000080
C40	C	1.669135	-0.115057	0.500080
O41	O	1.240145	-0.645973	0.000043
O42	O	1.740145	-0.145973	0.500043
N43	N	1.084552	-0.634585	0.000070
N44	N	1.584552	-0.134585	0.500070
C45	C	1.000941	-0.603690	0.000058
C46	C	1.500941	-0.103690	0.500058
O47	O	0.928909	-0.624927	0.000039
O48	O	1.428909	-0.124927	0.500039
C49	C	1.004855	-0.402012	0.000065
C50	C	1.504855	0.097988	0.500065
C51	C	1.089444	-0.382487	0.000085
C52	C	1.589444	0.117513	0.500085
C53	C	1.257630	-0.393853	0.000113
C54	C	1.757630	0.106147	0.500113
C55	C	1.258607	-0.343436	0.000122
C56	C	1.758607	0.156564	0.500122
C57	C	1.175003	-0.312545	0.000113
C58	C	1.675003	0.187455	0.500113
C59	C	1.090421	-0.332071	0.000094
C60	C	1.590421	0.167929	0.500094
C61	C	0.921246	-0.371118	0.000045
C62	C	1.421246	0.128882	0.500045
C63	C	0.922232	-0.320696	0.000045
C64	C	1.422232	0.179304	0.500045
C65	C	1.006820	-0.301171	0.000064
C66	C	1.506820	0.198829	0.500064
C67	C	1.007794	-0.250763	0.000094
C68	C	1.507794	0.249237	0.500094
N69	N	1.092377	-0.231235	0.000104
N70	N	1.592377	0.268765	0.500104
C71	C	1.175981	-0.262126	0.000113
C72	C	1.675981	0.237874	0.500113
C73	C	0.998893	-0.709574	0.000056
C74	C	1.498893	-0.209574	0.500056
C75	C	0.997914	-0.759993	0.000056
C76	C	1.497914	-0.259993	0.500056
C77	C	1.166108	-0.771356	0.000076
C78	C	1.666108	-0.271356	0.500076
C79	C	1.167086	-0.720936	0.000083
C80	C	1.667086	-0.220936	0.500083
C81	C	1.083476	-0.690045	0.000065
C82	C	1.583476	-0.190045	0.500065
C83	C	1.178028	-0.156247	0.000133
C84	C	1.678028	0.343753	0.500133
C85	C	1.178998	-0.105825	0.000147
C86	C	1.678998	0.394175	0.500147
C87	C	1.010804	-0.094466	0.000122
C88	C	1.510804	0.405534	0.500122
C89	C	1.009833	-0.144883	0.000114
C90	C	1.509833	0.355117	0.500114
C91	C	1.093453	-0.175773	0.000116
C92	C	1.593453	0.324227	0.500116
O93	O	0.936822	-0.219818	0.000119
O94	O	1.436822	0.280182	0.500119
O95	O	1.248004	-0.240879	0.000109
O96	O	1.748004	0.259121	0.500109
C97	C	1.172071	-0.463795	0.000085
C98	C	1.672071	0.036205	0.500085
C99	C	1.087489	-0.483320	0.000066
C100	C	1.587489	0.016680	0.500066
C101	C	1.003885	-0.452429	0.000057
C102	C	1.503885	0.047571	0.500057
C103	C	1.086510	-0.533740	0.000066
C104	C	1.586510	-0.033740	0.500066
C105	C	1.170115	-0.564631	0.000076
C106	C	1.670115	-0.064631	0.500076
C107	C	1.254698	-0.545103	0.000085
C108	C	1.754698	-0.045103	0.500085
C109	C	1.255675	-0.494686	0.000094
C110	C	1.755675	0.005314	0.500094
C111	C	0.919302	-0.471957	0.000048
C112	C	1.419302	0.028043	0.500048
C113	C	0.918331	-0.522375	0.000039
C114	C	1.418331	-0.022375	0.500039
C115	C	1.001936	-0.553266	0.000049
C116	C	1.501936	-0.053266	0.500049
C117	C	1.257113	0.063708	0.000124
C118	C	1.757113	0.563708	0.500124
C119	C	1.359476	0.064750	0.000129
C120	C	1.859476	0.564750	0.500129
C121	C	1.080464	0.155456	0.000080
C122	C	1.580464	0.655456	0.500080
C123	C	1.081518	0.209116	0.000065
C124	C	1.581518	0.709116	0.500065
N125	N	1.088442	0.067085	0.243646
N126	N	1.588442	0.567085	0.743646
N127	N	1.088477	0.067093	-0.243434
N128	N	1.588477	0.567093	0.256566
C129	C	1.088463	0.067094	0.663460
C130	C	1.588463	0.567094	1.163460
C131	C	1.088454	0.067093	0.546655
C132	C	1.588454	0.567093	1.046655
C133	C	1.088453	0.067090	0.453557
C134	C	1.588453	0.567090	0.953557
C135	C	1.088443	0.067088	0.336744
C136	C	1.588443	0.567088	0.836744
H137	H	1.247882	-0.089931	0.000166
H138	H	1.747882	0.410069	0.500166
H139	H	1.325714	-0.419000	0.000117
H140	H	1.825714	0.081000	0.500117
C141	C	1.268744	-0.189836	0.000303
C142	C	1.768744	0.310164	0.500303
C143	C	1.273082	-0.219132	0.088331
C144	C	1.773082	0.280868	0.588331
C145	C	1.356629	-0.250084	0.088522
C146	C	1.856629	0.249916	0.588522
H147	H	1.319328	-0.171041	0.000369
H148	H	1.819328	0.328959	0.500369
H149	H	1.271882	-0.209763	-0.059347
H150	H	1.771882	0.290237	0.440653
H151	H	1.269954	-0.199207	0.147965
H152	H	1.769954	0.300793	0.647965
H153	H	1.222518	-0.237938	0.088283
H154	H	1.722518	0.262062	0.588283
H155	H	1.359767	-0.270011	0.028873
H156	H	1.859767	0.229989	0.528873
H157	H	1.407207	-0.231285	0.088586
H158	H	1.907207	0.268715	0.588586
H159	H	1.359581	-0.269968	0.148243
H160	H	1.859581	0.230032	0.648243
C161	C	1.347449	-0.473426	-0.000054
C162	C	1.847449	0.026574	0.499946
C163	C	1.352929	-0.444795	-0.088084
C164	C	1.852929	0.055205	0.411916
C165	C	1.437456	-0.425201	-0.088252
C166	C	1.937456	0.074799	0.411748
H167	H	1.397172	-0.499000	-0.000105
H168	H	1.897172	0.001000	0.499895
H169	H	1.351339	-0.453973	0.059594
H170	H	1.851339	0.046027	0.559594
H171	H	1.349048	-0.464247	-0.147717
H172	H	1.849048	0.035753	0.352283
H173	H	1.303225	-0.419213	-0.088052
H174	H	1.803225	0.080787	0.411948
H175	H	1.441347	-0.405748	-0.028603
H176	H	1.941347	0.094252	0.471397
H177	H	1.487173	-0.450778	-0.088299
H178	H	1.987173	0.049222	0.411701
H179	H	1.441182	-0.405769	-0.147973
H180	H	1.941182	0.094231	0.352027
H181	H	1.322771	-0.570263	0.000097
H182	H	1.822771	-0.070263	0.500097
H183	H	1.327488	-0.327544	0.000134
H184	H	1.827488	0.172456	0.500134
C185	C	0.826580	-0.543663	0.000067
C186	C	1.326580	-0.043663	0.500067
C187	C	0.843603	-0.594430	0.000081
C188	C	1.343603	-0.094430	0.500081
C189	C	0.759108	-0.614055	0.000109
C190	C	1.259108	-0.114055	0.500109
H191	H	0.792131	-0.533107	-0.059602
H192	H	1.292131	-0.033107	0.440398
H193	H	0.792167	-0.533099	0.059762
H194	H	1.292167	-0.033099	0.559762
H195	H	0.878001	-0.604989	-0.059608
H196	H	1.378001	-0.104989	0.440392
H197	H	0.878037	-0.604999	0.059746
H198	H	1.378037	-0.104999	0.559746
H199	H	0.724695	-0.603492	0.059804
H200	H	1.224695	-0.103492	0.559804
H201	H	0.724666	-0.603496	-0.059561
H202	H	1.224666	-0.103496	0.440439
H203	H	0.770646	-0.648503	0.000128
H204	H	1.270646	-0.148503	0.500128
H205	H	1.234182	-0.796516	0.000084
H206	H	1.734182	-0.296516	0.500084
H207	H	0.929034	-0.775885	0.000058
H208	H	1.429034	-0.275885	0.500058
C209	C	0.828596	-0.438365	0.000202
C210	C	1.328596	0.061635	0.500202
C211	C	0.824243	-0.409090	0.088239
C212	C	1.324243	0.090910	0.588239
C213	C	0.740699	-0.378136	0.088415
C214	C	1.240699	0.121864	0.588415
H215	H	0.778009	-0.457159	0.000247
H216	H	1.278009	0.042841	0.500247
H217	H	0.825471	-0.418423	-0.059441
H218	H	1.325471	0.081577	0.440559
H219	H	0.827359	-0.429029	0.147867
H220	H	1.327359	0.070971	0.647867
H221	H	0.874810	-0.390286	0.088213
H222	H	1.374810	0.109714	0.588213
H223	H	0.737574	-0.358195	0.028772
H224	H	1.237574	0.141805	0.528772
H225	H	0.690119	-0.396934	0.088458
H226	H	1.190119	0.103066	0.588458
H227	H	0.737739	-0.358267	0.148142
H228	H	1.237739	0.141733	0.648142
H229	H	0.930803	-0.684426	0.000042
H230	H	1.430803	-0.184426	0.500042
C231	C	1.258857	-0.699673	-0.000066
C232	C	1.758857	-0.199673	0.499934
C233	C	1.264334	-0.671045	-0.088100
C234	C	1.764334	-0.171045	0.411900
C235	C	1.348858	-0.651447	-0.088269
C236	C	1.848858	-0.151447	0.411731
H237	H	1.308584	-0.725245	-0.000112
H238	H	1.808584	-0.225245	0.499888
H239	H	1.262743	-0.680218	0.059579
H240	H	1.762743	-0.180218	0.559579
H241	H	1.260458	-0.690499	-0.147730
H242	H	1.760458	-0.190499	0.352270
H243	H	1.214627	-0.645465	-0.088073
H244	H	1.714627	-0.145465	0.411927
H245	H	1.352744	-0.631992	-0.028623
H246	H	1.852744	-0.131992	0.471377
H247	H	1.398578	-0.677022	-0.088311
H248	H	1.898578	-0.177022	0.411689
H249	H	1.352582	-0.632017	-0.147993
H250	H	1.852582	-0.132017	0.352007
C251	C	0.831480	-0.287135	-0.000184
C252	C	1.331480	0.212865	0.499816
C253	C	0.827125	-0.257855	-0.088238
C254	C	1.327125	0.242145	0.411762
C255	C	0.743535	-0.226938	-0.088487
C256	C	1.243535	0.273062	0.411513
H257	H	0.828265	-0.267191	0.059427
H258	H	1.328265	0.232809	0.559427
H259	H	0.780941	-0.305970	-0.000251
H260	H	1.280941	0.194030	0.499749
H261	H	0.877650	-0.239021	-0.088161
H262	H	1.377650	0.260979	0.411839
H263	H	0.830324	-0.277786	-0.147862
H264	H	1.330324	0.222214	0.352138
H265	H	0.692996	-0.245774	-0.088555
H266	H	1.192996	0.254226	0.411445
H267	H	0.740328	-0.206998	-0.028873
H268	H	1.240328	0.293002	0.471127
H269	H	0.740566	-0.207072	-0.148235
H270	H	1.240566	0.292928	0.351765
C271	C	0.917901	-0.165992	0.000042
C272	C	1.417901	0.334008	0.500042
C273	C	0.844894	-0.128144	0.000013
C274	C	1.344894	0.371856	0.500013
C275	C	0.760192	-0.147566	-0.000081
C276	C	1.260192	0.352434	0.499919
H277	H	0.913880	-0.185428	0.059694
H278	H	1.413880	0.314572	0.559694
H279	H	0.913983	-0.185399	-0.059671
H280	H	1.413983	0.314601	0.440329
H281	H	0.848811	-0.108745	0.059719
H282	H	1.348811	0.391255	0.559719
H283	H	0.848885	-0.108705	-0.059634
H284	H	1.348885	0.391295	0.440366
H285	H	0.756274	-0.166974	-0.059793
H286	H	1.256274	0.333026	0.440207
H287	H	0.756180	-0.167002	0.059572
H288	H	1.256180	0.332998	0.559572
H289	H	0.710647	-0.121890	-0.000110
H290	H	1.210647	0.378110	0.499890
C291	C	0.920067	-0.060897	-0.000105
C292	C	1.420067	0.439103	0.499895
C293	C	0.915731	-0.031621	-0.088164
C294	C	1.415731	0.468379	0.411836
C295	C	0.832153	-0.000694	-0.088423
C296	C	1.332153	0.499306	0.411577
H297	H	0.916857	-0.040952	0.059502
H298	H	1.416857	0.459048	0.559502
H299	H	0.869518	-0.079726	-0.000174
H300	H	1.369518	0.420274	0.499826
H301	H	0.966266	-0.012794	-0.088085
H302	H	1.466266	0.487206	0.411915
H303	H	0.918924	-0.051554	-0.147785
H304	H	1.418924	0.448446	0.352215
H305	H	0.781604	-0.019523	-0.088492
H306	H	1.281604	0.480477	0.411508
H307	H	0.828951	0.019248	-0.028812
H308	H	1.328951	0.519248	0.471188
H309	H	0.829196	0.019170	-0.148174
H310	H	1.329196	0.519170	0.351826
H311	H	0.852365	-0.387006	0.000023
H312	H	1.352365	0.112994	0.500023
