data_functionalizedCrystal
_audit_creation_method	'MofGen! by Chris Wilmer'
_symmetry_space_group_name_H-M	'P1'
_symmetry_Int_Tables_number	1
_symmetry_cell_setting	triclinic
loop_
_symmetry_equiv_pos_as_xyz
  x,y,z
_cell_length_a	27.732048
_cell_length_b	14.971486
_cell_length_c	14.048226
_cell_angle_alpha	90.001501
_cell_angle_beta	89.988614
_cell_angle_gamma	96.871608
loop_
_atom_site_label
_atom_site_type_symbol
_atom_site_fract_x
_atom_site_fract_y
_atom_site_fract_z
O1	O	0.062991	-1.185952	-0.079062
O2	O	0.562991	-0.685952	0.420938
O3	O	0.070534	-0.925432	-0.079089
O4	O	0.570534	-0.425432	0.420911
O5	O	-0.003597	-1.063783	-0.079057
O6	O	0.496403	-0.563783	0.420943
O7	O	0.137122	-1.047601	-0.079094
O8	O	0.637122	-0.547601	0.420906
O9	O	-0.003601	-1.063767	0.079265
O10	O	0.496399	-0.563767	0.579265
O11	O	0.070530	-0.925416	0.079232
O12	O	0.570530	-0.425416	0.579232
O13	O	0.062986	-1.185935	0.079259
O14	O	0.562986	-0.685935	0.579259
Zn15	Zn	0.066757	-1.055673	0.104383
Zn16	Zn	0.566757	-0.555673	0.604383
Zn17	Zn	0.066763	-1.055695	-0.104212
Zn18	Zn	0.566763	-0.555695	0.395788
O19	O	0.137117	-1.047584	0.079227
O20	O	0.637117	-0.547584	0.579227
C21	C	-0.021608	-1.063435	0.000107
C22	C	0.478392	-0.563435	0.500107
C23	C	-0.075267	-1.062412	0.000114
C24	C	0.424733	-0.562412	0.500114
C25	C	0.070195	-0.892105	0.000068
C26	C	0.570195	-0.392105	0.500068
C27	C	0.069184	-0.792824	0.000059
C28	C	0.569184	-0.292824	0.500059
C29	C	0.063326	-1.219263	0.000100
C30	C	0.563326	-0.719263	0.500100
C31	C	0.064337	-1.318544	0.000103
C32	C	0.564337	-0.818544	0.500103
C33	C	-0.413735	-1.137729	0.000073
C34	C	0.086265	-0.637729	0.500073
C35	C	-0.615412	-1.133934	0.000060
C36	C	-0.115412	-0.633934	0.500060
O37	O	-0.646350	-1.202806	0.000025
O38	O	-0.146350	-0.702806	0.500025
N39	N	-0.634914	-1.051898	0.000052
N40	N	-0.134914	-0.551898	0.500052
C41	C	-0.603994	-0.970804	0.000042
C42	C	-0.103994	-0.470804	0.500042
O43	O	-0.625209	-0.900940	0.000025
O44	O	-0.125209	-0.400940	0.500025
C45	C	-0.402318	-0.974601	0.000048
C46	C	0.097682	-0.474601	0.500048
C47	C	-0.382818	-1.056642	0.000066
C48	C	0.117182	-0.556642	0.500066
C49	C	-0.394235	-1.219764	0.000090
C50	C	0.105765	-0.719764	0.500090
C51	C	-0.343819	-1.220712	0.000098
C52	C	0.156181	-0.720712	0.500098
C53	C	-0.312902	-1.139625	0.000091
C54	C	0.187098	-0.639625	0.500091
C55	C	-0.332402	-1.057590	0.000074
C56	C	0.167598	-0.557590	0.500074
C57	C	-0.371398	-0.893508	0.000031
C58	C	0.128602	-0.393508	0.500031
C59	C	-0.320976	-0.894464	0.000030
C60	C	0.179024	-0.394464	0.500030
C61	C	-0.301477	-0.976506	0.000048
C62	C	0.198523	-0.476506	0.500048
C63	C	-0.251069	-0.977451	0.000075
C64	C	0.248931	-0.477451	0.500075
N65	N	-0.231567	-1.059487	0.000083
N66	N	0.268433	-0.559487	0.500083
C67	C	-0.262483	-1.140574	0.000091
C68	C	0.237517	-0.640574	0.500091
C69	C	-0.709877	-0.968817	0.000040
C70	C	-0.209877	-0.468817	0.500040
C71	C	-0.760296	-0.967868	0.000040
C72	C	-0.260296	-0.467868	0.500040
C73	C	-0.771710	-1.130998	0.000056
C74	C	-0.271710	-0.630998	0.500056
C75	C	-0.721291	-1.131946	0.000063
C76	C	-0.221291	-0.631946	0.500063
C77	C	-0.690375	-1.050854	0.000048
C78	C	-0.190375	-0.550854	0.500048
C79	C	-0.156605	-1.142559	0.000110
C80	C	0.343395	-0.642559	0.500110
C81	C	-0.106184	-1.143500	0.000122
C82	C	0.393816	-0.643500	0.500122
C83	C	-0.094773	-0.980370	0.000101
C84	C	0.405227	-0.480370	0.500101
C85	C	-0.145190	-0.979429	0.000093
C86	C	0.354810	-0.479429	0.500093
C87	C	-0.176105	-1.060530	0.000094
C88	C	0.323895	-0.560530	0.500094
O89	O	-0.220103	-0.908616	0.000099
O90	O	0.279897	-0.408616	0.500099
O91	O	-0.241258	-1.210428	0.000086
O92	O	0.258742	-0.710428	0.500086
C93	C	-0.464151	-1.136781	0.000065
C94	C	0.035849	-0.636781	0.500065
C95	C	-0.483651	-1.054746	0.000049
C96	C	0.016349	-0.554746	0.500049
C97	C	-0.452734	-0.973659	0.000041
C98	C	0.047266	-0.473659	0.500041
C99	C	-0.534070	-1.053797	0.000049
C100	C	-0.034070	-0.553797	0.500049
C101	C	-0.564986	-1.134884	0.000056
C102	C	-0.064986	-0.634884	0.500056
C103	C	-0.545484	-1.216921	0.000064
C104	C	-0.045484	-0.716921	0.500064
C105	C	-0.495067	-1.217868	0.000072
C106	C	0.004933	-0.717868	0.500072
C107	C	-0.472237	-0.891623	0.000033
C108	C	0.027763	-0.391623	0.500033
C109	C	-0.522654	-0.890682	0.000026
C110	C	-0.022654	-0.390682	0.500026
C111	C	-0.553570	-0.971769	0.000033
C112	C	-0.053570	-0.471769	0.500033
C113	C	0.155128	-1.047932	0.000062
C114	C	0.655128	-0.547932	0.500062
C115	C	0.208788	-1.048955	0.000048
C116	C	0.708788	-0.548955	0.500048
N117	N	0.066753	-1.055665	0.246743
N118	N	0.566753	-0.555665	0.746743
C119	C	0.112734	-0.734910	0.000048
C120	C	0.612734	-0.234910	0.500048
C121	C	0.111781	-0.641626	0.000063
C122	C	0.611781	-0.141626	0.500063
C123	C	0.067278	-0.606257	0.000081
C124	C	0.567278	-0.106257	0.500081
C125	C	0.023724	-0.664178	0.000094
C126	C	0.523724	-0.164178	0.500094
C127	C	0.024678	-0.757460	0.000086
C128	C	0.524678	-0.257460	0.500086
C129	C	0.021740	-0.469746	0.000108
C130	C	0.521740	0.030254	0.500108
C131	C	0.020787	-0.376457	0.000114
C132	C	0.520787	0.123543	0.500114
C133	C	0.108844	-0.353912	0.000084
C134	C	0.608844	0.146088	0.500084
C135	C	0.109797	-0.447195	0.000076
C136	C	0.609797	0.052805	0.500076
C137	C	0.066243	-0.505109	0.000088
C138	C	0.566243	-0.005109	0.500088
N139	N	0.066764	-1.055710	-0.246573
N140	N	0.566764	-0.555710	0.253427
C141	C	0.033942	-1.116945	0.296576
C142	C	0.533942	-0.616945	0.796576
C143	C	0.033941	-1.116951	0.396234
C144	C	0.533941	-0.616951	0.896234
C145	C	0.066755	-1.055680	0.446057
C146	C	0.566755	-0.555680	0.946057
C147	C	0.099569	-0.994393	0.396217
C148	C	0.599569	-0.494393	0.896217
C149	C	0.099566	-0.994384	0.296562
C150	C	0.599566	-0.494384	0.796562
C151	C	0.099572	-0.994419	0.603932
C152	C	0.599572	-0.494419	1.103932
C153	C	0.099575	-0.994429	0.703594
C154	C	0.599575	-0.494429	1.203594
C155	C	0.033947	-1.116987	0.703604
C156	C	0.533947	-0.616987	1.203604
C157	C	0.033945	-1.116977	0.603948
C158	C	0.533945	-0.616977	1.103948
C159	C	0.066759	-1.055691	0.554115
C160	C	0.566759	-0.555691	1.054115
H161	H	-0.090310	-1.210310	0.000139
H162	H	0.409690	-0.710310	0.500139
H163	H	-0.012511	-0.635373	0.000122
H164	H	0.487489	-0.135373	0.500122
F165	F	0.158133	-0.579993	0.000048
F166	F	0.658133	-0.079993	0.500048
H167	H	-0.069592	-0.914351	0.000098
H168	H	0.430408	-0.414351	0.500098
F169	F	-0.000982	-1.182164	0.243560
F170	F	0.499018	-0.682164	0.743560
H171	H	-0.479196	-1.284675	0.000086
H172	H	0.020804	-0.784675	0.500086
F173	F	-0.000975	-1.182212	0.756643
F174	F	0.499025	-0.682212	1.256643
F175	F	-0.189500	-1.228876	0.000110
F176	F	0.310500	-0.728876	0.500110
F177	F	-0.578396	-1.303219	0.000077
F178	F	-0.078396	-0.803219	0.500077
H179	H	-0.010785	-0.804613	0.000094
H180	H	0.489215	-0.304613	0.500094
F181	F	0.134490	-0.929179	0.449244
F182	F	0.634490	-0.429179	0.949244
H183	H	0.126295	-0.944535	0.744156
H184	H	0.626295	-0.444535	1.244156
H185	H	0.146035	-0.475989	0.000053
H186	H	0.646035	0.024011	0.500053
F187	F	0.155197	-0.292274	0.000074
F188	F	0.655197	0.207726	0.500074
H189	H	-0.015451	-0.347663	0.000130
H190	H	0.484549	0.152337	0.500130
H191	H	0.126291	-0.944510	0.563361
H192	H	0.626291	-0.444510	1.063361
F193	F	-0.676979	-0.882501	0.000023
F194	F	-0.176979	-0.382501	0.500023
F195	F	0.134488	-0.929157	0.243528
F196	F	0.634488	-0.429157	0.743528
H197	H	0.007223	-1.166850	0.436807
H198	H	0.507223	-0.666850	0.936807
F199	F	-0.024614	-0.531382	0.000123
F200	F	0.475386	-0.031382	0.500123
H201	H	-0.327947	-1.287519	0.000109
H202	H	0.172053	-0.787519	0.500109
H203	H	-0.419403	-1.285799	0.000092
H204	H	0.080597	-0.785799	0.500092
F205	F	-0.700543	-1.219265	0.000081
F206	F	-0.200543	-0.719265	0.500081
F207	F	0.160101	-0.772543	0.000023
F208	F	0.660101	-0.272543	0.500023
F209	F	-0.000976	-1.182193	0.550922
F210	F	0.499024	-0.682193	1.050922
H211	H	-0.796891	-1.197022	0.000063
H212	H	-0.296891	-0.697022	0.500063
F213	F	-0.781043	-0.880548	0.000039
F214	F	-0.281043	-0.380548	0.500039
F215	F	-0.392139	-0.806187	0.000009
F216	F	0.107861	-0.306187	0.500009
H217	H	-0.295806	-0.828427	0.000016
H218	H	0.204194	-0.328427	0.500016
H219	H	-0.161067	-0.912624	0.000106
H220	H	0.338933	-0.412624	0.500106
H221	H	-0.538525	-0.823869	0.000020
H222	H	-0.038525	-0.323869	0.500020
H223	H	-0.447069	-0.825590	0.000025
H224	H	0.052931	-0.325590	0.500025
