data_functionalizedCrystal
_audit_creation_method	'MofGen! by Chris Wilmer'
_symmetry_space_group_name_H-M	'P1'
_symmetry_Int_Tables_number	1
_symmetry_cell_setting	triclinic
loop_
_symmetry_equiv_pos_as_xyz
  x,y,z
_cell_length_a	14.971486
_cell_length_b	13.101039
_cell_length_c	14.044220
_cell_angle_alpha	86.332523
_cell_angle_beta	88.401503
_cell_angle_gamma	93.356744
loop_
_atom_site_label
_atom_site_type_symbol
_atom_site_fract_x
_atom_site_fract_y
_atom_site_fract_z
O1	O	1.201174	0.085098	0.118316
O2	O	0.941941	0.085126	0.133109
O3	O	1.067666	0.085103	-0.012276
O4	O	1.075449	0.085122	0.263701
O5	O	1.058646	-0.085326	-0.001827
O6	O	0.932922	-0.085302	0.143557
O7	O	1.192155	-0.085330	0.128765
Zn8	Zn	1.061106	-0.112375	0.137820
Zn9	Zn	1.072989	0.112171	0.124054
O10	O	1.066430	-0.085306	0.274149
C11	C	0.904054	-0.000084	0.137671
C12	C	0.804602	-0.000074	0.135688
N13	N	1.053003	-0.265622	0.147214
C14	C	0.754105	-0.000069	0.221098
C15	C	0.660658	-0.000085	0.219230
C16	C	0.617709	-0.000097	0.131951
C17	C	0.668212	-0.000105	0.046535
C18	C	0.761658	-0.000097	0.048404
C19	C	0.473442	-0.000119	0.042645
C20	C	0.379991	-0.000125	0.040775
C21	C	0.372443	-0.000107	0.213471
C22	C	0.465888	-0.000099	0.215340
C23	C	0.516385	-0.000105	0.129923
C24	C	1.041978	-0.474663	0.160005
C25	C	1.092121	-0.525548	0.101864
C26	C	1.085987	-0.641865	0.108981
C27	C	1.048111	-0.358335	0.152889
C28	C	1.230041	-0.000117	0.124202
C29	C	1.329494	-0.000121	0.126185
C30	C	1.059750	-0.000112	-0.042370
C31	C	1.049588	-0.000112	-0.147607
N32	N	1.081099	0.265418	0.114652
C33	C	1.031013	-0.000095	-0.340291
C34	C	1.103079	-0.000100	-0.397842
C35	C	1.092743	-0.000090	-0.505058
C36	C	1.041347	-0.000104	-0.233065
C37	C	1.074346	-0.000090	0.304243
C38	C	1.084508	-0.000083	0.409480
H39	H	0.789067	-0.000058	0.292170
H40	H	0.331323	-0.000107	0.283021
F41	F	0.334282	-0.000165	-0.052115
F42	F	0.511596	-0.000075	0.308232
H43	H	1.139657	-0.481754	0.046745
H44	H	1.172544	-0.000038	-0.366596
F45	F	0.979851	-0.531898	0.232049
H46	H	0.619547	-0.000080	0.288780
F47	F	0.940228	-0.000080	-0.381135
F48	F	0.527183	-0.000129	-0.048266
F49	F	0.622500	-0.000125	-0.046354
H50	H	0.802771	-0.000100	-0.021146
