data_functionalizedCrystal
_audit_creation_method	'MofGen! by Chris Wilmer'
_symmetry_space_group_name_H-M	'P1'
_symmetry_Int_Tables_number	1
_symmetry_cell_setting	triclinic
loop_
_symmetry_equiv_pos_as_xyz
  x,y,z
_cell_length_a	21.295417
_cell_length_b	19.121102
_cell_length_c	21.295411
_cell_angle_alpha	87.545010
_cell_angle_beta	90.028718
_cell_angle_gamma	92.415380
loop_
_atom_site_label
_atom_site_type_symbol
_atom_site_fract_x
_atom_site_fract_y
_atom_site_fract_z
Zn1	Zn	-0.291757	-1.073671	0.396909
Zn2	Zn	-0.397019	-1.073578	0.291631
Zn3	Zn	-0.287273	-0.956227	0.287170
Zn4	Zn	-0.392493	-0.956176	0.392380
O5	O	-0.342135	-1.014913	0.342022
O6	O	-0.309491	-1.171942	0.386706
O7	O	-0.382478	-1.057994	0.202949
O8	O	-0.199781	-0.971866	0.301755
O9	O	-0.386826	-1.171874	0.309359
O10	O	-0.203075	-1.058151	0.382380
O11	O	-0.301848	-0.971777	0.199671
O12	O	-0.297460	-0.857936	0.297363
O13	O	-0.379113	-0.971779	0.481071
O14	O	-0.374764	-0.857899	0.374661
O15	O	-0.305103	-1.058102	0.484398
O16	O	-0.484505	-1.057945	0.304967
O17	O	-0.481180	-0.971690	0.378987
C18	C	-0.335135	-0.832434	0.335037
C19	C	-0.332155	-0.754369	0.332063
C20	C	-0.505684	-1.014821	0.341984
C21	C	-0.575653	-1.014846	0.341991
C22	C	-0.342103	-1.014945	0.506214
C23	C	-0.342089	-1.014959	0.576183
C24	C	-0.610231	-1.059799	0.303492
C25	C	-0.675975	-1.059832	0.303507
C26	C	-0.707137	-1.014899	0.342015
C27	C	-0.672550	-0.969943	0.380522
C28	C	-0.606808	-0.969917	0.380510
N29	N	-0.808050	-0.953459	0.344462
N30	N	-0.870503	-0.953486	0.344469
C31	C	-0.905215	-1.014978	0.342054
N32	N	-0.875115	-1.076443	0.339618
N33	N	-0.812657	-1.076415	0.339607
C34	C	-0.778423	-1.014923	0.342032
C35	C	-1.011081	-1.059970	0.303569
C36	C	-1.076826	-1.060004	0.303589
C37	C	-1.073399	-0.970110	0.380600
C38	C	-1.007656	-0.970082	0.380584
C39	C	-0.976500	-1.015011	0.342065
C40	C	-0.177949	-1.015025	0.342075
C41	C	-0.107983	-1.015072	0.342098
C42	C	-0.349164	-1.198105	0.349036
C43	C	-0.352159	-1.276170	0.352024
C44	C	-0.371064	-0.717692	0.370848
C45	C	-0.368256	-0.644342	0.368057
C46	C	-0.326541	-0.607668	0.326478
C47	C	-0.287628	-0.644350	0.287692
C48	C	-0.290433	-0.717699	0.290486
C49	C	-0.316051	-0.386201	0.316033
C50	C	-0.313250	-0.312846	0.313240
C51	C	-0.393878	-0.312843	0.393606
C52	C	-0.396682	-0.386194	0.396394
C53	C	-0.357766	-0.422869	0.357610
C54	C	-0.323671	-0.532692	0.323623
C55	C	-0.360633	-0.497844	0.360469
C56	C	-0.342124	-1.014921	0.178471
C57	C	-0.341965	-1.015044	0.108508
C58	C	-0.383946	-1.059931	1.077351
C59	C	-0.383965	-1.059918	1.011608
C60	C	-0.341994	-1.015026	0.977025
C61	C	-0.300010	-0.970129	1.008189
C62	C	-0.299996	-0.970138	1.073931
N63	N	-0.286709	-1.009661	0.873615
N64	N	-0.286724	-1.009656	0.811163
C65	C	-0.342035	-1.014995	0.778949
N66	N	-0.397331	-1.020351	0.811546
N67	N	-0.397315	-1.020359	0.874003
C68	C	-0.342005	-1.015010	0.905739
C69	C	-0.384040	-1.059871	0.676506
C70	C	-0.384061	-1.059853	0.610761
C71	C	-0.300100	-0.970068	0.607344
C72	C	-0.300085	-0.970082	0.673087
C73	C	-0.342054	-1.014987	0.707664
H74	H	-0.584867	-1.096384	0.272129
H75	H	-0.418252	-1.096402	0.585394
H76	H	-0.697927	-0.933360	0.411876
H77	H	-0.578653	-0.933310	0.411861
H78	H	-0.979500	-0.933474	0.411931
O79	O	-0.424660	-1.103562	0.981267
C80	C	-0.436766	-1.198402	0.910707
C81	C	-0.390611	-1.149009	0.945014
H82	H	-0.409256	-1.235168	0.881399
H83	H	-0.468445	-1.166175	0.878640
H84	H	-0.466772	-1.230462	0.946726
H85	H	-0.360564	-1.116938	0.909040
H86	H	-0.358975	-1.181276	0.977092
O87	O	-0.437219	-0.421707	0.436840
C88	C	-0.516924	-0.413961	0.516228
C89	C	-0.471031	-0.373655	0.470465
H90	H	-0.544282	-0.375128	0.543417
H91	H	-0.489414	-0.448313	0.550548
H92	H	-0.551084	-0.448289	0.488560
H93	H	-0.436860	-0.339288	0.498081
H94	H	-0.498581	-0.339347	0.436145
O95	O	-0.424778	-1.103567	1.110841
C96	C	-0.508029	-1.192649	1.107291
C97	C	-0.461829	-1.143258	1.069284
H98	H	-0.537988	-1.224763	1.073709
H99	H	-0.539746	-1.160421	1.136805
H100	H	-0.480520	-1.229366	1.139504
H101	H	-0.489287	-1.106532	1.037037
H102	H	-0.430112	-1.175530	1.039811
H103	H	-0.265898	-0.933532	0.698455
O104	O	-0.980745	-1.103652	0.266247
C105	C	-0.910111	-1.198480	0.261465
C106	C	-0.944413	-1.149043	0.303803
H107	H	-0.880739	-1.235201	0.291812
H108	H	-0.878108	-1.166285	0.227295
H109	H	-0.946135	-1.230587	0.233940
H110	H	-0.908435	-1.116926	0.331369
H111	H	-0.976427	-1.181279	0.337933
O112	O	-0.709477	-1.103520	0.266046
C113	C	-0.705943	-1.192697	0.189678
C114	C	-0.667928	-1.143246	0.232061
H115	H	-0.672367	-1.224838	0.162200
H116	H	-0.735518	-1.160513	0.155474
H117	H	-0.738097	-1.229384	0.220022
H118	H	-0.635739	-1.106548	0.201768
H119	H	-0.638394	-1.175473	0.266268
O120	O	-0.411602	-0.753205	0.411294
C121	C	-0.491298	-0.745451	0.490688
C122	C	-0.445409	-0.705149	0.444919
H123	H	-0.518653	-0.706616	0.517877
H124	H	-0.463786	-0.779801	0.525007
H125	H	-0.525462	-0.779781	0.463026
H126	H	-0.411235	-0.670781	0.472529
H127	H	-0.472963	-0.670843	0.410600
H128	H	-1.104979	-1.096615	0.272240
H129	H	-0.399941	-0.614483	0.399639
H130	H	-0.425560	-0.282974	0.425182
H131	H	-0.289709	-0.502825	0.289768
O132	O	-0.272676	-0.277153	0.272943
C133	C	-0.184468	-0.194433	0.261516
C134	C	-0.230390	-0.234793	0.307213
H135	H	-0.150260	-0.160186	0.289207
H136	H	-0.211953	-0.160009	0.227234
H137	H	-0.157165	-0.233268	0.234274
H138	H	-0.257705	-0.196009	0.334498
H139	H	-0.202869	-0.269227	0.341455
H140	H	-0.265838	-0.933576	0.980027
H141	H	-0.265927	-0.933514	0.579187
O142	O	-0.247158	-0.608619	0.247321
C143	C	-0.207071	-0.495625	0.207429
C144	C	-0.252943	-0.536000	0.253167
H145	H	-0.211724	-0.436905	0.212150
H146	H	-0.218602	-0.509966	0.157181
H147	H	-0.156890	-0.510122	0.219127
H148	H	-0.303140	-0.521525	0.241527
H149	H	-0.241359	-0.521655	0.303402
H150	H	-0.284368	-0.416053	0.284448
O151	O	-0.424841	-1.103385	0.710162
C152	C	-0.510200	-1.112784	0.784692
C153	C	-0.464019	-1.063427	0.746628
H154	H	-0.541896	-1.080497	0.814174
H155	H	-0.482738	-1.149524	0.816928
H156	H	-0.540185	-1.144874	0.751115
H157	H	-0.434023	-1.031291	0.780159
H158	H	-0.491519	-1.026733	0.714384
H159	H	-0.258746	-0.747560	0.258907
H160	H	-1.098771	-0.933528	0.411957
H161	H	-0.265809	-0.933585	1.099298
H162	H	-0.394595	-0.527706	0.394325
