data_functionalizedCrystal
_audit_creation_method	'MofGen! by Chris Wilmer'
_symmetry_space_group_name_H-M	'P1'
_symmetry_Int_Tables_number	1
_symmetry_cell_setting	triclinic
loop_
_symmetry_equiv_pos_as_xyz
  x,y,z
_cell_length_a	15.712078
_cell_length_b	10.489716
_cell_length_c	14.185569
_cell_angle_alpha	76.713535
_cell_angle_beta	107.170411
_cell_angle_gamma	102.055143
loop_
_atom_site_label
_atom_site_type_symbol
_atom_site_fract_x
_atom_site_fract_y
_atom_site_fract_z
O1	O	1.131693	0.721346	-0.083615
O2	O	0.879447	0.623957	-0.083570
O3	O	1.011320	0.489658	-0.083597
O4	O	0.999820	0.855645	-0.083588
O5	O	1.050276	0.449991	0.083229
O6	O	0.918404	0.584290	0.083257
O7	O	1.170649	0.681679	0.083211
Cu8	Cu	1.048083	0.629363	0.098467
Cu9	Cu	1.002013	0.676274	-0.098825
O10	O	1.038776	0.815978	0.083239
C11	C	0.866626	0.588214	-0.000151
C12	C	0.770382	0.540793	-0.000134
C13	C	0.405754	0.943389	-0.000193
C14	C	0.315311	0.898810	-0.000219
C15	C	0.334548	0.675408	-0.000227
C16	C	0.424993	0.719969	-0.000206
C17	C	0.460589	0.853961	-0.000188
C18	C	0.479828	0.630542	-0.000201
C19	C	0.570266	0.675099	-0.000174
C20	C	0.605870	0.809083	-0.000153
C21	C	0.551027	0.898518	-0.000161
C22	C	0.444232	0.496549	-0.000211
C23	C	0.499067	0.407121	-0.000206
C24	C	0.589506	0.451679	-0.000187
C25	C	0.625109	0.585664	-0.000166
C26	C	0.644348	0.362245	-0.000179
C27	C	0.734787	0.406802	-0.000152
C28	C	0.715547	0.630221	-0.000139
C29	C	1.029933	0.421902	-0.000187
C30	C	1.027346	0.279102	-0.000195
C31	C	1.108217	0.218064	-0.000201
C32	C	1.046277	0.140900	-0.082445
C33	C	1.084666	0.101819	0.082033
C34	C	0.965424	0.203835	-0.082507
C35	C	1.003842	0.164747	0.082044
C36	C	0.941838	0.087610	-0.000220
C37	C	1.183470	0.717423	-0.000210
C38	C	1.279712	0.764845	-0.000233
C39	C	1.020163	0.883735	-0.000174
C40	C	1.022749	1.026537	-0.000172
N41	N	1.080493	0.596371	0.237231
N42	N	0.969610	0.709259	-0.237589
C43	C	0.874390	0.806135	0.604923
C44	C	0.898946	0.781155	0.709940
C45	C	1.015743	0.662309	0.709877
C46	C	0.991194	0.687273	0.604858
C47	C	0.920517	0.759188	0.552390
C48	C	1.037322	0.640326	0.552324
C49	C	1.012777	0.665295	0.447315
C50	C	0.942105	0.737210	0.394839
C51	C	0.895973	0.784157	0.447380
C52	C	1.108002	0.568420	0.604795
C53	C	1.154130	0.521473	0.552261
C54	C	1.129582	0.546434	0.447250
C55	C	1.058910	0.618349	0.394774
C56	C	1.175714	0.499487	0.394709
C57	C	1.151170	0.524456	0.289699
C58	C	1.034365	0.643317	0.289765
H59	H	0.679512	0.845359	-0.000127
H60	H	0.744531	0.739330	-0.000123
H61	H	0.370594	0.460272	-0.000221
H62	H	0.871433	0.031297	-0.000251
H63	H	0.915048	0.248233	-0.152116
H64	H	0.580011	1.007626	-0.000145
O65	O	1.091973	0.584748	0.766466
H66	H	1.066287	0.494140	0.814318
H67	H	0.985973	0.176277	0.151592
O68	O	0.296152	0.530893	-0.000240
H69	H	0.302271	0.502056	-0.068230
H70	H	0.434738	1.052497	-0.000177
H71	H	0.922125	0.757544	0.309334
H72	H	0.470075	0.298022	-0.000209
O73	O	1.151406	0.042836	0.174145
H74	H	1.220357	0.095795	0.173950
O75	O	1.134485	0.541485	0.718056
H76	H	1.076090	0.484151	0.745777
O77	O	1.230355	0.443905	0.608852
H78	H	1.239671	0.434421	0.690698
O79	O	0.819741	0.861721	0.390775
H80	H	0.791787	0.890178	0.444944
H81	H	0.270667	0.971642	-0.000219
H82	H	0.816832	0.864683	0.562202
H83	H	0.615355	0.253146	-0.000180
O84	O	0.849186	0.831783	0.766607
H85	H	0.795914	0.885974	0.712476
O86	O	0.793938	0.310359	-0.000153
H87	H	0.753990	0.209704	-0.000182
H88	H	1.233266	0.440945	0.437442
H89	H	0.976807	0.701866	0.247043
O90	O	1.200895	0.473807	0.233012
H91	H	1.273278	0.516878	0.253123
O92	O	1.201360	0.293019	-0.000325
H93	H	1.218766	0.284342	-0.068718
H94	H	1.064176	0.129406	-0.151990
