data_functionalizedCrystal
_audit_creation_method	'MofGen! by Chris Wilmer'
_symmetry_space_group_name_H-M	'P1'
_symmetry_Int_Tables_number	1
_symmetry_cell_setting	triclinic
loop_
_symmetry_equiv_pos_as_xyz
  x,y,z
_cell_length_a	17.019282
_cell_length_b	15.500215
_cell_length_c	11.792241
_cell_angle_alpha	93.165578
_cell_angle_beta	83.790279
_cell_angle_gamma	89.309895
loop_
_atom_site_label
_atom_site_type_symbol
_atom_site_fract_x
_atom_site_fract_y
_atom_site_fract_z
O1	O	1.047020	-0.006088	0.144117
O2	O	1.380354	0.327245	0.477451
O3	O	1.713687	0.660578	0.810784
O4	O	0.818214	0.010966	0.163688
O5	O	1.151547	0.344300	0.497021
O6	O	1.484881	0.677633	0.830354
O7	O	0.938169	0.002019	-0.011354
O8	O	1.271503	0.335352	0.321979
O9	O	1.604836	0.668686	0.655312
O10	O	0.927065	0.002859	0.319159
O11	O	1.260398	0.336192	0.652493
O12	O	1.593732	0.669526	0.985826
O13	O	0.931599	-0.141381	-0.020728
O14	O	1.264932	0.191953	0.312605
O15	O	1.598265	0.525286	0.645939
O16	O	0.811643	-0.132434	0.154314
O17	O	1.144977	0.200900	0.487647
O18	O	1.478310	0.534233	0.820980
O19	O	1.040450	-0.149488	0.134744
O20	O	1.373783	0.183845	0.468077
O21	O	1.707116	0.517179	0.801410
Cu22	Cu	0.925446	-0.154054	0.143673
Cu23	Cu	1.258780	0.179279	0.477006
Cu24	Cu	1.592113	0.512612	0.810339
Cu25	Cu	0.933217	0.015533	0.154758
Cu26	Cu	1.266551	0.348866	0.488092
Cu27	Cu	1.599884	0.682199	0.821425
O28	O	0.920494	-0.140541	0.309785
O29	O	1.253828	0.192792	0.643119
O30	O	1.587161	0.526126	0.976452
C31	C	0.785636	-0.058550	0.158446
C32	C	1.118970	0.274783	0.491780
C33	C	1.452303	0.608116	0.825113
C34	C	0.698355	-0.052045	0.156781
C35	C	1.031688	0.281289	0.490114
C36	C	1.365021	0.614622	0.823448
C37	C	0.653773	-0.127158	0.150886
C38	C	0.987106	0.206176	0.484220
C39	C	1.320439	0.539509	0.817553
C40	C	0.571764	-0.121048	0.149303
C41	C	0.905097	0.212286	0.482637
C42	C	1.238430	0.545619	0.815970
C43	C	0.534338	-0.039824	0.153624
C44	C	0.867671	0.293510	0.486957
C45	C	1.201004	0.626843	0.820290
C46	C	0.578926	0.035295	0.159516
C47	C	0.912260	0.368628	0.492849
C48	C	1.245593	0.701962	0.826182
C49	C	0.660934	0.029184	0.161090
C50	C	0.994268	0.362517	0.494424
C51	C	1.327601	0.695851	0.827757
C52	C	0.286906	-0.017462	0.149117
C53	C	0.620239	0.315871	0.482450
C54	C	0.953572	0.649205	0.815784
C55	C	0.204891	-0.011356	0.147545
C56	C	0.538225	0.321977	0.480879
C57	C	0.871558	0.655310	0.814212
C58	C	0.197735	-0.167700	0.137331
C59	C	0.531068	0.165634	0.470664
C60	C	0.864401	0.498967	0.803998
C61	C	0.279744	-0.173803	0.138913
C62	C	0.613077	0.159530	0.472246
C63	C	0.946411	0.492863	0.805580
C64	C	0.324326	-0.098685	0.144799
C65	C	0.657659	0.234648	0.478132
C66	C	0.990993	0.567982	0.811466
C67	C	0.450511	-0.033576	0.152009
C68	C	0.783845	0.299757	0.485343
C69	C	1.117178	0.633090	0.818676
C70	C	0.408152	-0.104933	0.146405
C71	C	0.741485	0.228400	0.479738
C72	C	1.074818	0.561733	0.813072
N73	N	0.919987	-0.273333	0.135875
N74	N	1.253320	0.060000	0.469208
N75	N	1.586653	0.393334	0.802542
C76	C	0.965893	-0.322025	0.201490
C77	C	1.299226	0.011308	0.534824
C78	C	1.632560	0.344641	0.868157
C79	C	0.961774	-0.412292	0.195586
C80	C	1.295108	-0.078958	0.528919
C81	C	1.628441	0.254375	0.862252
C82	C	0.911745	-0.453864	0.124071
C83	C	1.245078	-0.120530	0.457404
C84	C	1.578411	0.212803	0.790738
C85	C	0.865837	-0.405165	0.058448
C86	C	1.199170	-0.071832	0.391782
C87	C	1.532503	0.261501	0.725115
C88	C	0.869960	-0.314901	0.064347
C89	C	1.203293	0.018433	0.397681
C90	C	1.536627	0.351766	0.731014
C91	C	0.896899	-0.726226	0.102824
C92	C	1.230232	-0.392893	0.436157
C93	C	1.563565	-0.059560	0.769490
C94	C	0.892777	-0.816497	0.096932
C95	C	1.226110	-0.483164	0.430265
C96	C	1.559444	-0.149830	0.763598
C97	C	0.988716	-0.823617	0.234068
C98	C	1.322049	-0.490284	0.567402
C99	C	1.655383	-0.156951	0.900735
C100	C	0.992831	-0.733351	0.239966
C101	C	1.326165	-0.400017	0.573300
C102	C	1.659498	-0.066684	0.906633
C103	C	0.946927	-0.684660	0.174339
C104	C	1.280260	-0.351327	0.507672
C105	C	1.613593	-0.017993	0.841006
C106	C	0.907532	-0.546130	0.118037
C107	C	1.240865	-0.212797	0.451370
C108	C	1.574198	0.120536	0.784703
C109	C	0.951144	-0.592396	0.180368
C110	C	1.284478	-0.259062	0.513701
C111	C	1.617811	0.074271	0.847035
C112	C	1.073027	-0.079970	0.139985
C113	C	1.406361	0.253364	0.473318
C114	C	1.739694	0.586697	0.806652
C115	C	1.160309	-0.086469	0.141650
C116	C	1.493643	0.246864	0.474984
C117	C	1.826976	0.580197	0.808317
C118	C	0.934187	-0.069629	-0.058321
C119	C	1.267520	0.263705	0.275012
C120	C	1.600853	0.597038	0.608345
C121	C	0.932099	-0.069472	-0.184303
C122	C	1.265432	0.263861	0.149031
C123	C	1.598765	0.597195	0.482364
N124	N	0.938683	0.134811	0.162547
N125	N	1.272016	0.468144	0.495881
N126	N	1.605350	0.801477	0.829214
C127	C	0.928260	-0.069171	-0.414955
C128	C	1.261593	0.264162	-0.081621
C129	C	1.594927	0.597495	0.251712
C130	C	0.930393	-0.069338	-0.286603
C131	C	1.263726	0.263995	0.046730
C132	C	1.597060	0.597328	0.380064
C133	C	0.924477	-0.068891	0.356753
C134	C	1.257811	0.264442	0.690086
C135	C	1.591144	0.597775	1.023419
C136	C	0.926565	-0.069042	0.482734
C137	C	1.259899	0.264291	0.816068
C138	C	1.593232	0.597625	1.149401
H139	H	0.161428	-0.228857	0.132537
H140	H	0.494761	0.104477	0.465871
H141	H	0.828094	0.437810	0.799204
H142	H	0.684238	-0.193299	0.147378
H143	H	1.017571	0.140034	0.480711
H144	H	1.350904	0.473368	0.814044
H145	H	1.033573	-0.699509	0.298198
H146	H	1.366906	-0.366176	0.631531
H147	H	1.700240	-0.032842	0.964864
H148	H	0.323195	0.043705	0.153906
H149	H	0.656528	0.377038	0.487240
H150	H	0.989862	0.710372	0.820573
H151	H	0.991881	-0.558544	0.238591
H152	H	1.325214	-0.225210	0.571924
H153	H	1.658548	0.108123	0.905258
Cl154	Cl	0.531880	0.137405	0.164905
Cl155	Cl	0.865213	0.470739	0.498238
Cl156	Cl	1.198547	0.804072	0.831572
Cl157	Cl	1.046423	-0.884833	0.316563
Cl158	Cl	1.379756	-0.551500	0.649897
Cl159	Cl	1.713089	-0.218166	0.983230
Cl160	Cl	0.829879	-0.868758	0.007019
Cl161	Cl	1.163212	-0.535425	0.340353
Cl162	Cl	1.496545	-0.202091	0.673686
Cl163	Cl	0.716981	0.123616	0.168496
Cl164	Cl	1.050315	0.456949	0.501829
Cl165	Cl	1.383648	0.790282	0.835163
Cl166	Cl	1.028790	-0.269772	0.291401
Cl167	Cl	1.362123	0.063561	0.624734
Cl168	Cl	1.695456	0.396895	0.958067
Cl169	Cl	0.455203	-0.207040	0.140970
Cl170	Cl	0.788536	0.126294	0.474304
Cl171	Cl	1.121870	0.459627	0.807637
H172	H	0.535470	-0.182213	0.144484
H173	H	0.868803	0.151121	0.477817
H174	H	1.202136	0.484454	0.811151
H175	H	0.174422	0.054789	0.151067
H176	H	0.507755	0.388123	0.484400
H177	H	0.841088	0.721456	0.817734
Cl178	Cl	0.844633	-0.598400	0.028144
Cl179	Cl	1.177966	-0.265066	0.361478
Cl180	Cl	1.511299	0.068267	0.694811
Cl181	Cl	0.326787	-0.275918	0.133489
Cl182	Cl	0.660120	0.057416	0.466823
Cl183	Cl	0.993454	0.390749	0.800156
H184	H	0.825105	-0.439021	0.000214
H185	H	1.158439	-0.105687	0.333547
H186	H	1.491772	0.227646	0.666880
H187	H	0.420030	0.032557	0.155526
H188	H	0.753363	0.365890	0.488860
H189	H	1.086696	0.699223	0.822193
Cl190	Cl	0.812255	-0.253688	-0.018156
Cl191	Cl	1.145588	0.079645	0.315177
Cl192	Cl	1.478922	0.412979	0.648511
H193	H	0.999158	-0.451933	0.249015
H194	H	1.332491	-0.118600	0.582348
H195	H	1.665824	0.214733	0.915681
Cl196	Cl	0.839158	-0.665025	0.020365
Cl197	Cl	1.172491	-0.331691	0.353698
Cl198	Cl	1.505825	0.001642	0.687031
