data_functionalizedCrystal
_audit_creation_method	'MofGen! by Chris Wilmer'
_symmetry_space_group_name_H-M	'P1'
_symmetry_Int_Tables_number	1
_symmetry_cell_setting	triclinic
loop_
_symmetry_equiv_pos_as_xyz
  x,y,z
_cell_length_a	14.908795
_cell_length_b	29.839131
_cell_length_c	14.908308
_cell_angle_alpha	93.261283
_cell_angle_beta	89.788666
_cell_angle_gamma	93.331550
loop_
_atom_site_label
_atom_site_type_symbol
_atom_site_fract_x
_atom_site_fract_y
_atom_site_fract_z
Zn1	Zn	1.345199	-0.157139	-0.587804
Zn2	Zn	1.678532	0.176194	-0.254470
Zn3	Zn	2.011865	0.509527	0.078863
Zn4	Zn	1.353728	-0.227707	-0.437431
Zn5	Zn	1.687061	0.105627	-0.104098
Zn6	Zn	2.020395	0.438960	0.229236
Zn7	Zn	1.203513	-0.156653	-0.428775
Zn8	Zn	1.536846	0.176681	-0.095441
Zn9	Zn	1.870179	0.510014	0.237892
Zn10	Zn	1.194748	-0.236309	-0.579051
Zn11	Zn	1.528081	0.097025	-0.245717
Zn12	Zn	1.861414	0.430358	0.087616
O13	O	1.274297	-0.194452	-0.508265
O14	O	1.607630	0.138882	-0.174932
O15	O	1.940963	0.472215	0.158402
O16	O	1.472160	-0.163104	-0.575142
O17	O	1.805494	0.170229	-0.241809
O18	O	2.138827	0.503563	0.091525
O19	O	1.341039	-0.214477	-0.310460
O20	O	1.674373	0.118856	0.022873
O21	O	2.007706	0.452189	0.356207
O22	O	1.222406	-0.093848	-0.449911
O23	O	1.555740	0.239485	-0.116577
O24	O	1.889073	0.572818	0.216756
O25	O	1.478427	-0.214949	-0.464664
O26	O	1.811760	0.118384	-0.131331
O27	O	2.145093	0.451717	0.202003
O28	O	1.326502	-0.094206	-0.566748
O29	O	1.659836	0.239127	-0.233415
O30	O	1.993169	0.572461	0.099918
O31	O	1.230677	-0.162274	-0.304100
O32	O	1.564010	0.171059	0.029233
O33	O	1.897343	0.504392	0.362566
O34	O	1.076520	-0.170615	-0.441423
O35	O	1.409853	0.162718	-0.108090
O36	O	1.743187	0.496051	0.225243
O37	O	1.207468	-0.229610	-0.706034
O38	O	1.540801	0.103723	-0.372701
O39	O	1.874134	0.437056	-0.039368
O40	O	1.070080	-0.229138	-0.551831
O41	O	1.403414	0.104195	-0.218497
O42	O	1.736747	0.437528	0.114836
O43	O	1.318003	-0.171445	-0.712465
O44	O	1.651337	0.161888	-0.379132
O45	O	1.984670	0.495222	-0.045798
O46	O	1.332540	-0.291716	-0.456177
O47	O	1.665874	0.041617	-0.122843
O48	O	1.999207	0.374950	0.210490
O49	O	1.215738	-0.298036	-0.560224
O50	O	1.549071	0.035297	-0.226891
O51	O	1.882405	0.368630	0.106442
C52	C	1.040674	-0.200758	-0.494738
C53	C	1.374007	0.132576	-0.161405
C54	C	1.707340	0.465909	0.171928
C55	C	0.940727	-0.203467	-0.488973
C56	C	1.274061	0.129866	-0.155640
C57	C	1.607394	0.463200	0.177694
C58	C	0.803127	-0.234228	-0.423238
C59	C	1.136460	0.099105	-0.089905
C60	C	1.469794	0.432439	0.243428
C61	C	0.897036	-0.231684	-0.428655
C62	C	1.230369	0.101649	-0.095322
C63	C	1.563702	0.434982	0.238012
C64	C	0.890504	-0.177791	-0.543877
C65	C	1.223838	0.155543	-0.210543
C66	C	1.557171	0.488876	0.122790
C67	C	0.796596	-0.180334	-0.538460
C68	C	1.129929	0.152999	-0.205127
C69	C	1.463263	0.486332	0.128207
C70	C	0.752911	-0.208554	-0.478140
C71	C	1.086244	0.124779	-0.144806
C72	C	1.419577	0.458112	0.188527
C73	C	0.659000	-0.211100	-0.472728
C74	C	0.992334	0.122233	-0.139395
C75	C	1.325667	0.455566	0.193938
C76	C	0.652471	-0.157205	-0.587945
C77	C	0.985804	0.176129	-0.254611
C78	C	1.319138	0.509462	0.078722
C79	C	0.746379	-0.154661	-0.593361
C80	C	1.079713	0.178672	-0.260028
C81	C	1.413046	0.512006	0.073305
C82	C	1.274137	-0.311177	-0.508211
C83	C	1.607470	0.022156	-0.174878
C84	C	1.940804	0.355489	0.158456
C85	C	1.274149	-0.361112	-0.508223
C86	C	1.607483	-0.027779	-0.174889
C87	C	1.940816	0.305555	0.158444
C88	C	1.335215	-0.667449	-0.454178
C89	C	1.668549	-0.334115	-0.120844
C90	C	2.001882	-0.000782	0.212489
C91	C	1.335324	-0.855120	-0.454219
C92	C	1.668658	-0.521786	-0.120885
C93	C	2.001991	-0.188453	0.212448
O94	O	1.387118	-0.876575	-0.408226
O95	O	1.720452	-0.543242	-0.074893
O96	O	2.053785	-0.209909	0.258441
N97	N	1.274479	-0.881891	-0.508344
N98	N	1.607813	-0.548558	-0.175010
N99	N	1.941146	-0.215224	0.158323
C100	C	1.213607	-0.861742	-0.562466
C101	C	1.546940	-0.528408	-0.229133
C102	C	1.880273	-0.195075	0.104200
O103	O	1.161863	-0.888819	-0.608511
O104	O	1.495196	-0.555485	-0.275177
O105	O	1.828529	-0.222152	0.058156
C106	C	1.213503	-0.674071	-0.562429
C107	C	1.546836	-0.340738	-0.229096
C108	C	1.880169	-0.007405	0.104238
C109	C	1.274346	-0.647302	-0.508294
C110	C	1.607679	-0.313969	-0.174961
C111	C	1.941012	0.019364	0.158373
C112	C	1.396054	-0.640680	-0.400048
C113	C	1.729388	-0.307346	-0.066714
C114	C	2.062721	0.025987	0.266619
C115	C	1.396023	-0.593765	-0.400034
C116	C	1.729356	-0.260431	-0.066701
C117	C	2.062690	0.072902	0.266633
C118	C	1.335153	-0.573619	-0.454151
C119	C	1.668487	-0.240285	-0.120817
C120	C	2.001820	0.093048	0.212516
C121	C	1.274315	-0.600387	-0.508281
C122	C	1.607648	-0.267054	-0.174947
C123	C	1.940981	0.066279	0.158386
C124	C	1.152635	-0.653923	-0.616556
C125	C	1.485968	-0.320590	-0.283223
C126	C	1.819302	0.012743	0.050111
C127	C	1.152616	-0.607002	-0.616544
C128	C	1.485949	-0.273669	-0.283210
C129	C	1.819282	0.059664	0.050123
C130	C	1.213459	-0.580233	-0.562408
C131	C	1.546792	-0.246900	-0.229075
C132	C	1.880125	0.086433	0.104258
C133	C	1.213414	-0.533326	-0.562384
C134	C	1.546747	-0.199993	-0.229050
C135	C	1.880080	0.133340	0.104283
N136	N	1.274259	-0.506555	-0.508259
N137	N	1.607592	-0.173222	-0.174926
N138	N	1.940925	0.160112	0.158408
C139	C	1.335128	-0.526701	-0.454142
C140	C	1.668462	-0.193368	-0.120809
C141	C	2.001795	0.139965	0.212524
C142	C	1.213664	-0.960271	-0.562481
C143	C	1.546998	-0.626938	-0.229147
C144	C	1.880331	-0.293604	0.104186
C145	C	1.213689	-1.007188	-0.562489
C146	C	1.547022	-0.673855	-0.229155
C147	C	1.880356	-0.340522	0.104178
C148	C	1.335408	-1.000563	-0.454242
C149	C	1.668742	-0.667230	-0.120909
C150	C	2.002075	-0.333896	0.212424
C151	C	1.335379	-0.953645	-0.454230
C152	C	1.668712	-0.620312	-0.120897
C153	C	2.002045	-0.286978	0.212437
C154	C	1.274509	-0.933500	-0.508356
C155	C	1.607843	-0.600166	-0.175023
C156	C	1.941176	-0.266833	0.158311
C157	C	1.335058	-0.428177	-0.454118
C158	C	1.668391	-0.094843	-0.120784
C159	C	2.001725	0.238490	0.212549
C160	C	1.335019	-0.381258	-0.454106
C161	C	1.668352	-0.047925	-0.120773
C162	C	2.001686	0.285409	0.212560
C163	C	1.213303	-0.387887	-0.562356
C164	C	1.546637	-0.054554	-0.229022
C165	C	1.879970	0.278779	0.104311
C166	C	1.213339	-0.434802	-0.562364
C167	C	1.546672	-0.101469	-0.229031
C168	C	1.880005	0.231865	0.104303
C169	C	1.274224	-0.454945	-0.508242
C170	C	1.607557	-0.121612	-0.174909
C171	C	1.940890	0.211721	0.158424
O172	O	1.161654	-0.511840	-0.608360
O173	O	1.494987	-0.178507	-0.275027
O174	O	1.828320	0.154826	0.058307
O175	O	1.386878	-0.499617	-0.408120
O176	O	1.720211	-0.166283	-0.074787
O177	O	2.053544	0.167050	0.258547
C178	C	1.335247	-0.714363	-0.454191
C179	C	1.668580	-0.381030	-0.120858
C180	C	2.001913	-0.047697	0.212476
C181	C	1.274408	-0.741132	-0.508321
C182	C	1.607741	-0.407799	-0.174988
C183	C	1.941075	-0.074466	0.158346
C184	C	1.213538	-0.720986	-0.562437
C185	C	1.546871	-0.387653	-0.229104
C186	C	1.880205	-0.054320	0.104229
C187	C	1.274433	-0.788050	-0.508329
C188	C	1.607766	-0.454716	-0.174996
C189	C	1.941099	-0.121383	0.158338
C190	C	1.335302	-0.808196	-0.454213
C191	C	1.668636	-0.474862	-0.120879
C192	C	2.001969	-0.141529	0.212454
C193	C	1.396148	-0.781424	-0.400088
C194	C	1.729481	-0.448091	-0.066755
C195	C	2.062814	-0.114758	0.266579
C196	C	1.396116	-0.734510	-0.400074
C197	C	1.729450	-0.401176	-0.066741
C198	C	2.062783	-0.067843	0.266592
C199	C	1.152693	-0.747757	-0.616562
C200	C	1.486026	-0.414424	-0.283229
C201	C	1.819360	-0.081091	0.050105
C202	C	1.152728	-0.794672	-0.616570
C203	C	1.486062	-0.461339	-0.283237
C204	C	1.819395	-0.128005	0.050096
C205	C	1.213598	-0.814818	-0.562454
C206	C	1.546932	-0.481485	-0.229121
C207	C	1.880265	-0.148152	0.104213
C208	C	1.508832	-0.188122	-0.521845
C209	C	1.842165	0.145212	-0.188512
C210	C	2.175499	0.478545	0.144822
C211	C	1.608777	-0.185424	-0.527632
C212	C	1.942110	0.147909	-0.194298
C213	C	2.275444	0.481243	0.139035
C214	C	1.260806	-0.201542	-0.742786
C215	C	1.594140	0.131792	-0.409453
C216	C	1.927473	0.465125	-0.076120
C217	C	1.255058	-0.204563	-0.842725
C218	C	1.588391	0.128771	-0.509392
C219	C	1.921724	0.462104	-0.176059
C220	C	1.274481	-0.077270	-0.508340
C221	C	1.607814	0.256063	-0.175007
C222	C	1.941147	0.589396	0.158326
C223	C	1.274559	-0.027335	-0.508372
C224	C	1.607892	0.305999	-0.175039
C225	C	1.941226	0.639332	0.158294
C226	C	1.359353	-0.149662	-1.037219
C227	C	1.692687	0.183671	-0.703886
C228	C	2.026020	0.517004	-0.370552
C229	C	1.353955	-0.152499	-1.131121
C230	C	1.687288	0.180834	-0.797787
C231	C	2.020621	0.514167	-0.464454
C232	C	1.238857	-0.213072	-1.124432
C233	C	1.572191	0.120262	-0.791099
C234	C	1.905524	0.453595	-0.457765
C235	C	1.244256	-0.210235	-1.030530
C236	C	1.577590	0.123099	-0.697197
C237	C	1.910923	0.456432	-0.363864
C238	C	1.304507	-0.178529	-0.986927
C239	C	1.637840	0.154804	-0.653594
C240	C	1.971174	0.488137	-0.320261
C241	C	1.309910	-0.175695	-0.893024
C242	C	1.643243	0.157639	-0.559691
C243	C	1.976576	0.490972	-0.226357
C244	C	1.194809	-0.236264	-0.886337
C245	C	1.528142	0.097069	-0.553003
C246	C	1.861475	0.430402	-0.219670
C247	C	1.189410	-0.239101	-0.980238
C248	C	1.522743	0.094232	-0.646905
C249	C	1.856077	0.427565	-0.313572
C250	C	1.287787	-0.187356	-0.274659
C251	C	1.621120	0.145977	0.058674
C252	C	1.954453	0.479311	0.392008
C253	C	1.293710	-0.184203	-0.174731
C254	C	1.627043	0.149130	0.158603
C255	C	1.960376	0.482463	0.491936
H256	H	0.781961	-0.131684	-0.642470
H257	H	1.115294	0.201650	-0.309136
H258	H	1.448628	0.534983	0.024197
H259	H	1.150151	-0.259771	-0.845379
H260	H	1.483484	0.073562	-0.512046
H261	H	1.816818	0.406895	-0.178712
H262	H	0.926090	-0.154813	-0.592981
H263	H	1.259423	0.178521	-0.259648
H264	H	1.592756	0.511854	0.073686
H265	H	1.398614	-0.128992	-1.172065
H266	H	1.731947	0.204342	-0.838732
H267	H	2.065280	0.537675	-0.505398
H268	H	1.163798	-0.456599	-0.606448
H269	H	1.497131	-0.123265	-0.273115
H270	H	1.830465	0.210068	0.060218
H271	H	1.445708	-0.797836	-0.356022
H272	H	1.779041	-0.464502	-0.022688
H273	H	2.112374	-0.131169	0.310645
H274	H	1.445627	-0.657077	-0.355979
H275	H	1.778960	-0.323744	-0.022646
H276	H	2.112293	0.009590	0.310687
H277	H	0.623433	-0.234080	-0.423615
H278	H	0.956766	0.099253	-0.090282
H279	H	1.290100	0.432587	0.243051
H280	H	1.189804	-0.238884	-1.159950
H281	H	1.523137	0.094449	-0.826617
H282	H	1.856471	0.427782	-0.493283
H283	H	0.611575	-0.136300	-0.632651
H284	H	0.944908	0.197033	-0.299317
H285	H	1.278241	0.530367	0.034016
H286	H	1.384565	-0.359464	-0.410020
H287	H	1.717898	-0.026130	-0.076686
H288	H	2.051231	0.307203	0.256647
H289	H	1.384638	-0.444572	-0.410049
H290	H	1.717971	-0.111238	-0.076715
H291	H	2.051305	0.222095	0.256618
H292	H	1.445569	-0.571972	-0.355956
H293	H	1.778902	-0.238638	-0.022622
H294	H	2.112236	0.094695	0.310711
H295	H	1.384923	-0.931852	-0.410149
H296	H	1.718256	-0.598519	-0.076816
H297	H	2.051589	-0.265185	0.256517
H298	H	1.140354	-0.264914	-1.015753
H299	H	1.473687	0.068419	-0.682420
H300	H	1.807021	0.401753	-0.349086
H301	H	1.103126	-0.731359	-0.660632
H302	H	1.436460	-0.398025	-0.327298
H303	H	1.769793	-0.064692	0.006035
H304	H	1.164137	-1.028980	-0.606562
H305	H	1.497470	-0.695647	-0.273229
H306	H	1.830803	-0.362314	0.060104
H307	H	1.384971	-1.016974	-0.410179
H308	H	1.718304	-0.683641	-0.076846
H309	H	2.051638	-0.350307	0.256488
H310	H	1.164095	-0.943873	-0.606557
H311	H	1.497428	-0.610539	-0.273224
H312	H	1.830762	-0.277206	0.060109
H313	H	1.408416	-0.123849	-1.001717
H314	H	1.741750	0.209485	-0.668384
H315	H	2.075083	0.542818	-0.335050
H316	H	0.767558	-0.257210	-0.374130
H317	H	1.100891	0.076124	-0.040797
H318	H	1.434224	0.409457	0.292536
H319	H	1.358970	-0.149879	-0.857524
H320	H	1.692304	0.183454	-0.524191
H321	H	2.025637	0.516788	-0.190857
H322	H	1.103050	-0.590603	-0.660622
H323	H	1.436383	-0.257270	-0.327289
H324	H	1.769716	0.076064	0.006044
H325	H	0.937919	-0.252590	-0.383948
H326	H	1.271252	0.080744	-0.050615
H327	H	1.604585	0.414077	0.282719
H328	H	1.103086	-0.675711	-0.660634
H329	H	1.436419	-0.342378	-0.327301
H330	H	1.769752	-0.009044	0.006033
H331	H	1.445661	-0.712717	-0.355993
H332	H	1.778994	-0.379384	-0.022660
H333	H	2.112327	-0.046051	0.310674
H334	H	1.163741	-0.371477	-0.606414
H335	H	1.497075	-0.038144	-0.273081
H336	H	1.830408	0.295190	0.060253
H337	H	1.103175	-0.816464	-0.660652
H338	H	1.436508	-0.483131	-0.327319
H339	H	1.769841	-0.149797	0.006014
