data_functionalizedCrystal
_audit_creation_method	'MofGen! by Chris Wilmer'
_symmetry_space_group_name_H-M	'P1'
_symmetry_Int_Tables_number	1
_symmetry_cell_setting	triclinic
loop_
_symmetry_equiv_pos_as_xyz
  x,y,z
_cell_length_a	6.817900
_cell_length_b	16.418049
_cell_length_c	10.943624
_cell_angle_alpha	93.819405
_cell_angle_beta	108.838799
_cell_angle_gamma	103.389670
loop_
_atom_site_label
_atom_site_type_symbol
_atom_site_fract_x
_atom_site_fract_y
_atom_site_fract_z
V1	V	-4.087790	-0.115864	-0.403006
O2	O	-4.074541	0.005590	-0.394866
O3	O	-4.038505	-0.229761	-0.400699
O4	O	-4.066181	-0.114072	-0.578565
O5	O	-4.046673	-0.110899	-0.215769
V6	V	-4.568061	-0.101338	-0.380556
O7	O	-4.356181	-0.147728	-0.452251
O8	O	-4.749866	-0.069474	-0.331311
O9	O	-4.394139	0.012559	-0.382862
O10	O	-4.698706	-0.222792	-0.388695
O11	O	-4.726574	-0.106303	-0.567792
O12	O	-4.366463	-0.103130	-0.204997
C13	C	-3.882423	-0.257527	-0.394458
C14	C	-3.923593	-0.350638	-0.393742
C15	C	-3.917726	-0.109953	-0.621342
C16	C	-3.981336	-0.109241	-0.764865
C17	C	-4.201363	-0.569128	-0.398579
C18	C	-4.240036	-0.656617	-0.397918
C19	C	-3.873846	-0.648074	-0.384991
C20	C	-3.835181	-0.560587	-0.385662
C21	C	-3.998943	-0.521116	-0.392449
C22	C	-4.076282	-0.696092	-0.391118
C23	C	-4.118211	-0.790951	-0.390401
C24	C	-3.957012	-0.426250	-0.393168
C25	C	-3.827312	-0.104449	-0.841994
C26	C	-3.999661	-0.175581	-0.948263
C27	C	-3.922353	-0.036850	-0.914332
C28	C	-4.152880	-0.180440	-0.869258
C29	C	-4.075506	-0.041646	-0.835303
C30	C	-4.247988	-0.112798	-0.941543
C31	C	-4.213562	0.040320	-0.389100
C32	C	-4.151632	0.133431	-0.389824
C33	C	-4.178259	-0.107252	-0.162213
C34	C	-4.093887	-0.107959	-0.018688
H35	H	-4.334711	-0.536993	-0.404104
C36	C	-3.957254	-0.252071	-1.014706
C37	C	-3.727260	-0.262382	-0.976555
C38	C	-3.684836	-0.338869	-1.042990
C39	C	-3.872405	-0.405045	-1.147575
C40	C	-4.102415	-0.394736	-1.185731
C41	C	-4.144839	-0.318249	-1.119297
H42	H	-3.588396	-0.213393	-0.899130
H43	H	-3.514567	-0.346500	-1.014744
H44	H	-3.841000	-0.461665	-1.196754
H45	H	-4.241279	-0.443725	-1.263157
H46	H	-4.315108	-0.310618	-1.147543
H47	H	-4.249735	-0.241191	-0.848952
C48	C	-4.117805	0.034848	-0.768811
C49	C	-4.003016	0.125543	-0.778052
C50	C	-4.045286	0.202045	-0.711552
C51	C	-4.202346	0.187853	-0.635810
C52	C	-4.317145	0.097155	-0.626565
C53	C	-4.274875	0.020652	-0.693066
H54	H	-3.886742	0.136052	-0.834124
H55	H	-3.960304	0.269187	-0.718396
H56	H	-4.233637	0.244485	-0.586582
H57	H	-4.433419	0.086645	-0.570494
H58	H	-4.359857	-0.046489	-0.686222
C59	C	-3.791534	0.045137	-0.941997
C60	C	-3.544546	0.065289	-0.896379
C61	C	-3.413711	0.147270	-0.924041
C62	C	-3.529865	0.209100	-0.997322
C63	C	-3.776867	0.188950	-1.042945
C64	C	-3.907701	0.106968	-1.015283
H65	H	-3.458550	0.019517	-0.842128
H66	H	-3.230864	0.162187	-0.890267
H67	H	-3.433014	0.269788	-1.017799
H68	H	-3.862863	0.234721	-1.097196
H69	H	-4.090549	0.092052	-1.049056
H70	H	-3.740521	-0.680221	-0.379462
H71	H	-4.426454	-0.116344	-0.984801
H72	H	-4.404865	-0.695705	-0.402912
H73	H	-3.670341	-0.521494	-0.380674
H74	H	-3.648932	-0.101014	-0.798532
