data_functionalizedCrystal
_audit_creation_method	'MofGen! by Chris Wilmer'
_symmetry_space_group_name_H-M	'P1'
_symmetry_Int_Tables_number	1
_symmetry_cell_setting	triclinic
loop_
_symmetry_equiv_pos_as_xyz
  x,y,z
_cell_length_a	15.944545
_cell_length_b	19.188930
_cell_length_c	14.421503
_cell_angle_alpha	89.999163
_cell_angle_beta	89.995153
_cell_angle_gamma	83.320477
loop_
_atom_site_label
_atom_site_type_symbol
_atom_site_fract_x
_atom_site_fract_y
_atom_site_fract_z
O1	O	1.114196	0.090017	-0.077062
O2	O	1.614196	0.590017	0.422938
O3	O	0.869604	0.101124	-0.077079
O4	O	1.369604	0.601124	0.422921
O5	O	0.998958	-0.006067	-0.077052
O6	O	1.498958	0.493933	0.422948
O7	O	0.984841	0.197208	-0.077089
O8	O	1.484841	0.697208	0.422911
O9	O	0.998937	-0.006051	0.077171
O10	O	1.498937	0.493949	0.577171
O11	O	0.869582	0.101140	0.077145
O12	O	1.369582	0.601140	0.577145
O13	O	1.114174	0.090033	0.077161
O14	O	1.614174	0.590033	0.577161
Cu15	Cu	0.991876	0.095588	0.091235
Cu16	Cu	1.491876	0.595588	0.591235
Cu17	Cu	0.991902	0.095569	-0.091152
Cu18	Cu	1.491902	0.595569	0.408848
O19	O	0.984820	0.197224	0.077134
O20	O	1.484820	0.697224	0.577134
C21	C	0.838301	0.100672	0.000031
C22	C	1.338301	0.600672	0.500031
C23	C	0.745060	0.099292	0.000026
C24	C	1.245060	0.599292	0.500026
C25	C	0.474691	0.028726	0.000048
C26	C	0.974691	0.528726	0.500048
C27	C	0.525135	0.062755	0.076085
C28	C	1.025135	0.562755	0.576085
C29	C	0.409434	0.094370	0.000043
C30	C	0.909434	0.594370	0.500043
C31	C	0.525136	0.062757	-0.075967
C32	C	1.025136	0.562757	0.424033
C33	C	0.574339	0.096785	0.000033
C34	C	1.074339	0.596785	0.500033
C35	C	0.458650	0.128381	0.076142
C36	C	0.958650	0.628381	0.576142
C37	C	0.458648	0.128374	-0.075979
C38	C	0.958648	0.628374	0.424021
C39	C	0.509059	0.162451	0.000076
C40	C	1.009059	0.662451	0.500076
C41	C	0.314437	0.092977	0.000049
C42	C	0.814437	0.592977	0.500049
C43	C	0.669333	0.098183	0.000033
C44	C	1.169333	0.598183	0.500033
C45	C	0.998490	-0.032071	0.000062
C46	C	1.498490	0.467929	0.500062
C47	C	0.997118	-0.109579	0.000070
C48	C	1.497118	0.390421	0.500070
C49	C	1.073019	-0.154308	0.000080
C50	C	1.573019	0.345692	0.500080
C51	C	1.071730	-0.227135	0.000065
C52	C	1.571730	0.272865	0.500065
C53	C	0.994535	-0.255230	0.000059
C54	C	1.494535	0.244770	0.500059
C55	C	0.918624	-0.210491	0.000044
C56	C	1.418624	0.289509	0.500044
C57	C	0.919916	-0.137666	0.000050
C58	C	1.419916	0.362334	0.500050
N59	N	0.935522	-0.363381	0.052540
N60	N	1.435522	0.136619	0.552540
N61	N	0.934300	-0.432563	0.052537
N62	N	1.434300	0.067437	0.552537
C63	C	0.990640	-0.474649	0.000040
C64	C	1.490640	0.025351	0.500040
N65	N	1.048259	-0.444941	-0.052442
N66	N	1.548259	0.055059	0.447558
N67	N	1.049484	-0.375753	-0.052434
N68	N	1.549484	0.124247	0.447566
C69	C	0.993126	-0.334196	0.000052
C70	C	1.493126	0.165804	0.500052
C71	C	1.065148	-0.598346	0.000032
C72	C	1.565148	-0.098346	0.500032
C73	C	1.063855	-0.671174	0.000011
C74	C	1.563855	-0.171174	0.500011
C75	C	0.910748	-0.654528	0.000000
C76	C	1.410748	-0.154528	0.500000
C77	C	0.912042	-0.581702	0.000011
C78	C	1.412042	-0.081702	0.500011
C79	C	0.989245	-0.553615	0.000032
C80	C	1.489245	-0.053615	0.500032
C81	C	1.145477	0.090486	0.000049
C82	C	1.645477	0.590486	0.500049
C83	C	1.238719	0.091866	0.000048
C84	C	1.738719	0.591866	0.500048
C85	C	0.985288	0.223228	0.000018
C86	C	1.485288	0.723228	0.500018
C87	C	0.986660	0.300736	0.000004
C88	C	1.486660	0.800736	0.500004
N89	N	0.991865	0.095601	0.219516
N90	N	1.491865	0.595601	0.719516
N91	N	0.991920	0.095551	-0.219434
N92	N	1.491920	0.595551	0.280566
C93	C	0.932041	0.145144	0.469157
C94	C	1.432041	0.645144	0.969157
C95	C	1.007890	0.158697	0.530962
C96	C	1.507890	0.658697	1.030962
C97	C	0.991885	0.095584	0.408677
C98	C	1.491885	0.595584	0.908677
C99	C	0.916055	0.082047	0.530967
C100	C	1.416055	0.582047	1.030967
C101	C	0.991898	0.095570	0.591399
C102	C	1.491898	0.595570	1.091399
C103	C	1.067773	0.109169	0.469121
C104	C	1.567773	0.609169	0.969121
C105	C	0.975888	0.032492	0.469120
C106	C	1.475888	0.532492	0.969120
C107	C	1.051792	0.046018	0.530897
C108	C	1.551792	0.546018	1.030897
C109	C	0.991877	0.095594	0.303416
C110	C	1.491877	0.595594	0.803416
C111	C	0.991916	0.095559	0.696658
C112	C	1.491916	0.595559	1.196658
H113	H	0.554166	0.035016	-0.140246
H114	H	1.054166	0.535016	0.359754
H115	H	0.459249	-0.027807	0.000133
H116	H	0.959249	0.472193	0.500133
H117	H	0.847895	-0.677402	-0.000009
H118	H	1.347895	-0.177402	0.499991
Cl119	Cl	0.414002	0.171162	0.175498
Cl120	Cl	0.914002	0.671162	0.675498
Cl121	Cl	0.816618	-0.525467	0.000004
Cl122	Cl	1.316618	-0.025467	0.500004
Cl123	Cl	1.130018	-0.018701	0.572496
Cl124	Cl	1.630018	0.481299	1.072496
Cl125	Cl	1.028801	0.241063	0.572903
Cl126	Cl	1.528801	0.741063	1.072903
H127	H	0.881484	0.187088	0.442049
H128	H	1.381484	0.687088	0.942049
H129	H	0.962321	-0.020841	0.441935
H130	H	1.462321	0.479159	0.941935
H131	H	1.131920	0.120677	0.442070
H132	H	1.631920	0.620677	0.942070
Cl133	Cl	1.170073	-0.119003	0.000079
Cl134	Cl	1.670073	0.380997	0.500079
H135	H	0.851922	0.070604	0.558135
H136	H	1.351922	0.570604	1.058135
H137	H	1.133539	-0.263561	0.000069
H138	H	1.633539	0.236439	0.500069
H139	H	0.554160	0.035038	0.140378
H140	H	1.054160	0.535038	0.640378
Cl141	Cl	0.821580	-0.245809	0.000029
Cl142	Cl	1.321580	0.254191	0.500029
Cl143	Cl	0.413806	0.171129	-0.175246
Cl144	Cl	0.913806	0.671129	0.324754
Cl145	Cl	0.532651	0.249801	0.000122
Cl146	Cl	1.032651	0.749801	0.500122
H147	H	0.858106	-0.101246	0.000043
H148	H	1.358106	0.398754	0.500043
Cl149	Cl	1.162200	-0.563034	0.000063
Cl150	Cl	1.662200	-0.063034	0.500063
Cl151	Cl	1.159283	-0.727407	0.000017
Cl152	Cl	1.659283	-0.227407	0.500017
