data_functionalizedCrystal
_audit_creation_method	'MofGen! by Chris Wilmer'
_symmetry_space_group_name_H-M	'P1'
_symmetry_Int_Tables_number	1
_symmetry_cell_setting	triclinic
loop_
_symmetry_equiv_pos_as_xyz
  x,y,z
_cell_length_a	12.759395
_cell_length_b	10.686285
_cell_length_c	10.686551
_cell_angle_alpha	99.084519
_cell_angle_beta	85.605421
_cell_angle_gamma	94.366707
loop_
_atom_site_label
_atom_site_type_symbol
_atom_site_fract_x
_atom_site_fract_y
_atom_site_fract_z
Zn1	Zn	1.678452	0.450115	-0.678973
Zn2	Zn	1.678367	0.678695	-0.450471
Zn3	Zn	1.490236	0.466474	-0.466739
Zn4	Zn	1.515278	0.662317	-0.662677
O5	O	1.590583	0.564400	-0.564715
O6	O	1.825463	0.480445	-0.648673
O7	O	1.642895	0.664244	-0.274998
O8	O	1.504758	0.286682	-0.508520
O9	O	1.825401	0.648381	-0.480793
O10	O	1.643040	0.274663	-0.664448
O11	O	1.504676	0.508327	-0.286950
O12	O	1.346535	0.492445	-0.492719
O13	O	1.547440	0.620467	-0.842469
O14	O	1.364934	0.636330	-0.636674
O15	O	1.667323	0.464564	-0.854441
O16	O	1.667178	0.854145	-0.464992
O17	O	1.547357	0.842112	-0.620900
C18	C	1.610006	0.894182	-0.539440
C19	C	1.618414	1.035260	-0.528670
C20	C	1.317614	0.564387	-0.564694
C21	C	1.200840	0.564409	-0.564713
C22	C	1.610184	0.538864	-0.895801
C23	C	1.618537	0.527981	-1.036890
C24	C	1.220037	0.714519	-0.714331
C25	C	1.174775	0.789584	-0.789143
C26	C	1.065055	0.789598	-0.789158
C27	C	1.000594	0.714536	-0.714355
C28	C	1.045855	0.639472	-0.639543
C29	C	1.155578	0.639469	-0.639534
C30	C	1.026658	0.489357	-0.489934
C31	C	1.136378	0.489348	-0.489910
C32	C	0.962196	0.414295	-0.415131
C33	C	1.007457	0.339236	-0.340310
C34	C	1.117184	0.339226	-0.340298
C35	C	1.181639	0.414283	-0.415099
C36	C	1.864619	0.564415	-0.564736
C37	C	1.981397	0.564421	-0.564745
C38	C	1.571115	0.233329	-0.590116
C39	C	1.562819	0.092246	-0.600941
C40	C	1.571114	0.589746	-0.234924
C41	C	1.562944	0.600271	-0.093863
H42	H	1.309377	0.714525	-0.714317
O43	O	1.682878	0.444041	-1.107336
C44	C	1.723527	0.225012	-1.164763
C45	C	1.650600	0.319938	-1.084896
H46	H	1.697444	0.124652	-1.146669
H47	H	1.808042	0.249184	-1.137047
H48	H	1.719041	0.230928	-1.269784
H49	H	1.654995	0.314073	-0.979854
H50	H	1.566117	0.295736	-1.112719
O51	O	1.498527	0.684152	-1.023482
C52	C	1.375474	0.844095	-1.024822
C53	C	1.448400	0.749167	-1.104690
H54	H	1.334909	0.896666	-1.090447
H55	H	1.423946	0.915278	-0.957702
H56	H	1.313519	0.790541	-0.967182
H57	H	1.510367	0.802614	-1.162407
H58	H	1.399858	0.677986	-1.171730
H59	H	1.227272	0.850695	-0.850048
H60	H	1.672438	1.094409	-0.458542
O61	O	1.498451	1.021508	-0.684571
C62	C	1.431027	0.811678	-0.771834
C63	C	1.503982	0.891644	-0.677091
H64	H	1.435458	0.706669	-0.765799
H65	H	1.456994	0.829621	-0.872284
H66	H	1.346553	0.839561	-0.747493
H67	H	1.588477	0.863809	-0.701314
H68	H	1.477927	0.873693	-0.576667
H69	H	1.028205	0.850715	-0.850083
H70	H	1.270980	0.414286	-0.415092
H71	H	0.872857	0.414307	-0.415154
O72	O	0.894031	0.714736	-0.714477
C73	C	0.747111	0.797052	-0.796655
C74	C	0.867808	0.796969	-0.796616
H75	H	0.725872	0.863511	-0.863077
H76	H	0.712977	0.830891	-0.696340
H77	H	0.713129	0.696730	-0.830642
H78	H	0.901880	0.897257	-0.762685
H79	H	0.901867	0.763059	-0.896947
H80	H	0.954965	0.278121	-0.279418
O81	O	1.160976	0.266278	-0.267504
C82	C	1.130341	0.117326	-0.119164
C83	C	1.080615	0.199900	-0.201524
H84	H	1.065393	0.063618	-0.065818
H85	H	1.181149	0.180561	-0.048141
H86	H	1.181307	0.046598	-0.182640
H87	H	1.029599	0.270639	-0.138149
H88	H	1.029869	0.136586	-0.272556
