data_functionalizedCrystal
_audit_creation_method	'MofGen! by Chris Wilmer'
_symmetry_space_group_name_H-M	'P1'
_symmetry_Int_Tables_number	1
_symmetry_cell_setting	triclinic
loop_
_symmetry_equiv_pos_as_xyz
  x,y,z
_cell_length_a	16.109301
_cell_length_b	16.109301
_cell_length_c	15.186229
_cell_angle_alpha	90.000638
_cell_angle_beta	89.996245
_cell_angle_gamma	96.538468
loop_
_atom_site_label
_atom_site_type_symbol
_atom_site_fract_x
_atom_site_fract_y
_atom_site_fract_z
O1	O	0.106866	-1.103131	-0.073173
O2	O	0.606866	-0.603131	0.426827
O3	O	0.120165	-0.861069	-0.073187
O4	O	0.620165	-0.361069	0.426813
O5	O	-0.007515	-0.988749	-0.073174
O6	O	0.492485	-0.488749	0.426826
O7	O	0.234547	-0.975450	-0.073186
O8	O	0.734547	-0.475450	0.426814
O9	O	-0.007517	-0.988741	0.073284
O10	O	0.492483	-0.488741	0.573284
O11	O	0.120164	-0.861060	0.073270
O12	O	0.620164	-0.361060	0.573270
O13	O	0.106864	-1.103122	0.073284
O14	O	0.606864	-0.603122	0.573284
Zn15	Zn	0.113514	-0.982090	0.096531
Zn16	Zn	0.613514	-0.482090	0.596531
Zn17	Zn	0.113516	-0.982101	-0.096433
Zn18	Zn	0.613516	-0.482101	0.403567
O19	O	0.234545	-0.975442	0.073271
O20	O	0.734545	-0.475442	0.573271
C21	C	0.119626	-0.830090	0.000040
C22	C	0.619626	-0.330090	0.500040
C23	C	0.118011	-0.737794	0.000035
C24	C	0.618011	-0.237794	0.500035
C25	C	-0.038491	-0.988206	0.000055
C26	C	0.461509	-0.488206	0.500055
C27	C	-0.130786	-0.986591	0.000053
C28	C	0.369214	-0.486591	0.500053
N29	N	0.113511	-0.982088	0.228223
N30	N	0.613511	-0.482088	0.728223
C31	C	-0.439785	-1.057074	0.000042
C32	C	0.060215	-0.557074	0.500042
C33	C	-0.353064	-1.058600	0.000047
C34	C	0.146936	-0.558600	0.500047
C35	C	-0.333191	-0.907111	0.000050
C36	C	0.166809	-0.407111	0.500050
C37	C	-0.419910	-0.905586	0.000051
C38	C	0.080090	-0.405586	0.500051
C39	C	-0.473205	-0.980571	0.000043
C40	C	0.026795	-0.480571	0.500043
C41	C	-0.299766	-0.983620	0.000047
C42	C	0.200234	-0.483620	0.500047
C43	C	-0.205740	-0.985274	0.000052
C44	C	0.294260	-0.485274	0.500052
C45	C	-0.567237	-0.978917	0.000039
C46	C	-0.067237	-0.478917	0.500039
C47	C	0.265521	-0.975985	0.000041
C48	C	0.765521	-0.475985	0.500041
C49	C	0.357816	-0.977600	0.000036
C50	C	0.857816	-0.477600	0.500036
C51	C	0.107404	-1.134101	0.000056
C52	C	0.607404	-0.634101	0.500056
C53	C	0.109019	-1.226397	0.000055
C54	C	0.609019	-0.726397	0.500055
C55	C	0.190018	-0.515522	0.000041
C56	C	0.690018	-0.015522	0.500041
C57	C	0.188494	-0.428802	0.000047
C58	C	0.688494	0.071198	0.500047
C59	C	0.037006	-0.448676	0.000051
C60	C	0.537006	0.051324	0.500051
C61	C	0.038530	-0.535395	0.000052
C62	C	0.538530	-0.035395	0.500052
C63	C	0.115039	-0.568815	0.000042
C64	C	0.615039	-0.068815	0.500042
C65	C	0.111990	-0.395376	0.000047
C66	C	0.611990	0.104624	0.500047
C67	C	0.110337	-0.301350	0.000054
C68	C	0.610337	0.198650	0.500054
C69	C	0.116693	-0.662847	0.000038
C70	C	0.616693	-0.162847	0.500038
N71	N	0.113512	-0.982109	-0.228126
N72	N	0.613512	-0.482109	0.271874
C73	C	0.056994	-1.038644	0.453952
C74	C	0.556994	-0.538644	0.953952
C75	C	0.056992	-1.038647	0.546142
C76	C	0.556992	-0.538647	1.046142
C77	C	0.170032	-0.925547	0.546139
C78	C	0.670032	-0.425547	1.046139
C79	C	0.170030	-0.925541	0.453951
C80	C	0.670030	-0.425541	0.953951
C81	C	0.113511	-0.982094	0.407860
C82	C	0.613511	-0.482094	0.907860
C83	C	0.113512	-0.982103	0.592238
C84	C	0.613512	-0.482103	1.092238
C85	C	0.113510	-0.982105	0.692194
C86	C	0.613510	-0.482105	1.192194
C87	C	0.113512	-0.982091	0.307897
C88	C	0.613512	-0.482091	0.807897
H89	H	-0.483175	-1.118131	0.000035
H90	H	0.016825	-0.618131	0.500035
C91	C	0.038923	-1.151758	0.350224
C92	C	0.538923	-0.651758	0.850224
C93	C	-0.005156	-1.100762	0.403265
C94	C	0.494844	-0.600762	0.903265
H95	H	0.000544	-1.190097	0.318932
H96	H	0.500544	-0.690097	0.818932
H97	H	0.072595	-1.118078	0.309599
H98	H	0.572595	-0.618078	0.809599
H99	H	0.073514	-1.181694	0.386175
H100	H	0.573514	-0.681694	0.886175
H101	H	-0.039743	-1.070821	0.367313
H102	H	0.460257	-0.570821	0.867313
H103	H	-0.038842	-1.134446	0.443895
H104	H	0.461158	-0.634446	0.943895
C105	C	-0.026395	-0.677155	0.000057
C106	C	0.473605	-0.177155	0.500057
C107	C	-0.043892	-0.593983	0.000052
C108	C	0.456108	-0.093983	0.500052
H109	H	-0.077277	-0.713323	0.000065
H110	H	0.422723	-0.213323	0.500065
H111	H	0.004973	-0.687279	-0.051013
H112	H	0.504973	-0.187279	0.448987
H113	H	0.004976	-0.687272	0.051133
H114	H	0.504976	-0.187272	0.551133
H115	H	-0.075258	-0.583865	-0.051028
H116	H	0.424742	-0.083865	0.448972
H117	H	-0.075274	-0.583855	0.051128
H118	H	0.424726	-0.083855	0.551128
C119	C	-0.092590	-0.438909	0.075340
C120	C	0.407410	0.061091	0.575340
C121	C	-0.047090	-0.411937	0.000051
C122	C	0.452910	0.088063	0.500051
H123	H	-0.144506	-0.416225	0.075339
H124	H	0.355494	0.083775	0.575339
H125	H	-0.102410	-0.498175	0.075337
H126	H	0.397590	0.001825	0.575337
H127	H	-0.061714	-0.420605	0.126407
H128	H	0.438286	0.079395	0.626407
H129	H	-0.077964	-0.430246	-0.051016
H130	H	0.422036	0.069754	0.448984
H131	H	-0.037273	-0.352658	0.000047
H132	H	0.462727	0.147342	0.500047
C133	C	-0.381424	-1.208184	0.000031
C134	C	0.118576	-0.708184	0.500031
C135	C	-0.316329	-1.142695	0.000040
C136	C	0.183671	-0.642695	0.500040
H137	H	-0.358744	-1.260102	0.000021
H138	H	0.141256	-0.760102	0.500021
H139	H	-0.414836	-1.204442	0.051100
H140	H	0.085164	-0.704442	0.551100
H141	H	-0.414831	-1.204428	-0.051046
H142	H	0.085169	-0.704428	0.448954
H143	H	-0.282926	-1.146448	0.051120
H144	H	0.217074	-0.646448	0.551120
H145	H	-0.282903	-1.146439	-0.051035
H146	H	0.217097	-0.646439	0.448965
H147	H	-0.447120	-0.843284	0.000056
H148	H	0.052880	-0.343284	0.500056
H149	H	0.216053	-0.879487	0.416420
H150	H	0.716053	-0.379487	0.916420
C151	C	0.339604	-0.487164	0.000048
C152	C	0.839604	0.012836	0.500048
C153	C	0.274115	-0.552259	0.000043
C154	C	0.774115	-0.052259	0.500043
H155	H	0.391522	-0.509844	0.000057
H156	H	0.891522	-0.009844	0.500057
H157	H	0.335863	-0.453757	-0.051022
H158	H	0.835863	0.046243	0.448978
H159	H	0.335846	-0.453752	0.051124
H160	H	0.835846	0.046248	0.551124
H161	H	0.277870	-0.585667	-0.051037
H162	H	0.777870	-0.085667	0.448963
H163	H	0.277858	-0.585680	0.051119
H164	H	0.777858	-0.085680	0.551119
C165	C	0.274661	-0.319749	-0.075245
C166	C	0.774661	0.180251	0.424755
C167	C	0.270913	-0.370220	0.000040
C168	C	0.770913	0.129780	0.500040
H169	H	0.325543	-0.283581	-0.075244
H170	H	0.825543	0.216419	0.424756
H171	H	0.272109	-0.353992	-0.126309
H172	H	0.772109	0.146008	0.373691
H173	H	0.228876	-0.287435	-0.075230
H174	H	0.728876	0.212565	0.424770
H175	H	0.316694	-0.402539	0.000022
H176	H	0.816694	0.097461	0.500022
H177	H	0.273473	-0.335973	0.051117
H178	H	0.773473	0.164027	0.551117
C179	C	-0.191432	-0.842183	0.000040
C180	C	0.308568	-0.342183	0.500040
C181	C	-0.274607	-0.824691	0.000048
C182	C	0.225393	-0.324691	0.500048
H183	H	-0.155268	-0.791298	0.000032
H184	H	0.344732	-0.291298	0.500032
H185	H	-0.181308	-0.873546	0.051110
H186	H	0.318692	-0.373546	0.551110
H187	H	-0.181312	-0.873556	-0.051036
H188	H	0.318688	-0.373556	0.448964
H189	H	-0.284729	-0.793323	0.051128
H190	H	0.215271	-0.293323	0.551128
H191	H	-0.284735	-0.793314	-0.051027
H192	H	0.215265	-0.293314	0.448973
C193	C	-0.054735	-1.150447	0.536878
C194	C	0.445265	-0.650447	1.036878
C195	C	-0.005131	-1.100812	0.596806
C196	C	0.494869	-0.600812	1.096806
H197	H	-0.093085	-1.188829	0.568158
H198	H	0.406915	-0.688829	1.068158
H199	H	-0.084651	-1.115849	0.500928
H200	H	0.415349	-0.615849	1.000928
H201	H	-0.020106	-1.180335	0.500915
H202	H	0.479894	-0.680335	1.000915
H203	H	-0.039759	-1.070919	0.632765
H204	H	0.460241	-0.570919	1.132765
H205	H	0.024788	-1.135414	0.632771
H206	H	0.524788	-0.635414	1.132771
H207	H	0.216049	-0.879504	0.583676
H208	H	0.716049	-0.379504	1.083676
