data_functionalizedCrystal
_audit_creation_method	'MofGen! by Chris Wilmer'
_symmetry_space_group_name_H-M	'P1'
_symmetry_Int_Tables_number	1
_symmetry_cell_setting	triclinic
loop_
_symmetry_equiv_pos_as_xyz
  x,y,z
_cell_length_a	13.635800
_cell_length_b	23.752959
_cell_length_c	12.908943
_cell_angle_alpha	83.494099
_cell_angle_beta	100.860631
_cell_angle_gamma	79.933576
loop_
_atom_site_label
_atom_site_type_symbol
_atom_site_fract_x
_atom_site_fract_y
_atom_site_fract_z
V1	V	1.989768	-0.078445	0.329272
O2	O	1.992634	0.004504	0.322391
O3	O	1.957359	-0.156250	0.327609
O4	O	1.959069	-0.076916	0.472610
O5	O	1.990912	-0.075379	0.176387
V6	V	2.233488	-0.068561	0.310914
O7	O	2.116102	-0.100125	0.369542
O8	O	2.332253	-0.046881	0.270645
O9	O	2.154293	0.009244	0.312577
O10	O	2.289320	-0.151510	0.317795
O11	O	2.291042	-0.071627	0.463799
O12	O	2.152583	-0.070090	0.167576
V13	V	2.489768	-0.078445	0.329272
O14	O	2.492634	0.004504	0.322391
O15	O	2.457359	-0.156250	0.327609
O16	O	2.459069	-0.076916	0.472610
O17	O	2.490912	-0.075379	0.176387
V18	V	2.733488	-0.068561	0.310914
O19	O	2.616102	-0.100125	0.369542
O20	O	2.832253	-0.046881	0.270645
O21	O	2.654293	0.009244	0.312577
O22	O	2.789320	-0.151510	0.317795
O23	O	2.791042	-0.071627	0.463799
O24	O	2.652583	-0.070090	0.167576
C25	C	1.878073	-0.175227	0.322567
C26	C	1.892175	-0.238831	0.322163
C27	C	1.862697	-0.510855	0.315200
C28	C	1.849431	-0.451091	0.315571
O29	O	1.765608	-0.417716	0.311307
N30	N	1.933300	-0.424102	0.321033
C31	C	2.030443	-0.456882	0.326135
O32	O	2.100562	-0.428438	0.330815
C33	C	2.043709	-0.516645	0.325771
C34	C	1.959832	-0.543630	0.320298
C35	C	1.778827	-0.537840	0.309729
C36	C	1.792092	-0.597600	0.309356
C37	C	1.889227	-0.630375	0.314454
C38	C	1.973097	-0.603390	0.319925
C39	C	2.140852	-0.549425	0.330880
C40	C	2.154112	-0.609192	0.330517
C41	C	2.070234	-0.636177	0.325044
C42	C	2.083497	-0.695925	0.324650
N43	N	1.999628	-0.722913	0.319188
C44	C	1.902493	-0.690138	0.314090
C45	C	2.002577	-0.331374	0.326900
C46	C	1.989312	-0.271611	0.327256
C47	C	1.808300	-0.265824	0.316694
C48	C	1.821566	-0.325588	0.316331
C49	C	1.918708	-0.358363	0.321438
C50	C	1.930358	-0.815638	0.313306
C51	C	1.943631	-0.875403	0.312929
C52	C	2.124642	-0.881185	0.323496
C53	C	2.111369	-0.821425	0.323867
C54	C	2.014220	-0.788653	0.318776
O55	O	2.167289	-0.729337	0.328916
O56	O	1.832390	-0.718591	0.309424
C57	C	1.880253	-0.074028	0.507529
C58	C	1.895741	-0.073292	0.624712
C59	C	2.065250	0.028218	0.317616
C60	C	2.040766	0.091822	0.318027
C61	C	2.063070	-0.072980	0.132652
C62	C	2.037202	-0.073713	0.015468
C63	C	2.378073	-0.175227	0.322567
C64	C	2.392175	-0.238831	0.322163
C65	C	2.380253	-0.074028	0.507529
C66	C	2.395741	-0.073292	0.624712
C67	C	2.105870	-0.077588	0.855691
C68	C	2.120427	-0.076898	0.965796
C69	C	1.939412	-0.071216	0.955027
C70	C	1.924855	-0.071907	0.844922
C71	C	2.008088	-0.075094	0.795258
C72	C	1.993531	-0.075789	0.685153
C73	C	1.812516	-0.070103	0.674385
C74	C	1.827073	-0.069413	0.784490
C75	C	2.565250	0.028218	0.317616
C76	C	2.540766	0.091822	0.318027
C77	C	2.563070	-0.072980	0.132652
C78	C	2.537202	-0.073713	0.015468
C79	C	2.489311	-0.271606	0.327262
C80	C	2.502578	-0.331371	0.326899
C81	C	2.418707	-0.358359	0.321429
C82	C	2.321565	-0.325580	0.316332
C83	C	2.308300	-0.265817	0.316703
C84	C	2.605870	-0.077588	0.855691
C85	C	2.620427	-0.076898	0.965796
C86	C	2.439412	-0.071216	0.955027
C87	C	2.424855	-0.071907	0.844922
C88	C	2.508088	-0.075094	0.795258
C89	C	2.493531	-0.075789	0.685153
C90	C	2.312516	-0.070103	0.674385
C91	C	2.327073	-0.069413	0.784490
C92	C	2.616125	0.124596	0.312931
C93	C	2.593129	0.184361	0.313299
C94	C	2.494777	0.211349	0.318772
C95	C	2.419412	0.178570	0.323865
C96	C	2.442406	0.118807	0.323489
H97	H	1.875324	-0.897371	0.308473
H98	H	1.759310	-0.066816	0.824940
H99	H	2.476067	0.260012	0.319077
H100	H	2.253282	-0.347562	0.311879
H101	H	2.581682	-0.358052	0.331046
H102	H	2.200049	-0.078929	1.014996
H103	H	1.699726	-0.511161	0.305581
H104	H	2.339332	0.200552	0.328320
H105	H	2.429522	-0.407022	0.321128
H106	H	2.179666	-0.799451	0.328300
H107	H	1.732894	-0.068075	0.625170
H108	H	2.557613	-0.249640	0.331710
H109	H	1.871650	-0.068618	0.995481
H110	H	2.229200	-0.239135	0.312546
H111	H	2.561306	-0.078386	0.644720
H112	H	1.723788	-0.619565	0.304896
H113	H	2.654507	0.211041	0.309153
H114	H	2.673644	-0.080189	0.815256
H115	H	2.700049	-0.078929	1.014996
H116	H	2.203729	-0.907881	0.327645
H117	H	2.371650	-0.068618	0.995481
H118	H	2.381037	0.092125	0.327648
H119	H	2.259310	-0.066816	0.824940
H120	H	1.753265	-0.347555	0.311883
H121	H	1.851252	-0.788963	0.309164
H122	H	2.057612	-0.249644	0.331694
H123	H	1.729206	-0.239128	0.312548
H124	H	2.081684	-0.358055	0.331050
H125	H	2.232894	-0.068075	0.625170
H126	H	2.061306	-0.078386	0.644720
H127	H	2.173644	-0.080189	0.815256
H128	H	2.209158	-0.527465	0.335341
H129	H	2.233217	-0.635875	0.334679
H130	H	2.696215	0.102631	0.308475
