data_functionalizedCrystal
_audit_creation_method	'MofGen! by Chris Wilmer'
_symmetry_space_group_name_H-M	'P1'
_symmetry_Int_Tables_number	1
_symmetry_cell_setting	triclinic
loop_
_symmetry_equiv_pos_as_xyz
  x,y,z
_cell_length_a	10.654556
_cell_length_b	14.519731
_cell_length_c	9.130313
_cell_angle_alpha	89.994496
_cell_angle_beta	89.998135
_cell_angle_gamma	84.088195
loop_
_atom_site_label
_atom_site_type_symbol
_atom_site_fract_x
_atom_site_fract_y
_atom_site_fract_z
O1	O	1.666603	0.129559	-0.121748
O2	O	1.301008	0.141894	-0.121763
O3	O	1.493484	0.001540	-0.121742
O4	O	1.474126	0.269913	-0.121769
O5	O	1.493471	0.001536	0.121857
O6	O	1.300995	0.141890	0.121836
O7	O	1.666589	0.129555	0.121851
Cu8	Cu	1.483791	0.135722	0.144086
Cu9	Cu	1.483806	0.135727	-0.143998
O10	O	1.474113	0.269909	0.121830
C11	C	1.254212	0.140985	0.000035
C12	C	1.114795	0.138271	0.000029
C13	C	0.918293	0.134453	-0.132745
C14	C	1.049291	0.136997	-0.132754
C15	C	1.049295	0.136992	0.132831
C16	C	0.918301	0.134442	0.132838
C17	C	1.492571	-0.032827	0.000058
C18	C	1.489853	-0.135221	0.000059
C19	C	1.487644	-0.218377	0.000055
C20	C	1.484884	-0.322700	0.000044
C21	C	1.482694	-0.405850	0.000035
C22	C	1.479935	-0.510180	0.000026
C23	C	1.713385	0.130464	0.000050
C24	C	1.852802	0.133177	0.000046
C25	C	1.475026	0.304275	0.000027
C26	C	1.477744	0.406670	0.000016
N27	N	1.483789	0.135718	0.346709
N28	N	1.483818	0.135724	-0.346620
C29	C	1.569046	0.073596	0.423370
C30	C	1.569058	0.073596	0.576707
C31	C	1.398552	0.197849	0.576707
C32	C	1.398535	0.197843	0.423373
H33	H	1.102608	0.138035	-0.240886
O34	O	1.315622	0.258230	0.650956
C35	C	1.146545	0.381505	0.634771
C36	C	1.240377	0.313156	0.550508
H37	H	1.085703	0.425943	0.553595
H38	H	1.083646	0.341303	0.706539
H39	H	1.200893	0.427912	0.706576
H40	H	1.186132	0.266732	0.478623
H41	H	1.303275	0.353415	0.478832
O42	O	1.113083	0.138109	0.261723
C43	C	1.274974	0.061209	0.415897
C44	C	1.202858	0.059838	0.269857
H45	H	1.347555	-0.002076	0.422534
H46	H	1.325051	0.126789	0.422543
H47	H	1.205631	0.059902	0.510786
H48	H	1.272116	0.061111	0.174885
H49	H	1.152762	-0.005736	0.263338
O50	O	0.854869	0.133182	-0.261864
C51	C	0.868687	0.133511	-0.525288
C52	C	0.940669	0.134934	-0.379163
H53	H	0.938021	0.134946	-0.620163
H54	H	0.818734	0.067878	-0.532020
H55	H	0.795988	0.196729	-0.531852
H56	H	1.013428	0.071760	-0.372501
H57	H	0.990535	0.200608	-0.372493
O58	O	1.651898	0.013155	0.349124
C59	C	1.821061	-0.110054	0.365314
C60	C	1.727282	-0.041666	0.449574
H61	H	1.882052	-0.154382	0.446491
H62	H	1.766797	-0.156564	0.293590
H63	H	1.883823	-0.069794	0.293465
H64	H	1.664497	-0.081851	0.521503
H65	H	1.781624	0.004844	0.521206
H66	H	0.864977	0.133402	0.240979
H67	H	1.638481	0.023009	0.639120
H68	H	1.329102	0.248431	0.360952
