data_functionalizedCrystal
_audit_creation_method	'MofGen! by Chris Wilmer'
_symmetry_space_group_name_H-M	'P1'
_symmetry_Int_Tables_number	1
_symmetry_cell_setting	triclinic
loop_
_symmetry_equiv_pos_as_xyz
  x,y,z
_cell_length_a	10.268362
_cell_length_b	10.654550
_cell_length_c	10.654550
_cell_angle_alpha	84.484903
_cell_angle_beta	90.004111
_cell_angle_gamma	90.008099
loop_
_atom_site_label
_atom_site_type_symbol
_atom_site_fract_x
_atom_site_fract_y
_atom_site_fract_z
O1	O	-0.108404	-1.667841	-0.176400
O2	O	-0.108383	-1.302363	-0.193206
O3	O	-0.108389	-1.493505	-0.002063
O4	O	-0.108398	-1.476699	-0.367542
O5	O	0.108212	-1.493488	-0.002055
O6	O	0.108218	-1.302346	-0.193198
O7	O	0.108197	-1.667824	-0.176392
Cu8	Cu	0.127985	-1.485084	-0.184794
Cu9	Cu	-0.128171	-1.485104	-0.184803
O10	O	0.108203	-1.476682	-0.367534
C11	C	-0.000080	-1.255556	-0.191968
C12	C	-0.000072	-1.116113	-0.188276
N13	N	0.308151	-1.485079	-0.184787
N14	N	-0.308336	-1.485118	-0.184801
C15	C	0.573821	-1.485097	-0.184801
C16	C	0.425983	-1.485083	-0.184797
C17	C	-0.000090	-1.492263	0.044739
C18	C	-0.000094	-1.488571	0.184182
C19	C	-0.000109	-1.714631	-0.177630
C20	C	-0.000126	-1.854074	-0.181321
C21	C	-0.000093	-1.036627	-0.300817
C22	C	-0.000116	-0.905607	-0.297341
C23	C	-0.000100	-0.933570	-0.068771
C24	C	-0.000068	-1.064588	-0.072249
C25	C	-0.000108	-1.020482	-0.432780
C26	C	-0.000130	-0.889461	-0.429304
C27	C	-0.000099	-1.477925	-0.414336
C28	C	-0.000103	-1.481616	-0.553779
C29	C	-0.000097	-1.601112	0.263668
C30	C	-0.000106	-1.597636	0.394688
C31	C	-0.000104	-1.369066	0.366725
C32	C	-0.000105	-1.372544	0.235707
C33	C	-0.000092	-1.733075	0.279813
C34	C	-0.000101	-1.729599	0.410834
H35	H	-0.000032	-1.129302	0.019393
C36	C	-0.000110	-1.248749	0.148276
H37	H	-0.000104	-1.179154	0.197731
H38	H	-0.075642	-1.245366	0.096578
H39	H	0.075434	-1.245343	0.096592
C40	C	-0.000105	-1.241448	0.423407
H41	H	-0.000099	-1.255493	0.512821
H42	H	-0.075635	-1.195066	0.396183
H43	H	0.075442	-1.195057	0.396198
C44	C	-0.122543	-1.802799	0.240137
H45	H	-0.172911	-1.829104	0.312727
H46	H	-0.097370	-1.874459	0.199356
H47	H	-0.172906	-1.747831	0.183860
C48	C	0.126236	-1.789841	0.231680
H49	H	0.182491	-1.812719	0.300909
H50	H	0.168214	-1.729307	0.174074
H51	H	0.105936	-1.862539	0.190378
H52	H	0.093381	-0.843782	-0.469181
H53	H	0.090543	-1.049806	-0.484387
C54	C	-0.126428	-1.068668	-0.489559
H55	H	-0.182701	-0.999462	-0.512444
H56	H	-0.168389	-1.126291	-0.429029
H57	H	-0.106123	-1.109962	-0.562255
H58	H	-0.000118	-0.891602	0.025694
H59	H	-0.090785	-0.847735	-0.479029
H60	H	-0.093626	-1.769487	0.456473
H61	H	0.090541	-1.779313	0.452597
