data_functionalizedCrystal
_audit_creation_method	'MofGen! by Chris Wilmer'
_symmetry_space_group_name_H-M	'P1'
_symmetry_Int_Tables_number	1
_symmetry_cell_setting	triclinic
loop_
_symmetry_equiv_pos_as_xyz
  x,y,z
_cell_length_a	17.699097
_cell_length_b	17.699083
_cell_length_c	14.048226
_cell_angle_alpha	89.992674
_cell_angle_beta	89.989943
_cell_angle_gamma	83.285722
loop_
_atom_site_label
_atom_site_type_symbol
_atom_site_fract_x
_atom_site_fract_y
_atom_site_fract_z
O1	O	1.004071	0.095761	-0.079242
O2	O	0.783694	0.108203	-0.079226
O3	O	0.900109	-0.008207	-0.079226
O4	O	0.887657	0.212171	-0.079242
O5	O	0.900095	-0.008214	0.079095
O6	O	0.783680	0.108196	0.079095
O7	O	1.004057	0.095754	0.079080
Zn8	Zn	0.893867	0.101974	0.104224
Zn9	Zn	0.893885	0.101983	-0.104371
O10	O	0.887643	0.212164	0.079079
C11	C	0.755491	0.107752	-0.000064
C12	C	0.671473	0.106409	-0.000058
C13	C	0.155762	0.098183	-0.086396
C14	C	0.234707	0.099440	-0.086392
C15	C	0.274165	0.100065	-0.000087
C16	C	0.234676	0.099427	0.086219
C17	C	0.155734	0.098165	0.086213
C18	C	0.553040	0.104514	0.086244
C19	C	0.631987	0.105778	0.086243
C20	C	0.632013	0.105789	-0.086361
C21	C	0.553071	0.104527	-0.086367
C22	C	0.513589	0.103885	-0.000062
C23	C	0.427989	0.102521	-0.000068
C24	C	0.359763	0.101434	-0.000080
C25	C	0.899656	-0.036408	-0.000065
C26	C	0.898317	-0.120426	-0.000065
C27	C	0.966650	-0.169044	-0.000068
C28	C	0.965388	-0.247987	-0.000076
C29	C	0.895792	-0.278311	-0.000075
C30	C	0.827454	-0.229687	-0.000074
C31	C	0.828717	-0.150745	-0.000072
C32	C	0.822359	-0.548050	-0.000081
C33	C	0.821101	-0.626998	-0.000080
C34	C	0.959030	-0.645292	-0.000085
C35	C	0.960293	-0.566350	-0.000084
C36	C	0.891955	-0.517733	-0.000088
C37	C	0.893325	-0.432134	-0.000081
C38	C	0.894422	-0.363909	-0.000075
C39	C	1.032261	0.096205	-0.000085
C40	C	1.116279	0.097547	-0.000097
C41	C	0.888096	0.240364	-0.000083
C42	C	0.889435	0.324382	-0.000090
N43	N	0.893860	0.101967	0.246585
N44	N	0.893898	0.101983	-0.246732
C45	C	0.945424	0.050442	0.296403
C46	C	0.945429	0.050442	0.396061
C47	C	0.893873	0.101970	0.445898
C48	C	0.842303	0.153498	0.396073
C49	C	0.842295	0.153494	0.296417
C50	C	0.842325	0.153503	0.603788
C51	C	0.842334	0.153508	0.703450
C52	C	0.945459	0.050451	0.703431
C53	C	0.945451	0.050447	0.603775
C54	C	0.893882	0.101976	0.553957
H55	H	0.266851	0.099953	-0.156665
C56	C	0.684878	-0.600989	-0.000101
C57	C	0.744595	-0.660332	-0.000090
H58	H	0.637651	-0.621570	-0.000114
H59	H	0.688225	-0.570585	0.055106
H60	H	0.688255	-0.570574	-0.055315
H61	H	0.741222	-0.690744	0.055127
H62	H	0.741247	-0.690749	-0.055303
C63	C	0.075573	0.031700	0.186346
C64	C	0.112332	0.097466	0.181077
H65	H	0.048784	0.031265	0.244916
H66	H	0.040779	0.031153	0.134952
H67	H	0.112232	-0.011919	0.182760
H68	H	0.075672	0.141085	0.184656
H69	H	0.147129	0.098020	0.232485
H70	H	0.520905	0.103980	0.156519
C71	C	0.712184	0.172246	-0.186497
C72	C	0.675417	0.106486	-0.181231
H73	H	0.738982	0.172675	-0.245062
H74	H	0.675537	0.215865	-0.182916
H75	H	0.746980	0.172788	-0.135093
H76	H	0.640617	0.105947	-0.232632
H77	H	0.712068	0.062856	-0.184822
C78	C	0.743754	-0.448670	-0.081472
C79	C	0.747240	-0.494621	-0.000082
H80	H	0.697373	-0.415687	-0.081473
H81	H	0.785373	-0.419309	-0.081468
H82	H	0.746140	-0.479851	-0.136674
H83	H	0.744860	-0.463440	0.055121
H84	H	0.705610	-0.523985	-0.000077
C85	C	1.048459	0.033911	0.508109
C86	C	1.002111	-0.006190	0.450830
H87	H	1.083449	-0.001054	0.541926
H88	H	1.075617	0.065376	0.469215
H89	H	1.017742	0.064596	0.552043
H90	H	1.032829	-0.036872	0.406891
H91	H	0.974951	-0.037669	0.489727
C92	C	0.962099	-0.052589	0.815500
C93	C	1.002145	-0.006197	0.758182
H94	H	0.997096	-0.087560	0.849297
H95	H	0.931403	-0.021905	0.859442
H96	H	0.930648	-0.079775	0.776628
H97	H	1.033592	0.020993	0.797055
H98	H	1.032854	-0.036885	0.714234
C99	C	0.624040	0.105620	0.256869
C100	C	0.675363	0.106456	0.181116
H101	H	0.650821	0.106034	0.315435
H102	H	0.587400	0.149245	0.253286
H103	H	0.599102	0.061007	0.253268
H104	H	0.700297	0.151073	0.184714
H105	H	0.712017	0.062828	0.184701
C106	C	0.740396	0.255383	0.613812
C107	C	0.785643	0.210148	0.549025
H108	H	0.705410	0.290357	0.580001
H109	H	0.713233	0.223914	0.652693
H110	H	0.771861	0.282566	0.652668
H111	H	0.754179	0.182961	0.510174
H112	H	0.812808	0.241622	0.510127
C113	C	0.267591	0.034764	0.233343
C114	C	0.278050	0.100111	0.181087
H115	H	0.294372	0.035187	0.291908
H116	H	0.214932	0.033927	0.245691
H117	H	0.286391	-0.009140	0.197873
H118	H	0.259245	0.144015	0.216554
H119	H	0.330720	0.100956	0.168741
H120	H	0.800305	0.195450	0.255856
H121	H	1.023323	-0.144360	-0.000064
H122	H	0.773073	-0.111161	-0.000070
H123	H	1.021032	-0.287569	-0.000077
H124	H	1.016965	-0.541665	-0.000081
H125	H	0.123640	0.097679	-0.156676
C126	C	1.018351	-0.774429	-0.000105
C127	C	1.034150	-0.698735	-0.000096
H128	H	1.064727	-0.807419	-0.000116
H129	H	0.989808	-0.783613	0.055102
H130	H	0.989813	-0.783593	-0.055319
H131	H	1.062684	-0.689570	0.055122
H132	H	1.062706	-0.689547	-0.055308
H133	H	0.520947	0.104021	-0.156645
C134	C	0.764271	-0.342575	-0.000063
C135	C	0.750952	-0.263018	-0.000069
H136	H	0.717040	-0.363148	-0.000051
H137	H	0.792399	-0.359263	-0.055272
H138	H	0.792398	-0.359267	0.055149
H139	H	0.722829	-0.246325	-0.055284
H140	H	0.722811	-0.246323	0.055146
H141	H	0.987411	0.008484	0.255832
H142	H	0.987436	0.008492	0.563197
H143	H	0.800350	0.195468	0.744023
H144	H	0.800321	0.195451	0.436657
