data_functionalizedCrystal
_audit_creation_method	'MofGen! by Chris Wilmer'
_symmetry_space_group_name_H-M	'P1'
_symmetry_Int_Tables_number	1
_symmetry_cell_setting	triclinic
loop_
_symmetry_equiv_pos_as_xyz
  x,y,z
_cell_length_a	10.654550
_cell_length_b	10.540539
_cell_length_c	9.730223
_cell_angle_alpha	89.997733
_cell_angle_beta	89.999957
_cell_angle_gamma	84.505211
loop_
_atom_site_label
_atom_site_type_symbol
_atom_site_fract_x
_atom_site_fract_y
_atom_site_fract_z
O1	O	1.667902	0.178301	-0.114180
O2	O	1.302429	0.195288	-0.114205
O3	O	1.493504	0.002085	-0.114190
O4	O	1.476827	0.371504	-0.114195
O5	O	1.493491	0.002079	0.114390
O6	O	1.302417	0.195282	0.114375
O7	O	1.667889	0.178295	0.114400
Zn8	Zn	1.485151	0.186788	0.150679
Zn9	Zn	1.485167	0.186795	-0.150484
O10	O	1.476815	0.371498	0.114385
C11	C	1.255625	0.194038	0.000082
C12	C	1.116180	0.190306	0.000072
C13	C	1.036735	0.304061	0.000075
C14	C	0.905712	0.300547	0.000099
C15	C	0.933594	0.069513	0.000112
C16	C	1.064614	0.073029	0.000098
C17	C	1.492247	-0.045221	0.000097
C18	C	1.488505	-0.186167	0.000090
C19	C	1.345134	-0.369543	-0.000433
C20	C	1.348927	-0.222926	0.000082
C21	C	1.555670	-0.247852	0.130624
C22	C	1.550906	-0.394395	0.130734
C23	C	1.553759	-0.394908	-0.129204
C24	C	1.555044	-0.247927	-0.130930
C25	C	1.714694	0.179545	0.000110
C26	C	1.854139	0.183277	0.000110
C27	C	1.478072	0.418804	0.000095
C28	C	1.481813	0.559750	0.000093
N29	N	1.485149	0.186782	0.356216
N30	N	1.485179	0.186791	-0.356021
C31	C	1.569786	0.101269	0.428148
C32	C	1.569799	0.101269	0.572031
C33	C	1.400533	0.272309	0.572037
C34	C	1.400516	0.272301	0.428156
H35	H	1.078715	0.399556	0.000064
H36	H	1.290002	-0.398121	-0.094042
C37	C	0.818322	0.425674	0.000095
H38	H	0.732905	0.406789	0.000121
H39	H	0.834058	0.473710	-0.079623
H40	H	0.834077	0.473714	0.079809
C41	C	1.307414	0.366345	0.651169
H42	H	1.256986	0.417254	0.587718
H43	H	1.353029	0.419634	0.707305
H44	H	1.254747	0.320144	0.707287
H45	H	1.638716	0.031634	0.630595
C46	C	1.307414	0.366374	0.349025
H47	H	1.257024	0.417319	0.412475
H48	H	1.254726	0.320211	0.292909
H49	H	1.353064	0.419644	0.292886
H50	H	1.658172	-0.225535	0.135484
C51	C	0.876866	-0.059481	0.000122
H52	H	0.787457	-0.045285	0.000116
H53	H	0.904071	-0.106373	0.079831
H54	H	0.904062	-0.106362	-0.079601
H55	H	1.129302	-0.019610	0.000100
C56	C	1.270944	-0.410307	0.125311
H57	H	1.322905	-0.470227	0.178132
H58	H	1.198317	-0.448156	0.095297
H59	H	1.245862	-0.337680	0.180099
H60	H	1.295697	-0.181153	0.093803
C61	C	1.277517	-0.165335	-0.126311
H62	H	1.245918	-0.231541	-0.178433
H63	H	1.333244	-0.121954	-0.181538
H64	H	1.209303	-0.106995	-0.096930
H65	H	1.501258	-0.422579	0.228305
H66	H	1.654576	-0.442170	-0.130075
H67	H	1.651289	-0.442400	0.136663
C68	C	1.492620	-0.190307	0.261846
H69	H	1.425376	-0.128706	0.237362
H70	H	1.552945	-0.150757	0.314666
H71	H	1.460612	-0.255968	0.314455
C72	C	1.492738	-0.437496	-0.262860
H73	H	1.422804	-0.483332	-0.241053
H74	H	1.552854	-0.490746	-0.313824
H75	H	1.464877	-0.364671	-0.316146
H76	H	1.656808	-0.223742	-0.138805
C77	C	1.488757	-0.192597	-0.261389
H78	H	1.420817	-0.132104	-0.236131
H79	H	1.457315	-0.259425	-0.312645
H80	H	1.547245	-0.152095	-0.315866
C81	C	1.662867	0.007192	0.349018
H82	H	1.713266	-0.043745	0.412471
H83	H	1.715547	0.053341	0.292874
H84	H	1.617202	-0.046085	0.292907
