data_functionalizedCrystal
_audit_creation_method	'MofGen! by Chris Wilmer'
_symmetry_space_group_name_H-M	'P1'
_symmetry_Int_Tables_number	1
_symmetry_cell_setting	triclinic
loop_
_symmetry_equiv_pos_as_xyz
  x,y,z
_cell_length_a	23.532407
_cell_length_b	22.010155
_cell_length_c	23.532407
_cell_angle_alpha	90.000423
_cell_angle_beta	97.151284
_cell_angle_gamma	89.994913
loop_
_atom_site_label
_atom_site_type_symbol
_atom_site_fract_x
_atom_site_fract_y
_atom_site_fract_z
O1	O	-0.755264	0.050484	0.069127
O2	O	-0.421930	0.383817	0.402461
O3	O	-0.088597	0.717151	0.735794
O4	O	-0.589400	0.050496	0.079130
O5	O	-0.256067	0.383830	0.412464
O6	O	0.077266	0.717163	0.745797
O7	O	-0.677334	0.050479	-0.008803
O8	O	-0.344000	0.383812	0.324531
O9	O	-0.010667	0.717145	0.657864
O10	O	-0.667330	0.050502	0.157061
O11	O	-0.333997	0.383835	0.490394
O12	O	-0.000664	0.717168	0.823727
O13	O	-0.677318	-0.050572	-0.008790
O14	O	-0.343984	0.282762	0.324544
O15	O	-0.010651	0.616095	0.657877
O16	O	-0.589384	-0.050554	0.079144
O17	O	-0.256051	0.282779	0.412477
O18	O	0.077282	0.616113	0.745810
O19	O	-0.755248	-0.050566	0.069141
O20	O	-0.421914	0.282767	0.402474
O21	O	-0.088581	0.616100	0.735807
Cu22	Cu	-0.672315	-0.059787	0.074143
Cu23	Cu	-0.338981	0.273546	0.407477
Cu24	Cu	-0.005648	0.606880	0.740810
Cu25	Cu	-0.672333	0.059717	0.074128
Cu26	Cu	-0.339000	0.393050	0.407461
Cu27	Cu	-0.005667	0.726383	0.740794
O28	O	-0.667314	-0.050549	0.157074
O29	O	-0.333981	0.282785	0.490407
O30	O	-0.000648	0.616118	0.823740
C31	C	-0.568176	-0.000027	0.078882
C32	C	-0.234843	0.333306	0.412216
C33	C	0.098490	0.666639	0.745549
C34	C	-0.504959	-0.000023	0.078116
C35	C	-0.171626	0.333310	0.411450
C36	C	0.161707	0.666644	0.744783
N37	N	-0.672305	-0.143839	0.074154
N38	N	-0.338972	0.189494	0.407487
N39	N	-0.005639	0.522827	0.740821
C40	C	-0.238792	-0.000044	0.022921
C41	C	0.094542	0.333289	0.356254
C42	C	0.427875	0.666623	0.689588
C43	C	-0.298192	-0.000045	0.023632
C44	C	0.035141	0.333289	0.356966
C45	C	0.368475	0.666622	0.690299
O46	O	-0.334937	-0.000072	-0.020153
O47	O	-0.001603	0.333261	0.313180
O48	O	0.331730	0.666595	0.646513
N49	N	-0.320818	-0.000033	0.075909
N50	N	0.012515	0.333300	0.409242
N51	N	0.345848	0.666633	0.742575
C52	C	-0.284041	-0.000028	0.127477
C53	C	0.049293	0.333305	0.460810
C54	C	0.382626	0.666639	0.794144
O55	O	-0.308740	-0.000019	0.172007
O56	O	0.024593	0.333314	0.505341
O57	O	0.357926	0.666647	0.838674
C58	C	-0.224642	-0.000032	0.126765
C59	C	0.108692	0.333301	0.460098
C60	C	0.442025	0.666635	0.793432
C61	C	-0.202019	-0.000037	0.074485
C62	C	0.131314	0.333296	0.407819
C63	C	0.464648	0.666630	0.741152
C64	C	-0.216168	-0.000050	-0.029354
C65	C	0.117165	0.333284	0.303979
C66	C	0.450498	0.666617	0.637312
C67	C	-0.156772	-0.000048	-0.030066
C68	C	0.176561	0.333285	0.303268
C69	C	0.509894	0.666619	0.636601
C70	C	-0.119999	-0.000041	0.021499
C71	C	0.213334	0.333292	0.354832
C72	C	0.546667	0.666626	0.688165
C73	C	-0.142623	-0.000035	0.073774
C74	C	0.190711	0.333298	0.407107
C75	C	0.524044	0.666631	0.740441
C76	C	-0.187865	-0.000031	0.178333
C77	C	0.145468	0.333302	0.511666
C78	C	0.478801	0.666636	0.844999
C79	C	-0.128463	-0.000035	0.177616
C80	C	0.204871	0.333298	0.510949
C81	C	0.538204	0.666631	0.844283
C82	C	-0.105840	-0.000040	0.125336
C83	C	0.227493	0.333293	0.458670
C84	C	0.560827	0.666626	0.792003
C85	C	-0.046454	-0.000027	0.124627
C86	C	0.286880	0.333307	0.457960
C87	C	0.620213	0.666640	0.791294
N88	N	-0.023828	-0.000038	0.072351
N89	N	0.309506	0.333296	0.405684
N90	N	0.642839	0.666629	0.739017
C91	C	-0.060600	-0.000045	0.020787
C92	C	0.272733	0.333289	0.354120
C93	C	0.606066	0.666622	0.687453
C94	C	-0.408783	-0.000021	0.128968
C95	C	-0.075450	0.333312	0.462302
C96	C	0.257883	0.666646	0.795635
C97	C	-0.468181	-0.000013	0.129681
C98	C	-0.134848	0.333321	0.463014
C99	C	0.198486	0.666654	0.796348
C100	C	-0.482328	-0.000030	0.025836
C101	C	-0.148995	0.333303	0.359170
C102	C	0.184338	0.666636	0.692503
C103	C	-0.422929	-0.000034	0.025124
C104	C	-0.089596	0.333299	0.358458
C105	C	0.243737	0.666632	0.691791
C106	C	-0.386157	-0.000032	0.076692
C107	C	-0.052824	0.333301	0.410025
C108	C	0.280510	0.666635	0.743359
C109	C	0.064136	-0.000041	0.019297
C110	C	0.397470	0.333292	0.352630
C111	C	0.730803	0.666626	0.685964
C112	C	0.123538	-0.000037	0.018590
C113	C	0.456872	0.333296	0.351924
C114	C	0.790205	0.666630	0.685257
C115	C	0.137680	-0.000023	0.122435
C116	C	0.471014	0.333311	0.455768
C117	C	0.804347	0.666644	0.789101
C118	C	0.078284	-0.000023	0.123142
C119	C	0.411617	0.333310	0.456475
C120	C	0.744950	0.666643	0.789808
C121	C	0.041512	-0.000035	0.071568
C122	C	0.374846	0.333299	0.404901
C123	C	0.708179	0.666632	0.738235
O124	O	-0.009675	-0.000002	0.168390
O125	O	0.323659	0.333332	0.501723
O126	O	0.656992	0.666665	0.835057
O127	O	-0.035892	-0.000062	-0.023737
O128	O	0.297441	0.333272	0.309597
O129	O	0.630774	0.666605	0.642930
C130	C	-0.711273	-0.563627	0.035196
C131	C	-0.377939	-0.230293	0.368530
C132	C	-0.044606	0.103040	0.701863
C133	C	-0.711275	-0.627234	0.035192
C134	C	-0.377942	-0.293901	0.368526
C135	C	-0.044609	0.039432	0.701859
O136	O	-0.744383	-0.660132	0.002077
O137	O	-0.411050	-0.326799	0.335410
O138	O	-0.077717	0.006534	0.668743
N139	N	-0.672333	-0.659047	0.074116
N140	N	-0.339000	-0.325713	0.407449
N141	N	-0.005666	0.007620	0.740782
C142	C	-0.633382	-0.627248	0.113042
C143	C	-0.300049	-0.293915	0.446375
C144	C	0.033285	0.039419	0.779708
O145	O	-0.600259	-0.660147	0.146148
O146	O	-0.266925	-0.326814	0.479482
O147	O	0.066408	0.006519	0.812815
C148	C	-0.633377	-0.563641	0.113043
C149	C	-0.300044	-0.230308	0.446376
C150	C	0.033290	0.103025	0.779709
C151	C	-0.672326	-0.531832	0.074120
C152	C	-0.338992	-0.198499	0.407454
C153	C	-0.005659	0.134834	0.740787
C154	C	-0.750217	-0.531818	-0.003723
C155	C	-0.416884	-0.198484	0.329610
C156	C	-0.083551	0.134849	0.662944
C157	C	-0.750215	-0.468214	-0.003718
C158	C	-0.416882	-0.134881	0.329615
C159	C	-0.083549	0.198452	0.662949
C160	C	-0.711268	-0.436420	0.035206
C161	C	-0.377935	-0.103087	0.368539
C162	C	-0.044602	0.230246	0.701873
C163	C	-0.672323	-0.468229	0.074125
C164	C	-0.338990	-0.134896	0.407459
C165	C	-0.005657	0.198437	0.740792
C166	C	-0.594424	-0.531844	0.151965
C167	C	-0.261090	-0.198511	0.485299
C168	C	0.072243	0.134823	0.818632
C169	C	-0.594422	-0.468233	0.151962
C170	C	-0.261089	-0.134900	0.485296
C171	C	0.072245	0.198433	0.818629
C172	C	-0.633370	-0.436424	0.113040
C173	C	-0.300037	-0.103091	0.446374
C174	C	0.033296	0.230242	0.779707
C175	C	-0.633374	-0.372832	0.113054
C176	C	-0.300041	-0.039499	0.446387
C177	C	0.033292	0.293835	0.779721
N178	N	-0.672316	-0.341020	0.074131
N179	N	-0.338983	-0.007686	0.407464
N180	N	-0.005650	0.325647	0.740797
C181	C	-0.711263	-0.372814	0.035207
C182	C	-0.377930	-0.039480	0.368540
C183	C	-0.044597	0.293853	0.701873
C184	C	-0.633395	-0.760826	0.113037
C185	C	-0.300061	-0.427492	0.446370
C186	C	0.033272	-0.094159	0.779703
C187	C	-0.633402	-0.824431	0.113039
C188	C	-0.300069	-0.491098	0.446372
C189	C	0.033265	-0.157764	0.779706
C190	C	-0.711294	-0.824413	0.035189
C191	C	-0.377961	-0.491080	0.368522
C192	C	-0.044628	-0.157746	0.701855
C193	C	-0.711290	-0.760807	0.035190
C194	C	-0.377956	-0.427473	0.368523
C195	C	-0.044623	-0.094140	0.701856
C196	C	-0.672337	-0.729013	0.074113
C197	C	-0.339003	-0.395680	0.407447
C198	C	-0.005670	-0.062347	0.740780
C199	C	-0.711256	-0.239242	0.035220
C200	C	-0.377923	0.094091	0.368553
C201	C	-0.044590	0.427424	0.701887
C202	C	-0.711252	-0.175634	0.035230
C203	C	-0.377919	0.157700	0.368563
C204	C	-0.044586	0.491033	0.701896
C205	C	-0.633358	-0.175657	0.113078
C206	C	-0.300025	0.157676	0.446411
C207	C	0.033309	0.491009	0.779744
C208	C	-0.633364	-0.239260	0.113070
C209	C	-0.300030	0.094073	0.446404
C210	C	0.033303	0.427406	0.779737
C211	C	-0.672315	-0.271052	0.074137
C212	C	-0.338982	0.062282	0.407470
C213	C	-0.005648	0.395615	0.740803
O214	O	-0.600282	-0.339893	0.146151
O215	O	-0.266948	-0.006560	0.479485
O216	O	0.066385	0.326773	0.812818
O217	O	-0.744376	-0.339907	0.002101
O218	O	-0.411043	-0.006573	0.335434
O219	O	-0.077710	0.326760	0.668767
C220	C	0.223528	-0.000038	0.069389
C221	C	0.556862	0.333295	0.402722
C222	C	0.890195	0.666628	0.736055
C223	C	0.160311	-0.000030	0.070155
C224	C	0.493645	0.333304	0.403488
C225	C	0.826978	0.666637	0.736821
C226	C	-0.677071	-0.000048	-0.030012
C227	C	-0.343738	0.333285	0.303321
C228	C	-0.010404	0.666619	0.636654
C229	C	-0.676305	-0.000053	-0.093229
C230	C	-0.342972	0.333281	0.240104
C231	C	-0.009638	0.666614	0.573437
N232	N	-0.672347	0.143769	0.074113
N233	N	-0.339014	0.477103	0.407446
N234	N	-0.005680	0.810436	0.740779
C235	C	-0.723538	-0.000023	-0.492332
C236	C	-0.390205	0.333310	-0.158999
C237	C	-0.056872	0.666644	0.174334
C238	C	-0.722827	-0.000018	-0.551733
C239	C	-0.389494	0.333315	-0.218399
C240	C	-0.056160	0.666648	0.114934
O241	O	-0.766613	0.000001	-0.588477
O242	O	-0.433280	0.333334	-0.255144
O243	O	-0.099946	0.666667	0.078190
N244	N	-0.670551	-0.000015	-0.574359
N245	N	-0.337217	0.333319	-0.241025
N246	N	-0.003884	0.666652	0.092308
C247	C	-0.618982	-0.000010	-0.537581
C248	C	-0.285649	0.333324	-0.204248
C249	C	0.047684	0.666657	0.129086
O250	O	-0.574452	-0.000006	-0.562281
O251	O	-0.241119	0.333327	-0.228947
O252	O	0.092215	0.666661	0.104386
C253	C	-0.619695	-0.000010	-0.478182
C254	C	-0.286361	0.333323	-0.144849
C255	C	0.046972	0.666657	0.188485
C256	C	-0.671974	-0.000020	-0.455559
C257	C	-0.338641	0.333314	-0.122226
C258	C	-0.005308	0.666647	0.211107
C259	C	-0.775814	-0.000032	-0.469709
C260	C	-0.442481	0.333301	-0.136376
C261	C	-0.109147	0.666635	0.196958
C262	C	-0.776525	-0.000038	-0.410313
C263	C	-0.443192	0.333296	-0.076980
C264	C	-0.109858	0.666629	0.256354
C265	C	-0.724961	-0.000035	-0.373540
C266	C	-0.391628	0.333299	-0.040207
C267	C	-0.058294	0.666632	0.293127
C268	C	-0.672685	-0.000026	-0.396163
C269	C	-0.339352	0.333308	-0.062830
C270	C	-0.006019	0.666641	0.270503
C271	C	-0.568127	-0.000001	-0.441406
C272	C	-0.234794	0.333333	-0.108072
C273	C	0.098540	0.666666	0.225261
C274	C	-0.568843	-0.000001	-0.382003
C275	C	-0.235510	0.333333	-0.048670
C276	C	0.097823	0.666666	0.284664
C277	C	-0.621123	-0.000010	-0.359381
C278	C	-0.287790	0.333323	-0.026047
C279	C	0.045543	0.666656	0.307286
C280	C	-0.621832	-0.000028	-0.299994
C281	C	-0.288499	0.333305	0.033339
C282	C	0.044834	0.666638	0.366672
N283	N	-0.674109	-0.000032	-0.277368
N284	N	-0.340775	0.333302	0.055965
N285	N	-0.007442	0.666635	0.389299
C286	C	-0.725673	-0.000035	-0.314141
C287	C	-0.392340	0.333298	0.019192
C288	C	-0.059006	0.666632	0.352526
C289	C	-0.617491	-0.000008	-0.662324
C290	C	-0.284158	0.333325	-0.328990
C291	C	0.049176	0.666659	0.004343
C292	C	-0.616778	-0.000012	-0.721722
C293	C	-0.283445	0.333321	-0.388388
C294	C	0.049888	0.666655	-0.055055
C295	C	-0.720623	-0.000019	-0.735869
C296	C	-0.387290	0.333314	-0.402536
C297	C	-0.053957	0.666647	-0.069202
C298	C	-0.721335	-0.000020	-0.676470
C299	C	-0.388002	0.333314	-0.343137
C300	C	-0.054669	0.666647	-0.009803
C301	C	-0.669767	-0.000012	-0.639698
C302	C	-0.336434	0.333322	-0.306364
C303	C	-0.003101	0.666655	0.026969
C304	C	-0.727163	-0.000048	-0.189404
C305	C	-0.393829	0.333286	0.143929
C306	C	-0.060496	0.666619	0.477263
C307	C	-0.727869	-0.000056	-0.130002
C308	C	-0.394536	0.333277	0.203331
C309	C	-0.061203	0.666611	0.536665
C310	C	-0.624025	-0.000045	-0.115860
C311	C	-0.290691	0.333288	0.217473
C312	C	0.042642	0.666621	0.550807
C313	C	-0.623318	-0.000040	-0.175257
C314	C	-0.289984	0.333293	0.158077
C315	C	0.043349	0.666626	0.491410
C316	C	-0.674891	-0.000039	-0.212028
C317	C	-0.341558	0.333294	0.121305
C318	C	-0.008225	0.666627	0.454639
O319	O	-0.578069	-0.000045	-0.263215
O320	O	-0.244736	0.333288	0.070118
O321	O	0.088597	0.666622	0.403452
O322	O	-0.770196	-0.000031	-0.289433
O323	O	-0.436863	0.333302	0.043900
O324	O	-0.103529	0.666636	0.377234
C325	C	-0.667577	-0.000021	0.178283
C326	C	-0.334244	0.333313	0.511617
C327	C	-0.000910	0.666646	0.844950
C328	C	-0.668343	-0.000012	0.241500
C329	C	-0.335010	0.333321	0.574834
C330	C	-0.001676	0.666655	0.908167
H331	H	0.141954	-0.000039	-0.023984
H332	H	0.475287	0.333294	0.309349
H333	H	0.808621	0.666627	0.642683
H334	H	-0.762610	-0.000020	-0.765821
H335	H	-0.429276	0.333314	-0.432487
H336	H	-0.095943	0.666647	-0.099154
H337	H	-0.582043	-0.000045	-0.085909
H338	H	-0.248709	0.333288	0.247424
H339	H	0.084624	0.666622	0.580758
H340	H	-0.580747	-0.000049	-0.193677
H341	H	-0.247414	0.333284	0.139656
H342	H	0.085919	0.666617	0.472990
H343	H	0.034204	-0.000050	-0.022699
H344	H	0.367537	0.333283	0.310634
H345	H	0.700870	0.666617	0.643967
H346	H	-0.138359	-0.000055	-0.072637
H347	H	0.194974	0.333279	0.260696
H348	H	0.528308	0.666612	0.594030
H349	H	-0.562708	-0.557734	0.183659
H350	H	-0.229375	-0.224401	0.516992
H351	H	0.103958	0.108933	0.850325
H352	H	0.059864	-0.000019	0.165712
H353	H	0.393197	0.333315	0.499045
H354	H	0.726530	0.666648	0.832379
H355	H	0.167631	-0.000014	0.164417
H356	H	0.500965	0.333320	0.497750
H357	H	0.834298	0.666653	0.831084
H358	H	-0.246104	-0.000057	-0.071347
H359	H	0.087229	0.333276	0.261987
H360	H	0.420563	0.666609	0.595320
H361	H	-0.742971	-0.149737	0.003535
H362	H	-0.409638	0.183597	0.336868
H363	H	-0.076304	0.516930	0.670201
H364	H	-0.601676	-0.734943	0.144738
H365	H	-0.268343	-0.401610	0.478071
H366	H	0.064991	-0.068276	0.811404
H367	H	-0.817806	-0.000032	-0.499644
H368	H	-0.484473	0.333301	-0.166311
H369	H	-0.151140	0.666634	0.167022
H370	H	-0.098525	-0.000036	0.219610
H371	H	0.234809	0.333297	0.552943
H372	H	0.568142	0.666630	0.886277
H373	H	-0.575496	-0.000007	-0.632386
H374	H	-0.242162	0.333327	-0.299053
H375	H	0.091171	0.666660	0.034281
H376	H	-0.742973	-0.265120	0.003516
H377	H	-0.409640	0.068214	0.336849
H378	H	-0.076307	0.401547	0.670183
H379	H	-0.763906	-0.000027	-0.658055
H380	H	-0.430573	0.333306	-0.324722
H381	H	-0.097239	0.666640	0.008612
H382	H	-0.378846	-0.000015	0.170964
H383	H	-0.045512	0.333318	0.504297
H384	H	0.287821	0.666652	0.837631
H385	H	-0.601654	-0.265160	0.144770
H386	H	-0.268321	0.068173	0.478103
H387	H	0.065013	0.401507	0.811436
H388	H	-0.404515	-0.000039	-0.017447
H389	H	-0.071181	0.333295	0.315887
H390	H	0.262152	0.666628	0.649220
H391	H	-0.512280	-0.000036	-0.016150
H392	H	-0.178947	0.333297	0.317183
H393	H	0.154387	0.666630	0.650516
H394	H	-0.601649	-0.149760	0.144771
H395	H	-0.268316	0.183573	0.478104
H396	H	0.065017	0.516906	0.811438
H397	H	-0.770443	-0.000065	-0.111586
H398	H	-0.437110	0.333268	0.221747
H399	H	-0.103777	0.666601	0.555080
H400	H	-0.562700	-0.442350	0.183658
H401	H	-0.229367	-0.109017	0.516992
H402	H	0.103967	0.224316	0.850325
H403	H	-0.781929	-0.442319	-0.035413
H404	H	-0.448595	-0.108986	0.297920
H405	H	-0.115262	0.224347	0.631253
H406	H	-0.525555	0.000011	-0.459814
H407	H	-0.192222	0.333344	-0.126481
H408	H	0.141111	0.666677	0.206853
H409	H	-0.743006	-0.850311	0.003494
H410	H	-0.409673	-0.516978	0.336827
H411	H	-0.076340	-0.183645	0.670161
H412	H	-0.486595	-0.000000	0.172252
H413	H	-0.153261	0.333333	0.505586
H414	H	0.180072	0.666666	0.838919
H415	H	-0.819097	-0.000043	-0.391899
H416	H	-0.485763	0.333290	-0.058566
H417	H	-0.152430	0.666624	0.274767
H418	H	-0.206274	-0.000024	0.220904
H419	H	0.127060	0.333309	0.554238
H420	H	0.460393	0.666642	0.887571
H421	H	-0.781933	-0.557699	-0.035422
H422	H	-0.448599	-0.224366	0.297911
H423	H	-0.115266	0.108968	0.631244
H424	H	-0.574207	-0.000015	-0.740135
H425	H	-0.240874	0.333319	-0.406802
H426	H	0.092460	0.666652	-0.073469
H427	H	-0.769159	-0.000044	-0.219337
H428	H	-0.435825	0.333289	0.113996
H429	H	-0.102492	0.666622	0.447330
H430	H	-0.526850	0.000007	-0.352065
H431	H	-0.193516	0.333340	-0.018732
H432	H	0.139817	0.666674	0.314601
H433	H	-0.743004	-0.734911	0.003496
H434	H	-0.409671	-0.401578	0.336829
H435	H	-0.076338	-0.068245	0.670162
H436	H	-0.601692	-0.850325	0.144739
H437	H	-0.268359	-0.516992	0.478072
H438	H	0.064974	-0.183659	0.811405
