data_functionalizedCrystal
_audit_creation_method	'MofGen! by Chris Wilmer'
_symmetry_space_group_name_H-M	'P1'
_symmetry_Int_Tables_number	1
_symmetry_cell_setting	triclinic
loop_
_symmetry_equiv_pos_as_xyz
  x,y,z
_cell_length_a	14.044220
_cell_length_b	11.792254
_cell_length_c	10.868271
_cell_angle_alpha	89.995741
_cell_angle_beta	90.003917
_cell_angle_gamma	91.306262
loop_
_atom_site_label
_atom_site_type_symbol
_atom_site_fract_x
_atom_site_fract_y
_atom_site_fract_z
O1	O	-0.130045	1.519108	-0.102319
O2	O	-0.143429	1.190025	-0.102321
O3	O	0.001274	1.349627	-0.102314
O4	O	-0.274747	1.359506	-0.102325
O5	O	0.001279	1.349612	0.102330
O6	O	-0.143423	1.190010	0.102324
O7	O	-0.130039	1.519093	0.102326
Zn8	Zn	-0.136730	1.354549	0.134817
Zn9	Zn	-0.136737	1.354569	-0.134812
O10	O	-0.274741	1.359491	0.102319
C11	C	-0.142583	1.147648	0.000001
C12	C	-0.140059	1.021398	0.000000
C13	C	-0.138009	0.918869	-0.000005
C14	C	-0.135445	0.790242	-0.000006
C15	C	-0.310081	1.363823	-0.000004
C16	C	-0.415373	1.376722	-0.000009
C17	C	-0.608157	1.400304	-0.000003
C18	C	-0.665316	1.308819	-0.000003
C19	C	-0.772588	1.321941	0.000000
C20	C	-0.500875	1.387184	-0.000006
C21	C	0.036613	1.345295	0.000007
C22	C	0.141906	1.332396	0.000003
C23	C	-0.130885	1.561470	0.000001
C24	C	-0.133408	1.687720	-0.000006
N25	N	-0.136724	1.354544	0.318831
N26	N	-0.136736	1.354582	-0.318826
C27	C	-0.136735	1.354563	0.569837
C28	C	-0.136732	1.354549	0.430159
H29	H	-0.633689	1.220642	-0.000003
H30	H	-0.639782	1.488474	0.000002
