data_functionalizedCrystal
_audit_creation_method	'MofGen! by Chris Wilmer'
_symmetry_space_group_name_H-M	'P1'
_symmetry_Int_Tables_number	1
_symmetry_cell_setting	triclinic
loop_
_symmetry_equiv_pos_as_xyz
  x,y,z
_cell_length_a	16.959455
_cell_length_b	21.395361
_cell_length_c	21.395355
_cell_angle_alpha	90.021511
_cell_angle_beta	89.976580
_cell_angle_gamma	89.972345
loop_
_atom_site_label
_atom_site_type_symbol
_atom_site_fract_x
_atom_site_fract_y
_atom_site_fract_z
Zn1	Zn	1.208396	0.249562	-0.354229
Zn2	Zn	1.208273	0.354322	-0.249446
Zn3	Zn	1.076204	0.249557	-0.249468
Zn4	Zn	1.076165	0.354300	-0.354189
O5	O	1.142260	0.301935	-0.301833
O6	O	1.318991	0.263470	-0.340338
O7	O	1.190719	0.340431	-0.161771
O8	O	1.093807	0.161880	-0.263391
O9	O	1.318900	0.340437	-0.263354
O10	O	1.190928	0.161884	-0.340359
O11	O	1.093688	0.263461	-0.161787
O12	O	0.965588	0.263440	-0.263352
O13	O	1.093741	0.340400	-0.441872
O14	O	0.965559	0.340394	-0.340289
O15	O	1.190891	0.263449	-0.441902
O16	O	1.190681	0.441997	-0.263315
O17	O	1.093622	0.441981	-0.340268
C18	C	1.142155	0.464723	-0.301798
C19	C	1.142183	0.534364	-0.301804
C20	C	0.936893	0.301915	-0.301819
C21	C	0.849037	0.301921	-0.301828
C22	C	1.142325	0.301923	-0.465257
C23	C	1.142353	0.301917	-0.534898
C24	C	0.477552	0.261832	-0.261855
C25	C	0.477571	0.342090	-0.341847
C26	C	0.560116	0.342081	-0.341843
C27	C	0.601384	0.301948	-0.301844
C28	C	0.560105	0.261823	-0.261849
C29	C	0.601401	0.382209	-0.381833
C30	C	0.683952	0.382202	-0.381830
C31	C	0.725221	0.342065	-0.341834
C32	C	0.683937	0.301939	-0.301838
C33	C	0.725205	0.261805	-0.261839
C34	C	0.683922	0.221675	-0.221845
C35	C	0.601374	0.221686	-0.221853
C36	C	0.807769	0.342054	-0.341826
C37	C	0.807758	0.261796	-0.261832
C38	C	1.348428	0.301956	-0.301848
C39	C	1.436284	0.301966	-0.301854
C40	C	1.142386	0.138512	-0.301882
C41	C	1.142440	0.068871	-0.301903
C42	C	1.192766	0.567065	-0.261776
C43	C	1.192803	0.632500	-0.261790
C44	C	1.142242	0.665232	-0.301826
C45	C	1.091655	0.632524	-0.341862
C46	C	1.091625	0.567090	-0.341852
C47	C	1.071072	0.768945	-0.306737
C48	C	1.071100	0.834378	-0.306743
C49	C	1.142334	0.867053	-0.301863
C50	C	1.213542	0.834288	-0.296962
C51	C	1.213513	0.768854	-0.296952
C52	C	1.142269	0.736185	-0.301842
C53	C	1.192962	0.970706	-0.261847
C54	C	1.193000	1.036143	-0.261865
C55	C	1.091845	1.036165	-0.341935
C56	C	1.091814	0.970730	-0.341920
C57	C	1.142371	0.938004	-0.301872
C58	C	1.192937	0.261847	-0.567628
C59	C	1.192936	0.261820	-0.633063
C60	C	1.142359	0.301874	-0.665766
C61	C	1.091766	0.341947	-0.633029
C62	C	1.091763	0.341969	-0.567594
C63	C	1.136082	0.358290	-0.769429
C64	C	1.136090	0.358269	-0.834862
C65	C	1.142364	0.301808	-0.867587
C66	C	1.148646	0.245366	-0.834871
C67	C	1.148643	0.245387	-0.769437
C68	C	1.142357	0.301856	-0.736719
C69	C	1.192949	0.261706	-0.971269
C70	C	1.192943	0.261678	-1.036706
C71	C	1.091777	0.341810	-1.036670
C72	C	1.091779	0.341833	-0.971235
C73	C	1.142370	0.301781	-0.938538
C74	C	1.142240	0.301903	-0.139046
C75	C	1.142365	0.301732	-0.069405
H76	H	0.841352	0.229111	-0.229264
Br77	Br	1.022972	0.522707	-0.396182
Br78	Br	1.157167	0.168735	-0.879275
H79	H	0.717533	0.189002	-0.189275
Br80	Br	0.421530	0.207367	-0.207586
Br81	Br	0.545344	0.167228	-0.167582
H82	H	1.234132	0.944060	-0.229240
Br83	Br	1.023042	0.676944	-0.396203
Br84	Br	1.261603	0.207350	-0.926892
Br85	Br	1.261592	0.207490	-0.523256
H86	H	1.153755	0.199430	-0.742802
Br87	Br	1.261458	0.676890	-0.207461
H88	H	1.271492	0.742178	-0.292964
Br89	Br	1.023233	1.080581	-0.396277
H90	H	1.013118	0.861050	-0.310727
Br91	Br	1.261570	0.207420	-0.677492
Br92	Br	0.421565	0.396570	-0.396112
H93	H	0.567795	0.414888	-0.414393
Br94	Br	1.261611	0.207302	-1.081127
H95	H	0.841378	0.374729	-0.374387
H96	H	1.050588	0.374417	-1.063297
H97	H	1.050593	0.374466	-0.944586
Br98	Br	1.127576	0.434869	-0.879255
Br99	Br	0.974388	0.724606	-0.313363
H100	H	0.717557	0.414878	-0.414396
Br101	Br	1.023120	0.396303	-0.677410
Br102	Br	1.023159	0.926347	-0.396246
H103	H	1.130762	0.404255	-0.742790
H104	H	1.233935	0.540421	-0.229168
Br105	Br	1.310224	0.878624	-0.290329
H106	H	1.234196	1.062767	-0.229270
Br107	Br	1.023106	0.396352	-0.523172
