data_functionalizedCrystal
_audit_creation_method	'MofGen! by Chris Wilmer'
_symmetry_space_group_name_H-M	'P1'
_symmetry_Int_Tables_number	1
_symmetry_cell_setting	triclinic
loop_
_symmetry_equiv_pos_as_xyz
  x,y,z
_cell_length_a	16.992694
_cell_length_b	15.944551
_cell_length_c	16.053802
_cell_angle_alpha	92.564789
_cell_angle_beta	87.249047
_cell_angle_gamma	87.083481
loop_
_atom_site_label
_atom_site_type_symbol
_atom_site_fract_x
_atom_site_fract_y
_atom_site_fract_z
O1	O	1.043704	0.174798	-0.069327
O2	O	0.815419	0.172843	-0.069352
O3	O	0.935795	0.051964	-0.069332
O4	O	0.923328	0.295677	-0.069348
O5	O	0.929169	0.058588	0.069526
O6	O	0.808793	0.179467	0.069506
O7	O	1.037078	0.181422	0.069530
Zn8	Zn	0.921884	0.181497	0.091565
Zn9	Zn	0.930613	0.172769	-0.091386
O10	O	0.916702	0.302301	0.069510
C11	C	0.782894	0.173641	0.000074
C12	C	0.695850	0.166141	0.000065
C13	C	0.645613	0.238506	0.000061
C14	C	0.563826	0.231454	0.000073
C15	C	0.532276	0.152037	0.000083
C16	C	0.582519	0.079667	0.000089
C17	C	0.664305	0.086719	0.000083
C18	C	0.288676	0.122807	0.000107
C19	C	0.206884	0.115759	0.000111
C20	C	0.188196	0.267548	0.000095
C21	C	0.269984	0.274593	0.000084
C22	C	0.320220	0.202223	0.000095
N23	N	0.448677	0.144827	0.000092
N24	N	0.403818	0.209434	0.000092
C25	C	0.931964	0.023948	0.000097
C26	C	0.930413	-0.069402	0.000098
C27	C	0.852090	-0.289513	0.000078
C28	C	0.885194	-0.344825	0.068547
C29	C	0.927606	-0.240317	0.000091
C30	C	0.891744	-0.351338	-0.068356
C31	C	0.924889	-0.405412	0.000081
C32	C	0.960728	-0.294396	0.068617
C33	C	0.967271	-0.300907	-0.068348
C34	C	1.000429	-0.356196	0.000138
C35	C	0.929169	-0.145209	0.000098
C36	C	0.923332	-0.500518	0.000080
C37	C	1.069603	0.180624	0.000103
C38	C	1.156648	0.188124	0.000106
C39	C	0.920533	0.330318	0.000079
C40	C	0.922085	0.423667	0.000073
N41	N	0.915931	0.187453	0.216424
N42	N	0.936572	0.166806	-0.216246
C43	C	0.967170	0.136040	0.260127
C44	C	0.963014	0.140215	0.347533
C45	C	0.907622	0.195808	0.391235
C46	C	0.856378	0.247223	0.347526
C47	C	0.860531	0.243043	0.260121
C48	C	0.889481	0.214042	0.652641
C49	C	0.885333	0.218220	0.740052
C50	C	0.991968	0.111209	0.740053
C51	C	0.996120	0.107038	0.652646
C52	C	0.944873	0.158450	0.608945
N53	N	0.903374	0.200078	0.480578
N54	N	0.949118	0.154175	0.519604
H55	H	0.329568	0.063878	0.000117
H56	H	0.181201	0.051085	0.000118
C57	C	1.138556	-0.331257	0.000931
C58	C	1.085120	-0.395271	0.000207
H59	H	1.190840	-0.355378	0.000985
H60	H	1.133019	-0.299441	-0.047266
H61	H	1.128055	-0.295546	0.049576
H62	H	1.095618	-0.430978	-0.048441
H63	H	1.090661	-0.427101	0.048410
H64	H	0.811273	0.292485	0.383113
C65	C	0.977838	-0.303257	-0.218116
C66	C	1.014079	-0.274558	-0.146483
H67	H	1.006730	-0.286983	-0.266357
H68	H	0.976794	-0.362791	-0.218955
H69	H	0.925414	-0.279447	-0.217621
H70	H	1.066502	-0.298373	-0.146975
H71	H	1.015132	-0.215012	-0.145644
C72	C	1.003992	0.099100	0.481518
C73	C	1.019337	0.083700	0.395572
H74	H	1.038762	0.064203	0.511173
H75	H	1.011827	0.156414	0.495829
H76	H	0.950982	0.087112	0.495840
H77	H	1.072346	0.095694	0.381248
H78	H	1.011509	0.026373	0.381255
H79	H	0.989876	-0.269501	0.126566
C80	C	0.988807	0.018143	0.161898
C81	C	1.028038	0.074889	0.212114
H82	H	1.026380	-0.019619	0.132263
H83	H	0.954534	-0.012609	0.196022
H84	H	0.958910	0.048173	0.123344
H85	H	1.057931	0.044859	0.250672
H86	H	1.062325	0.105644	0.177987
H87	H	0.705207	0.027792	0.000086
C88	C	0.724688	-0.272167	0.071941
C89	C	0.767471	-0.250211	0.000157
H90	H	0.672452	-0.247897	0.071993
H91	H	0.723100	-0.331603	0.072431
H92	H	0.749493	-0.251875	0.120081
H93	H	0.742669	-0.270508	-0.047984
H94	H	0.769055	-0.190762	-0.000340
H95	H	0.147286	0.326467	0.000088
H96	H	0.556825	0.015004	0.000110
C97	C	1.004306	0.002746	0.838358
C98	C	1.048288	0.054691	0.788092
H99	H	1.039076	-0.032153	0.868011
H100	H	0.970732	0.036456	0.876889
H101	H	0.973290	-0.031305	0.804260
H102	H	1.079299	0.088746	0.822191
H103	H	1.081875	0.020977	0.749557
H104	H	1.041224	0.061770	0.617066
H105	H	0.862556	-0.376319	-0.126245
C106	C	0.838011	-0.458963	0.146217
C107	C	0.838351	-0.371144	0.146679
H108	H	0.809092	-0.475208	0.194453
H109	H	0.814011	-0.479323	0.097602
H110	H	0.890701	-0.481916	0.146296
H111	H	0.785660	-0.348191	0.146594
H112	H	0.862349	-0.350776	0.195307
H113	H	0.840224	0.263494	0.775630
H114	H	0.847755	0.255905	0.617067
C115	C	0.754718	0.349245	0.268894
C116	C	0.804212	0.299563	0.212080
H117	H	0.719950	0.384140	0.239234
H118	H	0.724896	0.314001	0.302994
H119	H	0.785744	0.383300	0.302976
H120	H	0.773185	0.265503	0.178002
H121	H	0.834036	0.334811	0.177966
H122	H	0.671294	0.303176	0.000052
H123	H	0.522926	0.290381	0.000068
H124	H	0.295666	0.339262	0.000066
