data_functionalizedCrystal
_audit_creation_method	'MofGen! by Chris Wilmer'
_symmetry_space_group_name_H-M	'P1'
_symmetry_Int_Tables_number	1
_symmetry_cell_setting	triclinic
loop_
_symmetry_equiv_pos_as_xyz
  x,y,z
_cell_length_a	14.560438
_cell_length_b	19.851628
_cell_length_c	14.560438
_cell_angle_alpha	59.995672
_cell_angle_beta	90.000977
_cell_angle_gamma	60.005638
loop_
_atom_site_label
_atom_site_type_symbol
_atom_site_fract_x
_atom_site_fract_y
_atom_site_fract_z
Zr1	Zr	0.884823	0.737344	-0.120560
O2	O	0.738190	0.877876	-0.267220
O3	O	0.929764	0.596812	-0.075594
O4	O	0.929778	0.737346	-0.267207
O5	O	0.738177	0.737340	0.075535
O6	O	1.080916	0.737348	-0.267205
O7	O	0.738177	0.737342	-0.075606
O8	O	1.080892	0.485958	0.075556
O9	O	0.738201	0.988730	-0.267227
O10	O	1.061735	0.654616	-0.056423
O11	O	0.948943	0.654613	0.056370
O12	O	0.948958	0.820074	-0.169230
O13	O	0.836166	0.820072	-0.056437
Zr14	Zr	1.125871	0.737344	0.120496
Zr15	Zr	1.125871	0.737347	-0.120556
Zr16	Zr	0.884823	0.737341	0.120493
Zr17	Zr	0.884840	0.914143	-0.120571
Zr18	Zr	1.125854	0.560545	0.120508
O19	O	1.080930	0.877876	0.075531
O20	O	1.080929	0.877880	-0.267214
O21	O	0.738190	0.877872	0.075525
O22	O	1.272504	0.596812	0.267157
O23	O	1.272504	0.596816	-0.075589
O24	O	0.929765	0.596808	0.267151
O25	O	1.272517	0.737348	-0.075598
O26	O	1.080916	0.737342	0.267144
O27	O	0.929778	0.737340	0.267142
O28	O	1.272517	0.737346	0.075543
O29	O	0.929802	0.988732	-0.267224
O30	O	1.080892	0.485956	0.267161
O31	O	1.272493	0.485958	0.267164
O32	O	1.272493	0.485960	0.075559
O33	O	0.738201	0.988728	-0.075622
O34	O	0.929802	0.988730	-0.075619
O35	O	1.061736	0.654613	0.169167
O36	O	1.174528	0.654616	0.056374
O37	O	1.061751	0.820074	-0.056433
O38	O	0.948959	0.820072	0.056360
C39	C	0.703833	0.737340	-0.000036
C40	C	0.601501	0.737339	-0.000038
C41	C	1.005326	0.516195	-0.000017
C42	C	1.005319	0.441139	-0.000012
C43	C	0.612291	0.650973	0.058846
C44	C	0.516136	0.650978	0.058856
C45	C	0.398405	0.823722	-0.058911
C46	C	0.494559	0.823716	-0.058914
C47	C	0.680262	0.551240	0.126834
C48	C	0.584107	0.551245	0.126844
C49	C	0.943839	0.259778	0.061477
C50	C	0.899269	0.270117	-0.044587
C51	C	1.005337	0.303719	-0.000028
C52	C	1.049873	0.159664	0.106010
C53	C	1.005354	0.170974	-0.000034
C54	C	0.960705	0.315092	-0.106155
C55	C	1.111368	0.204593	0.044519
C56	C	1.066824	0.214966	-0.061609
C57	C	1.005325	0.380190	-0.000023
C58	C	1.005365	0.094509	-0.000050
C59	C	1.306861	0.737348	-0.000027
C60	C	1.409193	0.737349	-0.000025
C61	C	1.005347	0.737348	-0.301551
C62	C	1.005347	0.737349	-0.403884
C63	C	1.005368	0.958493	-0.000046
C64	C	1.005375	1.033549	-0.000051
C65	C	0.946474	0.823715	-0.510844
C66	C	0.946477	0.823710	-0.606993
C67	C	1.064228	0.650966	-0.489207
C68	C	1.064230	0.650972	-0.393061
C69	C	0.878487	0.923447	-0.578848
C70	C	0.878490	0.923443	-0.674997
C71	C	1.005347	0.737340	0.301488
C72	C	1.005347	0.737339	0.403821
C73	C	1.306840	0.516199	-0.000012
C74	C	1.409164	0.441144	-0.000006
C75	C	1.005326	0.516191	0.301502
C76	C	1.005319	0.441134	0.403840
C77	C	1.306841	0.516195	0.301507
C78	C	1.409165	0.441139	0.403847
C79	C	0.703853	0.958493	-0.301570
C80	C	0.601529	1.033549	-0.403910
C81	C	0.703854	0.958489	-0.000051
C82	C	0.601530	1.033544	-0.000057
C83	C	1.005368	0.958497	-0.301565
C84	C	1.005375	1.033554	-0.403903
C85	C	1.398340	0.405897	-0.058892
C86	C	1.494475	0.335385	-0.058908
C87	C	1.601433	0.300116	-0.000031
C88	C	1.612255	0.335370	0.058856
C89	C	1.516121	0.405885	0.058865
C90	C	1.064192	0.405886	0.510788
C91	C	1.064182	0.335372	0.606954
C92	C	1.005303	0.300102	0.596171
C93	C	0.946423	0.335356	0.489212
C94	C	0.946428	0.405874	0.393048
C95	C	1.516104	0.405893	0.393030
C96	C	1.612258	0.335380	0.489179
C97	C	1.601469	0.300109	0.596145
C98	C	1.494519	0.335361	0.606960
C99	C	1.398368	0.405878	0.510811
C100	C	0.494590	1.068803	-0.393093
C101	C	0.398436	1.139338	-0.489242
C102	C	0.409225	1.174613	-0.596208
C103	C	0.516175	1.139356	-0.607023
C104	C	0.612326	1.068827	-0.510874
C105	C	0.612354	1.068798	0.058818
C106	C	0.516219	1.139329	0.058808
C107	C	0.409261	1.174601	-0.000072
C108	C	0.398438	1.139344	-0.058954
C109	C	0.494573	1.068819	-0.058950
C110	C	1.064265	1.068802	-0.393083
C111	C	1.064293	1.139317	-0.489231
C112	C	1.005425	1.174587	-0.596198
C113	C	0.946533	1.139333	-0.607016
C114	C	0.946512	1.068814	-0.510869
H115	H	0.485764	0.894043	-0.106858
C116	C	1.729890	0.296584	0.477269
H117	H	1.785617	0.249536	0.549845
H118	H	1.738288	0.269073	0.437326
H119	H	1.738341	0.347209	0.437298
H120	H	0.524946	1.168086	-0.694125
C121	C	0.280770	0.918728	-0.123675
H122	H	0.225048	0.906364	-0.115246
H123	H	0.272349	0.954215	-0.094604
H124	H	0.272336	0.954215	-0.201146
H125	H	0.788466	0.961729	-0.727195
C126	C	0.749042	0.509435	0.066240
H127	H	0.713137	0.490817	0.039263
H128	H	0.753899	0.556186	0.004763
H129	H	0.822523	0.455496	0.117323
H130	H	0.699398	1.040124	-0.519695
C131	C	0.760900	0.965266	-0.567058
H132	H	0.764911	0.963843	-0.500926
H133	H	0.710276	1.029213	-0.630810
H134	H	0.734978	0.928529	-0.562145
C135	C	1.729912	0.296559	0.123625
H136	H	1.785607	0.249507	0.115191
H137	H	1.738375	0.347173	0.094564
H138	H	1.738349	0.269030	0.201096
C139	C	1.280699	0.444686	-0.123668
H140	H	1.288037	0.413596	-0.158746
H141	H	1.240735	0.433126	-0.072855
H142	H	1.240755	0.511271	-0.179391
C143	C	0.881666	0.296552	0.477358
H144	H	0.846593	0.327643	0.399892
H145	H	0.932490	0.229970	0.512438
H146	H	0.825949	0.308116	0.512421
C147	C	1.005451	1.252158	-0.701953
H148	H	0.961964	1.268116	-0.767214
H149	H	0.973942	1.307175	-0.701952
H150	H	1.080473	1.229027	-0.701942
H151	H	1.005308	0.242681	0.674483
H152	H	0.898490	0.434563	0.305970
H153	H	1.679771	0.242690	0.674426
C154	C	0.729995	1.030011	0.123593
H155	H	0.722657	1.061122	0.158642
H156	H	0.769945	0.963431	0.179319
H157	H	0.769953	1.041572	0.072766
C158	C	0.584078	0.499534	0.075747
H159	H	0.518832	0.499531	0.075766
H160	H	0.584070	0.531433	0.000724
H161	H	0.649310	0.435725	0.119246
C162	C	1.129030	1.030014	-0.275433
H163	H	1.164111	1.061106	-0.282776
H164	H	1.078217	1.041573	-0.235473
H165	H	1.184741	0.963429	-0.235475
C166	C	0.280806	1.178100	-0.477326
H167	H	0.288161	1.146974	-0.399849
H168	H	0.240849	1.244678	-0.512372
H169	H	0.240846	1.166540	-0.512390
C170	C	0.929585	0.975174	-0.578866
H171	H	0.950609	0.996436	-0.644113
H172	H	0.875591	1.028344	-0.578874
H173	H	0.994098	0.932640	-0.513621
H174	H	0.575388	0.520294	0.213904
H175	H	0.809606	0.297082	-0.082274
H176	H	0.485785	1.040086	-0.306005
H177	H	0.922943	0.381492	-0.195875
H178	H	0.923352	0.954390	-0.725921
H179	H	1.112183	0.580645	-0.305972
H180	H	1.118827	0.195429	-0.113697
H181	H	1.112169	0.580641	-0.480409
H182	H	1.485642	0.306691	-0.106861
C183	C	0.303452	1.252180	-0.701961
H184	H	0.238221	1.268110	-0.680189
H185	H	0.303430	1.307214	-0.745477
H186	H	0.303439	1.229055	-0.745449
H187	H	0.525052	1.168024	0.106762
C188	C	1.232462	0.168196	0.095465
H189	H	1.264002	0.113631	0.170851
H190	H	1.276470	0.151775	0.052542
H191	H	1.231617	0.216725	0.094458
H192	H	0.891764	0.279520	0.113410
C193	C	1.100766	0.069928	0.227161
H194	H	1.056978	0.085366	0.270756
H195	H	1.101054	0.022306	0.226259
H196	H	1.175662	0.046764	0.259219
C197	C	0.881773	1.178145	-0.724682
H198	H	0.890215	1.225199	-0.780385
H199	H	0.910826	1.127532	-0.733137
H200	H	0.804308	1.205672	-0.733123
C201	C	1.128957	0.444677	0.522666
H202	H	1.120544	0.491720	0.450083
H203	H	1.099877	0.472192	0.562609
H204	H	1.206417	0.394046	0.562627
H205	H	1.112248	1.168014	-0.480402
H206	H	1.112133	0.306676	0.694035
H207	H	0.898552	1.040123	-0.519694
H208	H	0.330991	1.232027	-0.000066
C209	C	0.280782	1.178143	-0.123707
H210	H	0.225087	1.225185	-0.115259
H211	H	0.272328	1.205660	-0.201175
H212	H	0.272337	1.127513	-0.094612
C213	C	1.527993	0.444682	0.275380
H214	H	1.605459	0.413591	0.282725
H215	H	1.492939	0.433121	0.235419
H216	H	1.492935	0.511267	0.235422
C217	C	1.482667	0.296548	0.724624
H218	H	1.555252	0.249495	0.780329
H219	H	1.442723	0.347161	0.733079
H220	H	1.442728	0.269019	0.733064
H221	H	0.485743	1.040117	-0.106891
H222	H	0.732416	0.513010	0.216856
C223	C	1.707171	0.222542	-0.000039
H224	H	1.685396	0.206600	-0.043534
H225	H	1.750681	0.245646	-0.031562
H226	H	1.750658	0.167510	0.074983
C227	C	1.280741	0.444630	0.522724
H228	H	1.288097	0.413512	0.600201
H229	H	1.240770	0.511211	0.487663
H230	H	1.240794	0.433053	0.487675
H231	H	1.524951	0.434574	0.106823
