data_functionalizedCrystal
_audit_creation_method	'MofGen! by Chris Wilmer'
_symmetry_space_group_name_H-M	'P1'
_symmetry_Int_Tables_number	1
_symmetry_cell_setting	triclinic
loop_
_symmetry_equiv_pos_as_xyz
  x,y,z
_cell_length_a	11.169417
_cell_length_b	13.032721
_cell_length_c	11.169409
_cell_angle_alpha	82.853997
_cell_angle_beta	90.019824
_cell_angle_gamma	97.204996
loop_
_atom_site_label
_atom_site_type_symbol
_atom_site_fract_x
_atom_site_fract_y
_atom_site_fract_z
Zn1	Zn	1.774209	-0.415926	0.739163
Zn2	Zn	1.748568	-0.590714	0.563955
Zn3	Zn	1.573486	-0.415989	0.538507
Zn4	Zn	1.547984	-0.590629	0.764588
O5	O	1.661062	-0.503314	0.651553
O6	O	1.938756	-0.439121	0.715931
O7	O	1.725284	-0.567598	0.392639
O8	O	1.621516	-0.269744	0.543834
O9	O	1.919918	-0.567537	0.587207
O10	O	1.768986	-0.269697	0.691255
O11	O	1.596652	-0.439229	0.373942
O12	O	1.402155	-0.439147	0.568487
O13	O	1.578052	-0.567392	0.929156
O14	O	1.383419	-0.567453	0.734588
O15	O	1.744259	-0.439038	0.910477
O16	O	1.700556	-0.736939	0.611860
O17	O	1.553189	-0.736877	0.759264
C18	C	1.349239	-0.503298	0.651535
C19	C	1.215837	-0.503317	0.651560
C20	C	1.621355	-0.774825	0.691108
C21	C	1.604479	-0.890979	0.708070
C22	C	1.669934	-0.942760	0.642755
C23	C	1.652492	-1.062811	0.660284
C24	C	1.974102	-0.503331	0.651572
C25	C	2.107501	-0.503338	0.651580
C26	C	1.661171	-0.503198	0.964579
C27	C	1.661217	-0.503149	1.097972
C28	C	1.700956	-0.230743	0.611870
C29	C	1.717956	-0.114589	0.594959
C30	C	1.661033	-0.503355	0.339734
C31	C	1.661262	-0.503110	0.206299
H32	H	1.738890	-0.898217	0.573862
H33	H	1.583541	-1.107352	0.729190
O34	O	1.800057	-1.061418	0.512621
C35	C	1.740865	-0.998368	0.425924
H36	H	1.641576	-1.031400	0.423220
H37	H	1.748646	-0.915664	0.451036
C38	C	1.921765	-0.956023	0.304269
C39	C	1.799819	-0.996599	0.300942
H40	H	1.958133	-0.954927	0.227175
H41	H	1.961646	-0.998498	0.362681
H42	H	1.928233	-0.887107	0.325201
H43	H	1.793353	-1.065518	0.280026
H44	H	1.759938	-0.954135	0.242524
O45	O	1.522369	-0.944225	0.790343
C46	C	1.581574	-1.007233	0.877076
H47	H	1.670212	-1.023437	0.837175
H48	H	1.600782	-0.965159	0.959928
C49	C	1.391694	-1.091106	0.962804
C50	C	1.500557	-1.111015	0.913793
H51	H	1.341719	-1.155122	0.985458
H52	H	1.351806	-1.048654	0.904374
H53	H	1.407717	-1.056041	1.031841
H54	H	1.484534	-1.146067	0.844749
H55	H	1.540441	-1.153475	0.972212
