data_functionalizedCrystal
_audit_creation_method	'MofGen! by Chris Wilmer'
_symmetry_space_group_name_H-M	'P1'
_symmetry_Int_Tables_number	1
_symmetry_cell_setting	triclinic
loop_
_symmetry_equiv_pos_as_xyz
  x,y,z
_cell_length_a	9.065218
_cell_length_b	9.065218
_cell_length_c	8.140239
_cell_angle_alpha	89.989394
_cell_angle_beta	89.998449
_cell_angle_gamma	85.015918
loop_
_atom_site_label
_atom_site_type_symbol
_atom_site_fract_x
_atom_site_fract_y
_atom_site_fract_z
O1	O	-1.960395	-0.216354	0.136649
O2	O	-1.627062	0.116979	0.469983
O3	O	-1.293729	0.450313	0.803316
O4	O	-1.531111	-0.234100	0.136654
O5	O	-1.197777	0.099233	0.469988
O6	O	-0.864444	0.432566	0.803321
O7	O	-1.754626	-0.010585	0.136610
O8	O	-1.421293	0.322748	0.469943
O9	O	-1.087959	0.656082	0.803276
O10	O	-1.736880	-0.439870	0.136694
O11	O	-1.403547	-0.106536	0.470027
O12	O	-1.070213	0.226797	0.803361
O13	O	-1.754619	-0.010583	-0.136617
O14	O	-1.421286	0.322750	0.196716
O15	O	-1.087952	0.656083	0.530049
O16	O	-1.531103	-0.234099	-0.136573
O17	O	-1.197770	0.099234	0.196761
O18	O	-0.864437	0.432568	0.530094
O19	O	-1.960388	-0.216352	-0.136578
O20	O	-1.627055	0.116981	0.196756
O21	O	-1.293722	0.450314	0.530089
Zn22	Zn	-1.745745	-0.225225	-0.179956
Zn23	Zn	-1.412411	0.108108	0.153377
Zn24	Zn	-1.079078	0.441441	0.486711
Zn25	Zn	-1.745754	-0.225228	0.180032
Zn26	Zn	-1.412421	0.108106	0.513366
Zn27	Zn	-1.079088	0.441439	0.846699
O28	O	-1.736873	-0.439868	-0.136533
O29	O	-1.403539	-0.106535	0.196800
O30	O	-1.070206	0.226799	0.530133
C31	C	-1.476120	-0.232394	0.000041
C32	C	-1.142787	0.100939	0.333374
C33	C	-0.809454	0.434273	0.666707
C34	C	-1.312277	-0.227294	0.000041
C35	C	-0.978944	0.106039	0.333374
C36	C	-0.645611	0.439372	0.666707
C37	C	-1.752917	0.044403	-0.000011
C38	C	-1.419584	0.377736	0.333322
C39	C	-1.086250	0.711069	0.666656
C40	C	-1.747817	0.208245	-0.000033
C41	C	-1.414484	0.541579	0.333301
C42	C	-1.081151	0.874912	0.666634
C43	C	-2.015378	-0.218059	0.000039
C44	C	-1.682045	0.115275	0.333373
C45	C	-1.348712	0.448608	0.666706
C46	C	-2.179221	-0.223158	0.000050
C47	C	-1.845888	0.110175	0.333384
C48	C	-1.512555	0.443508	0.666717
N49	N	-1.745749	-0.225223	-0.425639
N50	N	-1.412416	0.108110	-0.092305
N51	N	-1.079082	0.441444	0.241028
C52	C	-1.738582	0.505145	0.000046
C53	C	-1.405248	0.838478	0.333379
C54	C	-1.071915	1.171811	0.666713
C55	C	-1.743681	0.341302	-0.000057
C56	C	-1.410348	0.674635	0.333277
C57	C	-1.077014	1.007968	0.666610
N58	N	-1.745761	-0.225218	0.425715
N59	N	-1.412428	0.108115	0.759048
N60	N	-1.079095	0.441448	1.092382
