data_functionalizedCrystal
_audit_creation_method	'MofGen! by Chris Wilmer'
_symmetry_space_group_name_H-M	'P1'
_symmetry_Int_Tables_number	1
_symmetry_cell_setting	triclinic
loop_
_symmetry_equiv_pos_as_xyz
  x,y,z
_cell_length_a	16.992694
_cell_length_b	14.853567
_cell_length_c	15.455313
_cell_angle_alpha	92.672621
_cell_angle_beta	87.142206
_cell_angle_gamma	87.151577
loop_
_atom_site_label
_atom_site_type_symbol
_atom_site_fract_x
_atom_site_fract_y
_atom_site_fract_z
O1	O	1.044027	0.187488	-0.072010
O2	O	0.815740	0.185390	-0.072036
O3	O	0.935981	0.055640	-0.072025
O4	O	0.923785	0.317238	-0.072021
O5	O	0.929105	0.063027	0.072237
O6	O	0.808864	0.192777	0.072226
O7	O	1.037151	0.194875	0.072251
Cu8	Cu	0.922380	0.194501	0.085411
Cu9	Cu	0.930511	0.185764	-0.085195
O10	O	0.916909	0.324625	0.072241
C11	C	0.783087	0.186385	0.000092
C12	C	0.696034	0.178334	0.000081
C13	C	0.645878	0.256009	0.000083
C14	C	0.564083	0.248440	0.000095
C15	C	0.532445	0.163195	0.000099
C16	C	0.582608	0.085514	0.000100
C17	C	0.664401	0.093084	0.000094
C18	C	0.288813	0.131820	0.000122
C19	C	0.207013	0.124255	0.000125
C20	C	0.188493	0.287183	0.000122
C21	C	0.270290	0.294745	0.000111
C22	C	0.320445	0.217064	0.000116
N23	N	0.448838	0.155456	0.000108
N24	N	0.404050	0.224804	0.000113
C25	C	0.931991	0.025705	0.000103
C26	C	0.930335	-0.074496	0.000096
C27	C	0.851909	-0.492567	0.000103
C28	C	0.994758	-0.503760	0.000119
C29	C	0.996315	-0.409617	0.000114
C30	C	0.925668	-0.356944	0.000105
C31	C	0.853464	-0.398414	0.000101
C32	C	1.068518	-0.368139	0.000127
C33	C	1.070078	-0.273990	0.000123
C34	C	0.999430	-0.221316	0.000108
C35	C	0.927223	-0.262791	0.000103
C36	C	0.856576	-0.210118	0.000094
C37	C	0.784368	-0.251593	0.000082
C38	C	0.782816	-0.345740	0.000086
C39	C	1.000982	-0.127169	0.000105
C40	C	0.858131	-0.115966	0.000091
C41	C	1.069804	0.193880	0.000122
C42	C	1.156857	0.201931	0.000127
C43	C	0.920900	0.354560	0.000110
C44	C	0.922556	0.454760	0.000112
N45	N	0.916666	0.200645	0.205406
N46	N	0.936231	0.179613	-0.205190
C47	C	0.967766	0.145545	0.250805
C48	C	0.963453	0.150201	0.341612
C49	C	0.908042	0.209961	0.387019
C50	C	0.856936	0.265063	0.341614
C51	C	0.861246	0.260402	0.250808
C52	C	0.889436	0.230054	0.658599
C53	C	0.885131	0.234713	0.749411
C54	C	0.991647	0.119849	0.749403
C55	C	0.995956	0.115198	0.658595
C56	C	0.944847	0.170296	0.613198
N57	N	0.903633	0.214723	0.479839
N58	N	0.949253	0.165529	0.520380
H59	H	0.556842	0.016105	0.000115
O60	O	0.811721	0.313968	0.206609
C61	C	0.856264	0.369965	0.154087
H62	H	0.918231	0.337821	0.140478
H63	H	0.859998	0.438786	0.189074
C64	C	0.740059	0.421071	0.084549
C65	C	0.816166	0.381586	0.067828
H66	H	0.715324	0.428243	0.031342
H67	H	0.710049	0.383347	0.119936
H68	H	0.743181	0.478417	0.113706
H69	H	0.813042	0.324237	0.038681
H70	H	0.846175	0.419301	0.032434
H71	H	1.126034	-0.411032	0.000143
O72	O	0.515404	0.323915	-0.000060
C73	C	0.533322	0.371500	-0.074769
H74	H	0.563703	0.323235	-0.126990
H75	H	0.574228	0.427549	-0.057886
C76	C	0.419286	0.472243	-0.044504
C77	C	0.456593	0.412961	-0.108645
H78	H	0.371957	0.497822	-0.065398
H79	H	0.407215	0.440187	0.005831
H80	H	0.453381	0.518943	-0.030440
H81	H	0.422502	0.366256	-0.122699
H82	H	0.468657	0.445010	-0.158983
H83	H	0.793119	-0.526339	0.000091
H84	H	0.671631	0.325425	0.000080
H85	H	1.059772	-0.093404	0.000120
O86	O	1.140189	-0.233656	0.000279
C87	C	1.141799	-0.175679	0.074976
H88	H	1.098313	-0.198192	0.127199
H89	H	1.124593	-0.103690	0.058075
C90	C	1.278953	-0.151530	0.044716
C91	C	1.225547	-0.179186	0.108860
H92	H	1.330613	-0.153690	0.065616
H93	H	1.277868	-0.190588	-0.005611
H94	H	1.264604	-0.091542	0.030638
H95	H	1.239891	-0.239177	0.122929
H96	H	1.226636	-0.140139	0.159190
H97	H	1.012891	0.096886	0.213840
H98	H	1.005062	0.105334	0.378575
H99	H	1.041076	0.066536	0.621627
O100	O	1.041253	0.066191	0.793409
C101	C	1.029445	-0.025125	0.771244
H102	H	1.002352	-0.030589	0.705315
H103	H	0.987953	-0.053218	0.822355
C104	C	1.142468	-0.072831	0.848021
C105	C	1.109198	-0.079543	0.767043
H106	H	1.191662	-0.106401	0.845433
H107	H	1.150422	-0.011310	0.862958
H108	H	1.107883	-0.096241	0.890606
H109	H	1.143778	-0.056124	0.724462
H110	H	1.101252	-0.141062	0.752099
H111	H	0.705238	0.029832	0.000092
O112	O	0.831223	0.292779	0.793387
C113	C	0.787047	0.340423	0.733847
H114	H	0.789199	0.300075	0.669119
H115	H	0.813021	0.408765	0.724184
C116	C	0.698150	0.404206	0.848802
C117	C	0.700789	0.354647	0.769304
H118	H	0.644943	0.412984	0.870674
H119	H	0.727914	0.372110	0.888916
H120	H	0.719800	0.461152	0.840738
H121	H	0.679148	0.297698	0.777370
H122	H	0.671019	0.386733	0.729192
O123	O	0.839910	0.283629	0.614417
C124	C	0.884458	0.339628	0.561901
H125	H	0.946420	0.307473	0.548281
H126	H	0.888205	0.408440	0.596899
C127	C	0.768254	0.390772	0.492383
C128	C	0.844354	0.351275	0.475650
H129	H	0.743515	0.397960	0.439181
H130	H	0.738240	0.353047	0.527766
H131	H	0.771387	0.448111	0.521551
H132	H	0.841220	0.293932	0.446493
H133	H	0.874366	0.388990	0.440259
H134	H	0.811815	0.313718	0.378590
O135	O	0.337498	0.056326	-0.000033
C136	C	0.326678	0.001084	-0.074736
H137	H	0.301263	0.043997	-0.126956
H138	H	0.284165	-0.053232	-0.057843
C139	C	0.437834	-0.096563	-0.044477
C140	C	0.406625	-0.043855	-0.108618
H141	H	0.487148	-0.124287	-0.065376
H142	H	0.445123	-0.059347	0.005854
H143	H	0.402399	-0.141819	-0.030406
H144	H	0.442055	0.001406	-0.122681
H145	H	0.399344	-0.081064	-0.158952
H146	H	0.296043	0.364161	0.000098
H147	H	0.726847	-0.208694	0.000081
O148	O	0.712613	-0.385884	0.000040
C149	C	0.650588	-0.319208	0.000050
H150	H	0.673934	-0.255137	-0.027263
H151	H	0.625492	-0.303925	0.069257
C152	C	0.556526	-0.432262	-0.022983
C153	C	0.585198	-0.353571	-0.056537
H154	H	0.516188	-0.453459	-0.057885
H155	H	0.598312	-0.477184	-0.022987
H156	H	0.535618	-0.419516	0.034688
H157	H	0.606114	-0.366321	-0.114202
H158	H	0.543414	-0.308653	-0.056544
H159	H	0.800601	-0.073085	0.000080
H160	H	0.181257	0.054835	0.000127
H161	H	0.147649	0.350426	0.000119
H162	H	1.052275	-0.546652	0.000134
