data_functionalizedCrystal
_audit_creation_method	'MofGen! by Chris Wilmer'
_symmetry_space_group_name_H-M	'P1'
_symmetry_Int_Tables_number	1
_symmetry_cell_setting	triclinic
loop_
_symmetry_equiv_pos_as_xyz
  x,y,z
_cell_length_a	19.121246
_cell_length_b	12.827892
_cell_length_c	12.827885
_cell_angle_alpha	90.029786
_cell_angle_beta	92.466039
_cell_angle_gamma	92.448960
loop_
_atom_site_label
_atom_site_type_symbol
_atom_site_fract_x
_atom_site_fract_y
_atom_site_fract_z
Zn1	Zn	-1.073809	0.347983	-0.659212
Zn2	Zn	-0.573809	0.847983	-0.159212
Zn3	Zn	-1.073737	0.522765	-0.484467
Zn4	Zn	-0.573737	1.022765	0.015533
Zn5	Zn	-0.956352	0.355472	-0.477007
Zn6	Zn	-0.456352	0.855472	0.022993
Zn7	Zn	-0.956342	0.530121	-0.651693
Zn8	Zn	-0.456342	1.030121	-0.151693
O9	O	-1.015060	0.439085	-0.568095
O10	O	-0.515060	0.939085	-0.068095
O11	O	-1.172086	0.364955	-0.642300
O12	O	-0.672086	0.864955	-0.142300
O13	O	-1.058140	0.500628	-0.337240
O14	O	-0.558140	1.000628	0.162760
O15	O	-0.971967	0.208240	-0.501202
O16	O	-0.471967	0.708240	-0.001202
O17	O	-1.172033	0.493366	-0.513916
O18	O	-0.672033	0.993366	-0.013916
O19	O	-1.058262	0.202738	-0.635066
O20	O	-0.558262	0.702738	-0.135066
O21	O	-0.971897	0.377719	-0.331759
O22	O	-0.471897	0.877719	0.168241
O23	O	-0.858064	0.384852	-0.493912
O24	O	-0.358064	0.884852	0.006088
O25	O	-0.971950	0.505904	-0.798928
O26	O	-0.471950	1.005904	-0.298928
O27	O	-0.858057	0.513166	-0.622253
O28	O	-0.358057	1.013166	-0.122253
O29	O	-1.058253	0.372088	-0.804452
O30	O	-0.558253	0.872088	-0.304452
O31	O	-1.058131	0.669979	-0.506626
O32	O	-0.558131	1.169979	-0.006626
O33	O	-0.971881	0.675383	-0.629486
O34	O	-0.471881	1.175383	-0.129486
C35	C	-0.832576	0.450621	-0.556457
C36	C	-0.332576	0.950621	-0.056457
C37	C	-0.754508	0.455581	-0.551504
C38	C	-0.254508	0.955581	-0.051504
C39	C	-0.717860	0.391161	-0.616121
C40	C	-0.217860	0.891161	-0.116121
C41	C	-0.644507	0.395816	-0.611457
C42	C	-0.144507	0.895816	-0.111457
C43	C	-0.607804	0.464899	-0.542181
C44	C	-0.107804	0.964899	-0.042181
C45	C	-0.644458	0.529322	-0.477556
C46	C	-0.144458	1.029322	0.022444
C47	C	-0.717809	0.524660	-0.482216
C48	C	-0.217809	1.024660	0.017784
C49	C	-0.386329	0.482309	-0.524759
C50	C	0.113671	0.982309	-0.024759
C51	C	-0.312972	0.486968	-0.520107
C52	C	0.187028	0.986968	-0.020107
C53	C	-0.313027	0.353460	-0.654007
C54	C	0.186973	0.853460	-0.154007
C55	C	-0.386380	0.348809	-0.658665
C56	C	0.113620	0.848809	-0.158665
C57	C	-0.423027	0.413228	-0.594036
C58	C	0.076973	0.913228	-0.094036
C59	C	-0.532826	0.469661	-0.537414
C60	C	-0.032826	0.969661	-0.037414
C61	C	-0.498004	0.408459	-0.598798
C62	C	0.001996	0.908459	-0.098798
C63	C	-1.015016	0.710598	-0.568074
C64	C	-0.515016	1.210598	-0.068074
C65	C	-1.015062	0.826748	-0.568104
C66	C	-0.515062	1.326748	-0.068104
C67	C	-1.015108	0.438982	-0.840668
C68	C	-0.515108	0.938982	-0.340668
C69	C	-1.015129	0.438937	-0.956823
C70	C	-0.515129	0.938937	-0.456823
C71	C	-0.198257	0.427499	-0.579770
C72	C	0.301743	0.927499	-0.079770
C73	C	-0.276324	0.422547	-0.584725
C74	C	0.223676	0.922547	-0.084725
C75	C	-1.015123	0.166511	-0.568140
C76	C	-0.515123	0.666511	-0.068140
C77	C	-1.015150	0.050356	-0.568160
C78	C	-0.515150	0.550356	-0.068160
C79	C	-1.057791	0.875820	-0.507382
C80	C	-0.557791	1.375820	-0.007382
C81	C	-1.057839	0.995868	-0.507412
C82	C	-0.557839	1.495868	-0.007412
C83	C	-1.057830	0.499684	-1.131366
C84	C	-0.557830	0.999684	-0.631366
C85	C	-1.057809	0.499731	-1.011314
C86	C	-0.557809	0.999731	-0.511314
C87	C	-1.015052	0.439110	-0.296584
C88	C	-0.515052	0.939110	0.203416
C89	C	-1.015168	0.438851	-0.180439
C90	C	-0.515168	0.938851	0.319561
H91	H	-0.416259	0.292559	-0.715081
H92	H	0.083741	0.792559	-0.215081
C93	C	-0.758125	0.595521	-0.411140
C94	C	-0.258125	1.095521	0.088860
H95	H	-0.807067	0.582844	-0.423828
H96	H	-0.307067	1.082844	0.076172
H97	H	-0.746105	0.666518	-0.425545
H98	H	-0.246105	1.166518	0.074455
H99	H	-0.746083	0.580899	-0.340185
H100	H	-0.246083	1.080899	0.159815
C101	C	-0.965798	0.368543	-1.117144
C102	C	-0.465798	0.868543	-0.617144
H103	H	-0.939031	0.330378	-1.163500
H104	H	-0.439031	0.830378	-0.663500
H105	H	-0.992690	0.321365	-1.076281
H106	H	-0.492690	0.821365	-0.576281
H107	H	-0.935203	0.410520	-1.072615
H108	H	-0.435203	0.910520	-0.572615
H109	H	-0.283181	0.301012	-0.706622
H110	H	0.216819	0.801012	-0.206622
H111	H	-0.502934	0.525908	-0.481009
H112	H	-0.002934	1.025908	0.018991
H113	H	-1.094336	0.551808	-0.969102
H114	H	-0.594336	1.051808	-0.469102
C115	C	-0.758227	0.315169	-0.692326
C116	C	-0.258227	0.815169	-0.192326
H117	H	-0.725892	0.277464	-0.730134
H118	H	-0.225892	0.777464	-0.230134
H119	H	-0.786853	0.353376	-0.739609
H120	H	-0.286853	0.853376	-0.239609
H121	H	-0.786832	0.267767	-0.654238
H122	H	-0.286832	0.767767	-0.154238
C123	C	-0.965726	0.993352	-0.638397
C124	C	-0.465726	1.493352	-0.138397
H125	H	-0.938947	1.043111	-0.676509
H126	H	-0.438947	1.543111	-0.176509
H127	H	-0.992586	0.949002	-0.685625
H128	H	-0.492586	1.449002	-0.185625
H129	H	-0.935143	0.952781	-0.596381
H130	H	-0.435143	1.452781	-0.096381
H131	H	-0.527891	0.352209	-0.655198
H132	H	-0.027891	0.852209	-0.155198
H133	H	-0.416158	0.534764	-0.472135
H134	H	0.083842	1.034764	0.027865
C135	C	-0.604197	0.324956	-0.682539
C136	C	-0.104197	0.824956	-0.182539
H137	H	-0.636562	0.283155	-0.724473
H138	H	-0.136562	0.783155	-0.224473
H139	H	-0.575576	0.281191	-0.640826
H140	H	-0.075576	0.781191	-0.140826
H141	H	-0.575593	0.366810	-0.726187
H142	H	-0.075593	0.866810	-0.226187
C143	C	-0.272600	0.562960	-0.443898
C144	C	0.227400	1.062960	0.056102
H145	H	-0.304931	0.600652	-0.406069
H146	H	0.195069	1.100652	0.093931
H147	H	-0.243996	0.610358	-0.481980
H148	H	0.256004	1.110358	0.018020
H149	H	-0.243974	0.524741	-0.396618
H150	H	0.256026	1.024741	0.103382
H151	H	-0.614568	0.585565	-0.421145
H152	H	-0.114568	1.085565	0.078855
H153	H	-1.094342	0.828961	-0.455378
H154	H	-0.594342	1.328961	0.044622
H155	H	-1.094420	1.038079	-0.455423
H156	H	-0.594420	1.538079	0.044577
H157	H	-0.978517	0.873609	-0.620116
H158	H	-0.478517	1.373609	-0.120116
H159	H	-0.978606	0.386849	-0.999029
H160	H	-0.478606	0.886849	-0.499029
C161	C	-1.107194	0.569995	-1.194665
C162	C	-0.607194	1.069995	-0.694665
H163	H	-1.100736	0.560734	-1.267050
H164	H	-0.600736	1.060734	-0.767050
H165	H	-1.096910	0.640882	-1.176163
H166	H	-0.596910	1.140882	-0.676163
H167	H	-1.154399	0.551730	-1.179843
H168	H	-0.654399	1.051730	-0.679843
