data_functionalizedCrystal
_audit_creation_method	'MofGen! by Chris Wilmer'
_symmetry_space_group_name_H-M	'P1'
_symmetry_Int_Tables_number	1
_symmetry_cell_setting	triclinic
loop_
_symmetry_equiv_pos_as_xyz
  x,y,z
_cell_length_a	14.908571
_cell_length_b	14.909351
_cell_length_c	14.908404
_cell_angle_alpha	90.136481
_cell_angle_beta	89.784600
_cell_angle_gamma	83.622639
loop_
_atom_site_label
_atom_site_type_symbol
_atom_site_fract_x
_atom_site_fract_y
_atom_site_fract_z
Zn1	Zn	1.367230	-0.402528	-0.612142
Zn2	Zn	1.384453	-0.562560	-0.471516
Zn3	Zn	1.225572	-0.403619	-0.453194
Zn4	Zn	1.224563	-0.545088	-0.612115
O5	O	1.300455	-0.478449	-0.537242
O6	O	1.495714	-0.430612	-0.601167
O7	O	1.371008	-0.549245	-0.343724
O8	O	1.237578	-0.277294	-0.466622
O9	O	1.508368	-0.548187	-0.497850
O10	O	1.341653	-0.276493	-0.583400
O11	O	1.254279	-0.432471	-0.330262
O12	O	1.099239	-0.415529	-0.466595
O13	O	1.235858	-0.518409	-0.737480
O14	O	1.098498	-0.519466	-0.583354
O15	O	1.340675	-0.413670	-0.737500
O16	O	1.370029	-0.686422	-0.497823
O17	O	1.252558	-0.673585	-0.601121
C18	C	1.066147	-0.465721	-0.522984
C19	C	0.965908	-0.460296	-0.516907
C20	C	0.776845	-0.558520	-0.626926
C21	C	0.682663	-0.553426	-0.621220
C22	C	0.683358	-0.445008	-0.499793
C23	C	0.777541	-0.450103	-0.505500
C24	C	0.824281	-0.506862	-0.569067
C25	C	0.918466	-0.511960	-0.574769
C26	C	0.919159	-0.403538	-0.453347
C27	C	0.824977	-0.398444	-0.447641
C28	C	1.313076	-0.712721	-0.551478
C29	C	1.318557	-0.812946	-0.557604
C30	C	1.380405	-0.953714	-0.627068
C31	C	1.375262	-0.859543	-0.621318
C32	C	1.266993	-0.860526	-0.499634
C33	C	1.272136	-0.954697	-0.505384
C34	C	1.328843	-1.001287	-0.569105
C35	C	1.333981	-1.095459	-0.574859
C36	C	1.225718	-1.096441	-0.453171
C37	C	1.220575	-1.002270	-0.447420
C38	C	1.535678	-0.491227	-0.551555
C39	C	1.635916	-0.496673	-0.557655
C40	C	1.286232	-0.463969	-0.770904
C41	C	1.280171	-0.457798	-0.870477
C42	C	1.287807	-0.243262	-0.522970
C43	C	1.282418	-0.143039	-0.516889
C44	C	1.314670	-0.492810	-0.304488
C45	C	1.320892	-0.498736	-0.204910
C46	C	1.210240	-0.389044	-0.003862
C47	C	1.216082	-0.394609	0.089700
C48	C	1.338424	-0.515425	0.075777
C49	C	1.332581	-0.509861	-0.017785
C50	C	1.268486	-0.446669	-0.057601
C51	C	1.262640	-0.441109	-0.151164
C52	C	1.384985	-0.561921	-0.165086
C53	C	1.390827	-0.567485	-0.071524
H54	H	0.645285	-0.398792	-0.448045
H55	H	0.786907	-0.352230	-0.395888
H56	H	1.168654	-0.347683	0.133452
Cl57	Cl	0.835609	-0.629882	-0.706829
H58	H	1.220831	-0.822581	-0.447749
H59	H	0.956521	-0.558178	-0.626528
Cl60	Cl	1.129670	-0.309601	-0.053919
Cl61	Cl	0.623032	-0.618369	-0.693962
Cl62	Cl	0.978799	-0.338600	-0.380598
H63	H	1.390613	-0.566867	0.108212
H64	H	1.432417	-0.608839	-0.208850
Cl65	Cl	1.160894	-1.156253	-0.380297
H66	H	1.380147	-1.133390	-0.626750
Cl67	Cl	1.440087	-0.799740	-0.694189
H68	H	1.426563	-0.991647	-0.678965
Cl69	Cl	1.149292	-0.943691	-0.367318
H70	H	1.210449	-0.389655	-0.183581
H71	H	1.443014	-0.618932	-0.039092
