data_functionalizedCrystal
_audit_creation_method	'MofGen! by Chris Wilmer'
_symmetry_space_group_name_H-M	'P1'
_symmetry_Int_Tables_number	1
_symmetry_cell_setting	triclinic
loop_
_symmetry_equiv_pos_as_xyz
  x,y,z
_cell_length_a	23.532407
_cell_length_b	16.992694
_cell_length_c	16.053789
_cell_angle_alpha	92.715794
_cell_angle_beta	87.105001
_cell_angle_gamma	93.241551
loop_
_atom_site_label
_atom_site_type_symbol
_atom_site_fract_x
_atom_site_fract_y
_atom_site_fract_z
O1	O	-0.122986	1.042377	0.069301
O2	O	0.377014	1.542377	0.569301
O3	O	-0.121662	0.814103	0.069326
O4	O	0.378338	1.314103	0.569326
O5	O	-0.039734	0.935124	0.069324
O6	O	0.460266	1.435124	0.569324
O7	O	-0.204914	0.921356	0.069304
O8	O	0.295086	1.421356	0.569304
O9	O	-0.035181	0.929251	-0.069535
O10	O	0.464819	1.429251	0.430465
O11	O	-0.117109	0.808230	-0.069532
O12	O	0.382891	1.308230	0.430468
O13	O	-0.118433	1.036504	-0.069557
O14	O	0.381567	1.536504	0.430443
Zn15	Zn	-0.117048	0.921435	-0.091591
Zn16	Zn	0.382952	1.421435	0.408409
Zn17	Zn	-0.123047	0.929172	0.091360
Zn18	Zn	0.376953	1.429172	0.591360
O19	O	-0.200361	0.915483	-0.069554
O20	O	0.299639	1.415483	0.430446
C21	C	-0.117682	0.781967	-0.000099
C22	C	0.382318	1.281967	0.499901
C23	C	-0.112599	0.694963	-0.000089
C24	C	0.387401	1.194963	0.499911
C25	C	-0.161645	0.644341	-0.000096
C26	C	0.338355	1.144341	0.499904
C27	C	-0.156865	0.562591	-0.000107
C28	C	0.343135	1.062591	0.499893
C29	C	-0.103039	0.531465	-0.000105
C30	C	0.396961	1.031465	0.499895
C31	C	-0.053989	0.582095	-0.000101
C32	C	0.446011	1.082095	0.499899
C33	C	-0.058769	0.663843	-0.000096
C34	C	0.441231	1.163843	0.499904
C35	C	-0.083226	0.288021	-0.000125
C36	C	0.416774	0.788021	0.499875
C37	C	-0.078450	0.206267	-0.000128
C38	C	0.421550	0.706267	0.499872
C39	C	-0.181327	0.186768	-0.000135
C40	C	0.318673	0.686768	0.499865
C41	C	-0.186102	0.268519	-0.000125
C42	C	0.313898	0.768519	0.499875
C43	C	-0.137052	0.319141	-0.000125
C44	C	0.362948	0.819141	0.499875
N45	N	-0.098152	0.447904	-0.000114
N46	N	0.401848	0.947904	0.499886
N47	N	-0.141940	0.402700	-0.000122
N48	N	0.358060	0.902700	0.499878
C49	C	-0.223871	0.918770	-0.000128
C50	C	0.276129	1.418770	0.499872
C51	C	-0.287140	0.919824	-0.000136
C52	C	0.212860	1.419824	0.499864
C53	C	-0.683019	0.854819	-0.000086
C54	C	-0.183019	1.354819	0.499914
C55	C	-0.742468	0.855799	-0.000080
C56	C	-0.242468	1.355799	0.499920
O57	O	-0.776223	0.795538	-0.000043
O58	O	-0.276223	1.295538	0.499957
N59	N	-0.768664	0.927745	-0.000089
N60	N	-0.268664	1.427745	0.499911
C61	C	-0.735408	0.998717	-0.000095
C62	C	-0.235408	1.498717	0.499905
O63	O	-0.763148	1.060004	-0.000102
O64	O	-0.263148	1.560004	0.499898
C65	C	-0.675960	0.997737	-0.000095
C66	C	-0.175960	1.497737	0.499905
C67	C	-0.649767	0.925786	-0.000095
C68	C	-0.149767	1.425786	0.499905
C69	C	-0.656825	0.782873	-0.000085
C70	C	-0.156825	1.282873	0.499915
C71	C	-0.597380	0.781894	-0.000092
C72	C	-0.097380	1.281894	0.499908
C73	C	-0.564129	0.852861	-0.000101
C74	C	-0.064129	1.352861	0.499899
C75	C	-0.590322	0.924807	-0.000102
C76	C	-0.090322	1.424807	0.499898
C77	C	-0.642705	1.068709	-0.000095
C78	C	-0.142705	1.568709	0.499905
C79	C	-0.583254	1.067723	-0.000094
C80	C	-0.083254	1.567723	0.499906
C81	C	-0.557061	0.995771	-0.000094
C82	C	-0.057061	1.495771	0.499906
C83	C	-0.497625	0.994794	-0.000118
C84	C	0.002375	1.494794	0.499882
N85	N	-0.471429	0.922848	-0.000109
N86	N	0.028571	1.422848	0.499891
C87	C	-0.504681	0.851881	-0.000100
C88	C	-0.004681	1.351881	0.499900
C89	C	-0.860252	1.000770	-0.000094
C90	C	-0.360252	1.500770	0.499906
C91	C	-0.919699	1.001751	-0.000101
C92	C	-0.419699	1.501751	0.499899
C93	C	-0.926754	0.858831	-0.000084
C94	C	-0.426754	1.358831	0.499916
C95	C	-0.867307	0.857851	-0.000084
C96	C	-0.367307	1.357851	0.499916
C97	C	-0.834056	0.928823	-0.000085
C98	C	-0.334056	1.428823	0.499915
C99	C	-0.379842	0.849830	-0.000116
C100	C	0.120158	1.349830	0.499884
C101	C	-0.320391	0.848857	-0.000127
C102	C	0.179609	1.348857	0.499873
C103	C	-0.313341	0.991776	-0.000139
C104	C	0.186659	1.491776	0.499861
C105	C	-0.372786	0.992749	-0.000133
C106	C	0.127214	1.492749	0.499867
C107	C	-0.406036	0.921770	-0.000119
C108	C	0.093964	1.421770	0.499881
O109	O	-0.463834	1.055023	-0.000152
O110	O	0.036166	1.555023	0.499848
O111	O	-0.476933	0.790605	-0.000083
O112	O	0.023067	1.290605	0.499917
C113	C	-0.016224	0.931837	-0.000101
C114	C	0.483776	1.431837	0.499899
C115	C	0.047044	0.930784	-0.000088
C116	C	0.547044	1.430784	0.499912
C117	C	-0.122413	1.068640	-0.000129
C118	C	0.377587	1.568640	0.499871
C119	C	-0.127496	1.155644	-0.000134
C120	C	0.372504	1.655644	0.499866
N121	N	-0.112954	0.916160	-0.216451
N122	N	0.387046	1.416160	0.283549
C123	C	-0.148235	0.961581	-0.260151
C124	C	0.351765	1.461581	0.239849
C125	C	-0.145368	0.957902	-0.347557
C126	C	0.354632	1.457902	0.152443
C127	C	-0.107223	0.908797	-0.391262
C128	C	0.392777	1.408797	0.108738
C129	C	-0.071938	0.863374	-0.347556
C130	C	0.428062	1.363374	0.152444
C131	C	-0.074803	0.867058	-0.260151
C132	C	0.425197	1.367058	0.239849
C133	C	-0.094716	0.892715	-0.652669
C134	C	0.405284	1.392715	-0.152669
C135	C	-0.091855	0.889032	-0.740080
C136	C	0.408145	1.389032	-0.240080
C137	C	-0.165285	0.983562	-0.740075
C138	C	0.334715	1.483562	-0.240075
C139	C	-0.168149	0.987238	-0.652669
C140	C	0.331851	1.487238	-0.152669
C141	C	-0.132862	0.941818	-0.608970
C142	C	0.367138	1.441818	-0.108970
N143	N	-0.104293	0.905033	-0.480605
N144	N	0.395707	1.405033	0.019395
N145	N	-0.135790	0.945587	-0.519629
N146	N	0.364210	1.445587	-0.019629
N147	N	-0.127136	0.934453	0.216220
N148	N	0.372864	1.434453	0.716220
H149	H	-0.043286	0.329228	-0.000126
H150	H	0.456714	0.829228	0.499874
C151	C	-0.693396	0.704805	-0.000075
C152	C	-0.193396	1.204805	0.499925
H153	H	-0.732555	0.715680	-0.000070
H154	H	-0.232555	1.215680	0.499930
H155	H	-0.683514	0.673239	-0.048495
H156	H	-0.183514	1.173239	0.451505
H157	H	-0.686684	0.677335	0.048357
H158	H	-0.186684	1.177335	0.548357
H159	H	-0.060793	0.849041	-0.775662
H160	H	0.439207	1.349041	-0.275662
H161	H	-0.196804	0.521376	-0.000111
H162	H	0.303196	1.021376	0.499889
H163	H	-0.286257	1.049555	-0.000150
H164	H	0.213743	1.549555	0.499850
H165	H	-0.229934	0.293855	-0.000116
H166	H	0.270066	0.793855	0.499884
H167	H	-0.664021	1.127300	-0.000095
H168	H	-0.164021	1.627300	0.499905
C169	C	-0.055939	0.842703	-0.604608
C170	C	0.444061	1.342703	-0.104608
H171	H	-0.063111	0.851919	-0.546293
H172	H	0.436889	1.351919	-0.046293
H173	H	-0.063614	0.788401	-0.618962
H174	H	0.436386	1.288401	-0.118962
H175	H	-0.017174	0.856934	-0.618908
H176	H	0.482826	1.356934	-0.118908
H177	H	-0.299068	0.790263	-0.000131
H178	H	0.200932	1.290263	0.499869
C179	C	-0.568576	0.702747	-0.000080
C180	C	-0.068576	1.202747	0.499920
H181	H	-0.596900	0.660629	-0.000065
H182	H	-0.096900	1.160629	0.499935
H183	H	-0.543947	0.697336	-0.048501
H184	H	-0.043947	1.197336	0.451499
H185	H	-0.547119	0.701442	0.048351
H186	H	-0.047119	1.201442	0.548351
H187	H	-0.556184	1.125519	-0.000091
H188	H	-0.056184	1.625519	0.499909
H189	H	-0.394113	1.051337	-0.000145
H190	H	0.105887	1.551337	0.499855
C191	C	-0.190195	1.015595	-0.212079
C192	C	0.309805	1.515595	0.287921
H193	H	-0.186853	1.011280	-0.153764
H194	H	0.313147	1.511280	0.346236
H195	H	-0.181612	1.068702	-0.226400
H196	H	0.318388	1.568702	0.273600
H197	H	-0.228011	1.000116	-0.226409
H198	H	0.271989	1.500116	0.273591
H199	H	-0.953839	0.801047	-0.000077
H200	H	-0.453839	1.301047	0.499923
C201	C	-0.838500	0.778706	-0.000071
C202	C	-0.338500	1.278706	0.499929
H203	H	-0.866823	0.736586	-0.000060
H204	H	-0.366823	1.236586	0.499940
H205	H	-0.813869	0.773298	-0.048490
H206	H	-0.313869	1.273298	0.451510
H207	H	-0.817045	0.777402	0.048362
H208	H	-0.317045	1.277402	0.548362
C209	C	-0.948504	1.080897	-0.000109
C210	C	-0.448504	1.580897	0.499891
H211	H	-0.920182	1.123018	-0.000110
H212	H	-0.420182	1.623018	0.499890
H213	H	-0.969967	1.082207	-0.048529
H214	H	-0.469967	1.582207	0.451471
H215	H	-0.973129	1.086300	0.048323
H216	H	-0.473129	1.586300	0.548323
H217	H	-0.221260	0.145544	-0.000136
H218	H	0.278740	0.645544	0.499864
C219	C	-0.019239	0.172027	-0.000132
C220	C	0.480761	0.672027	0.499868
H221	H	-0.023420	0.116091	-0.000126
H222	H	0.476580	0.616091	0.499874
H223	H	0.002698	0.187385	-0.048555
H224	H	0.502698	0.687385	0.451445
H225	H	-0.000473	0.191471	0.048297
H226	H	0.499527	0.691471	0.548297
H227	H	-0.174097	0.994890	-0.383133
H228	H	0.325903	1.494890	0.116867
C229	C	0.005219	0.547859	-0.000098
C230	C	0.505219	1.047859	0.499902
H231	H	0.001042	0.491923	-0.000093
H232	H	0.501042	0.991923	0.499907
H233	H	0.027159	0.563221	-0.048517
H234	H	0.527159	1.063221	0.451483
H235	H	0.023980	0.567306	0.048335
H236	H	0.523980	1.067306	0.548335
H237	H	-0.040876	0.823395	-0.383147
H238	H	0.459124	1.323395	0.116853
H239	H	-0.018831	0.705060	-0.000090
H240	H	0.481169	1.205060	0.499910
H241	H	-0.205477	0.669676	-0.000096
H242	H	0.294523	1.169676	0.499904
H243	H	-0.833182	1.058567	-0.000102
H244	H	-0.333182	1.558567	0.499898
C245	C	-0.416408	0.771755	-0.000107
C246	C	0.083592	1.271755	0.499893
H247	H	-0.392287	0.728771	-0.000115
H248	H	0.107713	1.228771	0.499885
H249	H	-0.441330	0.771203	0.048316
H250	H	0.058670	1.271203	0.548316
H251	H	-0.438160	0.767117	-0.048536
H252	H	0.061840	1.267117	0.451464
C253	C	-0.210109	1.041253	-0.604599
C254	C	0.289891	1.541253	-0.104599
H255	H	-0.230709	1.067782	-0.643145
H256	H	0.269291	1.567782	-0.143145
H257	H	-0.235950	1.010362	-0.570508
H258	H	0.264050	1.510362	-0.070508
H259	H	-0.189553	1.078949	-0.570498
H260	H	0.310447	1.578949	-0.070498
C261	C	-0.204092	1.033526	-0.788145
C262	C	0.295908	1.533526	-0.288145
H263	H	-0.196921	1.024306	-0.846459
H264	H	0.303079	1.524306	-0.346459
H265	H	-0.242846	1.019264	-0.773824
H266	H	0.257154	1.519264	-0.273824
H267	H	-0.196441	1.087842	-0.773814
H268	H	0.303559	1.587842	-0.273814
H269	H	-0.046073	0.830071	-0.224572
H270	H	0.453927	1.330071	0.275428
