data_functionalizedCrystal
_audit_creation_method	'MofGen! by Chris Wilmer'
_symmetry_space_group_name_H-M	'P1'
_symmetry_Int_Tables_number	1
_symmetry_cell_setting	triclinic
loop_
_symmetry_equiv_pos_as_xyz
  x,y,z
_cell_length_a	12.827893
_cell_length_b	18.050589
_cell_length_c	12.827885
_cell_angle_alpha	90.032172
_cell_angle_beta	90.021189
_cell_angle_gamma	90.033934
loop_
_atom_site_label
_atom_site_type_symbol
_atom_site_fract_x
_atom_site_fract_y
_atom_site_fract_z
Zn1	Zn	-1.597521	0.295663	-0.590885
Zn2	Zn	-1.597352	0.419871	-0.416138
Zn3	Zn	-1.422762	0.295695	-0.416153
Zn4	Zn	-1.422685	0.419811	-0.590832
O5	O	-1.510080	0.357760	-0.503502
O6	O	-1.743734	0.312151	-0.567720
O7	O	-1.574154	0.403437	-0.269904
O8	O	-1.446047	0.191766	-0.439359
O9	O	-1.743610	0.403406	-0.439334
O10	O	-1.574441	0.191742	-0.567734
O11	O	-1.445884	0.312205	-0.269914
O12	O	-1.276516	0.312147	-0.439308
O13	O	-1.445915	0.403304	-0.737075
O14	O	-1.276459	0.403335	-0.567644
O15	O	-1.574366	0.312093	-0.737114
O16	O	-1.574079	0.523787	-0.439283
O17	O	-1.445752	0.523744	-0.567630
C18	C	-1.238570	0.357739	-0.503473
C19	C	-1.122417	0.357748	-0.503485
C20	C	-1.509917	0.550712	-0.503472
C21	C	-1.509943	0.633258	-0.503494
C22	C	-1.070632	0.402940	-0.566890
C23	C	-0.950581	0.402950	-0.566905
C24	C	-0.782650	0.357775	-0.503523
C25	C	-0.898803	0.357766	-0.503511
C26	C	-1.510151	0.357689	-0.776072
C27	C	-1.510181	0.357658	-0.892225
C28	C	-1.440230	0.882087	-0.573292
C29	C	-1.535527	0.832617	-0.598935
C30	C	-1.510114	0.930378	-0.503555
C31	C	-1.414738	0.832766	-0.477931
C32	C	-1.510025	0.784393	-0.503527
C33	C	-1.605461	0.881995	-0.529248
C34	C	-1.484609	0.882149	-0.408199
C35	C	-1.579972	0.832702	-0.433806
C36	C	-1.510164	1.014476	-0.503573
C37	C	-1.509986	0.700296	-0.503509
C38	C	-1.510232	1.164054	-0.503556
C39	C	-1.510197	1.081508	-0.503585
C40	C	-1.573750	0.312515	-0.944029
C41	C	-1.573783	0.312483	-1.064080
C42	C	-1.510069	0.357777	-0.231992
C43	C	-1.510241	0.357598	-0.115839
H44	H	-1.115173	0.441620	-0.621167
H45	H	-1.557068	0.810861	-0.679564
H46	H	-1.639100	0.811155	-0.374820
O47	O	-0.891605	0.454202	-0.638820
H48	H	-0.806568	0.446163	-0.627552
H49	H	-1.463040	0.903921	-0.327593
O50	O	-1.438126	0.408794	-1.056856
H51	H	-1.484876	0.446567	-1.007113
O52	O	-1.712283	0.910518	-0.558071
H53	H	-1.765324	0.862975	-0.572340
O54	O	-1.307940	0.804162	-0.449181
H55	H	-1.250113	0.823965	-0.507180
O56	O	-1.645822	0.261353	-0.885066
H57	H	-1.634494	0.269413	-0.800026
O58	O	-1.645861	0.261270	-1.123077
H59	H	-1.634562	0.269271	-1.208111
H60	H	-1.077875	0.319062	-0.449217
O61	O	-0.957767	0.306511	-0.431590
H62	H	-1.007539	0.268787	-0.478488
O63	O	-1.362092	0.910817	-0.651474
H64	H	-1.383481	0.890976	-0.730557
O65	O	-1.438111	0.408819	-0.951194
H66	H	-1.455942	0.467126	-0.930290
