data_functionalizedCrystal
_audit_creation_method	'MofGen! by Chris Wilmer'
_symmetry_space_group_name_H-M	'P1'
_symmetry_Int_Tables_number	1
_symmetry_cell_setting	triclinic
loop_
_symmetry_equiv_pos_as_xyz
  x,y,z
_cell_length_a	12.594517
_cell_length_b	12.594516
_cell_length_c	21.395355
_cell_angle_alpha	89.988593
_cell_angle_beta	89.975142
_cell_angle_gamma	90.015853
loop_
_atom_site_label
_atom_site_type_symbol
_atom_site_fract_x
_atom_site_fract_y
_atom_site_fract_z
Zn1	Zn	1.627304	-0.423871	-0.354298
Zn2	Zn	1.627184	-0.601835	-0.249533
Zn3	Zn	1.449297	-0.423871	-0.249534
Zn4	Zn	1.449290	-0.601807	-0.354273
O5	O	1.538269	-0.512846	-0.301909
O6	O	1.776234	-0.447490	-0.340410
O7	O	1.603539	-0.578240	-0.161855
O8	O	1.472963	-0.274925	-0.263441
O9	O	1.776146	-0.578240	-0.263440
O10	O	1.603744	-0.274925	-0.340411
O11	O	1.472847	-0.447490	-0.161856
O12	O	1.300350	-0.447462	-0.263417
O13	O	1.472951	-0.578192	-0.441954
O14	O	1.300345	-0.578192	-0.340369
O15	O	1.603737	-0.447463	-0.441972
O16	O	1.603533	-0.750777	-0.263416
O17	O	1.472835	-0.750757	-0.340368
C18	C	1.261728	-0.512825	-0.301891
C19	C	1.143422	-0.512841	-0.301898
C20	C	1.538199	-0.789387	-0.301903
C21	C	1.538267	-0.907693	-0.301921
C22	C	1.074141	-0.441641	-0.260124
C23	C	1.003328	-0.538723	-0.244715
C24	C	1.003436	-0.415807	-0.317317
C25	C	1.074168	-0.609974	-0.286459
C26	C	1.074282	-0.486993	-0.359088
C27	C	1.003501	-0.584142	-0.343701
C28	C	1.467173	-0.976973	-0.343746
C29	C	1.441234	-1.047813	-0.286574
C30	C	1.564303	-1.047651	-0.359103
C31	C	1.512276	-0.976975	-0.244719
C32	C	1.635390	-0.976806	-0.317287
C33	C	1.609488	-1.047614	-0.260075
C34	C	1.815890	-0.512868	-0.301928
C35	C	1.934195	-0.512878	-0.301936
C36	C	1.538357	-0.512825	-0.465333
C37	C	1.538395	-0.512815	-0.534974
C38	C	1.538368	-0.235225	-0.301929
C39	C	1.538410	-0.116920	-0.301938
C40	C	1.606492	-0.444742	-0.567697
C41	C	1.606491	-0.444696	-0.633133
C42	C	1.538403	-0.512743	-0.665842
C43	C	1.470292	-0.580821	-0.633111
C44	C	1.470288	-0.580857	-0.567677
C45	C	1.529974	-0.608580	-0.769515
C46	C	1.529986	-0.608546	-0.834948
C47	C	1.538410	-0.512630	-0.867663
C48	C	1.546844	-0.416747	-0.834937
C49	C	1.546840	-0.416783	-0.769503
C50	C	1.538399	-0.512711	-0.736795
C51	C	1.606509	-0.444502	-0.971339
C52	C	1.606500	-0.444454	-1.036776
C53	C	1.470307	-0.580588	-1.036752
C54	C	1.470311	-0.580626	-0.971317
C55	C	1.538417	-0.512585	-0.938614
C56	C	1.538242	-0.512791	-0.139122
C57	C	1.538411	-0.512500	-0.069481
H58	H	1.105158	-0.381487	-0.224753
H59	H	1.586267	-1.078696	-0.407455
H60	H	0.972679	-0.644439	-0.379044
N61	N	1.396861	-0.654065	-0.936030
H62	H	1.440089	-0.703414	-0.908894
H63	H	1.347558	-0.610749	-0.908904
N64	N	1.115611	-0.457963	-0.423108
H65	H	1.159751	-0.518358	-0.440109
H66	H	1.053831	-0.444082	-0.452056
H67	H	1.669670	-1.078437	-0.224672
N68	N	1.744076	-0.935460	-0.334515
H69	H	1.763627	-0.961122	-0.377734
H70	H	1.743303	-0.855280	-0.333940
H71	H	0.972310	-0.333742	-0.330322
N72	N	1.115138	-0.718727	-0.269130
H73	H	1.195329	-0.718034	-0.269204
H74	H	1.088624	-0.738361	-0.226096
H75	H	1.359165	-1.079026	-0.273591
H76	H	1.661952	-0.389014	-1.063418
H77	H	1.490217	-0.946058	-0.196354
H78	H	1.661941	-0.389257	-0.659782
H79	H	1.661949	-0.389336	-0.541075
H80	H	1.406944	-0.945954	-0.379064
N81	N	1.520893	-0.711955	-0.870244
H82	H	1.582415	-0.759605	-0.858871
H83	H	1.451955	-0.748079	-0.858831
H84	H	1.553704	-0.338711	-0.742861
N85	N	0.962045	-0.567723	-0.180675
H86	H	0.987228	-0.513547	-0.149193
H87	H	0.881872	-0.568813	-0.181416
N88	N	1.555940	-0.313285	-0.870212
H89	H	1.554660	-0.327807	-0.916630
H90	H	1.494408	-0.265699	-0.858754
N91	N	1.679958	-0.371115	-0.936061
H92	H	1.723093	-0.327976	-0.966724
H93	H	1.636650	-0.321873	-0.908895
H94	H	1.414858	-0.635983	-1.063384
H95	H	1.522830	-0.686666	-0.742883
H96	H	1.414852	-0.636222	-0.659747
N97	N	1.396823	-0.654267	-0.532377
H98	H	1.353679	-0.697362	-0.563025
H99	H	1.440116	-0.703550	-0.505239
