data_functionalizedCrystal
_audit_creation_method	'MofGen! by Chris Wilmer'
_symmetry_space_group_name_H-M	'P1'
_symmetry_Int_Tables_number	1
_symmetry_cell_setting	triclinic
loop_
_symmetry_equiv_pos_as_xyz
  x,y,z
_cell_length_a	15.944557
_cell_length_b	14.421503
_cell_length_c	15.944493
_cell_angle_alpha	90.010165
_cell_angle_beta	83.488206
_cell_angle_gamma	89.994217
loop_
_atom_site_label
_atom_site_type_symbol
_atom_site_fract_x
_atom_site_fract_y
_atom_site_fract_z
O1	O	-1.114503	0.077059	-0.108349
O2	O	-0.869952	0.077069	-0.121700
O3	O	-0.998931	0.077072	0.007253
O4	O	-0.985524	0.077057	-0.237303
O5	O	-0.998910	-0.077152	0.007234
O6	O	-0.869930	-0.077155	-0.121719
O7	O	-1.114482	-0.077164	-0.108368
Cu8	Cu	-0.992204	-0.091241	-0.115046
Cu9	Cu	-0.992229	0.091146	-0.115023
O10	O	-0.985503	-0.077167	-0.237322
C11	C	-0.838647	-0.000042	-0.121154
C12	C	-0.745402	-0.000038	-0.119490
N13	N	-0.992193	-0.219522	-0.115061
C14	C	-0.474788	-0.000047	-0.034582
C15	C	-0.525351	-0.076091	-0.075523
C16	C	-0.409761	-0.000059	-0.113554
C17	C	-0.525352	0.075961	-0.075526
C18	C	-0.574673	-0.000047	-0.116466
C19	C	-0.459095	-0.076166	-0.154474
C20	C	-0.459094	0.075954	-0.154465
C21	C	-0.509623	-0.000108	-0.195465
C22	C	-0.314760	-0.000067	-0.111874
C23	C	-0.669672	-0.000046	-0.118152
C24	C	-0.932542	-0.469177	-0.174662
C25	C	-1.008438	-0.530984	-0.190972
C26	C	-0.992213	-0.408684	-0.115041
C27	C	-0.916336	-0.530971	-0.098751
C28	C	-0.992226	-0.591405	-0.115024
C29	C	-1.068148	-0.469130	-0.131388
C30	C	-0.975996	-0.469111	-0.039135
C31	C	-1.051947	-0.530890	-0.055412
C32	C	-0.992204	-0.303423	-0.115053
C33	C	-0.992243	-0.696664	-0.115011
C34	C	-0.145788	-0.000056	-0.108903
C35	C	-0.239038	-0.000068	-0.110533
C36	C	-0.998372	-0.000036	0.038539
C37	C	-0.996730	-0.000024	0.131787
N38	N	-0.992248	0.219427	-0.115001
C39	C	-0.986061	-0.000057	-0.268607
C40	C	-0.987704	-0.000063	-0.361856
C41	C	-1.072650	-0.000045	0.367545
C42	C	-1.031719	0.075996	0.418124
C43	C	-0.993685	-0.000036	0.302508
C44	C	-1.031680	-0.076056	0.418081
C45	C	-0.990751	-0.000051	0.467418
C46	C	-0.952776	0.076068	0.351859
C47	C	-0.952748	-0.076052	0.351812
C48	C	-0.911760	0.000008	0.402358
C49	C	-0.995378	-0.000026	0.207508
C50	C	-0.989052	-0.000053	0.562415
H51	H	-0.459149	-0.000117	0.033433
H52	H	-0.882131	-0.442081	-0.225123
H53	H	-0.919457	0.140424	0.323048
C54	C	-1.164537	0.000054	0.346426
N55	N	-1.233745	0.000133	0.330517
C56	C	-1.120200	-0.567283	0.012710
N57	N	-1.171611	-0.594700	0.064013
H58	H	-0.554279	-0.140377	-0.042179
H59	H	-1.065076	0.140282	0.447077
H60	H	-0.852163	-0.558137	-0.084981
H61	H	-0.843690	0.000052	0.417825
C62	C	-1.076738	-0.162905	0.457144
N63	N	-1.110680	-0.228318	0.486563
C64	C	-0.957414	-0.432360	0.047547
N65	N	-0.943408	-0.404677	0.112835
C66	C	-0.907720	-0.162905	0.312683
N67	N	-0.873809	-0.228330	0.283212
H68	H	-0.554285	0.140247	-0.042152
H69	H	-1.132335	-0.442080	-0.145235
H70	H	-0.430270	-0.140525	-0.187809
H71	H	-0.525101	-0.000156	-0.263532
H72	H	-1.022167	-0.558161	-0.255157
C73	C	-0.419984	0.162805	-0.199468
N74	N	-0.390524	0.228229	-0.233357
