data_functionalizedCrystal
_audit_creation_method	'MofGen! by Chris Wilmer'
_symmetry_space_group_name_H-M	'P1'
_symmetry_Int_Tables_number	1
_symmetry_cell_setting	triclinic
loop_
_symmetry_equiv_pos_as_xyz
  x,y,z
_cell_length_a	12.759401
_cell_length_b	16.120484
_cell_length_c	12.759393
_cell_angle_alpha	92.862621
_cell_angle_beta	89.981503
_cell_angle_gamma	92.925686
loop_
_atom_site_label
_atom_site_type_symbol
_atom_site_fract_x
_atom_site_fract_y
_atom_site_fract_z
Zn1	Zn	1.584960	-0.331850	-0.615176
Zn2	Zn	1.575915	-0.471288	-0.448389
Zn3	Zn	1.409263	-0.331894	-0.439515
Zn4	Zn	1.400312	-0.471223	-0.624023
O5	O	1.492612	-0.401564	-0.531776
O6	O	1.730781	-0.350355	-0.593063
O7	O	1.553768	-0.452843	-0.300194
O8	O	1.440101	-0.215223	-0.455401
O9	O	1.724135	-0.452800	-0.470525
O10	O	1.569185	-0.215190	-0.584458
O11	O	1.431330	-0.350430	-0.293674
O12	O	1.261055	-0.350368	-0.463979
O13	O	1.424845	-0.452690	-0.769868
O14	O	1.254479	-0.452733	-0.599536
O15	O	1.560506	-0.350292	-0.763368
O16	O	1.545089	-0.587945	-0.479104
O17	O	1.416074	-0.587897	-0.608141
C18	C	1.219646	-0.401549	-0.531755
C19	C	1.102868	-0.401562	-0.531773
C20	C	1.044555	-0.454820	-0.467870
C21	C	0.934830	-0.454834	-0.467889
C22	C	0.941742	-0.348326	-0.595716
C23	C	1.051464	-0.348317	-0.595702
C24	C	1.095959	-0.508065	-0.403941
C25	C	1.037645	-0.561326	-0.340032
C26	C	0.927920	-0.561341	-0.340052
C27	C	0.876509	-0.508094	-0.403979
C28	C	1.478657	-0.618171	-0.545568
C29	C	1.472783	-0.710836	-0.551504
C30	C	1.462065	-0.880497	-0.562362
C31	C	1.523347	-0.921790	-0.501207
C32	C	1.517384	-1.016195	-0.507249
C33	C	1.468028	-0.786083	-0.556322
C34	C	1.766644	-0.401580	-0.531797
C35	C	1.883421	-0.401586	-0.531806
C36	C	1.492686	-0.401479	-0.805804
C37	C	1.492717	-0.401443	-0.922578
C38	C	1.506650	-0.184111	-0.517953
C39	C	1.512632	-0.091445	-0.512062
C40	C	1.428993	-0.348107	-0.974051
C41	C	1.429026	-0.348082	-1.083774
C42	C	1.556518	-0.454731	-1.090541
C43	C	1.556478	-0.454760	-0.980821
C44	C	1.365232	-0.294790	-0.915808
C45	C	1.301503	-0.241449	-0.967281
C46	C	1.301536	-0.241424	-1.077003
C47	C	1.365299	-0.294740	-1.135254
C48	C	1.492603	-0.401588	-0.258810
C49	C	1.492790	-0.401389	-0.142021
H50	H	1.098945	-0.304948	-0.647734
N51	N	1.386636	-0.927576	-0.637717
H52	H	1.393016	-0.989319	-0.631399
H53	H	1.312548	-0.912474	-0.620342
N54	N	1.232803	-0.183899	-1.132525
H55	H	1.181940	-0.217765	-1.180195
H56	H	1.192477	-0.150142	-1.078912
H57	H	1.365318	-0.294718	-1.224597
H58	H	0.787163	-0.508116	-0.403997
H59	H	1.608383	-0.498179	-0.938911
H60	H	1.365200	-0.294803	-0.826466
N61	N	0.886305	-0.290891	-0.664658
H62	H	0.838617	-0.324819	-0.715441
H63	H	0.843312	-0.252230	-0.619510
N64	N	1.214304	-0.508045	-0.403916
H65	H	1.238022	-0.549855	-0.353722
H66	H	1.239699	-0.523412	-0.476964
H67	H	1.608432	-0.498137	-1.137977
H68	H	1.580290	-0.886241	-0.444313
N69	N	1.093088	-0.618759	-0.271092
H70	H	1.171446	-0.610669	-0.280773
H71	H	1.074709	-0.605714	-0.195258
N72	N	1.232724	-0.183954	-0.904463
H73	H	1.242372	-0.192061	-0.827144
H74	H	1.252927	-0.124409	-0.919865
H75	H	0.880444	-0.604714	-0.288022
