data_functionalizedCrystal
_audit_creation_method	'MofGen! by Chris Wilmer'
_symmetry_space_group_name_H-M	'P1'
_symmetry_Int_Tables_number	1
_symmetry_cell_setting	triclinic
loop_
_symmetry_equiv_pos_as_xyz
  x,y,z
_cell_length_a	16.109302
_cell_length_b	10.489741
_cell_length_c	15.186229
_cell_angle_alpha	90.003995
_cell_angle_beta	90.005906
_cell_angle_gamma	84.000477
loop_
_atom_site_label
_atom_site_type_symbol
_atom_site_fract_x
_atom_site_fract_y
_atom_site_fract_z
O1	O	1.104141	0.163952	0.073268
O2	O	0.862205	0.184354	0.073261
O3	O	0.988679	-0.011525	0.073259
O4	O	0.977668	0.359831	0.073269
O5	O	0.988669	-0.011529	-0.073198
O6	O	0.862195	0.184350	-0.073197
O7	O	1.104132	0.163948	-0.073190
Zn8	Zn	0.983162	0.174148	-0.096446
Zn9	Zn	0.983175	0.174154	0.096517
O10	O	0.977658	0.359826	-0.073188
C11	C	0.831220	0.183525	0.000031
C12	C	0.738910	0.181047	0.000028
C13	C	0.526528	0.175314	-0.079797
C14	C	0.439794	0.172972	-0.079794
C15	C	0.439815	0.172984	0.079882
C16	C	0.526549	0.175317	0.079878
C17	C	0.569903	0.176489	0.000036
C18	C	0.396434	0.171813	0.000043
C19	C	0.302393	0.169274	0.000047
C20	C	0.663950	0.179026	0.000032
C21	C	0.987842	-0.059046	0.000031
C22	C	0.985354	-0.200640	0.000032
C23	C	0.904883	-0.267613	0.000037
C24	C	0.942892	-0.360289	-0.072173
C25	C	0.942921	-0.360259	0.072222
C26	C	1.023396	-0.291451	-0.072237
C27	C	1.023414	-0.291412	0.072223
C28	C	1.061481	-0.384061	-0.000004
C29	C	1.135117	0.164776	0.000042
C30	C	1.227427	0.167255	0.000050
C31	C	0.978495	0.407348	0.000042
C32	C	0.980983	0.548942	0.000046
N33	N	0.983159	0.174143	-0.228139
C34	C	1.039185	0.087437	-0.546058
C35	C	1.039182	0.087437	-0.453868
C36	C	0.927156	0.260864	-0.453877
C37	C	0.927163	0.260869	-0.546065
C38	C	0.983176	0.174148	-0.592153
C39	C	0.983167	0.174144	-0.407776
C40	C	0.983164	0.174145	-0.307820
C41	C	0.983181	0.174148	-0.692116
N42	N	0.983184	0.174149	0.228210
H43	H	0.561824	0.176269	-0.144809
Cl44	Cl	1.075916	-0.244622	-0.166596
H45	H	0.908865	-0.390727	0.133276
Cl46	Cl	0.385270	0.171498	-0.180160
H47	H	0.404506	0.172031	0.144886
H48	H	0.561865	0.176269	0.144891
Cl49	Cl	0.802734	-0.189473	-0.000073
H50	H	1.127704	-0.434446	-0.000043
Cl51	Cl	1.075946	-0.244234	0.166486
Cl52	Cl	0.890319	-0.407411	-0.166431
Cl53	Cl	1.109604	-0.021579	-0.603994
Cl54	Cl	0.856751	0.369891	-0.604019
Cl55	Cl	1.109597	-0.021573	-0.395923
Cl56	Cl	0.856740	0.369875	-0.395934
