data_functionalizedCrystal
_audit_creation_method	'MofGen! by Chris Wilmer'
_symmetry_space_group_name_H-M	'P1'
_symmetry_Int_Tables_number	1
_symmetry_cell_setting	triclinic
loop_
_symmetry_equiv_pos_as_xyz
  x,y,z
_cell_length_a	13.635800
_cell_length_b	16.015654
_cell_length_c	12.908943
_cell_angle_alpha	83.600752
_cell_angle_beta	79.139369
_cell_angle_gamma	104.486384
loop_
_atom_site_label
_atom_site_type_symbol
_atom_site_fract_x
_atom_site_fract_y
_atom_site_fract_z
V1	V	-1.922814	0.118613	0.283190
O2	O	-1.996478	-0.006811	0.325037
O3	O	-1.823997	0.236259	0.235821
O4	O	-1.893420	0.116301	0.427426
O5	O	-1.926575	0.113977	0.132106
V6	V	-2.174969	0.103669	0.270638
O7	O	-2.030643	0.151395	0.310723
O8	O	-2.292239	0.070886	0.243105
O9	O	-2.162182	-0.013977	0.318007
O10	O	-2.160003	0.229093	0.228790
O11	O	-2.229906	0.108305	0.421722
O12	O	-2.092760	0.105981	0.126402
V13	V	-1.422814	0.118613	0.283190
O14	O	-1.496478	-0.006811	0.325037
O15	O	-1.323997	0.236259	0.235821
O16	O	-1.393420	0.116301	0.427426
O17	O	-1.426575	0.113977	0.132106
V18	V	-1.674969	0.103669	0.270638
O19	O	-1.530643	0.151395	0.310723
O20	O	-1.792239	0.070886	0.243105
O21	O	-1.662182	-0.013977	0.318007
O22	O	-1.660003	0.229093	0.228790
O23	O	-1.729906	0.108305	0.421722
O24	O	-1.592760	0.105981	0.126402
C25	C	-1.817069	0.111934	0.464041
C26	C	-1.833185	0.110822	0.581656
C27	C	-1.589334	-0.042667	0.334193
C28	C	-1.619138	-0.138840	0.371968
C29	C	-1.628588	-0.515385	0.036676
C30	C	-1.656609	-0.605749	0.072207
C31	C	-1.692043	-0.581638	0.256029
C32	C	-1.664030	-0.491270	0.220512
C33	C	-1.632303	-0.458151	0.110835
C34	C	-1.667745	-0.434036	0.294672
C35	C	-1.639728	-0.343675	0.259158
C36	C	-1.607998	-0.310549	0.149485
C37	C	-1.604287	-0.367790	0.075321
C38	C	-1.699465	-0.467157	0.404349
C39	C	-1.703180	-0.409923	0.478509
C40	C	-1.675170	-0.319561	0.442995
C41	C	-1.643439	-0.286434	0.333322
C42	C	-1.678881	-0.262319	0.517159
C43	C	-1.650865	-0.171959	0.481645
C44	C	-1.615423	-0.196074	0.297808
C45	C	-1.728514	0.264953	0.219630
C46	C	-1.688328	0.361127	0.181862
C47	C	-2.089334	-0.042667	0.334193
C48	C	-2.119138	-0.138840	0.371968
C49	C	-2.000780	0.110350	0.089780
C50	C	-1.974287	0.111458	-0.027835
C51	C	-1.228514	0.264953	0.219630
C52	C	-1.188328	0.361127	0.181862
C53	C	-2.039647	0.117318	0.810112
C54	C	-2.054794	0.116274	0.920622
C55	C	-1.878627	0.107683	0.913191
C56	C	-1.863481	0.108728	0.802680
C57	C	-1.943994	0.113546	0.751145
C58	C	-1.928844	0.114597	0.640631
C59	C	-1.752682	0.106000	0.633203
C60	C	-1.767828	0.104956	0.743713
C61	C	-1.317069	0.111934	0.464041
C62	C	-1.333185	0.110822	0.581656
C63	C	-1.500780	0.110350	0.089780
C64	C	-1.474287	0.111458	-0.027835
C65	C	-2.222470	-0.188397	0.386125
C66	C	-2.250485	-0.278764	0.421602
C67	C	-2.175167	-0.319572	0.442928
C68	C	-2.071825	-0.270008	0.428766
C69	C	-2.043811	-0.179643	0.393282
C70	C	-1.257489	0.410685	0.167708
C71	C	-1.219746	0.501053	0.132235
C72	C	-1.112841	0.541860	0.110911
C73	C	-1.043676	0.492296	0.125071
C74	C	-1.081420	0.401931	0.160550
C75	C	-1.309899	0.189481	0.621585
C76	C	-1.325050	0.188450	0.732095
C77	C	-1.363479	0.108759	0.802675
C78	C	-1.386769	0.030094	0.762740
C79	C	-1.371625	0.031126	0.652232
C80	C	-1.440704	0.191159	-0.098387
C81	C	-1.415794	0.192214	-0.208901
C82	C	-1.424474	0.113566	-0.248860
C83	C	-1.458057	0.033858	-0.178298
C84	C	-1.482960	0.032805	-0.067787
H85	H	-1.589595	-0.169107	0.208498
Cl86	Cl	-2.380404	-0.341054	0.439401
Cl87	Cl	-1.655569	-0.100005	0.574873
H88	H	-2.197992	-0.393153	0.471820
Cl89	Cl	-1.373586	0.292425	-0.297586
Cl90	Cl	-1.468968	-0.065008	-0.228550
Cl91	Cl	-1.525185	-0.067403	0.020896
Cl92	Cl	-1.382509	0.107476	0.941598
H93	H	-1.418060	-0.034789	0.820223
Cl94	Cl	-1.429782	0.290044	-0.048179
Cl95	Cl	-1.306712	0.563343	0.114436
H96	H	-1.702281	0.101030	0.785690
H97	H	-1.390585	-0.032929	0.619733
H98	H	-2.010508	-0.303247	0.446134
Cl99	Cl	-1.632422	0.101265	0.559065
H100	H	-1.344540	0.377471	0.185059
Cl101	Cl	-1.564407	-0.326148	-0.062563
Cl102	Cl	-0.994457	0.339638	0.178329
H103	H	-0.956631	0.525535	0.107704
H104	H	-1.585180	-0.236971	0.120572
H105	H	-1.306077	0.252510	0.764592
H106	H	-1.602760	-0.488418	-0.052635
Cl107	Cl	-2.175048	0.121013	0.994750
Cl108	Cl	-1.065407	0.655464	0.066306
Cl109	Cl	-1.261584	0.289677	0.532877
H110	H	-1.813084	0.103754	0.955172
H111	H	-2.283812	-0.155184	0.368766
Cl112	Cl	-1.913899	-0.117353	0.375493
H113	H	-1.653573	-0.652347	0.011809
Cl114	Cl	-1.731923	-0.623282	0.393905
H115	H	-1.722251	-0.540733	0.433262
Cl116	Cl	-1.743060	-0.451567	0.616385
H117	H	-1.404193	0.114436	-0.338848
H118	H	-1.704707	-0.289299	0.606459
H119	H	-1.994402	0.118524	0.598672
H120	H	-2.105201	0.121251	0.768149
