data_functionalizedCrystal
_audit_creation_method	'MofGen! by Chris Wilmer'
_symmetry_space_group_name_H-M	'P1'
_symmetry_Int_Tables_number	1
_symmetry_cell_setting	triclinic
loop_
_symmetry_equiv_pos_as_xyz
  x,y,z
_cell_length_a	16.120530
_cell_length_b	18.101395
_cell_length_c	16.120256
_cell_angle_alpha	87.125564
_cell_angle_beta	89.871735
_cell_angle_gamma	87.126665
loop_
_atom_site_label
_atom_site_type_symbol
_atom_site_fract_x
_atom_site_fract_y
_atom_site_fract_z
Zn1	Zn	1.247384	-0.375205	0.534567
Zn2	Zn	1.497384	-0.125205	0.784567
Zn3	Zn	1.747384	0.124795	1.034567
Zn4	Zn	1.997384	0.374795	1.284567
Zn5	Zn	1.254317	-0.493093	0.395509
Zn6	Zn	1.504317	-0.243093	0.645509
Zn7	Zn	1.754317	0.006907	0.895509
Zn8	Zn	2.004317	0.256907	1.145509
Zn9	Zn	1.115376	-0.362686	0.388485
Zn10	Zn	1.365376	-0.112686	0.638485
Zn11	Zn	1.615376	0.137314	0.888485
Zn12	Zn	1.865376	0.387314	1.138485
Zn13	Zn	1.108274	-0.492415	0.527479
Zn14	Zn	1.358274	-0.242415	0.777479
Zn15	Zn	1.608274	0.007585	1.027479
Zn16	Zn	1.858274	0.257585	1.277479
O17	O	1.181338	-0.430850	0.461510
O18	O	1.431338	-0.180850	0.711510
O19	O	1.681338	0.069150	0.961510
O20	O	1.931338	0.319150	1.211510
O21	O	1.364669	-0.396365	0.522027
O22	O	1.614669	-0.146365	0.772027
O23	O	1.864669	0.103635	1.022027
O24	O	2.114669	0.353635	1.272027
O25	O	1.241760	-0.470839	0.278212
O26	O	1.491760	-0.220839	0.528212
O27	O	1.741760	0.029161	0.778212
O28	O	1.991760	0.279161	1.028212
O29	O	1.132958	-0.260718	0.407890
O30	O	1.382958	-0.010718	0.657890
O31	O	1.632958	0.239282	0.907890
O32	O	1.882958	0.489282	1.157890
O33	O	1.369763	-0.482978	0.419862
O34	O	1.619763	-0.232978	0.669862
O35	O	1.869763	0.017022	0.919862
O36	O	2.119763	0.267022	1.169862
O37	O	1.229944	-0.269915	0.515216
O38	O	1.479944	-0.019915	0.765216
O39	O	1.729944	0.230085	1.015216
O40	O	1.979944	0.480085	1.265216
O41	O	1.139681	-0.375030	0.273051
O42	O	1.389681	-0.125030	0.523051
O43	O	1.639681	0.124970	0.773051
O44	O	1.889681	0.374970	1.023051
O45	O	0.998069	-0.374372	0.401017
O46	O	1.248069	-0.124372	0.651017
O47	O	1.498069	0.125628	0.901017
O48	O	1.748069	0.375628	1.151017
O49	O	1.120853	-0.481821	0.644785
O50	O	1.370853	-0.231821	0.894785
O51	O	1.620853	0.018179	1.144785
O52	O	1.870853	0.268179	1.394785
O53	O	0.992850	-0.469683	0.503135
O54	O	1.242850	-0.219683	0.753135
O55	O	1.492850	0.030317	1.003135
O56	O	1.742850	0.280317	1.253135
O57	O	1.223057	-0.395708	0.649993
O58	O	1.473057	-0.145708	0.899993
O59	O	1.723057	0.104292	1.149993
O60	O	1.973057	0.354292	1.399993
O61	O	1.234873	-0.596632	0.412989
O62	O	1.484873	-0.346632	0.662989
O63	O	1.734873	-0.096632	0.912989
O64	O	1.984873	0.153368	1.162989
O65	O	1.127576	-0.596133	0.509947
O66	O	1.377576	-0.346133	0.759947
O67	O	1.627576	-0.096133	1.009947
O68	O	1.877576	0.153867	1.259947
C69	C	0.965287	-0.420596	0.450545
C70	C	1.215287	-0.170596	0.700545
C71	C	1.465287	0.079404	0.950545
C72	C	1.715287	0.329404	1.200545
C73	C	0.872859	-0.416229	0.445874
C74	C	1.122859	-0.166229	0.695874
C75	C	1.372859	0.083771	0.945874
C76	C	1.622859	0.333771	1.195874
C77	C	0.703630	-0.408237	0.437352
C78	C	0.953630	-0.158237	0.687352
C79	C	1.203630	0.091763	0.937352
C80	C	1.453630	0.341763	1.187352
C81	C	0.659882	-0.453519	0.485729
C82	C	0.909882	-0.203519	0.735729
C83	C	1.159882	0.046481	0.985729
C84	C	1.409882	0.296481	1.235729
C85	C	0.565718	-0.449073	0.480988
C86	C	0.815718	-0.199073	0.730988
C87	C	1.065718	0.050927	0.980988
C88	C	1.315718	0.300927	1.230988
C89	C	0.797803	-0.412683	0.442092
C90	C	1.047803	-0.162683	0.692092
C91	C	1.297803	0.087317	0.942092
C92	C	1.547803	0.337317	1.192092
C93	C	1.181228	-0.623254	0.461480
C94	C	1.431228	-0.373254	0.711480
C95	C	1.681228	-0.123254	0.961480
C96	C	1.931228	0.126746	1.211480
C97	C	1.181255	-0.705570	0.461499
C98	C	1.431255	-0.455570	0.711499
C99	C	1.681255	-0.205570	0.961499
C100	C	1.931255	0.044430	1.211499
C101	C	1.181435	-1.004672	0.461553
C102	C	1.431435	-0.754672	0.711553
C103	C	1.681435	-0.504672	0.961553
C104	C	1.931435	-0.254672	1.211553
C105	C	1.114068	-0.973078	0.522723
C106	C	1.364068	-0.723078	0.772723
C107	C	1.614068	-0.473078	1.022723
C108	C	1.864068	-0.223078	1.272723
C109	C	1.113773	-0.887437	0.522506
C110	C	1.363773	-0.637437	0.772506
C111	C	1.613773	-0.387437	1.022506
C112	C	1.863773	-0.137437	1.272506
C113	C	1.181346	-0.856284	0.461527
C114	C	1.431346	-0.606284	0.711527
C115	C	1.681346	-0.356284	0.961527
C116	C	1.931346	-0.106284	1.211527
C117	C	1.162064	-0.882558	0.372687
C118	C	1.412064	-0.632558	0.622687
C119	C	1.662064	-0.382558	0.872687
C120	C	1.912064	-0.132558	1.122687
C121	C	1.161631	-0.968200	0.373052
C122	C	1.411631	-0.718200	0.623052
C123	C	1.661631	-0.468200	0.873052
C124	C	1.911631	-0.218200	1.123052
C125	C	1.268265	-0.978145	0.488458
C126	C	1.518265	-0.728145	0.738458
C127	C	1.768265	-0.478145	0.988458
C128	C	2.018265	-0.228145	1.238458
C129	C	1.267650	-0.892552	0.490354
C130	C	1.517650	-0.642552	0.740354
C131	C	1.767650	-0.392552	0.990354
C132	C	2.017650	-0.142552	1.240354
C133	C	1.181297	-0.772421	0.461507
C134	C	1.431297	-0.522421	0.711507
C135	C	1.681297	-0.272421	0.961507
C136	C	1.931297	-0.022421	1.211507
C137	C	1.181483	-1.088534	0.461567
C138	C	1.431483	-0.838534	0.711567
C139	C	1.681483	-0.588534	0.961567
C140	C	1.931483	-0.338534	1.211567
C141	C	1.398232	-0.441144	0.472519
C142	C	1.648232	-0.191144	0.722519
C143	C	1.898232	0.058856	0.972519
C144	C	2.148232	0.308856	1.222519
C145	C	1.490659	-0.445530	0.477210
C146	C	1.740659	-0.195530	0.727210
C147	C	1.990659	0.054470	0.977210
C148	C	2.240659	0.304470	1.227210
C149	C	1.170389	-0.440085	0.678405
C150	C	1.420389	-0.190085	0.928405
C151	C	1.670389	0.059915	1.178405
C152	C	1.920389	0.309915	1.428405
C153	C	1.165723	-0.444021	0.770833
C154	C	1.415723	-0.194021	1.020833
C155	C	1.665723	0.055979	1.270833
C156	C	1.915723	0.305979	1.520833
C157	C	1.181470	-0.237696	0.461560
C158	C	1.431470	0.012304	0.711560
C159	C	1.681470	0.262304	0.961560
C160	C	1.931470	0.512304	1.211560
C161	C	1.181526	-0.155385	0.461581
C162	C	1.431526	0.094615	0.711581
C163	C	1.681526	0.344615	0.961581
C164	C	1.931526	0.594615	1.211581
C165	C	1.192292	-0.421599	0.245461
C166	C	1.442292	-0.171599	0.495461
C167	C	1.692292	0.078401	0.745461
C168	C	1.942292	0.328401	0.995461
C169	C	1.197118	-0.417462	0.153042
C170	C	1.447118	-0.167462	0.403042
C171	C	1.697118	0.082538	0.653042
C172	C	1.947118	0.332538	0.903042
C173	C	1.205667	-0.410307	0.983817
C174	C	1.455667	-0.160307	1.233817
C175	C	1.705667	0.089693	1.483817
C176	C	1.955667	0.339693	1.733817
C177	C	1.157177	-0.451174	0.940053
C178	C	1.407177	-0.201174	1.190053
C179	C	1.657177	0.048826	1.440053
C180	C	1.907177	0.298826	1.690053
C181	C	1.161934	-0.447193	0.845890
C182	C	1.411934	-0.197193	1.095890
C183	C	1.661934	0.052807	1.345890
C184	C	1.911934	0.302807	1.595890
C185	C	1.200912	-0.414287	1.077988
C186	C	1.450912	-0.164287	1.327988
C187	C	1.700912	0.085713	1.577988
C188	C	1.950912	0.335713	1.827988
H189	H	1.125322	-0.869858	0.588241
H190	H	1.375322	-0.619858	0.838241
H191	H	1.625322	-0.369858	1.088241
H192	H	1.875322	-0.119858	1.338241
F193	F	1.286763	-0.870655	0.575841
F194	F	1.536763	-0.620655	0.825841
F195	F	1.786763	-0.370655	1.075841
F196	F	2.036763	-0.120655	1.325841
H197	H	0.670366	-0.366134	0.392377
H198	H	0.920366	-0.116134	0.642377
H199	H	1.170366	0.133866	0.892377
H200	H	1.420366	0.383866	1.142377
F201	F	1.098247	-0.500816	0.983512
F202	F	1.348247	-0.250816	1.233512
F203	F	1.598247	-0.000816	1.483512
F204	F	1.848247	0.249184	1.733512
F205	F	1.264585	-0.360662	0.940358
F206	F	1.514585	-0.110662	1.190358
F207	F	1.764585	0.139338	1.440358
F208	F	2.014585	0.389338	1.690358
F209	F	1.223292	-0.995270	0.311131
F210	F	1.473292	-0.745270	0.561131
F211	F	1.723292	-0.495270	0.811131
F212	F	1.973292	-0.245270	1.061131
F213	F	1.128952	-1.004495	0.608910
F214	F	1.378952	-0.754495	0.858910
F215	F	1.628952	-0.504495	1.108910
F216	F	1.878952	-0.254495	1.358910
F217	F	1.030334	-0.996470	0.499255
F218	F	1.280334	-0.746470	0.749255
F219	F	1.530334	-0.496470	0.999255
F220	F	1.780334	-0.246470	1.249255
H221	H	1.049324	-0.863287	0.504333
H222	H	1.299324	-0.613287	0.754333
H223	H	1.549324	-0.363287	1.004333
H224	H	1.799324	-0.113287	1.254333
F225	F	1.078842	-0.989353	0.343938
F226	F	1.328842	-0.739353	0.593938
F227	F	1.578842	-0.489353	0.843938
F228	F	1.828842	-0.239353	1.093938
F229	F	0.703361	-0.508552	0.544524
F230	F	0.953361	-0.258552	0.794524
F231	F	1.203361	-0.008552	1.044524
F232	F	1.453361	0.241448	1.294524
F233	F	1.292375	-1.011165	0.571996
F234	F	1.542375	-0.761165	0.821996
F235	F	1.792375	-0.511165	1.071996
F236	F	2.042375	-0.261165	1.321996
H237	H	1.209784	-0.862220	0.325673
H238	H	1.459784	-0.612220	0.575673
H239	H	1.709784	-0.362220	0.825673
H240	H	1.959784	-0.112220	1.075673
H241	H	1.099423	-0.857330	0.350107
H242	H	1.349423	-0.607330	0.600107
H243	H	1.599423	-0.357330	0.850107
H244	H	1.849423	-0.107330	1.100107
H245	H	1.320141	-0.871660	0.449403
H246	H	1.570141	-0.621660	0.699403
H247	H	1.820141	-0.371660	0.949403
H248	H	2.070141	-0.121660	1.199403
H249	H	1.318402	-0.998649	0.443960
H250	H	1.568402	-0.748649	0.693960
H251	H	1.818402	-0.498649	0.943960
H252	H	2.068402	-0.248649	1.193960
