data_functionalizedCrystal
_audit_creation_method	'MofGen! by Chris Wilmer'
_symmetry_space_group_name_H-M	'P1'
_symmetry_Int_Tables_number	1
_symmetry_cell_setting	triclinic
loop_
_symmetry_equiv_pos_as_xyz
  x,y,z
_cell_length_a	14.519709
_cell_length_b	16.109301
_cell_length_c	13.596369
_cell_angle_alpha	90.007256
_cell_angle_beta	90.000221
_cell_angle_gamma	83.570813
loop_
_atom_site_label
_atom_site_type_symbol
_atom_site_fract_x
_atom_site_fract_y
_atom_site_fract_z
O1	O	-1.223637	-0.108987	-0.081667
O2	O	-0.890304	0.224347	0.251667
O3	O	-0.556970	0.557680	0.585000
O4	O	-0.955133	-0.121821	-0.081697
O5	O	-0.621799	0.211512	0.251636
O6	O	-0.288466	0.544846	0.584970
O7	O	-1.096761	0.005614	-0.081671
O8	O	-0.763428	0.338948	0.251662
O9	O	-0.430094	0.672281	0.584996
O10	O	-1.082009	-0.236422	-0.081693
O11	O	-0.748675	0.096911	0.251641
O12	O	-0.415342	0.430245	0.584974
O13	O	-1.096745	0.005621	0.081912
O14	O	-0.763412	0.338954	0.415245
O15	O	-0.430079	0.672287	0.748579
O16	O	-0.955117	-0.121815	0.081886
O17	O	-0.621784	0.211518	0.415219
O18	O	-0.288451	0.544852	0.748553
O19	O	-1.223621	-0.108980	0.081916
O20	O	-0.890288	0.224353	0.415250
O21	O	-0.556955	0.557686	0.748583
Zn22	Zn	-1.089367	-0.115397	0.107873
Zn23	Zn	-0.756034	0.217937	0.441207
Zn24	Zn	-0.422700	0.551270	0.774540
Zn25	Zn	-1.089387	-0.115405	-0.107654
Zn26	Zn	-0.756054	0.217929	0.225679
Zn27	Zn	-0.422721	0.551262	0.559013
O28	O	-1.081993	-0.236416	0.081890
O29	O	-0.748660	0.096918	0.415224
O30	O	-0.415327	0.430251	0.748557
C31	C	-0.920766	-0.121220	0.000091
C32	C	-0.587433	0.212114	0.333424
C33	C	-0.254100	0.545447	0.666757
C34	C	-0.818389	-0.119427	0.000079
C35	C	-0.485056	0.213906	0.333413
C36	C	-0.151722	0.547239	0.666746
C37	C	-1.257988	-0.109582	0.000127
C38	C	-0.924654	0.223752	0.333460
C39	C	-0.591321	0.557085	0.666793
C40	C	-1.360365	-0.111374	0.000131
C41	C	-1.027032	0.221959	0.333465
C42	C	-0.693698	0.555293	0.666798
C43	C	-1.096156	0.036593	0.000121
C44	C	-0.762822	0.369927	0.333454
C45	C	-0.429489	0.703260	0.666788
C46	C	-1.094364	0.128892	0.000122
C47	C	-0.761031	0.462225	0.333456
C48	C	-0.427697	0.795559	0.666789
C49	C	-0.443507	-0.112829	0.000125
C50	C	-0.110174	0.220505	0.333458
C51	C	0.223159	0.553838	0.666791
C52	C	-0.547811	-0.114661	0.000112
C53	C	-0.214478	0.218672	0.333445
C54	C	0.118855	0.552005	0.666778
C55	C	-0.630945	-0.116128	0.000101
C56	C	-0.297612	0.217205	0.333434
C57	C	0.035722	0.550539	0.666768
C58	C	-0.735256	-0.117961	0.000090
C59	C	-0.401922	0.215373	0.333423
C60	C	-0.068589	0.548706	0.666757
C61	C	-1.082599	-0.267395	0.000096
C62	C	-0.749265	0.065938	0.333430
C63	C	-0.415932	0.399272	0.666763
C64	C	-1.084390	-0.359693	0.000089
C65	C	-0.751057	-0.026360	0.333422
C66	C	-0.417724	0.306973	0.666755
N67	N	-1.089360	-0.115390	0.254965
N68	N	-0.756026	0.217943	0.588299
N69	N	-0.422693	0.551276	0.921632
C70	C	-1.174238	0.351026	0.000116
C71	C	-0.840904	0.684359	0.333449
C72	C	-0.507571	1.017693	0.666782
C73	C	-1.172547	0.437749	0.000107
C74	C	-0.839214	0.771083	0.333441
C75	C	-0.505880	1.104416	0.666774
C76	C	-1.004510	0.418166	0.000092
C77	C	-0.671177	0.751499	0.333425
C78	C	-0.337843	1.084832	0.666759
C79	C	-1.006202	0.331444	0.000093
C80	C	-0.672868	0.664778	0.333427
C81	C	-0.339535	0.998111	0.666760
C82	C	-1.091068	0.297877	0.000110
C83	C	-0.757735	0.631210	0.333443
C84	C	-0.424401	0.964543	0.666777
C85	C	-1.087686	0.471322	0.000101
C86	C	-0.754353	0.804655	0.333434
C87	C	-0.421019	1.137988	0.666767
C88	C	-1.085852	0.565351	0.000092
C89	C	-0.752519	0.898684	0.333425
C90	C	-0.419186	1.232018	0.666758
C91	C	-1.092902	0.203842	0.000117
C92	C	-0.759569	0.537175	0.333451
C93	C	-0.426236	0.870508	0.666784
C94	C	-1.089379	-0.115408	0.656256
C95	C	-0.756046	0.217925	0.989590
C96	C	-0.422713	0.551259	1.322923
C97	C	-1.089371	-0.115406	0.544605
C98	C	-0.756038	0.217927	0.877938
C99	C	-0.422705	0.551261	1.211272
C100	C	-1.089370	-0.115400	0.455614
C101	C	-0.756037	0.217933	0.788948
C102	C	-0.422703	0.551267	1.122281
C103	C	-1.089361	-0.115397	0.343956
C104	C	-0.756028	0.217937	0.677289
C105	C	-0.422694	0.551270	1.010622
N106	N	-1.089393	-0.115408	0.745254
N107	N	-0.756060	0.217926	1.078587
N108	N	-0.422726	0.551259	1.411921
H109	H	-1.243341	0.323699	0.000127
H110	H	-0.910008	0.657032	0.333461
H111	H	-0.576675	0.990365	0.666794
H112	H	-1.240272	0.481020	0.000110
H113	H	-0.906939	0.814354	0.333443
H114	H	-0.573606	1.147687	0.666776
Cl115	Cl	-0.897827	0.460371	0.000072
Cl116	Cl	-0.564493	0.793705	0.333405
Cl117	Cl	-0.231160	1.127038	0.666738
Cl118	Cl	-0.901637	0.264623	0.000078
Cl119	Cl	-0.568303	0.597956	0.333411
Cl120	Cl	-0.234970	0.931289	0.666744
