data_functionalizedCrystal
_audit_creation_method	'MofGen! by Chris Wilmer'
_symmetry_space_group_name_H-M	'P1'
_symmetry_Int_Tables_number	1
_symmetry_cell_setting	triclinic
loop_
_symmetry_equiv_pos_as_xyz
  x,y,z
_cell_length_a	21.295417
_cell_length_b	19.121141
_cell_length_c	21.295411
_cell_angle_alpha	92.464691
_cell_angle_beta	89.978356
_cell_angle_gamma	92.416218
loop_
_atom_site_label
_atom_site_type_symbol
_atom_site_fract_x
_atom_site_fract_y
_atom_site_fract_z
Zn1	Zn	-0.291823	-1.073733	-0.396943
Zn2	Zn	-0.397071	-1.073624	-0.291665
Zn3	Zn	-0.287323	-0.956272	-0.287200
Zn4	Zn	-0.392556	-0.956238	-0.392411
O5	O	-0.342193	-1.014967	-0.342055
O6	O	-0.309557	-1.172003	-0.386744
O7	O	-0.382518	-1.058026	-0.202982
O8	O	-0.199833	-0.971914	-0.301786
O9	O	-0.386882	-1.171923	-0.309396
O10	O	-0.203139	-1.058212	-0.382414
O11	O	-0.301887	-0.971808	-0.199701
O12	O	-0.297509	-0.857983	-0.297391
O13	O	-0.379188	-0.971855	-0.481102
O14	O	-0.374824	-0.857958	-0.374688
O15	O	-0.305180	-1.058179	-0.484433
O16	O	-0.484559	-1.057993	-0.305000
O17	O	-0.481242	-0.971750	-0.379018
C18	C	-0.335189	-0.832487	-0.335064
C19	C	-0.332208	-0.754421	-0.332088
C20	C	-0.371122	-0.717751	-0.370871
C21	C	-0.368312	-0.644400	-0.368078
C22	C	-0.326592	-0.607720	-0.326498
C23	C	-0.287674	-0.644395	-0.287713
C24	C	-0.290480	-0.717745	-0.290509
C25	C	-0.316097	-0.386251	-0.316046
C26	C	-0.313295	-0.312896	-0.313251
C27	C	-0.393933	-0.312905	-0.393618
C28	C	-0.396738	-0.386256	-0.396408
C29	C	-0.357818	-0.422925	-0.357625
C30	C	-0.323720	-0.532743	-0.323640
C31	C	-0.360687	-0.497901	-0.360486
C32	C	-0.505741	-1.014875	-0.342016
C33	C	-0.575710	-1.014900	-0.342023
C34	C	-0.610285	-1.059847	-0.303525
C35	C	-0.676028	-1.059879	-0.303541
C36	C	-0.707195	-1.014953	-0.342047
C37	C	-0.672612	-0.970003	-0.380553
C38	C	-0.606870	-0.969977	-0.380541
N39	N	-0.808107	-0.953513	-0.344492
N40	N	-0.870560	-0.953540	-0.344500
C41	C	-0.905273	-1.015032	-0.342086
N42	N	-0.875174	-1.076496	-0.339652
N43	N	-0.812715	-1.076468	-0.339641
C44	C	-0.778481	-1.014977	-0.342065
C45	C	-1.011134	-1.060018	-0.303603
C46	C	-1.076879	-1.060052	-0.303623
C47	C	-1.073461	-0.970170	-0.380631
C48	C	-1.007718	-0.970142	-0.380615
C49	C	-0.976558	-1.015065	-0.342097
C50	C	-0.178007	-1.015079	-0.342108
C51	C	-0.108041	-1.015126	-0.342130
C52	C	-0.342182	-1.015025	-0.506247
C53	C	-0.342177	-1.015050	-0.576216
C54	C	-0.349222	-0.198160	-0.349066
C55	C	-0.352208	-0.276226	-0.352035
C56	C	-0.303639	-1.059997	-0.610818
C57	C	-0.303612	-1.059996	-0.676560
C58	C	-0.342134	-1.015056	-0.707699
C59	C	-0.380675	-0.970100	-0.673089
C60	C	-0.380696	-0.970098	-0.607348
N61	N	-0.396994	-1.009637	-0.810707
N62	N	-0.396972	-1.009644	-0.873159
C63	C	-0.342071	-1.015060	-0.905774
N64	N	-0.287191	-1.020483	-0.873579
N65	N	-0.287214	-1.020480	-0.811121
C66	C	-0.342115	-1.015053	-0.778984
C67	C	-0.303500	-1.060008	-1.011661
C68	C	-0.303471	-1.060002	-1.077405
C69	C	-0.380540	-0.970110	-1.073932
C70	C	-0.380562	-0.970113	-1.008190
C71	C	-0.342043	-1.015065	-0.977059
C72	C	-0.342160	-1.014949	-0.178502
C73	C	-0.341993	-1.015061	-0.108539
H74	H	-0.425618	-0.283041	-0.425193
H75	H	-0.411898	-0.933512	-1.099284
H76	H	-0.279314	-0.283033	-0.279395
H77	H	-0.979566	-0.933539	-0.411961
O78	O	-0.422224	-0.921626	-0.706668
H79	H	-0.415738	-0.929182	-0.758196
O80	O	-0.262093	-1.108479	-0.577243
H81	H	-0.228870	-1.077069	-0.546078
O82	O	-0.274141	-0.425798	-0.274199
H83	H	-0.244671	-0.387967	-0.244806
H84	H	-0.258789	-0.747601	-0.258931
O85	O	-0.262032	-1.108474	-0.713880
H86	H	-0.228784	-1.077057	-0.742612
H87	H	-0.412078	-0.933494	-0.579175
O88	O	-0.242689	-0.604839	-0.242848
H89	H	-0.247285	-0.547673	-0.247407
H90	H	-1.098837	-0.933593	-0.411987
H91	H	-0.411948	-0.933516	-0.980017
O92	O	-0.261950	-1.108481	-0.978076
H93	H	-0.235138	-1.139727	-1.013184
H94	H	-0.394653	-0.527768	-0.394343
H95	H	-0.272085	-1.096602	-1.105577
O96	O	-0.576679	-1.108309	-0.261991
H97	H	-0.588877	-1.096301	-0.212119
O98	O	-0.416118	-0.757312	-0.415721
H99	H	-0.442699	-0.719487	-0.442225
H100	H	-0.289753	-0.502871	-0.289784
H101	H	-0.697992	-0.933425	-0.411906
O102	O	-0.410403	-0.604845	-0.409787
H103	H	-0.439934	-0.642674	-0.439121
O104	O	-0.713332	-1.108353	-0.262011
H105	H	-0.680619	-1.139582	-0.235222
H106	H	-0.430713	-0.416116	-0.430266
H107	H	-0.578719	-0.933375	-0.411892
H108	H	-0.985763	-1.096600	-0.272241
O109	O	-1.114175	-1.108531	-0.262097
H110	H	-1.081460	-1.139757	-0.235308
