data_functionalizedCrystal
_audit_creation_method	'MofGen! by Chris Wilmer'
_symmetry_space_group_name_H-M	'P1'
_symmetry_Int_Tables_number	1
_symmetry_cell_setting	triclinic
loop_
_symmetry_equiv_pos_as_xyz
  x,y,z
_cell_length_a	16.109301
_cell_length_b	10.654541
_cell_length_c	14.586319
_cell_angle_alpha	89.996435
_cell_angle_beta	89.999213
_cell_angle_gamma	83.972705
loop_
_atom_site_label
_atom_site_type_symbol
_atom_site_fract_x
_atom_site_fract_y
_atom_site_fract_z
O1	O	1.104090	0.161419	-0.076182
O2	O	0.862147	0.181508	-0.076196
O3	O	0.988682	-0.011352	-0.076183
O4	O	0.977554	0.354278	-0.076195
O5	O	0.988673	-0.011354	0.076298
O6	O	0.862138	0.181505	0.076284
O7	O	1.104081	0.161416	0.076299
Cu8	Cu	0.983109	0.171460	0.090214
Cu9	Cu	0.983119	0.171464	-0.090112
O10	O	0.977546	0.354276	0.076286
C11	C	0.831163	0.180692	0.000042
C12	C	0.738853	0.178253	0.000037
C13	C	0.517227	0.287019	0.000044
C14	C	0.430493	0.284717	0.000050
C15	C	0.449008	0.055896	0.000053
C16	C	0.535740	0.058200	0.000054
C17	C	0.569847	0.173765	0.000045
C18	C	0.396381	0.169159	0.000050
C19	C	0.302340	0.166662	0.000056
C20	C	0.663894	0.176262	0.000040
C21	C	0.987861	-0.058140	0.000057
C22	C	0.985418	-0.197550	0.000055
C23	C	1.136725	-0.227574	0.000076
C24	C	1.211227	-0.308079	0.000088
C25	C	1.208926	-0.439066	0.000085
C26	C	1.132115	-0.489549	0.000067
C27	C	1.057613	-0.409044	0.000055
C28	C	1.059922	-0.278056	0.000060
C29	C	0.906308	-0.379021	0.000027
C30	C	0.908607	-0.248034	0.000037
C31	C	0.829496	-0.429504	0.000010
C32	C	0.754992	-0.348998	0.000004
C33	C	0.757296	-0.218004	0.000008
C34	C	0.834104	-0.167529	0.000025
C35	C	1.135065	0.162231	0.000058
C36	C	1.227375	0.164671	0.000058
C37	C	0.978367	0.401064	0.000044
C38	C	0.980810	0.540474	0.000040
N39	N	0.983107	0.171457	0.217046
N40	N	0.983127	0.171457	-0.216944
C41	C	1.039156	0.086088	0.452058
C42	C	1.039158	0.086085	0.548040
C43	C	0.927072	0.256830	0.548037
C44	C	0.927067	0.256826	0.452058
C45	C	0.983113	0.171457	0.404071
C46	C	0.983121	0.171457	0.596032
C47	C	0.983123	0.171455	0.700099
C48	C	0.983110	0.171457	0.299997
H49	H	0.544993	0.381120	0.000043
H50	H	0.421227	-0.038193	0.000067
C51	C	0.592837	-0.064811	-0.000136
C52	C	0.577345	-0.134377	-0.078595
C53	C	0.629934	-0.247686	-0.078804
H54	H	0.582475	-0.112351	0.052975
H55	H	0.649388	-0.046938	-0.000183
H56	H	0.520807	-0.152252	-0.078540
H57	H	0.587712	-0.086875	-0.131719
H58	H	0.686485	-0.229814	-0.078851
H59	H	0.619567	-0.295215	-0.025689
H60	H	0.619435	-0.294895	-0.132041
C61	C	1.100034	-0.006747	0.400123
C62	C	1.149098	-0.081532	0.462697
C63	C	1.205180	-0.167081	0.414891
H64	H	1.134980	0.038292	0.362671
H65	H	1.069844	-0.059106	0.362708
H66	H	1.179286	-0.029179	0.500096
H67	H	1.114176	-0.126598	0.500150
H68	H	1.174990	-0.219441	0.377476
H69	H	1.240120	-0.122032	0.377441
H70	H	1.238472	-0.217841	0.457339
H71	H	1.138606	-0.120919	0.000090
C72	C	1.294536	-0.253024	0.000156
C73	C	1.280611	-0.121081	0.000182
C74	C	1.357335	-0.070328	0.000256
H75	H	1.325318	-0.280513	-0.052997
H76	H	1.325242	-0.280595	0.053357
H77	H	1.249919	-0.093522	-0.053013
H78	H	1.249842	-0.093558	0.053331
H79	H	1.388040	-0.097899	0.053456
H80	H	1.388111	-0.097826	-0.052898
H81	H	1.347897	0.019200	0.000282
H82	H	0.881442	0.326338	0.587118
H83	H	1.269593	-0.504614	0.000087
H84	H	1.084792	0.016568	0.587108
C85	C	0.866180	0.349661	0.400115
C86	C	0.817118	0.424454	0.462681
C87	C	0.761030	0.509989	0.414865
H88	H	0.831234	0.304612	0.362677
H89	H	0.896366	0.402016	0.362686
H90	H	0.786935	0.372105	0.500095
H91	H	0.852042	0.469531	0.500121
H92	H	0.791215	0.562345	0.377436
H93	H	0.726089	0.464930	0.377429
H94	H	0.727739	0.560754	0.457308
H95	H	1.130248	-0.596207	0.000053
H96	H	0.387652	0.376940	0.000051
H97	H	0.827628	-0.536161	0.000001
H98	H	0.692459	-0.390113	-0.000017
H99	H	0.696627	-0.152463	-0.000006
H100	H	0.835988	-0.060874	0.000034
