data_functionalizedCrystal
_audit_creation_method	'MofGen! by Chris Wilmer'
_symmetry_space_group_name_H-M	'P1'
_symmetry_Int_Tables_number	1
_symmetry_cell_setting	triclinic
loop_
_symmetry_equiv_pos_as_xyz
  x,y,z
_cell_length_a	14.044220
_cell_length_b	10.723024
_cell_length_c	9.198806
_cell_angle_alpha	90.001685
_cell_angle_beta	90.000267
_cell_angle_gamma	91.171626
loop_
_atom_site_label
_atom_site_type_symbol
_atom_site_fract_x
_atom_site_fract_y
_atom_site_fract_z
O1	O	1.259665	-0.301049	-0.120731
O2	O	1.759665	0.198951	0.379269
O3	O	0.983625	-0.290185	-0.120768
O4	O	1.483625	0.209815	0.379232
O5	O	1.128012	-0.114678	-0.120743
O6	O	1.628012	0.385322	0.379257
O7	O	1.115277	-0.476556	-0.120756
O8	O	1.615277	0.023444	0.379244
O9	O	1.127999	-0.114678	0.121042
O10	O	1.627999	0.385322	0.621042
O11	O	0.983611	-0.290185	0.121017
O12	O	1.483611	0.209815	0.621017
O13	O	1.259651	-0.301049	0.121054
O14	O	1.759651	0.198951	0.621054
Cu15	Cu	1.121630	-0.295617	0.143112
Cu16	Cu	1.621630	0.204383	0.643112
Cu17	Cu	1.121646	-0.295617	-0.142826
Cu18	Cu	1.621646	0.204383	0.357174
O19	O	1.115264	-0.476556	0.121029
O20	O	1.615264	0.023444	0.621029
C21	C	0.948273	-0.285430	0.000120
C22	C	1.448273	0.214570	0.500120
C23	C	0.842955	-0.271245	0.000106
C24	C	1.342955	0.228755	0.500106
C25	C	1.127079	-0.068086	0.000147
C26	C	1.627079	0.431914	0.500147
C27	C	1.124306	0.070746	0.000142
C28	C	1.624306	0.570746	0.500142
N29	N	1.121626	-0.295616	0.344226
N30	N	1.621626	0.204384	0.844226
C31	C	0.650125	-0.245313	0.000135
C32	C	1.150125	0.254687	0.500135
C33	C	0.593146	-0.345915	0.000138
C34	C	1.093146	0.154085	0.500138
C35	C	0.485848	-0.331486	0.000155
C36	C	0.985848	0.168514	0.500155
C37	C	0.757432	-0.259740	0.000119
C38	C	1.257432	0.240260	0.500119
C39	C	1.295003	-0.305804	0.000163
C40	C	1.795003	0.194196	0.500163
C41	C	1.400321	-0.319989	0.000168
C42	C	1.900321	0.180011	0.500168
C43	C	1.116197	-0.523149	0.000135
C44	C	1.616197	-0.023149	0.500135
C45	C	1.118970	-0.661980	0.000131
C46	C	1.618970	-0.161980	0.500131
C47	C	1.205097	0.137646	0.000151
C48	C	1.705097	0.637646	0.500151
C49	C	1.202234	0.281136	0.000145
C50	C	1.702234	0.781136	0.500145
C51	C	1.176936	-0.373512	0.416429
C52	C	1.676936	0.126488	0.916429
C53	C	1.176949	-0.373513	0.583842
C54	C	1.676949	0.126487	1.083842
N55	N	1.121650	-0.295618	0.656060
N56	N	1.621650	0.204382	1.156060
H57	H	0.624947	-0.442880	0.000128
H58	H	1.124947	0.057120	0.500128
O59	O	1.284814	0.349604	-0.000041
O60	O	1.784814	0.849604	0.499959
C61	C	1.431504	0.398809	-0.125334
C62	C	1.931504	0.898809	0.374666
C63	C	1.338025	0.321170	-0.125286
C64	C	1.838025	0.821170	0.374714
H65	H	1.474542	0.375868	-0.226598
H66	H	1.974542	0.875868	0.273402
H67	H	1.474668	0.375814	-0.024211
H68	H	1.974668	0.875814	0.475789
H69	H	1.414470	0.502302	-0.125268
H70	H	1.914470	1.002302	0.374732
H71	H	1.354973	0.217656	-0.125402
H72	H	1.854973	0.717656	0.374598
H73	H	1.294888	0.344271	-0.226400
H74	H	1.794888	0.844271	0.273600
H75	H	1.049803	0.280515	0.000134
H76	H	1.549803	0.780515	0.500134
H77	H	0.618325	-0.148357	0.000147
H78	H	1.118325	0.351643	0.500147
H79	H	1.276386	0.088691	0.000169
H80	H	1.776386	0.588691	0.500169
H81	H	1.053017	0.119700	0.000123
H82	H	1.553017	0.619700	0.500123
H83	H	1.074286	-0.228925	0.406351
H84	H	1.574286	0.271075	0.906351
H85	H	1.224296	-0.440209	0.645935
H86	H	1.724296	0.059791	1.145935
O87	O	1.233364	-0.453247	0.342488
O88	O	1.733364	0.046753	0.842488
C89	C	1.272151	-0.667378	0.295541
C90	C	1.772151	-0.167378	0.795541
C91	C	1.208195	-0.577214	0.379391
C92	C	1.708195	-0.077214	0.879391
H93	H	1.251811	-0.767625	0.325322
H94	H	1.751811	-0.267625	0.825322
H95	H	1.349852	-0.648114	0.325397
H96	H	1.849852	-0.148114	0.825397
H97	H	1.262095	-0.653135	0.173733
H98	H	1.762095	-0.153135	0.673733
H99	H	1.218168	-0.591406	0.501217
H100	H	1.718168	-0.091406	1.001217
H101	H	1.130518	-0.596501	0.349414
H102	H	1.630518	-0.096501	0.849414
H103	H	1.074291	-0.228931	0.593976
H104	H	1.574291	0.271069	1.093976
