data_functionalizedCrystal
_audit_creation_method	'MofGen! by Chris Wilmer'
_symmetry_space_group_name_H-M	'P1'
_symmetry_Int_Tables_number	1
_symmetry_cell_setting	triclinic
loop_
_symmetry_equiv_pos_as_xyz
  x,y,z
_cell_length_a	21.395362
_cell_length_b	10.686285
_cell_length_c	10.685314
_cell_angle_alpha	90.303498
_cell_angle_beta	94.328484
_cell_angle_gamma	85.645931
loop_
_atom_site_label
_atom_site_type_symbol
_atom_site_fract_x
_atom_site_fract_y
_atom_site_fract_z
Zn1	Zn	0.953446	-0.553216	-0.671786
Zn2	Zn	1.453446	-0.053216	-0.171786
Zn3	Zn	0.969372	-0.746949	-0.445971
Zn4	Zn	1.469372	-0.246949	0.054029
Zn5	Zn	0.856045	-0.537259	-0.461958
Zn6	Zn	1.356045	-0.037259	0.038042
Zn7	Zn	0.857279	-0.762976	-0.655604
Zn8	Zn	1.357279	-0.262976	-0.155604
O9	O	0.909036	-0.650100	-0.558830
O10	O	1.409036	-0.150100	-0.058830
O11	O	1.043232	-0.578886	-0.641912
O12	O	1.543232	-0.078886	-0.141912
O13	O	0.960488	-0.705748	-0.272547
O14	O	1.460488	-0.205748	0.227453
O15	O	0.861784	-0.363834	-0.503255
O16	O	1.361784	0.136166	-0.003255
O17	O	1.054933	-0.721221	-0.476008
O18	O	1.554933	-0.221221	0.023992
O19	O	0.933344	-0.375558	-0.657414
O20	O	1.433344	0.124442	-0.157414
O21	O	0.877227	-0.551689	-0.284292
O22	O	1.377227	-0.051689	0.215708
O23	O	0.768535	-0.567230	-0.487564
O24	O	1.268535	-0.067230	0.012436
O25	O	0.863887	-0.748536	-0.833296
O26	O	1.363887	-0.248536	-0.333296
O27	O	0.769442	-0.733063	-0.629835
O28	O	1.269442	-0.233063	-0.129835
O29	O	0.934540	-0.594427	-0.845184
O30	O	1.434540	-0.094427	-0.345184
O31	O	0.961684	-0.924616	-0.460317
O32	O	1.461684	-0.424616	0.039683
O33	O	0.879330	-0.936391	-0.614333
O34	O	1.379330	-0.436391	-0.114333
C35	C	0.746256	-0.650155	-0.558679
C36	C	1.246256	-0.150155	-0.058679
C37	C	0.676618	-0.650211	-0.558642
C38	C	1.176618	-0.150211	-0.058642
C39	C	0.922385	-0.976022	-0.533862
C40	C	1.422385	-0.476022	-0.033862
C41	C	0.928152	-1.115456	-0.523222
C42	C	1.428152	-0.615456	-0.023222
C43	C	0.644402	-0.736658	-0.632594
C44	C	1.144402	-0.236658	-0.132594
C45	C	0.578963	-0.736631	-0.632652
C46	C	1.078963	-0.236631	-0.132652
C47	C	0.545745	-0.650170	-0.558735
C48	C	1.045745	-0.150170	-0.058735
C49	C	0.577968	-0.563707	-0.484779
C50	C	1.077968	-0.063707	0.015221
C51	C	0.643405	-0.563728	-0.484732
C52	C	1.143405	-0.063728	0.015268
C53	C	0.445577	-0.631444	-0.446576
C54	C	0.945577	-0.131444	0.053424
C55	C	0.380142	-0.631432	-0.446620
C56	C	0.880142	-0.131432	0.053380
C57	C	0.343916	-0.650099	-0.558880
C58	C	0.843916	-0.150099	-0.058880
C59	C	0.373134	-0.668804	-0.671098
C60	C	0.873134	-0.168804	-0.171098
C61	C	0.438571	-0.668825	-0.671051
C62	C	0.938571	-0.168825	-0.171051
C63	C	0.474789	-0.650137	-0.558778
C64	C	0.974789	-0.150137	-0.058778
C65	C	0.240743	-0.736521	-0.632902
C66	C	0.740743	-0.236521	-0.132902
C67	C	0.175303	-0.736486	-0.632963
C68	C	0.675303	-0.236486	-0.132963
C69	C	0.174310	-0.563568	-0.485077
C70	C	0.674310	-0.063568	0.014923
C71	C	0.239748	-0.563597	-0.485028
C72	C	0.739748	-0.063597	0.014972
C73	C	0.272961	-0.650080	-0.558938
C74	C	0.772961	-0.150080	-0.058938
C75	C	1.072451	-0.650045	-0.558982
C76	C	1.572451	-0.150045	-0.058982
C77	C	1.142089	-0.650022	-0.559046
C78	C	1.642089	-0.150022	-0.059046
C79	C	0.897575	-0.675049	-0.886030
C80	C	1.397575	-0.175049	-0.386030
C81	C	0.892691	-0.685681	-1.025463
C82	C	1.392691	-0.185681	-0.525463
C83	C	0.895650	-0.322908	-0.583923
C84	C	1.395650	0.177092	-0.083923
C85	C	0.889946	-0.183478	-0.594616
C86	C	1.389946	0.316522	-0.094616
C87	C	0.920484	-0.625157	-0.232910
C88	C	1.420484	-0.125157	0.267090
C89	C	0.925475	-0.614172	-0.093504
C90	C	1.425475	-0.114172	0.406496
H91	H	0.671440	-0.807078	-0.692780
H92	H	1.171440	-0.307078	-0.192780
H93	H	0.552728	-0.807026	-0.692878
H94	H	1.052728	-0.307026	-0.192878
H95	H	0.149074	-0.806879	-0.693191
H96	H	0.649074	-0.306879	-0.193191
Br97	Br	0.978474	-0.498548	-1.012812
Br98	Br	1.478474	0.001452	-0.512812
Br99	Br	0.839678	-0.801289	-1.106160
Br100	Br	1.339678	-0.301289	-0.606160
Br101	Br	0.283473	-0.446270	-0.384658
Br102	Br	0.783473	0.053730	0.115342
H103	H	0.669635	-0.493329	-0.424512
H104	H	1.169635	0.006671	0.075488
H105	H	0.475067	-0.616238	-0.355154
H106	H	0.975067	-0.116238	0.144846
Br107	Br	0.532887	-0.446356	-0.384473
Br108	Br	1.032887	0.053644	0.115527
Br109	Br	0.323978	-0.694135	-0.823464
Br110	Br	0.823978	-0.194135	-0.323464
Br111	Br	0.478222	-0.694204	-0.823339
Br112	Br	0.978222	-0.194204	-0.323339
H113	H	0.965272	-1.163895	-0.453945
H114	H	1.465272	-0.663895	0.046055
Br115	Br	0.285822	-0.853883	-0.733211
Br116	Br	0.785822	-0.353883	-0.233211
Br117	Br	0.129234	-0.446213	-0.384772
Br118	Br	0.629234	0.053787	0.115228
Br119	Br	0.340495	-0.606049	-0.294327
Br120	Br	0.840495	-0.106049	0.205673
H121	H	0.852824	-1.135045	-0.663881
H122	H	1.352824	-0.635045	-0.163881
