data_functionalizedCrystal
_audit_creation_method	'MofGen! by Chris Wilmer'
_symmetry_space_group_name_H-M	'P1'
_symmetry_Int_Tables_number	1
_symmetry_cell_setting	triclinic
loop_
_symmetry_equiv_pos_as_xyz
  x,y,z
_cell_length_a	10.654550
_cell_length_b	13.596369
_cell_length_c	10.654550
_cell_angle_alpha	89.994175
_cell_angle_beta	95.515069
_cell_angle_gamma	90.002068
loop_
_atom_site_label
_atom_site_type_symbol
_atom_site_fract_x
_atom_site_fract_y
_atom_site_fract_z
O1	O	1.667842	0.081718	-0.176401
O2	O	2.167842	0.581718	0.323599
O3	O	1.302364	0.081736	-0.193207
O4	O	1.802364	0.581736	0.306793
O5	O	1.493506	0.081720	-0.002065
O6	O	1.993506	0.581720	0.497935
O7	O	1.476700	0.081733	-0.367543
O8	O	1.976700	0.581733	0.132457
O9	O	1.493487	-0.081863	-0.002055
O10	O	1.993487	0.418137	0.497945
O11	O	1.302345	-0.081847	-0.193197
O12	O	1.802345	0.418153	0.306803
O13	O	1.667823	-0.081865	-0.176391
O14	O	2.167823	0.418135	0.323609
Zn15	Zn	1.485081	-0.107828	-0.184792
Zn16	Zn	1.985081	0.392172	0.315208
Zn17	Zn	1.485106	0.107699	-0.184806
Zn18	Zn	1.985106	0.607699	0.315194
O19	O	1.476681	-0.081850	-0.367533
O20	O	1.976681	0.418150	0.132467
C21	C	1.255556	-0.000053	-0.191968
C22	C	1.755556	0.499947	0.308032
C23	C	1.116113	-0.000047	-0.188276
C24	C	1.616113	0.499953	0.311724
N25	N	1.485073	-0.254920	-0.184782
N26	N	1.985073	0.245080	0.315218
C27	C	1.036628	-0.000045	-0.300818
C28	C	1.536628	0.499955	0.199182
C29	C	0.905607	-0.000063	-0.297341
C30	C	1.405607	0.499937	0.202659
C31	C	0.933570	-0.000078	-0.068772
C32	C	1.433570	0.499922	0.431228
C33	C	1.064588	-0.000068	-0.072250
C34	C	1.564588	0.499932	0.427750
C35	C	1.485105	-0.656211	-0.184807
C36	C	1.985105	-0.156211	0.315193
C37	C	1.485092	-0.544560	-0.184804
C38	C	1.985092	-0.044560	0.315196
C39	C	1.485089	-0.455569	-0.184796
C40	C	1.985089	0.044431	0.315204
C41	C	1.485076	-0.343911	-0.184791
C42	C	1.985076	0.156089	0.315209
C43	C	1.714631	-0.000074	-0.177630
C44	C	2.214631	0.499926	0.322370
C45	C	1.854074	-0.000074	-0.181322
C46	C	2.354074	0.499926	0.318678
C47	C	1.492263	-0.000071	0.044738
C48	C	1.992263	0.499929	0.544738
C49	C	1.488571	-0.000069	0.184181
C50	C	1.988571	0.499931	0.684181
N51	N	1.485124	0.254791	-0.184806
N52	N	1.985124	0.754791	0.315194
C53	C	1.477925	-0.000057	-0.414336
C54	C	1.977925	0.499943	0.085664
C55	C	1.481616	-0.000052	-0.553779
C56	C	1.981616	0.499948	-0.053779
C57	C	1.601112	-0.000074	0.263667
C58	C	2.101112	0.499926	0.763667
C59	C	1.597636	-0.000062	0.394688
C60	C	2.097636	0.499938	0.894688
C61	C	1.369066	-0.000044	0.366725
C62	C	1.869066	0.499956	0.866725
C63	C	1.372544	-0.000049	0.235706
C64	C	1.872544	0.499951	0.735706
H65	H	0.840894	-0.000064	-0.388984
H66	H	1.340894	0.499936	0.111016
H67	H	1.274601	-0.000029	0.408693
H68	H	1.774601	0.499971	0.908693
H69	H	1.078574	-0.000035	-0.395294
H70	H	1.578574	0.499965	0.104706
C71	C	0.745143	-0.000091	0.038050
C72	C	1.245143	0.499909	0.538050
C73	C	0.876928	-0.000089	0.058760
C74	C	1.376928	0.499911	0.558760
H75	H	0.710180	-0.000089	0.116787
H76	H	1.210180	0.499911	0.616787
H77	H	0.717937	-0.057132	-0.008324
H78	H	1.217937	0.442868	0.491676
H79	H	0.717938	0.056959	-0.008342
H80	H	1.217938	0.556959	0.491658
H81	H	0.904134	-0.057143	0.105145
H82	H	1.404134	0.442857	0.605145
H83	H	0.904146	0.056958	0.105154
H84	H	1.404146	0.556958	0.605154
C85	C	1.823912	-0.000096	0.409159
C86	C	2.323912	0.499904	0.909159
C87	C	1.721346	-0.000075	0.482059
C88	C	2.221346	0.499925	0.982059
H89	H	1.900287	-0.000108	0.463101
H90	H	2.400287	0.499892	0.963101
H91	H	1.820528	0.056943	0.357467
H92	H	2.320528	0.556943	0.857467
H93	H	1.820491	-0.057147	0.357483
H94	H	2.320491	0.442853	0.857483
H95	H	1.724762	0.056981	0.533728
H96	H	2.224762	0.556981	1.033728
H97	H	1.724732	-0.057119	0.533772
H98	H	2.224732	0.442881	1.033772
C99	C	1.146254	-0.000040	0.221215
C100	C	1.646254	0.499960	0.721215
C101	C	1.248828	-0.000047	0.148325
C102	C	1.748828	0.499953	0.648325
H103	H	1.069883	-0.000042	0.167266
H104	H	1.569883	0.499958	0.667266
H105	H	1.149656	0.057002	0.272885
H106	H	1.649656	0.557002	0.772885
H107	H	1.149649	-0.057088	0.272911
H108	H	1.649649	0.442912	0.772911
H109	H	1.245439	0.057005	0.096635
H110	H	1.745439	0.557005	0.596635
H111	H	1.245424	-0.057095	0.096632
H112	H	1.745424	0.442905	0.596632
C113	C	1.277850	-0.000062	0.023906
C114	C	1.777850	0.499938	0.523906
C115	C	1.151972	-0.000069	0.051465
C116	C	1.651972	0.499931	0.551465
H117	H	1.331794	-0.000071	0.100280
H118	H	1.831794	0.499929	0.600280
H119	H	1.293564	0.056984	-0.023613
H120	H	1.793564	0.556984	0.476387
H121	H	1.293564	-0.057107	-0.023622
H122	H	1.793564	0.442893	0.476378
H123	H	1.136255	0.056980	0.098985
H124	H	1.636255	0.556980	0.598985
H125	H	1.136251	-0.057121	0.099004
H126	H	1.636251	0.442879	0.599004
H127	H	1.695588	-0.000089	0.221720
H128	H	2.195588	0.499911	0.721720
