data_functionalizedCrystal
_audit_creation_method	'MofGen! by Chris Wilmer'
_symmetry_space_group_name_H-M	'P1'
_symmetry_Int_Tables_number	1
_symmetry_cell_setting	triclinic
loop_
_symmetry_equiv_pos_as_xyz
  x,y,z
_cell_length_a	6.817900
_cell_length_b	17.982959
_cell_length_c	27.923559
_cell_angle_alpha	96.853904
_cell_angle_beta	98.965071
_cell_angle_gamma	102.451857
loop_
_atom_site_label
_atom_site_type_symbol
_atom_site_fract_x
_atom_site_fract_y
_atom_site_fract_z
V1	V	-3.971540	-0.106498	-0.151473
O2	O	-3.965421	0.004003	-0.148381
O3	O	-3.918321	-0.210094	-0.150637
O4	O	-3.901388	-0.105349	-0.217444
O5	O	-3.982471	-0.101468	-0.081112
V6	V	-4.458610	-0.093223	-0.143033
O7	O	-4.225015	-0.135617	-0.169987
O8	O	-4.655332	-0.064103	-0.124519
O9	O	-4.288623	0.010374	-0.143868
O10	O	-4.582126	-0.203723	-0.146125
O11	O	-4.565076	-0.098252	-0.213394
O12	O	-4.305556	-0.094372	-0.077062
C13	C	-3.762853	-0.235334	-0.148300
C14	C	-3.800482	-0.320029	-0.148056
C15	C	-3.741253	-0.101719	-0.233517
C16	C	-3.765147	-0.101465	-0.287450
C17	C	-3.999276	-0.363716	-0.150369
C18	C	-4.034623	-0.443297	-0.150144
C19	C	-3.871170	-0.479187	-0.147601
C20	C	-3.672359	-0.435494	-0.145289
C21	C	-3.637018	-0.355916	-0.145519
C22	C	-3.814884	-0.756423	-0.144365
C23	C	-3.850242	-0.836006	-0.144135
C24	C	-4.212489	-0.843804	-0.148990
C25	C	-4.177148	-0.764226	-0.149220
C26	C	-3.978343	-0.720540	-0.146910
C27	C	-3.940020	-0.634250	-0.147156
C28	C	-3.909489	-0.565474	-0.147352
C29	C	-3.948051	-0.169805	-0.628967
C30	C	-4.037964	-0.168896	-0.831674
O31	O	-4.079007	-0.228160	-0.863894
N32	N	-4.014710	-0.098959	-0.849956
C33	C	-3.968986	-0.029245	-0.817558
O34	O	-3.951291	0.030261	-0.837759
C35	C	-3.879089	-0.030155	-0.614852
C36	C	-3.902326	-0.100096	-0.596573
C37	C	-3.971288	-0.239740	-0.610688
C38	C	-3.948800	-0.239966	-0.560014
C39	C	-3.903075	-0.170257	-0.527620
C40	C	-3.879838	-0.100322	-0.545899
C41	C	-3.833380	0.039558	-0.582455
C42	C	-3.810913	0.039325	-0.531776
C43	C	-3.834150	-0.030616	-0.513497
C44	C	-3.811625	-0.030839	-0.462831
N45	N	-3.834880	-0.100776	-0.444549
C46	C	-3.880605	-0.170485	-0.476943
C47	C	-4.016182	-0.028772	-0.923982
C48	C	-4.038653	-0.028544	-0.974658
C49	C	-4.107633	-0.168196	-0.988771
C50	C	-4.085147	-0.168422	-0.938094
C51	C	-4.039437	-0.098709	-0.905700
C52	C	-3.833374	-0.170955	-0.370524
C53	C	-3.810872	-0.171174	-0.319845
C54	C	-3.741905	-0.031524	-0.305736
C55	C	-3.764394	-0.031303	-0.356411
C56	C	-3.810137	-0.101025	-0.388804
O57	O	-3.770607	0.028393	-0.430584
O58	O	-3.898336	-0.229983	-0.456733
C59	C	-3.970539	-0.169578	-0.679641
C60	C	-3.947302	-0.099643	-0.697921
C61	C	-3.901577	-0.029934	-0.665527
C62	C	-3.969773	-0.099415	-0.748597
C63	C	-4.015498	-0.169124	-0.780991
C64	C	-4.038753	-0.239061	-0.762710
C65	C	-4.016264	-0.239287	-0.712036
C66	C	-3.878323	0.040003	-0.683808
C67	C	-3.900812	0.040223	-0.734483
C68	C	-3.946537	-0.029486	-0.766877
C69	C	-4.107433	0.035609	-0.146205
C70	C	-4.049041	0.120304	-0.146451
C71	C	-4.129034	-0.098003	-0.060986
C72	C	-4.084378	-0.098253	-0.007052
H73	H	-4.132381	-0.334500	-0.152435
O74	O	-3.761569	0.114522	-0.496839
H75	H	-3.749837	0.102621	-0.458528
H76	H	-4.374370	-0.879383	-0.150871
O77	O	-3.692584	0.043658	-0.270789
H78	H	-3.680183	0.092333	-0.292010
H79	H	-3.978960	0.028000	-0.897610
H80	H	-3.745482	0.025648	-0.371294
H81	H	-3.870618	-0.227729	-0.396893
H82	H	-3.653009	-0.720863	-0.142482
O83	O	-4.110228	-0.243861	-0.918383
H84	H	-3.966218	-0.244454	-0.893786
H85	H	-4.019701	0.028409	-0.989535
O86	O	-3.808197	0.114998	-0.602162
H87	H	-3.772606	0.163425	-0.571115
H88	H	-4.035190	-0.296241	-0.697158
O89	O	-4.088085	-0.314251	-0.797654
H90	H	-4.099830	-0.302335	-0.835961
O91	O	-3.875657	0.115666	-0.754195
H92	H	-3.840072	0.164097	-0.723151
O93	O	-3.673932	-0.874716	-0.141398
H94	H	-3.731912	-0.937390	-0.141622
O95	O	-3.828977	0.115193	-0.648871
H96	H	-3.816570	0.163856	-0.670102
H97	H	-4.310250	-0.735008	-0.151287
O98	O	-4.249039	-0.490412	-0.152632
H99	H	-4.347828	-0.485374	-0.187073
O100	O	-3.496061	-0.474203	-0.142554
H101	H	-3.484772	-0.501894	-0.109094
O102	O	-3.422602	-0.308789	-0.143022
H103	H	-3.314875	-0.347112	-0.141211
O104	O	-3.973870	-0.315404	-0.540303
H105	H	-4.130146	-0.351693	-0.555263
O106	O	-3.835926	-0.246615	-0.300131
H107	H	-3.962735	-0.252918	-0.279224
H108	H	-4.008527	-0.296509	-0.637059
H109	H	-4.144861	-0.224956	-1.015155
