data_functionalizedCrystal
_audit_creation_method	'MofGen! by Chris Wilmer'
_symmetry_space_group_name_H-M	'P1'
_symmetry_Int_Tables_number	1
_symmetry_cell_setting	triclinic
loop_
_symmetry_equiv_pos_as_xyz
  x,y,z
_cell_length_a	18.215407
_cell_length_b	18.101395
_cell_length_c	18.215399
_cell_angle_alpha	90.026427
_cell_angle_beta	90.019833
_cell_angle_gamma	90.031552
loop_
_atom_site_label
_atom_site_type_symbol
_atom_site_fract_x
_atom_site_fract_y
_atom_site_fract_z
Zn1	Zn	1.125040	-0.294828	0.416124
Zn2	Zn	1.458373	0.038505	0.749457
Zn3	Zn	1.791707	0.371838	1.082790
Zn4	Zn	1.124935	-0.418675	0.293061
Zn5	Zn	1.458269	-0.085341	0.626394
Zn6	Zn	1.791602	0.247992	0.959727
Zn7	Zn	1.001973	-0.294853	0.293071
Zn8	Zn	1.335306	0.038481	0.626404
Zn9	Zn	1.668639	0.371814	0.959738
Zn10	Zn	1.001925	-0.418634	0.416086
Zn11	Zn	1.335259	-0.085300	0.749419
Zn12	Zn	1.668592	0.248033	1.082752
O13	O	1.063468	-0.356747	0.354585
O14	O	1.396802	-0.023414	0.687919
O15	O	1.730135	0.309919	1.021252
O16	O	1.228010	-0.311264	0.399811
O17	O	1.561344	0.022069	0.733144
O18	O	1.894677	0.355403	1.066477
O19	O	1.108600	-0.402277	0.190078
O20	O	1.441933	-0.068944	0.523411
O21	O	1.775267	0.264390	0.856744
O22	O	1.018362	-0.191216	0.309415
O23	O	1.351695	0.142117	0.642748
O24	O	1.685028	0.475450	0.976081
O25	O	1.227933	-0.402253	0.309397
O26	O	1.561267	-0.068920	0.642730
O27	O	1.894600	0.264413	0.976063
O28	O	1.108779	-0.191199	0.399821
O29	O	1.442112	0.142135	0.733154
O30	O	1.775445	0.475468	1.066487
O31	O	1.018260	-0.311305	0.190085
O32	O	1.351593	0.022028	0.523419
O33	O	1.684927	0.355361	0.856752
O34	O	0.898982	-0.311265	0.309378
O35	O	1.232316	0.022068	0.642711
O36	O	1.565649	0.355401	0.976044
O37	O	1.018281	-0.402183	0.519075
O38	O	1.351614	-0.068850	0.852408
O39	O	1.684947	0.264484	1.185742
O40	O	0.898947	-0.402207	0.399756
O41	O	1.232281	-0.068873	0.733089
O42	O	1.565614	0.264460	1.066422
O43	O	1.108733	-0.311224	0.519103
O44	O	1.442066	0.022109	0.852436
O45	O	1.775399	0.355443	1.185770
O46	O	1.108554	-0.522302	0.309360
O47	O	1.441887	-0.188969	0.642693
O48	O	1.775221	0.144364	0.976026
O49	O	1.018179	-0.522272	0.399746
O50	O	1.351512	-0.188939	0.733079
O51	O	1.684846	0.144395	1.066412
C52	C	0.872262	-0.356735	0.354564
C53	C	1.205595	-0.023401	0.687897
C54	C	1.538929	0.309932	1.021231
C55	C	0.790463	-0.356747	0.354572
C56	C	1.123797	-0.023414	0.687906
C57	C	1.457130	0.309920	1.021239
C58	C	0.602270	-0.404175	0.401573
C59	C	0.935604	-0.070841	0.734907
C60	C	1.268937	0.262492	1.068240
C61	C	0.525412	-0.404177	0.401583
C62	C	0.858745	-0.070844	0.734916
C63	C	1.192078	0.262490	1.068249
C64	C	0.525418	-0.309333	0.307613
C65	C	0.858752	0.024000	0.640946
C66	C	1.192085	0.357333	0.974280
C67	C	0.602276	-0.309328	0.307608
C68	C	0.935609	0.024005	0.640941
C69	C	1.268942	0.357339	0.974275
C70	C	0.640700	-0.356753	0.354587
C71	C	0.974033	-0.023419	0.687921
C72	C	1.307366	0.309914	1.021254
C73	C	0.486984	-0.356761	0.354601
C74	C	0.820317	-0.023427	0.687935
C75	C	1.153650	0.309906	1.021268
C76	C	0.403650	-0.356763	0.354611
C77	C	0.736983	-0.023429	0.687944
C78	C	1.070317	0.309904	1.021278
C79	C	0.724039	-0.356750	0.354579
C80	C	1.057372	-0.023416	0.687912
C81	C	1.390705	0.309917	1.021245
C82	C	1.063370	-0.549158	0.354564
C83	C	1.396703	-0.215825	0.687897
C84	C	1.730037	0.117509	1.021230
C85	C	1.063395	-0.631472	0.354579
C86	C	1.396728	-0.298139	0.687912
C87	C	1.730062	0.035195	1.021246
C88	C	1.063557	-0.930563	0.354619
C89	C	1.396890	-0.597230	0.687952
C90	C	1.730223	-0.263896	1.021285
C91	C	1.006827	-0.899249	0.411628
C92	C	1.340160	-0.565916	0.744961
C93	C	1.673494	-0.232583	1.078295
C94	C	1.006557	-0.813632	0.411450
C95	C	1.339891	-0.480298	0.744783
C96	C	1.673224	-0.146965	1.078116
C97	C	1.063476	-0.782180	0.354600
C98	C	1.396810	-0.448847	0.687933
C99	C	1.730143	-0.115514	1.021266
C100	C	1.042479	-0.813331	0.277038
C101	C	1.375812	-0.479997	0.610372
C102	C	1.709145	-0.146664	0.943705
C103	C	1.042113	-0.898976	0.277380
C104	C	1.375446	-0.565643	0.610713
C105	C	1.708780	-0.232309	0.944046
C106	C	1.141408	-0.898906	0.374487
C107	C	1.474741	-0.565573	0.707821
C108	C	1.808075	-0.232240	1.041154
C109	C	1.140950	-0.813255	0.376188
C110	C	1.474284	-0.479922	0.709522
C111	C	1.807617	-0.146589	1.042855
C112	C	1.063432	-0.698321	0.354584
C113	C	1.396766	-0.364988	0.687917
C114	C	1.730099	-0.031654	1.021251
C115	C	1.063599	-1.014422	0.354629
C116	C	1.396932	-0.681089	0.687962
C117	C	1.730265	-0.347756	1.021296
C118	C	1.255421	-0.356761	0.354607
C119	C	1.588755	-0.023427	0.687940
C120	C	1.922088	0.309906	1.021273
C121	C	1.337220	-0.356766	0.354616
C122	C	1.670553	-0.023433	0.687949
C123	C	2.003887	0.309900	1.021283
C124	C	1.063513	-0.356696	0.546538
C125	C	1.396847	-0.023363	0.879872
C126	C	1.730180	0.309970	1.213205
C127	C	1.063532	-0.356675	0.628337
C128	C	1.396866	-0.023341	0.961670
C129	C	1.730199	0.309992	1.295004
C130	C	1.063587	-0.163585	0.354623
C131	C	1.396921	0.169748	0.687956
C132	C	1.730254	0.503081	1.021290
C133	C	1.063638	-0.081271	0.354639
C134	C	1.396971	0.252062	0.687972
C135	C	1.730305	0.585395	1.021306
C136	C	1.063466	-0.356745	0.163379
C137	C	1.396799	-0.023411	0.496712
C138	C	1.730133	0.309922	0.830046
C139	C	1.063590	-0.356558	0.081580
C140	C	1.396923	-0.023225	0.414914
C141	C	1.730256	0.310109	0.748247
C142	C	1.110648	-0.309268	0.816547
C143	C	1.443981	0.024066	1.149880
C144	C	1.777314	0.357399	1.483214
C145	C	1.110656	-0.309246	0.893406
C146	C	1.443990	0.024087	1.226739
C147	C	1.777323	0.357420	1.560072
C148	C	1.016469	-0.403967	0.893365
C149	C	1.349802	-0.070633	1.226699
C150	C	1.683136	0.262700	1.560032
C151	C	1.016457	-0.403984	0.816508
C152	C	1.349790	-0.070651	1.149841
C153	C	1.683124	0.262683	1.483175
C154	C	1.063551	-0.356636	0.778101
C155	C	1.396884	-0.023302	1.111434
C156	C	1.730217	0.310031	1.444767
C157	C	1.063571	-0.356597	0.931817
C158	C	1.396905	-0.023263	1.265150
C159	C	1.730238	0.310070	1.598484
C160	C	1.063580	-0.356574	1.015151
C161	C	1.396914	-0.023240	1.348484
C162	C	1.730247	0.310093	1.681817
C163	C	1.063541	-0.356657	0.694762
C164	C	1.396874	-0.023324	1.028095
C165	C	1.730207	0.310009	1.361428
H166	H	0.633553	-0.442789	0.439829
H167	H	0.966886	-0.109456	0.773162
H168	H	1.300220	0.223877	1.106495
H169	H	1.148992	-0.270712	0.785278
H170	H	1.482325	0.062622	1.118611
H171	H	1.815659	0.395955	1.451945
F172	F	1.023824	-0.926109	0.487044
F173	F	1.357158	-0.592776	0.820377
F174	F	1.690491	-0.259442	1.153711
H175	H	1.082498	-0.792959	0.233404
H176	H	1.415831	-0.459626	0.566737
H177	H	1.749164	-0.126293	0.900070
H178	H	0.494126	-0.442792	0.439845
H179	H	0.827459	-0.109458	0.773178
H180	H	1.160792	0.223875	1.106511
F181	F	0.643177	-0.258848	0.257600
F182	F	0.976511	0.074485	0.590934
F183	F	1.309844	0.407818	0.924267
F184	F	1.023727	-0.786098	0.486621
F185	F	1.357060	-0.452765	0.819954
F186	F	1.690394	-0.119431	1.153287
F187	F	0.966354	-0.454358	0.934247
F188	F	1.299688	-0.121025	1.267581
F189	F	1.633021	0.212309	1.600914
F190	F	0.484518	-0.258864	0.257617
F191	F	0.817852	0.074469	0.590950
F192	F	1.151185	0.407802	0.924283
H193	H	1.149006	-0.270673	0.924705
H194	H	1.482340	0.062660	1.258039
H195	H	1.815673	0.395993	1.591372
F196	F	0.931862	-0.927478	0.394655
F197	F	1.265195	-0.594144	0.727988
F198	F	1.598529	-0.260811	1.061322
H199	H	0.978100	-0.442556	0.785204
H200	H	1.311433	-0.109223	1.118537
H201	H	1.644766	0.224111	1.451871
F202	F	0.931131	-0.786934	0.394251
F203	F	1.264465	-0.453600	0.727584
F204	F	1.597798	-0.120267	1.060917
H205	H	0.985204	-0.919019	0.260549
H206	H	1.318537	-0.585686	0.593882
H207	H	1.651870	-0.252352	0.927215
F208	F	1.093771	-0.926056	0.219963
F209	F	1.427104	-0.592723	0.553296
F210	F	1.760437	-0.259389	0.886629
F211	F	1.161649	-0.786641	0.450797
F212	F	1.494983	-0.453308	0.784130
F213	F	1.828316	-0.119975	1.117464
F214	F	0.968881	-0.785384	0.254644
F215	F	1.302214	-0.452050	0.587978
F216	F	1.635547	-0.118717	0.921311
F217	F	1.166431	-0.927071	0.447152
F218	F	1.499765	-0.593738	0.780486
F219	F	1.833098	-0.260404	1.113819
H220	H	1.183674	-0.919155	0.332965
H221	H	1.517007	-0.585822	0.666299
H222	H	1.850340	-0.252489	0.999632
F223	F	1.199122	-0.785262	0.325876
F224	F	1.532455	-0.451929	0.659209
F225	F	1.865788	-0.118595	0.992542
