data_functionalizedCrystal
_audit_creation_method	'MofGen! by Chris Wilmer'
_symmetry_space_group_name_H-M	'P1'
_symmetry_Int_Tables_number	1
_symmetry_cell_setting	triclinic
loop_
_symmetry_equiv_pos_as_xyz
  x,y,z
_cell_length_a	19.288862
_cell_length_b	18.366186
_cell_length_c	19.288865
_cell_angle_alpha	89.993214
_cell_angle_beta	83.135763
_cell_angle_gamma	89.976980
loop_
_atom_site_label
_atom_site_type_symbol
_atom_site_fract_x
_atom_site_fract_y
_atom_site_fract_z
O1	O	-0.921352	0.060839	-0.086636
O2	O	-0.421352	0.560839	0.413364
O3	O	-0.719091	0.060780	-0.098327
O4	O	-0.219091	0.560780	0.401673
O5	O	-0.826066	0.060797	0.008649
O6	O	-0.326066	0.560797	0.508649
O7	O	-0.814377	0.060822	-0.193612
O8	O	-0.314377	0.560822	0.306388
O9	O	-0.826052	-0.060303	0.008645
O10	O	-0.326052	0.439697	0.508645
O11	O	-0.719077	-0.060320	-0.098331
O12	O	-0.219077	0.439680	0.401669
O13	O	-0.921338	-0.060261	-0.086640
O14	O	-0.421338	0.439739	0.413360
Zn15	Zn	-0.820205	-0.079517	-0.092486
Zn16	Zn	-0.320205	0.420483	0.407514
Zn17	Zn	-0.820223	0.080036	-0.092481
Zn18	Zn	-0.320223	0.580036	0.407519
O19	O	-0.814363	-0.060277	-0.193616
O20	O	-0.314363	0.439723	0.306384
C21	C	-0.693207	0.000222	-0.097953
C22	C	-0.193207	0.500222	0.402047
C23	C	-0.616104	0.000199	-0.096824
C24	C	-0.116104	0.500199	0.403176
C25	C	-0.571407	0.000216	-0.159593
C26	C	-0.071407	0.500216	0.340407
C27	C	-0.498960	0.000221	-0.158533
C28	C	0.001040	0.500221	0.341467
C29	C	-0.471213	0.000222	-0.094701
C30	C	0.028787	0.500222	0.405299
C31	C	-0.515919	0.000201	-0.031924
C32	C	-0.015919	0.500201	0.468076
C33	C	-0.588364	0.000189	-0.032986
C34	C	-0.088364	0.500189	0.467014
C35	C	-0.362955	0.042661	-0.044521
C36	C	0.137045	0.542661	0.455479
C37	C	-0.290511	0.042677	-0.043462
C38	C	0.209489	0.542677	0.456538
C39	C	-0.247767	0.000254	-0.091423
C40	C	0.252233	0.500254	0.408577
C41	C	-0.277475	-0.042175	-0.140455
C42	C	0.222525	0.457825	0.359545
C43	C	-0.349920	-0.042187	-0.141517
C44	C	0.150080	0.457813	0.358483
C45	C	-0.392659	0.000234	-0.093542
C46	C	0.107341	0.500234	0.406458
C47	C	-0.124514	0.000275	-0.153046
C48	C	0.375486	0.500275	0.346954
C49	C	-0.052066	0.000275	-0.151983
C50	C	0.447934	0.500275	0.348017
C51	C	-0.069027	0.000262	-0.025373
C52	C	0.430973	0.500262	0.474627
C53	C	-0.141473	0.000255	-0.026438
C54	C	0.358527	0.500255	0.473562
C55	C	-0.169212	0.000265	-0.090276
C56	C	0.330788	0.500265	0.409724
C57	C	0.052779	0.000286	-0.087016
C58	C	0.552779	0.500286	0.412984
C59	C	-0.024324	0.000275	-0.088151
C60	C	0.475676	0.500275	0.411849
N61	N	-0.820198	-0.188408	-0.092489
N62	N	-0.320198	0.311592	0.407511
C63	C	-0.862229	-0.772939	-0.134486
C64	C	-0.362229	-0.272939	0.365514
C65	C	-0.862222	-0.696712	-0.134493
C66	C	-0.362222	-0.196712	0.365507
C67	C	-0.820230	-0.658620	-0.092473
C68	C	-0.320230	-0.158620	0.407527
C69	C	-0.778229	-0.696762	-0.050457
C70	C	-0.278229	-0.196762	0.449543
C71	C	-0.778232	-0.772988	-0.050457
C72	C	-0.278232	-0.272988	0.449543
C73	C	-0.818503	-0.537863	-0.029849
C74	C	-0.318503	-0.037863	0.470151
C75	C	-0.818505	-0.461638	-0.029848
C76	C	-0.318505	0.038362	0.470152
C77	C	-0.820216	-0.423512	-0.092475
C78	C	-0.320216	0.076488	0.407525
C79	C	-0.821940	-0.461621	-0.155105
C80	C	-0.321940	0.038379	0.344895
C81	C	-0.821943	-0.537847	-0.155104
C82	C	-0.321943	-0.037847	0.344896
C83	C	-0.820222	-0.575965	-0.092469
C84	C	-0.320222	-0.075965	0.407531
C85	C	-0.862203	-0.302724	-0.134500
C86	C	-0.362203	0.197276	0.365500
C87	C	-0.862191	-0.226495	-0.134508
C88	C	-0.362191	0.273505	0.365492
C89	C	-0.778202	-0.226547	-0.050466
C90	C	-0.278202	0.273453	0.449534
C91	C	-0.778210	-0.302775	-0.050464
C92	C	-0.278210	0.197225	0.449536
C93	C	-0.820215	-0.340859	-0.092480
C94	C	-0.320215	0.159141	0.407520
N95	N	-0.820236	0.188928	-0.092473
N96	N	-0.320236	0.688928	0.407527
C97	C	-0.825683	0.000245	0.034523
C98	C	-0.325683	0.500245	0.534523
C99	C	-0.824554	0.000238	0.111627
C100	C	-0.324554	0.500238	0.611627
C101	C	-0.814746	0.000276	-0.219490
C102	C	-0.314746	0.500276	0.280510
C103	C	-0.815875	0.000288	-0.296594
C104	C	-0.315875	0.500288	0.203406
C105	C	-0.887322	0.000253	0.156324
C106	C	-0.387322	0.500253	0.656324
C107	C	-0.886261	0.000264	0.228771
C108	C	-0.386261	0.500264	0.728771
C109	C	-0.822429	0.000246	0.256518
C110	C	-0.322429	0.500246	0.756518
C111	C	-0.759652	0.000235	0.211811
C112	C	-0.259652	0.500235	0.711811
C113	C	-0.760715	0.000231	0.139366
C114	C	-0.260715	0.500231	0.639366
C115	C	-0.772244	-0.042188	0.364804
C116	C	-0.272244	0.457812	0.864804
C117	C	-0.771184	-0.042188	0.437248
C118	C	-0.271184	0.457812	0.937248
C119	C	-0.819149	0.000261	0.479963
C120	C	-0.319149	0.500261	0.979963
C121	C	-0.868185	0.042701	0.450227
C122	C	-0.368185	0.542701	0.950227
C123	C	-0.869248	0.042697	0.377782
C124	C	-0.369248	0.542697	0.877782
C125	C	-0.821269	0.000250	0.335072
C126	C	-0.321269	0.500250	0.835072
C127	C	-0.880771	0.000289	0.603216
C128	C	-0.380771	0.500289	1.103216
C129	C	-0.879708	0.000305	0.675664
C130	C	-0.379708	0.500305	1.175664
C131	C	-0.753098	0.000268	0.658703
C132	C	-0.253098	0.500268	1.158703
C133	C	-0.754163	0.000260	0.586257
C134	C	-0.254163	0.500260	1.086257
C135	C	-0.818001	0.000267	0.558518
C136	C	-0.318001	0.500267	1.058518
H137	H	-0.147101	0.000272	-0.205027
H138	H	0.352899	0.500272	0.294973
H139	H	-0.823334	-0.430580	-0.206102
H140	H	-0.323334	0.069420	0.293898
N141	N	-0.718301	-0.087970	0.469311
N142	N	-0.218301	0.412030	0.969311
H143	H	-0.669618	-0.072140	0.450156
H144	H	-0.169618	0.427860	0.950156
H145	H	-0.724966	-0.081517	0.521682
H146	H	-0.224966	0.418483	1.021682
H147	H	-0.896385	-0.195448	-0.168725
H148	H	-0.396385	0.304552	0.331275
N149	N	-0.732904	-0.185473	-0.005149
N150	N	-0.232904	0.314527	0.494851
H151	H	-0.739271	-0.131397	-0.011525
H152	H	-0.239271	0.368603	0.488475
H153	H	-0.746785	-0.198795	0.045405
H154	H	-0.246785	0.301205	0.545405
H155	H	-0.817103	-0.568899	0.021153
H156	H	-0.317103	-0.068899	0.521153
H157	H	-0.896431	-0.803943	-0.168700
H158	H	-0.396431	-0.303943	0.331300
H159	H	-0.744018	-0.333823	-0.016248
H160	H	-0.244018	0.166177	0.483752
H161	H	-0.823345	-0.568872	-0.206099
H162	H	-0.323345	-0.068872	0.293901
N163	N	-0.732946	-0.814123	-0.005133
N164	N	-0.232946	-0.314123	0.494867
H165	H	-0.706343	-0.778428	0.021488
H166	H	-0.206343	-0.278428	0.521488
H167	H	-0.763346	-0.845733	0.028901
H168	H	-0.263346	-0.345733	0.528901
N169	N	-0.686464	0.000229	0.538040
N170	N	-0.186464	0.500229	1.038040
H171	H	-0.684087	0.045118	0.507597
H172	H	-0.184087	0.545118	1.007597
H173	H	-0.645902	0.000190	0.566655
H174	H	-0.145902	0.500190	1.066655
N175	N	-0.907493	-0.343809	-0.179824
N176	N	-0.407493	0.156191	0.320176
H177	H	-0.941589	-0.375421	-0.149495
H178	H	-0.441589	0.124579	0.350505
H179	H	-0.934045	-0.308037	-0.206440
H180	H	-0.434045	0.191963	0.293560
H181	H	-0.817106	-0.430616	0.021149
H182	H	-0.317106	0.069384	0.521149
H183	H	-0.896416	-0.665658	-0.168709
H184	H	-0.396416	-0.165658	0.331291
H185	H	-0.397752	0.077211	-0.005464
H186	H	0.102248	0.577211	0.494536
N187	N	-0.003856	0.000299	-0.219688
N188	N	0.496144	0.500299	0.280312
H189	H	0.046248	0.000302	-0.209331
H190	H	0.546248	0.500302	0.290669
H191	H	-0.012794	-0.044588	-0.247524
H192	H	0.487206	0.455412	0.252476
N193	N	-0.732939	-0.655683	-0.005133
N194	N	-0.232939	-0.155683	0.494867
H195	H	-0.739312	-0.601607	-0.011505
H196	H	-0.239312	-0.101607	0.488495
H197	H	-0.746824	-0.669011	0.045419
H198	H	-0.246824	-0.169011	0.545419
H199	H	-0.733184	-0.076759	0.330030
H200	H	-0.233184	0.423241	0.830030
N201	N	-0.956173	0.000261	0.126405
N202	N	-0.456173	0.500261	0.626405
H203	H	-0.995776	0.000273	0.165718
H204	H	-0.495776	0.500273	0.665718
H205	H	-0.959380	0.045154	0.096711
H206	H	-0.459380	0.545154	0.596711
H207	H	-0.046435	0.000309	0.026600
H208	H	0.453565	0.500309	0.526600
N209	N	-0.690804	0.000219	0.241733
N210	N	-0.190804	0.500219	0.741733
H211	H	-0.699655	0.000222	0.294410
H212	H	-0.199655	0.500222	0.794410
H213	H	-0.663340	-0.044681	0.225372
H214	H	-0.163340	0.455319	0.725372
H215	H	-0.937376	0.000279	0.265170
H216	H	-0.437376	0.500279	0.765170
H217	H	-0.909173	0.077255	0.353573
H218	H	-0.409173	0.577255	0.853573
H219	H	-0.907243	0.077268	0.485005
H220	H	-0.407243	0.577268	0.985005
H221	H	-0.932752	0.000298	0.580630
H222	H	-0.432752	0.500298	1.080630
H223	H	-0.709600	0.000219	0.102973
H224	H	-0.209600	0.500219	0.602973
H225	H	-0.177866	0.000245	0.024675
H226	H	0.322134	0.500245	0.524675
N227	N	-0.947410	0.000316	0.723878
N228	N	-0.447410	0.500316	1.223878
H229	H	-0.949803	0.045211	0.754306
H230	H	-0.449803	0.545211	1.254306
H231	H	-0.987971	0.000289	0.695261
H232	H	-0.487971	0.500289	1.195261
N233	N	-0.485988	0.000205	0.036920
N234	N	0.014012	0.500205	0.536920
H235	H	-0.502327	0.045090	0.064413
H236	H	-0.002327	0.545090	0.564413
H237	H	-0.502283	-0.044723	0.064353
H238	H	-0.002283	0.455277	0.564353
H239	H	-0.593988	0.000226	-0.211575
H240	H	-0.093988	0.500226	0.288425
N241	N	-0.684248	0.000257	0.688619
N242	N	-0.184248	0.500257	1.188619
H243	H	-0.693098	0.000264	0.741296
H244	H	-0.193098	0.500264	1.241296
H245	H	-0.656783	-0.044644	0.672262
H246	H	-0.156783	0.455356	1.172262
H247	H	-0.462561	0.000233	-0.209648
H248	H	0.037439	0.500233	0.290352
H249	H	-0.374106	-0.076736	-0.181438
H250	H	0.125894	0.423264	0.318562
H251	H	-0.266328	0.077228	-0.003540
H252	H	0.233672	0.577228	0.496460
N253	N	-0.231390	-0.087939	-0.192192
N254	N	0.268610	0.412061	0.307808
H255	H	-0.197350	-0.055437	-0.221583
H256	H	0.302650	0.444563	0.278417
H257	H	-0.204780	-0.124218	-0.166197
H258	H	0.295220	0.375782	0.333803
N259	N	-0.636578	0.000167	0.034716
N260	N	-0.136578	0.500167	0.534716
H261	H	-0.608010	0.000165	0.075317
H262	H	-0.108010	0.500165	0.575317
H263	H	-0.667029	0.045056	0.037037
H264	H	-0.167029	0.545056	0.537037
