data_functionalizedCrystal
_audit_creation_method	'MofGen! by Chris Wilmer'
_symmetry_space_group_name_H-M	'P1'
_symmetry_Int_Tables_number	1
_symmetry_cell_setting	triclinic
loop_
_symmetry_equiv_pos_as_xyz
  x,y,z
_cell_length_a	10.686220
_cell_length_b	21.295417
_cell_length_c	10.685910
_cell_angle_alpha	94.385577
_cell_angle_beta	89.675252
_cell_angle_gamma	94.412682
loop_
_atom_site_label
_atom_site_type_symbol
_atom_site_fract_x
_atom_site_fract_y
_atom_site_fract_z
Zn1	Zn	1.972017	-0.153612	0.562365
Zn2	Zn	2.472017	0.346388	1.062365
Zn3	Zn	1.955792	-0.267500	0.352575
Zn4	Zn	2.455792	0.232500	0.852575
Zn5	Zn	1.746190	-0.169667	0.368674
Zn6	Zn	2.246190	0.330333	0.868674
Zn7	Zn	1.762149	-0.266280	0.578358
Zn8	Zn	2.262149	0.233720	1.078358
O9	O	1.859037	-0.214265	0.465493
O10	O	2.359037	0.285735	0.965493
O11	O	2.145414	-0.162510	0.521105
O12	O	2.645414	0.337490	1.021105
O13	O	1.914519	-0.261752	0.179159
O14	O	2.414519	0.238248	0.679159
O15	O	1.776257	-0.079442	0.394411
O16	O	2.276257	0.420558	0.894411
O17	O	2.133494	-0.246184	0.366973
O18	O	2.633494	0.253816	0.866973
O19	O	1.942171	-0.067646	0.536715
O20	O	2.442171	0.432354	1.036715
O21	O	1.760525	-0.189875	0.190987
O22	O	2.260525	0.310125	0.690987
O23	O	1.572757	-0.188692	0.409920
O24	O	2.072757	0.311308	0.909920
O25	O	1.803457	-0.244104	0.751788
O26	O	2.303457	0.255896	1.251788
O27	O	1.584482	-0.259673	0.563974
O28	O	2.084482	0.240327	1.063974
O29	O	1.957646	-0.161327	0.740038
O30	O	2.457646	0.338673	1.240038
O31	O	1.929994	-0.355433	0.382482
O32	O	2.429994	0.144567	0.882482
O33	O	1.787725	-0.354537	0.548364
O34	O	2.287725	0.145463	1.048364
C35	C	1.533102	-0.225793	0.490430
C36	C	2.033102	0.274207	0.990430
C37	C	1.393667	-0.230738	0.501128
C38	C	1.893667	0.269262	1.001128
C39	C	1.858867	-0.377825	0.465436
C40	C	2.358867	0.122175	0.965436
C41	C	1.858913	-0.447791	0.465445
C42	C	2.358913	0.052209	0.965445
C43	C	1.933070	-0.481098	0.379147
C44	C	2.433070	0.018902	0.879147
C45	C	1.933130	-0.546837	0.379171
C46	C	2.433130	-0.046837	0.879171
C47	C	1.859011	-0.579268	0.465481
C48	C	2.359011	-0.079268	0.965481
C49	C	1.784850	-0.545953	0.551795
C50	C	2.284850	-0.045953	1.051795
C51	C	1.784800	-0.480215	0.551777
C52	C	2.284800	0.019785	1.051777
N53	N	1.750001	-0.686027	0.483441
N54	N	2.250001	-0.186027	0.983441
N55	N	1.750051	-0.748476	0.483450
N56	N	2.250051	-0.248476	0.983450
C57	C	1.859157	-0.777335	0.465542
C58	C	2.359157	-0.277335	0.965542
N59	N	1.968212	-0.741387	0.447599
N60	N	2.468212	-0.241387	0.947599
N61	N	1.968161	-0.678932	0.447583
N62	N	2.468161	-0.178932	0.947583
C63	C	1.859057	-0.650551	0.465510
C64	C	2.359057	-0.150551	0.965510
C65	C	1.933387	-0.881924	0.379265
C66	C	2.433387	-0.381924	0.879265
C67	C	1.933450	-0.947664	0.379297
C68	C	2.433450	-0.447664	0.879297
C69	C	1.785158	-0.946780	0.551916
C70	C	2.285158	-0.446780	1.051916
C71	C	1.785106	-0.881040	0.551889
C72	C	2.285106	-0.381040	1.051889
C73	C	1.859218	-0.848616	0.465557
C74	C	2.359218	-0.348616	0.965557
C75	C	2.186245	-0.202692	0.440459
C76	C	2.686245	0.297308	0.940459
C77	C	2.325682	-0.197760	0.429791
C78	C	2.825682	0.302240	0.929791
C79	C	1.884142	-0.200789	0.792704
C80	C	2.384142	0.299211	1.292704
C81	C	1.894840	-0.195046	0.932142
C82	C	2.394840	0.304954	1.432142
C83	C	1.859244	-0.050063	0.465575
C84	C	2.359244	0.449937	0.965575
C85	C	1.859332	0.019910	0.465610
C86	C	2.359332	0.519910	0.965610
C87	C	1.834019	-0.227702	1.139555
C88	C	2.334019	0.272298	1.639555
C89	C	1.823318	-0.233444	1.000118
C90	C	2.323318	0.266556	1.500118
H91	H	1.374148	-0.165744	0.360531
H92	H	1.874148	0.334256	0.860531
Cl93	Cl	1.716140	-0.290989	0.925271
Cl94	Cl	2.216140	0.209011	1.425271
H95	H	1.993846	-0.974780	0.309025
H96	H	2.493846	-0.474780	0.809025
H97	H	1.345195	-0.262762	0.570385
H98	H	1.845195	0.237238	1.070385
H99	H	1.993419	-0.454700	0.308853
H100	H	2.493419	0.045300	0.808853
Cl101	Cl	2.026361	-0.588717	0.270671
Cl102	Cl	2.526361	-0.088717	0.770671
H103	H	1.964263	-0.157781	0.980619
H104	H	2.464263	0.342219	1.480619
H105	H	1.724504	-0.572363	0.622071
H106	H	2.224504	-0.072363	1.122071
H107	H	1.724412	-0.453096	0.622053
H108	H	2.224412	0.046904	1.122053
Cl109	Cl	1.691987	-0.987544	0.660430
Cl110	Cl	2.191987	-0.487544	1.160430
Cl111	Cl	2.026553	-0.841159	0.270735
Cl112	Cl	2.526553	-0.341159	0.770735
H113	H	1.724714	-0.853921	0.622156
H114	H	2.224714	-0.353921	1.122156
