data_functionalizedCrystal
_audit_creation_method	'MofGen! by Chris Wilmer'
_symmetry_space_group_name_H-M	'P1'
_symmetry_Int_Tables_number	1
_symmetry_cell_setting	triclinic
loop_
_symmetry_equiv_pos_as_xyz
  x,y,z
_cell_length_a	19.805407
_cell_length_b	19.805405
_cell_length_c	11.169409
_cell_angle_alpha	90.039857
_cell_angle_beta	90.028745
_cell_angle_gamma	90.025657
loop_
_atom_site_label
_atom_site_type_symbol
_atom_site_fract_x
_atom_site_fract_y
_atom_site_fract_z
Zn1	Zn	1.034766	-0.269422	0.678766
Zn2	Zn	1.034672	-0.382631	0.478056
Zn3	Zn	0.921572	-0.269460	0.478069
Zn4	Zn	0.921544	-0.382573	0.678670
O5	O	0.978139	-0.326021	0.578390
O6	O	1.129470	-0.284448	0.652176
O7	O	1.019641	-0.367659	0.310108
O8	O	0.936638	-0.174738	0.504737
O9	O	1.129401	-0.367622	0.504716
O10	O	1.019802	-0.174710	0.652188
O11	O	0.936547	-0.284513	0.310117
O12	O	0.826852	-0.284456	0.504644
O13	O	0.936591	-0.367523	0.846632
O14	O	0.826831	-0.367560	0.652025
O15	O	1.019775	-0.284391	0.846703
O16	O	1.019614	-0.477340	0.504623
O17	O	0.936500	-0.477297	0.652013
C18	C	0.802282	-0.326006	0.578326
C19	C	0.727050	-0.326016	0.578327
C20	C	0.265267	-0.369375	0.655088
C21	C	0.335955	-0.369374	0.655062
C22	C	0.371289	-0.326038	0.578437
C23	C	0.335930	-0.282705	0.501824
C24	C	0.265243	-0.282710	0.501844
C25	C	0.621004	-0.282684	0.501739
C26	C	0.691696	-0.282681	0.501727
C27	C	0.691716	-0.369348	0.654958
C28	C	0.621028	-0.369353	0.654978
C29	C	0.585676	-0.326023	0.578360
C30	C	0.509028	-0.326026	0.578387
C31	C	0.447936	-0.326031	0.578415
C32	C	0.978062	-0.501878	0.578332
C33	C	0.978092	-0.577109	0.578347
C34	C	1.021411	-0.612453	0.501682
C35	C	1.021440	-0.683142	0.501708
C36	C	0.978145	-0.718485	0.578395
C37	C	0.934824	-0.683136	0.655069
C38	C	0.934799	-0.612449	0.655048
C39	C	0.934923	-0.968209	0.655158
C40	C	0.934950	-1.038901	0.655171
C41	C	1.021565	-1.038902	0.501819
C42	C	1.021540	-0.968215	0.501797
C43	C	0.978221	-0.932872	0.578475
C44	C	0.978191	-0.856224	0.578447
C45	C	0.978171	-0.795132	0.578418
C46	C	1.154681	-0.326037	0.578455
C47	C	1.229913	-0.326044	0.578483
C48	C	0.978190	-0.325946	0.891433
C49	C	0.978213	-0.325914	1.024833
C50	C	0.978233	-0.149479	0.578475
C51	C	0.978274	-0.074247	0.578511
C52	C	0.978126	-0.326047	0.266565
C53	C	0.978235	-0.325889	0.133166
H54	H	0.592228	-0.247405	0.439348
H55	H	0.364705	-0.247423	0.439429
H56	H	0.899575	-0.711918	0.717514
H57	H	0.364737	-0.404660	0.717439
O58	O	0.888074	-0.574328	0.737740
H59	H	0.895335	-0.519238	0.724853
O60	O	0.582916	-0.416171	0.737484
H61	H	0.619376	-0.446335	0.790692
O62	O	1.068160	-0.721261	0.419007
H63	H	1.102600	-0.753407	0.472789
H64	H	1.056664	-0.583682	0.439229
O65	O	0.227106	-0.235972	0.419227
H66	H	0.263550	-0.205831	0.365950
H67	H	0.236503	-0.404660	0.717491
H68	H	1.056792	-0.939441	0.439348
O69	O	1.068292	-1.077026	0.419121
H70	H	1.098386	-1.040573	0.365783
O71	O	0.888257	-1.077026	0.737896
H72	H	0.858135	-1.040575	0.791222
H73	H	0.720462	-0.247389	0.439328
O74	O	0.729844	-0.416079	0.737611
H75	H	0.784934	-0.408800	0.724727
O76	O	0.888183	-0.930093	0.737819
H77	H	0.858071	-0.966547	0.791124
