data_functionalizedCrystal
_audit_creation_method	'MofGen! by Chris Wilmer'
_symmetry_space_group_name_H-M	'P1'
_symmetry_Int_Tables_number	1
_symmetry_cell_setting	triclinic
loop_
_symmetry_equiv_pos_as_xyz
  x,y,z
_cell_length_a	13.897449
_cell_length_b	13.897448
_cell_length_c	19.076919
_cell_angle_alpha	92.272955
_cell_angle_beta	92.279427
_cell_angle_gamma	90.018519
loop_
_atom_site_label
_atom_site_type_symbol
_atom_site_fract_x
_atom_site_fract_y
_atom_site_fract_z
Zn1	Zn	1.452744	-0.405928	-0.397986
Zn2	Zn	1.952744	0.094072	0.102014
Zn3	Zn	1.459132	-0.560754	-0.280295
Zn4	Zn	1.959132	-0.060754	0.219705
Zn5	Zn	1.297927	-0.399478	-0.280302
Zn6	Zn	1.797927	0.100522	0.219698
Zn7	Zn	1.291417	-0.567183	-0.397947
Zn8	Zn	1.791417	-0.067183	0.102053
O9	O	1.375305	-0.483336	-0.339132
O10	O	1.875305	0.016664	0.160868
O11	O	1.588573	-0.426475	-0.382387
O12	O	2.088573	0.073525	0.117613
O13	O	1.443145	-0.533971	-0.181807
O14	O	1.943145	-0.033971	0.318193
O15	O	1.318514	-0.265353	-0.295932
O16	O	1.818514	0.234647	0.204068
O17	O	1.593265	-0.540225	-0.295920
O18	O	2.093265	-0.040225	0.204080
O19	O	1.432258	-0.270092	-0.382394
O20	O	1.932258	0.229908	0.117606
O21	O	1.324708	-0.415481	-0.181812
O22	O	1.824708	0.084519	0.318188
O23	O	1.162082	-0.421715	-0.295894
O24	O	1.662082	0.078285	0.204106
O25	O	1.307420	-0.551182	-0.496441
O26	O	1.807420	-0.051182	0.003559
O27	O	1.157300	-0.544927	-0.382327
O28	O	1.657300	-0.044927	0.117673
O29	O	1.425947	-0.432709	-0.496470
O30	O	1.925947	0.067291	0.003530
O31	O	1.436833	-0.696588	-0.295882
O32	O	1.936833	-0.196588	0.204118
O33	O	1.313614	-0.701311	-0.382321
O34	O	1.813614	-0.201311	0.117679
C35	C	1.124692	-0.483320	-0.339108
C36	C	1.624692	0.016680	0.160892
C37	C	1.017478	-0.483337	-0.339114
C38	C	1.517478	0.016663	0.160886
C39	C	0.930407	-0.483341	-0.339126
C40	C	1.430407	0.016659	0.160874
C41	C	0.821174	-0.483349	-0.339147
C42	C	1.321174	0.016651	0.160853
C43	C	1.375236	-0.733949	-0.339112
C44	C	1.875236	-0.233949	0.160888
C45	C	1.375293	-0.841164	-0.339127
C46	C	1.875293	-0.341164	0.160873
C47	C	1.375392	-1.037461	-0.339171
C48	C	1.875392	-0.537461	0.160829
C49	C	1.375334	-0.928227	-0.339148
C50	C	1.875334	-0.428227	0.160852
C51	C	1.626897	-0.483353	-0.339157
C52	C	2.126897	0.016647	0.160843
C53	C	1.734110	-0.483360	-0.339168
C54	C	2.234110	0.016640	0.160832
C55	C	1.365245	-0.493382	-0.522706
C56	C	1.865245	0.006618	-0.022706
C57	C	1.360958	-0.497663	-0.600935
C58	C	1.860958	0.002337	-0.100935
C59	C	1.375400	-0.231745	-0.339168
C60	C	1.875400	0.268255	0.160832
C61	C	1.375440	-0.124532	-0.339183
C62	C	1.875440	0.375468	0.160817
C63	C	1.420651	-0.437995	-0.637703
C64	C	1.920651	0.062005	-0.137703
C65	C	1.416611	-0.442014	-0.711207
C66	C	1.916611	0.057986	-0.211207
C67	C	1.352883	-0.505707	-0.747941
C68	C	1.852883	-0.005707	-0.247941
C69	C	1.293183	-0.565378	-0.711168
C70	C	1.793183	-0.065378	-0.211168
C71	C	1.297219	-0.561353	-0.637666
C72	C	1.797219	-0.061353	-0.137666
C73	C	1.334191	-0.524352	-0.967769
C74	C	1.834191	-0.024352	-0.467769
C75	C	1.330162	-0.528375	-1.041276
C76	C	1.830162	-0.028375	-0.541276
C77	C	1.453590	-0.405009	-1.041310
C78	C	1.953590	0.094991	-0.541310
C79	C	1.457624	-0.400994	-0.967806
C80	C	1.957624	0.099006	-0.467806
C81	C	1.397921	-0.460661	-0.931039
C82	C	1.897921	0.039339	-0.431039
N83	N	1.348754	-0.509818	-0.823074
N84	N	1.848754	-0.009818	-0.323074
N85	N	1.402045	-0.456544	-0.855908
N86	N	1.902045	0.043456	-0.355908
C87	C	1.385381	-0.473259	-0.156272
C88	C	1.885381	0.026741	0.343728
C89	C	1.389855	-0.468706	-0.078044
C90	C	1.889855	0.031294	0.421956
H91	H	1.472549	-0.386132	-0.607799
H92	H	1.972549	0.113868	-0.107799
H93	H	1.465222	-0.393427	-0.741140
H94	H	1.965222	0.106573	-0.241140
H95	H	1.285591	-0.572952	-0.937842
H96	H	1.785591	-0.072952	-0.437842
C97	C	1.519247	-0.339367	-1.081759
C98	C	2.019247	0.160633	-0.581759
N99	N	1.568697	-0.289918	-1.112226
N100	N	2.068697	0.210082	-0.612226
H101	H	1.278264	-0.580243	-1.071184
H102	H	1.778264	-0.080243	-0.571184
H103	H	1.509521	-0.349131	-0.937901
H104	H	2.009521	0.150869	-0.437901
H105	H	1.241290	-0.617234	-0.741083
H106	H	1.741290	-0.117234	-0.241083
C107	C	1.231553	-0.626995	-0.597221
C108	C	1.731553	-0.126995	-0.097221
N109	N	1.182090	-0.676437	-0.566760
N110	N	1.682090	-0.176437	-0.066760
