data_functionalizedCrystal
_audit_creation_method	'MofGen! by Chris Wilmer'
_symmetry_space_group_name_H-M	'P1'
_symmetry_Int_Tables_number	1
_symmetry_cell_setting	triclinic
loop_
_symmetry_equiv_pos_as_xyz
  x,y,z
_cell_length_a	27.732064
_cell_length_b	27.732048
_cell_length_c	22.610064
_cell_angle_alpha	89.999096
_cell_angle_beta	89.999473
_cell_angle_gamma	82.646040
loop_
_atom_site_label
_atom_site_type_symbol
_atom_site_fract_x
_atom_site_fract_y
_atom_site_fract_z
O1	O	0.640925	0.057549	-0.049085
O2	O	0.974259	0.390882	0.284248
O3	O	1.307592	0.724215	0.617581
O4	O	0.500133	0.066286	-0.049111
O5	O	0.833466	0.399619	0.284223
O6	O	1.166800	0.732952	0.617556
O7	O	0.574902	-0.008479	-0.049086
O8	O	0.908235	0.324854	0.284247
O9	O	1.241568	0.658187	0.617581
O10	O	0.566156	0.132314	-0.049110
O11	O	0.899490	0.465647	0.284223
O12	O	1.232823	0.798980	0.617557
O13	O	0.574889	-0.008468	0.049283
O14	O	0.908222	0.324865	0.382617
O15	O	1.241555	0.658198	0.715950
O16	O	0.500120	0.066297	0.049259
O17	O	0.833453	0.399630	0.382592
O18	O	1.166786	0.732963	0.715925
O19	O	0.640912	0.057560	0.049284
O20	O	0.974245	0.390893	0.382617
O21	O	1.307579	0.724226	0.715951
Zn22	Zn	0.570514	0.061930	0.064889
Zn23	Zn	0.903847	0.395263	0.398223
Zn24	Zn	1.237180	0.728596	0.731556
Zn25	Zn	0.570531	0.061915	-0.064716
Zn26	Zn	0.903865	0.395249	0.268617
Zn27	Zn	1.237198	0.728582	0.601950
O28	O	0.566143	0.132325	0.049259
O29	O	0.899477	0.465658	0.382593
O30	O	1.232810	0.798991	0.715926
C31	C	0.482120	0.066106	0.000071
C32	C	0.815453	0.399440	0.333404
C33	C	1.148786	0.732773	0.666738
C34	C	0.428465	0.065551	0.000062
C35	C	0.761798	0.398884	0.333395
C36	C	1.095132	0.732217	0.666729
C37	C	0.051392	0.017583	0.000104
C38	C	0.384726	0.350917	0.333437
C39	C	0.718059	0.684250	0.666770
C40	C	0.253053	0.019630	0.000088
C41	C	0.586386	0.352963	0.333421
C42	C	0.919719	0.686296	0.666755
O43	O	0.284305	-0.017591	0.000116
O44	O	0.617639	0.315742	0.333450
O45	O	0.950972	0.649075	0.666783
N46	N	0.272180	0.063964	0.000078
N47	N	0.605513	0.397297	0.333411
N48	N	0.938847	0.730631	0.666744
C49	C	0.240889	0.107790	0.000075
C50	C	0.574222	0.441123	0.333409
C51	C	0.907556	0.774456	0.666742
O52	O	0.261785	0.145546	0.000072
O53	O	0.595119	0.478879	0.333406
O54	O	0.928452	0.812212	0.666739
C55	C	0.039230	0.105743	0.000095
C56	C	0.372563	0.439076	0.333429
C57	C	0.705896	0.772410	0.666762
C58	C	0.020105	0.061406	0.000100
C59	C	0.353439	0.394739	0.333433
C60	C	0.686772	0.728072	0.666766
C61	C	0.032267	-0.026750	0.000109
C62	C	0.365601	0.306583	0.333442
C63	C	0.698934	0.639916	0.666775
C64	C	-0.018145	-0.027261	0.000109
C65	C	0.315189	0.306072	0.333443
C66	C	0.648522	0.639405	0.666776
C67	C	-0.049432	0.016561	0.000105
C68	C	0.283901	0.349895	0.333438
C69	C	0.617235	0.683228	0.666772
C70	C	-0.030307	0.060895	0.000100
C71	C	0.303027	0.394228	0.333434
C72	C	0.636360	0.727561	0.666767
C73	C	0.007940	0.149568	0.000097
C74	C	0.341273	0.482902	0.333431
C75	C	0.674606	0.816235	0.666764
C76	C	-0.042478	0.149053	0.000104
C77	C	0.290855	0.482386	0.333437
C78	C	0.624189	0.815719	0.666770
C79	C	-0.061602	0.104716	0.000108
C80	C	0.271731	0.438049	0.333441
C81	C	0.605064	0.771382	0.666775
C82	C	-0.112006	0.104206	0.000097
C83	C	0.221327	0.437539	0.333430
C84	C	0.554661	0.770873	0.666763
N85	N	-0.131134	0.059872	0.000107
N86	N	0.202200	0.393205	0.333440
N87	N	0.535533	0.726539	0.666774
C88	C	-0.099846	0.016049	0.000111
C89	C	0.233487	0.349383	0.333445
C90	C	0.566820	0.682716	0.666778
C91	C	0.346763	0.108861	0.000064
C92	C	0.680097	0.442195	0.333397
C93	C	1.013430	0.775528	0.666730
C94	C	0.397178	0.109373	0.000058
C95	C	0.730511	0.442706	0.333391
C96	C	1.063845	0.776040	0.666724
C97	C	0.409338	0.021213	0.000071
C98	C	0.742672	0.354546	0.333405
C99	C	1.076005	0.687879	0.666738
C100	C	0.358923	0.020701	0.000073
C101	C	0.692256	0.354035	0.333407
C102	C	1.025589	0.687368	0.666740
C103	C	0.327636	0.064527	0.000074
C104	C	0.660969	0.397860	0.333407
C105	C	0.994303	0.731194	0.666741
C106	C	-0.205716	0.014979	0.000112
C107	C	0.127617	0.348313	0.333446
C108	C	0.460951	0.681646	0.666779
C109	C	-0.256133	0.014472	0.000110
C110	C	0.077200	0.347806	0.333444
C111	C	0.410534	0.681139	0.666777
C112	C	-0.268289	0.102632	0.000100
C113	C	0.065045	0.435966	0.333433
C114	C	0.398378	0.769299	0.666766
C115	C	-0.217876	0.103140	0.000098
C116	C	0.115457	0.436473	0.333432
C117	C	0.448791	0.769806	0.666765
C118	C	-0.186590	0.059309	0.000107
C119	C	0.146743	0.392643	0.333440
C120	C	0.480076	0.725976	0.666773
O121	O	-0.143287	0.141407	0.000075
O122	O	0.190046	0.474741	0.333408
O123	O	0.523380	0.808074	0.666742
O124	O	-0.120752	-0.021701	0.000127
O125	O	0.212581	0.311632	0.333461
O126	O	0.545914	0.644966	0.666794
C127	C	0.101804	0.018094	0.000103
C128	C	0.435138	0.351428	0.333436
C129	C	0.768471	0.684761	0.666770
C130	C	0.120930	0.062428	0.000098
C131	C	0.454263	0.395761	0.333431
C132	C	0.787596	0.729095	0.666765
C133	C	0.089642	0.106250	0.000094
C134	C	0.422976	0.439584	0.333427
C135	C	0.756309	0.772917	0.666761
C136	C	0.171344	0.062940	0.000092
C137	C	0.504677	0.396273	0.333425
C138	C	0.838011	0.729606	0.666759
C139	C	0.202631	0.019117	0.000096
C140	C	0.535965	0.352451	0.333430
C141	C	0.869298	0.685784	0.666763
C142	C	0.183504	-0.025217	0.000106
C143	C	0.516837	0.308116	0.333440
C144	C	0.850170	0.641450	0.666773
C145	C	0.133092	-0.025728	0.000107
C146	C	0.466425	0.307605	0.333441
C147	C	0.799758	0.640939	0.666774
C148	C	0.108770	0.150585	0.000084
C149	C	0.442103	0.483918	0.333417
C150	C	0.775437	0.817251	0.666750
C151	C	0.159183	0.151092	0.000082
C152	C	0.492516	0.484426	0.333416
C153	C	0.825849	0.817759	0.666749
C154	C	0.190470	0.107270	0.000087
C155	C	0.523803	0.440603	0.333420
C156	C	0.857136	0.773936	0.666753
C157	C	0.574712	-0.026481	0.000100
C158	C	0.908045	0.306853	0.333434
C159	C	1.241378	0.640186	0.666767
C160	C	0.574159	-0.080136	0.000105
C161	C	0.907492	0.253198	0.333438
C162	C	1.240826	0.586531	0.666772
C163	C	0.614862	-0.418948	0.000082
C164	C	0.948196	-0.085615	0.333415
C165	C	1.281529	0.247718	0.666749
C166	C	0.612811	-0.620608	0.000073
C167	C	0.946145	-0.287275	0.333407
C168	C	1.279478	0.046059	0.666740
O169	O	0.650032	-0.651862	0.000054
O170	O	0.983365	-0.318528	0.333387
O171	O	1.316698	0.014805	0.666721
N172	N	0.568476	-0.639735	0.000066
N173	N	0.901810	-0.306401	0.333399
N174	N	1.235143	0.026932	0.666733
C175	C	0.524651	-0.608442	0.000057
C176	C	0.857985	-0.275109	0.333390
C177	C	1.191318	0.058224	0.666724
O178	O	0.486895	-0.629338	0.000044
O179	O	0.820228	-0.296004	0.333378
O180	O	1.153561	0.037329	0.666711
C181	C	0.526703	-0.406784	0.000061
C182	C	0.860036	-0.073450	0.333395
C183	C	1.193369	0.259883	0.666728
C184	C	0.571040	-0.387660	0.000075
C185	C	0.904374	-0.054327	0.333408
C186	C	1.237707	0.279006	0.666741
C187	C	0.659196	-0.399824	0.000095
C188	C	0.992530	-0.066491	0.333428
C189	C	1.325863	0.266842	0.666761
C190	C	0.659709	-0.349412	0.000100
C191	C	0.993042	-0.016079	0.333433
C192	C	1.326375	0.317254	0.666767
C193	C	0.615887	-0.318124	0.000093
C194	C	0.949220	0.015209	0.333426
C195	C	1.282554	0.348542	0.666759
C196	C	0.571553	-0.337248	0.000080
C197	C	0.904886	-0.003915	0.333413
C198	C	1.238219	0.329418	0.666747
C199	C	0.482878	-0.375493	0.000048
C200	C	0.816211	-0.042159	0.333381
C201	C	1.149545	0.291174	0.666715
C202	C	0.483395	-0.325075	0.000047
C203	C	0.816728	0.008258	0.333381
C204	C	1.150062	0.341591	0.666714
C205	C	0.527733	-0.305952	0.000061
C206	C	0.861066	0.027381	0.333394
C207	C	1.194399	0.360715	0.666728
C208	C	0.528243	-0.255548	0.000078
C209	C	0.861576	0.077785	0.333411
C210	C	1.194910	0.411118	0.666745
N211	N	0.572578	-0.236422	0.000085
N212	N	0.905911	0.096911	0.333419
N213	N	1.239245	0.430245	0.666752
C214	C	0.616400	-0.267710	0.000093
C215	C	0.949733	0.065623	0.333426
C216	C	1.283067	0.398957	0.666759
C217	C	0.523577	-0.714317	0.000056
C218	C	0.856911	-0.380983	0.333389
C219	C	1.190244	-0.047650	0.666722
C220	C	0.523064	-0.764731	0.000056
C221	C	0.856398	-0.431398	0.333389
C222	C	1.189731	-0.098064	0.666722
C223	C	0.611225	-0.776893	0.000071
C224	C	0.944558	-0.443560	0.333404
C225	C	1.277891	-0.110227	0.666738
C226	C	0.611737	-0.726478	0.000075
C227	C	0.945070	-0.393145	0.333409
C228	C	1.278404	-0.059811	0.666742
C229	C	0.567912	-0.695190	0.000063
C230	C	0.901245	-0.361857	0.333396
C231	C	1.234579	-0.028524	0.666730
C232	C	0.617472	-0.161841	0.000105
C233	C	0.950806	0.171493	0.333438
C234	C	1.284139	0.504826	0.666771
C235	C	0.617981	-0.111424	0.000112
C236	C	0.951314	0.221910	0.333446
C237	C	1.284647	0.555243	0.666779
C238	C	0.529821	-0.099266	0.000094
C239	C	0.863154	0.234067	0.333427
C240	C	1.196487	0.567401	0.666761
C241	C	0.529312	-0.149679	0.000089
C242	C	0.862645	0.183655	0.333423
C243	C	1.195979	0.516988	0.666756
C244	C	0.573142	-0.180965	0.000093
C245	C	0.906475	0.152368	0.333426
C246	C	1.239808	0.485701	0.666759
O247	O	0.491043	-0.224267	0.000091
O248	O	0.824376	0.109067	0.333424
O249	O	1.157709	0.442400	0.666757
O250	O	0.654151	-0.246805	0.000092
O251	O	0.987484	0.086528	0.333426
O252	O	1.320818	0.419862	0.666759
C253	C	0.614350	-0.469360	0.000077
C254	C	0.947683	-0.136027	0.333410
C255	C	1.281017	0.197306	0.666743
C256	C	0.570016	-0.488484	0.000064
C257	C	0.903349	-0.155151	0.333397
C258	C	1.236683	0.178182	0.666731
C259	C	0.526194	-0.457196	0.000057
C260	C	0.859527	-0.123863	0.333390
C261	C	1.192861	0.209470	0.666723
C262	C	0.569503	-0.538899	0.000064
C263	C	0.902836	-0.205565	0.333397
C264	C	1.236170	0.127768	0.666731
C265	C	0.613325	-0.570187	0.000071
C266	C	0.946658	-0.236853	0.333405
C267	C	1.279991	0.096480	0.666738
C268	C	0.657660	-0.551060	0.000079
C269	C	0.990993	-0.217727	0.333412
C270	C	1.324326	0.115606	0.666745
C271	C	0.658172	-0.500648	0.000084
C272	C	0.991505	-0.167315	0.333417
C273	C	1.324839	0.166018	0.666751
C274	C	0.481859	-0.476323	0.000049
C275	C	0.815193	-0.142989	0.333382
C276	C	1.148526	0.190344	0.666716
C277	C	0.481351	-0.526735	0.000044
C278	C	0.814684	-0.193402	0.333378
C279	C	1.148017	0.139932	0.666711
C280	C	0.525172	-0.558023	0.000052
C281	C	0.858506	-0.224690	0.333385
C282	C	1.191839	0.108643	0.666718
C283	C	0.658925	0.057739	0.000101
C284	C	0.992259	0.391072	0.333434
C285	C	1.325592	0.724405	0.666768
C286	C	0.712580	0.058295	0.000106
C287	C	1.045913	0.391628	0.333440
C288	C	1.379247	0.724961	0.666773
C289	C	0.566333	0.150326	0.000072
C290	C	0.899667	0.483659	0.333405
C291	C	1.233000	0.816993	0.666738
C292	C	0.566886	0.203981	0.000063
C293	C	0.900219	0.537314	0.333396
C294	C	1.233553	0.870648	0.666730
N295	N	0.570505	0.061939	0.153342
N296	N	0.903839	0.395273	0.486675
N297	N	1.237172	0.728606	0.820009
N298	N	0.570543	0.061902	-0.153169
N299	N	0.903877	0.395235	0.180165
N300	N	1.237210	0.728569	0.513498
C301	C	0.603640	0.028814	0.561994
C302	C	0.936974	0.362148	0.895328
C303	C	1.270307	0.695481	1.228661
C304	C	0.603643	0.028811	0.623914
C305	C	0.936976	0.362144	0.957247
C306	C	1.270309	0.695478	1.290581
O307	O	0.631795	0.000654	0.655942
O308	O	0.965128	0.333988	0.989276
O309	O	1.298461	0.667321	1.322609
N310	N	0.570531	0.061905	0.654879
N311	N	0.903864	0.395239	0.988212
N312	N	1.237198	0.728572	1.321546
C313	C	0.537411	0.095002	0.623921
C314	C	0.870744	0.428336	0.957254
C315	C	1.204078	0.761669	1.290588
O316	O	0.509247	0.123151	0.655945
O317	O	0.842580	0.456484	0.989278
O318	O	1.175913	0.789818	1.322611
C319	C	0.537407	0.095003	0.562002
C320	C	0.870740	0.428336	0.895335
C321	C	1.204073	0.761670	1.228669
C322	C	0.570524	0.061910	0.531040
C323	C	0.903857	0.395243	0.864374
C324	C	1.237191	0.728576	1.197707
C325	C	0.636755	-0.004277	0.531032
C326	C	0.970088	0.329057	0.864366
C327	C	1.303421	0.662390	1.197699
C328	C	0.636753	-0.004272	0.469117
C329	C	0.970086	0.329061	0.802450
C330	C	1.303419	0.662394	1.135783
C331	C	0.603636	0.028823	0.438163
C332	C	0.936970	0.362156	0.771496
C333	C	1.270303	0.695490	1.104830
C334	C	0.570522	0.061914	0.469125
C335	C	0.903855	0.395247	0.802458
C336	C	1.237189	0.728581	1.135791
C337	C	0.504285	0.128097	0.531045
C338	C	0.837618	0.461431	0.864378
C339	C	1.170952	0.794764	1.197712
C340	C	0.504283	0.128095	0.469122
C341	C	0.837616	0.461428	0.802455
C342	C	1.170950	0.794762	1.135789
C343	C	0.537400	0.095002	0.438160
C344	C	0.870734	0.428335	0.771494
C345	C	1.204067	0.761668	1.104827
C346	C	0.537404	0.095013	0.376255
C347	C	0.870737	0.428347	0.709589
C348	C	1.204070	0.761680	1.042922
N349	N	0.570516	0.061919	0.345290
N350	N	0.903849	0.395252	0.678624
N351	N	1.237182	0.728586	1.011957
C352	C	0.603632	0.028824	0.376244
C353	C	0.936965	0.362157	0.709578
C354	C	1.270299	0.695490	1.042911
C355	C	0.537422	0.094997	0.753954
C356	C	0.870756	0.428331	1.087288
C357	C	1.204089	0.761664	1.420621
C358	C	0.537429	0.094999	0.815872
C359	C	0.870762	0.428333	1.149205
C360	C	1.204095	0.761666	1.482539
C361	C	0.603660	0.028807	0.815861
C362	C	0.936993	0.362141	1.149194
C363	C	1.270326	0.695474	1.482528
C364	C	0.603655	0.028808	0.753942
C365	C	0.936989	0.362141	1.087276
C366	C	1.270322	0.695475	1.420609
C367	C	0.570534	0.061903	0.722990
C368	C	0.903868	0.395236	1.056323
C369	C	1.237201	0.728570	1.389656
C370	C	0.603625	0.028836	0.246217
C371	C	0.936959	0.362169	0.579550
C372	C	1.270292	0.695502	0.912884
C373	C	0.603622	0.028844	0.184296
C374	C	0.936955	0.362177	0.517629
C375	C	1.270288	0.695511	0.850962
C376	C	0.537389	0.095034	0.184312
C377	C	0.870722	0.428367	0.517645
C378	C	1.204056	0.761701	0.850979
C379	C	0.537394	0.095027	0.246228
C380	C	0.870727	0.428361	0.579561
C381	C	1.204061	0.761694	0.912895
C382	C	0.570514	0.061924	0.277179
C383	C	0.903848	0.395257	0.610512
C384	C	1.237181	0.728591	0.943845
O385	O	0.509265	0.123154	0.344188
O386	O	0.842598	0.456488	0.677521
O387	O	1.175932	0.789821	1.010855
O388	O	0.631787	0.000676	0.344213
O389	O	0.965121	0.334009	0.677546
O390	O	1.298454	0.667342	1.010880
H391	H	0.083300	0.186271	0.000081
H392	H	0.416634	0.519605	0.333414
H393	H	0.749967	0.852938	0.666748
Br394	Br	0.648574	-0.016091	0.288211
Br395	Br	0.981908	0.317242	0.621545
Br396	Br	1.315241	0.650576	0.954878
Br397	Br	0.681703	-0.049198	0.573031
Br398	Br	1.015037	0.284135	0.906364
Br399	Br	1.348370	0.617469	1.239697
Br400	Br	-0.084936	0.208534	0.000109
Br401	Br	0.248397	0.541867	0.333442
Br402	Br	0.581731	0.875200	0.666776
Br403	Br	0.719884	-0.323468	0.000102
Br404	Br	1.053218	0.009866	0.333435
Br405	Br	1.386551	0.343199	0.666768
H406	H	0.694883	-0.425295	0.000099
H407	H	1.028217	-0.091962	0.333432
H408	H	1.361550	0.241372	0.666765
Br409	Br	-0.191920	0.163312	0.000083
Br410	Br	0.141413	0.496645	0.333416
Br411	Br	0.474746	0.829979	0.666750
H412	H	0.117526	-0.061832	0.000111
H413	H	0.450859	0.271501	0.333444
H414	H	0.784192	0.604835	0.666777
Br415	Br	0.678157	-0.085474	0.000131
Br416	Br	1.011491	0.247859	0.333465
Br417	Br	1.344824	0.581193	0.666798
H418	H	0.208987	-0.060899	0.000106
H419	H	0.542320	0.272435	0.333440
H420	H	0.875653	0.605768	0.666773
Br421	Br	0.459328	0.173010	0.427119
Br422	Br	0.792661	0.506344	0.760452
Br423	Br	1.125995	0.839677	1.093786
Br424	Br	0.470351	-0.056794	0.000084
Br425	Br	0.803684	0.276539	0.333417
Br426	Br	1.137018	0.609872	0.666751
H427	H	0.694276	-0.485083	0.000095
H428	H	1.027609	-0.151750	0.333428
H429	H	1.360943	0.181583	0.666761
H430	H	-0.033711	-0.063365	0.000115
H431	H	0.299623	0.269968	0.333449
H432	H	0.632956	0.603302	0.666782
Br433	Br	0.074720	-0.086232	0.000116
Br434	Br	0.408053	0.247101	0.333450
Br435	Br	0.741387	0.580435	0.666783
Br436	Br	0.304309	0.168345	0.000061
Br437	Br	0.637643	0.501678	0.333394
Br438	Br	0.970976	0.835012	0.666727
H439	H	0.630624	0.001859	0.841075
H440	H	0.963958	0.335192	1.174408
H441	H	1.297291	0.668525	1.507742
H442	H	0.446173	-0.450852	0.000042
H443	H	0.779507	-0.117519	0.333375
H444	H	1.112840	0.215815	0.666708
Br445	Br	0.676956	-0.204293	0.000108
Br446	Br	1.010289	0.129040	0.333442
Br447	Br	1.343623	0.462373	0.666775
Br448	Br	-0.282084	-0.045704	0.000110
Br449	Br	0.051249	0.287630	0.333443
Br450	Br	0.384582	0.620963	0.666776
Br451	Br	-0.310759	0.162103	0.000090
Br452	Br	0.022574	0.495436	0.333423
Br453	Br	0.355908	0.828769	0.666756
H454	H	0.647841	-0.710911	0.000086
H455	H	0.981174	-0.377578	0.333419
H456	H	1.314507	-0.044245	0.666752
Br457	Br	0.033881	0.209744	0.000090
Br458	Br	0.367214	0.543077	0.333423
Br459	Br	0.700548	0.876411	0.666757
Br460	Br	0.462889	-0.790678	0.000052
Br461	Br	0.796223	-0.457344	0.333385
Br462	Br	1.129556	-0.124011	0.666718
Br463	Br	0.464094	-0.671861	0.000038
Br464	Br	0.797428	-0.338528	0.333371
Br465	Br	1.130761	-0.005195	0.666705
Br466	Br	0.492490	0.139921	0.857885
Br467	Br	0.825823	0.473254	1.191218
Br468	Br	1.159157	0.806588	1.524551
H469	H	0.646906	-0.802377	0.000077
H470	H	0.980239	-0.469043	0.333411
H471	H	1.313573	-0.135710	0.666744
Br472	Br	0.492454	0.139947	0.288246
Br473	Br	0.825788	0.473281	0.621579
Br474	Br	1.159121	0.806614	0.954912
Br475	Br	0.332974	-0.039472	0.000080
Br476	Br	0.666307	0.293861	0.333414
Br477	Br	0.999640	0.627194	0.666747
Br478	Br	0.422702	-0.401432	0.000027
Br479	Br	0.756035	-0.068099	0.333361
Br480	Br	1.089368	0.265234	0.666694
H481	H	0.174748	0.187200	0.000075
H482	H	0.508082	0.520533	0.333408
H483	H	0.841415	0.853866	0.666741
H484	H	-0.180248	-0.020712	0.000119
H485	H	0.153085	0.312622	0.333452
H486	H	0.486418	0.645955	0.666785
Br487	Br	0.459338	0.173011	0.573052
Br488	Br	0.792671	0.506345	0.906385
Br489	Br	1.126005	0.839678	1.239718
H490	H	0.630592	0.001895	0.159089
H491	H	0.963925	0.335229	0.492422
H492	H	1.297258	0.668562	0.825755
Br493	Br	0.421172	-0.552681	0.000031
Br494	Br	0.754505	-0.219348	0.333364
Br495	Br	1.087839	0.113986	0.666698
H496	H	0.412744	0.145477	0.000046
H497	H	0.746078	0.478810	0.333379
H498	H	1.079411	0.812143	0.666713
Br499	Br	0.423915	-0.282616	0.000028
Br500	Br	0.757248	0.050717	0.333362
Br501	Br	1.090581	0.384051	0.666695
H502	H	0.493209	-0.165249	0.000095
H503	H	0.826542	0.168084	0.333428
H504	H	1.159875	0.501417	0.666761
H505	H	0.663718	-0.031221	0.443911
H506	H	0.997051	0.302112	0.777245
H507	H	1.330385	0.635446	1.110578
H508	H	0.434821	-0.014469	0.000073
H509	H	0.768154	0.318864	0.333406
H510	H	1.101488	0.652197	0.666739
Br511	Br	0.717131	-0.593533	0.000093
Br512	Br	1.050465	-0.260199	0.333427
Br513	Br	1.383798	0.073134	0.666760
Br514	Br	0.648602	-0.016106	0.711930
Br515	Br	0.981935	0.317227	1.045263
Br516	Br	1.315268	0.650561	1.378596
Br517	Br	0.492471	0.139919	0.711953
Br518	Br	0.825804	0.473252	1.045286
Br519	Br	1.159137	0.806586	1.378620
Br520	Br	0.492448	0.139949	0.142294
Br521	Br	0.825782	0.473282	0.475627
Br522	Br	1.159115	0.806616	0.808960
