data_functionalizedCrystal
_audit_creation_method	'MofGen! by Chris Wilmer'
_symmetry_space_group_name_H-M	'P1'
_symmetry_Int_Tables_number	1
_symmetry_cell_setting	triclinic
loop_
_symmetry_equiv_pos_as_xyz
  x,y,z
_cell_length_a	21.395362
_cell_length_b	12.759400
_cell_length_c	21.395355
_cell_angle_alpha	90.013847
_cell_angle_beta	90.043940
_cell_angle_gamma	90.030564
loop_
_atom_site_label
_atom_site_type_symbol
_atom_site_fract_x
_atom_site_fract_y
_atom_site_fract_z
Zn1	Zn	0.957929	-0.417943	0.354606
Zn2	Zn	0.957861	-0.593607	0.249837
Zn3	Zn	0.853144	-0.417992	0.249807
Zn4	Zn	0.853143	-0.593629	0.354542
O5	O	0.905519	-0.505793	0.302198
O6	O	1.045598	-0.441215	0.340747
O7	O	0.943942	-0.570323	0.162155
O8	O	0.867073	-0.270964	0.263723
O9	O	1.045548	-0.570275	0.263774
O10	O	0.944058	-0.270928	0.340719
O11	O	0.867007	-0.441299	0.162133
O12	O	0.765466	-0.441320	0.263661
O13	O	0.867071	-0.570312	0.442228
O14	O	0.765465	-0.570360	0.340609
O15	O	0.944057	-0.441236	0.442275
O16	O	0.943941	-0.740631	0.263712
O17	O	0.867005	-0.740647	0.340638
C18	C	0.742732	-0.505848	0.302125
C19	C	0.673090	-0.505897	0.302109
C20	C	0.640393	-0.573177	0.342116
C21	C	0.574958	-0.573152	0.342144
C22	C	0.542222	-0.505857	0.302154
C23	C	0.574927	-0.438564	0.262144
C24	C	0.640361	-0.438584	0.262122
C25	C	0.438496	-0.497393	0.245748
C26	C	0.373063	-0.497380	0.245769
C27	C	0.340401	-0.505788	0.302223
C28	C	0.373181	-0.514231	0.358657
C29	C	0.438615	-0.514251	0.358635
C30	C	0.471270	-0.505827	0.302174
C31	C	0.236752	-0.573044	0.342263
C32	C	0.171315	-0.573011	0.342292
C33	C	0.171286	-0.438428	0.262287
C34	C	0.236721	-0.438456	0.262264
C35	C	0.269450	-0.505769	0.302251
C36	C	0.905482	-0.778760	0.302185
C37	C	0.905523	-0.895537	0.302200
C38	C	0.945629	-0.950355	0.262189
C39	C	0.945667	-1.060079	0.262209
C40	C	0.865490	-1.060156	0.342252
C41	C	0.865455	-0.950434	0.342235
C42	C	0.985697	-0.895458	0.222154
C43	C	1.025805	-0.950277	0.182139
C44	C	1.025843	-1.060001	0.182159
C45	C	0.985774	-1.114906	0.222193
C46	C	1.068943	-0.505738	0.302271
C47	C	1.138584	-0.505714	0.302303
C48	C	0.905571	-0.505771	0.465621
C49	C	0.905593	-0.505762	0.535263
C50	C	0.905574	-0.231759	0.302225
C51	C	0.905597	-0.114983	0.302236
C52	C	0.905503	-0.505738	0.139410
C53	C	0.905603	-0.505451	0.069770
C54	C	0.945678	-0.438550	0.568001
C55	C	0.945678	-0.438504	0.633437
C56	C	0.905598	-0.505691	0.666131
C57	C	0.865505	-0.572908	0.633384
C58	C	0.865503	-0.572944	0.567950
C59	C	0.900638	-0.600292	0.769799
C60	C	0.900645	-0.600258	0.835232
C61	C	0.905602	-0.505580	0.867952
C62	C	0.910566	-0.410932	0.835230
C63	C	0.910563	-0.410968	0.769796
C64	C	0.905596	-0.505659	0.737083
C65	C	0.945688	-0.438312	0.971643
C66	C	0.945683	-0.438265	1.037080
C67	C	0.865514	-0.572678	1.037026
C68	C	0.865516	-0.572716	0.971591
C69	C	0.905607	-0.505534	0.938903
H70	H	0.465301	-0.521123	0.404585
H71	H	0.346589	-0.521076	0.404627
H72	H	0.832858	-0.627675	0.541295
H73	H	0.263401	-0.627849	0.374827
H74	H	0.914603	-0.333903	0.743157
Cl75	Cl	0.894411	-0.719242	0.876362
Cl76	Cl	0.996061	-0.353981	0.674603
Cl77	Cl	0.533775	-0.353959	0.211874
H78	H	0.832875	-0.627372	1.063645
Cl79	Cl	1.076269	-1.128914	0.131861
Cl80	Cl	0.130209	-0.657594	0.392595
Cl81	Cl	0.985826	-0.757520	0.222303
Cl82	Cl	0.130139	-0.353821	0.212017
H83	H	0.263344	-0.383674	0.229683
Cl84	Cl	0.331861	-0.486765	0.174825
H85	H	0.465084	-0.490542	0.199774
Cl86	Cl	0.916801	-0.291900	0.876356
H87	H	0.832878	-0.627454	0.944935
H88	H	0.666983	-0.383793	0.229543
Cl89	Cl	0.985565	-1.252845	0.221956
H90	H	1.058432	-0.905568	0.149548
H91	H	0.832867	-1.104869	0.374845
H92	H	0.832798	-0.905800	0.374817
H93	H	0.978322	-0.383844	0.541391
H94	H	0.978329	-0.383603	0.945027
H95	H	0.978324	-0.383527	1.063735
Cl96	Cl	0.894425	-0.719331	0.728673
Cl97	Cl	0.533844	-0.657739	0.392442
H98	H	0.667037	-0.627988	0.374678
H99	H	0.832871	-0.627608	0.660008
