data_functionalizedCrystal
_audit_creation_method	'MofGen! by Chris Wilmer'
_symmetry_space_group_name_H-M	'P1'
_symmetry_Int_Tables_number	1
_symmetry_cell_setting	triclinic
loop_
_symmetry_equiv_pos_as_xyz
  x,y,z
_cell_length_a	19.121063
_cell_length_b	15.297621
_cell_length_c	15.296720
_cell_angle_alpha	88.384271
_cell_angle_beta	101.616247
_cell_angle_gamma	96.844744
loop_
_atom_site_label
_atom_site_type_symbol
_atom_site_fract_x
_atom_site_fract_y
_atom_site_fract_z
Zn1	Zn	-0.545272	-1.219307	-0.750559
Zn2	Zn	-0.646152	-1.238262	-0.608501
Zn3	Zn	-0.505912	-1.100646	-0.577069
Zn4	Zn	-0.639261	-1.066920	-0.729322
O5	O	-0.584149	-1.156284	-0.666363
O6	O	-0.578010	-1.343188	-0.753756
O7	O	-0.613960	-1.242055	-0.481161
O8	O	-0.413108	-1.122567	-0.595816
O9	O	-0.652126	-1.357115	-0.649387
O10	O	-0.442026	-1.209747	-0.723278
O11	O	-0.510927	-1.140948	-0.458068
O12	O	-0.504245	-0.974804	-0.575224
O13	O	-0.640382	-1.065087	-0.855309
O14	O	-0.602216	-0.950027	-0.687083
O15	O	-0.571329	-1.177045	-0.870912
O16	O	-0.743263	-1.209353	-0.628795
O17	O	-0.738200	-1.083468	-0.717562
C18	C	-0.548212	-0.930946	-0.625439
C19	C	-0.532858	-0.834541	-0.607953
C20	C	-0.693865	-0.511331	-0.791298
C21	C	-0.708296	-0.601909	-0.807725
C22	C	-0.664438	-0.660071	-0.757783
C23	C	-0.606145	-0.627647	-0.691412
C24	C	-0.591716	-0.537062	-0.674979
C25	C	-0.562289	-0.685802	-0.641465
C26	C	-0.503996	-0.653378	-0.575094
C27	C	-0.489569	-0.562801	-0.558664
C28	C	-0.533428	-0.504638	-0.608605
C29	C	-0.576718	-0.776387	-0.657898
C30	C	-0.474569	-0.802118	-0.541579
C31	C	-0.460138	-0.711540	-0.525153
C32	C	-0.766154	-1.144828	-0.674308
C33	C	-0.844033	-1.140001	-0.677751
C34	C	-0.883245	-1.203309	-0.633207
C35	C	-0.956421	-1.198774	-0.636451
C36	C	-0.990382	-1.130926	-0.684235
C37	C	-0.951166	-1.067615	-0.728785
C38	C	-0.877992	-1.072154	-0.725545
C39	C	-1.211189	-1.113942	-0.696331
C40	C	-1.284368	-1.109406	-0.699565
C41	C	-1.289618	-1.240567	-0.607232
C42	C	-1.216442	-1.245097	-0.603993
C43	C	-1.177232	-1.181788	-0.648546
C44	C	-1.065180	-1.126287	-0.687550
C45	C	-1.102438	-1.186432	-0.645236
C46	C	-0.401440	-1.167804	-0.658410
C47	C	-0.323580	-1.172714	-0.655020
C48	C	-0.609477	-1.115190	-0.895940
C49	C	-0.620270	-1.097678	-0.993772
C50	C	-0.620221	-0.382503	-0.707439
C51	C	-0.635576	-0.478908	-0.724924
C52	C	-0.506892	-1.281483	-1.302040
C53	C	-0.496753	-1.297942	-1.210123
C54	C	-0.527631	-1.247877	-1.156031
C55	C	-0.568650	-1.181351	-1.193865
C56	C	-0.578795	-1.164896	-1.285792
C57	C	-0.599534	-1.131290	-1.139783
C58	C	-0.640553	-1.064764	-1.177617
C59	C	-0.650695	-1.048311	-1.269535
C60	C	-0.619817	-1.098375	-1.323627
C61	C	-0.589390	-1.147745	-1.047856
C62	C	-0.661292	-1.031158	-1.031608
C63	C	-0.671431	-1.014699	-1.123525
C64	C	-0.558878	-1.197271	-0.437685
C65	C	-0.547914	-1.214963	-0.339875
H66	H	-0.412676	-0.685128	-0.471112
O67	O	-0.630748	-1.080620	-1.422770
H68	H	-0.689051	-1.090470	-1.452496
H69	H	-1.074785	-1.241676	-0.606334
O70	O	-0.694935	-0.976559	-1.310347
H71	H	-0.714696	-0.944503	-1.257293
O72	O	-0.545151	-1.219492	-1.007050
H73	H	-0.489746	-1.204926	-1.019595
H74	H	-0.755759	-0.628302	-0.861762
H75	H	-1.092839	-1.071044	-0.726454
O76	O	-0.715670	-0.942946	-1.164335
H77	H	-0.762125	-0.972016	-1.214813
O78	O	-0.426700	-0.527835	-0.487072
H79	H	-0.446477	-0.492627	-0.436101
H80	H	-0.438857	-0.849474	-0.500912
H81	H	-0.686438	-0.990392	-0.987566
O82	O	-0.516692	-1.265616	-1.056889
H83	H	-0.482975	-1.320279	-1.039666
O84	O	-0.517891	-0.406947	-0.590839
H85	H	-0.558194	-0.371957	-0.636702
O86	O	-0.846616	-1.276492	-0.581673
H87	H	-0.886181	-1.319757	-0.551253
O88	O	-0.452516	-1.369690	-1.169315
H89	H	-0.432745	-1.401735	-1.222368
O90	O	-0.987790	-0.994434	-0.780327
H91	H	-0.961265	-0.929959	-0.752199
O92	O	-0.639576	-0.811359	-0.729490
H93	H	-0.690094	-0.793239	-0.713539
O94	O	-0.741165	-0.448604	-0.845160
H95	H	-0.721334	-0.380172	-0.822584
H96	H	-1.321551	-1.292110	-0.570961
O97	O	-0.835699	-1.003869	-0.773591
H98	H	-0.779114	-1.018429	-0.763320
H99	H	-0.988344	-1.250326	-0.600178
O100	O	-0.679998	-0.757767	-0.775496
H101	H	-0.727897	-0.770542	-0.830041
H102	H	-1.188792	-1.300344	-0.565083
O103	O	-1.321004	-1.036229	-0.751113
H104	H	-1.281449	-0.992974	-0.781558
O105	O	-1.168895	-1.045641	-0.744350
H106	H	-1.204803	-0.997689	-0.778102
O107	O	-0.473569	-1.335457	-1.360373
H108	H	-0.487504	-1.312825	-1.430644
