data_functionalizedCrystal
_audit_creation_method	'MofGen! by Chris Wilmer'
_symmetry_space_group_name_H-M	'P1'
_symmetry_Int_Tables_number	1
_symmetry_cell_setting	triclinic
loop_
_symmetry_equiv_pos_as_xyz
  x,y,z
_cell_length_a	16.959454
_cell_length_b	16.959455
_cell_length_c	16.959447
_cell_angle_alpha	89.984772
_cell_angle_beta	90.026736
_cell_angle_gamma	89.985155
loop_
_atom_site_label
_atom_site_type_symbol
_atom_site_fract_x
_atom_site_fract_y
_atom_site_fract_z
Zn1	Zn	-0.314776	-1.208384	0.446947
Zn2	Zn	0.185224	-0.708384	0.946947
Zn3	Zn	-0.446969	-1.208306	0.314777
Zn4	Zn	0.053031	-0.708306	0.814777
Zn5	Zn	-0.314796	-1.076212	0.314783
Zn6	Zn	0.185204	-0.576212	0.814783
Zn7	Zn	-0.446905	-1.076177	0.446914
Zn8	Zn	0.053095	-0.576177	0.946914
O9	O	-0.380861	-1.142270	0.380855
O10	O	0.119139	-0.642270	0.880855
O11	O	-0.332330	-1.318984	0.429427
O12	O	0.167670	-0.818984	0.929427
O13	O	-0.429471	-1.190766	0.204167
O14	O	0.070529	-0.690766	0.704167
O15	O	-0.204183	-1.093792	0.332331
O16	O	0.295817	-0.593792	0.832331
O17	O	-0.429452	-1.318927	0.332322
O18	O	0.070548	-0.818927	0.832322
O19	O	-0.204168	-1.190898	0.429432
O20	O	0.295832	-0.690898	0.929432
O21	O	-0.332364	-1.093717	0.204171
O22	O	0.167636	-0.593717	0.704171
O23	O	-0.332302	-0.965597	0.332299
O24	O	0.167698	-0.465597	0.832299
O25	O	-0.429342	-1.093732	0.557529
O26	O	0.070658	-0.593732	1.057529
O27	O	-0.429362	-0.965571	0.429374
O28	O	0.070638	-0.465571	0.929374
O29	O	-0.332268	-1.190864	0.557554
O30	O	0.167732	-0.690864	1.057554
O31	O	-0.557571	-1.190732	0.332289
O32	O	-0.057571	-0.690732	0.832289
O33	O	-0.557524	-1.093657	0.429369
O34	O	-0.057524	-0.593657	0.929369
C35	C	-0.380828	-0.936904	0.380834
C36	C	0.119172	-0.436904	0.880834
C37	C	-0.380832	-0.849047	0.380844
C38	C	0.119168	-0.349047	0.880844
C39	C	-0.330256	-0.477560	0.330403
C40	C	0.169744	0.022440	0.830403
C41	C	-0.431482	-0.477582	0.431332
C42	C	0.068518	0.022418	0.931332
C43	C	-0.431473	-0.560128	0.431328
C44	C	0.068527	-0.060128	0.931328
C45	C	-0.380856	-0.601394	0.380861
C46	C	0.119144	-0.101394	0.880861
C47	C	-0.330248	-0.560114	0.330396
C48	C	0.169752	-0.060114	0.830396
C49	C	-0.482087	-0.601414	0.481786
C50	C	0.017913	-0.101414	0.981786
C51	C	-0.482081	-0.683965	0.481784
C52	C	0.017919	-0.183965	0.981784
C53	C	-0.431460	-0.725233	0.431320
C54	C	0.068540	-0.225233	0.931320
C55	C	-0.380848	-0.683948	0.380854
C56	C	0.119152	-0.183948	0.880854
C57	C	-0.330231	-0.725213	0.330386
C58	C	0.169769	-0.225213	0.830386
C59	C	-0.279615	-0.683930	0.279924
C60	C	0.220385	-0.183930	0.779924
C61	C	-0.279626	-0.601381	0.279932
C62	C	0.220374	-0.101381	0.779932
C63	C	-0.431449	-0.807781	0.431311
C64	C	0.068551	-0.307781	0.931311
C65	C	-0.330223	-0.807767	0.330379
C66	C	0.169777	-0.307767	0.830379
C67	C	-0.586228	-1.142204	0.380842
C68	C	-0.086228	-0.642204	0.880842
C69	C	-0.674084	-1.142248	0.380863
C70	C	-0.174084	-0.642248	0.880863
C71	C	-1.045565	-1.091796	0.431399
C72	C	-0.545565	-0.591796	0.931399
C73	C	-1.045554	-1.192963	0.330392
C74	C	-0.545554	-0.692963	0.830392
C75	C	-0.963008	-1.192936	0.330384
C76	C	-0.463008	-0.692936	0.830384
C77	C	-0.921737	-1.142337	0.380885
C78	C	-0.421737	-0.642337	0.880885
C79	C	-0.963012	-1.091765	0.431392
C80	C	-0.463012	-0.591765	0.931392
C81	C	-0.921728	-1.243501	0.279872
C82	C	-0.421728	-0.743501	0.779872
C83	C	-0.839177	-1.243475	0.279862
C84	C	-0.339177	-0.743475	0.779862
C85	C	-0.797904	-1.192879	0.330367
C86	C	-0.297904	-0.692879	0.830367
C87	C	-0.839184	-1.142306	0.380877
C88	C	-0.339184	-0.642306	0.880877
C89	C	-0.797912	-1.091707	0.431377
C90	C	-0.297912	-0.591707	0.931377
C91	C	-0.839190	-1.041137	0.481892
C92	C	-0.339190	-0.541137	0.981892
C93	C	-0.921739	-1.041170	0.481897
C94	C	-0.421739	-0.541170	0.981897
C95	C	-0.715356	-1.192847	0.330362
C96	C	-0.215356	-0.692847	0.830362
C97	C	-0.715359	-1.091676	0.431370
C98	C	-0.215359	-0.591676	0.931370
C99	C	-0.174693	-1.142358	0.380886
C100	C	0.325307	-0.642358	0.880886
C101	C	-0.086837	-1.142395	0.380899
C102	C	0.413163	-0.642395	0.880899
C103	C	-0.380796	-1.142303	0.587024
C104	C	0.119204	-0.642303	1.087024
C105	C	-0.380768	-1.142317	0.674880
C106	C	0.119232	-0.642317	1.174880
C107	C	-0.380886	-0.348438	0.380873
C108	C	0.119114	0.151562	0.880873
C109	C	-0.380873	-0.436295	0.380871
C110	C	0.119127	0.063705	0.880871
C111	C	-0.380870	-1.142282	0.175489
C112	C	0.119130	-0.642282	0.675489
C113	C	-0.380675	-1.142422	0.087633
C114	C	0.119325	-0.642422	0.587633
C115	C	-0.431227	-1.091839	1.046346
C116	C	0.068773	-0.591839	1.546346
C117	C	-0.330143	-1.192983	1.046367
C118	C	0.169857	-0.692983	1.546367
C119	C	-0.330159	-1.192962	0.963821
C120	C	0.169841	-0.692962	1.463821
C121	C	-0.380711	-1.142380	0.922533
C122	C	0.119289	-0.642380	1.422533
C123	C	-0.431247	-1.091818	0.963792
C124	C	0.068753	-0.591818	1.463792
C125	C	-0.279631	-1.243529	0.922556
C126	C	0.220369	-0.743529	1.422556
C127	C	-0.279646	-1.243510	0.840005
C128	C	0.220354	-0.743510	1.340005
C129	C	-0.330195	-1.192923	0.798716
C130	C	0.169805	-0.692923	1.298716
C131	C	-0.380731	-1.142359	0.839980
C132	C	0.119269	-0.642359	1.339980
C133	C	-0.431283	-1.091776	0.798693
C134	C	0.068717	-0.591776	1.298693
C135	C	-0.481817	-1.041207	0.839955
C136	C	0.018183	-0.541207	1.339955
C137	C	-0.481795	-1.041231	0.922503
C138	C	0.018205	-0.541231	1.422503
C139	C	-0.330216	-1.192899	0.716168
C140	C	0.169784	-0.692899	1.216168
C141	C	-0.431303	-1.091755	0.716139
C142	C	0.068697	-0.591755	1.216139
H143	H	-0.472696	-0.443979	0.472416
H144	H	0.027304	0.056021	0.972416
H145	H	-0.238407	-0.717539	0.238829
H146	H	0.261593	-0.217539	0.738829
H147	H	-0.523302	-0.567810	0.522869
H148	H	-0.023302	-0.067810	1.022869
N149	N	-0.225135	-1.298044	0.795511
N150	N	0.274865	-0.798044	1.295511
H151	H	-0.188507	-1.265925	0.761274
H152	H	0.311493	-0.765925	1.261274
H153	H	-0.257322	-1.334643	0.761297
H154	H	0.242678	-0.834643	1.261297
N155	N	-0.536671	-0.728490	0.536207
N156	N	-0.036671	-0.228490	1.036207
H157	H	-0.568738	-0.689821	0.568177
H158	H	-0.068738	-0.189821	1.068177
H159	H	-0.504537	-0.762755	0.572840
H160	H	-0.004537	-0.262755	1.072840
H161	H	-0.289000	-0.841360	0.289286
H162	H	0.211000	-0.341360	0.789286
N163	N	-0.275619	-1.247537	1.090891
N164	N	0.224381	-0.747537	1.590891
H165	H	-0.287907	-1.304004	1.076522
H166	H	0.212093	-0.804004	1.576522
H167	H	-0.283300	-1.239813	1.149432
H168	H	0.216700	-0.739813	1.649432
N169	N	-0.794674	-0.986556	0.536352
N170	N	-0.294674	-0.486556	1.036352
H171	H	-0.736117	-0.994210	0.528674
H172	H	-0.236117	-0.494210	1.028674
H173	H	-0.809054	-0.998825	0.592819
H174	H	-0.309054	-0.498825	1.092819
N175	N	-0.966242	-1.298076	0.225413
N176	N	-0.466242	-0.798076	0.725413
H177	H	-0.927568	-1.330105	0.193412
H178	H	-0.427568	-0.830105	0.693412
H179	H	-1.000537	-1.265939	0.188811
H180	H	-0.500537	-0.765939	0.688811
H181	H	-0.805573	-1.284651	0.238731
H182	H	-0.305573	-0.784651	0.738731
H183	H	-0.472662	-0.841390	0.472395
H184	H	0.027338	-0.341390	0.972395
H185	H	-0.522980	-1.000026	0.806328
H186	H	-0.022980	-0.500026	1.306328
H187	H	-0.238479	-1.284715	0.956178
H188	H	0.261521	-0.784715	1.456178
N189	N	-0.275736	-1.247447	0.671659
N190	N	0.224264	-0.747447	1.171659
H191	H	-0.239106	-1.215344	0.637409
H192	H	0.260894	-0.715344	1.137409
H193	H	-0.307951	-1.284031	0.637455
H194	H	0.192049	-0.784031	1.137455
N195	N	-0.966259	-0.986628	0.536373
N196	N	-0.466259	-0.486628	1.036373
H197	H	-1.024815	-0.994323	0.528710
H198	H	-0.524815	-0.494323	1.028710
H199	H	-0.951869	-0.930180	0.524014
H200	H	-0.451869	-0.430180	1.024014
H201	H	-0.681761	-1.050475	0.472497
H202	H	-0.181761	-0.550475	0.972497
N203	N	-1.090075	-1.037252	0.485882
N204	N	-0.590075	-0.537252	0.985882
H205	H	-1.124283	-1.069362	0.522547
H206	H	-0.624283	-0.569362	1.022547
H207	H	-1.124322	-1.000666	0.453675
H208	H	-0.624322	-0.500666	0.953675
N209	N	-0.225062	-0.556856	0.225484
N210	N	0.274938	-0.056856	0.725484
H211	H	-0.232760	-0.498300	0.233136
H212	H	0.267240	0.001700	0.733136
H213	H	-0.237319	-0.571278	0.169019
H214	H	0.262681	-0.071278	0.669019
H215	H	-0.289043	-0.443944	0.289320
H216	H	0.210957	0.056056	0.789320
H217	H	-1.079162	-1.234154	0.289272
H218	H	-0.579162	-0.734154	0.789272
H219	H	-0.681751	-1.234016	0.289230
H220	H	-0.181751	-0.734016	0.789230
H221	H	-0.472462	-1.050557	0.682529
H222	H	0.027538	-0.550557	1.182529
H223	H	-0.522939	-1.000063	0.956106
H224	H	-0.022939	-0.500063	1.456106
N225	N	-0.485713	-1.037283	1.090842
N226	N	0.014287	-0.537283	1.590842
H227	H	-0.478027	-1.044963	1.149402
H228	H	0.021973	-0.544963	1.649402
H229	H	-0.542175	-1.049545	1.076409
H230	H	-0.042175	-0.549545	1.576409
