data_functionalizedCrystal
_audit_creation_method	'MofGen! by Chris Wilmer'
_symmetry_space_group_name_H-M	'P1'
_symmetry_Int_Tables_number	1
_symmetry_cell_setting	triclinic
loop_
_symmetry_equiv_pos_as_xyz
  x,y,z
_cell_length_a	21.295418
_cell_length_b	13.897448
_cell_length_c	13.897441
_cell_angle_alpha	90.029627
_cell_angle_beta	89.961054
_cell_angle_gamma	89.966493
loop_
_atom_site_label
_atom_site_type_symbol
_atom_site_fract_x
_atom_site_fract_y
_atom_site_fract_z
Zn1	Zn	0.962382	0.383586	-0.545905
Zn2	Zn	1.295715	0.716919	-0.212572
Zn3	Zn	1.629049	1.050253	0.120762
Zn4	Zn	0.962317	0.544905	-0.384606
Zn5	Zn	1.295650	0.878238	-0.051273
Zn6	Zn	1.628983	1.211572	0.282060
Zn7	Zn	0.857114	0.383670	-0.384566
Zn8	Zn	1.190447	0.717004	-0.051233
Zn9	Zn	1.523781	1.050337	0.282100
Zn10	Zn	0.857098	0.544885	-0.545802
Zn11	Zn	1.190432	0.878219	-0.212468
Zn12	Zn	1.523765	1.211552	0.120865
O13	O	0.909728	0.464262	-0.465220
O14	O	1.243061	0.797595	-0.131887
O15	O	1.576394	1.130928	0.201447
O16	O	1.050463	0.404958	-0.524569
O17	O	1.383796	0.738292	-0.191235
O18	O	1.717129	1.071625	0.142098
O19	O	0.948341	0.523560	-0.249619
O20	O	1.281674	0.856894	0.083714
O21	O	1.615007	1.190227	0.417047
O22	O	0.871112	0.248677	-0.405995
O23	O	1.204445	0.582011	-0.072661
O24	O	1.537779	0.915344	0.260672
O25	O	1.050415	0.523479	-0.406063
O26	O	1.383748	0.856812	-0.072730
O27	O	1.717082	1.190145	0.260603
O28	O	0.948452	0.248616	-0.524530
O29	O	1.281785	0.581949	-0.191196
O30	O	1.615119	0.915282	0.142137
O31	O	0.871049	0.405102	-0.249590
O32	O	1.204382	0.738435	0.083744
O33	O	1.537715	1.071769	0.417077
O34	O	0.769023	0.405083	-0.405894
O35	O	1.102356	0.738416	-0.072561
O36	O	1.435689	1.071749	0.260772
O37	O	0.871085	0.523445	-0.680797
O38	O	1.204418	0.856779	-0.347464
O39	O	1.537752	1.190112	-0.014131
O40	O	0.769011	0.523527	-0.524353
O41	O	1.102344	0.856860	-0.191020
O42	O	1.435678	1.190193	0.142313
O43	O	0.948437	0.404939	-0.680873
O44	O	1.281770	0.738273	-0.347540
O45	O	1.615103	1.071606	-0.014206
O46	O	0.948325	0.679884	-0.405963
O47	O	1.281659	1.013217	-0.072630
O48	O	1.614992	1.346551	0.260704
O49	O	0.871022	0.679870	-0.524393
O50	O	1.204355	1.013203	-0.191059
O51	O	1.537688	1.346536	0.142274
C52	C	0.746176	0.464312	-0.465109
C53	C	1.079509	0.797646	-0.131776
C54	C	1.412843	1.130979	0.201558
C55	C	0.676208	0.464357	-0.465084
C56	C	1.009541	0.797691	-0.131751
C57	C	1.342875	1.131024	0.201582
C58	C	0.909682	0.714876	-0.465192
C59	C	1.243015	1.048209	-0.131859
C60	C	1.576348	1.381543	0.201475
C61	C	0.909720	0.822090	-0.465212
C62	C	1.243053	1.155423	-0.131879
C63	C	1.576386	1.488757	0.201454
C64	C	0.909766	0.464181	-0.716813
C65	C	1.243100	0.797514	-0.383480
C66	C	1.576433	1.130847	-0.050146
C67	C	0.909783	0.464146	-0.824027
C68	C	1.243116	0.797480	-0.490694
C69	C	1.576449	1.130813	-0.157360
C70	C	0.643352	0.526113	-0.526674
C71	C	0.976685	0.859446	-0.193340
C72	C	1.310018	1.192780	0.139993
C73	C	0.577609	0.526089	-0.526717
C74	C	0.910943	0.859422	-0.193384
C75	C	1.244276	1.192756	0.139950
C76	C	0.544726	0.464320	-0.465154
C77	C	0.878059	0.797653	-0.131820
C78	C	1.211392	1.130987	0.201513
C79	C	0.577590	0.402552	-0.403560
C80	C	0.910923	0.735886	-0.070227
C81	C	1.244256	1.069219	0.263107
C82	C	0.643331	0.402571	-0.403525
C83	C	0.976664	0.735905	-0.070192
C84	C	1.309998	1.069238	0.263141
N85	N	0.441453	0.456790	-0.380787
N86	N	0.774786	0.790124	-0.047453
N87	N	1.108120	1.123457	0.285880
N88	N	0.379002	0.456778	-0.380822
N89	N	0.712335	0.790112	-0.047489
N90	N	1.045668	1.123445	0.285844
C91	C	0.346651	0.464258	-0.465256
C92	C	0.679984	0.797592	-0.131923
C93	C	1.013318	1.130925	0.201411
N94	N	0.379111	0.471770	-0.549654
N95	N	0.712444	0.805103	-0.216321
N96	N	1.045777	1.138437	0.117012
N97	N	0.441568	0.471787	-0.549618
N98	N	0.774901	0.805120	-0.216284
N99	N	1.108235	1.138454	0.117049
C100	C	0.473440	0.464292	-0.465185
C101	C	0.806773	0.797626	-0.131852
C102	C	1.140107	1.130959	0.201482
C103	C	0.242509	0.525991	-0.526898
C104	C	0.575842	0.859325	-0.193564
C105	C	0.909176	1.192658	0.139769
C106	C	0.176765	0.525961	-0.526943
C107	C	0.510099	0.859294	-0.193609
C108	C	0.843432	1.192628	0.139724
C109	C	0.176747	0.402429	-0.403777
C110	C	0.510080	0.735763	-0.070443
C111	C	0.843414	1.069096	0.262890
C112	C	0.242490	0.402455	-0.403740
C113	C	0.575823	0.735788	-0.070407
C114	C	0.909156	1.069121	0.262926
C115	C	0.275367	0.464241	-0.465300
C116	C	0.608700	0.797574	-0.131966
C117	C	0.942033	1.130908	0.201367
C118	C	1.073918	0.464211	-0.465332
C119	C	1.407251	0.797545	-0.131999
C120	C	1.740585	1.130878	0.201335
C121	C	1.143886	0.464190	-0.465380
C122	C	1.477220	0.797523	-0.132046
C123	C	1.810553	1.130857	0.201287
C124	C	0.909791	0.212669	-0.465269
C125	C	1.243124	0.546002	-0.131936
C126	C	1.576458	0.879335	0.201398
C127	C	0.909818	0.105455	-0.465290
C128	C	1.243151	0.438788	-0.131957
C129	C	1.576485	0.772121	0.201377
C130	C	0.909786	1.018385	-0.465273
C131	C	1.243119	1.351718	-0.131940
C132	C	1.576453	1.685052	0.201394
C133	C	0.909747	0.909153	-0.465242
C134	C	1.243081	1.242486	-0.131909
C135	C	1.576414	1.575819	0.201425
C136	C	0.909796	0.464119	-0.911097
C137	C	1.243129	0.797452	-0.577764
C138	C	1.576462	1.130786	-0.244430
C139	C	0.909814	0.464075	-1.020330
C140	C	1.243147	0.797409	-0.686996
C141	C	1.576480	1.130742	-0.353663
C142	C	0.909726	0.464273	-0.214606
C143	C	1.243059	0.797606	0.118728
C144	C	1.576392	1.130939	0.452061
C145	C	0.909831	0.464036	-0.107392
C146	C	1.243164	0.797369	0.225941
C147	C	1.576498	1.130702	0.559274
H148	H	0.550852	0.576377	-0.576874
H149	H	0.884186	0.909711	-0.243541
H150	H	1.217519	1.243044	0.089792
H151	H	0.269279	0.576297	-0.577028
H152	H	0.602612	0.909630	-0.243694
H153	H	0.935946	1.242963	0.089639
N154	N	0.676931	0.589234	-0.589546
N155	N	1.010264	0.922567	-0.256213
N156	N	1.343597	1.255900	0.077120
N157	N	0.669536	0.678229	-0.582989
N158	N	1.002870	1.011562	-0.249656
N159	N	1.336203	1.344896	0.083678
H160	H	0.693252	0.722810	-0.627393
H161	H	1.026585	1.056143	-0.294060
H162	H	1.359918	1.389477	0.039273
N163	N	0.676906	0.339504	-0.340604
N164	N	1.010239	0.672838	-0.007271
N165	N	1.343572	1.006171	0.326063
N166	N	0.735603	0.339536	-0.340576
N167	N	1.068936	0.672870	-0.007243
N168	N	1.402269	1.006203	0.326090
H169	H	0.759317	0.294997	-0.296136
H170	H	1.092651	0.628330	0.037197
H171	H	1.425984	0.961664	0.370531
N172	N	0.276065	0.339394	-0.340817
N173	N	0.609398	0.672727	-0.007484
N174	N	0.942731	1.006061	0.325849
N175	N	0.334762	0.339421	-0.340792
N176	N	0.668095	0.672755	-0.007459
N177	N	1.001428	1.006088	0.325875
H178	H	0.358476	0.294881	-0.296351
H179	H	0.691809	0.628214	0.036982
H180	H	1.025142	0.961548	0.370315
H181	H	0.150015	0.576248	-0.577102
H182	H	0.483348	0.909581	-0.243769
H183	H	0.816682	1.242915	0.089565
N184	N	0.143156	0.339327	-0.340907
N185	N	0.476489	0.672661	-0.007574
N186	N	0.809822	1.005994	0.325759
N187	N	0.084459	0.339312	-0.340951
N188	N	0.417792	0.672645	-0.007618
N189	N	0.751126	1.005978	0.325715
H190	H	0.060731	0.294740	-0.296553
H191	H	0.394065	0.628074	0.036781
H192	H	0.727398	0.961407	0.370114
H193	H	0.550812	0.352258	-0.353436
H194	H	0.884145	0.685591	-0.020103
H195	H	1.217478	1.018925	0.313230
