data_functionalizedCrystal
_audit_creation_method	'MofGen! by Chris Wilmer'
_symmetry_space_group_name_H-M	'P1'
_symmetry_Int_Tables_number	1
_symmetry_cell_setting	triclinic
loop_
_symmetry_equiv_pos_as_xyz
  x,y,z
_cell_length_a	13.897449
_cell_length_b	12.827885
_cell_length_c	12.827892
_cell_angle_alpha	89.969834
_cell_angle_beta	89.984680
_cell_angle_gamma	90.025625
loop_
_atom_site_label
_atom_site_type_symbol
_atom_site_fract_x
_atom_site_fract_y
_atom_site_fract_z
Zn1	Zn	-1.474714	-0.591019	-0.415982
Zn2	Zn	-1.141381	-0.257686	-0.082649
Zn3	Zn	-0.808047	0.075648	0.250684
Zn4	Zn	-1.474616	-0.416279	-0.590760
Zn5	Zn	-1.141282	-0.082946	-0.257427
Zn6	Zn	-0.807949	0.250388	0.075906
Zn7	Zn	-1.313404	-0.416274	-0.416034
Zn8	Zn	-0.980071	-0.082941	-0.082700
Zn9	Zn	-0.646738	0.250393	0.250633
Zn10	Zn	-1.313391	-0.590960	-0.590682
Zn11	Zn	-0.980058	-0.257627	-0.257349
Zn12	Zn	-0.646725	0.075707	0.075985
O13	O	-1.394031	-0.503633	-0.503365
O14	O	-1.060698	-0.170300	-0.170031
O15	O	-0.727365	0.163034	0.163302
O16	O	-1.609682	-0.567866	-0.439178
O17	O	-1.276349	-0.234533	-0.105845
O18	O	-0.943016	0.098800	0.227488
O19	O	-1.453195	-0.270042	-0.567637
O20	O	-1.119862	0.063291	-0.234303
O21	O	-0.786528	0.396625	0.099030
O22	O	-1.334849	-0.439477	-0.269791
O23	O	-1.001516	-0.106144	0.063542
O24	O	-0.668182	0.227190	0.396876
O25	O	-1.609610	-0.439485	-0.567587
O26	O	-1.276277	-0.106152	-0.234254
O27	O	-0.942944	0.227181	0.099080
O28	O	-1.453362	-0.567862	-0.269753
O29	O	-1.120029	-0.234528	0.063580
O30	O	-0.786696	0.098805	0.396914
O31	O	-1.334754	-0.270039	-0.439266
O32	O	-1.001420	0.063295	-0.105933
O33	O	-0.668087	0.396628	0.227401
O34	O	-1.178421	-0.439420	-0.439190
O35	O	-0.845088	-0.106086	-0.105856
O36	O	-0.511754	0.227247	0.227477
O37	O	-1.334827	-0.737204	-0.567453
O38	O	-1.001493	-0.403871	-0.234120
O39	O	-0.668160	-0.070537	0.099213
O40	O	-1.178411	-0.567761	-0.567503
O41	O	-0.845078	-0.234427	-0.234170
O42	O	-0.511745	0.098906	0.099164
O43	O	-1.453350	-0.737247	-0.439102
O44	O	-1.120016	-0.403914	-0.105769
O45	O	-0.786683	-0.070581	0.227564
O46	O	-1.453182	-0.439428	-0.736986
O47	O	-1.119849	-0.106095	-0.403653
O48	O	-0.786516	0.227239	-0.070319
O49	O	-1.334731	-0.567766	-0.736928
O50	O	-1.001398	-0.234432	-0.403595
O51	O	-0.668065	0.098901	-0.070262
C52	C	-1.143417	-0.503584	-0.503344
C53	C	-0.810084	-0.170251	-0.170011
C54	C	-0.476750	0.163083	0.163322
C55	C	-1.036203	-0.503588	-0.503361
C56	C	-0.702870	-0.170254	-0.170027
C57	C	-0.369536	0.163079	0.163306
C58	C	-1.394098	-0.776203	-0.503263
C59	C	-1.060764	-0.442870	-0.169930
C60	C	-0.727431	-0.109537	0.163403
C61	C	-1.394126	-0.892357	-0.503220
C62	C	-1.060793	-0.559023	-0.169887
C63	C	-0.727459	-0.225690	0.163446
C64	C	-0.949133	-0.503601	-0.503363
C65	C	-0.615800	-0.170267	-0.170029
C66	C	-0.282467	0.163066	0.163304
C67	C	-0.839901	-0.503627	-0.503368
C68	C	-0.506567	-0.170294	-0.170035
C69	C	-0.173234	0.163040	0.163298
C70	C	-1.335496	-0.944120	-0.566706
C71	C	-1.002162	-0.610786	-0.233373
C72	C	-0.668829	-0.277453	0.099960
C73	C	-1.335524	-1.064170	-0.566663
C74	C	-1.002190	-0.730837	-0.233330
C75	C	-0.668857	-0.397504	0.100003
C76	C	-0.645624	-0.503670	-0.503381
C77	C	-0.312291	-0.170337	-0.170048
C78	C	0.021043	0.162996	0.163285
C79	C	-0.752838	-0.503654	-0.503378
C80	C	-0.419505	-0.170320	-0.170044
C81	C	-0.086171	0.163013	0.163289
C82	C	-1.393971	-0.503614	-0.774875
C83	C	-1.060638	-0.170280	-0.441541
C84	C	-0.727304	0.163053	-0.108208
C85	C	-1.394033	-0.503640	-0.891028
C86	C	-1.060700	-0.170307	-0.557694
C87	C	-0.727367	0.163026	-0.224361
C88	C	-1.394021	-0.232123	-0.503390
C89	C	-1.060687	0.101210	-0.170057
C90	C	-0.727354	0.434544	0.163277
C91	C	-1.394179	-0.115971	-0.503139
C92	C	-1.060846	0.217363	-0.169805
C93	C	-0.727512	0.550696	0.163528
C94	C	-1.335537	-0.440108	-1.062959
C95	C	-1.002204	-0.106774	-0.729625
C96	C	-0.668870	0.226559	-0.396292
C97	C	-1.335471	-0.440079	-0.942908
C98	C	-1.002138	-0.106745	-0.609575
C99	C	-0.668804	0.226588	-0.276242
C100	C	-1.394118	-0.503675	-0.230794
C101	C	-1.060785	-0.170342	0.102539
C102	C	-0.727451	0.162991	0.435872
C103	C	-1.394155	-0.503693	-0.114641
C104	C	-1.060822	-0.170360	0.218692
C105	C	-0.727488	0.162973	0.552025
H106	H	-1.285283	-0.899559	-0.621095
H107	H	-0.951950	-0.566226	-0.287762
H108	H	-0.618617	-0.232893	0.045571
H109	H	-1.285289	-0.385636	-0.898463
H110	H	-0.951956	-0.052303	-0.565130
H111	H	-0.618623	0.281031	-0.231796
Cl112	Cl	-1.471665	-0.961145	-0.419255
Cl113	Cl	-1.138332	-0.627812	-0.085922
Cl114	Cl	-0.804999	-0.294479	0.247411
H115	H	-1.444225	-0.558078	-0.935467
H116	H	-1.110891	-0.224744	-0.602134
H117	H	-0.777558	0.108589	-0.268800
Cl118	Cl	-1.471679	-1.047255	-0.419209
Cl119	Cl	-1.138346	-0.713922	-0.085876
Cl120	Cl	-0.805012	-0.380588	0.247457
H121	H	-1.285322	-1.108686	-0.621009
H122	H	-0.951989	-0.775352	-0.287676
H123	H	-0.618655	-0.442019	0.045657
Cl124	Cl	-1.258116	-0.356099	-1.131854
Cl125	Cl	-0.924782	-0.022766	-0.798520
Cl126	Cl	-0.591449	0.310568	-0.465187
Cl127	Cl	-1.471561	-0.587719	-1.045746
Cl128	Cl	-1.138227	-0.254385	-0.712413
Cl129	Cl	-0.804894	0.078948	-0.379079
