data_functionalizedCrystal
_audit_creation_method	'MofGen! by Chris Wilmer'
_symmetry_space_group_name_H-M	'P1'
_symmetry_Int_Tables_number	1
_symmetry_cell_setting	triclinic
loop_
_symmetry_equiv_pos_as_xyz
  x,y,z
_cell_length_a	10.540539
_cell_length_b	27.732025
_cell_length_c	9.016244
_cell_angle_alpha	90.012278
_cell_angle_beta	89.994699
_cell_angle_gamma	83.579481
loop_
_atom_site_label
_atom_site_type_symbol
_atom_site_fract_x
_atom_site_fract_y
_atom_site_fract_z
O1	O	1.682921	0.068113	-0.123217
O2	O	1.313228	0.074530	-0.123231
O3	O	1.509571	0.000996	-0.123269
O4	O	1.486578	0.141647	-0.123179
O5	O	1.509543	0.000998	0.123412
O6	O	1.313199	0.074532	0.123450
O7	O	1.682892	0.068114	0.123463
Cu8	Cu	1.498043	0.071323	0.145981
Cu9	Cu	1.498077	0.071321	-0.145748
O10	O	1.486549	0.141648	0.123501
C11	C	1.265931	0.074050	0.000107
C12	C	1.125046	0.072610	0.000099
C13	C	0.944027	0.017434	0.000640
C14	C	1.090582	0.018894	0.000070
C15	C	1.062262	0.098459	-0.140746
C16	C	0.915797	0.096626	-0.140849
C17	C	0.915229	0.097721	0.139673
C18	C	1.062189	0.098215	0.141520
C19	C	1.509079	-0.017013	0.000057
C20	C	1.507638	-0.070678	0.000013
C21	C	1.497422	-0.453908	-0.134367
C22	C	1.502812	-0.252215	-0.134414
O23	O	1.503572	-0.226144	-0.248776
N24	N	1.503470	-0.226989	0.000047
C25	C	1.502789	-0.252189	0.134531
O26	O	1.503486	-0.226105	0.248897
C27	C	1.497409	-0.453882	0.134577
C28	C	1.496738	-0.479105	0.000106
C29	C	1.496752	-0.479132	-0.268826
C30	C	1.495398	-0.529552	-0.268813
C31	C	1.494714	-0.554748	-0.134340
C32	C	1.495383	-0.529525	0.000119
C33	C	1.496737	-0.479082	0.269058
C34	C	1.495395	-0.529509	0.269058
C35	C	1.494724	-0.554732	0.134587
C36	C	1.493344	-0.605142	0.134605
N37	N	1.492686	-0.630368	0.000144
C38	C	1.493371	-0.605171	-0.134329
C39	C	1.505611	-0.146297	0.134497
C40	C	1.506954	-0.095874	0.134486
C41	C	1.506979	-0.095904	-0.134460
C42	C	1.505627	-0.146327	-0.134447
C43	C	1.504953	-0.171524	0.000035
C44	C	1.490526	-0.711057	-0.134291
C45	C	1.489166	-0.761481	-0.134266
C46	C	1.489148	-0.761448	0.134679
C47	C	1.490501	-0.711028	0.134654
C48	C	1.491194	-0.685834	0.000157
O49	O	1.492597	-0.631245	0.248907
O50	O	1.492702	-0.631265	-0.248679
C51	C	1.498776	-0.403488	-0.134380
C52	C	1.499446	-0.378265	0.000080
C53	C	1.498761	-0.403462	0.134552
C54	C	1.500789	-0.327842	0.000068
C55	C	1.501473	-0.302645	-0.134404
C56	C	1.500815	-0.327872	-0.268866
C57	C	1.499461	-0.378292	-0.268853
C58	C	1.499420	-0.378236	0.269014
C59	C	1.500772	-0.327815	0.268990
C60	C	1.501457	-0.302619	0.134517
C61	C	1.730189	0.068595	0.000122
C62	C	1.871074	0.070035	0.000121
C63	C	1.487041	0.159657	0.000173
C64	C	1.488482	0.213322	0.000207
N65	N	1.498029	0.071324	0.351167
N66	N	1.498101	0.071316	-0.350934
C67	C	1.392687	0.110528	0.586220
C68	C	1.392910	0.110675	0.414329
C69	C	1.630251	0.082797	0.413519
C70	C	1.629673	0.083075	0.585464
C71	C	1.472472	0.020519	0.585677
C72	C	1.469412	0.020848	0.413722
H73	H	0.866309	0.136519	0.140650
H74	H	1.710518	0.055017	0.372601
H75	H	0.914754	-0.003698	-0.099830
Br76	Br	1.764125	0.037270	0.654758
H77	H	1.494861	-0.550084	-0.378313
Br78	Br	1.229018	0.099203	0.344062
H79	H	1.505078	-0.166861	-0.243945
Br80	Br	0.863901	0.068746	0.317618
Br81	Br	1.131639	0.066686	0.315190
H82	H	1.652410	0.120135	0.625578
H83	H	1.549357	-0.008667	0.626314
Br84	Br	1.669093	0.143868	0.341764
Br85	Br	1.307306	0.006351	0.345806
Br86	Br	1.134565	0.068530	-0.315498
H87	H	1.084705	0.137378	0.150050
Br88	Br	1.161625	-0.015096	-0.168836
Br89	Br	1.497627	-0.444862	0.451566
H90	H	1.498914	-0.398824	-0.378353
H91	H	0.888433	0.077520	-0.246157
H92	H	1.488615	-0.782015	-0.243773
H93	H	1.494847	-0.550021	0.378572
Br94	Br	1.315337	0.002328	0.658019
H95	H	0.866143	0.135258	-0.147218
Br96	Br	1.589198	-0.030125	0.342090
H97	H	1.490997	-0.690487	0.244151
Br98	Br	1.491467	-0.676873	-0.316824
Br99	Br	1.507884	-0.061698	-0.316958
Br100	Br	1.096686	0.164204	-0.149481
H101	H	1.497314	-0.458622	-0.378336
H102	H	1.134071	-0.001446	0.101033
H103	H	1.507476	-0.075341	0.243985
Br104	Br	1.504691	-0.180485	0.317027
Br105	Br	1.488205	-0.795652	0.317169
Br106	Br	1.501742	-0.293666	-0.451363
H107	H	1.501307	-0.307283	0.378500
Br108	Br	1.228285	0.099192	0.655152
H109	H	1.498866	-0.398746	0.378520
H110	H	1.408718	0.148002	0.629438
H111	H	0.916356	-0.003786	0.101646
H112	H	1.409165	0.148362	0.373207
