data_functionalizedCrystal
_audit_creation_method	'MofGen! by Chris Wilmer'
_symmetry_space_group_name_H-M	'P1'
_symmetry_Int_Tables_number	1
_symmetry_cell_setting	triclinic
loop_
_symmetry_equiv_pos_as_xyz
  x,y,z
_cell_length_a	19.077105
_cell_length_b	19.076808
_cell_length_c	11.169409
_cell_angle_alpha	92.337422
_cell_angle_beta	92.320653
_cell_angle_gamma	89.927608
loop_
_atom_site_label
_atom_site_type_symbol
_atom_site_fract_x
_atom_site_fract_y
_atom_site_fract_z
Zn1	Zn	1.063033	-0.322934	0.729201
Zn2	Zn	1.563033	0.177066	1.229201
Zn3	Zn	1.058214	-0.440468	0.520111
Zn4	Zn	1.558214	0.059532	1.020111
Zn5	Zn	0.945516	-0.318247	0.520804
Zn6	Zn	1.445516	0.181753	1.020804
Zn7	Zn	0.940771	-0.435684	0.713036
Zn8	Zn	1.440771	0.064316	1.213036
O9	O	1.001883	-0.379333	0.620788
O10	O	1.501883	0.120667	1.120788
O11	O	1.160725	-0.342489	0.707940
O12	O	1.660725	0.157511	1.207940
O13	O	1.043234	-0.424296	0.352248
O14	O	1.543234	0.075704	0.852248
O15	O	0.965107	-0.220533	0.555504
O16	O	1.465107	0.279467	1.055504
O17	O	1.157185	-0.428841	0.554322
O18	O	1.657185	0.071159	1.054322
O19	O	1.051446	-0.223976	0.708612
O20	O	1.551446	0.276024	1.208612
O21	O	0.960435	-0.334501	0.352758
O22	O	1.460435	0.165499	0.852758
O23	O	0.846554	-0.329861	0.539829
O24	O	1.346554	0.170139	1.039829
O25	O	0.957020	-0.420686	0.883135
O26	O	1.457020	0.079314	1.383135
O27	O	0.843068	-0.416141	0.681061
O28	O	1.343068	0.083859	1.181061
O29	O	1.046845	-0.337850	0.895012
O30	O	1.546845	0.162150	1.395012
O31	O	1.038633	-0.538170	0.538648
O32	O	1.538633	-0.038170	1.038648
O33	O	0.952348	-0.534654	0.680389
O34	O	1.452348	-0.034654	1.180389
C35	C	0.819315	-0.371974	0.608767
C36	C	1.319315	0.128026	1.108767
C37	C	0.741211	-0.368842	0.603652
C38	C	1.241211	0.131158	1.103652
C39	C	0.702718	-0.412361	0.674655
C40	C	1.202718	0.087639	1.174655
C41	C	0.629331	-0.409409	0.669855
C42	C	1.129331	0.090591	1.169855
C43	C	0.594438	-0.362942	0.594044
C44	C	1.094438	0.137058	1.094044
C45	C	0.632936	-0.319419	0.523038
C46	C	1.132936	0.180581	1.023038
C47	C	0.706322	-0.322368	0.527846
C48	C	1.206322	0.177632	1.027846
C49	C	0.375152	-0.349296	0.571801
C50	C	0.875152	0.150704	1.071801
C51	C	0.301761	-0.346352	0.566997
C52	C	0.801761	0.153648	1.066997
C53	C	0.298161	-0.436341	0.713815
C54	C	0.798161	0.063659	1.213815
C55	C	0.371548	-0.439289	0.718611
C56	C	0.871548	0.060711	1.218611
C57	C	0.410040	-0.395763	0.647609
C58	C	0.910040	0.104237	1.147609
N59	N	0.519425	-0.359926	0.589133
N60	N	1.019425	0.140074	1.089133
N61	N	0.485052	-0.398777	0.652528
N62	N	0.985052	0.101223	1.152528
C63	C	0.994472	-0.561910	0.607717
C64	C	1.494472	-0.061910	1.107717
C65	C	0.991365	-0.640020	0.602169
C66	C	1.491365	-0.140020	1.102169
C67	C	1.034825	-0.678447	0.679338
C68	C	1.534825	-0.178447	1.179338
C69	C	1.031903	-0.751840	0.674127
C70	C	1.531903	-0.251840	1.174127
C71	C	0.985525	-0.786803	0.591741
C72	C	1.485525	-0.286803	1.091741
C73	C	0.942061	-0.748371	0.514568
C74	C	1.442061	-0.248371	1.014568
C75	C	0.944980	-0.674980	0.519786
C76	C	1.444980	-0.174980	1.019786
C77	C	0.971976	-1.006114	0.567587
C78	C	1.471976	-0.506114	1.067587
C79	C	0.969063	-1.079510	0.562373
C80	C	1.469063	-0.579510	1.062373
C81	C	1.058904	-1.082974	0.721934
C82	C	1.558904	-0.582974	1.221934
C83	C	1.061821	-1.009581	0.727139
C84	C	1.561821	-0.509581	1.227139
C85	C	1.018355	-0.971155	0.649971
C86	C	1.518355	-0.471155	1.149971
N87	N	0.982539	-0.861822	0.586410
N88	N	1.482539	-0.361822	1.086410
N89	N	1.021338	-0.896137	0.655309
N90	N	1.521338	-0.396137	1.155309
C91	C	1.185165	-0.386722	0.632857
C92	C	1.685165	0.113278	1.132857
C93	C	1.263268	-0.389870	0.638000
C94	C	1.763268	0.110130	1.138000
C95	C	1.001940	-0.379257	0.933840
C96	C	1.501940	0.120743	1.433840
C97	C	1.001965	-0.379225	1.067244
C98	C	1.501965	0.120775	1.567244
C99	C	1.009343	-0.196044	0.633938
C100	C	1.509343	0.303956	1.133938
C101	C	1.012522	-0.117937	0.639542
C102	C	1.512522	0.382063	1.139542
C103	C	1.001869	-0.379360	0.308961
C104	C	1.501869	0.120640	0.808961
C105	C	1.001989	-0.379200	0.175580
C106	C	1.501989	0.120800	0.675580
H107	H	0.731122	-0.450201	0.736384
H108	H	1.231122	0.049799	1.236384
H109	H	1.094291	-1.114268	0.784761
H110	H	1.594291	-0.614268	1.284761
H111	H	0.936586	-0.974833	0.504752
H112	H	1.436586	-0.474833	1.004752
H113	H	0.273354	-0.308505	0.505271
H114	H	0.773354	0.191495	1.005271
C115	C	0.918039	-1.117969	0.471753
C116	C	1.418039	-0.617969	0.971753
H117	H	0.892565	-1.084573	0.426550
H118	H	1.392565	-0.584573	0.926550
H119	H	0.943794	-1.147682	0.419230
H120	H	1.443794	-0.647682	0.919230
H121	H	0.886273	-1.145371	0.513587
H122	H	1.386273	-0.645371	1.013587
H123	H	1.067297	-0.783124	0.736957
H124	H	1.567297	-0.283124	1.236957
C125	C	1.112848	-0.971126	0.817746
C126	C	1.612848	-0.471126	1.317746
H127	H	1.138313	-1.004524	0.862959
H128	H	1.638313	-0.504524	1.362959
H129	H	1.144612	-0.943730	0.775907
H130	H	1.644612	-0.443730	1.275907
H131	H	1.087099	-0.941408	0.870279
H132	H	1.587099	-0.441408	1.370279
H133	H	0.604521	-0.281582	0.461317
H134	H	1.104521	0.218418	0.961317
H135	H	0.904297	-0.776844	0.447492
H136	H	1.404297	-0.276844	0.947492
H137	H	0.909590	-0.643693	0.456948
H138	H	1.409590	-0.143693	0.956948
H139	H	1.072593	-0.649985	0.746421
H140	H	1.572593	-0.149985	1.246421
C141	C	0.586990	-0.457322	0.747882
C142	C	1.086990	0.042678	1.247882
H143	H	0.618281	-0.485436	0.793686
H144	H	1.118281	0.014564	1.293686
H145	H	0.559444	-0.429366	0.800322
H146	H	1.059444	0.070634	1.300322
H147	H	0.557130	-0.486747	0.697746
H148	H	1.057130	0.013253	1.197746
H149	H	0.399952	-0.477128	0.780341
H150	H	0.899952	0.022872	1.280341
H151	H	0.266813	-0.471776	0.771622
H152	H	0.766813	0.028224	1.271622
C153	C	0.417487	-0.301424	0.493700
C154	C	0.917487	0.198576	0.993700
H155	H	0.466191	-0.309826	0.507426
H156	H	0.966191	0.190174	1.007426
H157	H	0.405022	-0.311170	0.411511
H158	H	0.905022	0.188830	0.911511
H159	H	0.407376	-0.253736	0.514000
H160	H	0.907376	0.246264	1.014000
H161	H	0.737662	-0.286927	0.470034
H162	H	1.237662	0.213073	0.970034
