data_functionalizedCrystal
_audit_creation_method	'MofGen! by Chris Wilmer'
_symmetry_space_group_name_H-M	'P1'
_symmetry_Int_Tables_number	1
_symmetry_cell_setting	triclinic
loop_
_symmetry_equiv_pos_as_xyz
  x,y,z
_cell_length_a	16.992695
_cell_length_b	17.699104
_cell_length_c	16.776229
_cell_angle_alpha	90.006643
_cell_angle_beta	90.003575
_cell_angle_gamma	86.979870
loop_
_atom_site_label
_atom_site_type_symbol
_atom_site_fract_x
_atom_site_fract_y
_atom_site_fract_z
O1	O	0.099220	1.010245	0.066305
O2	O	0.599220	1.510245	0.566305
O3	O	0.112102	0.790671	0.066304
O4	O	0.612102	1.290671	0.566304
O5	O	-0.008480	0.899578	0.066298
O6	O	0.491520	1.399578	0.566298
O7	O	0.219802	0.901338	0.066311
O8	O	0.719802	1.401338	0.566311
O9	O	-0.008480	0.899564	-0.066278
O10	O	0.491520	1.399564	0.433722
O11	O	0.112102	0.790657	-0.066273
O12	O	0.612102	1.290657	0.433727
O13	O	0.099220	1.010232	-0.066271
O14	O	0.599220	1.510232	0.433729
Zn15	Zn	0.105661	0.900442	-0.087321
Zn16	Zn	0.605661	1.400442	0.412679
Zn17	Zn	0.105661	0.900460	0.087354
Zn18	Zn	0.605661	1.400460	0.587354
O19	O	0.219802	0.901325	-0.066266
O20	O	0.719802	1.401325	0.433734
C21	C	0.111638	0.762438	0.000015
C22	C	0.611638	1.262438	0.500015
C23	C	0.110245	0.678334	0.000014
C24	C	0.610245	1.178334	0.500014
C25	C	0.173167	0.157381	0.000026
C26	C	0.673167	0.657381	0.500026
C27	C	0.174472	0.236406	0.000028
C28	C	0.674472	0.736406	0.500028
C29	C	0.103685	0.280616	0.000024
C30	C	0.603685	0.780616	0.500024
C31	C	0.031590	0.245798	0.000026
C32	C	0.531590	0.745798	0.500026
C33	C	0.030287	0.166774	0.000029
C34	C	0.530287	0.666774	0.500029
C35	C	0.036845	0.564491	0.000013
C36	C	0.536845	1.064491	0.500013
C37	C	0.038154	0.643520	0.000008
C38	C	0.538154	1.143520	0.500008
C39	C	0.181030	0.634123	0.000013
C40	C	0.681030	1.134123	0.500013
C41	C	0.179727	0.555099	0.000016
C42	C	0.679727	1.055099	0.500016
C43	C	0.107632	0.520288	0.000022
C44	C	0.607632	1.020288	0.500022
C45	C	0.106219	0.434600	0.000021
C46	C	0.606219	0.934600	0.500021
C47	C	0.105098	0.366303	0.000020
C48	C	0.605098	0.866303	0.500020
C49	C	-0.037688	0.897306	0.000010
C50	C	0.462312	1.397306	0.500010
C51	C	-0.124720	0.890549	0.000010
C52	C	0.375280	1.390549	0.500010
C53	C	-0.175080	0.955746	0.000010
C54	C	0.324920	1.455746	0.500010
C55	C	-0.256855	0.949393	0.000017
C56	C	0.243145	1.449393	0.500017
C57	C	-0.288269	0.877841	0.000019
C58	C	0.211731	1.377841	0.500019
C59	C	-0.237902	0.812639	0.000022
C60	C	0.262098	1.312639	0.500022
C61	C	-0.156129	0.818993	0.000020
C62	C	0.343871	1.318993	0.500020
C63	C	-0.531818	0.851505	0.000030
C64	C	-0.031818	1.351505	0.500030
C65	C	-0.613598	0.845156	0.000030
C66	C	-0.113598	1.345156	0.500030
C67	C	-0.632545	0.981910	0.000026
C68	C	-0.132545	1.481910	0.500026
C69	C	-0.550769	0.988258	0.000020
C70	C	-0.050769	1.488258	0.500020
C71	C	-0.500410	0.923056	0.000027
C72	C	-0.000410	1.423056	0.500027
N73	N	-0.371855	0.871345	0.000025
N74	N	0.128145	1.371345	0.500025
N75	N	-0.416825	0.929553	0.000027
N76	N	0.083175	1.429553	0.500027
C77	C	0.249011	0.903596	0.000024
C78	C	0.749011	1.403596	0.500024
C79	C	0.336042	0.910353	0.000029
C80	C	0.836042	1.410353	0.500029
C81	C	0.099684	1.038464	0.000019
C82	C	0.599684	1.538464	0.500019
C83	C	0.101078	1.122568	0.000025
C84	C	0.601078	1.622568	0.500025
N85	N	0.105660	0.900436	-0.206533
N86	N	0.605660	1.400436	0.293467
C87	C	0.153157	0.949208	-0.248243
C88	C	0.653157	1.449208	0.251757
C89	C	0.153154	0.949216	-0.331695
C90	C	0.653154	1.449216	0.168305
C91	C	0.105658	0.900448	-0.373436
C92	C	0.605658	1.400448	0.126564
C93	C	0.058156	0.851674	-0.331719
C94	C	0.558156	1.351674	0.168281
C95	C	0.058155	0.851671	-0.248269
C96	C	0.558155	1.351671	0.251731
C97	C	0.058157	0.851690	-0.668267
C98	C	0.558157	1.351690	-0.168267
C99	C	0.058163	0.851696	-0.751723
C100	C	0.558163	1.351696	-0.251723
C101	C	0.153156	0.949235	-0.751693
C102	C	0.653156	1.449235	-0.251693
C103	C	0.153155	0.949231	-0.668243
C104	C	0.653155	1.449231	-0.168243
C105	C	0.105650	0.900461	-0.626534
C106	C	0.605650	1.400461	-0.126534
C107	C	0.105653	0.900453	-0.536045
C108	C	0.605653	1.400453	-0.036045
C109	C	0.105659	0.900451	-0.463922
C110	C	0.605659	1.400451	0.036078
N111	N	0.105656	0.900472	0.206565
N112	N	0.605656	1.400472	0.706565
H113	H	-0.021859	0.536157	0.000016
H114	H	0.478141	1.036157	0.500016
O115	O	-0.686861	1.052231	0.000019
O116	O	-0.186861	1.552231	0.500019
H117	H	-0.675702	1.086248	0.054051
H118	H	-0.175702	1.586248	0.554051
O119	O	0.252231	0.273946	0.000022
O120	O	0.752231	0.773946	0.500022
H121	H	0.256258	0.309724	0.054060
H122	H	0.756258	0.809724	0.554060
O123	O	-0.101812	0.748671	0.000017
O124	O	0.398188	1.248671	0.500017
H125	H	-0.039673	0.765109	0.000023
H126	H	0.460327	1.265109	0.500023
H127	H	0.237368	0.519107	0.000015
H128	H	0.737368	1.019107	0.500015
O129	O	-0.038197	0.691209	0.000004
O130	O	0.461803	1.191209	0.500004
H131	H	-0.072698	0.678313	0.054046
H132	H	0.427302	1.178313	0.554046
H133	H	-0.639171	0.786887	0.000018
H134	H	-0.139171	1.286887	0.500018
O135	O	0.204385	1.001807	-0.203224
O136	O	0.704385	1.501807	0.296776
H137	H	0.237406	1.035727	-0.246251
H138	H	0.737406	1.535727	0.253749
H139	H	0.230810	0.121390	0.000023
H140	H	0.730810	0.621390	0.500023
H141	H	-0.297855	1.002484	0.000015
H142	H	0.202145	1.502484	0.500015
O143	O	0.006904	0.799101	-0.203258
O144	O	0.506904	1.299101	0.296742
H145	H	0.044517	0.760701	-0.165216
H146	H	0.544517	1.260701	0.334784
H147	H	-0.490825	0.798413	0.000036
H148	H	0.009175	1.298413	0.500036
H149	H	-0.525198	1.046523	0.000018
H150	H	-0.025198	1.546523	0.500018
H151	H	-0.026045	0.281800	0.000027
H152	H	0.473955	0.781800	0.500027
O153	O	-0.047466	0.129220	0.000020
O154	O	0.452534	0.629220	0.500020
H155	H	-0.096470	0.173236	0.000007
H156	H	0.403530	0.673236	0.500007
O157	O	0.204385	1.001817	-0.376686
O158	O	0.704385	1.501817	0.123314
H159	H	0.237419	1.035720	-0.333642
H160	H	0.737419	1.535720	0.166358
H161	H	0.239733	0.662476	0.000011
H162	H	0.739733	1.162476	0.500011
H163	H	0.019483	0.811981	-0.785706
H164	H	0.519483	1.311981	-0.285706
H165	H	-0.149510	1.014011	0.000003
H166	H	0.350490	1.514011	0.500003
H167	H	-0.263486	0.754380	0.000029
H168	H	0.236514	1.254380	0.500029
O169	O	0.204383	1.001829	-0.623220
O170	O	0.704383	1.501829	-0.123220
H171	H	0.237407	1.035750	-0.666245
H172	H	0.737407	1.535750	-0.166245
O173	O	0.204379	1.001853	-0.796684
O174	O	0.704379	1.501853	-0.296684
H175	H	0.246555	0.968126	-0.834717
H176	H	0.746555	1.468126	-0.334717
O177	O	0.006931	0.799082	-0.623284
O178	O	0.506931	1.299082	-0.123284
H179	H	-0.026085	0.765165	-0.666331
H180	H	0.473915	1.265165	-0.166331
O181	O	0.006928	0.799070	-0.376733
O182	O	0.506928	1.299070	0.123267
H183	H	0.014914	0.807259	-0.441770
H184	H	0.514914	1.307259	0.058230
