data_functionalizedCrystal
_audit_creation_method	'MofGen! by Chris Wilmer'
_symmetry_space_group_name_H-M	'P1'
_symmetry_Int_Tables_number	1
_symmetry_cell_setting	triclinic
loop_
_symmetry_equiv_pos_as_xyz
  x,y,z
_cell_length_a	15.995350
_cell_length_b	15.995350
_cell_length_c	15.186229
_cell_angle_alpha	89.998487
_cell_angle_beta	90.000289
_cell_angle_gamma	83.492375
loop_
_atom_site_label
_atom_site_type_symbol
_atom_site_fract_x
_atom_site_fract_y
_atom_site_fract_z
O1	O	1.110984	0.107926	-0.073150
O2	O	1.610984	0.607926	0.426850
O3	O	0.867209	0.121253	-0.073167
O4	O	1.367209	0.621253	0.426833
O5	O	0.995760	-0.007298	-0.073157
O6	O	1.495760	0.492702	0.426843
O7	O	0.982433	0.236477	-0.073160
O8	O	1.482433	0.736477	0.426840
O9	O	0.995752	-0.007300	0.073300
O10	O	1.495752	0.492700	0.573300
O11	O	0.867200	0.121251	0.073290
O12	O	1.367200	0.621251	0.573290
O13	O	1.110976	0.107924	0.073308
O14	O	1.610976	0.607924	0.573308
Zn15	Zn	0.989087	0.114587	0.096552
Zn16	Zn	1.489087	0.614587	0.596552
Zn17	Zn	0.989098	0.114590	-0.096412
Zn18	Zn	1.489098	0.614590	0.403588
O19	O	0.982424	0.236475	0.073298
O20	O	1.482424	0.736475	0.573298
C21	C	0.836010	0.120701	0.000059
C22	C	1.336010	0.620701	0.500059
C23	C	0.743060	0.119049	0.000052
C24	C	1.243060	0.619049	0.500052
C25	C	0.405312	0.113117	0.000071
C26	C	0.905312	0.613117	0.500071
C27	C	0.452746	0.021565	0.000398
C28	C	0.952746	0.521565	0.500398
C29	C	0.549436	0.023217	0.000062
C30	C	1.049436	0.523217	0.500062
C31	C	0.572873	0.116060	0.000062
C32	C	1.072873	0.616060	0.500062
C33	C	0.531790	0.161217	-0.083569
C34	C	1.031790	0.661217	0.416431
C35	C	0.435155	0.158917	-0.083633
C36	C	0.935155	0.658917	0.416367
C37	C	0.434806	0.160807	0.082916
C38	C	0.934806	0.660807	0.582916
C39	C	0.531751	0.160785	0.084015
C40	C	1.031751	0.660785	0.584015
C41	C	0.667570	0.117727	0.000054
C42	C	1.167570	0.617727	0.500054
C43	C	0.310614	0.111452	0.000073
C44	C	0.810614	0.611452	0.500073
C45	C	0.995205	-0.038494	0.000070
C46	C	1.495205	0.461506	0.500070
C47	C	0.993553	-0.131444	0.000065
C48	C	1.493553	0.368556	0.500065
C49	C	0.987621	-0.469192	0.000067
C50	C	1.487621	0.030808	0.500067
C51	C	0.896069	-0.421758	-0.000268
C52	C	1.396069	0.078242	0.499732
C53	C	0.897721	-0.325068	0.000062
C54	C	1.397721	0.174932	0.500062
C55	C	0.990564	-0.301631	0.000066
C56	C	1.490564	0.198369	0.500066
C57	C	1.035715	-0.342710	0.083702
C58	C	1.535715	0.157290	0.583702
C59	C	1.033415	-0.439346	0.083771
C60	C	1.533415	0.060654	0.583771
C61	C	1.035317	-0.439702	-0.082778
C62	C	1.535317	0.060298	0.417222
C63	C	1.035295	-0.342756	-0.083883
C64	C	1.535295	0.157244	0.416117
C65	C	0.992231	-0.206934	0.000068
C66	C	1.492231	0.293066	0.500068
C67	C	0.985956	-0.563890	0.000071
C68	C	1.485956	-0.063890	0.500071
C69	C	1.142175	0.108476	0.000079
C70	C	1.642175	0.608476	0.500079
C71	C	1.235125	0.110127	0.000081
C72	C	1.735125	0.610127	0.500081
C73	C	0.982980	0.267671	0.000069
C74	C	1.482980	0.767671	0.500069
C75	C	0.984631	0.360621	0.000068
C76	C	1.484631	0.860621	0.500068
N77	N	0.989085	0.114585	0.228245
N78	N	1.489085	0.614585	0.728245
N79	N	0.989106	0.114585	-0.228104
N80	N	1.489106	0.614585	0.271896
C81	C	1.046027	0.057682	0.453972
C82	C	1.546027	0.557682	0.953972
C83	C	1.046030	0.057680	0.546162
C84	C	1.546030	0.557680	1.046162
C85	C	0.932158	0.171491	0.546162
C86	C	1.432158	0.671491	1.046162
C87	C	0.932152	0.171488	0.453974
C88	C	1.432152	0.671488	0.953974
C89	C	0.989091	0.114585	0.407881
C90	C	1.489091	0.614585	0.907881
C91	C	0.989100	0.114585	0.592259
C92	C	1.489100	0.614585	1.092259
C93	C	0.989102	0.114584	0.692215
C94	C	1.489102	0.614584	1.192215
C95	C	0.989088	0.114585	0.307919
C96	C	1.489088	0.614585	0.807919
H97	H	0.545916	0.229426	-0.086679
H98	H	1.045916	0.729426	0.413321
H99	H	0.402906	0.226133	-0.087428
H100	H	0.902906	0.726133	0.412572
H101	H	1.000484	-0.457648	0.146288
H102	H	1.500484	0.042352	0.646288
Cl103	Cl	0.842541	-0.282041	0.092775
Cl104	Cl	1.342541	0.217959	0.592775
H105	H	0.414267	0.130876	0.146307
H106	H	0.914267	0.630876	0.646307
H107	H	0.885784	0.217826	0.416444
H108	H	1.385784	0.717826	0.916444
Cl109	Cl	1.139826	-0.319036	-0.091683
Cl110	Cl	1.639826	0.180964	0.408317
H111	H	1.005387	-0.460241	-0.146169
H112	H	1.505387	0.039759	0.353831
Cl113	Cl	0.575599	0.112796	-0.179666
Cl114	Cl	1.075599	0.612796	0.320334
Cl115	Cl	0.839573	-0.450366	-0.092869
Cl116	Cl	1.339573	0.049634	0.407131
H117	H	1.004348	-0.314329	0.145938
H118	H	1.504348	0.185671	0.645938
Cl119	Cl	0.424139	-0.034939	0.092996
Cl120	Cl	0.924139	0.465061	0.592996
H121	H	0.577862	-0.012279	0.060013
H122	H	1.077862	0.487721	0.560013
H123	H	0.885801	0.217822	0.583700
H124	H	1.385801	0.717822	1.083700
H125	H	1.092391	0.011343	0.583686
H126	H	1.592391	0.511343	1.083686
H127	H	0.433156	-0.014861	-0.059245
H128	H	0.933156	0.485139	0.440755
H129	H	0.577298	-0.012517	-0.059992
H130	H	1.077298	0.487483	0.440008
H131	H	0.416850	0.125988	-0.146149
H132	H	0.916850	0.625988	0.353851
H133	H	0.559064	0.127820	0.145886
H134	H	1.059064	0.627820	0.645886
H135	H	1.002283	-0.315507	-0.145755
H136	H	1.502283	0.184493	0.354245
H137	H	0.547116	0.228488	0.089067
H138	H	1.047116	0.728488	0.589067
H139	H	0.403044	0.228307	0.083482
H140	H	0.903044	0.728307	0.583482
H141	H	0.862229	-0.296645	-0.059891
H142	H	1.362229	0.203355	0.440109
H143	H	0.859636	-0.441353	0.059370
H144	H	1.359636	0.058647	0.559370
Cl145	Cl	1.117604	-0.013858	0.396031
Cl146	Cl	1.617604	0.486142	0.896031
Cl147	Cl	1.137188	-0.489138	0.089646
Cl148	Cl	1.637188	0.010862	0.589646
H149	H	1.102817	-0.471462	-0.083338
H150	H	1.602817	0.028538	0.416662
Cl151	Cl	1.141025	-0.320903	0.088513
Cl152	Cl	1.641025	0.179097	0.588513
