data_functionalizedCrystal
_audit_creation_method	'MofGen! by Chris Wilmer'
_symmetry_space_group_name_H-M	'P1'
_symmetry_Int_Tables_number	1
_symmetry_cell_setting	triclinic
loop_
_symmetry_equiv_pos_as_xyz
  x,y,z
_cell_length_a	19.077105
_cell_length_b	14.908520
_cell_length_c	19.076919
_cell_angle_alpha	84.570994
_cell_angle_beta	89.923776
_cell_angle_gamma	91.150228
loop_
_atom_site_label
_atom_site_type_symbol
_atom_site_fract_x
_atom_site_fract_y
_atom_site_fract_z
Zn1	Zn	1.037881	-0.436364	0.459234
Zn2	Zn	1.537881	0.063636	0.959234
Zn3	Zn	1.035744	-0.581390	0.347980
Zn4	Zn	1.535744	-0.081390	0.847980
Zn5	Zn	0.925663	-0.424281	0.336506
Zn6	Zn	1.425663	0.075719	0.836506
Zn7	Zn	0.913591	-0.580846	0.460710
Zn8	Zn	1.413591	-0.080846	0.960710
O9	O	0.978220	-0.505720	0.401107
O10	O	1.478220	-0.005720	0.901107
O11	O	1.135682	-0.460886	0.448660
O12	O	1.635682	0.039114	0.948660
O13	O	1.025299	-0.555720	0.247919
O14	O	1.525299	-0.055720	0.747919
O15	O	0.946495	-0.299666	0.347366
O16	O	1.446495	0.200334	0.847366
O17	O	1.134112	-0.567437	0.366923
O18	O	1.634112	-0.067437	0.866923
O19	O	1.028941	-0.308543	0.437534
O20	O	1.528941	0.191457	0.937534
O21	O	0.944423	-0.440292	0.239489
O22	O	1.444423	0.059708	0.739489
O23	O	0.825977	-0.439765	0.348797
O24	O	1.325977	0.060235	0.848797
O25	O	0.925920	-0.566510	0.559053
O26	O	1.425920	-0.066510	1.059053
O27	O	0.817107	-0.554793	0.440049
O28	O	1.317107	-0.054793	0.940049
O29	O	1.017235	-0.460359	0.557969
O30	O	1.517235	0.039641	1.057969
O31	O	1.013594	-0.707536	0.368354
O32	O	1.513594	-0.207536	0.868354
O33	O	0.923848	-0.707136	0.451175
O34	O	1.423848	-0.207136	0.951175
C35	C	0.796110	-0.495910	0.393339
C36	C	1.296110	0.004090	0.893339
C37	C	0.718201	-0.491735	0.390033
C38	C	1.218201	0.008265	0.890033
C39	C	0.676998	-0.549746	0.435923
C40	C	1.176998	-0.049746	0.935923
C41	C	0.603795	-0.545812	0.432820
C42	C	1.103795	-0.045812	0.932820
C43	C	0.571795	-0.483870	0.383823
C44	C	1.071795	0.016130	0.883823
C45	C	0.613003	-0.425853	0.337931
C46	C	1.113003	0.074147	0.837931
C47	C	0.686205	-0.429783	0.341038
C48	C	1.186205	0.070217	0.841038
C49	C	0.353358	-0.465680	0.369446
C50	C	0.853358	0.034320	0.869446
C51	C	0.280150	-0.461756	0.366341
C52	C	0.780150	0.038244	0.866341
C53	C	0.270947	-0.581715	0.461231
C54	C	0.770947	-0.081715	0.961231
C55	C	0.344151	-0.585643	0.464331
C56	C	0.844151	-0.085643	0.964331
C57	C	0.385353	-0.527623	0.418441
C58	C	0.885353	-0.027623	0.918441
N59	N	0.496969	-0.479850	0.380648
N60	N	0.996969	0.020150	0.880648
N61	N	0.460177	-0.531640	0.421620
N62	N	0.960177	-0.031640	0.921620
C63	C	0.967198	-0.740065	0.411186
C64	C	1.467198	-0.240065	0.911186
C65	C	0.962545	-0.840323	0.415524
C66	C	1.462545	-0.340323	0.915524
C67	C	1.047344	-1.029082	0.337510
C68	C	1.547344	-0.529082	0.837510
C69	C	1.042976	-1.123283	0.341584
C70	C	1.542976	-0.623283	0.841584
C71	C	0.949443	-1.122929	0.427749
C72	C	1.449443	-0.622929	0.927749
C73	C	0.953812	-1.028727	0.423675
C74	C	1.453812	-0.528727	0.923675
C75	C	1.002763	-0.981807	0.378553
C76	C	1.502763	-0.481807	0.878553
C77	C	1.007128	-0.887604	0.374476
C78	C	1.507128	-0.387604	0.874476
C79	C	0.913600	-0.887251	0.460644
C80	C	1.413600	-0.387251	0.960644
C81	C	0.909231	-0.981453	0.464718
C82	C	1.409231	-0.481453	0.964718
C83	C	1.161040	-0.515570	0.408907
C84	C	1.661040	-0.015570	0.908907
C85	C	1.238948	-0.519767	0.412230
C86	C	1.738948	-0.019767	0.912230
C87	C	0.970470	-0.514721	0.584776
C88	C	1.470470	-0.014721	1.084776
C89	C	0.967167	-0.518557	0.663044
C90	C	1.467167	-0.018557	1.163044
C91	C	0.989303	-0.270463	0.391006
C92	C	1.489303	0.229537	0.891006
C93	C	0.994026	-0.170210	0.386701
C94	C	1.494026	0.329790	0.886701
C95	C	0.985983	-0.496691	0.218153
C96	C	1.485983	0.003309	0.718153
C97	C	0.989433	-0.492609	0.139879
C98	C	1.489433	0.007391	0.639879
C99	C	1.013156	-0.465095	0.699251
C100	C	1.513156	0.034905	1.199251
C101	C	1.010044	-0.468695	0.772793
C102	C	1.510044	0.031305	1.272793
C103	C	0.960947	-0.525763	0.810125
C104	C	1.460947	-0.025763	1.310125
C105	C	0.914953	-0.579227	0.773913
C106	C	1.414953	-0.079227	1.273913
C107	C	0.918062	-0.575622	0.700373
C108	C	1.418062	-0.075622	1.200373
C109	C	0.946548	-0.542468	1.030127
C110	C	1.446548	-0.042468	1.530127
C111	C	0.943444	-0.546071	1.103672
C112	C	1.443444	-0.046071	1.603672
C113	C	1.038535	-0.435537	1.102547
C114	C	1.538535	0.064463	1.602547
C115	C	1.041642	-0.431941	1.029006
C116	C	1.541642	0.068059	1.529006
C117	C	0.995646	-0.485402	0.992799
C118	C	1.495646	0.014598	1.492799
N119	N	0.957767	-0.529446	0.885296
N120	N	1.457767	-0.029446	1.385296
N121	N	0.998824	-0.481713	0.917629
N122	N	1.498824	0.018287	1.417629
H123	H	0.386895	-0.418442	0.332074
H124	H	0.886895	0.081558	0.832074
Br125	Br	1.073557	-0.823926	0.313236
Br126	Br	1.573557	-0.323926	0.813236
Br127	Br	0.720419	-0.633821	0.502417
Br128	Br	1.220419	-0.133821	1.002417
Br129	Br	0.883026	-1.186623	0.488992
Br130	Br	1.383026	-0.686623	0.988992
H131	H	0.877297	-0.848750	0.494062
H132	H	1.377297	-0.348750	0.994062
Br133	Br	0.569575	-0.341780	0.271440
Br134	Br	1.069575	0.158220	0.771440
Br135	Br	1.072491	-0.396179	0.821932
Br136	Br	1.572491	0.103821	1.321932
H137	H	1.075982	-0.392011	1.132034
H138	H	1.575982	0.107989	1.632034
Br139	Br	0.742124	-0.351046	0.278760
Br140	Br	1.242124	0.148954	0.778760
Br141	Br	1.079797	-0.387648	0.648593
Br142	Br	1.579797	0.112352	1.148593
Br143	Br	1.108279	-0.354491	0.978345
Br144	Br	1.608279	0.145509	1.478345
Br145	Br	0.547880	-0.624543	0.495103
Br146	Br	1.047880	-0.124543	0.995103
Br147	Br	0.884123	-0.615021	0.980998
Br148	Br	1.384123	-0.115021	1.480998
Br149	Br	0.876805	-0.623523	1.154338
Br150	Br	1.376805	-0.123523	1.654338
H151	H	1.087198	-0.990878	0.300765
H152	H	1.587198	-0.490878	0.800765
Br153	Br	0.842804	-1.045139	0.525955
Br154	Br	1.342804	-0.545139	1.025955
Br155	Br	1.103484	-1.187440	0.285884
Br156	Br	1.603484	-0.687440	0.785884
H157	H	0.874974	-0.625690	0.804315
H158	H	1.374974	-0.125690	1.304315
H159	H	0.880606	-0.619147	0.670893
H160	H	1.380606	-0.119147	1.170893
Br161	Br	0.236722	-0.377696	0.299833
Br162	Br	0.736722	0.122304	0.799833
Br163	Br	0.215028	-0.660456	0.523503
Br164	Br	0.715028	-0.160456	1.023503
Br165	Br	0.387574	-0.669715	0.530825
Br166	Br	0.887574	-0.169715	1.030825
