data_functionalizedCrystal
_audit_creation_method	'MofGen! by Chris Wilmer'
_symmetry_space_group_name_H-M	'P1'
_symmetry_Int_Tables_number	1
_symmetry_cell_setting	triclinic
loop_
_symmetry_equiv_pos_as_xyz
  x,y,z
_cell_length_a	16.625548
_cell_length_b	16.625545
_cell_length_c	13.897441
_cell_angle_alpha	89.968843
_cell_angle_beta	89.978130
_cell_angle_gamma	90.026626
loop_
_atom_site_label
_atom_site_type_symbol
_atom_site_fract_x
_atom_site_fract_y
_atom_site_fract_z
Zn1	Zn	1.232674	-0.320953	-0.545407
Zn2	Zn	1.482674	-0.070953	-0.295407
Zn3	Zn	1.732674	0.179047	-0.045407
Zn4	Zn	1.982674	0.429047	0.204593
Zn5	Zn	1.232566	-0.455803	-0.384106
Zn6	Zn	1.482566	-0.205803	-0.134106
Zn7	Zn	1.732566	0.044197	0.115894
Zn8	Zn	1.982566	0.294197	0.365894
Zn9	Zn	1.097832	-0.320991	-0.384122
Zn10	Zn	1.347832	-0.070991	-0.134122
Zn11	Zn	1.597832	0.179009	0.115878
Zn12	Zn	1.847832	0.429009	0.365878
Zn13	Zn	1.097798	-0.455750	-0.545356
Zn14	Zn	1.347798	-0.205750	-0.295356
Zn15	Zn	1.597798	0.044250	-0.045356
Zn16	Zn	1.847798	0.294250	0.204644
O17	O	1.165218	-0.388374	-0.464748
O18	O	1.415218	-0.138374	-0.214748
O19	O	1.665218	0.111626	0.035252
O20	O	1.915218	0.361626	0.285252
O21	O	1.345492	-0.338848	-0.524025
O22	O	1.595492	-0.088848	-0.274025
O23	O	1.845492	0.161152	-0.024025
O24	O	2.095492	0.411152	0.225975
O25	O	1.214663	-0.437958	-0.249127
O26	O	1.464663	-0.187958	0.000873
O27	O	1.714663	0.062042	0.250873
O28	O	1.964663	0.312042	0.500873
O29	O	1.115778	-0.208153	-0.405544
O30	O	1.365778	0.041847	-0.155544
O31	O	1.615778	0.291847	0.094456
O32	O	1.865778	0.541847	0.344456
O33	O	1.345413	-0.437922	-0.405518
O34	O	1.595413	-0.187922	-0.155518
O35	O	1.845413	0.062078	0.094482
O36	O	2.095413	0.312078	0.344482
O37	O	1.214846	-0.208126	-0.524040
O38	O	1.464846	0.041874	-0.274040
O39	O	1.714846	0.291874	-0.024040
O40	O	1.964846	0.541874	0.225960
O41	O	1.115674	-0.338912	-0.249138
O42	O	1.365674	-0.088912	0.000862
O43	O	1.615674	0.161088	0.250862
O44	O	1.865674	0.411088	0.500862
O45	O	0.984995	-0.338860	-0.405495
O46	O	1.234995	-0.088860	-0.155495
O47	O	1.484995	0.161140	0.094505
O48	O	1.734995	0.411140	0.344505
O49	O	1.115721	-0.437830	-0.680344
O50	O	1.365721	-0.187830	-0.430344
O51	O	1.615721	0.062170	-0.180344
O52	O	1.865721	0.312170	0.069656
O53	O	0.984971	-0.437867	-0.523953
O54	O	1.234971	-0.187867	-0.273953
O55	O	1.484971	0.062133	-0.023953
O56	O	1.734971	0.312133	0.226047
O57	O	1.214813	-0.338796	-0.680382
O58	O	1.464813	-0.088796	-0.430382
O59	O	1.714813	0.161204	-0.180382
O60	O	1.964813	0.411204	0.069618
O61	O	1.214630	-0.568629	-0.405469
O62	O	1.464630	-0.318629	-0.155469
O63	O	1.714630	-0.068629	0.094531
O64	O	1.964630	0.181371	0.344531
O65	O	1.115617	-0.568589	-0.523938
O66	O	1.365617	-0.318589	-0.273938
O67	O	1.615617	-0.068589	-0.023938
O68	O	1.865617	0.181411	0.226062
C69	C	0.955727	-0.388363	-0.464721
C70	C	1.205727	-0.138363	-0.214721
C71	C	1.455727	0.111637	0.035279
C72	C	1.705727	0.361637	0.285279
C73	C	0.866106	-0.388377	-0.464732
C74	C	1.116106	-0.138377	-0.214732
C75	C	1.366106	0.111623	0.035268
C76	C	1.616106	0.361623	0.285268
C77	C	0.537930	-0.388382	-0.464773
C78	C	0.787930	-0.138382	-0.214773
C79	C	1.037930	0.111618	0.035227
C80	C	1.287930	0.361618	0.285227
C81	C	0.629239	-0.388379	-0.464759
C82	C	0.879239	-0.138379	-0.214759
C83	C	1.129239	0.111621	0.035241
C84	C	1.379239	0.361621	0.285241
C85	C	0.702015	-0.388380	-0.464752
C86	C	0.952015	-0.138380	-0.214752
C87	C	1.202015	0.111620	0.035248
C88	C	1.452015	0.361620	0.285248
C89	C	0.793329	-0.388376	-0.464739
C90	C	1.043329	-0.138376	-0.214739
C91	C	1.293329	0.111624	0.035261
C92	C	1.543329	0.361624	0.285261
C93	C	1.165130	-0.597865	-0.464717
C94	C	1.415130	-0.347865	-0.214717
C95	C	1.665130	-0.097865	0.035283
C96	C	1.915130	0.152135	0.285283
C97	C	1.165166	-0.687486	-0.464737
C98	C	1.415166	-0.437486	-0.214737
C99	C	1.665166	-0.187486	0.035263
C100	C	1.915166	0.062514	0.285263
C101	C	1.165198	-0.760269	-0.464756
C102	C	1.415198	-0.510269	-0.214756
C103	C	1.665198	-0.260269	0.035244
C104	C	1.915198	-0.010269	0.285244
C105	C	1.165245	-0.851577	-0.464777
C106	C	1.415245	-0.601577	-0.214777
C107	C	1.665245	-0.351577	0.035223
C108	C	1.915245	-0.101577	0.285223
C109	C	1.165286	-0.924353	-0.464789
C110	C	1.415286	-0.674353	-0.214789
C111	C	1.665286	-0.424353	0.035211
C112	C	1.915286	-0.174353	0.285211
C113	C	1.165333	-1.015668	-0.464809
C114	C	1.415333	-0.765668	-0.214809
C115	C	1.665333	-0.515668	0.035191
C116	C	1.915333	-0.265668	0.285191
C117	C	1.375527	-0.388386	-0.464775
C118	C	1.625527	-0.138386	-0.214775
C119	C	1.875527	0.111614	0.035225
C120	C	2.125527	0.361614	0.285225
C121	C	1.465148	-0.388392	-0.464787
C122	C	1.715148	-0.138392	-0.214787
C123	C	1.965148	0.111608	0.035213
C124	C	2.215148	0.361608	0.285213
C125	C	1.165275	-0.388303	-0.716341
C126	C	1.415275	-0.138303	-0.466341
C127	C	1.665275	0.111697	-0.216341
C128	C	1.915275	0.361697	0.033659
C129	C	1.165299	-0.388273	-0.823555
C130	C	1.415299	-0.138273	-0.573555
C131	C	1.665299	0.111727	-0.323555
C132	C	1.915299	0.361727	-0.073555
C133	C	1.165328	-0.178065	-0.464799
C134	C	1.415328	0.071935	-0.214799
C135	C	1.665328	0.321935	0.035201
C136	C	1.915328	0.571935	0.285201
C137	C	1.165374	-0.088444	-0.464821
C138	C	1.415374	0.161556	-0.214821
C139	C	1.665374	0.411556	0.035179
C140	C	1.915374	0.661556	0.285179
C141	C	1.165321	-0.388218	-1.019850
C142	C	1.415321	-0.138218	-0.769850
C143	C	1.665321	0.111782	-0.519850
C144	C	1.915321	0.361782	-0.269850
C145	C	1.165307	-0.388251	-0.910618
C146	C	1.415307	-0.138251	-0.660618
C147	C	1.665307	0.111749	-0.410618
C148	C	1.915307	0.361749	-0.160618
C149	C	1.165207	-0.388387	-0.214133
C150	C	1.415207	-0.138387	0.035867
C151	C	1.665207	0.111613	0.285867
C152	C	1.915207	0.361613	0.535867
C153	C	1.165339	-0.388190	-0.106920
C154	C	1.415339	-0.138190	0.143080
C155	C	1.665339	0.111810	0.393080
C156	C	1.915339	0.361810	0.643080
