data_functionalizedCrystal
_audit_creation_method	'MofGen! by Chris Wilmer'
_symmetry_space_group_name_H-M	'P1'
_symmetry_Int_Tables_number	1
_symmetry_cell_setting	triclinic
loop_
_symmetry_equiv_pos_as_xyz
  x,y,z
_cell_length_a	17.077404
_cell_length_b	12.645330
_cell_length_c	17.077396
_cell_angle_alpha	90.024069
_cell_angle_beta	90.019501
_cell_angle_gamma	90.017917
loop_
_atom_site_label
_atom_site_type_symbol
_atom_site_fract_x
_atom_site_fract_y
_atom_site_fract_z
Zn1	Zn	1.200083	-0.422033	0.443867
Zn2	Zn	1.200002	-0.599318	0.312611
Zn3	Zn	1.068815	-0.422070	0.312615
Zn4	Zn	1.068795	-0.599256	0.443834
O5	O	1.134424	-0.510669	0.378232
O6	O	1.309919	-0.445561	0.426467
O7	O	1.182574	-0.575848	0.202764
O8	O	1.086270	-0.273718	0.330041
O9	O	1.309860	-0.575812	0.330034
O10	O	1.182712	-0.273691	0.426471
O11	O	1.086192	-0.445624	0.202767
O12	O	0.958965	-0.445563	0.330009
O13	O	1.086236	-0.575705	0.553686
O14	O	0.958950	-0.575741	0.426416
O15	O	1.182693	-0.445500	0.553709
O16	O	1.182555	-0.747657	0.330003
O17	O	1.086157	-0.747611	0.426412
C18	C	0.930476	-0.510650	0.378210
C19	C	0.843226	-0.510667	0.378219
C20	C	0.802249	-0.578553	0.428338
C21	C	0.720268	-0.578555	0.428350
C22	C	0.679267	-0.510677	0.378240
C23	C	0.720250	-0.442783	0.328119
C24	C	0.802229	-0.442777	0.328111
C25	C	0.549380	-0.442804	0.328138
C26	C	0.467395	-0.442812	0.328145
C27	C	0.467419	-0.578583	0.428377
C28	C	0.549398	-0.578576	0.428369
C29	C	0.590376	-0.510684	0.378247
C30	C	1.134366	-0.786099	0.378221
C31	C	1.134414	-0.903929	0.378242
C32	C	1.074020	-1.071508	0.439080
C33	C	1.073711	-0.948949	0.438885
C34	C	1.112022	-0.948522	0.295515
C35	C	1.111653	-1.071120	0.295885
C36	C	1.217568	-1.071018	0.399460
C37	C	1.217059	-0.948411	0.401269
C38	C	1.339168	-0.510689	0.378254
C39	C	1.426418	-0.510698	0.378263
C40	C	1.134471	-0.510591	0.582976
C41	C	1.134491	-0.510558	0.670226
C42	C	1.134502	-0.234164	0.378260
C43	C	1.134536	-0.116334	0.378272
C44	C	1.134421	-0.510671	0.174284
C45	C	1.134553	-0.510405	0.087034
C46	C	1.184718	-0.442755	0.711230
C47	C	1.184728	-0.442719	0.793210
C48	C	1.134514	-0.510493	0.834185
C49	C	1.084281	-0.578300	0.793176
C50	C	1.084268	-0.578329	0.711197
C51	C	1.084313	-0.578236	0.964046
C52	C	1.084326	-0.578208	1.046031
C53	C	1.184772	-0.442627	1.046059
C54	C	1.184759	-0.442656	0.964080
C55	C	1.134528	-0.510464	0.923076
H56	H	0.835591	-0.387492	0.287304
H57	H	1.154702	-0.919362	0.248970
H58	H	0.582779	-0.633855	0.469169
N59	N	0.997272	-1.110254	0.421715
N60	N	0.960983	-1.163948	0.471292
H61	H	0.906778	-1.191311	0.459027
N62	N	1.236022	-0.373524	0.669390
N63	N	1.280862	-0.312989	0.706015
H64	H	1.317096	-0.264090	0.676469
N65	N	1.032984	-0.647534	0.835020
N66	N	1.038147	-0.745359	0.825853
H67	H	1.001914	-0.794257	0.855401
N68	N	1.236081	-0.373344	1.087927
N69	N	1.280913	-0.312841	1.051333
H70	H	1.317152	-0.263914	1.080904
N71	N	0.425554	-0.647938	0.479563
N72	N	0.352360	-0.647942	0.479563
H73	H	0.322788	-0.696928	0.515707
H74	H	0.434014	-0.387527	0.287350
N75	N	1.032952	-0.647574	0.669309
N76	N	0.960523	-0.640524	0.678453
H77	H	0.924276	-0.689425	0.648870
H78	H	1.225629	-0.387510	0.826592
H79	H	0.835626	-0.633831	0.469141
N80	N	1.243205	-1.109720	0.473843
N81	N	1.251131	-1.206909	0.484551
H82	H	1.269231	-1.234245	0.537087
N83	N	1.091479	-1.108337	0.516294
N84	N	1.148721	-1.168060	0.527410
H85	H	1.161068	-1.194050	0.581948
H86	H	0.686908	-0.633836	0.469161
N87	N	0.996495	-0.912232	0.421298
N88	N	0.984942	-0.855805	0.362338
H89	H	0.930404	-0.829862	0.349930
H90	H	1.087720	-0.918796	0.500226
N91	N	1.274121	-1.107380	0.343893
N92	N	1.253470	-1.166410	0.288903
H93	H	1.293404	-1.192094	0.249655
H94	H	0.582741	-0.387510	0.287331
N95	N	1.032998	-0.647400	1.087875
N96	N	0.988127	-0.707901	1.051258
H97	H	0.951862	-0.756752	1.080810
H98	H	1.043396	-0.633436	0.930663
H99	H	1.233945	-0.919262	0.462152
H100	H	0.686860	-0.387511	0.287322
H101	H	1.050956	-1.099811	0.277936
H102	H	1.225653	-0.387474	0.930721
H103	H	1.153818	-1.100776	0.249033
H104	H	1.051958	-0.917910	0.277242
N105	N	1.276594	-0.909959	0.349748
N106	N	1.259002	-0.848877	0.294972
H107	H	1.301047	-0.821723	0.258577
