data_functionalizedCrystal
_audit_creation_method	'MofGen! by Chris Wilmer'
_symmetry_space_group_name_H-M	'P1'
_symmetry_Int_Tables_number	1
_symmetry_cell_setting	triclinic
loop_
_symmetry_equiv_pos_as_xyz
  x,y,z
_cell_length_a	16.120490
_cell_length_b	16.120484
_cell_length_c	11.169409
_cell_angle_alpha	87.139270
_cell_angle_beta	92.919204
_cell_angle_gamma	90.164100
loop_
_atom_site_label
_atom_site_type_symbol
_atom_site_fract_x
_atom_site_fract_y
_atom_site_fract_z
Zn1	Zn	1.254512	-0.395595	0.798882
Zn2	Zn	1.587845	-0.062262	1.132216
Zn3	Zn	1.921179	0.271071	1.465549
Zn4	Zn	1.247346	-0.534674	0.607804
Zn5	Zn	1.580680	-0.201341	0.941137
Zn6	Zn	1.914013	0.131993	1.274471
Zn7	Zn	1.115442	-0.388576	0.587559
Zn8	Zn	1.448775	-0.055243	0.920892
Zn9	Zn	1.782108	0.278090	1.254225
Zn10	Zn	1.108364	-0.527541	0.797789
Zn11	Zn	1.441697	-0.194207	1.131122
Zn12	Zn	1.775031	0.139126	1.464456
O13	O	1.181416	-0.461597	0.698009
O14	O	1.514749	-0.128263	1.031342
O15	O	1.848083	0.205070	1.364675
O16	O	1.369927	-0.419968	0.782466
O17	O	1.703261	-0.086634	1.115799
O18	O	2.036594	0.246699	1.449133
O19	O	1.229812	-0.515342	0.437169
O20	O	1.563145	-0.182008	0.770503
O21	O	1.896479	0.151325	1.103836
O22	O	1.139850	-0.273145	0.607576
O23	O	1.473184	0.060188	0.940910
O24	O	1.806517	0.393521	1.274243
O25	O	1.364663	-0.522148	0.642081
O26	O	1.697996	-0.188815	0.975415
O27	O	2.031330	0.144519	1.308748
O28	O	1.242025	-0.278302	0.762835
O29	O	1.575358	0.055031	1.096168
O30	O	1.908692	0.388364	1.429501
O31	O	1.132902	-0.408004	0.422295
O32	O	1.466236	-0.074671	0.755629
O33	O	1.799569	0.258662	1.088962
O34	O	0.998137	-0.401087	0.606516
O35	O	1.331470	-0.067754	0.939849
O36	O	1.664803	0.265580	1.273182
O37	O	1.127788	-0.509990	0.965883
O38	O	1.461121	-0.176657	1.299216
O39	O	1.794454	0.156677	1.632550
O40	O	0.992937	-0.503184	0.760971
O41	O	1.326270	-0.169850	1.094304
O42	O	1.659603	0.163483	1.427638
O43	O	1.235162	-0.413050	0.966686
O44	O	1.568495	-0.079717	1.300020
O45	O	1.901829	0.253616	1.633353
O46	O	1.222949	-0.650090	0.641021
O47	O	1.556282	-0.316757	0.974354
O48	O	1.889616	0.016577	1.307688
O49	O	1.120839	-0.644849	0.780602
O50	O	1.454173	-0.311516	1.113935
O51	O	1.787506	0.021818	1.447269
C52	C	0.965364	-0.450600	0.681429
C53	C	1.298698	-0.117267	1.014762
C54	C	1.632031	0.216066	1.348095
C55	C	0.872935	-0.445916	0.674365
C56	C	1.206269	-0.112583	1.007699
C57	C	1.539602	0.220751	1.341032
C58	C	1.170371	-0.677642	0.712918
C59	C	1.503705	-0.344309	1.046251
C60	C	1.837038	-0.010975	1.379584
C61	C	1.165722	-0.770071	0.719342
C62	C	1.499056	-0.436738	1.052675
C63	C	1.832389	-0.103404	1.386008
C64	C	0.659968	-0.485888	0.734648
C65	C	0.993302	-0.152555	1.067981
C66	C	1.326635	0.180779	1.401314
C67	C	0.703711	-0.437371	0.661469
C68	C	1.037045	-0.104038	0.994802
C69	C	1.370378	0.229295	1.328135
C70	C	0.797876	-0.442127	0.668647
C71	C	1.131210	-0.108794	1.001980
C72	C	1.464543	0.224540	1.335313
C73	C	0.565795	-0.481134	0.727471
C74	C	0.899128	-0.147800	1.060805
C75	C	1.232462	0.185533	1.394138
C76	C	1.157240	-0.939300	0.731096
C77	C	1.490573	-0.605967	1.064429
C78	C	1.823906	-0.272633	1.397762
C79	C	1.205741	-0.983060	0.664953
C80	C	1.539075	-0.649727	0.998286
C81	C	1.872408	-0.316393	1.331619
C82	C	1.201022	-1.077225	0.671492
C83	C	1.534355	-0.743892	1.004826
C84	C	1.867688	-0.410558	1.338159
C85	C	1.161958	-0.845127	0.724557
C86	C	1.495292	-0.511793	1.057891
C87	C	1.828625	-0.178460	1.391224
C88	C	1.398311	-0.472636	0.714654
C89	C	1.731645	-0.139303	1.047987
C90	C	2.064978	0.194030	1.381321
C91	C	1.490739	-0.477341	0.721747
C92	C	1.824072	-0.144008	1.055081
C93	C	2.157406	0.189326	1.388414
C94	C	1.181485	-0.461508	1.011050
C95	C	1.514818	-0.128174	1.344383
C96	C	1.848151	0.205159	1.677716
C97	C	1.181514	-0.461470	1.144449
C98	C	1.514847	-0.128136	1.477782
C99	C	1.848180	0.205197	1.811116
C100	C	1.192526	-0.244709	0.683069
C101	C	1.525860	0.088625	1.016403
C102	C	1.859193	0.421958	1.349736
C103	C	1.197261	-0.152284	0.676703
C104	C	1.530594	0.181049	1.010036
C105	C	1.863928	0.514382	1.343370
C106	C	1.181399	-0.461628	0.386185
C107	C	1.514732	-0.128294	0.719518
C108	C	1.848065	0.205039	1.052851
C109	C	1.181542	-0.461440	0.252782
C110	C	1.514876	-0.128106	0.586115
C111	C	1.848209	0.205227	0.919449
H112	H	0.670441	-0.392263	0.593428
H113	H	1.003774	-0.058930	0.926761
H114	H	1.337107	0.274403	1.260094
H115	H	0.693237	-0.530993	0.802682
H116	H	1.026570	-0.197660	1.136016
H117	H	1.359904	0.135673	1.469349
N118	N	1.262262	-0.941355	0.587714
N119	N	1.595596	-0.608021	0.921047
N120	N	1.928929	-0.274688	1.254380
N121	N	1.256290	-0.950782	0.477205
N122	N	1.589623	-0.617448	0.810538
N123	N	1.922956	-0.284115	1.143872
H124	H	1.296202	-0.921327	0.422648
H125	H	1.629536	-0.587993	0.755981
H126	H	1.962869	-0.254660	1.089315
N127	N	1.100698	-0.980997	0.808298
N128	N	1.434031	-0.647664	1.141631
N129	N	1.767365	-0.314330	1.474965
N130	N	1.106638	-0.971586	0.918812
N131	N	1.439971	-0.638252	1.252145
N132	N	1.773305	-0.304919	1.585479
H133	H	1.066703	-1.001041	0.973334
H134	H	1.400037	-0.667708	1.306667
H135	H	1.733370	-0.334374	1.640000
