data_functionalizedCrystal
_audit_creation_method	'MofGen! by Chris Wilmer'
_symmetry_space_group_name_H-M	'P1'
_symmetry_Int_Tables_number	1
_symmetry_cell_setting	triclinic
loop_
_symmetry_equiv_pos_as_xyz
  x,y,z
_cell_length_a	16.959455
_cell_length_b	17.640280
_cell_length_c	16.959447
_cell_angle_alpha	101.226742
_cell_angle_beta	90.014701
_cell_angle_gamma	78.799886
loop_
_atom_site_label
_atom_site_type_symbol
_atom_site_fract_x
_atom_site_fract_y
_atom_site_fract_z
Zn1	Zn	1.272047	-0.314663	0.383378
Zn2	Zn	1.298714	-0.446849	0.224507
Zn3	Zn	1.139882	-0.314694	0.251208
Zn4	Zn	1.166574	-0.446796	0.356656
O5	O	1.219304	-0.380751	0.303937
O6	O	1.386197	-0.332207	0.362312
O7	O	1.277634	-0.429354	0.117431
O8	O	1.135083	-0.204084	0.291098
O9	O	1.405789	-0.429324	0.245591
O10	O	1.232184	-0.204062	0.388203
O11	O	1.160941	-0.332260	0.137048
O12	O	1.032810	-0.332208	0.265187
O13	O	1.180576	-0.429233	0.470818
O14	O	1.052420	-0.429263	0.342659
O15	O	1.258066	-0.332156	0.490451
O16	O	1.303516	-0.557448	0.219679
O17	O	1.206433	-0.557409	0.316768
C18	C	1.013934	-0.380733	0.303921
C19	C	0.926080	-0.380745	0.303929
C20	C	1.260786	-0.586107	0.262444
C21	C	1.278605	-0.673960	0.244719
C22	C	0.894990	-0.431237	0.243100
C23	C	0.874618	-0.330259	0.364763
C24	C	0.792073	-0.330265	0.364771
C25	C	0.760983	-0.380757	0.303942
C26	C	0.812438	-0.431243	0.243105
C27	C	0.740611	-0.279775	0.425603
C28	C	0.658061	-0.279778	0.425613
C29	C	0.626971	-0.330275	0.364786
C30	C	0.678431	-0.380764	0.303947
C31	C	0.647341	-0.431256	0.243119
C32	C	0.698801	-0.481749	0.182282
C33	C	0.781348	-0.481740	0.182279
C34	C	0.544424	-0.330284	0.364790
C35	C	0.564789	-0.431262	0.243124
C36	C	1.084263	-0.962931	0.438876
C37	C	1.101008	-1.045481	0.422196
C38	C	1.202163	-1.045457	0.321200
C39	C	1.185430	-0.962904	0.337874
C40	C	1.126478	-0.921648	0.396713
C41	C	1.227644	-0.921621	0.295710
C42	C	1.210909	-0.839076	0.312381
C43	C	1.151959	-0.797814	0.371215
C44	C	1.109743	-0.839103	0.413383
C45	C	1.286592	-0.962879	0.236868
C46	C	1.328807	-0.921597	0.194705
C47	C	1.312075	-0.839050	0.211379
C48	C	1.253125	-0.797788	0.270213
C49	C	1.354291	-0.797761	0.169210
C50	C	1.337556	-0.715216	0.185881
C51	C	1.236390	-0.715242	0.286883
C52	C	1.425476	-0.380768	0.303954
C53	C	1.513334	-0.380776	0.303961
C54	C	1.219324	-0.380685	0.510119
C55	C	1.219332	-0.380657	0.597981
C56	C	1.177682	-0.174592	0.345610
C57	C	1.159945	-0.086740	0.363368
C58	C	1.219319	-0.380759	0.098569
C59	C	1.219418	-0.380564	0.010752
C60	C	1.179064	-0.431118	0.959254
C61	C	1.259756	-0.330030	0.979693
C62	C	1.259738	-0.330047	0.897144
C63	C	1.219384	-0.380601	0.845646
C64	C	1.179047	-0.431138	0.876697
C65	C	1.300081	-0.279517	0.866085
C66	C	1.300066	-0.279532	0.783531
C67	C	1.259706	-0.330082	0.732032
C68	C	1.219367	-0.380621	0.763088
C69	C	1.179012	-0.431174	0.711590
C70	C	1.138668	-0.481709	0.742645
C71	C	1.138687	-0.481688	0.825198
C72	C	1.259687	-0.330104	0.649479
C73	C	1.178995	-0.431194	0.629032
H74	H	0.539483	-0.472383	0.193591
H75	H	1.402284	-0.831365	0.121299
H76	H	1.105844	-0.522833	0.850490
H77	H	0.673476	-0.522856	0.132753
Cl78	Cl	1.131100	-0.694041	0.392356
H79	H	0.765930	-0.238664	0.475124
H80	H	1.146214	-0.472260	0.984544
H81	H	0.936893	-0.472350	0.193571
H82	H	1.292537	-0.288961	0.624197
H83	H	1.061744	-0.805510	0.461301
H84	H	1.300217	-1.030093	0.223299
Cl85	Cl	1.310491	-0.266486	1.044432
H86	H	1.250159	-1.079059	0.273291
Cl87	Cl	1.350816	-0.215974	0.930826
H88	H	1.188391	-0.681650	0.334801
H89	H	0.899936	-0.289147	0.414284
H90	H	1.376802	-0.955199	0.146796
H91	H	0.823253	-0.522847	0.132748
Cl92	Cl	0.593377	-0.216307	0.502095
H93	H	1.371931	-0.681603	0.151546
H94	H	0.502528	-0.289167	0.414317
Cl95	Cl	1.350780	-0.216001	0.744498
H96	H	1.036265	-0.929338	0.486795
H97	H	1.146125	-0.472355	0.587108
Cl98	Cl	1.047922	-1.097377	0.475200
H99	H	1.105815	-0.522874	0.700704
