data_functionalizedCrystal
_audit_creation_method	'MofGen! by Chris Wilmer'
_symmetry_space_group_name_H-M	'P1'
_symmetry_Int_Tables_number	1
_symmetry_cell_setting	triclinic
loop_
_symmetry_equiv_pos_as_xyz
  x,y,z
_cell_length_a	10.654541
_cell_length_b	16.992695
_cell_length_c	16.053802
_cell_angle_alpha	87.258926
_cell_angle_beta	92.604764
_cell_angle_gamma	87.576076
loop_
_atom_site_label
_atom_site_type_symbol
_atom_site_fract_x
_atom_site_fract_y
_atom_site_fract_z
O1	O	-1.682333	-0.106908	-0.069404
O2	O	-1.317762	-0.117408	-0.069412
O3	O	-1.498585	0.001993	-0.069402
O4	O	-1.501509	-0.226308	-0.069415
O5	O	-1.488630	-0.004552	0.069457
O6	O	-1.307806	-0.123952	0.069447
O7	O	-1.672377	-0.113453	0.069454
Zn8	Zn	-1.488511	-0.119742	0.091497
Zn9	Zn	-1.501628	-0.111119	-0.091455
O10	O	-1.491554	-0.232853	0.069444
C11	C	-1.265919	-0.119909	0.000016
C12	C	-1.126277	-0.117604	0.000014
C13	C	-1.489847	0.027953	0.000027
C14	C	-1.478628	0.115058	0.000027
C15	C	-1.724220	-0.110951	0.000024
C16	C	-1.863863	-0.113256	0.000021
C17	C	-1.110646	-0.260379	-0.000005
C18	C	-1.037227	-0.330680	-0.000017
C19	C	-0.906022	-0.328509	-0.000018
C20	C	-0.848232	-0.256029	-0.000004
C21	C	-0.921650	-0.185728	0.000009
C22	C	-1.052858	-0.187907	0.000007
C23	C	-0.937281	-0.042955	0.000034
C24	C	-1.068487	-0.045124	0.000028
C25	C	-0.879491	0.029525	0.000048
C26	C	-0.952910	0.099828	0.000055
C27	C	-1.084123	0.097654	0.000054
C28	C	-1.141905	0.025177	0.000041
C29	C	-1.500292	-0.258813	0.000013
C30	C	-1.511512	-0.345918	0.000008
N31	N	-1.479568	-0.125626	0.216357
C32	C	-1.586879	0.164711	0.000030
C33	C	-1.576330	0.246555	0.000022
C34	C	-1.457529	0.278745	0.000017
C35	C	-1.349271	0.229087	0.000011
C36	C	-1.359821	0.147244	0.000013
C37	C	-1.413803	0.522581	0.000004
C38	C	-1.403261	0.604430	0.000005
C39	C	-1.630322	0.621892	0.000014
C40	C	-1.640861	0.540047	0.000021
C41	C	-1.532603	0.490396	0.000011
N42	N	-1.446744	0.362403	0.000011
N43	N	-1.543390	0.406740	0.000011
N44	N	-1.510580	-0.105228	-0.216315
C45	C	-1.556540	-0.074840	0.260055
C46	C	-1.550297	-0.078963	0.347461
C47	C	-1.467087	-0.133878	0.391168
C48	C	-1.390106	-0.184667	0.347464
C49	C	-1.396344	-0.180539	0.260059
C50	C	-1.439837	-0.151888	0.652576
C51	C	-1.433608	-0.156014	0.739987
C52	C	-1.593798	-0.050309	0.739979
C53	C	-1.600034	-0.046189	0.652572
C54	C	-1.523048	-0.096975	0.608876
N55	N	-1.460706	-0.138096	0.480511
N56	N	-1.529424	-0.092753	0.519534
H57	H	-1.084294	-0.389692	-0.000027
H58	H	-0.846244	-0.385754	-0.000023
H59	H	-1.325651	0.482164	-0.000004
O60	O	-0.896823	0.170239	0.000216
C61	C	-0.864942	0.289562	0.072144
C62	C	-0.928514	0.209834	0.072078
H63	H	-0.890562	0.321605	0.130229
H64	H	-0.758541	0.279083	0.072201
H65	H	-0.898732	0.327049	0.014008
H66	H	-0.894826	0.172306	0.130204
H67	H	-1.034907	0.220372	0.071977
O68	O	-1.233960	0.260482	0.000043
C69	C	-1.117078	0.378824	-0.000008
C70	C	-1.247745	0.343376	-0.000028
H71	H	-1.128180	0.445849	-0.000084
H72	H	-1.058976	0.355745	0.058116
H73	H	-1.067341	0.361114	-0.058108
H74	H	-1.297589	0.361071	0.058032
H75	H	-1.305755	0.366453	-0.058191
O76	O	-1.637403	-0.021426	0.217732
C77	C	-1.795677	0.082955	0.226959
C78	C	-1.704138	0.022510	0.274990
H79	H	-1.849676	0.118481	0.273232
H80	H	-1.740478	0.124447	0.186076
H81	H	-1.864713	0.050639	0.186001
H82	H	-1.635082	0.054759	0.315994
H83	H	-1.759420	-0.018980	0.315821
H84	H	-1.667790	-0.001473	0.616988
O85	O	-1.681462	0.294823	-0.000123
C86	C	-1.806464	0.400769	-0.072042
C87	C	-1.687366	0.346145	-0.071987
H88	H	-1.811263	0.442288	-0.130129
H89	H	-1.893230	0.363741	-0.072088
H90	H	-1.803025	0.436754	-0.013908
H91	H	-1.690683	0.310149	-0.130112
H92	H	-1.600652	0.383218	-0.071898
O93	O	-1.309339	-0.238113	0.389823
C94	C	-1.247515	-0.375366	0.416583
C95	C	-1.339050	-0.314920	0.368548
H96	H	-1.271520	-0.437478	0.399413
H97	H	-1.147061	-0.363808	0.399394
H98	H	-1.256253	-0.369556	0.486556
H99	H	-1.330424	-0.320695	0.298564
H100	H	-1.439467	-0.326496	0.385806
O101	O	-1.756306	0.508829	-0.000122
C102	C	-1.958795	0.502144	-0.072019
C103	C	-1.828089	0.537539	-0.071977
H104	H	-2.016877	0.525355	-0.130098
H105	H	-1.947828	0.435119	-0.072068
H106	H	-2.008476	0.519798	-0.013877
H107	H	-1.778336	0.519946	-0.130109
H108	H	-1.839142	0.604559	-0.071884
O109	O	-1.624894	-0.029554	0.389943
C110	C	-1.633887	0.072751	0.488668
C111	C	-1.549253	0.016846	0.440600
H112	H	-1.572766	0.110268	0.529649
H113	H	-1.694408	0.112757	0.442449
H114	H	-1.697158	0.036567	0.529538
H115	H	-1.485907	0.052967	0.399729
H116	H	-1.488817	-0.023162	0.486864
H117	H	-1.656475	-0.008961	0.775565
H118	H	-1.217481	-0.262153	-0.000023
H119	H	-1.306513	0.630635	0.000014
O120	O	-1.352649	-0.209376	0.782316
C121	C	-1.194443	-0.313800	0.773105
C122	C	-1.286047	-0.253399	0.725064
H123	H	-1.140590	-0.349420	0.726839
H124	H	-1.125290	-0.281523	0.814017
H125	H	-1.249709	-0.355210	0.814036
H126	H	-1.230886	-0.211973	0.684088
H127	H	-1.355201	-0.285727	0.684206
O128	O	-1.365252	-0.201261	0.610049
C129	C	-1.356304	-0.303641	0.511408
C130	C	-1.440917	-0.247748	0.559504
H131	H	-1.417445	-0.341251	0.470544
H132	H	-1.293069	-0.267526	0.470443
H133	H	-1.295747	-0.343564	0.557684
H134	H	-1.501551	-0.207813	0.513288
H135	H	-1.504069	-0.283911	0.600481
H136	H	-0.772656	0.031287	0.000052
H137	H	-0.741396	-0.254268	0.000006
H138	H	-1.271671	0.106817	0.000011
H139	H	-1.333663	-0.221894	0.224480
H140	H	-1.248739	0.023400	0.000031
H141	H	-1.143893	0.154902	0.000068
H142	H	-1.683619	0.138508	0.000039
H143	H	-1.718459	0.662327	0.000020
