data_functionalizedCrystal
_audit_creation_method	'MofGen! by Chris Wilmer'
_symmetry_space_group_name_H-M	'P1'
_symmetry_Int_Tables_number	1
_symmetry_cell_setting	triclinic
loop_
_symmetry_equiv_pos_as_xyz
  x,y,z
_cell_length_a	19.188933
_cell_length_b	19.188924
_cell_length_c	17.666332
_cell_angle_alpha	89.991448
_cell_angle_beta	89.992061
_cell_angle_gamma	83.143767
loop_
_atom_site_label
_atom_site_type_symbol
_atom_site_fract_x
_atom_site_fract_y
_atom_site_fract_z
O1	O	0.926147	0.087175	-0.062927
O2	O	1.426147	0.587175	0.437073
O3	O	0.722835	0.098908	-0.062934
O4	O	1.222835	0.598908	0.437066
O5	O	0.830360	-0.008614	-0.062921
O6	O	1.330360	0.491386	0.437079
O7	O	0.818621	0.194698	-0.062939
O8	O	1.318621	0.694698	0.437061
O9	O	0.830342	-0.008620	0.062976
O10	O	1.330342	0.491380	0.562976
O11	O	0.722816	0.098903	0.062963
O12	O	1.222816	0.598903	0.562963
O13	O	0.926128	0.087170	0.062970
O14	O	1.426128	0.587170	0.562970
Cu15	Cu	0.824470	0.093036	0.074462
Cu16	Cu	1.324470	0.593036	0.574462
Cu17	Cu	0.824493	0.093042	-0.074426
Cu18	Cu	1.324493	0.593042	0.425574
O19	O	0.818602	0.194692	0.062957
O20	O	1.318602	0.694692	0.562957
C21	C	0.696815	0.098525	0.000013
C22	C	1.196815	0.598525	0.500013
C23	C	0.619310	0.097384	0.000011
C24	C	1.119310	0.597384	0.500011
C25	C	0.829972	-0.034628	0.000028
C26	C	1.329972	0.465372	0.500028
C27	C	0.828833	-0.112133	0.000030
C28	C	1.328833	0.387867	0.500030
C29	C	0.066065	0.089242	-0.068606
C30	C	0.566065	0.589242	0.431394
C31	C	0.138890	0.090310	-0.068610
C32	C	0.638890	0.590310	0.431390
C33	C	0.175296	0.090844	0.000017
C34	C	0.675296	0.590844	0.500017
C35	C	0.138875	0.090292	0.068651
C36	C	0.638875	0.590292	0.568651
C37	C	0.066053	0.089217	0.068652
C38	C	0.566053	0.589217	0.568652
N39	N	0.284308	0.132261	0.051094
N40	N	0.784308	0.632261	0.551094
N41	N	0.353485	0.133284	0.051089
N42	N	0.853485	0.633284	0.551089
C43	C	0.394705	0.094082	0.000017
C44	C	0.894705	0.594082	0.500017
N45	N	0.364132	0.053828	-0.051059
N46	N	0.864132	0.553828	0.448941
N47	N	0.294948	0.052808	-0.051056
N48	N	0.794948	0.552808	0.448944
C49	C	0.254260	0.092010	0.000023
C50	C	0.754260	0.592010	0.500023
C51	C	0.510082	0.095787	-0.068616
C52	C	1.010082	0.595787	0.431384
C53	C	0.582908	0.096851	-0.068616
C54	C	1.082908	0.596851	0.431384
C55	C	0.582892	0.096840	0.068646
C56	C	1.082892	0.596840	0.568646
C57	C	0.510068	0.095770	0.068645
C58	C	1.010068	0.595770	0.568645
C59	C	0.473667	0.095246	0.000011
C60	C	0.973667	0.595246	0.500011
C61	C	0.828312	-0.148529	-0.068597
C62	C	1.328312	0.351471	0.431403
C63	C	0.827232	-0.221351	-0.068602
C64	C	1.327232	0.278649	0.431398
C65	C	0.826687	-0.257777	0.000022
C66	C	1.326687	0.242223	0.500022
C67	C	0.827205	-0.221372	0.068658
C68	C	1.327205	0.278628	0.568658
C69	C	0.828277	-0.148550	0.068662
C70	C	1.328277	0.351450	0.568662
N71	N	0.864727	-0.377442	0.051099
N72	N	1.364727	0.122558	0.551099
N73	N	0.863710	-0.446621	0.051091
N74	N	1.363710	0.053379	0.551091
C75	C	0.823453	-0.477186	0.000015
C76	C	1.323453	0.022814	0.500015
N77	N	0.784262	-0.435962	-0.051064
N78	N	1.284262	0.064038	0.448936
N79	N	0.785282	-0.366777	-0.051058
N80	N	1.285282	0.133223	0.448942
C81	C	0.825523	-0.336741	0.000026
C82	C	1.325523	0.163259	0.500026
C83	C	0.821760	-0.592545	-0.068623
C84	C	1.321760	-0.092545	0.431377
C85	C	0.820676	-0.665368	-0.068626
C86	C	1.320676	-0.165368	0.431374
C87	C	0.820655	-0.665389	0.068637
C88	C	1.320655	-0.165389	0.568637
C89	C	0.821733	-0.592566	0.068637
C90	C	1.321733	-0.092566	0.568637
C91	C	0.822288	-0.556149	0.000006
C92	C	1.322288	-0.056149	0.500006
C93	C	0.952148	0.087553	0.000021
C94	C	1.452148	0.587553	0.500021
C95	C	1.029653	0.088694	0.000019
C96	C	1.529653	0.588694	0.500019
C97	C	0.818991	0.220706	0.000007
C98	C	1.318991	0.720706	0.500007
C99	C	0.820130	0.298211	-0.000000
C100	C	1.320130	0.798211	0.500000
N101	N	0.824460	0.093031	0.179181
N102	N	1.324460	0.593031	0.679181
N103	N	0.824509	0.093042	-0.179145
N104	N	1.324509	0.593042	0.320855
C105	C	0.872087	0.045443	0.218797
C106	C	1.372087	0.545443	0.718797
C107	C	0.872091	0.045439	0.298044
C108	C	1.372091	0.545439	0.798044
C109	C	0.824475	0.093036	0.337673
C110	C	1.324475	0.593036	0.837673
C111	C	0.776838	0.140627	0.298048
C112	C	1.276838	0.640627	0.798048
C113	C	0.776831	0.140625	0.218802
C114	C	1.276831	0.640625	0.718802
N115	N	0.815397	0.154843	0.462086
N116	N	1.315397	0.654843	0.962086
N117	N	0.815408	0.154844	0.537367
N118	N	1.315408	0.654844	1.037367
C119	C	0.824493	0.093046	0.576437
C120	C	1.324493	0.593046	1.076437
N121	N	0.833580	0.031245	0.537384
N122	N	1.333580	0.531245	1.037384
N123	N	0.833572	0.031246	0.462096
N124	N	1.333572	0.531246	0.962096
C125	C	0.824477	0.093044	0.423603
C126	C	1.324477	0.593044	0.923603
C127	C	0.872128	0.045450	0.701982
C128	C	1.372128	0.545450	1.201982
C129	C	0.872127	0.045446	0.781231
C130	C	1.372127	0.545446	1.281231
C131	C	0.776877	0.140640	0.781234
C132	C	1.276877	0.640640	1.281234
C133	C	0.776874	0.140638	0.701986
C134	C	1.276874	0.640638	1.201986
C135	C	0.824503	0.093044	0.662365
C136	C	1.324503	0.593044	1.162365
H137	H	0.036433	0.088813	-0.124493
H138	H	0.536433	0.588813	0.375507
H139	H	0.168522	0.090726	0.124526
H140	H	0.668522	0.590726	0.624526
H141	H	0.826803	-0.250990	-0.124488
H142	H	1.326803	0.249010	0.375512
O143	O	0.730487	0.186793	0.336508
O144	O	1.230487	0.686793	0.836508
C145	C	0.608964	0.228027	0.360748
C146	C	1.108964	0.728027	0.860748
C147	C	0.661384	0.175697	0.317160
C148	C	1.161384	0.675697	0.817160
H149	H	0.553082	0.219084	0.345109
H150	H	1.053082	0.719084	0.845109
H151	H	0.617091	0.219856	0.424201
H152	H	1.117091	0.719856	0.924201
H153	H	0.617917	0.283922	0.345161
H154	H	1.117917	0.783922	0.845161
H155	H	0.652462	0.119781	0.332683
H156	H	1.152462	0.619781	0.832683
H157	H	0.653244	0.183929	0.253717
H158	H	1.153244	0.683929	0.753717
H159	H	0.738046	0.179377	0.186547
H160	H	1.238046	0.679377	0.686547
H161	H	0.820207	-0.695045	0.124512
H162	H	1.320207	-0.195045	0.624512
O163	O	0.474600	0.095334	0.135258
O164	O	0.974600	0.595334	0.635258
C165	C	0.384299	0.154601	0.214935
C166	C	0.884299	0.654601	0.714935
C167	C	0.424400	0.155179	0.139458
C168	C	0.924400	0.655179	0.639458
H169	H	0.343713	0.202987	0.218362
H170	H	0.843713	0.702987	0.718362
H171	H	0.356697	0.105277	0.218374
H172	H	0.856697	0.605277	0.718374
H173	H	0.422842	0.155130	0.263975
H174	H	0.922842	0.655130	0.763975
H175	H	0.385904	0.154674	0.090375
H176	H	0.885904	0.654674	0.590375
H177	H	0.452013	0.204498	0.136085
H178	H	0.952013	0.704498	0.636085
O179	O	0.828811	-0.113257	-0.135331
O180	O	1.328811	0.386743	0.364669
C181	C	0.828762	-0.120931	-0.271474
C182	C	1.328762	0.379069	0.228526
C183	C	0.828181	-0.160963	-0.195953
C184	C	1.328181	0.339037	0.304047
H185	H	0.828268	-0.159486	-0.320506
H186	H	1.328268	0.340514	0.179494
H187	H	0.780401	-0.080317	-0.274959
H188	H	1.280401	0.419683	0.225041
H189	H	0.878104	-0.093355	-0.274860
H190	H	1.378104	0.406645	0.225140
H191	H	0.778872	-0.188581	-0.192515
H192	H	1.278872	0.311419	0.307485
H193	H	0.876575	-0.201538	-0.192499
H194	H	1.376575	0.298462	0.307501
H195	H	0.612555	0.097292	-0.124501
H196	H	1.112555	0.597292	0.375499
O197	O	0.474780	0.095369	-0.135329
O198	O	0.974780	0.595369	0.364671
C199	C	0.444378	0.155549	-0.252623
C200	C	0.944378	0.655549	0.247377
C201	C	0.484400	0.156102	-0.177108
C202	C	0.984400	0.656102	0.322892
H203	H	0.452129	0.204653	-0.286416
H204	H	0.952129	0.704653	0.213584
H205	H	0.465244	0.106945	-0.286519
H206	H	0.965244	0.606945	0.213481
H207	H	0.386082	0.154659	-0.240813
H208	H	0.886082	0.654659	0.259187
H209	H	0.542702	0.157016	-0.188849
H210	H	1.042702	0.657016	0.311151
H211	H	0.463477	0.204701	-0.143235
H212	H	0.963477	0.704701	0.356765
O213	O	0.618337	0.097264	0.135263
O214	O	1.118337	0.597264	0.635263
C215	C	0.708610	0.037968	0.214945
C216	C	1.208610	0.537968	0.714945
C217	C	0.668531	0.037414	0.139465
C218	C	1.168531	0.537414	0.639465
H219	H	0.749191	-0.010423	0.218374
H220	H	1.249191	0.489577	0.718374
H221	H	0.736216	0.087288	0.218389
H222	H	1.236216	0.587288	0.718389
H223	H	0.670052	0.037428	0.263982
H224	H	1.170052	0.537428	0.763982
H225	H	0.707042	0.037928	0.090385
H226	H	1.207042	0.537928	0.590385
H227	H	0.640914	-0.011901	0.136087
H228	H	1.140914	0.488099	0.636087
H229	H	0.822208	-0.562892	-0.124507
H230	H	1.322208	-0.062892	0.375493
H231	H	0.910868	0.006688	0.186540
H232	H	1.410868	0.506688	0.686540
H233	H	0.826759	-0.251035	0.124532
H234	H	1.326759	0.248965	0.624532
O235	O	0.918413	-0.000853	0.663606
O236	O	1.418413	0.499147	1.163606
C237	C	1.012912	-0.095244	0.671966
C238	C	1.512912	0.404756	1.171966
C239	C	0.960522	-0.042855	0.715517
C240	C	1.460522	0.457145	1.215517
H241	H	1.046981	-0.129207	0.713917
H242	H	1.546981	0.370793	1.213917
H243	H	0.982912	-0.130098	0.634898
H244	H	1.482912	0.369902	1.134898
H245	H	1.047662	-0.065173	0.634831
H246	H	1.547662	0.434827	1.134831
H247	H	0.925758	-0.072870	0.752693
H248	H	1.425758	0.427130	1.252693
H249	H	0.990566	-0.008002	0.752537
H250	H	1.490566	0.491998	1.252537
O251	O	0.820263	-0.700818	-0.135243
O252	O	1.320263	-0.200818	0.364757
C253	C	0.879566	-0.791099	-0.214909
C254	C	1.379566	-0.291099	0.285091
C255	C	0.880110	-0.751016	-0.139431
C256	C	1.380110	-0.251016	0.360569
H257	H	0.927955	-0.831683	-0.218326
H258	H	1.427955	-0.331683	0.281674
H259	H	0.830245	-0.818701	-0.218360
H260	H	1.330245	-0.318701	0.281640
H261	H	0.880115	-0.752544	-0.263948
H262	H	1.380115	-0.252544	0.236052
H263	H	0.879586	-0.789523	-0.090349
H264	H	1.379586	-0.289523	0.409651
H265	H	0.929428	-0.723402	-0.136046
H266	H	1.429428	-0.223402	0.363954
H267	H	0.828699	-0.118916	0.124547
H268	H	1.328699	0.381084	0.624547
O269	O	0.822280	-0.557320	0.135370
O270	O	1.322280	-0.057320	0.635370
C271	C	0.822113	-0.565023	0.271512
C272	C	1.322113	-0.065023	0.771512
C273	C	0.821509	-0.605027	0.195989
C274	C	1.321509	-0.105027	0.695989
H275	H	0.821474	-0.603575	0.320542
H276	H	1.321474	-0.103575	0.820542
H277	H	0.871478	-0.537493	0.274996
H278	H	1.371478	-0.037493	0.774996
H279	H	0.773777	-0.524371	0.274905
H280	H	1.273777	-0.024371	0.774905
H281	H	0.869811	-0.645713	0.192546
H282	H	1.369811	-0.145713	0.692546
H283	H	0.772111	-0.632508	0.192537
H284	H	1.272111	-0.132508	0.692537
O285	O	0.918328	-0.000885	0.336458
O286	O	1.418328	0.499115	0.836458
C287	C	0.959592	-0.122389	0.360772
C288	C	1.459592	0.377611	0.860772
C289	C	0.907206	-0.070004	0.317210
C290	C	1.407206	0.429996	0.817210
H291	H	0.950609	-0.178283	0.345238
H292	H	1.450609	0.321717	0.845238
H293	H	1.015498	-0.113487	0.345166
H294	H	1.515498	0.386513	0.845166
H295	H	0.951420	-0.114171	0.424212
H296	H	1.451420	0.385829	0.924212
H297	H	0.915314	-0.078190	0.253760
H298	H	1.415314	0.421810	0.753760
H299	H	0.851319	-0.078919	0.332879
H300	H	1.351319	0.421081	0.832879
O301	O	0.730524	0.186807	0.819685
O302	O	1.230524	0.686807	1.319685
C303	C	0.609000	0.228047	0.843915
C304	C	1.109000	0.728047	1.343915
C305	C	0.661421	0.175714	0.800332
C306	C	1.161421	0.675714	1.300332
H307	H	0.553119	0.219107	0.828272
H308	H	1.053119	0.719107	1.328272
H309	H	0.617123	0.219876	0.907370
H310	H	1.117123	0.719876	1.407370
H311	H	0.617958	0.283941	0.828329
H312	H	1.117958	0.783941	1.328329
H313	H	0.652495	0.119799	0.815855
H314	H	1.152495	0.619799	1.315855
H315	H	0.653286	0.183946	0.736888
H316	H	1.153286	0.683946	1.236888
O317	O	0.730683	0.186969	0.663535
O318	O	1.230683	0.686969	1.163535
C319	C	0.689365	0.308477	0.639314
C320	C	1.189365	0.808477	1.139314
C321	C	0.741731	0.256083	0.682892
C322	C	1.241731	0.756083	1.182892
H323	H	0.698269	0.364367	0.654960
H324	H	1.198269	0.864367	1.154960
H325	H	0.697536	0.300363	0.575859
H326	H	1.197536	0.800363	1.075859
H327	H	0.633482	0.299481	0.654903
H328	H	1.133482	0.799481	1.154903
H329	H	0.797635	0.265047	0.667366
H330	H	1.297635	0.765047	1.167366
H331	H	0.733499	0.264209	0.746336
H332	H	1.233499	0.764209	1.246336
H333	H	0.168542	0.090760	-0.124494
H334	H	0.668542	0.590760	0.375506
H335	H	0.910909	0.006691	0.813487
H336	H	1.410909	0.506691	1.313487
H337	H	0.036406	0.088774	0.124536
H338	H	0.536406	0.588774	0.624536
