data_functionalizedCrystal
_audit_creation_method	'MofGen! by Chris Wilmer'
_symmetry_space_group_name_H-M	'P1'
_symmetry_Int_Tables_number	1
_symmetry_cell_setting	triclinic
loop_
_symmetry_equiv_pos_as_xyz
  x,y,z
_cell_length_a	18.215407
_cell_length_b	18.215405
_cell_length_c	18.215399
_cell_angle_alpha	90.030551
_cell_angle_beta	90.017777
_cell_angle_gamma	90.020505
loop_
_atom_site_label
_atom_site_type_symbol
_atom_site_fract_x
_atom_site_fract_y
_atom_site_fract_z
Zn1	Zn	-1.125072	0.293078	-0.416062
Zn2	Zn	-0.875072	0.543078	-0.166062
Zn3	Zn	-0.625072	0.793078	0.083938
Zn4	Zn	-0.375072	1.043078	0.333938
Zn5	Zn	-1.124980	0.416149	-0.292990
Zn6	Zn	-0.874980	0.666149	-0.042990
Zn7	Zn	-0.624980	0.916149	0.207010
Zn8	Zn	-0.374980	1.166149	0.457010
Zn9	Zn	-1.002004	0.293092	-0.293014
Zn10	Zn	-0.752004	0.543092	-0.043014
Zn11	Zn	-0.502004	0.793092	0.206986
Zn12	Zn	-0.252004	1.043092	0.456986
Zn13	Zn	-1.001970	0.416098	-0.416020
Zn14	Zn	-0.751970	0.666098	-0.166020
Zn15	Zn	-0.501970	0.916098	0.083980
Zn16	Zn	-0.251970	1.166098	0.333980
O17	O	-1.063507	0.354604	-0.354521
O18	O	-0.813507	0.604604	-0.104521
O19	O	-0.563507	0.854604	0.145479
O20	O	-0.313507	1.104604	0.395479
O21	O	-1.228044	0.309419	-0.399744
O22	O	-0.978044	0.559419	-0.149744
O23	O	-0.728044	0.809419	0.100256
O24	O	-0.478044	1.059419	0.350256
O25	O	-1.108643	0.399852	-0.190009
O26	O	-0.858643	0.649852	0.059991
O27	O	-0.608643	0.899852	0.309991
O28	O	-0.358643	1.149852	0.559991
O29	O	-1.018382	0.190105	-0.309364
O30	O	-0.768382	0.440105	-0.059364
O31	O	-0.518382	0.690105	0.190636
O32	O	-0.268382	0.940105	0.440636
O33	O	-1.227977	0.399839	-0.309324
O34	O	-0.977977	0.649839	-0.059324
O35	O	-0.727977	0.899839	0.190676
O36	O	-0.477977	1.149839	0.440676
O37	O	-1.108799	0.190095	-0.399767
O38	O	-0.858799	0.440095	-0.149767
O39	O	-0.608799	0.690095	0.100233
O40	O	-0.358799	0.940095	0.350233
O41	O	-1.018293	0.309443	-0.190026
O42	O	-0.768293	0.559443	0.059974
O43	O	-0.518293	0.809443	0.309974
O44	O	-0.268293	1.059443	0.559974
O45	O	-0.899016	0.309393	-0.309323
O46	O	-0.649016	0.559393	-0.059323
O47	O	-0.399016	0.809393	0.190677
O48	O	-0.149016	1.059393	0.440677
O49	O	-1.018324	0.399752	-0.519010
O50	O	-0.768324	0.649752	-0.269010
O51	O	-0.518324	0.899752	-0.019010
O52	O	-0.268324	1.149752	0.230990
O53	O	-0.898991	0.399765	-0.399695
O54	O	-0.648991	0.649765	-0.149695
O55	O	-0.398991	0.899765	0.100305
O56	O	-0.148991	1.149765	0.350305
O57	O	-1.108766	0.309369	-0.519041
O58	O	-0.858766	0.559369	-0.269041
O59	O	-0.608766	0.809369	-0.019041
O60	O	-0.358766	1.059369	0.230959
O61	O	-1.108610	0.519127	-0.309283
O62	O	-0.858610	0.769127	-0.059283
O63	O	-0.608610	1.019127	0.190717
O64	O	-0.358610	1.269127	0.440717
O65	O	-1.018235	0.519089	-0.399672
O66	O	-0.768235	0.769089	-0.149672
O67	O	-0.518235	1.019089	0.100328
O68	O	-0.268235	1.269089	0.350328
C69	C	-0.872300	0.354575	-0.354507
C70	C	-0.622300	0.604575	-0.104507
C71	C	-0.372300	0.854575	0.145493
C72	C	-0.122300	1.104575	0.395493
C73	C	-0.790502	0.354581	-0.354519
C74	C	-0.540502	0.604581	-0.104519
C75	C	-0.290502	0.854581	0.145481
C76	C	-0.040502	1.104581	0.395481
C77	C	-0.602342	0.307590	-0.401673
C78	C	-0.352342	0.557590	-0.151673
C79	C	-0.102342	0.807590	0.098327
C80	C	0.147658	1.057590	0.348327
C81	C	-0.525483	0.307594	-0.401675
C82	C	-0.275483	0.557594	-0.151675
C83	C	-0.025483	0.807594	0.098325
C84	C	0.224517	1.057594	0.348325
C85	C	-0.525424	0.401607	-0.307375
C86	C	-0.275424	0.651607	-0.057375
C87	C	-0.025424	0.901607	0.192625
C88	C	0.224576	1.151607	0.442625
C89	C	-0.602281	0.401599	-0.307370
C90	C	-0.352281	0.651599	-0.057370
C91	C	-0.102281	0.901599	0.192630
C92	C	0.147719	1.151599	0.442630
C93	C	-0.640738	0.354591	-0.354523
C94	C	-0.390738	0.604591	-0.104523
C95	C	-0.140738	0.854591	0.145477
C96	C	0.109262	1.104591	0.395477
C97	C	-0.487022	0.354603	-0.354530
C98	C	-0.237022	0.604603	-0.104530
C99	C	0.012978	0.854603	0.145470
C100	C	0.262978	1.104603	0.395470
C101	C	-0.403688	0.354608	-0.354532
C102	C	-0.153688	0.604608	-0.104532
C103	C	0.096312	0.854608	0.145468
C104	C	0.346312	1.104608	0.395468
C105	C	-0.724077	0.354586	-0.354521
C106	C	-0.474077	0.604586	-0.104521
C107	C	-0.224077	0.854586	0.145479
C108	C	0.025923	1.104586	0.395479
C109	C	-1.063429	0.545810	-0.354486
C110	C	-0.813429	0.795810	-0.104486
C111	C	-0.563429	1.045810	0.145514
C112	C	-0.313429	1.295810	0.395514
C113	C	-1.063463	0.627609	-0.354496
C114	C	-0.813463	0.877609	-0.104496
C115	C	-0.563463	1.127609	0.145504
C116	C	-0.313463	1.377609	0.395504
C117	C	-1.063552	0.354553	-0.546474
C118	C	-0.813552	0.604553	-0.296474
C119	C	-0.563552	0.854553	-0.046474
C120	C	-0.313552	1.104553	0.203526
C121	C	-1.063571	0.354532	-0.628273
C122	C	-0.813571	0.604532	-0.378273
C123	C	-0.563571	0.854532	-0.128273
C124	C	-0.313571	1.104532	0.121727
C125	C	-0.255460	0.354625	-0.354534
C126	C	-0.005460	0.604625	-0.104534
C127	C	0.244540	0.854625	0.145466
C128	C	0.494540	1.104625	0.395466
C129	C	-0.337259	0.354614	-0.354535
C130	C	-0.087259	0.604614	-0.104535
C131	C	0.162741	0.854614	0.145465
C132	C	0.412741	1.104614	0.395465
C133	C	-1.063605	0.162651	-0.354573
C134	C	-0.813605	0.412651	-0.104573
C135	C	-0.563605	0.662651	0.145427
C136	C	-0.313605	0.912651	0.395427
C137	C	-1.063647	0.080852	-0.354595
C138	C	-0.813647	0.330852	-0.104595
C139	C	-0.563647	0.580852	0.145405
C140	C	-0.313647	0.830852	0.395405
C141	C	-1.110632	0.815798	-0.307517
C142	C	-0.860632	1.065798	-0.057517
C143	C	-0.610632	1.315798	0.192483
C144	C	-0.360632	1.565798	0.442483
C145	C	-1.110665	0.892657	-0.307534
C146	C	-0.860665	1.142657	-0.057534
C147	C	-0.610665	1.392657	0.192466
C148	C	-0.360665	1.642657	0.442466
C149	C	-1.016476	0.892658	-0.401579
C150	C	-0.766476	1.142658	-0.151579
C151	C	-0.516476	1.392658	0.098421
C152	C	-0.266476	1.642658	0.348421
C153	C	-1.016447	0.815800	-0.401565
C154	C	-0.766447	1.065800	-0.151565
C155	C	-0.516447	1.315800	0.098435
C156	C	-0.266447	1.565800	0.348435
C157	C	-1.063524	0.777373	-0.354529
C158	C	-0.813524	1.027373	-0.104529
C159	C	-0.563524	1.277373	0.145471
C160	C	-0.313524	1.527373	0.395471
C161	C	-1.063586	0.931089	-0.354562
C162	C	-0.813586	1.181089	-0.104562
C163	C	-0.563586	1.431089	0.145438
C164	C	-0.313586	1.681089	0.395438
C165	C	-1.063621	1.014422	-0.354581
C166	C	-0.813621	1.264422	-0.104581
C167	C	-0.563621	1.514422	0.145419
C168	C	-0.313621	1.764422	0.395419
C169	C	-1.063490	0.694034	-0.354510
C170	C	-0.813490	0.944034	-0.104510
C171	C	-0.563490	1.194034	0.145490
C172	C	-0.313490	1.444034	0.395490
C173	C	-1.110681	0.307426	-0.816485
C174	C	-0.860681	0.557426	-0.566485
C175	C	-0.610681	0.807426	-0.316485
C176	C	-0.360681	1.057426	-0.066485
C177	C	-1.110690	0.307404	-0.893344
C178	C	-0.860690	0.557404	-0.643344
C179	C	-0.610690	0.807404	-0.393344
C180	C	-0.360690	1.057404	-0.143344
C181	C	-1.016513	0.401524	-0.893300
C182	C	-0.766513	0.651524	-0.643300
C183	C	-0.516513	0.901524	-0.393300
C184	C	-0.266513	1.151524	-0.143300
C185	C	-1.016501	0.401541	-0.816443
C186	C	-0.766501	0.651541	-0.566443
C187	C	-0.516501	0.901541	-0.316443
C188	C	-0.266501	1.151541	-0.066443
C189	C	-1.063589	0.354493	-0.778037
C190	C	-0.813589	0.604493	-0.528037
C191	C	-0.563589	0.854493	-0.278037
C192	C	-0.313589	1.104493	-0.028037
C193	C	-1.063610	0.354454	-0.931753
C194	C	-0.813610	0.604454	-0.681753
C195	C	-0.563610	0.854454	-0.431753
C196	C	-0.313610	1.104454	-0.181753
C197	C	-1.063619	0.354432	-1.015087
C198	C	-0.813619	0.604432	-0.765087
C199	C	-0.563619	0.854432	-0.515087
C200	C	-0.313619	1.104432	-0.265087
C201	C	-1.063579	0.354515	-0.694698
C202	C	-0.813579	0.604515	-0.444698
C203	C	-0.563579	0.854515	-0.194698
C204	C	-0.313579	1.104515	0.055302
C205	C	-1.063504	0.354602	-0.163315
C206	C	-0.813504	0.604602	0.086685
C207	C	-0.563504	0.854602	0.336685
C208	C	-0.313504	1.104602	0.586685
C209	C	-1.063628	0.354416	-0.081517
C210	C	-0.813628	0.604416	0.168483
C211	C	-0.563628	0.854416	0.418483
C212	C	-0.313628	1.104416	0.668483
H213	H	-0.494224	0.269320	-0.440069
H214	H	-0.244224	0.519320	-0.190069
H215	H	0.005776	0.769320	0.059931
H216	H	0.255776	1.019320	0.309931
H217	H	-0.494103	0.439879	-0.268985
H218	H	-0.244103	0.689879	-0.018985
H219	H	0.005897	0.939879	0.231015
H220	H	0.255897	1.189879	0.481015
C221	C	-0.964637	0.773530	-0.453300
C222	C	-0.714637	1.023530	-0.203300
C223	C	-0.464637	1.273530	0.046700
C224	C	-0.214637	1.523530	0.296700
N225	N	-0.925622	0.741691	-0.492272
N226	N	-0.675622	0.991691	-0.242272
N227	N	-0.425622	1.241691	0.007728
N228	N	-0.175622	1.491691	0.257728
H229	H	-0.978147	0.439868	-0.785137
H230	H	-0.728147	0.689868	-0.535137
H231	H	-0.478147	0.939868	-0.285137
H232	H	-0.228147	1.189868	-0.035137
H233	H	-0.633651	0.269311	-0.440066
H234	H	-0.383651	0.519311	-0.190066
H235	H	-0.133651	0.769311	0.059934
H236	H	0.116349	1.019311	0.309934
C237	C	-1.162473	0.255665	-0.774242
C238	C	-0.912473	0.505665	-0.524242
C239	C	-0.662473	0.755665	-0.274242
C240	C	-0.412473	1.005665	-0.024242
N241	N	-1.201482	0.216675	-0.742426
N242	N	-0.951482	0.466675	-0.492426
N243	N	-0.701482	0.716675	-0.242426
N244	N	-0.451482	0.966675	0.007574
C245	C	-0.644520	0.453306	-0.255499
C246	C	-0.394520	0.703306	-0.005499
C247	C	-0.144520	0.953306	0.244501
C248	C	0.105480	1.203306	0.494501
N249	N	-0.676334	0.492250	-0.216429
N250	N	-0.426334	0.742250	0.033571
N251	N	-0.176334	0.992250	0.283571
N252	N	0.073666	1.242250	0.533571
C253	C	-1.162422	0.773531	-0.255780
C254	C	-0.912422	1.023531	-0.005780
C255	C	-0.662422	1.273531	0.244220
C256	C	-0.412422	1.523531	0.494220
N257	N	-1.201433	0.741697	-0.216813
N258	N	-0.951433	0.991697	0.033187
N259	N	-0.701433	1.241697	0.283187
N260	N	-0.451433	1.491697	0.533187
H261	H	-0.978177	0.439830	-0.924579
H262	H	-0.728177	0.689830	-0.674579
H263	H	-0.478177	0.939830	-0.424579
H264	H	-0.228177	1.189830	-0.174579
C265	C	-1.162484	0.934922	-0.255814
C266	C	-0.912484	1.184922	-0.005814
C267	C	-0.662484	1.434922	0.244186
C268	C	-0.412484	1.684922	0.494186
N269	N	-1.201516	0.966755	-0.216855
N270	N	-0.951516	1.216755	0.033145
N271	N	-0.701516	1.466755	0.283145
N272	N	-0.451516	1.716755	0.533145
H273	H	-0.978146	0.923955	-0.439873
H274	H	-0.728146	1.173955	-0.189873
H275	H	-0.478146	1.423955	0.060127
H276	H	-0.228146	1.673955	0.310127
H277	H	-1.149035	0.269076	-0.924645
H278	H	-0.899035	0.519076	-0.674645
H279	H	-0.649035	0.769076	-0.424645
H280	H	-0.399035	1.019076	-0.174645
