data_functionalizedCrystal
_audit_creation_method	'MofGen! by Chris Wilmer'
_symmetry_space_group_name_H-M	'P1'
_symmetry_Int_Tables_number	1
_symmetry_cell_setting	triclinic
loop_
_symmetry_equiv_pos_as_xyz
  x,y,z
_cell_length_a	10.654550
_cell_length_b	17.038272
_cell_length_c	9.730223
_cell_angle_alpha	89.998176
_cell_angle_beta	89.996251
_cell_angle_gamma	87.798229
loop_
_atom_site_label
_atom_site_type_symbol
_atom_site_fract_x
_atom_site_fract_y
_atom_site_fract_z
O1	O	1.678036	0.109875	-0.114405
O2	O	1.313530	0.120343	-0.114384
O3	O	1.493617	0.001281	-0.114383
O4	O	1.497950	0.228936	-0.114406
O5	O	1.493615	0.001284	0.114196
O6	O	1.313528	0.120346	0.114196
O7	O	1.678034	0.109878	0.114175
Zn8	Zn	1.495781	0.115112	0.150477
Zn9	Zn	1.495783	0.115108	-0.150686
O10	O	1.497948	0.228939	0.114174
C11	C	1.266660	0.119576	-0.000091
C12	C	1.127003	0.117276	-0.000082
C13	C	1.054026	0.187378	-0.000109
C14	C	0.922804	0.185212	-0.000132
C15	C	0.937548	0.042837	-0.000108
C16	C	1.068767	0.045004	-0.000075
C17	C	1.112262	0.259650	-0.000116
C18	C	1.039285	0.329758	-0.000145
C19	C	0.908063	0.327592	-0.000168
C20	C	0.849818	0.255319	-0.000163
C21	C	1.489675	-0.027867	-0.000093
C22	C	1.477918	-0.114726	-0.000093
C23	C	1.585862	-0.164237	-0.000098
C24	C	1.574808	-0.245850	-0.000111
C25	C	1.455808	-0.277949	-0.000108
C26	C	1.347856	-0.228431	-0.000107
C27	C	1.358911	-0.146821	-0.000105
C28	C	1.416750	-0.523925	-0.000125
C29	C	1.405702	-0.605542	-0.000123
C30	C	1.632656	-0.622955	-0.000129
C31	C	1.643701	-0.541342	-0.000118
C32	C	1.535749	-0.491831	-0.000124
C33	C	1.444505	-0.361370	-0.000116
C34	C	1.547052	-0.408412	-0.000126
C35	C	1.724905	0.110645	-0.000121
C36	C	1.864562	0.112944	-0.000139
C37	C	1.501889	0.258088	-0.000119
C38	C	1.513646	0.344947	-0.000128
N39	N	1.495788	0.115115	0.356014
N40	N	1.495785	0.115100	-0.356223
C41	C	1.575554	0.062412	0.427940
C42	C	1.575550	0.062402	0.571823
C43	C	1.416010	0.167805	0.571841
C44	C	1.416009	0.167810	0.427961
C45	C	1.655334	0.009717	0.355993
C46	C	1.735107	-0.042990	0.427919
C47	C	1.735103	-0.042999	0.571802
C48	C	1.655325	0.009697	0.643759
H49	H	0.848648	0.384677	-0.000177
C50	C	1.622095	-0.064176	0.849857
C51	C	1.655311	0.009683	0.801919
H52	H	1.622096	-0.064183	0.947496
H53	H	1.540652	-0.075337	0.817308
H54	H	1.681026	-0.103098	0.817294
H55	H	1.596374	0.048604	0.834473
H56	H	1.736766	0.020853	0.834482
H57	H	1.662708	-0.286159	-0.000112
C58	C	1.121787	-0.075678	-0.117570
C59	C	1.148999	-0.032050	-0.000059
H60	H	1.171328	-0.123245	-0.117560
H61	H	1.035317	-0.087315	-0.117580
H62	H	1.140284	-0.046063	-0.197268
H63	H	1.130493	-0.061662	0.079639
H64	H	1.235490	-0.020414	-0.000037
C65	C	1.230135	-0.345802	-0.000092
C66	C	1.217047	-0.263713	-0.000099
H67	H	1.149376	-0.367580	-0.000075
H68	H	1.274938	-0.362749	-0.079801
H69	H	1.274951	-0.362747	0.079621
H70	H	1.172239	-0.246768	-0.079818
H71	H	1.172225	-0.246759	0.079618
C72	C	0.657858	0.290966	-0.117709
C73	C	0.705576	0.252934	-0.000190
H74	H	0.568812	0.289488	-0.117732
H75	H	0.682090	0.344034	-0.117696
H76	H	0.690296	0.265158	-0.197401
H77	H	0.673145	0.278746	0.079502
H78	H	0.681332	0.199856	-0.000191
C79	C	1.239687	-0.044940	-0.117607
C80	C	1.240256	-0.092395	-0.000100
H81	H	1.166427	-0.011344	-0.117611
H82	H	1.312133	-0.014147	-0.117598
H83	H	1.240096	-0.077147	-0.197307
H84	H	1.239857	-0.060187	0.079601
H85	H	1.167791	-0.123190	-0.000096
H86	H	1.800049	-0.085920	0.630363
C87	C	0.909665	-0.079181	0.117400
C88	C	0.873526	-0.036601	-0.000117
H89	H	0.870134	-0.128221	0.117392
H90	H	0.998247	-0.087924	0.117416
H91	H	0.885100	-0.050278	0.197094
H92	H	0.898099	-0.065501	-0.079811
H93	H	0.784924	-0.027860	-0.000145
H94	H	1.086717	0.388600	-0.000137
H95	H	1.740603	-0.515213	-0.000120
H96	H	1.655347	0.009721	0.238836
C97	C	1.809082	-0.189655	-0.000128
C98	C	1.716672	-0.128958	-0.000110
H99	H	1.889839	-0.167874	-0.000150
H100	H	1.800054	-0.221122	0.079579
H101	H	1.800033	-0.221123	-0.079843
H102	H	1.725715	-0.097493	0.079610
H103	H	1.725704	-0.097477	-0.079826
H104	H	1.347615	-0.387514	-0.000111
C105	C	1.208867	-0.615841	-0.117650
C106	C	1.274892	-0.640833	-0.000137
H107	H	1.128120	-0.637635	-0.117660
H108	H	1.199990	-0.560158	-0.117642
H109	H	1.253708	-0.632795	-0.197347
H110	H	1.230055	-0.623874	0.079559
H111	H	1.283764	-0.696528	-0.000133
H112	H	1.720544	-0.663275	-0.000126
H113	H	1.351060	0.210709	0.630437
C114	C	1.691137	-0.326730	-0.117628
C115	C	1.677853	-0.373128	-0.000127
H116	H	1.771886	-0.304938	-0.117617
H117	H	1.682128	-0.358206	-0.197324
H118	H	1.628415	-0.285570	-0.117615
H119	H	1.740570	-0.414292	-0.000145
H120	H	1.686874	-0.341650	0.079590
H121	H	1.800052	-0.085898	0.369325
C122	C	1.356683	0.302817	0.383649
C123	C	1.328338	0.225743	0.348883
H124	H	1.302559	0.338580	0.334820
H125	H	1.345257	0.310355	0.479622
H126	H	1.441454	0.311789	0.360061
H127	H	1.243569	0.216769	0.372481
H128	H	1.339753	0.218202	0.252888
H129	H	1.219109	0.261422	-0.000103
H130	H	1.328847	-0.483623	-0.000129
