data_functionalizedCrystal
_audit_creation_method	'MofGen! by Chris Wilmer'
_symmetry_space_group_name_H-M	'P1'
_symmetry_Int_Tables_number	1
_symmetry_cell_setting	triclinic
loop_
_symmetry_equiv_pos_as_xyz
  x,y,z
_cell_length_a	23.532407
_cell_length_b	23.532407
_cell_length_c	22.610064
_cell_angle_alpha	90.000603
_cell_angle_beta	89.997161
_cell_angle_gamma	97.151322
loop_
_atom_site_label
_atom_site_type_symbol
_atom_site_fract_x
_atom_site_fract_y
_atom_site_fract_z
O1	O	0.755263	-0.069127	-0.049117
O2	O	1.255263	0.430873	0.450883
O3	O	0.589400	-0.079130	-0.049135
O4	O	1.089400	0.420870	0.450865
O5	O	0.677333	0.008803	-0.049114
O6	O	1.177333	0.508803	0.450886
O7	O	0.667330	-0.157060	-0.049137
O8	O	1.167330	0.342940	0.450863
O9	O	0.677318	0.008790	0.049255
O10	O	1.177318	0.508790	0.549255
O11	O	0.589385	-0.079143	0.049234
O12	O	1.089385	0.420857	0.549234
O13	O	0.755248	-0.069140	0.049252
O14	O	1.255248	0.430860	0.549252
Zn15	Zn	0.672314	-0.074144	0.064862
Zn16	Zn	1.172314	0.425856	0.564862
Zn17	Zn	0.672334	-0.074127	-0.064744
Zn18	Zn	1.172334	0.425873	0.435256
O19	O	0.667315	-0.157073	0.049232
O20	O	1.167315	0.342927	0.549232
C21	C	0.568176	-0.078882	0.000048
C22	C	1.068176	0.421118	0.500048
C23	C	0.504959	-0.078116	0.000041
C24	C	1.004959	0.421884	0.500041
C25	C	0.105856	-0.125350	0.000061
C26	C	0.605856	0.374650	0.500061
C27	C	0.046456	-0.124638	0.000065
C28	C	0.546456	0.375362	0.500065
O29	O	0.009711	-0.168424	0.000081
O30	O	0.509711	0.331576	0.500081
N31	N	0.023830	-0.072362	0.000071
N32	N	0.523830	0.427638	0.500071
C33	C	0.060607	-0.020794	0.000080
C34	C	0.560607	0.479206	0.500080
O35	O	0.035908	0.023737	0.000086
O36	O	0.535908	0.523737	0.500086
C37	C	0.120006	-0.021506	0.000080
C38	C	0.620006	0.478494	0.500080
C39	C	0.142629	-0.073785	0.000068
C40	C	0.642629	0.426215	0.500068
C41	C	0.128479	-0.177625	0.000050
C42	C	0.628479	0.322375	0.500050
C43	C	0.187876	-0.178336	0.000045
C44	C	0.687876	0.321664	0.500045
C45	C	0.224649	-0.126772	0.000052
C46	C	0.724649	0.373228	0.500052
C47	C	0.202025	-0.074497	0.000063
C48	C	0.702025	0.425503	0.500063
C49	C	0.156783	0.030062	0.000093
C50	C	0.656783	0.530062	0.500093
C51	C	0.216185	0.029345	0.000094
C52	C	0.716185	0.529345	0.500094
C53	C	0.238808	-0.022934	0.000082
C54	C	0.738808	0.477066	0.500082
C55	C	0.298194	-0.023643	0.000065
C56	C	0.798194	0.476357	0.500065
N57	N	0.320820	-0.075920	0.000059
N58	N	0.820820	0.424080	0.500059
C59	C	0.284048	-0.127484	0.000052
C60	C	0.784048	0.372516	0.500052
C61	C	-0.064135	-0.019302	0.000080
C62	C	0.435865	0.480698	0.500080
C63	C	-0.123533	-0.018589	0.000075
C64	C	0.376467	0.481411	0.500075
C65	C	-0.137680	-0.122434	0.000061
C66	C	0.362320	0.377566	0.500061
C67	C	-0.078281	-0.123146	0.000062
C68	C	0.421719	0.376854	0.500062
C69	C	-0.041509	-0.071578	0.000074
C70	C	0.458491	0.428422	0.500074
C71	C	0.408784	-0.128974	0.000042
C72	C	0.908784	0.371026	0.500042
C73	C	0.468186	-0.129680	0.000034
C74	C	0.968186	0.370320	0.500034
C75	C	0.482329	-0.025836	0.000051
C76	C	0.982329	0.474164	0.500051
C77	C	0.422932	-0.025129	0.000055
C78	C	0.922932	0.474871	0.500055
C79	C	0.386160	-0.076702	0.000052
C80	C	0.886160	0.423298	0.500052
O81	O	0.334974	0.020119	0.000052
O82	O	0.834974	0.520119	0.500052
O83	O	0.308755	-0.172007	0.000054
O84	O	0.808755	0.327993	0.500054
C85	C	0.677071	0.030013	0.000072
C86	C	1.177071	0.530013	0.500072
C87	C	0.676305	0.093230	0.000076
C88	C	1.176305	0.593230	0.500076
C89	C	0.776472	-0.069388	0.000069
C90	C	1.276472	0.430612	0.500069
C91	C	0.839689	-0.070154	0.000071
C92	C	1.339689	0.429846	0.500071
C93	C	0.667577	-0.178283	0.000045
C94	C	1.167577	0.321717	0.500045
C95	C	0.668343	-0.241500	0.000036
C96	C	1.168343	0.258500	0.500036
N97	N	0.672304	-0.074155	0.153314
N98	N	1.172304	0.425845	0.653314
C99	C	0.723539	0.492333	0.000049
C100	C	1.223539	0.992333	0.500049
C101	C	0.722827	0.551733	0.000044
C102	C	1.222827	1.051733	0.500044
O103	O	0.766613	0.588478	0.000027
O104	O	1.266613	1.088478	0.500027
N105	N	0.670551	0.574359	0.000039
N106	N	1.170551	1.074359	0.500039
C107	C	0.618983	0.537582	0.000032
C108	C	1.118983	1.037582	0.500032
O109	O	0.574452	0.562281	0.000027
O110	O	1.074452	1.062281	0.500027
C111	C	0.619695	0.478182	0.000033
C112	C	1.119695	0.978182	0.500033
C113	C	0.671974	0.455560	0.000044
C114	C	1.171974	0.955560	0.500044
C115	C	0.775814	0.469710	0.000060
C116	C	1.275814	0.969710	0.500060
C117	C	0.776525	0.410313	0.000065
C118	C	1.276525	0.910313	0.500065
C119	C	0.724961	0.373540	0.000060
C120	C	1.224961	0.873540	0.500060
C121	C	0.672685	0.396164	0.000050
C122	C	1.172685	0.896164	0.500050
C123	C	0.568127	0.441406	0.000022
C124	C	1.068127	0.941406	0.500022
C125	C	0.568844	0.382004	0.000021
C126	C	1.068844	0.882004	0.500021
C127	C	0.621123	0.359381	0.000033
C128	C	1.121123	0.859381	0.500033
C129	C	0.621832	0.299995	0.000050
C130	C	1.121832	0.799995	0.500050
N131	N	0.674109	0.277368	0.000056
N132	N	1.174109	0.777368	0.500056
C133	C	0.725673	0.314141	0.000061
C134	C	1.225673	0.814141	0.500061
C135	C	0.617491	0.662324	0.000031
C136	C	1.117491	1.162324	0.500031
C137	C	0.616778	0.721722	0.000034
C138	C	1.116778	1.221722	0.500034
C139	C	0.720623	0.735869	0.000045
C140	C	1.220623	1.235869	0.500045
C141	C	0.721335	0.676470	0.000046
C142	C	1.221335	1.176470	0.500046
C143	C	0.669767	0.639698	0.000036
C144	C	1.169767	1.139698	0.500036
C145	C	0.727163	0.189405	0.000073
C146	C	1.227163	0.689405	0.500073
C147	C	0.727869	0.130003	0.000081
C148	C	1.227869	0.630003	0.500081
C149	C	0.624025	0.115860	0.000067
C150	C	1.124025	0.615860	0.500067
C151	C	0.623318	0.175257	0.000062
C152	C	1.123318	0.675257	0.500062
C153	C	0.674891	0.212029	0.000063
C154	C	1.174891	0.712029	0.500063
O155	O	0.578070	0.263215	0.000065
O156	O	1.078070	0.763215	0.500065
O157	O	0.770196	0.289433	0.000058
O158	O	1.270196	0.789433	0.500058
N159	N	0.672349	-0.074111	-0.153196
N160	N	1.172349	0.425889	0.346804
C161	C	0.711273	-0.035196	0.561965
C162	C	1.211273	0.464804	1.061965
C163	C	0.711276	-0.035192	0.623884
C164	C	1.211276	0.464808	1.123884
O165	O	0.744384	-0.002076	0.655911
O166	O	1.244384	0.497924	1.155911
N167	N	0.672334	-0.074115	0.654851
N168	N	1.172334	0.425885	1.154851
C169	C	0.633383	-0.113041	0.623895
C170	C	1.133383	0.386959	1.123895
O171	O	0.600259	-0.146147	0.655920
O172	O	1.100259	0.353853	1.155920
C173	C	0.633377	-0.113042	0.561976
C174	C	1.133377	0.386958	1.061976
C175	C	0.672326	-0.074120	0.531013
C176	C	1.172326	0.425880	1.031013
C177	C	0.750218	0.003724	0.531001
C178	C	1.250218	0.503724	1.031001
C179	C	0.750215	0.003719	0.469085
C180	C	1.250215	0.503719	0.969085
C181	C	0.711268	-0.035206	0.438133
C182	C	1.211268	0.464794	0.938133
C183	C	0.672323	-0.074125	0.469097
C184	C	1.172323	0.425875	0.969097
C185	C	0.594424	-0.151965	0.531021
C186	C	1.094424	0.348035	1.031021
C187	C	0.594422	-0.151962	0.469098
C188	C	1.094422	0.348038	0.969098
C189	C	0.633370	-0.113040	0.438134
C190	C	1.133370	0.386960	0.938134
C191	C	0.633374	-0.113054	0.376229
C192	C	1.133374	0.386946	0.876229
N193	N	0.672316	-0.074131	0.345262
N194	N	1.172316	0.425869	0.845262
C195	C	0.711263	-0.035207	0.376214
C196	C	1.211263	0.464793	0.876214
C197	C	0.633396	-0.113035	0.753928
C198	C	1.133396	0.386965	1.253928
C199	C	0.633403	-0.113037	0.815846
C200	C	1.133403	0.386963	1.315846
C201	C	0.711296	-0.035187	0.815831
C202	C	1.211296	0.464813	1.315831
C203	C	0.711291	-0.035188	0.753913
C204	C	1.211291	0.464812	1.253913
C205	C	0.672338	-0.074112	0.722962
C206	C	1.172338	0.425888	1.222962
C207	C	0.711255	-0.035220	0.246187
C208	C	1.211255	0.464780	0.746187
C209	C	0.711251	-0.035230	0.184266
C210	C	1.211251	0.464770	0.684266
C211	C	0.633357	-0.113078	0.184286
C212	C	1.133357	0.386922	0.684286
C213	C	0.633363	-0.113071	0.246202
C214	C	1.133363	0.386929	0.746202
C215	C	0.672314	-0.074137	0.277151
C216	C	1.172314	0.425863	0.777151
O217	O	0.600281	-0.146152	0.344163
O218	O	1.100281	0.353848	0.844163
O219	O	0.744376	-0.002101	0.344182
O220	O	1.244376	0.497899	0.844182
H221	H	0.138375	0.072634	0.000103
H222	H	0.638375	0.572634	0.500103
O223	O	0.567357	0.626663	-0.000049
O224	O	1.067357	1.126663	0.499951
C225	C	0.535610	0.636867	-0.051005
C226	C	1.035610	1.136867	0.448995
H227	H	0.549865	0.682004	-0.067991
H228	H	1.049865	1.182004	0.432009
H229	H	0.488086	0.632434	-0.039550
H230	H	0.988086	1.132434	0.460450
H231	H	0.543207	0.604414	-0.086678
H232	H	1.043207	1.104414	0.413322
O233	O	0.749108	0.002637	0.154280
O234	O	1.249108	0.502637	0.654280
C235	C	0.783491	0.036983	0.194882
C236	C	1.283491	0.536983	0.694882
H237	H	0.760145	0.037509	0.239021
H238	H	1.260145	0.537509	0.739021
H239	H	0.792438	0.082510	0.176991
H240	H	1.292438	0.582510	0.676991
H241	H	0.825690	0.018706	0.201466
H242	H	1.325690	0.518706	0.701466
H243	H	0.601653	-0.144770	0.271413
H244	H	1.101653	0.355230	0.771413
O245	O	0.517292	0.463277	-0.000018
O246	O	1.017292	0.963277	0.499982
C247	C	0.471940	0.418073	-0.000012
C248	C	0.971940	0.918073	0.499988
H249	H	0.487683	0.377808	-0.018628
H250	H	0.987683	0.877808	0.481372
H251	H	0.435425	0.430277	-0.028581
H252	H	0.935425	0.930277	0.471419
H253	H	0.456040	0.409579	0.047178
H254	H	0.956040	0.909579	0.547178
H255	H	-0.141947	0.023982	0.000076
H256	H	0.358053	0.523982	0.500076
H257	H	0.562700	-0.183658	0.443901
H258	H	1.062700	0.316342	0.943901
H259	H	0.743008	-0.003492	0.841044
H260	H	1.243008	0.496508	1.341044
H261	H	0.601694	-0.144737	0.841052
H262	H	1.101694	0.355263	1.341052
H263	H	0.762610	0.765821	0.000047
H264	H	1.262610	1.265821	0.500047
O265	O	0.825870	0.505484	0.000144
O266	O	1.325870	1.005484	0.500144
C267	C	0.828568	0.540255	0.051099
C268	C	1.328568	1.040255	0.551099
H269	H	0.783379	0.543019	0.068076
H270	H	1.283379	1.043019	0.568076
H271	H	0.850053	0.585016	0.039646
H272	H	1.350053	1.085016	0.539646
H273	H	0.854452	0.520847	0.086778
H274	H	1.354452	1.020847	0.586778
H275	H	0.378851	-0.170970	0.000041
H276	H	0.878851	0.329030	0.500041
O277	O	0.827275	0.388276	-0.000011
O278	O	1.327275	0.888276	0.499989
C279	C	0.830811	0.354355	-0.050965
C280	C	1.330811	0.854355	0.449035
H281	H	0.785840	0.339303	-0.067950
H282	H	1.285840	0.839303	0.432050
H283	H	0.853295	0.315585	-0.039507
H284	H	1.353295	0.815585	0.460493
H285	H	0.856155	0.380744	-0.086639
H286	H	1.356155	0.880744	0.413361
H287	H	-0.059867	-0.165717	0.000055
H288	H	0.440133	0.334283	0.500055
H289	H	0.246123	0.071339	0.000104
H290	H	0.746123	0.571339	0.500104
H291	H	0.601677	-0.144736	0.728731
H292	H	1.101677	0.355264	1.228731
H293	H	0.580748	0.193677	0.000069
H294	H	1.080748	0.693677	0.500069
H295	H	0.770443	0.111587	0.000092
H296	H	1.270443	0.611587	0.500092
O297	O	0.566044	0.743789	0.000055
O298	O	1.066044	1.243789	0.500055
C299	C	0.576464	0.804102	0.000035
C300	C	1.076464	1.304102	0.500035
H301	H	0.620985	0.818302	0.018664
H302	H	1.120985	1.318302	0.518664
H303	H	0.543026	0.822156	0.028587
H304	H	1.043026	1.322156	0.528587
H305	H	0.573808	0.820618	-0.047160
H306	H	1.073808	1.320618	0.452840
O307	O	0.517974	0.024304	0.000031
O308	O	1.017974	0.524304	0.500031
C309	C	0.485275	0.070602	0.000057
C310	C	0.985275	0.570602	0.500057
H311	H	0.440858	0.055898	-0.018568
H312	H	0.940858	0.555898	0.481432
H313	H	0.507391	0.106713	-0.028496
H314	H	1.007391	0.606713	0.471504
H315	H	0.481134	0.086634	0.047253
H316	H	0.981134	0.586634	0.547253
H317	H	0.781929	0.035414	0.443878
H318	H	1.281929	0.535414	0.943878
O319	O	0.772169	0.654592	0.000024
O320	O	1.272169	1.154592	0.500024
C321	C	0.817524	0.699793	0.000045
C322	C	1.317524	1.199793	0.500045
H323	H	0.801793	0.740059	-0.018577
H324	H	1.301793	1.240059	0.481423
H325	H	0.854049	0.687586	-0.028512
H326	H	1.354049	1.187586	0.471488
H327	H	0.833407	0.708284	0.047240
H328	H	1.333407	1.208284	0.547240
O329	O	0.518764	0.346260	-0.000091
O330	O	1.018764	0.846260	0.499909
C331	C	0.516083	0.311465	-0.051028
C332	C	1.016083	0.811465	0.448972
H333	H	0.545341	0.333376	-0.086633
H334	H	1.045341	0.833376	0.413367
H335	H	0.470173	0.304535	-0.068136
H336	H	0.970173	0.804535	0.431864
H337	H	0.530566	0.268347	-0.039503
H338	H	1.030566	0.768347	0.460497
H339	H	0.582043	0.085909	0.000065
H340	H	1.082043	0.585909	0.500065
O341	O	0.556533	-0.189795	0.560997
O342	O	1.056533	0.310205	1.060997
C343	C	0.522169	-0.224152	0.520389
C344	C	1.022169	0.275848	1.020389
H345	H	0.521666	-0.200800	0.476253
H346	H	1.021666	0.299200	0.976253
H347	H	0.476638	-0.233069	0.538276
H348	H	0.976638	0.266931	1.038276
H349	H	0.540415	-0.266369	0.513800
H350	H	1.040415	0.233631	1.013800
H351	H	0.206289	-0.220908	0.000035
H352	H	0.706289	0.279092	0.500035
H353	H	0.781933	0.035423	0.556197
H354	H	1.281933	0.535423	1.056197
H355	H	0.601648	-0.144772	0.159075
H356	H	1.101648	0.355228	0.659075
H357	H	0.404512	0.017441	0.000056
H358	H	0.904512	0.517441	0.500056
H359	H	0.486602	-0.172255	0.000024
H360	H	0.986602	0.327745	0.500024
O361	O	0.092844	-0.227771	0.000015
O362	O	0.592844	0.272229	0.500015
C363	C	0.125562	-0.274056	0.000021
C364	C	0.625562	0.225944	0.500021
H365	H	0.169979	-0.259328	-0.018596
H366	H	0.669979	0.240672	0.481404
H367	H	0.103463	-0.310161	-0.028548
H368	H	0.603463	0.189839	0.471452
H369	H	0.129701	-0.290106	0.047210
H370	H	0.629701	0.209894	0.547210
O371	O	0.749117	0.002520	0.276309
O372	O	1.249117	0.502520	0.776309
C373	C	0.784092	-0.027797	0.312111
C374	C	1.284092	0.472203	0.812111
H375	H	0.761155	-0.072475	0.321402
H376	H	1.261155	0.427525	0.821402
H377	H	0.793247	-0.003970	0.355646
H378	H	1.293247	0.496030	0.855646
H379	H	0.826153	-0.031460	0.288238
H380	H	1.326153	0.468540	0.788238
H381	H	0.769159	0.219337	0.000071
H382	H	1.269159	0.719337	0.500071
O383	O	-0.173489	-0.172473	0.000084
O384	O	0.326511	0.327527	0.500084
C385	C	-0.230765	-0.160628	0.000072
C386	C	0.269235	0.339372	0.500072
H387	H	-0.232791	-0.115910	0.018702
H388	H	0.267209	0.384090	0.518702
H389	H	-0.257863	-0.193518	0.028628
H390	H	0.242137	0.306482	0.528628
H391	H	-0.247955	-0.162880	-0.047120
H392	H	0.252045	0.337120	0.452880
O393	O	-0.028497	0.030847	0.000055
O394	O	0.471503	0.530847	0.500055
C395	C	-0.061211	0.077135	0.000074
C396	C	0.438789	0.577135	0.500074
H397	H	-0.105625	0.062415	-0.018548
H398	H	0.394375	0.562415	0.481452
H399	H	-0.039105	0.113247	-0.028483
H400	H	0.460895	0.613247	0.471517
H401	H	-0.065356	0.093171	0.047268
H402	H	0.434644	0.593171	0.547268
H403	H	0.743005	-0.003494	0.728706
H404	H	1.243005	0.496506	1.228706
