data_functionalizedCrystal
_audit_creation_method	'MofGen! by Chris Wilmer'
_symmetry_space_group_name_H-M	'P1'
_symmetry_Int_Tables_number	1
_symmetry_cell_setting	triclinic
loop_
_symmetry_equiv_pos_as_xyz
  x,y,z
_cell_length_a	11.026607
_cell_length_b	16.109301
_cell_length_c	10.066281
_cell_angle_alpha	99.810593
_cell_angle_beta	97.701902
_cell_angle_gamma	96.023749
loop_
_atom_site_label
_atom_site_type_symbol
_atom_site_fract_x
_atom_site_fract_y
_atom_site_fract_z
O1	O	-1.594102	-0.334894	0.113509
O2	O	-1.240812	-0.295253	0.113508
O3	O	-1.427164	-0.195498	0.113494
O4	O	-1.407750	-0.434648	0.113522
O5	O	-1.458988	-0.221960	-0.113477
O6	O	-1.272636	-0.321715	-0.113463
O7	O	-1.625926	-0.361356	-0.113463
Zn8	Zn	-1.454334	-0.345737	-0.149500
Zn9	Zn	-1.412404	-0.310872	0.149545
O10	O	-1.439574	-0.461110	-0.113449
C11	C	-1.211516	-0.301171	0.000022
C12	C	-1.076811	-0.279370	0.000021
C13	C	-1.442290	-0.177637	0.000008
C14	C	-1.439933	-0.084988	0.000006
C15	C	-1.655222	-0.355438	0.000026
C16	C	-1.789926	-0.377238	0.000036
C17	C	-1.002980	-0.339565	0.000029
C18	C	-0.863755	-0.317034	0.000028
C19	C	-1.424448	-0.478972	0.000040
C20	C	-1.426803	-0.571619	0.000051
N21	N	-1.482959	-0.369532	-0.353590
C22	C	-1.545026	0.121538	0.000028
C23	C	-1.542800	0.208593	0.000039
C24	C	-1.321702	0.221850	0.000033
C25	C	-1.323928	0.134797	0.000032
C26	C	-1.435594	0.084643	0.000022
C27	C	-1.431142	0.258750	0.000035
C28	C	-1.428728	0.353139	0.000047
C29	C	-1.438009	-0.009752	0.000013
C30	C	-1.422348	-0.319144	-0.421401
C31	C	-1.444409	-0.337467	-0.578557
N32	N	-1.383789	-0.287072	0.353635
H33	H	-1.042845	-0.407780	0.000029
C34	C	-1.181799	0.058193	0.116712
C35	C	-1.203629	0.094238	0.000030
H36	H	-1.107531	0.033159	0.116716
H37	H	-1.248612	0.015868	0.116702
H38	H	-1.174430	0.101111	0.195850
H39	H	-1.211008	0.051318	-0.079109
H40	H	-1.136800	0.136566	0.000027
C41	C	-1.654030	-0.405375	-0.622760
C42	C	-1.536518	-0.414023	-0.657222
H43	H	-1.710890	-0.452639	-0.671320
H44	H	-1.679626	-0.354531	-0.646119
H45	H	-1.651272	-0.403102	-0.527467
H46	H	-1.539275	-0.416289	-0.752514
H47	H	-1.510916	-0.464881	-0.633872
C48	C	-1.368006	-0.167645	-0.377176
C49	C	-1.330244	-0.242591	-0.342733
H50	H	-1.311137	-0.120385	-0.328618
H51	H	-1.447721	-0.161792	-0.353800
H52	H	-1.370749	-0.169928	-0.472469
H53	H	-1.327510	-0.240310	-0.247441
H54	H	-1.250507	-0.248445	-0.366100
C55	C	-1.174165	-0.219176	-0.602183
C56	C	-1.291671	-0.210518	-0.567709
H57	H	-1.117296	-0.171918	-0.553619
H58	H	-1.176926	-0.221449	-0.697464
H59	H	-1.148575	-0.270029	-0.578822
H60	H	-1.317265	-0.159667	-0.591078
H61	H	-1.288913	-0.208236	-0.472406
H62	H	-0.823892	-0.248810	0.000055
H63	H	-1.631909	0.238629	0.000047
H64	H	-1.551176	-0.426240	-0.411880
H65	H	-0.829783	-0.445458	0.000035
C66	C	-0.895500	-0.182783	0.000023
C67	C	-1.023009	-0.187278	0.000018
H68	H	-0.862290	-0.125926	0.000030
H69	H	-0.879963	-0.218903	-0.079122
H70	H	-0.857772	-0.200459	0.079179
H71	H	-1.060739	-0.169607	-0.079144
H72	H	-1.038556	-0.151146	0.079170
H73	H	-1.635951	0.080704	0.000023
C74	C	-1.220119	0.361180	0.000016
C75	C	-1.198965	0.276980	0.000024
H76	H	-1.144345	0.395211	-0.000002
H77	H	-1.254064	0.381945	0.079164
H78	H	-1.276282	0.363487	-0.079136
H79	H	-1.142809	0.274672	0.079181
H80	H	-1.165003	0.256209	-0.079133
