data_functionalizedCrystal
_audit_creation_method	'MofGen! by Chris Wilmer'
_symmetry_space_group_name_H-M	'P1'
_symmetry_Int_Tables_number	1
_symmetry_cell_setting	triclinic
loop_
_symmetry_equiv_pos_as_xyz
  x,y,z
_cell_length_a	10.723024
_cell_length_b	14.971491
_cell_length_c	13.448316
_cell_angle_alpha	89.991393
_cell_angle_beta	89.994589
_cell_angle_gamma	84.042052
loop_
_atom_site_label
_atom_site_type_symbol
_atom_site_fract_x
_atom_site_fract_y
_atom_site_fract_z
O1	O	0.162647	1.187818	-0.082732
O2	O	0.662647	1.687818	0.417268
O3	O	0.182114	0.927523	-0.082724
O4	O	0.682114	1.427523	0.417276
O5	O	-0.009258	1.063674	-0.082725
O6	O	0.490742	1.563674	0.417275
O7	O	0.354020	1.051666	-0.082732
O8	O	0.854020	1.551666	0.417268
O9	O	-0.009270	1.063657	0.082659
O10	O	0.490730	1.563657	0.582659
O11	O	0.182102	0.927506	0.082660
O12	O	0.682102	1.427506	0.582660
O13	O	0.162636	1.187801	0.082652
O14	O	0.662636	1.687801	0.582652
Cu15	Cu	0.172368	1.057651	0.097757
Cu16	Cu	0.672368	1.557651	0.597757
Cu17	Cu	0.172382	1.057672	-0.097829
Cu18	Cu	0.672382	1.557672	0.402171
O19	O	0.354008	1.051649	0.082652
O20	O	0.854008	1.551649	0.582652
C21	C	0.181237	0.894185	-0.000031
C22	C	0.681237	1.394185	0.499969
C23	C	0.178624	0.794874	-0.000028
C24	C	0.678624	1.294874	0.499972
C25	C	0.167358	0.367117	-0.090202
C26	C	0.667358	0.867117	0.409798
C27	C	0.169809	0.460431	-0.090198
C28	C	0.669809	0.960431	0.409802
C29	C	0.171036	0.507074	-0.000044
C30	C	0.671036	1.007074	0.499956
C31	C	0.169800	0.460400	0.090112
C32	C	0.669800	0.960400	0.590112
C33	C	0.167340	0.367089	0.090107
C34	C	0.667340	0.867089	0.590107
C35	C	0.174929	0.654889	0.090116
C36	C	0.674929	1.154889	0.590116
C37	C	0.177392	0.748206	0.090121
C38	C	0.677392	1.248206	0.590121
C39	C	0.177398	0.748231	-0.090190
C40	C	0.677398	1.248231	0.409810
C41	C	0.174939	0.654920	-0.090195
C42	C	0.674939	1.154920	0.409805
C43	C	0.173705	0.608252	-0.000038
C44	C	0.673705	1.108252	0.499962
C45	C	-0.055754	1.062792	-0.000034
C46	C	0.444246	1.562792	0.499966
C47	C	-0.194281	1.060177	-0.000037
C48	C	0.305719	1.560177	0.499963
C49	C	-0.270058	1.136361	-0.000041
C50	C	0.229942	1.636361	0.499959
C51	C	-0.413233	1.133660	-0.000044
C52	C	0.086767	1.633660	0.499956
C53	C	0.400504	1.052531	-0.000041
C54	C	0.900504	1.552531	0.499959
C55	C	0.539031	1.055146	-0.000044
C56	C	1.039031	1.555146	0.499956
C57	C	0.163513	1.221139	-0.000043
C58	C	0.663513	1.721139	0.499957
C59	C	0.166126	1.320449	-0.000053
C60	C	0.666126	1.820449	0.499947
N61	N	0.172357	1.057644	0.235321
N62	N	0.672357	1.557644	0.735321
N63	N	0.172383	1.057687	-0.235393
N64	N	0.672383	1.557687	0.264607
C65	C	0.087653	1.117951	0.287361
C66	C	0.587653	1.617951	0.787361
C67	C	0.087652	1.117956	0.391464
C68	C	0.587652	1.617956	0.891464
C69	C	0.172362	1.057658	0.443525
C70	C	0.672362	1.557658	0.943525
C71	C	0.257071	0.997345	0.391478
C72	C	0.757071	1.497345	0.891478
C73	C	0.257065	0.997336	0.287377
C74	C	0.757065	1.497336	0.787377
C75	C	0.257079	0.997370	0.608458
C76	C	0.757079	1.497370	1.108458
C77	C	0.257087	0.997380	0.712567
C78	C	0.757087	1.497380	1.212567
C79	C	0.087666	1.117990	0.712546
C80	C	0.587666	1.617990	1.212546
C81	C	0.087660	1.117981	0.608444
C82	C	0.587660	1.617981	1.108444
C83	C	0.172371	1.057668	0.556404
C84	C	0.672371	1.557668	1.056404
H85	H	0.173948	0.616945	-0.163606
H86	H	0.673948	1.116945	0.336394
O87	O	-0.003707	1.183011	0.552286
O88	O	0.496293	1.683011	1.052286
H89	H	-0.062621	1.224945	0.605960
H90	H	0.437379	1.724945	1.105960
H91	H	0.326040	0.948245	0.433872
H92	H	0.826040	1.448245	0.933872
H93	H	0.178405	0.786232	-0.163599
H94	H	0.678405	1.286232	0.336401
H95	H	0.326066	0.948278	0.754950
H96	H	0.826066	1.448278	1.254950
H97	H	-0.478346	1.198879	-0.000043
H98	H	0.021654	1.698879	0.499957
H99	H	-0.395864	0.989924	-0.000034
H100	H	0.104136	1.489924	0.499966
O101	O	0.348449	0.932325	0.552323
O102	O	0.848449	1.432325	1.052323
H103	H	0.407367	0.890404	0.606011
H104	H	0.907367	1.390404	1.106011
O105	O	-0.003714	1.183039	0.768665
O106	O	0.496286	1.683039	1.268665
H107	H	0.010506	1.172909	0.849800
H108	H	0.510506	1.672909	1.349800
O109	O	0.178684	0.798523	0.187355
O110	O	0.678684	1.298523	0.687355
H111	H	0.177386	0.750399	0.250046
H112	H	0.677386	1.250399	0.750046
O113	O	-0.003740	1.182980	0.231226
O114	O	0.496260	1.682980	0.731226
H115	H	-0.064469	1.144943	0.183820
H116	H	0.435531	1.644943	0.683820
O117	O	-0.248738	0.971128	-0.000026
O118	O	0.251262	1.471128	0.499974
H119	H	-0.307350	0.966176	-0.067429
H120	H	0.192650	1.466176	0.432571
H121	H	0.018678	1.167062	0.433835
H122	H	0.518678	1.667062	0.933835
O123	O	0.348430	0.932295	0.231239
O124	O	0.848430	1.432295	0.731239
H125	H	0.407345	0.890374	0.284928
H126	H	0.907345	1.390374	0.784928
H127	H	0.173940	0.616893	0.163531
H128	H	0.673940	1.116893	0.663531
H129	H	0.170791	0.498384	0.163517
H130	H	0.670791	0.998384	0.663517
H131	H	0.166368	0.329147	-0.163616
H132	H	0.666368	0.829147	0.336384
O133	O	0.166178	0.316566	0.187232
O134	O	0.666178	0.816566	0.687232
H135	H	0.081726	0.341758	0.230628
H136	H	0.581726	0.841758	0.730628
O137	O	0.171145	0.510769	-0.187430
O138	O	0.671145	1.010769	0.312570
H139	H	0.169896	0.462657	-0.250120
H140	H	0.669896	0.962657	0.249880
H141	H	-0.228937	1.203583	-0.000037
H142	H	0.271063	1.703583	0.499963
