data_functionalizedCrystal
_audit_creation_method	'MofGen! by Chris Wilmer'
_symmetry_space_group_name_H-M	'P1'
_symmetry_Int_Tables_number	1
_symmetry_cell_setting	triclinic
loop_
_symmetry_equiv_pos_as_xyz
  x,y,z
_cell_length_a	10.654554
_cell_length_b	17.038272
_cell_length_c	9.730223
_cell_angle_alpha	89.998176
_cell_angle_beta	90.001137
_cell_angle_gamma	87.799150
loop_
_atom_site_label
_atom_site_type_symbol
_atom_site_fract_x
_atom_site_fract_y
_atom_site_fract_z
O1	O	1.678035	0.109891	-0.114249
O2	O	2.178035	0.609891	0.385751
O3	O	1.313529	0.120356	-0.114261
O4	O	1.813529	0.620356	0.385739
O5	O	1.493615	0.001296	-0.114244
O6	O	1.993615	0.501296	0.385756
O7	O	1.497948	0.228951	-0.114266
O8	O	1.997948	0.728951	0.385734
O9	O	1.493613	0.001299	0.114336
O10	O	1.993613	0.501299	0.614336
O11	O	1.313527	0.120359	0.114319
O12	O	1.813527	0.620359	0.614319
O13	O	1.678033	0.109894	0.114331
O14	O	2.178033	0.609894	0.614331
Zn15	Zn	1.495779	0.115127	0.150617
Zn16	Zn	1.995779	0.615127	0.650617
Zn17	Zn	1.495782	0.115123	-0.150547
Zn18	Zn	1.995782	0.615123	0.349453
O19	O	1.497946	0.228954	0.114314
O20	O	1.997946	0.728954	0.614314
C21	C	1.266658	0.119589	0.000028
C22	C	1.766658	0.619589	0.500028
C23	C	1.127002	0.117288	0.000023
C24	C	1.627002	0.617288	0.500023
C25	C	1.489674	-0.027852	0.000046
C26	C	1.989674	0.472148	0.500046
C27	C	1.477916	-0.114711	0.000045
C28	C	1.977916	0.385289	0.500045
C29	C	0.922802	0.185229	0.000029
C30	C	1.422802	0.685229	0.500029
C31	C	1.054024	0.187391	0.000018
C32	C	1.554024	0.687391	0.500018
C33	C	1.068751	0.045016	0.000025
C34	C	1.568751	0.545016	0.500025
C35	C	0.937531	0.042855	0.000026
C36	C	1.437531	0.542855	0.500026
C37	C	0.849831	0.255337	0.000038
C38	C	1.349831	0.755337	0.500038
C39	C	0.908072	0.327609	0.000034
C40	C	1.408072	0.827609	0.500034
C41	C	1.039294	0.329771	0.000023
C42	C	1.539294	0.829771	0.500023
C43	C	1.112275	0.259663	0.000017
C44	C	1.612275	0.759663	0.500017
C45	C	1.585860	-0.164221	0.000050
C46	C	2.085860	0.335779	0.500050
C47	C	1.574806	-0.245834	0.000037
C48	C	2.074806	0.254166	0.500037
C49	C	1.455806	-0.277934	0.000028
C50	C	1.955806	0.222066	0.500028
C51	C	1.347854	-0.228418	0.000019
C52	C	1.847854	0.271582	0.500019
C53	C	1.358910	-0.146807	0.000022
C54	C	1.858910	0.353193	0.500022
C55	C	1.416748	-0.523911	0.000008
C56	C	1.916748	-0.023911	0.500008
C57	C	1.405701	-0.605528	0.000008
C58	C	1.905701	-0.105528	0.500008
C59	C	1.632654	-0.622938	0.000024
C60	C	2.132654	-0.122938	0.500024
C61	C	1.643699	-0.541325	0.000035
C62	C	2.143699	-0.041325	0.500035
C63	C	1.535747	-0.491816	0.000019
C64	C	2.035747	0.008184	0.500019
C65	C	1.444504	-0.361355	0.000019
C66	C	1.944504	0.138645	0.500019
C67	C	1.547050	-0.408397	0.000019
C68	C	2.047050	0.091603	0.500019
C69	C	1.724903	0.110662	0.000040
C70	C	2.224903	0.610662	0.500040
C71	C	1.864560	0.112963	0.000035
C72	C	2.364560	0.612963	0.500035
C73	C	1.501888	0.258103	0.000022
C74	C	2.001888	0.758103	0.500022
C75	C	1.513645	0.344962	0.000013
C76	C	2.013645	0.844962	0.500013
N77	N	1.495787	0.115130	0.356153
N78	N	1.995787	0.615130	0.856153
N79	N	1.495784	0.115115	-0.356083
N80	N	1.995784	0.615115	0.143917
C81	C	1.575553	0.062428	0.428087
C82	C	2.075553	0.562428	0.928087
C83	C	1.575549	0.062418	0.571970
C84	C	2.075549	0.562418	1.071970
C85	C	1.416009	0.167819	0.571973
C86	C	1.916009	0.667819	1.071973
C87	C	1.416008	0.167824	0.428093
C88	C	1.916008	0.667824	0.928093
C89	C	1.655332	0.009733	0.356148
C90	C	2.155332	0.509733	0.856148
C91	C	1.735105	-0.042972	0.428081
C92	C	2.235105	0.457028	0.928081
C93	C	1.735101	-0.042982	0.571964
C94	C	2.235101	0.457018	1.071964
C95	C	1.655323	0.009714	0.643914
C96	C	2.155323	0.509714	1.143914
H97	H	0.742982	0.253584	0.000052
H98	H	1.242982	0.753584	0.500052
H99	H	1.351054	0.210738	0.369524
H100	H	1.851054	0.710738	0.869524
H101	H	1.662706	-0.286142	0.000044
H102	H	2.162706	0.213858	0.500044
Br103	Br	1.655349	0.009749	0.160879
Br104	Br	2.155349	0.509749	0.660879
H105	H	1.250962	-0.254561	0.000003
H106	H	1.750962	0.245439	0.500003
H107	H	0.848643	0.384688	0.000029
H108	H	1.348643	0.884688	0.500029
H109	H	1.271010	-0.106496	0.000018
H110	H	1.771010	0.393504	0.500018
Br111	Br	1.805205	-0.497766	0.000003
Br112	Br	2.305205	0.002234	0.500003
H113	H	1.720542	-0.663257	0.000034
H114	H	2.220542	-0.163257	0.500034
H115	H	1.643939	-0.382257	-0.000005
H116	H	2.143939	0.117743	0.499995
H117	H	1.655318	0.009697	0.761073
H118	H	2.155318	0.509697	1.261073
H119	H	1.328845	-0.483610	-0.000005
H120	H	1.828845	0.016390	0.499995
Br121	Br	0.858479	-0.055222	0.000044
Br122	Br	1.358479	0.444778	0.500044
Br123	Br	1.283008	-0.404927	-0.000007
Br124	Br	1.783008	0.095073	0.499993
Br125	Br	1.244190	-0.649092	0.000011
Br126	Br	1.744190	-0.149092	0.500011
Br127	Br	1.747368	-0.120665	0.000082
Br128	Br	2.247368	0.379335	0.500082
Br129	Br	1.843354	-0.114494	0.330442
Br130	Br	2.343354	0.385506	0.830442
Br131	Br	1.843347	-0.114516	0.669589
Br132	Br	2.343347	0.385484	1.169589
H133	H	1.351058	0.210723	0.630564
H134	H	1.851058	0.710723	1.130564
H135	H	1.086711	0.388618	0.000007
H136	H	1.586711	0.888618	0.500007
Br137	Br	1.290364	0.262599	-0.000021
Br138	Br	1.790364	0.762599	0.499979
H139	H	1.128181	-0.012063	0.000021
H140	H	1.628181	0.487937	0.500021
