data_functionalizedCrystal
_audit_creation_method	'MofGen! by Chris Wilmer'
_symmetry_space_group_name_H-M	'P1'
_symmetry_Int_Tables_number	1
_symmetry_cell_setting	triclinic
loop_
_symmetry_equiv_pos_as_xyz
  x,y,z
_cell_length_a	14.560438
_cell_length_b	19.902436
_cell_length_c	14.560438
_cell_angle_alpha	60.002540
_cell_angle_beta	90.001334
_cell_angle_gamma	59.994852
loop_
_atom_site_label
_atom_site_type_symbol
_atom_site_fract_x
_atom_site_fract_y
_atom_site_fract_z
Zr1	Zr	-0.120614	0.735481	0.884782
O2	O	-0.267283	0.875664	0.738135
O3	O	-0.075639	0.595300	0.929735
O4	O	-0.267262	0.735482	0.929734
O5	O	0.075481	0.735479	0.738139
O6	O	-0.267260	0.735481	1.080874
O7	O	-0.075660	0.735481	0.738135
O8	O	0.075518	0.484720	1.080876
O9	O	-0.267297	0.986240	0.738138
O10	O	-0.056472	0.652957	1.061704
O11	O	0.056321	0.652956	0.948913
O12	O	-0.169290	0.818003	0.948912
O13	O	-0.056496	0.818002	0.836121
Zr14	Zr	0.120441	0.735476	1.125840
Zr15	Zr	-0.120611	0.735479	1.125834
Zr16	Zr	0.120438	0.735478	0.884788
Zr17	Zr	-0.120637	0.911837	0.884787
Zr18	Zr	0.120464	0.559119	1.125835
O19	O	0.075466	0.875657	1.080887
O20	O	-0.267279	0.875661	1.080878
O21	O	0.075463	0.875659	0.738143
O22	O	0.267110	0.595293	1.272488
O23	O	-0.075635	0.595297	1.272479
O24	O	0.267106	0.595296	0.929744
O25	O	-0.075654	0.735477	1.272483
O26	O	0.267089	0.735475	1.080888
O27	O	0.267088	0.735476	0.929748
O28	O	0.075487	0.735476	1.272487
O29	O	-0.267295	0.986239	0.929741
O30	O	0.267122	0.484718	1.080881
O31	O	0.267125	0.484717	1.272484
O32	O	0.075520	0.484719	1.272479
O33	O	-0.075693	0.986238	0.738143
O34	O	-0.075691	0.986236	0.929746
O35	O	0.169117	0.652954	1.061710
O36	O	0.056324	0.652955	1.174502
O37	O	-0.056494	0.818001	1.061709
O38	O	0.056299	0.818000	0.948918
C39	C	-0.000057	0.514883	1.005305
C40	C	-0.000047	0.440015	1.005303
C41	C	-0.301606	0.735482	1.005303
C42	C	-0.403939	0.735483	1.005301
C43	C	-0.510905	0.821634	0.946425
C44	C	-0.607053	0.821630	0.946439
C45	C	-0.489257	0.649316	1.064204
C46	C	-0.393110	0.649321	1.064197
C47	C	-0.809207	0.925129	0.929227
C48	C	-0.916179	1.011285	0.870333
C49	C	-0.936977	1.087352	0.764818
C50	C	-0.850808	1.077268	0.718174
C51	C	-0.743839	0.991111	0.777061
C52	C	-0.723042	0.915047	0.882594
C53	C	-0.190960	0.545828	1.081396
C54	C	-0.083989	0.459670	1.140278
C55	C	-0.063183	0.383594	1.245792
C56	C	-0.149349	0.393669	1.292429
C57	C	-0.256320	0.479827	1.233548
C58	C	-0.277120	0.555903	1.128035
C59	C	-0.000100	0.168005	1.005314
C60	C	0.071397	0.196243	0.934507
C61	C	0.071102	0.274362	0.934123
C62	C	-0.000073	0.302952	1.005308
C63	C	-0.122648	0.338517	0.953414
C64	C	-0.122271	0.260680	0.952881
C65	C	0.049996	0.133488	1.128051
C66	C	0.052491	0.210540	1.127872
C67	C	-0.000064	0.379220	1.005306
C68	C	-0.000117	0.091741	1.005312
C69	C	0.301433	0.735475	1.005319
C70	C	0.403766	0.735473	1.005321
C71	C	-0.000090	0.735480	0.703793
C72	C	-0.000091	0.735481	0.601460
C73	C	-0.000116	0.956074	1.005317
C74	C	-0.000125	1.030942	1.005320
C75	C	-0.083357	0.735484	0.553382
C76	C	-0.083351	0.735478	0.457234
C77	C	0.083193	0.735470	0.457249
C78	C	0.083191	0.735469	0.553400
C79	C	-0.145538	0.680109	0.363665
C80	C	-0.228820	0.680129	0.315572
C81	C	-0.340196	0.735514	0.308924
C82	C	-0.368309	0.790904	0.350351
C83	C	-0.285031	0.790893	0.398433
C84	C	-0.173643	0.735485	0.405098
C85	C	0.145366	0.790846	0.646965
C86	C	0.228640	0.790842	0.695044
C87	C	0.340020	0.735462	0.701690
C88	C	0.368132	0.680087	0.660250
C89	C	0.284858	0.680091	0.612171
C90	C	0.173479	0.735469	0.605533
C91	C	-0.000083	0.735476	1.306829
C92	C	-0.000082	0.735476	1.409162
C93	C	-0.000054	0.514881	1.306823
C94	C	-0.000043	0.440012	1.409153
C95	C	0.301462	0.514879	1.005312
C96	C	0.403805	0.440010	1.005313
C97	C	0.301466	0.514877	1.306831
C98	C	0.403810	0.440007	1.409164
C99	C	-0.301638	0.956080	0.703791
C100	C	-0.403982	1.030950	0.601458
C101	C	-0.000119	0.956076	0.703799
C102	C	-0.000130	1.030945	0.601469
C103	C	-0.301635	0.956077	1.005310
C104	C	-0.403978	1.030947	1.005309
C105	C	-0.058926	0.404854	1.398330
C106	C	-0.058938	0.334517	1.494471
C107	C	-0.000060	0.299334	1.601435
C108	C	0.058825	0.334499	1.612256
C109	C	0.058830	0.404840	1.516116
C110	C	0.510755	0.404849	1.064192
C111	C	0.606926	0.334512	1.064188
C112	C	0.596145	0.299331	1.005311
C113	C	0.489184	0.334498	0.946425
C114	C	0.393015	0.404840	0.946423
C115	C	0.392994	0.404848	1.516106
C116	C	0.489148	0.334509	1.612268
C117	C	0.596116	0.299327	1.601485
C118	C	0.606929	0.334493	1.494531
C119	C	0.510776	0.404835	1.398372
C120	C	-0.393167	1.066118	0.494516
C121	C	-0.489321	1.136478	0.398354
C122	C	-0.596289	1.171664	0.409137
C123	C	-0.607102	1.136493	0.516091
C124	C	-0.510949	1.066139	0.612250
C125	C	0.058743	1.066110	0.612292
C126	C	0.058729	1.136467	0.516151
C127	C	-0.000153	1.171652	0.409187
C128	C	-0.059033	1.136484	0.398366
C129	C	-0.059025	1.066133	0.494506
C130	C	-0.393161	1.066105	1.064198
C131	C	-0.489314	1.136444	1.064219
C132	C	-0.596282	1.171627	1.005345
C133	C	-0.607097	1.136461	0.946455
C134	C	-0.510945	1.066120	0.946440
H135	H	-0.519728	0.891793	0.898469
H136	H	0.305936	0.433458	0.898480
N137	N	-0.283919	1.030206	0.483463
N138	N	-0.255250	1.085178	0.433308
H139	H	-0.178095	1.059825	0.425493
N140	N	-0.694496	1.243494	1.005343
N141	N	-0.763710	1.322010	0.914675
H142	H	-0.833072	1.372769	0.914674
N143	N	-0.694514	1.243530	0.310919
N144	N	-0.763733	1.322043	0.294276
H145	H	-0.833103	1.372796	0.224907
N146	N	-0.200122	0.623546	0.273269
N147	N	-0.274489	0.623570	0.230336
H148	H	-0.254229	0.583613	0.200454
N149	N	0.168232	0.735479	0.408119
N150	N	0.141260	0.802106	0.308936
H151	H	0.201316	0.802117	0.274233
H152	H	-0.326479	0.488026	1.271530
N153	N	-0.172559	0.297706	0.839590
N154	N	-0.258674	0.302687	0.813698
H155	H	-0.294183	0.328834	0.733685
N156	N	-0.478240	1.172385	0.289121
N157	N	-0.382723	1.140947	0.279520
H158	H	-0.374892	1.166304	0.202377
H159	H	-0.106963	1.037503	0.485678
H160	H	-0.106886	0.433499	1.311244
H161	H	-0.480486	1.165068	1.112173
N162	N	-0.716379	1.172454	0.527075
N163	N	-0.802211	1.235267	0.441202
H164	H	-0.879391	1.260665	0.448955
H165	H	0.142793	0.181795	1.166641
H166	H	-0.986335	1.019489	0.908321
H167	H	-0.000150	1.228936	0.330913
N168	N	-0.283911	1.030186	1.124347
N169	N	-0.274290	1.061592	1.176924
H170	H	-0.197135	1.036225	1.219414
N171	N	0.478066	0.298594	1.721500
N172	N	0.427906	0.259344	1.750161
H173	H	0.420075	0.233980	1.827303
H174	H	0.307756	0.634999	0.578429
H175	H	-0.519768	1.037506	0.699325
N176	N	-0.716378	1.172368	0.886397
N177	N	-0.745042	1.117387	0.911428
H178	H	-0.822231	1.142741	0.869038
H179	H	-0.106889	0.305894	1.485638
H180	H	-0.178436	0.244732	1.001122
N181	N	-0.119174	1.172443	0.289094
N182	N	-0.119159	1.235252	0.203273
H183	H	-0.161629	1.260648	0.126096
H184	H	-0.519769	1.037501	0.898482
H185	H	0.106699	1.037467	0.699378
H186	H	0.106681	1.165089	0.524984
H187	H	-0.673683	0.982900	0.739081
H188	H	0.106786	0.433456	1.524944
H189	H	-0.867759	1.139210	0.632247
H190	H	-1.024083	1.157502	0.716866
H191	H	0.458826	0.634995	0.665659
H192	H	-0.792276	0.863198	1.015152
H193	H	-0.480454	0.579166	1.112153
H194	H	-0.013834	0.451468	1.102289
N195	N	-0.128090	0.315949	1.400207
N196	N	-0.032579	0.239029	1.452766
H197	H	-0.017560	0.184134	1.528884
H198	H	0.023921	0.313436	1.293723
H199	H	0.054673	0.835940	0.641562
N200	N	-0.212201	0.623532	0.973609
N201	N	-0.199587	0.614594	0.894553
H202	H	-0.214587	0.669470	0.818426
H203	H	0.519555	0.433486	1.112137
N204	N	-0.006042	0.230128	1.199626
N205	N	-0.087821	0.312885	1.161429
H206	H	-0.129169	0.326725	1.212101
H207	H	0.161362	0.247714	0.968933
N208	N	0.694397	0.227481	1.005327
N209	N	0.789878	0.196100	1.057909
H210	H	0.859274	0.145354	1.057927
N211	N	0.184934	0.115330	0.978009
N212	N	0.214485	0.035904	1.061698
H213	H	0.294683	-0.021242	1.092446
H214	H	0.036957	0.222204	0.844507
H215	H	0.036370	0.338822	0.843590
N216	N	0.716190	0.298547	1.483507
N217	N	0.725847	0.329934	1.388020
H218	H	0.803014	0.304541	1.380234
H219	H	-0.178225	0.359411	1.002509
H220	H	-0.163027	0.405523	0.863960
N221	N	0.716166	0.298609	1.124348
N222	N	0.725765	0.330025	1.176920
H223	H	0.802913	0.304671	1.219409
N224	N	0.000018	0.227442	1.699668
N225	N	0.090743	0.148954	1.768832
H226	H	0.090823	0.098168	1.838219
N227	N	0.478162	0.298555	0.886298
N228	N	0.382669	0.329943	0.833733
H229	H	0.374885	0.304553	0.791274
N230	N	0.161501	0.048141	1.182438
N231	N	0.178534	-0.024884	1.196186
H232	H	0.257287	-0.085160	1.234589
H233	H	-0.001832	0.114632	1.181055
H234	H	0.674401	0.242049	1.679794
N235	N	0.521814	0.440727	1.289126
N236	N	0.435966	0.503517	1.203268
H237	H	0.443766	0.528858	1.126112
N238	N	0.283746	0.440762	1.527159
N239	N	0.274126	0.409352	1.622661
H240	H	0.196971	0.434713	1.630477
H241	H	-0.307921	0.835992	0.432158
N242	N	-0.168422	0.735483	0.602470
N243	N	-0.242754	0.735476	0.559533
H244	H	-0.302830	0.735468	0.594204
N245	N	0.425076	0.735457	0.750818
N246	N	0.445291	0.709145	0.850764
H247	H	0.505364	0.709136	0.885464
N248	N	-0.482091	0.847487	0.343532
N249	N	-0.556434	0.847489	0.300598
H250	H	-0.636794	0.887450	0.295785
N251	N	-0.425256	0.735532	0.259786
N252	N	-0.400147	0.686086	0.222793
H253	H	-0.460215	0.686093	0.188089
N254	N	0.199949	0.847381	0.737407
N255	N	0.245067	0.808676	0.838840
H256	H	0.224812	0.848599	0.868768
N257	N	-0.031768	0.623511	0.370469
N258	N	-0.006692	0.574071	0.333470
H259	H	0.073660	0.534098	0.338271
H260	H	0.106762	0.305843	1.699358
