data_functionalizedCrystal
_audit_creation_method	'MofGen! by Chris Wilmer'
_symmetry_space_group_name_H-M	'P1'
_symmetry_Int_Tables_number	1
_symmetry_cell_setting	triclinic
loop_
_symmetry_equiv_pos_as_xyz
  x,y,z
_cell_length_a	8.559649
_cell_length_b	17.038272
_cell_length_c	7.681481
_cell_angle_alpha	83.842174
_cell_angle_beta	94.913240
_cell_angle_gamma	80.445110
loop_
_atom_site_label
_atom_site_type_symbol
_atom_site_fract_x
_atom_site_fract_y
_atom_site_fract_z
O1	O	2.102567	-0.018069	-0.146400
O2	O	1.642806	0.021983	-0.146410
O3	O	1.869955	-0.111695	-0.146391
O4	O	1.875418	0.115610	-0.146419
O5	O	1.897909	-0.128182	0.146469
O6	O	1.670760	0.005496	0.146450
O7	O	2.130521	-0.034556	0.146460
Zn8	Zn	1.905079	-0.017147	0.192953
Zn9	Zn	1.868248	0.004575	-0.192903
O10	O	1.903372	0.099123	0.146441
C11	C	1.597666	0.016775	0.000018
C12	C	1.421513	0.025810	0.000015
C13	C	1.878962	-0.148769	0.000039
C14	C	1.864132	-0.234673	0.000038
C15	C	2.000285	-0.292946	0.000043
C16	C	1.986340	-0.373660	0.000026
C17	C	1.836242	-0.396101	0.000016
C18	C	1.700079	-0.337821	0.000006
C19	C	1.714024	-0.257108	0.000010
C20	C	1.786975	-0.638906	-0.000009
C21	C	1.773041	-0.719626	-0.000008
C22	C	2.059303	-0.755459	0.000008
C23	C	2.073236	-0.674743	0.000023
C24	C	1.937072	-0.616470	0.000004
C25	C	1.821985	-0.478604	0.000004
C26	C	1.951329	-0.533968	0.000003
C27	C	2.175661	-0.029347	0.000028
C28	C	2.351812	-0.038381	0.000020
C29	C	1.894365	0.136197	0.000008
C30	C	1.909193	0.222102	-0.000003
N31	N	1.930226	-0.031973	0.456289
N32	N	1.843113	0.019394	-0.456239
H33	H	1.346417	0.087683	-0.000002
C34	C	2.048953	-0.101917	0.556245
C35	C	2.125580	-0.147079	0.436234
C36	C	2.234971	-0.211510	0.528247
H37	H	1.994452	-0.134844	0.628186
H38	H	2.125705	-0.082057	0.628111
H39	H	2.048840	-0.166939	0.364397
H40	H	2.180113	-0.114176	0.364289
H41	H	2.311723	-0.191651	0.600114
H42	H	2.180457	-0.244431	0.600185
H43	H	2.286986	-0.242157	0.446834
C44	C	1.724737	0.089413	0.443589
C45	C	1.765272	0.161548	0.488260
C46	C	1.656272	0.226067	0.395989
H47	H	1.620583	0.085818	0.473658
H48	H	1.727480	0.087849	0.320612
H49	H	1.762513	0.163110	0.611210
H50	H	1.869408	0.165169	0.458186
H51	H	1.659015	0.224504	0.273011
H52	H	1.552124	0.222464	0.426065
H53	H	1.683768	0.275018	0.426272
H54	H	1.426899	-0.100250	0.000019
C55	C	2.163258	-0.268610	-0.000315
C56	C	2.231809	-0.290548	-0.151011
C57	C	2.381932	-0.268136	-0.151421
H58	H	2.229717	-0.294936	0.101689
H59	H	2.152125	-0.212190	-0.000407
H60	H	2.242950	-0.346958	-0.150903
H61	H	2.165396	-0.264224	-0.253040
H62	H	2.370798	-0.211715	-0.151513
H63	H	2.448376	-0.294464	-0.049410
H64	H	2.428456	-0.283010	-0.253673
C65	C	2.134081	-0.436938	-0.000334
C66	C	2.120087	-0.475816	-0.151037
C67	C	2.256172	-0.534103	-0.151447
H68	H	2.144475	-0.475001	0.101666
H69	H	2.225498	-0.412034	-0.000416
H70	H	2.028696	-0.500720	-0.150939
H71	H	2.109715	-0.437774	-0.253061
H72	H	2.347590	-0.509200	-0.151529
H73	H	2.266555	-0.572161	-0.049441
H74	H	2.246702	-0.560484	-0.253704
C75	C	2.207236	-0.818626	-0.000267
C76	C	2.282612	-0.801300	-0.150914
C77	C	2.418909	-0.859466	-0.151224
H78	H	2.177653	-0.869945	-0.000364
H79	H	2.278165	-0.818505	0.101808
H80	H	2.211697	-0.801430	-0.252962
H81	H	2.312233	-0.749991	-0.150849
H82	H	2.489838	-0.859344	-0.049149
H83	H	2.389310	-0.910781	-0.151316
H84	H	2.470076	-0.847714	-0.253427
H85	H	2.195461	-0.656479	0.000031
C86	C	1.639309	-0.575574	0.000256
C87	C	1.653347	-0.536659	0.150899
C88	C	1.517353	-0.478301	0.151191
H89	H	1.547810	-0.600398	0.000346
H90	H	1.629051	-0.537549	-0.101821
H91	H	1.663588	-0.574678	0.252950
H92	H	1.744818	-0.511818	0.150841
H93	H	1.507095	-0.440276	0.049114
H94	H	1.425865	-0.503131	0.151276
H95	H	1.526867	-0.451884	0.253392
H96	H	1.650810	-0.737894	0.000013
H97	H	1.577864	-0.356098	-0.000013
H98	H	1.603153	-0.209662	0.000006
H99	H	2.073534	-0.515691	-0.000028
H100	H	1.699775	-0.496884	0.000000
