data_functionalizedCrystal
_audit_creation_method	'MofGen! by Chris Wilmer'
_symmetry_space_group_name_H-M	'P1'
_symmetry_Int_Tables_number	1
_symmetry_cell_setting	triclinic
loop_
_symmetry_equiv_pos_as_xyz
  x,y,z
_cell_length_a	13.897449
_cell_length_b	16.959454
_cell_length_c	16.959447
_cell_angle_alpha	90.026736
_cell_angle_beta	90.016952
_cell_angle_gamma	90.020902
loop_
_atom_site_label
_atom_site_type_symbol
_atom_site_fract_x
_atom_site_fract_y
_atom_site_fract_z
Zn1	Zn	1.474625	-0.314648	0.446984
Zn2	Zn	1.974625	0.185352	0.946984
Zn3	Zn	1.474531	-0.446841	0.314814
Zn4	Zn	1.974531	0.053159	0.814814
Zn5	Zn	1.313333	-0.314682	0.314815
Zn6	Zn	1.813333	0.185318	0.814815
Zn7	Zn	1.313289	-0.446791	0.446946
Zn8	Zn	1.813289	0.053209	0.946946
O9	O	1.393945	-0.380741	0.380890
O10	O	1.893945	0.119259	0.880890
O11	O	1.609594	-0.332191	0.429466
O12	O	2.109594	0.167809	0.929466
O13	O	1.453126	-0.429345	0.204203
O14	O	1.953126	0.070655	0.704203
O15	O	1.334786	-0.204067	0.332364
O16	O	1.834786	0.295933	0.832364
O17	O	1.609525	-0.429312	0.332361
O18	O	2.109525	0.070688	0.832361
O19	O	1.453287	-0.204042	0.429468
O20	O	1.953287	0.295958	0.929468
O21	O	1.334694	-0.332248	0.204204
O22	O	1.834694	0.167752	0.704204
O23	O	1.178345	-0.332200	0.332328
O24	O	1.678345	0.167800	0.832328
O25	O	1.334713	-0.429227	0.557562
O26	O	1.834713	0.070773	1.057562
O27	O	1.178314	-0.429259	0.429404
O28	O	1.678314	0.070741	0.929404
O29	O	1.453245	-0.332142	0.557590
O30	O	1.953245	0.167858	1.057590
O31	O	1.453084	-0.557445	0.332325
O32	O	1.953084	-0.057445	0.832325
O33	O	1.334621	-0.557408	0.429402
O34	O	1.834621	-0.057408	0.929402
C35	C	1.393864	-0.586107	0.380876
C36	C	1.893864	-0.086107	0.880876
C37	C	1.393917	-0.673963	0.380897
C38	C	1.893917	-0.173963	0.880897
C39	C	1.143330	-0.380728	0.380862
C40	C	1.643330	0.119272	0.880862
C41	C	1.036116	-0.380742	0.380869
C42	C	1.536116	0.119258	0.880869
C43	C	1.332350	-1.045450	0.431432
C44	C	1.832350	-0.545450	0.931432
C45	C	1.455808	-1.045428	0.330428
C46	C	1.955808	-0.545428	0.830428
C47	C	1.455774	-0.962882	0.330420
C48	C	1.955774	-0.462882	0.830420
C49	C	1.394026	-0.921616	0.380919
C50	C	1.894026	-0.421616	0.880919
C51	C	1.332313	-0.962896	0.431425
C52	C	1.832313	-0.462896	0.931425
C53	C	1.517480	-0.921596	0.279910
C54	C	2.017480	-0.421596	0.779910
C55	C	1.517448	-0.839045	0.279900
C56	C	2.017448	-0.339045	0.779900
C57	C	1.455704	-0.797778	0.330403
C58	C	1.955704	-0.297778	0.830403
C59	C	1.393989	-0.839063	0.380912
C60	C	1.893989	-0.339063	0.880912
C61	C	1.332241	-0.797797	0.431410
C62	C	1.832241	-0.297797	0.931410
C63	C	1.270530	-0.839080	0.481924
C64	C	1.770530	-0.339080	0.981924
C65	C	1.270569	-0.921629	0.481928
C66	C	1.770569	-0.421629	0.981928
C67	C	1.455665	-0.715229	0.330398
C68	C	1.955665	-0.215229	0.830398
C69	C	1.332204	-0.715243	0.431403
C70	C	1.832204	-0.215243	0.931403
C71	C	0.949047	-0.380745	0.380882
C72	C	1.449047	0.119255	0.880882
C73	C	0.839814	-0.380750	0.380906
C74	C	1.339814	0.119250	0.880906
C75	C	1.645537	-0.380753	0.380918
C76	C	2.145537	0.119247	0.880918
C77	C	1.752751	-0.380759	0.380930
C78	C	2.252751	0.119241	0.880930
C79	C	1.393985	-0.380675	0.587058
C80	C	1.893985	0.119325	1.087058
C81	C	1.394002	-0.380647	0.674915
C82	C	1.894002	0.119353	1.174915
C83	C	1.394052	-0.174572	0.380921
C84	C	1.894052	0.325428	0.880921
C85	C	1.394098	-0.086716	0.380934
C86	C	1.894098	0.413284	0.880934
C87	C	1.393960	-0.380749	0.175523
C88	C	1.893960	0.119251	0.675523
C89	C	1.394130	-0.380554	0.087667
C90	C	1.894130	0.119446	0.587667
C91	C	1.332402	-0.431111	1.046379
C92	C	1.832402	0.068889	1.546379
C93	C	1.455832	-0.330017	1.046402
C94	C	1.955832	0.169983	1.546402
C95	C	1.455806	-0.330033	0.963857
C96	C	1.955806	0.169967	1.463857
C97	C	1.394079	-0.380591	0.922568
C98	C	1.894079	0.119409	1.422568
C99	C	1.332377	-0.431131	0.963825
C100	C	1.832377	0.068869	1.463825
C101	C	1.517514	-0.279499	0.922593
C102	C	2.017514	0.220501	1.422593
C103	C	1.517491	-0.279515	0.840042
C104	C	2.017491	0.220485	1.340042
C105	C	1.455758	-0.330069	0.798752
C106	C	1.955758	0.169931	1.298752
C107	C	1.394053	-0.380611	0.840014
C108	C	1.894053	0.119389	1.340014
C109	C	1.332326	-0.431168	0.798725
C110	C	1.832326	0.068832	1.298725
C111	C	1.270615	-0.481707	0.839986
C112	C	1.770615	0.018293	1.339986
C113	C	1.270644	-0.481685	0.922535
C114	C	1.770644	0.018315	1.422535
C115	C	1.455729	-0.330090	0.716203
C116	C	1.955729	0.169910	1.216203
C117	C	1.332300	-0.431188	0.716172
C118	C	1.832300	0.068812	1.216172
H119	H	1.281925	-0.681650	0.472528
H120	H	1.781925	-0.181650	0.972528
F121	F	1.583194	-0.965518	0.226172
F122	F	2.083194	-0.465518	0.726172
H123	H	1.567775	-0.238343	0.956217
H124	H	2.067775	0.261657	1.456217
H125	H	1.567697	-0.805437	0.238770
H126	H	2.067697	-0.305437	0.738770
F127	F	1.204812	-0.795153	0.535663
F128	F	1.704812	-0.295153	1.035663
F129	F	1.204897	-0.965571	0.535682
F130	F	1.704897	-0.465571	1.035682
F131	F	1.266680	-1.089386	0.485193
F132	F	1.766680	-0.589386	0.985193
F133	F	1.204977	-0.535470	0.966452
F134	F	1.704977	-0.035470	1.466452
H135	H	1.506074	-1.079032	0.289309
H136	H	2.006074	-0.579032	0.789309
F137	F	1.521329	-0.671296	0.276635
F138	F	2.021329	-0.171296	0.776635
H139	H	1.282025	-0.472351	0.682560
H140	H	1.782025	0.027649	1.182560
H141	H	1.220361	-0.522874	0.806358
H142	H	1.720361	-0.022874	1.306358
H143	H	1.282157	-0.472256	1.079977
H144	H	1.782157	0.027744	1.579977
H145	H	1.505976	-0.288944	0.682613
H146	H	2.005976	0.211056	1.182613
F147	F	1.521529	-0.276218	1.090347
F148	F	2.021529	0.223782	1.590347
F149	F	1.583166	-0.225726	0.796137
F150	F	2.083166	0.274274	1.296137
