data_functionalizedCrystal
_audit_creation_method	'MofGen! by Chris Wilmer'
_symmetry_space_group_name_H-M	'P1'
_symmetry_Int_Tables_number	1
_symmetry_cell_setting	triclinic
loop_
_symmetry_equiv_pos_as_xyz
  x,y,z
_cell_length_a	10.686220
_cell_length_b	21.295417
_cell_length_c	10.685880
_cell_angle_alpha	94.332822
_cell_angle_beta	89.641569
_cell_angle_gamma	94.412682
loop_
_atom_site_label
_atom_site_type_symbol
_atom_site_fract_x
_atom_site_fract_y
_atom_site_fract_z
Zn1	Zn	1.972145	-0.196503	-0.562327
Zn2	Zn	1.955873	-0.294391	-0.352551
Zn3	Zn	1.746274	-0.197786	-0.368649
Zn4	Zn	1.762281	-0.310391	-0.578319
O5	O	1.859143	-0.249768	-0.465462
O6	O	2.145533	-0.202255	-0.521070
O7	O	1.914560	-0.275417	-0.179147
O8	O	1.776347	-0.109524	-0.394385
O9	O	2.133578	-0.274173	-0.366949
O10	O	1.942294	-0.108581	-0.536679
O11	O	1.760569	-0.204442	-0.190974
O12	O	1.572851	-0.219957	-0.409892
O13	O	1.803629	-0.301443	-0.751738
O14	O	1.584611	-0.302687	-0.563936
O15	O	1.957816	-0.217770	-0.739988
O16	O	1.930082	-0.384605	-0.382456
O17	O	1.787851	-0.396361	-0.548327
C18	C	1.533214	-0.263198	-0.490397
C19	C	1.393782	-0.268960	-0.501094
C20	C	1.858974	-0.413324	-0.465405
C21	C	1.859019	-0.483291	-0.465414
C22	C	1.933156	-0.510015	-0.379121
C23	C	1.933217	-0.575756	-0.379145
C24	C	1.859118	-0.614771	-0.465450
C25	C	1.784976	-0.588039	-0.551758
C26	C	1.784927	-0.522299	-0.551740
N27	N	1.750111	-0.722899	-0.483408
N28	N	1.750161	-0.785349	-0.483418
C29	C	1.859264	-0.812842	-0.465511
N30	N	1.968315	-0.775525	-0.447569
N31	N	1.968263	-0.713069	-0.447553
C32	C	1.859163	-0.686055	-0.465479
C33	C	1.933473	-0.910850	-0.379239
C34	C	1.933537	-0.976593	-0.379272
C35	C	1.785284	-0.988874	-0.551879
C36	C	1.785232	-0.923133	-0.551852
C37	C	1.859324	-0.884125	-0.465526
C38	C	2.186346	-0.236286	-0.440429
C39	C	2.325780	-0.230541	-0.429762
C40	C	1.859350	-0.085573	-0.465544
C41	C	1.859438	-0.015603	-0.465578
C42	C	1.884323	-0.261248	-0.792651
C43	C	1.895053	-0.266141	-0.932079
C44	C	1.834134	-0.238284	-0.139540
C45	C	1.823647	-0.233204	-0.000093
H46	H	1.345325	-0.306265	-0.570346
H47	H	1.993917	-0.998350	-0.309004
O48	O	1.713126	-1.026702	-0.635669
C49	C	1.504374	-1.057863	-0.712676
C50	C	1.585943	-1.014973	-0.617730
H51	H	1.401527	-1.048405	-0.698189
H52	H	1.533996	-1.047540	-0.812188
H53	H	1.517214	-1.109435	-0.697885
H54	H	1.573143	-0.963387	-0.632406
H55	H	1.556301	-1.025350	-0.518252
H56	H	1.754289	-0.201263	-0.951651
H57	H	1.993490	-0.478256	-0.308832
O58	O	1.713090	-0.496305	-0.635683
C59	C	1.709045	-0.428658	-0.806252
C60	C	1.790552	-0.458067	-0.711276
H61	H	1.771636	-0.397726	-0.867375
H62	H	1.656123	-0.467806	-0.868037
H63	H	1.639009	-0.398634	-0.753585
H64	H	1.860656	-0.488085	-0.763840
H65	H	1.843385	-0.418889	-0.649493
H66	H	1.374230	-0.193241	-0.360507
O67	O	1.977769	-0.304195	-0.990050
C68	C	2.064165	-0.343978	-1.186552
C69	C	1.970455	-0.300848	-1.121050
H70	H	2.058264	-0.341296	-1.292476
H71	H	2.163409	-0.327861	-1.153214
H72	H	2.040132	-0.394745	-1.162448
H73	H	1.994371	-0.250068	-1.145123
H74	H	1.871237	-0.317017	-1.154392
H75	H	1.724857	-0.901373	-0.622115
O76	O	2.005263	-0.601622	-0.295191
C77	C	2.152336	-0.582508	-0.124018
C78	C	2.070785	-0.553134	-0.219008
H79	H	2.205352	-0.543319	-0.062417
H80	H	2.089808	-0.613373	-0.062711
H81	H	2.222292	-0.612584	-0.176674
H82	H	2.000819	-0.523028	-0.166455
H83	H	2.133392	-0.522306	-0.280313
H84	H	1.724646	-0.619809	-0.622030
H85	H	1.993808	-0.879088	-0.308951
