data_functionalizedCrystal
_audit_creation_method	'MofGen! by Chris Wilmer'
_symmetry_space_group_name_H-M	'P1'
_symmetry_Int_Tables_number	1
_symmetry_cell_setting	triclinic
loop_
_symmetry_equiv_pos_as_xyz
  x,y,z
_cell_length_a	14.908571
_cell_length_b	13.897448
_cell_length_c	14.908308
_cell_angle_alpha	86.732812
_cell_angle_beta	89.824947
_cell_angle_gamma	86.713891
loop_
_atom_site_label
_atom_site_type_symbol
_atom_site_fract_x
_atom_site_fract_y
_atom_site_fract_z
Zn1	Zn	1.345318	-0.503381	0.587582
Zn2	Zn	1.353905	-0.655952	0.437223
Zn3	Zn	1.203632	-0.484854	0.428580
Zn4	Zn	1.194933	-0.654806	0.578874
O5	O	1.274447	-0.574748	0.508065
O6	O	1.472283	-0.531853	0.574898
O7	O	1.341206	-0.625981	0.310251
O8	O	1.222474	-0.352335	0.449699
O9	O	1.478592	-0.643947	0.464429
O10	O	1.326570	-0.365946	0.566518
O11	O	1.230801	-0.500276	0.303902
O12	O	1.076652	-0.499165	0.441256
O13	O	1.207647	-0.641993	0.705854
O14	O	1.070260	-0.624028	0.551676
O15	O	1.318134	-0.530742	0.712252
O16	O	1.332770	-0.790777	0.455986
O17	O	1.215974	-0.789935	0.560056
C18	C	1.040831	-0.559463	0.494584
C19	C	0.940888	-0.552948	0.488838
C20	C	0.746485	-0.670908	0.592867
C21	C	0.652579	-0.664790	0.587471
C22	C	0.659168	-0.534590	0.472656
C23	C	0.753074	-0.540708	0.478051
C24	C	0.796729	-0.608870	0.538158
C25	C	0.890637	-0.614992	0.543549
C26	C	0.897224	-0.484788	0.428738
C27	C	0.803318	-0.478670	0.423343
C28	C	1.274383	-0.825357	0.508035
C29	C	1.274436	-0.932575	0.508057
C30	C	1.274527	-1.128880	0.508119
C31	C	1.274474	-1.019642	0.508087
C32	C	1.508975	-0.590094	0.521599
C33	C	1.608918	-0.596634	0.527367
C34	C	1.260963	-0.588307	0.742590
C35	C	1.255216	-0.594084	0.842531
C36	C	1.274535	-0.323164	0.508116
C37	C	1.274572	-0.215954	0.508138
C38	C	1.287931	-0.561177	0.274455
C39	C	1.293851	-0.555139	0.174525
C40	C	1.359466	-0.489073	1.036993
C41	C	1.354070	-0.494498	1.130897
C42	C	1.239023	-0.610355	1.124242
C43	C	1.244420	-0.604930	1.030339
C44	C	1.304644	-0.544287	0.986718
C45	C	1.310044	-0.538868	0.892813
C46	C	1.194994	-0.654719	0.886160
C47	C	1.189597	-0.660144	0.980064
H48	H	0.782030	-0.726414	0.641803
H49	H	1.140563	-0.709515	1.015593
C50	C	0.655504	-0.794101	0.701501
C51	C	0.597350	-0.732985	0.647607
H52	H	0.621405	-0.836205	0.738625
H53	H	0.690161	-0.756508	0.738062
H54	H	0.694373	-0.831052	0.664362
H55	H	0.558485	-0.696030	0.684746
H56	H	0.562678	-0.770583	0.611043
C57	C	0.518134	-0.467352	0.413466
C58	C	0.611169	-0.459634	0.406627
H59	H	0.488503	-0.421071	0.372708
H60	H	0.499316	-0.455860	0.473026
H61	H	0.503488	-0.530359	0.399287
H62	H	0.625816	-0.396629	0.420813
H63	H	0.629994	-0.471119	0.347053
C64	C	1.152179	-0.697851	0.739260
C65	C	1.134727	-0.715415	0.830895
H66	H	1.114971	-0.735321	0.705143
H67	H	1.213467	-0.715029	0.727361
H68	H	1.139920	-0.631292	0.723129
H69	H	1.146992	-0.781974	0.847028
H70	H	1.073425	-0.698244	0.842799
C71	C	1.486493	-0.477493	0.938374
C72	C	1.425670	-0.422425	0.989042
H73	H	1.527368	-0.436346	0.908778
H74	H	1.454610	-0.509585	0.894995
H75	H	1.518760	-0.523883	0.976994
H76	H	1.393397	-0.376039	0.950420
H77	H	1.457555	-0.390316	1.032426
H78	H	0.767761	-0.423172	0.374408
C79	C	1.328636	-0.403837	0.787954
C80	C	1.376236	-0.472206	0.844861
H81	H	1.369501	-0.362684	0.758349
H82	H	1.287370	-0.366506	0.822335
H83	H	1.296766	-0.435957	0.744572
H84	H	1.408101	-0.440086	0.888247
H85	H	1.417517	-0.509541	0.810477
H86	H	0.926180	-0.670495	0.592489
H87	H	0.938142	-0.434274	0.384188
H88	H	1.398709	-0.449534	1.171828
H89	H	1.189991	-0.659727	1.159775
