data_functionalizedCrystal
_audit_creation_method	'MofGen! by Chris Wilmer'
_symmetry_space_group_name_H-M	'P1'
_symmetry_Int_Tables_number	1
_symmetry_cell_setting	triclinic
loop_
_symmetry_equiv_pos_as_xyz
  x,y,z
_cell_length_a	12.827893
_cell_length_b	18.050590
_cell_length_c	12.827885
_cell_angle_alpha	89.965317
_cell_angle_beta	89.980538
_cell_angle_gamma	90.018523
loop_
_atom_site_label
_atom_site_type_symbol
_atom_site_fract_x
_atom_site_fract_y
_atom_site_fract_z
Zn1	Zn	1.597649	-0.295624	-0.590813
Zn2	Zn	2.097649	0.204376	-0.090813
Zn3	Zn	1.597532	-0.419832	-0.416058
Zn4	Zn	2.097532	0.080168	0.083942
Zn5	Zn	1.422889	-0.295660	-0.416087
Zn6	Zn	1.922889	0.204340	0.083913
Zn7	Zn	1.422866	-0.419777	-0.590758
Zn8	Zn	1.922866	0.080223	-0.090758
O9	O	1.510234	-0.357723	-0.503429
O10	O	2.010234	0.142277	-0.003429
O11	O	1.743869	-0.312108	-0.567643
O12	O	2.243869	0.187892	-0.067643
O13	O	1.574327	-0.403399	-0.269826
O14	O	2.074327	0.096601	0.230174
O15	O	1.446130	-0.191731	-0.439299
O16	O	1.946130	0.308269	0.060701
O17	O	1.743784	-0.403363	-0.439251
O18	O	2.243784	0.096637	0.060749
O19	O	1.574525	-0.191704	-0.567670
O20	O	2.074525	0.308296	-0.067670
O21	O	1.446018	-0.312170	-0.269847
O22	O	1.946018	0.187830	0.230153
O23	O	1.276650	-0.312117	-0.439246
O24	O	1.776650	0.187883	0.060754
O25	O	1.446090	-0.403269	-0.737002
O26	O	1.946090	0.096731	-0.237002
O27	O	1.276633	-0.403304	-0.567577
O28	O	1.776633	0.096696	-0.067577
O29	O	1.574502	-0.312055	-0.737042
O30	O	2.074502	0.187945	-0.237042
O31	O	1.574304	-0.523749	-0.439198
O32	O	2.074304	-0.023749	0.060802
O33	O	1.445977	-0.523709	-0.567549
O34	O	1.945977	-0.023709	-0.067549
C35	C	1.238724	-0.357709	-0.503409
C36	C	1.738724	0.142291	-0.003409
C37	C	1.122571	-0.357721	-0.503426
C38	C	1.622571	0.142279	-0.003426
C39	C	1.070805	-0.402914	-0.566830
C40	C	1.570805	0.097086	-0.066830
C41	C	0.950755	-0.402927	-0.566848
C42	C	1.450755	0.097073	-0.066848
C43	C	1.510154	-0.550675	-0.503388
C44	C	2.010154	-0.050675	-0.003388
C45	C	1.510215	-0.633221	-0.503405
C46	C	2.010215	-0.133221	-0.003405
C47	C	1.580144	-0.832667	-0.433705
C48	C	2.080144	-0.332667	0.066295
C49	C	1.605674	-0.881992	-0.529080
C50	C	2.105674	-0.381992	-0.029080
C51	C	1.510274	-0.784351	-0.503446
C52	C	2.010274	-0.284351	-0.003446
C53	C	1.484851	-0.882108	-0.408114
C54	C	1.984851	-0.382108	0.091886
C55	C	1.510334	-0.930337	-0.503478
C56	C	2.010334	-0.430337	-0.003478
C57	C	1.535853	-0.832589	-0.598872
C58	C	2.035853	-0.332589	-0.098872
C59	C	1.414985	-0.832701	-0.477842
C60	C	1.914985	-0.332701	0.022158
C61	C	1.440479	-0.882004	-0.573282
C62	C	1.940479	-0.382004	-0.073282
C63	C	1.510243	-0.700253	-0.503427
C64	C	2.010243	-0.200253	-0.003427
C65	C	1.510365	-1.014433	-0.503509
C66	C	2.010365	-0.514433	-0.003509
C67	C	1.782804	-0.357738	-0.503450
C68	C	2.282804	0.142262	-0.003450
C69	C	1.898957	-0.357744	-0.503459
C70	C	2.398957	0.142256	-0.003459
C71	C	1.510306	-0.357652	-0.775999
C72	C	2.010306	0.142348	-0.275999
C73	C	1.510337	-0.357622	-0.892153
C74	C	2.010337	0.142378	-0.392153
C75	C	1.510343	-0.164018	-0.503494
C76	C	2.010343	0.335982	-0.003494
C77	C	1.510390	-0.081472	-0.503521
C78	C	2.010390	0.418528	-0.003521
C79	C	1.573866	-0.402713	-1.063972
C80	C	2.073866	0.097287	-0.563972
C81	C	1.573835	-0.402746	-0.943921
C82	C	2.073835	0.097254	-0.443921
C83	C	1.510222	-0.357741	-0.231919
C84	C	2.010222	0.142259	0.268081
C85	C	1.510394	-0.357562	-0.115767
C86	C	2.010394	0.142438	0.384233
H87	H	0.906237	-0.441621	-0.621127
H88	H	1.406237	0.058379	-0.121127
N89	N	0.957898	-0.306485	-0.431543
N90	N	1.457898	0.193515	0.068457
H91	H	1.003153	-0.336647	-0.383071
H92	H	1.503153	0.163353	0.116929
H93	H	1.003153	-0.272138	-0.474204
H94	H	1.503153	0.227862	0.025796
N95	N	1.645885	-0.453883	-1.122951
N96	N	2.145885	0.046117	-0.622951
H97	H	1.688240	-0.484019	-1.071892
H98	H	2.188240	0.015981	-0.571892
H99	H	1.603300	-0.488209	-1.168223
H100	H	2.103300	0.011791	-0.668223
H101	H	1.456029	-0.318932	-1.071233
H102	H	1.956029	0.181068	-0.571233
N103	N	1.362242	-0.910508	-0.651515
N104	N	1.862242	-0.410508	-0.151515
H105	H	1.399084	-0.941973	-0.705170
H106	H	1.899084	-0.441973	-0.205170
H107	H	1.307951	-0.941325	-0.614426
H108	H	1.807951	-0.441325	-0.114426
N109	N	1.063559	-0.306484	-0.431531
N110	N	1.563559	0.193516	0.068469
H111	H	1.082465	-0.317945	-0.356819
H112	H	1.582465	0.182055	0.143181
H113	H	1.082543	-0.253440	-0.447959
H114	H	1.582543	0.246560	0.052041
N115	N	1.645826	-0.453948	-0.884930
N116	N	2.145826	0.046052	-0.384930
H117	H	1.635570	-0.446732	-0.807532
H118	H	2.135570	0.053268	-0.307532
H119	H	1.629582	-0.506993	-0.903963
H120	H	2.129582	-0.006993	-0.403963
H121	H	1.639251	-0.811003	-0.374787
H122	H	2.139251	-0.311003	0.125213
N123	N	1.438342	-0.306417	-0.951136
N124	N	1.938342	0.193583	-0.451136
H125	H	1.480875	-0.272020	-0.996441
H126	H	1.980875	0.227980	-0.496441
H127	H	1.389968	-0.336672	-0.996344
H128	H	1.889968	0.163328	-0.496344
H129	H	1.557301	-0.810931	-0.679575
H130	H	2.057301	-0.310931	-0.179575
N131	N	1.712442	-0.910687	-0.557795
N132	N	2.212442	-0.410687	-0.057795
H133	H	1.732215	-0.891900	-0.629300
H134	H	2.232215	-0.391900	-0.129300
H135	H	1.765079	-0.892741	-0.504998
H136	H	2.265079	-0.392741	-0.004998
H137	H	1.115363	-0.441593	-0.621102
H138	H	1.615363	0.058407	-0.121102
H139	H	1.334399	-0.811031	-0.456136
H140	H	1.834399	-0.311031	0.043864
N141	N	1.456328	-0.910923	-0.301311
N142	N	1.956328	-0.410923	0.198689
H143	H	1.509136	-0.892976	-0.248680
H144	H	2.009136	-0.392976	0.251320
H145	H	1.384824	-0.892217	-0.281508
H146	H	1.884824	-0.392217	0.218492
