data_functionalizedCrystal
_audit_creation_method	'MofGen! by Chris Wilmer'
_symmetry_space_group_name_H-M	'P1'
_symmetry_Int_Tables_number	1
_symmetry_cell_setting	triclinic
loop_
_symmetry_equiv_pos_as_xyz
  x,y,z
_cell_length_a	11.026607
_cell_length_b	14.044220
_cell_length_c	10.065875
_cell_angle_alpha	99.592716
_cell_angle_beta	79.302338
_cell_angle_gamma	100.887447
loop_
_atom_site_label
_atom_site_type_symbol
_atom_site_fract_x
_atom_site_fract_y
_atom_site_fract_z
O1	O	1.670494	0.393284	-0.113515
O2	O	1.312203	0.347236	-0.113514
O3	O	1.485969	0.231359	-0.113501
O4	O	1.496729	0.509161	-0.113528
O5	O	1.452846	0.253569	0.113485
O6	O	1.279081	0.369446	0.113472
O7	O	1.637372	0.415494	0.113471
Zn8	Zn	1.452967	0.395996	0.149510
Zn9	Zn	1.496608	0.366734	-0.149554
O10	O	1.463606	0.531371	0.113458
C11	C	1.249512	0.349846	-0.000021
C12	C	1.112056	0.324521	-0.000020
C13	C	1.045821	0.394445	-0.000028
C14	C	0.903753	0.368273	-0.000027
C15	C	1.464699	0.206346	-0.000008
C16	C	1.450655	0.098724	-0.000006
C17	C	1.424983	-0.098320	-0.000025
C18	C	1.524588	-0.138958	-0.000030
C19	C	1.510304	-0.248600	-0.000041
C20	C	1.439265	0.011332	-0.000015
C21	C	1.700064	0.412884	-0.000025
C22	C	1.837520	0.438207	-0.000035
C23	C	1.484876	0.556383	-0.000039
C24	C	1.498921	0.664004	-0.000049
N25	N	1.423193	0.415967	0.353614
N26	N	1.526391	0.346756	-0.353657
C27	C	1.486240	0.373675	0.421397
C28	C	1.463335	0.389055	0.578563
H29	H	0.855293	0.289025	-0.000054
C30	C	1.676068	0.246333	0.660364
C31	C	1.622156	0.282498	0.567635
H32	H	1.735181	0.206659	0.611770
H33	H	1.716958	0.299480	0.716078
H34	H	1.612624	0.208319	0.716118
H35	H	1.685598	0.320518	0.511887
H36	H	1.581265	0.229343	0.511897
C37	C	1.701464	-0.083060	0.116678
C38	C	1.654191	-0.074771	-0.000010
H39	H	1.781473	-0.043434	0.116687
H40	H	1.646264	-0.061976	0.195814
H41	H	1.708733	-0.149392	0.116654
H42	H	1.646913	-0.008439	0.000019
H43	H	1.709404	-0.095849	-0.079166
C44	C	1.306143	-0.260266	-0.000014
C45	C	1.295386	-0.162505	-0.000013
H46	H	1.226133	-0.299896	0.000007
H47	H	1.361321	-0.281346	-0.079172
H48	H	1.338251	-0.265858	0.079139
H49	H	1.263286	-0.156912	-0.079172
H50	H	1.240187	-0.141419	0.079153
C51	C	1.249196	0.413931	0.622871
C52	C	1.367565	0.453307	0.657279
H53	H	1.190074	0.453594	0.671476
H54	H	1.252033	0.412034	0.527592
H55	H	1.225198	0.349464	0.646233
H56	H	1.391567	0.517771	0.633907
H57	H	1.364731	0.455214	0.752579
H58	H	1.352254	0.463557	0.411935
H59	H	0.885983	0.517454	-0.000034
C60	C	1.239315	0.506641	-0.000034
C61	C	1.111240	0.501420	-0.000035
H62	H	1.279698	0.572685	-0.000045
H63	H	1.251003	0.483143	0.079120
H64	H	1.274105	0.467647	-0.079191
H65	H	1.076448	0.540409	0.079128
H66	H	1.099543	0.524932	-0.079197
H67	H	1.063591	0.245278	-0.000048
H68	H	1.557169	0.326076	0.363079
