data_functionalizedCrystal
_audit_creation_method	'MofGen! by Chris Wilmer'
_symmetry_space_group_name_H-M	'P1'
_symmetry_Int_Tables_number	1
_symmetry_cell_setting	triclinic
loop_
_symmetry_equiv_pos_as_xyz
  x,y,z
_cell_length_a	8.597213
_cell_length_b	7.681481
_cell_length_c	8.559649
_cell_angle_alpha	85.069100
_cell_angle_beta	102.375319
_cell_angle_gamma	91.832977
loop_
_atom_site_label
_atom_site_type_symbol
_atom_site_fract_x
_atom_site_fract_y
_atom_site_fract_z
O1	O	2.002641	0.450236	-0.283760
O2	O	1.551276	0.381763	-0.295068
O3	O	1.816725	0.422031	-0.058056
O4	O	1.737193	0.409969	-0.520772
O5	O	1.849405	0.134130	-0.028816
O6	O	1.583957	0.093863	-0.265828
O7	O	2.035322	0.162336	-0.254520
Zn8	Zn	1.814828	0.082389	-0.255531
Zn9	Zn	1.771770	0.461710	-0.294057
O10	O	1.769873	0.122069	-0.491532
C11	C	1.510367	0.229128	-0.277605
C12	C	1.339783	0.203251	-0.269114
N13	N	1.844225	-0.176486	-0.229238
C14	C	2.076231	0.314975	-0.271984
C15	C	2.246813	0.340864	-0.280475
C16	C	1.839091	0.278998	0.015905
C17	C	1.857031	0.281729	0.192722
N18	N	1.742387	0.720587	-0.320338
C19	C	1.747506	0.265105	-0.565493
C20	C	1.729565	0.262385	-0.742312
H21	H	1.288868	0.065634	-0.252897
O22	O	1.307388	0.505058	-0.300119
C23	C	1.223660	0.589554	-0.445095
H24	H	1.166282	0.487508	-0.529497
H25	H	1.127261	0.674613	-0.419390
C26	C	1.410404	0.830132	-0.420509
C27	C	1.339942	0.704797	-0.524178
H28	H	1.482129	0.901226	-0.469289
H29	H	1.466811	0.773210	-0.322832
H30	H	1.330057	0.900997	-0.399097
H31	H	1.420287	0.633922	-0.545572
H32	H	1.283552	0.761710	-0.621861
O33	O	1.968196	-0.247194	-0.118102
C34	C	1.956649	-0.204068	0.035789
H35	H	1.882416	-0.081440	0.024141
H36	H	1.897247	-0.316817	0.097613
C37	C	2.215727	-0.320916	0.150416
C38	C	2.124564	-0.170293	0.136111
H39	H	2.319304	-0.300089	0.212304
H40	H	2.223505	-0.349978	0.046739
H41	H	2.166207	-0.414859	0.201931
H42	H	2.174073	-0.076360	0.084579
H43	H	2.116798	-0.141214	0.239783
O44	O	1.618542	-0.208309	-0.431358
C45	C	1.677688	-0.092713	-0.542656
H46	H	1.802617	-0.046299	-0.485647
H47	H	1.682202	-0.162970	-0.653593
C48	C	1.413997	0.008760	-0.661403
C49	C	1.567433	0.065778	-0.591378
H50	H	1.345985	0.106522	-0.691464
H51	H	1.374148	-0.069123	-0.586424
H52	H	1.417782	-0.049788	-0.753841
H53	H	1.563649	0.124305	-0.498931
H54	H	1.607279	0.143676	-0.666343
H55	H	1.606711	0.243743	0.178037
O56	O	2.003667	0.304204	0.287555
C57	C	2.069381	0.465875	0.240837
H58	H	2.011108	0.507613	0.110983
H59	H	2.047140	0.568698	0.321688
C60	C	2.321499	0.395932	0.415490
C61	C	2.249936	0.447189	0.255996
H62	H	2.432874	0.384410	0.424846
H63	H	2.277225	0.287013	0.446970
H64	H	2.302948	0.481626	0.482848
H65	H	2.268470	0.361485	0.188644
H66	H	2.294217	0.556093	0.224504
