data_functionalizedCrystal
_audit_creation_method	'MofGen! by Chris Wilmer'
_symmetry_space_group_name_H-M	'P1'
_symmetry_Int_Tables_number	1
_symmetry_cell_setting	triclinic
loop_
_symmetry_equiv_pos_as_xyz
  x,y,z
_cell_length_a	19.805407
_cell_length_b	12.759400
_cell_length_c	19.805398
_cell_angle_alpha	90.021572
_cell_angle_beta	90.015865
_cell_angle_gamma	90.014685
loop_
_atom_site_label
_atom_site_type_symbol
_atom_site_fract_x
_atom_site_fract_y
_atom_site_fract_z
Zn1	Zn	1.034766	-0.418308	0.382740
Zn2	Zn	1.034711	-0.593996	0.269560
Zn3	Zn	0.921588	-0.418332	0.269565
Zn4	Zn	0.921567	-0.593945	0.382707
O5	O	0.978158	-0.506145	0.326143
O6	O	1.129475	-0.441625	0.367739
O7	O	1.019691	-0.570725	0.174844
O8	O	0.936633	-0.271308	0.284593
O9	O	1.129435	-0.570702	0.284586
O10	O	1.019784	-0.271290	0.367743
O11	O	0.936580	-0.441665	0.174848
O12	O	0.826869	-0.441616	0.284561
O13	O	0.936598	-0.570615	0.477428
O14	O	0.826854	-0.570639	0.367687
O15	O	1.019764	-0.441575	0.477452
O16	O	1.019671	-0.741010	0.284554
O17	O	0.936545	-0.740973	0.367682
C18	C	0.802302	-0.506125	0.326121
C19	C	0.727070	-0.506142	0.326128
C20	C	0.978118	-0.779113	0.326129
C21	C	0.978163	-0.895889	0.326146
C22	C	0.691736	-0.573425	0.369341
C23	C	0.621047	-0.573427	0.369351
C24	C	0.585695	-0.506150	0.326143
C25	C	0.621034	-0.438859	0.282928
C26	C	0.691721	-0.438853	0.282922
C27	C	0.335961	-0.438883	0.282950
C28	C	0.265269	-0.438896	0.282958
C29	C	0.265287	-0.573456	0.369379
C30	C	0.335974	-0.573450	0.369373
C31	C	0.371307	-0.506156	0.326161
C32	C	0.447956	-0.506154	0.326152
C33	C	0.509047	-0.506157	0.326148
C34	C	1.021495	-0.950736	0.282908
C35	C	1.021536	-1.060460	0.282929
C36	C	0.934908	-1.060481	0.369426
C37	C	0.934871	-0.950759	0.369408
C38	C	1.064787	-0.895866	0.239646
C39	C	1.108122	-0.950713	0.196404
C40	C	1.108163	-1.060437	0.196425
C41	C	1.064870	-1.115314	0.239687
C42	C	1.154701	-0.506166	0.326165
C43	C	1.229933	-0.506175	0.326175
C44	C	0.978185	-0.506087	0.502686
C45	C	0.978196	-0.506062	0.577918
C46	C	0.978217	-0.232112	0.326172
C47	C	0.978242	-0.115335	0.326184
C48	C	0.978171	-0.506127	0.150287
C49	C	0.978291	-0.505856	0.075055
C50	C	1.021582	-0.438685	1.039723
C51	C	1.021572	-0.438717	0.969034
C52	C	0.978265	-0.505916	0.933680
C53	C	0.934972	-0.573095	0.969017
C54	C	0.934986	-0.573067	1.039705
C55	C	0.934913	-0.573209	0.683944
C56	C	0.934900	-0.573229	0.613252
C57	C	1.021499	-0.438859	0.613274
C58	C	1.021513	-0.438831	0.683961
C59	C	0.978222	-0.506013	0.719292
C60	C	0.978235	-0.505979	0.795941
C61	C	0.978249	-0.505946	0.857033
H62	H	0.720515	-0.628213	0.404524
C63	C	0.901824	-0.916899	0.483984
C64	C	0.887244	-0.890460	0.416937
H65	H	0.872420	-0.879675	0.513327
H66	H	0.947285	-0.898856	0.493917
H67	H	0.895642	-0.990099	0.490178
H68	H	0.893430	-0.817261	0.410741
H69	H	0.841771	-0.908496	0.407000
C70	C	1.107187	-0.305872	1.032637
C71	C	1.069188	-0.364818	1.078581
H72	H	1.136581	-0.260275	1.056626
H73	H	1.077700	-0.265693	1.005069
H74	H	1.133059	-0.351674	1.005063
H75	H	1.043312	-0.319016	1.106152
H76	H	1.098679	-0.405000	1.106160
C77	C	0.771224	-0.297500	0.273667
C78	C	0.730561	-0.364894	0.235419
H79	H	0.795196	-0.251833	0.244339
H80	H	0.802392	-0.337565	0.299391
H81	H	0.743655	-0.257382	0.303202
H82	H	0.758130	-0.405017	0.205887
H83	H	0.699389	-0.324824	0.209682
H84	H	0.899660	-1.105171	0.404648
H85	H	0.236486	-0.384105	0.247773
H86	H	1.056826	-0.384023	0.940270
H87	H	1.143374	-0.906026	0.161186
H88	H	1.064756	-0.806523	0.239622
C89	C	1.107100	-0.306022	0.620397
C90	C	1.069091	-0.365015	0.574436
H91	H	1.136476	-0.260430	0.596420
H92	H	1.132985	-0.351787	0.647965
H93	H	1.077613	-0.265827	0.647969
H94	H	1.098577	-0.405216	0.546867
H95	H	1.043204	-0.319244	0.546857
C96	C	1.030959	-0.297469	0.763461
C97	C	1.069115	-0.364957	0.722819
H98	H	1.060348	-0.251858	0.787445
H99	H	1.005185	-0.337469	0.794620
H100	H	1.001473	-0.257296	0.735878
H101	H	1.098597	-0.405135	0.750403
H102	H	1.094899	-0.324953	0.691656
H103	H	1.143454	-1.105090	0.161221
C104	C	0.896491	-0.632795	0.860651
C105	C	0.887366	-0.646960	0.930157
H106	H	0.867096	-0.678392	0.836663
H107	H	0.941956	-0.648185	0.849070
H108	H	0.886597	-0.562204	0.849080
H109	H	0.897265	-0.717550	0.941729
H110	H	0.841891	-0.631578	0.941742
C111	C	0.357678	-0.387459	0.168394
C112	C	0.374790	-0.364917	0.235448
H113	H	0.381655	-0.341794	0.139069
H114	H	0.310525	-0.377841	0.162222
H115	H	0.369261	-0.458026	0.158416
H116	H	0.363203	-0.294351	0.245429
H117	H	0.421954	-0.374525	0.241624
C118	C	0.901909	-0.751103	0.705657
C119	C	0.887322	-0.647056	0.722765
H120	H	0.872522	-0.796696	0.729620
H121	H	0.947378	-0.766474	0.717252
H122	H	0.895708	-0.760706	0.658495
H123	H	0.893527	-0.637451	0.769926
H124	H	0.841842	-0.631680	0.711175
H125	H	0.899734	-0.627766	1.068472
C126	C	0.628166	-0.706467	0.454756
C127	C	0.582208	-0.647404	0.416841
H128	H	0.604187	-0.752146	0.484070
H129	H	0.655747	-0.660751	0.480702
H130	H	0.655725	-0.746573	0.425206
H131	H	0.554652	-0.607292	0.446391
H132	H	0.554615	-0.693125	0.390893
C133	C	0.328890	-0.706454	0.454806
C134	C	0.374833	-0.647399	0.416871
H135	H	0.352881	-0.752100	0.484134
H136	H	0.301307	-0.746585	0.425276
H137	H	0.301332	-0.660723	0.480746
H138	H	0.402388	-0.693130	0.390927
H139	H	0.402428	-0.607265	0.446405
C140	C	0.925464	-0.714572	0.533734
C141	C	0.887301	-0.647105	0.574384
H142	H	0.896079	-0.760171	0.509736
H143	H	0.954946	-0.754749	0.561309
H144	H	0.951242	-0.674549	0.502582
H145	H	0.861527	-0.687128	0.605540
H146	H	0.857808	-0.606924	0.546807
C147	C	0.185831	-0.588252	0.460425
C148	C	0.226446	-0.647417	0.416888
H149	H	0.161857	-0.633914	0.489755
H150	H	0.154663	-0.548195	0.434694
H151	H	0.213431	-0.542534	0.486360
H152	H	0.198845	-0.693130	0.390949
H153	H	0.257618	-0.687492	0.442621
C154	C	0.512669	-0.379118	0.244563
C155	C	0.582176	-0.364902	0.235435
H156	H	0.488682	-0.333462	0.215238
H157	H	0.501107	-0.363840	0.290053
H158	H	0.501078	-0.449690	0.234575
H159	H	0.593767	-0.294331	0.245428
H160	H	0.593742	-0.380173	0.189934
C161	C	1.112096	-1.272482	0.192628
C162	C	1.064917	-1.235925	0.239713
H163	H	1.112120	-1.346940	0.192640
H164	H	1.155751	-1.247594	0.204371
H165	H	1.100406	-1.247715	0.148936
H166	H	1.076611	-1.260686	0.283405
H167	H	1.021253	-1.260824	0.227973
