data_functionalizedCrystal
_audit_creation_method	'MofGen! by Chris Wilmer'
_symmetry_space_group_name_H-M	'P1'
_symmetry_Int_Tables_number	1
_symmetry_cell_setting	triclinic
loop_
_symmetry_equiv_pos_as_xyz
  x,y,z
_cell_length_a	11.169417
_cell_length_b	18.101397
_cell_length_c	11.169409
_cell_angle_alpha	89.960119
_cell_angle_beta	89.980176
_cell_angle_gamma	90.021344
loop_
_atom_site_label
_atom_site_type_symbol
_atom_site_fract_x
_atom_site_fract_y
_atom_site_fract_z
Zn1	Zn	1.834878	-0.294752	-0.678480
Zn2	Zn	2.334878	0.205248	-0.178480
Zn3	Zn	1.834732	-0.418619	-0.477770
Zn4	Zn	2.334732	0.081381	0.022230
Zn5	Zn	1.634164	-0.294797	-0.477814
Zn6	Zn	2.134164	0.205203	0.022186
Zn7	Zn	1.634136	-0.418558	-0.678415
Zn8	Zn	2.134136	0.081442	-0.178415
O9	O	1.734477	-0.356682	-0.578120
O10	O	2.234477	0.143318	-0.078120
O11	O	2.002808	-0.311190	-0.651864
O12	O	2.502808	0.188810	-0.151864
O13	O	1.808077	-0.402238	-0.309826
O14	O	2.308077	0.097762	0.190174
O15	O	1.660862	-0.191159	-0.504478
O16	O	2.160862	0.308841	-0.004478
O17	O	2.002701	-0.402194	-0.504404
O18	O	2.502701	0.097806	-0.004404
O19	O	1.808326	-0.191125	-0.651907
O20	O	2.308326	0.308875	-0.151907
O21	O	1.660720	-0.311267	-0.309859
O22	O	2.160720	0.188733	0.190141
O23	O	1.466210	-0.311208	-0.504416
O24	O	1.966210	0.188792	-0.004416
O25	O	1.660814	-0.402091	-0.846374
O26	O	2.160814	0.097909	-0.346374
O27	O	1.466190	-0.402135	-0.651796
O28	O	1.966190	0.097865	-0.151796
O29	O	1.808298	-0.311131	-0.846421
O30	O	2.308298	0.188869	-0.346421
O31	O	1.808049	-0.522244	-0.504341
O32	O	2.308049	-0.022244	-0.004341
O33	O	1.660672	-0.522199	-0.651754
O34	O	2.160672	-0.022199	-0.151754
C35	C	1.422653	-0.356670	-0.578104
C36	C	1.922653	0.143330	-0.078104
C37	C	1.289253	-0.356683	-0.578126
C38	C	1.789253	0.143317	-0.078126
C39	C	1.734375	-0.549092	-0.578062
C40	C	2.234375	-0.049092	-0.078062
C41	C	1.734440	-0.631406	-0.578077
C42	C	2.234440	-0.131406	-0.078077
C43	C	1.734594	-0.930497	-0.578186
C44	C	2.234594	-0.430497	-0.078186
C45	C	1.827061	-0.899169	-0.485190
C46	C	2.327061	-0.399169	0.014810
C47	C	1.827381	-0.813551	-0.485431
C48	C	2.327381	-0.313551	0.014569
C49	C	1.734518	-0.782115	-0.578131
C50	C	2.234518	-0.282115	-0.078131
C51	C	1.768813	-0.813109	-0.704636
C52	C	2.268813	-0.313109	-0.204636
C53	C	1.769528	-0.898754	-0.704129
C54	C	2.269528	-0.398754	-0.204129
C55	C	1.607585	-0.899011	-0.545773
C56	C	2.107585	-0.399011	-0.045773
C57	C	1.608212	-0.813361	-0.542949
C58	C	2.108212	-0.313361	-0.042949
C59	C	1.734473	-0.698255	-0.578108
C60	C	2.234473	-0.198255	-0.078108
C61	C	1.734642	-1.014357	-0.578218
C62	C	2.234642	-0.514357	-0.078218
C63	C	2.047520	-0.356693	-0.578136
C64	C	2.547520	0.143307	-0.078136
C65	C	2.180920	-0.356699	-0.578143
C66	C	2.680920	0.143301	-0.078143
C67	C	1.734569	-0.356599	-0.891162
C68	C	2.234569	0.143401	-0.391162
C69	C	1.734609	-0.356564	-1.024563
C70	C	2.234609	0.143436	-0.524563
C71	C	1.734613	-0.163520	-0.578205
C72	C	2.234613	0.336480	-0.078205
C73	C	1.734671	-0.081206	-0.578241
C74	C	2.234671	0.418794	-0.078241
C75	C	1.734455	-0.356710	-0.266295
C76	C	2.234455	0.143290	0.233705
C77	C	1.734648	-0.356537	-0.132896
C78	C	2.234648	0.143463	0.367104
H79	H	1.805924	-0.792599	-0.391629
H80	H	2.305924	-0.292599	0.108371
H81	H	1.538690	-0.919270	-0.613507
H82	H	2.038690	-0.419270	-0.113507
C83	C	1.682516	-0.926750	-0.800936
C84	C	2.182516	-0.426750	-0.300936
H85	H	1.646894	-0.885778	-0.840404
H86	H	2.146894	-0.385778	-0.340404
H87	H	1.621859	-0.955962	-0.764623
H88	H	2.121859	-0.455962	-0.264623
H89	H	1.725134	-0.955770	-0.857526
H90	H	2.225134	-0.455770	-0.357526
H91	H	1.703524	-0.792743	-0.775789
H92	H	2.203524	-0.292743	-0.275789
H93	H	1.805863	-0.919822	-0.391107
H94	H	2.305863	-0.419822	0.108893
C95	C	1.892829	-0.784061	-0.742355
C96	C	2.392829	-0.284061	-0.242355
H97	H	1.923871	-0.753053	-0.681188
H98	H	2.423871	-0.253053	-0.181188
H99	H	1.885613	-0.756667	-0.814563
H100	H	2.385613	-0.256667	-0.314563
H101	H	1.945523	-0.824548	-0.754558
H102	H	2.445523	-0.324548	-0.254558
H103	H	1.582353	-0.793113	-0.449852
H104	H	2.082353	-0.293113	0.050148
C105	C	1.510129	-0.784467	-0.627747
C106	C	2.010129	-0.284467	-0.127747
H107	H	1.545082	-0.752832	-0.685983
H108	H	2.045082	-0.252832	-0.185983
H109	H	1.452220	-0.757771	-0.582968
H110	H	1.952220	-0.257771	-0.082968
H111	H	1.472588	-0.824977	-0.666632
H112	H	1.972588	-0.324977	-0.166632
C113	C	1.565436	-0.928274	-0.423314
C114	C	2.065436	-0.428274	0.076686
H115	H	1.488632	-0.908612	-0.405462
H116	H	1.988632	-0.408612	0.094538
H117	H	1.620676	-0.913608	-0.363203
H118	H	2.120676	-0.413608	0.136797
H119	H	1.560985	-0.980663	-0.425736
H120	H	2.060985	-0.480663	0.074264
C121	C	1.953465	-0.928155	-0.513830
C122	C	2.453465	-0.428155	-0.013830
H123	H	1.950133	-0.959264	-0.582218
H124	H	2.450133	-0.459264	-0.082218
H125	H	1.982985	-0.955429	-0.447425
H126	H	2.482985	-0.455429	0.052575
H127	H	2.005257	-0.887648	-0.529542
H128	H	2.505257	-0.387648	-0.029542
H129	H	1.862366	-0.918669	-0.731587
H130	H	2.362366	-0.418669	-0.231587
C131	C	1.954471	-0.785788	-0.514409
C132	C	2.454471	-0.285788	-0.014409
H133	H	2.006102	-0.826854	-0.526091
H134	H	2.506102	-0.326854	-0.026091
H135	H	1.983251	-0.756671	-0.449806
H136	H	2.483251	-0.256671	0.050194
H137	H	1.952467	-0.756722	-0.585230
H138	H	2.452467	-0.256722	-0.085230
