data_functionalizedCrystal
_audit_creation_method	'MofGen! by Chris Wilmer'
_symmetry_space_group_name_H-M	'P1'
_symmetry_Int_Tables_number	1
_symmetry_cell_setting	triclinic
loop_
_symmetry_equiv_pos_as_xyz
  x,y,z
_cell_length_a	11.792241
_cell_length_b	10.489763
_cell_length_c	10.868271
_cell_angle_alpha	89.993843
_cell_angle_beta	90.000156
_cell_angle_gamma	95.629111
loop_
_atom_site_label
_atom_site_type_symbol
_atom_site_fract_x
_atom_site_fract_y
_atom_site_fract_z
O1	O	1.507393	-0.174824	0.102217
O2	O	1.177102	-0.192842	0.102247
O3	O	1.349750	0.001789	0.102208
O4	O	1.334745	-0.369454	0.102256
O5	O	1.349734	0.001783	-0.102436
O6	O	1.177086	-0.192848	-0.102398
O7	O	1.507378	-0.174830	-0.102428
Zn8	Zn	1.342229	-0.183840	-0.134905
Zn9	Zn	1.342250	-0.183832	0.134724
O10	O	1.334730	-0.369461	-0.102389
C11	C	1.134800	-0.191713	-0.000072
C12	C	1.008777	-0.188325	-0.000061
C13	C	0.778048	-0.182096	-0.000098
C14	C	0.906442	-0.185557	-0.000078
C15	C	1.348603	0.049313	-0.000117
C16	C	1.345197	0.190930	-0.000127
C17	C	1.235332	0.258695	-0.000114
C18	C	1.287215	0.350990	-0.101027
C19	C	1.287256	0.350971	0.100737
C20	C	1.397124	0.281360	-0.101123
C21	C	1.397151	0.281331	0.100731
C22	C	1.449113	0.373599	-0.000206
C23	C	1.549679	-0.175959	-0.000106
C24	C	1.675703	-0.179346	-0.000109
N25	N	1.342224	-0.183845	-0.318919
C26	C	1.335858	0.583013	-0.000082
C27	C	1.339211	0.441389	-0.000128
C28	C	1.342232	-0.183845	-0.430256
C29	C	1.342247	-0.183834	-0.569934
N30	N	1.342265	-0.183817	0.318738
H31	H	1.145010	0.208736	-0.000204
O32	O	1.452722	0.244648	0.202462
C33	C	1.564777	0.305484	0.203310
H34	H	1.568655	0.396212	0.145088
H35	H	1.590837	0.331551	0.301844
H36	H	1.625446	0.237887	0.163685
H37	H	1.240762	0.381779	0.186050
H38	H	1.539517	0.423331	-0.000274
O39	O	1.231645	0.387942	-0.202662
C40	C	1.136489	0.450419	-0.166439
H41	H	1.150449	0.489642	-0.069221
H42	H	1.125226	0.532704	-0.232442
H43	H	1.056849	0.379434	-0.168363
O44	O	1.452635	0.244638	-0.202881
C45	C	1.548446	0.183187	-0.166882
H46	H	1.535121	0.144171	-0.069503
H47	H	1.560061	0.100867	-0.232711
H48	H	1.627629	0.254829	-0.169323
