data_functionalizedCrystal
_audit_creation_method	'MofGen! by Chris Wilmer'
_symmetry_space_group_name_H-M	'P1'
_symmetry_Int_Tables_number	1
_symmetry_cell_setting	triclinic
loop_
_symmetry_equiv_pos_as_xyz
  x,y,z
_cell_length_a	19.288840
_cell_length_b	10.489741
_cell_length_c	17.766277
_cell_angle_alpha	89.993969
_cell_angle_beta	89.983415
_cell_angle_gamma	83.832595
loop_
_atom_site_label
_atom_site_type_symbol
_atom_site_fract_x
_atom_site_fract_y
_atom_site_fract_z
O1	O	0.922430	0.158958	-0.062720
O2	O	0.720311	0.180455	-0.062694
O3	O	0.825970	-0.015997	-0.062703
O4	O	0.816771	0.355409	-0.062711
O5	O	0.825951	-0.016006	0.062486
O6	O	0.720292	0.180445	0.062495
O7	O	0.922411	0.158948	0.062469
Cu8	Cu	0.821350	0.169695	0.073913
Cu9	Cu	0.821372	0.169707	-0.074137
O10	O	0.816753	0.355399	0.062478
C11	C	0.694420	0.179763	-0.000096
C12	C	0.617302	0.177703	-0.000086
C13	C	0.581102	0.176718	-0.068328
C14	C	0.508642	0.174768	-0.068337
C15	C	0.472387	0.173777	-0.000100
C16	C	0.508595	0.174769	0.068151
C17	C	0.581053	0.176732	0.068158
C18	C	0.362529	0.095956	0.052170
C19	C	0.290073	0.093985	0.052160
C20	C	0.248902	0.167728	-0.000120
C21	C	0.280197	0.243425	-0.052402
C22	C	0.352655	0.245388	-0.052395
C23	C	0.393818	0.171649	-0.000101
C24	C	0.134133	0.164631	-0.068377
C25	C	0.061671	0.162689	-0.068383
C26	C	0.061626	0.162676	0.068107
C27	C	0.134086	0.164631	0.068111
C28	C	0.170335	0.165602	-0.000133
C29	C	0.825266	-0.063517	-0.000109
C30	C	0.823187	-0.205099	-0.000110
C31	C	0.755960	-0.271708	-0.000107
C32	C	0.787708	-0.364559	0.061614
C33	C	0.787742	-0.364524	-0.061812
C34	C	0.854963	-0.296086	0.061661
C35	C	0.854988	-0.296041	-0.061820
C36	C	0.886785	-0.388865	-0.000085
C37	C	0.948302	0.159639	-0.000130
C38	C	1.025420	0.161699	-0.000145
C39	C	0.817457	0.402920	-0.000118
C40	C	0.819535	0.544502	-0.000121
N41	N	0.821340	0.169686	0.178043
N42	N	0.821388	0.169706	-0.178268
C43	C	0.868141	0.082740	0.217426
C44	C	0.868145	0.082734	0.296228
C45	C	0.821354	0.169696	0.335644
C46	C	0.774544	0.256649	0.296251
C47	C	0.774537	0.256644	0.217451
C48	C	0.812835	0.285910	0.460480
C49	C	0.812847	0.285917	0.539279
C50	C	0.821373	0.169712	0.578690
C51	C	0.829901	0.053494	0.539293
C52	C	0.829894	0.053489	0.460492
C53	C	0.821357	0.169711	0.421089
C54	C	0.868181	0.082752	0.703519
C55	C	0.868180	0.082744	0.782322
C56	C	0.774583	0.256670	0.782344
C57	C	0.774581	0.256667	0.703542
C58	C	0.821383	0.169709	0.664134
H59	H	0.163560	0.165424	0.123682
H60	H	0.906288	0.011942	0.671431
C61	C	0.893346	-0.255325	0.132234
C62	C	0.969779	-0.308735	0.146162
C63	C	1.008159	-0.267970	0.216734
C64	C	0.970106	-0.173794	0.273379
C65	C	0.893669	-0.120378	0.259452
C66	C	0.855289	-0.161144	0.188880
H67	H	0.997952	-0.378454	0.104229
H68	H	1.064743	-0.307512	0.227043
H69	H	0.998517	-0.143617	0.325620
H70	H	0.865496	-0.050659	0.301385
H71	H	0.798705	-0.121601	0.178571
C72	C	0.839263	-0.074343	0.417157
C73	C	0.905966	-0.167171	0.427965
C74	C	0.915330	-0.295005	0.384630
C75	C	0.857989	-0.330011	0.330487
C76	C	0.791281	-0.237180	0.319676
C77	C	0.781918	-0.109346	0.363011
H78	H	0.948417	-0.141259	0.468047
H79	H	0.964712	-0.363724	0.392633
H80	H	0.864921	-0.424641	0.298408
H81	H	0.748830	-0.263092	0.279594
H82	H	0.732536	-0.040627	0.355008
C83	C	0.620971	0.177801	-0.143397
C84	C	0.618368	0.066805	-0.199694
C85	C	0.658237	0.067890	-0.274764
C86	C	0.700709	0.179972	-0.293536
C87	C	0.703314	0.290977	-0.237238
C88	C	0.663445	0.289891	-0.162168
H89	H	0.586927	-0.016172	-0.185799
H90	H	0.656309	-0.014283	-0.316440
H91	H	0.730223	0.180776	-0.349107
H92	H	0.734756	0.373954	-0.251133
H93	H	0.665373	0.372065	-0.120492
C94	C	0.723075	0.352311	0.339604
C95	C	0.723113	0.352384	0.426281
C96	C	0.671639	0.448046	0.469633
C97	C	0.620126	0.543634	0.426308
C98	C	0.620085	0.543565	0.339626
C99	C	0.671560	0.447903	0.296274
H100	H	0.761248	0.281621	0.458358
H101	H	0.671670	0.448097	0.533801
H102	H	0.582022	0.614449	0.458399
H103	H	0.581951	0.614328	0.307549
H104	H	0.671529	0.447852	0.232106
C105	C	0.839333	-0.074342	0.582633
C106	C	0.839374	-0.074346	0.669311
C107	C	0.848834	-0.202175	0.712655
C108	C	0.858253	-0.330001	0.669322
C109	C	0.858212	-0.330002	0.582640
C110	C	0.848752	-0.202173	0.539296
H111	H	0.832402	0.020283	0.701392
H112	H	0.848865	-0.202174	0.776823
H113	H	0.865256	-0.424628	0.701409
H114	H	0.865184	-0.424631	0.550558
H115	H	0.848722	-0.202174	0.475128
C116	C	0.174012	0.165715	-0.143441
C117	C	0.134188	0.164653	-0.218510
C118	C	0.174065	0.165738	-0.293575
C119	C	0.253766	0.167885	-0.293571
C120	C	0.293595	0.168947	-0.218499
C121	C	0.253718	0.167862	-0.143435
H122	H	0.075184	0.163064	-0.218516
H123	H	0.144580	0.164952	-0.349148
H124	H	0.283285	0.168688	-0.349139
H125	H	0.352599	0.170537	-0.218494
H126	H	0.283203	0.168649	-0.087861
H127	H	0.479162	0.173969	-0.123910
H128	H	0.942109	-0.439550	-0.000058
H129	H	0.883417	-0.265640	-0.114010
H130	H	0.264599	0.032341	0.094727
H131	H	0.032198	0.161895	-0.123956
H132	H	0.759296	-0.394836	-0.113997
H133	H	0.906289	0.011936	0.814388
H134	H	0.906248	0.011931	0.185342
H135	H	0.032107	0.161877	0.123667
H136	H	0.736483	0.327471	0.814436
H137	H	0.736473	0.327472	0.671474
H138	H	0.700686	-0.220798	-0.000037
C139	C	0.387080	0.328662	-0.109894
C140	C	0.341803	0.409784	-0.167404
C141	C	0.376228	0.493064	-0.224901
C142	C	0.455929	0.495221	-0.224889
C143	C	0.501210	0.414096	-0.167378
C144	C	0.466785	0.330816	-0.109881
H145	H	0.282800	0.408190	-0.167414
H146	H	0.342707	0.553118	-0.267475
H147	H	0.481412	0.556870	-0.267452
H148	H	0.560213	0.415690	-0.167367
H149	H	0.500306	0.270762	-0.067307
H150	H	0.610526	0.177534	0.123731
C151	C	0.803465	0.413751	0.582612
C152	C	0.794071	0.541574	0.539265
C153	C	0.784687	0.669411	0.582597
C154	C	0.784698	0.669424	0.669274
C155	C	0.794093	0.541596	0.712625
C156	C	0.803476	0.413759	0.669294
H157	H	0.794062	0.541569	0.475097
H158	H	0.777733	0.764038	0.550505
H159	H	0.777752	0.764057	0.701350
H160	H	0.794101	0.541601	0.776793
H161	H	0.810430	0.319132	0.701386
H162	H	0.479071	0.173964	0.123710
H163	H	0.906257	0.011930	0.328299
H164	H	0.396045	0.035902	0.094746
H165	H	0.246677	0.303479	-0.094971
H166	H	0.759255	-0.394927	0.113801
H167	H	0.805880	0.380545	0.428398
H168	H	0.736425	0.327447	0.185385
