data_functionalizedCrystal
_audit_creation_method	'MofGen! by Chris Wilmer'
_symmetry_space_group_name_H-M	'P1'
_symmetry_Int_Tables_number	1
_symmetry_cell_setting	triclinic
loop_
_symmetry_equiv_pos_as_xyz
  x,y,z
_cell_length_a	13.897449
_cell_length_b	16.625545
_cell_length_c	16.625539
_cell_angle_alpha	90.026370
_cell_angle_beta	90.021254
_cell_angle_gamma	90.023964
loop_
_atom_site_label
_atom_site_type_symbol
_atom_site_fract_x
_atom_site_fract_y
_atom_site_fract_z
Zn1	Zn	-1.474614	0.321017	-0.456000
Zn2	Zn	-0.974614	0.821017	0.044000
Zn3	Zn	-1.474504	0.455855	-0.321167
Zn4	Zn	-0.974504	0.955855	0.178833
Zn5	Zn	-1.313317	0.321040	-0.321171
Zn6	Zn	-0.813317	0.821040	0.178829
Zn7	Zn	-1.313267	0.455811	-0.455947
Zn8	Zn	-0.813267	0.955811	0.044053
O9	O	-1.393926	0.388431	-0.388571
O10	O	-0.893926	0.888431	0.111429
O11	O	-1.609581	0.338912	-0.438135
O12	O	-1.109581	0.838912	0.061865
O13	O	-1.453097	0.438000	-0.208335
O14	O	-0.953097	0.938000	0.291665
O15	O	-1.334780	0.208205	-0.339080
O16	O	-0.834780	0.708205	0.160920
O17	O	-1.609500	0.437977	-0.339074
O18	O	-1.109500	0.937977	0.160926
O19	O	-1.453285	0.208187	-0.438138
O20	O	-0.953285	0.708187	0.061862
O21	O	-1.334673	0.338952	-0.208338
O22	O	-0.834673	0.838952	0.291662
O23	O	-1.178329	0.338909	-0.339028
O24	O	-0.678329	0.838909	0.160972
O25	O	-1.334696	0.437901	-0.568787
O26	O	-0.834696	0.937901	-0.068787
O27	O	-1.178292	0.437924	-0.438048
O28	O	-0.678292	0.937924	0.061952
O29	O	-1.453237	0.338869	-0.568826
O30	O	-0.953237	0.838869	-0.068826
O31	O	-1.453049	0.568682	-0.339023
O32	O	-0.953049	1.068682	0.160977
O33	O	-1.334589	0.568649	-0.438045
O34	O	-0.834589	1.068649	0.061955
C35	C	-1.143311	0.388415	-0.388534
C36	C	-0.643311	0.888415	0.111466
C37	C	-1.036097	0.388428	-0.388536
C38	C	-0.536097	0.888428	0.111464
C39	C	-1.393827	0.597922	-0.388546
C40	C	-0.893827	1.097922	0.111454
C41	C	-1.393874	0.687543	-0.388561
C42	C	-0.893874	1.187543	0.111439
C43	C	-0.949028	0.388429	-0.388546
C44	C	-0.449028	0.888429	0.111454
C45	C	-0.839795	0.388433	-0.388567
C46	C	-0.339795	0.888433	0.111433
C47	C	-0.645519	0.388444	-0.388600
C48	C	-0.145519	0.888444	0.111400
C49	C	-0.752732	0.388441	-0.388587
C50	C	-0.252732	0.888441	0.111413
C51	C	-1.394031	1.015718	-0.388658
C52	C	-0.894031	1.515718	0.111342
C53	C	-1.393984	0.924410	-0.388633
C54	C	-0.893984	1.424410	0.111367
C55	C	-1.393952	0.851633	-0.388609
C56	C	-0.893952	1.351633	0.111391
C57	C	-1.393906	0.760319	-0.388585
C58	C	-0.893906	1.260319	0.111415
C59	C	-1.393973	0.388377	-0.598880
C60	C	-0.893973	0.888377	-0.098880
C61	C	-1.393993	0.388355	-0.688502
C62	C	-0.893993	0.888355	-0.188502
C63	C	-1.394042	1.178122	-0.388624
C64	C	-0.894042	1.678122	0.111376
C65	C	-1.394071	1.088501	-0.388671
C66	C	-0.894071	1.588501	0.111329
C67	C	-1.394009	0.388337	-0.761284
C68	C	-0.894009	0.888337	-0.261284
C69	C	-1.394031	0.388307	-0.852593
C70	C	-0.894031	0.888307	-0.352593
C71	C	-1.394054	0.388279	-0.925369
C72	C	-0.894054	0.888279	-0.425369
C73	C	-1.394078	0.388249	-1.016683
C74	C	-0.894078	0.888249	-0.516683
C75	C	-1.393934	0.388426	-0.179081
C76	C	-0.893934	0.888426	0.320919
C77	C	-1.394101	0.388221	-0.089460
C78	C	-0.894101	0.888221	0.410540
