data_functionalizedCrystal
_audit_creation_method	'MofGen! by Chris Wilmer'
_symmetry_space_group_name_H-M	'P1'
_symmetry_Int_Tables_number	1
_symmetry_cell_setting	triclinic
loop_
_symmetry_equiv_pos_as_xyz
  x,y,z
_cell_length_a	15.944493
_cell_length_b	15.944493
_cell_length_c	9.565339
_cell_angle_alpha	90.006105
_cell_angle_beta	89.997013
_cell_angle_gamma	83.475044
loop_
_atom_site_label
_atom_site_type_symbol
_atom_site_fract_x
_atom_site_fract_y
_atom_site_fract_z
O1	O	1.114532	0.108097	-0.116223
O2	O	0.869972	0.121505	-0.116228
O3	O	0.998956	-0.007479	-0.116237
O4	O	0.985548	0.237080	-0.116214
O5	O	0.998946	-0.007471	0.116283
O6	O	0.869962	0.121513	0.116293
O7	O	1.114521	0.108105	0.116297
Zn8	Zn	0.992240	0.114810	0.153212
Zn9	Zn	0.992254	0.114800	-0.153143
O10	O	0.985538	0.237088	0.116306
C11	C	0.838673	0.120961	0.000032
C12	C	0.745424	0.119318	0.000029
C13	C	0.509649	0.195240	0.000035
C14	C	0.459094	0.154302	0.114682
C15	C	0.574704	0.116273	0.000031
C16	C	0.459108	0.154276	-0.114565
C17	C	0.409795	0.113339	0.000028
C18	C	0.525377	0.075357	0.114773
C19	C	0.525395	0.075342	-0.114577
C20	C	0.474873	0.034346	0.000098
C21	C	0.669704	0.117966	0.000035
C22	C	0.314798	0.111640	0.000034
C23	C	0.998403	-0.038769	0.000017
C24	C	0.996760	-0.132018	-0.000000
C25	C	1.072682	-0.367793	0.000027
C26	C	1.031745	-0.418357	-0.114617
C27	C	0.993716	-0.302738	0.000017
C28	C	1.031717	-0.418325	0.114629
C29	C	0.990781	-0.467647	0.000039
C30	C	0.952800	-0.352073	-0.114723
C31	C	0.952783	-0.352038	0.114627
C32	C	0.911788	-0.402569	-0.000046
C33	C	0.995408	-0.207739	0.000002
C34	C	0.989082	-0.562644	0.000043
C35	C	1.145821	0.108649	0.000035
C36	C	1.239069	0.110292	0.000028
C37	C	0.986091	0.268379	0.000049
C38	C	0.987734	0.361627	0.000058
N39	N	0.992237	0.114817	0.362292
N40	N	0.992263	0.114786	-0.362222
C41	C	0.932569	0.174448	0.453499
C42	C	1.008472	0.190735	0.546682
C43	C	0.916367	0.098536	0.546665
C44	C	1.068178	0.131142	0.453422
C45	C	0.976024	0.038910	0.453397
C46	C	1.051982	0.055165	0.546538
H47	H	0.430167	0.187637	-0.211476
H48	H	0.525258	0.263261	0.000149
H49	H	0.919459	-0.323067	0.211554
N50	N	1.026656	0.275742	0.600982
H51	H	1.079890	0.268694	0.659062
H52	H	1.034314	0.314487	0.519582
N53	N	1.075898	-0.456652	0.243012
H54	H	1.136636	-0.444292	0.242903
H55	H	1.046631	-0.431576	0.329532
N56	N	0.908667	-0.313912	-0.243265
H57	H	0.848086	-0.326770	-0.243659
H58	H	0.910150	-0.250757	-0.242435
H59	H	0.459422	-0.033727	0.000158
N60	N	1.162778	-0.347105	-0.000129
H61	H	1.163272	-0.283820	0.000754
H62	H	1.192863	-0.372319	0.085572
H63	H	0.852194	0.084779	0.587626
H64	H	0.882155	0.224921	0.412648
N65	N	1.153205	0.149463	0.399415
H66	H	1.152664	0.149386	0.293830
H67	H	1.165551	0.206581	0.434274
H68	H	0.843715	-0.418021	-0.000110
H69	H	0.962268	-0.025249	0.412391
N70	N	0.420752	0.198471	0.243085
H71	H	0.433107	0.259210	0.243009
H72	H	0.357669	0.196473	0.242533
N73	N	0.563556	0.031215	0.243294
H74	H	0.626722	0.032637	0.242525
H75	H	0.538766	0.060832	0.329714
H76	H	0.554353	0.042015	-0.211512
H77	H	1.065098	-0.447313	-0.211541
H78	H	1.102508	0.004721	0.587133
