data_functionalizedCrystal
_audit_creation_method	'MofGen! by Chris Wilmer'
_symmetry_space_group_name_H-M	'P1'
_symmetry_Int_Tables_number	1
_symmetry_cell_setting	triclinic
loop_
_symmetry_equiv_pos_as_xyz
  x,y,z
_cell_length_a	11.026607
_cell_length_b	22.610064
_cell_length_c	11.026607
_cell_angle_alpha	90.000132
_cell_angle_beta	71.413983
_cell_angle_gamma	90.014614
loop_
_atom_site_label
_atom_site_type_symbol
_atom_site_fract_x
_atom_site_fract_y
_atom_site_fract_z
O1	O	1.726753	0.049183	-0.533625
O2	O	1.360173	0.049184	-0.472862
O3	O	1.513081	0.049182	-0.319953
O4	O	1.573845	0.049186	-0.686533
O5	O	1.513024	-0.049188	-0.319941
O6	O	1.360116	-0.049185	-0.472849
O7	O	1.726696	-0.049186	-0.533612
Zn8	Zn	1.543396	-0.064804	-0.503228
Zn9	Zn	1.543472	0.064802	-0.503245
O10	O	1.573787	-0.049184	-0.686520
C11	C	1.312485	-0.000000	-0.461645
C12	C	1.170471	-0.000000	-0.428228
N13	N	1.543354	-0.153256	-0.503218
C14	C	1.116821	0.000001	-0.520498
C15	C	0.970043	0.000002	-0.485962
C16	C	1.637648	-0.561897	-0.597448
C17	C	1.637663	-0.623817	-0.597449
O18	O	1.717782	-0.655835	-0.677547
N19	N	1.543493	-0.654793	-0.503236
C20	C	1.449310	-0.623847	-0.409010
O21	O	1.369214	-0.655880	-0.328874
C22	C	1.449301	-0.561928	-0.409005
C23	C	1.543469	-0.530955	-0.503231
C24	C	1.731809	-0.530924	-0.691666
C25	C	1.731792	-0.469008	-0.691667
C26	C	1.637613	-0.438066	-0.597450
C27	C	1.543452	-0.469039	-0.503232
C28	C	1.355124	-0.530982	-0.314774
C29	C	1.355124	-0.469059	-0.314777
C30	C	1.449292	-0.438086	-0.409003
C31	C	1.449257	-0.376181	-0.409015
N32	N	1.543426	-0.345205	-0.503228
C33	C	1.637605	-0.376147	-0.597445
C34	C	1.449337	-0.753880	-0.409025
C35	C	1.449340	-0.815798	-0.409034
C36	C	1.637694	-0.815764	-0.597472
C37	C	1.637685	-0.753845	-0.597468
C38	C	1.543507	-0.722904	-0.503238
C39	C	1.637561	-0.246120	-0.597440
C40	C	1.637532	-0.184199	-0.597435
C41	C	1.449182	-0.184238	-0.408994
C42	C	1.449206	-0.246154	-0.409002
C43	C	1.543406	-0.277093	-0.503231
O44	O	1.369181	-0.344124	-0.328955
O45	O	1.717697	-0.344106	-0.677557
C46	C	1.774384	-0.000000	-0.544828
C47	C	1.916398	0.000003	-0.578245
C48	C	1.501843	-0.000002	-0.272287
C49	C	1.468426	-0.000000	-0.130273
N50	N	1.543523	0.153254	-0.503248
C51	C	1.585026	0.000002	-0.734187
C52	C	1.618443	0.000003	-0.876200
C53	C	1.560695	0.000000	-0.076624
C54	C	1.526160	0.000003	0.070155
H55	H	0.907314	0.000016	-0.381393
N56	N	1.739146	-0.279490	-0.699072
H57	H	1.789421	-0.305170	-0.657260
H58	H	1.798703	-0.250432	-0.758727
H59	H	1.665258	-0.000003	-0.139357
H60	H	1.808478	-0.443795	-0.768391
N61	N	1.756963	-0.000003	0.040731
H62	H	1.800868	0.036463	0.059431
H63	H	1.761900	-0.000027	-0.052316
N64	N	1.199913	0.000005	-0.659005
H65	H	1.181227	0.036471	-0.702891
H66	H	1.181149	-0.036484	-0.702780
N67	N	1.347736	-0.720515	-0.307392
H68	H	1.297467	-0.694832	-0.349206
H69	H	1.389678	-0.694853	-0.257190
H70	H	1.278443	-0.556190	-0.238043
N71	N	1.387644	-0.000004	0.153236
H72	H	1.330813	-0.000006	0.097268
H73	H	1.369788	0.036463	0.209036
N74	N	0.999472	-0.000001	-0.716763
H75	H	1.092550	-0.000002	-0.721804
H76	H	0.980681	0.036466	-0.760572
N77	N	1.087390	-0.000009	-0.289718
H78	H	0.994312	-0.000010	-0.284681
H79	H	1.106220	0.036456	-0.245915
N80	N	1.739111	-0.150790	-0.699058
H81	H	1.697249	-0.125109	-0.749286
H82	H	1.798747	-0.179828	-0.758650
N83	N	1.329913	0.000002	-0.047201
H84	H	1.311945	0.036468	0.008606
H85	H	1.311993	-0.036487	0.008544
H86	H	1.808507	-0.556110	-0.768391
N87	N	1.739254	-0.720437	-0.699085
H88	H	1.734366	-0.731214	-0.786298
H89	H	1.826435	-0.731217	-0.694139
N90	N	1.739277	-0.849143	-0.699096
H91	H	1.724988	-0.893068	-0.684791
H92	H	1.826464	-0.838308	-0.694216
H93	H	1.372646	-0.841011	-0.332317
H94	H	1.278431	-0.443870	-0.238041
H95	H	1.372514	-0.271373	-0.332288
H96	H	1.372502	-0.159034	-0.332287
