data_functionalizedCrystal
_audit_creation_method	'MofGen! by Chris Wilmer'
_symmetry_space_group_name_H-M	'P1'
_symmetry_Int_Tables_number	1
_symmetry_cell_setting	triclinic
loop_
_symmetry_equiv_pos_as_xyz
  x,y,z
_cell_length_a	11.792254
_cell_length_b	10.540539
_cell_length_c	10.868271
_cell_angle_alpha	89.997005
_cell_angle_beta	89.995741
_cell_angle_gamma	84.362045
loop_
_atom_site_label
_atom_site_type_symbol
_atom_site_fract_x
_atom_site_fract_y
_atom_site_fract_z
O1	O	1.507353	0.174069	-0.102315
O2	O	2.007353	0.674069	0.397685
O3	O	1.177060	0.191983	-0.102317
O4	O	1.677060	0.691983	0.397683
O5	O	1.349742	-0.001705	-0.102314
O6	O	1.849742	0.498295	0.397686
O7	O	1.334671	0.367757	-0.102318
O8	O	1.834671	0.867757	0.397682
O9	O	1.349728	-0.001712	0.102330
O10	O	1.849728	0.498288	0.602330
O11	O	1.177046	0.191976	0.102328
O12	O	1.677046	0.691976	0.602328
O13	O	1.507339	0.174061	0.102330
O14	O	2.007339	0.674061	0.602330
Zn15	Zn	1.342190	0.183017	0.134820
Zn16	Zn	1.842190	0.683017	0.634820
Zn17	Zn	1.342209	0.183027	-0.134808
Zn18	Zn	1.842209	0.683027	0.365192
O19	O	1.334657	0.367749	0.102327
O20	O	1.834657	0.867749	0.602327
C21	C	1.134760	0.190851	0.000005
C22	C	1.634760	0.690851	0.500005
C23	C	1.008738	0.187473	0.000004
C24	C	1.508738	0.687473	0.500004
C25	C	0.906394	0.184729	-0.000001
C26	C	1.406394	0.684729	0.499999
C27	C	0.777999	0.181297	-0.000002
C28	C	1.277999	0.681297	0.499998
C29	C	1.348605	-0.049008	0.000006
C30	C	1.848605	0.450992	0.500006
C31	C	1.345223	-0.189945	-0.000001
C32	C	1.845223	0.310055	0.499999
C33	C	1.215653	-0.372957	-0.000461
C34	C	1.715653	0.127043	0.499539
C35	C	1.219081	-0.226349	-0.000000
C36	C	1.719081	0.273651	0.500000
C37	C	1.405921	-0.251802	0.116862
C38	C	1.905921	0.248198	0.616862
C39	C	1.401616	-0.398332	0.116960
C40	C	1.901616	0.101668	0.616960
C41	C	1.404198	-0.398850	-0.115759
C42	C	1.904198	0.101150	0.384241
C43	C	1.405359	-0.251872	-0.117304
C44	C	1.905359	0.248128	0.382696
C45	C	1.549639	0.175193	0.000005
C46	C	2.049639	0.675193	0.500005
C47	C	1.675661	0.178571	-0.000002
C48	C	2.175661	0.678571	0.499998
C49	C	1.335794	0.415052	0.000004
C50	C	1.835794	0.915052	0.500004
C51	C	1.339176	0.555989	0.000003
C52	C	1.839176	1.055989	0.500003
N53	N	1.342185	0.183009	0.318834
N54	N	1.842185	0.683009	0.818834
N55	N	1.342223	0.183025	-0.318822
N56	N	1.842223	0.683025	0.181178
C57	C	1.342203	0.183024	0.569840
C58	C	1.842203	0.683024	1.069840
C59	C	1.342190	0.183020	0.430163
C60	C	1.842190	0.683020	0.930163
H61	H	1.171320	-0.183590	-0.083772
H62	H	1.671320	0.316410	0.416228
C63	C	1.148603	-0.413534	0.112120
C64	C	1.648603	0.086466	0.612120
H65	H	1.195561	-0.473587	0.159407
H66	H	1.695561	0.026413	0.659407
H67	H	1.082967	-0.451199	0.085252
H68	H	1.582967	0.048801	0.585252
H69	H	1.125935	-0.340844	0.161173
H70	H	1.625935	0.159156	0.661173
C71	C	1.148334	-0.411363	-0.113668
C72	C	1.648334	0.088637	0.386332
H73	H	1.074034	-0.367439	-0.112230
H74	H	1.574034	0.132561	0.387770
H75	H	1.142859	-0.500663	-0.112122
H76	H	1.642859	-0.000663	0.387878
H77	H	1.186574	-0.389661	-0.186505
H78	H	1.686574	0.110339	0.313495
H79	H	1.170974	-0.184442	0.083910
H80	H	1.670974	0.315558	0.583910
H81	H	1.356745	-0.426391	0.204316
H82	H	1.856745	0.073609	0.704316
H83	H	1.363378	-0.430269	-0.204334
H84	H	1.863378	0.069731	0.295666
C85	C	1.345468	-0.196363	-0.234104
C86	C	1.845468	0.303637	0.265896
H87	H	1.382236	-0.234198	-0.304750
H88	H	1.882236	0.265802	0.195250
H89	H	1.349249	-0.106783	-0.236250
H90	H	1.849249	0.393217	0.263750
H91	H	1.267968	-0.213879	-0.233375
H92	H	1.767968	0.286121	0.266625
C93	C	1.524162	-0.463533	0.124147
C94	C	2.024162	0.036467	0.624147
H95	H	1.576354	-0.400433	0.127003
H96	H	2.076354	0.099567	0.627003
H97	H	1.539403	-0.515755	0.053682
H98	H	2.039403	-0.015755	0.553682
H99	H	1.532335	-0.514619	0.196215
H100	H	2.032335	-0.014619	0.696215
C101	C	1.529603	-0.219561	-0.126839
C102	C	2.029603	0.280439	0.373161
H103	H	1.546504	-0.167657	-0.059098
H104	H	2.046504	0.332343	0.440902
H105	H	1.539584	-0.175002	-0.201426
H106	H	2.039584	0.324998	0.298574
H107	H	1.579378	-0.296102	-0.125846
H108	H	2.079378	0.203898	0.374154
C109	C	1.531059	-0.222001	0.122746
C110	C	2.031059	0.277999	0.622746
H111	H	1.547437	-0.171443	0.053823
H112	H	2.047437	0.328557	0.553823
H113	H	1.579644	-0.299416	0.121665
H114	H	2.079644	0.200584	0.621665
H115	H	1.543291	-0.176731	0.196379
H116	H	2.043291	0.323269	0.696379
C117	C	1.348939	-0.194098	0.234346
C118	C	1.848939	0.305902	0.734346
H119	H	1.288168	-0.132326	0.212429
H120	H	1.788168	0.367674	0.712429
H121	H	1.403456	-0.154702	0.281632
H122	H	1.903456	0.345298	0.781632
H123	H	1.320011	-0.259678	0.281447
H124	H	1.820011	0.240322	0.781447
C125	C	1.527276	-0.463051	-0.116834
C126	C	2.027276	0.036949	0.383166
H127	H	1.539026	-0.517121	-0.047118
H128	H	2.039026	-0.017121	0.452882
H129	H	1.579066	-0.399532	-0.114270
H130	H	2.079066	0.100468	0.385730
H131	H	1.539654	-0.512136	-0.189768
H132	H	2.039654	-0.012136	0.310232
