data_functionalizedCrystal
_audit_creation_method	'MofGen! by Chris Wilmer'
_symmetry_space_group_name_H-M	'P1'
_symmetry_Int_Tables_number	1
_symmetry_cell_setting	triclinic
loop_
_symmetry_equiv_pos_as_xyz
  x,y,z
_cell_length_a	10.654550
_cell_length_b	12.837942
_cell_length_c	9.730223
_cell_angle_alpha	89.998888
_cell_angle_beta	89.996251
_cell_angle_gamma	89.656921
loop_
_atom_site_label
_atom_site_type_symbol
_atom_site_fract_x
_atom_site_fract_y
_atom_site_fract_z
O1	O	1.683735	0.145718	-0.114403
O2	O	1.319772	0.159602	-0.114381
O3	O	1.493683	0.001699	-0.114383
O4	O	1.509824	0.303621	-0.114401
O5	O	1.493681	0.001703	0.114196
O6	O	1.319770	0.159606	0.114199
O7	O	1.683734	0.145722	0.114177
Zn8	Zn	1.501752	0.152665	0.150480
Zn9	Zn	1.501754	0.152659	-0.150684
O10	O	1.509822	0.303625	0.114179
C11	C	1.272862	0.158585	-0.000089
C12	C	1.133086	0.155535	-0.000080
C13	C	1.063745	0.248505	-0.000105
C14	C	0.932411	0.245633	-0.000129
C15	C	0.939770	0.056812	-0.000107
C16	C	1.071101	0.059685	-0.000074
C17	C	1.059496	0.357520	-0.000124
C18	C	0.928162	0.354648	-0.000148
C19	C	1.488230	-0.036959	-0.000094
C20	C	1.471967	-0.152153	-0.000095
C21	C	1.667472	-0.391705	-0.000136
C22	C	1.652197	-0.499941	-0.000137
C23	C	1.426146	-0.476862	-0.000109
C24	C	1.441420	-0.368626	-0.000108
C25	C	1.562087	-0.326052	-0.000119
C26	C	1.577360	-0.217814	-0.000108
C27	C	1.351309	-0.194737	-0.000090
C28	C	1.336035	-0.302973	-0.000091
C29	C	1.730644	0.146740	-0.000119
C30	C	1.870420	0.149790	-0.000137
C31	C	1.515276	0.342283	-0.000114
C32	C	1.531538	0.457477	-0.000122
N33	N	1.501759	0.152668	0.356016
N34	N	1.501755	0.152648	-0.356221
C35	C	1.578792	0.082772	0.427941
C36	C	1.578787	0.082760	0.571824
C37	C	1.424714	0.222547	0.571844
C38	C	1.424713	0.222554	0.427964
C39	C	1.667748	0.002070	0.427931
C40	C	1.667744	0.002058	0.571814
H41	H	0.889286	-0.021226	-0.000123
H42	H	1.675613	-0.183153	-0.000112
C43	C	1.627018	-0.105654	0.375165
C44	C	1.716335	-0.170423	0.284170
C45	C	1.675603	-0.278143	0.231405
C46	C	1.545555	-0.321094	0.269635
C47	C	1.456230	-0.256323	0.360634
C48	C	1.496961	-0.148603	0.413400
H49	H	1.812612	-0.138630	0.255866
H50	H	1.741728	-0.326090	0.164041
H51	H	1.515403	-0.400835	0.230574
H52	H	1.359953	-0.288117	0.388939
H53	H	1.430836	-0.100656	0.480764
H54	H	1.093479	0.400157	0.095539
C55	C	1.203309	-0.349813	-0.000083
C56	C	1.161730	-0.421058	0.118610
C57	C	1.029002	-0.467898	0.118619
C58	C	0.937854	-0.443493	-0.000065
C59	C	0.979432	-0.372244	-0.118768
C60	C	1.112160	-0.325405	-0.118777
H61	H	1.229204	-0.439127	0.206476
H62	H	0.998224	-0.520640	0.206491
H63	H	0.839602	-0.478166	-0.000059
H64	H	0.911958	-0.354175	-0.206633
H65	H	1.142938	-0.272662	-0.206648
C66	C	1.800197	-0.344864	-0.000136
C67	C	1.891335	-0.369267	0.118558
C68	C	2.024062	-0.322426	0.118561
C69	C	2.065651	-0.251183	-0.000129
C70	C	1.974510	-0.226776	-0.118832
C71	C	1.841783	-0.273616	-0.118835
H72	H	1.860551	-0.422009	0.206428
H73	H	2.091530	-0.340494	0.206434
H74	H	2.163903	-0.216508	-0.000127
H75	H	2.005295	-0.174034	-0.206702
H76	H	1.774316	-0.255549	-0.206707
C77	C	0.877827	0.410117	-0.129396
C78	C	0.969942	0.457730	-0.233573
C79	C	0.919607	0.513191	-0.362819
C80	C	0.777158	0.521040	-0.387889
C81	C	0.685034	0.473425	-0.283710
C82	C	0.735369	0.417964	-0.154464
H83	H	1.075399	0.451921	-0.215017
H84	H	0.987804	0.548439	-0.439939
H85	H	0.739897	0.562096	-0.483565
H86	H	0.579577	0.479234	-0.302266
H87	H	0.667172	0.382716	-0.077344
H88	H	1.738013	-0.553393	-0.000155
C89	C	1.794653	0.036208	0.367624
C90	C	1.914730	-0.026230	0.400819
C91	C	2.041633	0.007914	0.340514
C92	C	2.048459	0.104496	0.247014
C93	C	1.928378	0.166940	0.213815
C94	C	1.801475	0.132796	0.274120
H95	H	1.909681	-0.097732	0.470037
H96	H	2.130525	-0.038312	0.365090
H97	H	2.142401	0.129771	0.202373
H98	H	1.933427	0.238441	0.144597
H99	H	1.712583	0.179022	0.249543
C100	C	1.339973	0.299423	0.650989
C101	C	1.340203	0.299600	0.809251
C102	C	1.255461	0.376480	0.888392
C103	C	1.170487	0.453183	0.809271
C104	C	1.170253	0.453009	0.651000
C105	C	1.254996	0.376129	0.571859
H106	H	1.403108	0.242818	0.867830
H107	H	1.255634	0.376609	1.005556
H108	H	1.107756	0.510094	0.867856
H109	H	1.107348	0.509791	0.592421
H110	H	1.254823	0.376001	0.454696
H111	H	1.629007	-0.073301	0.616436
H112	H	1.361976	0.279459	0.369403
C113	C	1.800729	0.026090	0.624587
C114	C	1.870528	-0.053484	0.715573
C115	C	2.003502	-0.029444	0.768352
C116	C	2.066678	0.074171	0.730145
C117	C	1.996879	0.153752	0.639154
C118	C	1.863904	0.129711	0.586375
H119	H	1.823761	-0.130192	0.743861
H120	H	2.055171	-0.088355	0.835710
H121	H	2.165113	0.091967	0.769215
H122	H	2.043645	0.230460	0.610866
H123	H	1.812235	0.188623	0.519017
H124	H	1.127554	-0.016021	-0.000033
H125	H	0.886085	0.387595	0.098535
H126	H	1.098940	0.392230	-0.098814
H127	H	1.327904	-0.511545	-0.000115
H128	H	1.265497	-0.141270	-0.000065
