data_functionalizedCrystal
_audit_creation_method	'MofGen! by Chris Wilmer'
_symmetry_space_group_name_H-M	'P1'
_symmetry_Int_Tables_number	1
_symmetry_cell_setting	triclinic
loop_
_symmetry_equiv_pos_as_xyz
  x,y,z
_cell_length_a	27.731994
_cell_length_b	26.210047
_cell_length_c	10.654541
_cell_angle_alpha	90.004785
_cell_angle_beta	96.447769
_cell_angle_gamma	90.002872
loop_
_atom_site_label
_atom_site_type_symbol
_atom_site_fract_x
_atom_site_fract_y
_atom_site_fract_z
O1	O	0.641876	0.042356	-0.149074
O2	O	0.501221	0.042373	-0.171864
O3	O	0.574783	0.042361	0.022408
O4	O	0.568314	0.042368	-0.343346
O5	O	0.574769	-0.042497	0.022378
O6	O	0.501207	-0.042485	-0.171894
O7	O	0.641862	-0.042502	-0.149104
Cu8	Cu	0.571533	-0.050242	-0.160502
Cu9	Cu	0.571550	0.050113	-0.160466
O10	O	0.568300	-0.042490	-0.343377
C11	C	0.483203	-0.000054	-0.171411
C12	C	0.429538	-0.000047	-0.170003
C13	C	0.096757	-0.046323	-0.161146
C14	C	-0.104935	-0.046329	-0.155790
O15	O	-0.131018	-0.085668	-0.155058
N16	N	-0.130146	-0.000073	-0.155109
C17	C	-0.104931	0.046188	-0.155758
O18	O	-0.131002	0.085531	-0.155042
C19	C	0.096760	0.046193	-0.161104
C20	C	0.121968	-0.000066	-0.161799
C21	C	0.121965	-0.092579	-0.161839
C22	C	0.172385	-0.092577	-0.163184
C23	C	0.197596	-0.046320	-0.163837
C24	C	0.172388	-0.000064	-0.163144
C25	C	0.121975	0.092453	-0.161744
C26	C	0.172401	0.092451	-0.163078
C27	C	0.197609	0.046191	-0.163772
C28	C	0.248019	0.046195	-0.165143
N29	N	0.273230	-0.000061	-0.165824
C30	C	0.248019	-0.046318	-0.165172
C31	C	-0.210821	0.046182	-0.152953
C32	C	-0.261244	0.046180	-0.151619
C33	C	-0.261244	-0.046337	-0.151649
C34	C	-0.210821	-0.046335	-0.152992
C35	C	-0.185610	-0.000075	-0.153635
C36	C	0.353903	-0.046311	-0.167999
C37	C	0.404327	-0.046305	-0.169350
C38	C	0.404323	0.046212	-0.169313
C39	C	0.353904	0.046206	-0.167968
C40	C	0.328695	-0.000059	-0.167307
O41	O	0.274134	0.085513	-0.165862
O42	O	0.274100	-0.085656	-0.165859
C43	C	0.046337	-0.046325	-0.159800
C44	C	0.021129	-0.000070	-0.159107
C45	C	0.046341	0.046187	-0.159760
C46	C	-0.029293	-0.000071	-0.157773
C47	C	-0.054505	-0.046328	-0.157120
C48	C	-0.029294	-0.092585	-0.157802
C49	C	0.021126	-0.092583	-0.159147
C50	C	0.021130	0.092443	-0.159078
C51	C	-0.029290	0.092438	-0.157734
C52	C	-0.054502	0.046180	-0.157081
N53	N	0.571525	-0.120826	-0.160527
C54	C	0.604120	-0.473345	-0.074462
C55	C	0.604131	-0.687004	-0.074444
O56	O	0.631826	-0.714630	-0.001275
N57	N	0.571552	-0.713719	-0.160439
C58	C	0.538967	-0.687018	-0.246438
O59	O	0.511254	-0.714644	-0.319573
C60	C	0.538955	-0.473360	-0.246449
C61	C	0.571538	-0.446647	-0.160457
C62	C	0.636701	-0.446632	0.011523
C63	C	0.636699	-0.393220	0.011514
C64	C	0.604118	-0.366522	-0.074482
C65	C	0.571537	-0.393235	-0.160467
C66	C	0.506367	-0.446659	-0.332441
C67	C	0.506366	-0.393241	-0.332434
C68	C	0.538950	-0.366528	-0.246443
C69	C	0.538954	-0.313126	-0.246472
N70	N	0.571532	-0.286410	-0.160478
C71	C	0.604114	-0.313108	-0.074483
C72	C	0.538977	-0.799191	-0.246428
C73	C	0.538980	-0.852605	-0.246427
C74	C	0.604143	-0.852587	-0.074431
C75	C	0.604142	-0.799172	-0.074439
C76	C	0.571555	-0.772475	-0.160434
C77	C	0.604109	-0.200940	-0.074510
C78	C	0.604107	-0.147524	-0.074531
C79	C	0.538942	-0.147546	-0.246522
C80	C	0.538946	-0.200958	-0.246506
C81	C	0.571532	-0.227653	-0.160490
O82	O	0.511270	-0.285466	-0.319594
O83	O	0.631815	-0.285473	-0.001340
C84	C	0.604121	-0.526756	-0.074452
C85	C	0.571541	-0.553470	-0.160438
C86	C	0.538959	-0.526771	-0.246433
C87	C	0.571544	-0.606884	-0.160437
C88	C	0.604126	-0.633582	-0.074441
C89	C	0.636704	-0.606866	0.011553
C90	C	0.636703	-0.553455	0.011543
C91	C	0.506381	-0.553487	-0.332427
C92	C	0.506385	-0.606899	-0.332411
C93	C	0.538967	-0.633597	-0.246416
C94	C	0.659879	-0.000074	-0.149557
C95	C	0.713545	-0.000077	-0.150966
C96	C	0.574301	-0.000068	0.069171
C97	C	0.572881	-0.000067	0.208554
N98	N	0.571562	0.120697	-0.160432
C99	C	0.568782	-0.000060	-0.390139
C100	C	0.570202	-0.000058	-0.529522
C101	C	0.660845	-0.000084	0.240267
C102	C	0.704157	-0.000093	0.321604
C103	C	0.702819	-0.000091	0.452565
C104	C	0.658165	-0.000079	0.502190
C105	C	0.614852	-0.000069	0.420854
C106	C	0.616194	-0.000072	0.289891
C107	C	0.526890	-0.000048	0.389141
C108	C	0.528226	-0.000054	0.258179
C109	C	0.482235	-0.000036	0.438766
C110	C	0.438921	-0.000030	0.357429
C111	C	0.440261	-0.000032	0.226461
C112	C	0.484914	-0.000044	0.176842
H113	H	-0.049811	0.130110	-0.157179
F114	F	0.656743	-0.000049	0.641572
H115	H	0.481149	-0.000031	0.545403
F116	F	0.391402	-0.000011	0.410252
H117	H	0.663233	-0.468365	0.081557
F118	F	0.638821	-0.770747	0.017085
F119	F	0.327073	0.095440	-0.167250
H120	H	0.192925	0.130122	-0.163601
H121	H	-0.190300	-0.084003	-0.153559
F122	F	0.394160	-0.000018	0.139904
F123	F	0.638789	-0.119096	0.016994
H124	H	0.486008	-0.000049	0.070209
F125	F	0.638790	-0.229344	0.017038
H126	H	-0.281780	-0.084001	-0.151120
F127	F	0.748917	-0.000097	0.539132
F128	F	0.327082	-0.095552	-0.167293
H129	H	-0.281765	0.083849	-0.151073
H130	H	0.424849	-0.083976	-0.169919
H131	H	0.479835	-0.468401	-0.402462
H132	H	0.479829	-0.371507	-0.402460
F133	F	0.199207	-0.141813	-0.163917
H134	H	0.661938	-0.000092	0.133633
H135	H	0.101443	-0.130249	-0.161304
H136	H	-0.190299	0.083855	-0.153475
H137	H	0.424859	0.083874	-0.169849
F138	F	0.095158	0.141689	-0.161002
H139	H	0.630673	-0.874334	-0.004412
H140	H	0.041646	-0.130252	-0.159713
F141	F	0.751680	-0.000104	0.268780
H142	H	0.512453	-0.874351	-0.316462
F143	F	-0.056135	-0.141815	-0.157113
H144	H	0.041652	0.130112	-0.159606
F145	F	0.671377	-0.364795	0.103043
F146	F	0.504292	-0.770783	-0.337962
F147	F	0.504272	-0.229387	-0.338042
F148	F	0.504268	-0.119124	-0.338043
H149	H	0.663235	-0.531708	0.081566
H150	H	0.663235	-0.628612	0.081570
F151	F	0.471705	-0.635324	-0.423948
H152	H	0.479848	-0.531754	-0.402454
