data_functionalizedCrystal
_audit_creation_method	'MofGen! by Chris Wilmer'
_symmetry_space_group_name_H-M	'P1'
_symmetry_Int_Tables_number	1
_symmetry_cell_setting	triclinic
loop_
_symmetry_equiv_pos_as_xyz
  x,y,z
_cell_length_a	31.640172
_cell_length_b	14.395555
_cell_length_c	14.395555
_cell_angle_alpha	60.000749
_cell_angle_beta	90.004893
_cell_angle_gamma	59.999894
loop_
_atom_site_label
_atom_site_type_symbol
_atom_site_fract_x
_atom_site_fract_y
_atom_site_fract_z
Zr1	Zr	0.407196	1.016674	-0.121799
O2	O	0.339710	1.210481	-0.270145
O3	O	0.427883	0.822874	-0.076321
O4	O	0.427886	1.016661	-0.270117
O5	O	0.339706	1.016701	0.076518
O6	O	0.497443	1.016642	-0.270096
O7	O	0.339706	1.016694	-0.076349
O8	O	0.497437	0.669992	0.076569
O9	O	0.339712	1.363351	-0.270148
O10	O	0.488617	0.902569	-0.056912
O11	O	0.436707	0.902589	0.057156
O12	O	0.436711	1.130748	-0.171014
O13	O	0.384801	1.130768	-0.056946
Zr14	Zr	0.518131	1.016654	0.122039
Zr15	Zr	0.518132	1.016643	-0.121766
Zr16	Zr	0.407195	1.016685	0.122007
Zr17	Zr	0.407200	1.260483	-0.121803
Zr18	Zr	0.518128	0.772845	0.122043
O19	O	0.497444	1.210453	0.076561
O20	O	0.497446	1.210438	-0.270099
O21	O	0.339709	1.210497	0.076515
O22	O	0.585617	0.822846	0.270386
O23	O	0.585619	0.822830	-0.076275
O24	O	0.427882	0.822890	0.270339
O25	O	0.585621	1.016626	-0.076277
O26	O	0.497441	1.016666	0.270357
O27	O	0.427884	1.016686	0.270336
O28	O	0.585621	1.016633	0.076590
O29	O	0.427891	1.363327	-0.270122
O30	O	0.497436	0.670001	0.270362
O31	O	0.585615	0.669977	0.270388
O32	O	0.585616	0.669968	0.076595
O33	O	0.339711	1.363360	-0.076355
O34	O	0.427890	1.363335	-0.076329
O35	O	0.488616	0.902580	0.171254
O36	O	0.540526	0.902560	0.057186
O37	O	0.488620	1.130739	-0.056916
O38	O	0.436710	1.130758	0.057152
C39	C	0.462659	0.711696	0.000125
C40	C	0.462658	0.608192	0.000126
C41	C	0.434356	0.547610	0.062325
C42	C	0.413844	0.561868	-0.044956
C43	C	0.483157	0.409539	0.107375
C44	C	0.442118	0.623876	-0.107218
C45	C	0.511458	0.471484	0.045190
C46	C	0.490958	0.485788	-0.062155
C47	C	0.323900	1.016702	0.000079
C48	C	0.276805	1.016715	0.000066
C49	C	0.011894	0.897544	0.059703
C50	C	-0.165091	0.897522	0.059726
O51	O	-0.164934	0.796225	0.110421
N52	N	-0.214316	1.016628	0.000164
C53	C	-0.219293	1.135748	-0.059401
O54	O	-0.265222	1.237055	-0.110052
C55	C	-0.042308	1.135769	-0.059416
C56	C	0.006916	1.016655	0.000140
C57	C	0.061115	0.778440	0.119255
C58	C	0.105359	0.778447	0.119244
C59	C	0.100380	0.897558	0.059680
C60	C	0.051159	1.016662	0.000128
C61	C	-0.047286	1.254888	-0.118974
C62	C	-0.003034	1.254883	-0.118970
C63	C	0.046189	1.135769	-0.059414
C64	C	0.090424	1.135780	-0.059446
N65	N	0.139648	1.016674	0.000115
C66	C	0.144626	0.897563	0.059679
C67	C	-0.312210	1.135728	-0.059391
C68	C	-0.356456	1.135723	-0.059389
C69	C	-0.302252	0.897496	0.059740
C70	C	-0.258005	0.897503	0.059731
C71	C	-0.262986	1.016622	0.000171
C72	C	0.237539	0.897587	0.059650
C73	C	0.281783	0.897604	0.059629
C74	C	0.227575	1.135830	-0.059494
C75	C	0.183334	1.135814	-0.059479
C76	C	0.188319	1.016681	0.000101
O77	O	0.090306	1.237024	-0.110104
O78	O	0.190560	0.796272	0.110342
C79	C	-0.032350	0.897538	0.059714
C80	C	-0.081571	1.016642	0.000162
C81	C	-0.086549	1.135753	-0.059401
C82	C	-0.125817	1.016637	0.000164
C83	C	-0.120839	0.897526	0.059728
C84	C	-0.071615	0.778420	0.119289
C85	C	-0.027371	0.778426	0.119278
C86	C	-0.135773	1.254859	-0.118963
C87	C	-0.180015	1.254842	-0.118947
C88	C	-0.175036	1.135731	-0.059384
C89	C	0.601427	1.016625	0.000161
C90	C	0.648522	1.016612	0.000175
C91	C	0.462665	1.016650	-0.304843
C92	C	0.462665	1.016645	-0.408345
C93	C	0.462668	1.321632	0.000116
C94	C	0.462669	1.425135	0.000114
C95	C	0.490969	0.892232	-0.406721
C96	C	0.442160	0.954436	-0.499758
C97	C	0.511462	0.954446	-0.499737
C98	C	0.413827	1.078850	-0.500019
C99	C	0.483165	1.078842	-0.499984
C100	C	0.434326	1.141137	-0.593038
C101	C	0.462663	1.016678	0.305084
C102	C	0.462662	1.016682	0.408586
C103	C	0.601423	0.711657	0.000165
C104	C	0.648516	0.608141	0.000181
C105	C	0.462658	0.711709	0.305088
C106	C	0.462657	0.608211	0.408592
C107	C	0.601422	0.711671	0.305129
C108	C	0.648515	0.608159	0.408646
C109	C	0.323905	1.321657	-0.304889
C110	C	0.276812	1.425168	-0.408406
C111	C	0.323904	1.321670	0.000075
C112	C	0.276811	1.425187	0.000060
C113	C	0.462669	1.321618	-0.304848
C114	C	0.462671	1.425117	-0.408351
C115	C	0.643536	0.559533	-0.059380
C116	C	0.687781	0.462282	-0.059389
C117	C	0.737006	0.413633	0.000171
C118	C	0.741986	0.462251	0.059734
C119	C	0.697741	0.559507	0.059735
C120	C	0.697732	0.559539	0.397717
C121	C	0.741985	0.462292	0.494973
C122	C	0.737021	0.413661	0.603157
C123	C	0.687799	0.462291	0.614084
C124	C	0.643546	0.559542	0.516829
C125	C	0.227596	1.473801	-0.397476
C126	C	0.183342	1.571078	-0.494732
C127	C	0.188307	1.619714	-0.602917
C128	C	0.237528	1.571078	-0.613844
C129	C	0.281781	1.473809	-0.516589
C130	C	0.281791	1.473805	0.059610
C131	C	0.237546	1.571083	0.059592
C132	C	0.188321	1.619735	0.000028
C133	C	0.183342	1.571113	-0.059530
C134	C	0.227586	1.473843	-0.059517
C135	C	0.434351	0.547634	0.406970
C136	C	0.483161	0.409523	0.500004
C137	C	0.413861	0.561875	0.499989
C138	C	0.511495	0.471400	0.500263
C139	C	0.442159	0.623826	0.500233
C140	C	0.490998	0.485725	0.593285
H141	H	0.424737	0.715442	-0.197964
H142	H	0.241564	1.610690	-0.701940
N143	N	0.130247	1.623579	-0.123752
H144	H	0.133799	1.578024	-0.161478
H145	H	0.110707	1.721208	-0.183624
N146	N	0.140606	1.724633	0.000042
H147	H	0.119308	1.690795	0.033936
H148	H	0.119344	1.805313	-0.080636
H149	H	0.552733	0.901837	-0.500623
N150	N	0.334882	1.421344	0.123850
H151	H	0.339028	1.381007	0.207159
H152	H	0.338993	1.495603	0.092510
N153	N	0.590447	0.611989	-0.123622
H154	H	0.594013	0.566432	-0.161354
H155	H	0.570908	0.709618	-0.183493
N156	N	0.682402	0.409843	-0.123617
H157	H	0.717897	0.340852	-0.114592
H158	H	0.662827	0.484125	-0.206900
H159	H	0.701803	0.599071	0.108244
H160	H	0.223544	1.434206	-0.309396
N161	N	-0.296890	0.769030	0.123980
H162	H	-0.314042	0.763739	0.183901
H163	H	-0.258986	0.693639	0.161649
N164	N	0.703100	0.611962	0.281046
H165	H	0.722646	0.652310	0.271943
H166	H	0.667586	0.680897	0.221147
H167	H	0.514891	0.458836	-0.114832
N168	N	0.795070	0.409851	0.483172
H169	H	0.791495	0.455411	0.399879
H170	H	0.814611	0.312221	0.520938
N171	N	0.419180	0.745215	0.498954
H172	H	0.382300	0.780243	0.497897
H173	H	0.419700	0.814325	0.428910
H174	H	-0.067568	0.681435	0.167781
N175	N	0.242930	1.623513	0.123826
H176	H	0.225791	1.721132	0.069196
H177	H	0.280839	1.577822	0.161552
H178	H	0.372594	0.599059	0.500892
H179	H	0.514864	0.787032	-0.326952
H180	H	0.773029	0.334440	0.000162
H181	H	0.773058	0.334472	0.682339
H182	H	0.372539	1.131402	-0.499210
N183	N	0.682448	0.409831	0.730772
H184	H	0.717953	0.340842	0.790715
H185	H	0.662886	0.369546	0.739782
N186	N	0.334864	1.421355	-0.528386
H187	H	0.331289	1.466930	-0.611680
H188	H	0.354400	1.323730	-0.490637
N189	N	0.590463	0.611972	0.528626
H190	H	0.594038	0.566398	0.611920
H191	H	0.570925	0.595037	0.490877
N192	N	0.522744	0.449916	0.698780
H193	H	0.537343	0.503525	0.676116
H194	H	0.552051	0.353374	0.745723
H195	H	0.143268	1.610661	-0.485813
H196	H	0.223524	1.434261	-0.108008
N197	N	0.419190	0.884796	-0.501006
H198	H	0.419050	0.886075	-0.571799
H199	H	0.382549	0.930885	-0.500493
N200	N	0.402692	0.583529	0.301310
H201	H	0.418245	0.503384	0.300441
H202	H	0.402653	0.654302	0.231698
N203	N	0.140575	1.724624	-0.707809
H204	H	0.108645	1.748042	-0.684458
H205	H	0.140596	1.690706	-0.754575
H206	H	0.500503	0.317898	0.500937
N207	N	0.566187	0.421864	0.499200
H208	H	0.565846	0.492528	0.428802
H209	H	0.581696	0.341284	0.499029
N210	N	0.566108	0.422243	0.095715
H211	H	0.581563	0.342235	0.176777
H212	H	0.565680	0.493435	0.094571
H213	H	0.372579	0.599063	-0.083083
N214	N	0.402616	0.583681	0.131902
H215	H	0.365754	0.618742	0.097709
H216	H	0.403144	0.653203	0.131996
H217	H	0.321864	0.800603	0.108130
N218	N	0.506133	0.288200	0.227530
H219	H	0.484723	0.310784	0.274445
H220	H	0.542782	0.254260	0.261933
H221	H	0.241605	0.800578	0.108167
H222	H	0.065178	0.681440	0.167765
N223	N	0.158447	0.649974	0.183476
H224	H	0.154879	0.574527	0.221205
H225	H	0.177991	0.644777	0.243348
N226	N	-0.204916	0.769033	0.123962
H227	H	-0.208482	0.693582	0.161688
H228	H	-0.185374	0.763837	0.183836
N229	N	-0.233105	1.383324	-0.183191
H230	H	-0.229540	1.458774	-0.220919
H231	H	-0.252637	1.388509	-0.128502
H232	H	-0.396533	1.232718	-0.107900
H233	H	-0.087359	1.351884	-0.167470
H234	H	-0.316274	1.232735	-0.107899
H235	H	0.782071	0.422627	0.108226
H236	H	-0.007096	1.351887	-0.167457
N237	N	0.130241	1.264281	-0.123730
H238	H	0.133803	1.339738	-0.161470
H239	H	0.110706	1.269475	-0.069047
N240	N	0.402463	1.280591	-0.698540
H241	H	0.417512	1.328227	-0.698887
H242	H	0.365654	1.327025	-0.699033
N243	N	0.222217	1.264289	-0.123735
H244	H	0.239372	1.269586	-0.069110
H245	H	0.184312	1.339680	-0.161465
N246	N	0.025717	0.649953	0.183508
H247	H	0.022149	0.574506	0.221236
H248	H	0.045262	0.644754	0.243380
H249	H	-0.139835	1.351856	-0.167469
N250	N	0.506148	1.148431	-0.498687
H251	H	0.543030	1.101333	-0.497621
H252	H	0.505625	1.148633	-0.428638
