data_functionalizedCrystal
_audit_creation_method	'MofGen! by Chris Wilmer'
_symmetry_space_group_name_H-M	'P1'
_symmetry_Int_Tables_number	1
_symmetry_cell_setting	triclinic
loop_
_symmetry_equiv_pos_as_xyz
  x,y,z
_cell_length_a	18.050591
_cell_length_b	18.050589
_cell_length_c	18.050583
_cell_angle_alpha	90.034532
_cell_angle_beta	89.977979
_cell_angle_gamma	89.968079
loop_
_atom_site_label
_atom_site_type_symbol
_atom_site_fract_x
_atom_site_fract_y
_atom_site_fract_z
Zn1	Zn	1.135261	0.295685	-0.420040
Zn2	Zn	1.135153	0.419898	-0.295854
Zn3	Zn	1.011078	0.295718	-0.295852
Zn4	Zn	1.011011	0.419829	-0.419990
O5	O	1.073126	0.357783	-0.357934
O6	O	1.239171	0.312178	-0.403589
O7	O	1.118676	0.403468	-0.191929
O8	O	1.027624	0.191789	-0.312346
O9	O	1.239091	0.403436	-0.312350
O10	O	1.118861	0.191765	-0.403587
O11	O	1.027519	0.312233	-0.191927
O12	O	0.907144	0.312166	-0.312296
O13	O	1.027511	0.403319	-0.523921
O14	O	0.907096	0.403351	-0.403500
O15	O	1.118797	0.312111	-0.523958
O16	O	1.118612	0.523814	-0.312301
O17	O	1.027406	0.523763	-0.403503
C18	C	0.880174	0.357755	-0.357893
C19	C	0.797628	0.357761	-0.357893
C20	C	1.073010	0.550735	-0.357913
C21	C	1.073029	0.633281	-0.357929
C22	C	1.073158	0.357703	-0.551640
C23	C	1.073172	0.357670	-0.634185
C24	C	0.598182	0.308118	-0.308411
C25	C	0.548753	0.375858	-0.290137
C26	C	0.646497	0.357784	-0.357926
C27	C	0.548845	0.290067	-0.376199
C28	C	0.500512	0.357799	-0.357958
C29	C	0.598155	0.425560	-0.339617
C30	C	0.598252	0.339723	-0.425711
C31	C	0.548845	0.407510	-0.407462
C32	C	0.730596	0.357774	-0.357907
C33	C	0.416416	0.357817	-0.357977
C34	C	1.266831	0.357811	-0.357976
C35	C	1.349377	0.357823	-0.357993
C36	C	1.023481	0.882106	-0.407526
C37	C	1.091203	0.832637	-0.425757
C38	C	1.073150	0.930401	-0.357972
C39	C	1.005372	0.832788	-0.339754
C40	C	1.073087	0.784416	-0.357952
C41	C	1.140908	0.882020	-0.376238
C42	C	1.055031	0.882175	-0.290204
C43	C	1.122800	0.832729	-0.308409
C44	C	1.073185	1.014499	-0.357985
C45	C	1.073059	0.700319	-0.357939
C46	C	1.073234	1.164077	-0.357973
C47	C	1.073209	1.081531	-0.357993
C48	C	1.122863	0.308047	-0.833657
C49	C	1.055132	0.289866	-0.883044
C50	C	1.073202	0.357657	-0.785316
C51	C	1.140961	0.375791	-0.883011
C52	C	1.073237	0.357643	-0.931301
C53	C	1.005435	0.339441	-0.833616
C54	C	1.091309	0.425397	-0.833578
C55	C	1.023532	0.407242	-0.882943
C56	C	1.073183	0.357663	-0.701218
C57	C	1.073248	0.357637	-1.015398
C58	C	1.073136	0.357808	-0.164982
C59	C	1.073266	0.357633	-0.082436
H60	H	0.619845	0.266162	-0.266491
C61	C	0.876068	0.370256	-0.829917
C62	C	0.928075	0.318634	-0.804455
H63	H	0.828312	0.357411	-0.811909
H64	H	0.875609	0.370140	-0.882535
H65	H	0.889006	0.418227	-0.812564
H66	H	0.915140	0.270664	-0.821813
H67	H	0.928532	0.318743	-0.751826
H68	H	0.620010	0.324414	-0.483004
C69	C	1.125457	0.550274	-0.863978
C70	C	1.111998	0.502717	-0.804218
H71	H	1.138239	0.598006	-0.845850
H72	H	1.082166	0.553809	-0.893665
H73	H	1.165102	0.531264	-0.892941
H74	H	1.072349	0.521724	-0.775259
H75	H	1.155294	0.499184	-0.774519
C76	C	1.270184	0.344487	-0.887416
C77	C	1.218296	0.396511	-0.912299
H78	H	1.317927	0.357278	-0.905493
H79	H	1.256992	0.296708	-0.905083
H80	H	1.270828	0.344203	-0.834794
H81	H	1.217647	0.396791	-0.964921
H82	H	1.231491	0.444303	-0.894636
H83	H	0.527012	0.391146	-0.232826
C84	C	0.544514	0.160832	-0.345103
C85	C	0.519605	0.212751	-0.397052
H86	H	0.526468	0.113100	-0.357977
H87	H	0.526835	0.174008	-0.297308
H88	H	0.597137	0.160169	-0.344804
H89	H	0.466982	0.213418	-0.397347
H90	H	0.537280	0.199571	-0.444859
C91	C	0.579718	0.499580	-0.498307
C92	C	0.519778	0.464282	-0.464007
H93	H	0.561770	0.534633	-0.533209
H94	H	0.609373	0.463788	-0.523028
H95	H	0.608654	0.524270	-0.461945
H96	H	0.490845	0.439587	-0.500368
H97	H	0.490110	0.500080	-0.439285
H98	H	0.619726	0.482850	-0.324112
C99	C	0.933012	0.760955	-0.254369
C100	C	0.928031	0.803589	-0.318958
H101	H	0.885265	0.742927	-0.241539
H102	H	0.951652	0.790662	-0.215137
H103	H	0.965491	0.720353	-0.262633
H104	H	0.895557	0.844194	-0.310692
H105	H	0.909382	0.773880	-0.358198
H106	H	0.981557	0.903784	-0.449472
H107	H	1.198217	0.903557	-0.391704
C108	C	1.059812	0.828176	-0.554927
C109	C	1.111862	0.803257	-0.503108
H110	H	1.072561	0.810034	-0.602680
H111	H	1.059546	0.880790	-0.555606
H112	H	1.012030	0.810590	-0.541643
H113	H	1.159644	0.820847	-0.516389
H114	H	1.112136	0.750631	-0.502431
H115	H	1.039827	0.232573	-0.904772
C116	C	0.967697	0.463819	-0.989556
C117	C	0.966795	0.463866	-0.911988
H118	H	0.932671	0.498776	-1.007487
H119	H	0.955258	0.415842	-1.007233
H120	H	1.015773	0.476822	-1.006552
H121	H	0.918720	0.450857	-0.894991
H122	H	0.979229	0.511854	-0.894303
H123	H	1.164824	0.811185	-0.266494
C124	C	1.143037	0.198709	-0.760697
C125	C	1.179465	0.251381	-0.804429
H126	H	1.177980	0.163729	-0.742649
H127	H	1.106781	0.173926	-0.789667
H128	H	1.119656	0.222750	-0.720109
H129	H	1.202842	0.227340	-0.845021
H130	H	1.215734	0.276166	-0.775458
C131	C	0.970542	0.955423	-0.218053
C132	C	1.034347	0.911579	-0.212873
H133	H	0.957770	0.973580	-0.170313
H134	H	0.930899	0.926494	-0.237006
H135	H	0.979691	0.995936	-0.250345
H136	H	1.025196	0.871062	-0.180585
H137	H	1.073998	0.940509	-0.193910
