data_functionalizedCrystal
_audit_creation_method	'MofGen! by Chris Wilmer'
_symmetry_space_group_name_H-M	'P1'
_symmetry_Int_Tables_number	1
_symmetry_cell_setting	triclinic
loop_
_symmetry_equiv_pos_as_xyz
  x,y,z
_cell_length_a	23.532355
_cell_length_b	23.532407
_cell_length_c	16.776229
_cell_angle_alpha	89.988688
_cell_angle_beta	89.998671
_cell_angle_gamma	82.838088
loop_
_atom_site_label
_atom_site_type_symbol
_atom_site_fract_x
_atom_site_fract_y
_atom_site_fract_z
O1	O	0.755281	0.068995	-0.066188
O2	O	1.088614	0.402329	0.267146
O3	O	1.421947	0.735662	0.600479
O4	O	0.589413	0.079030	-0.066214
O5	O	0.922746	0.412363	0.267119
O6	O	1.256080	0.745696	0.600452
O7	O	0.677349	-0.008920	-0.066186
O8	O	1.010682	0.324413	0.267148
O9	O	1.344015	0.657747	0.600481
O10	O	0.667345	0.156945	-0.066216
O11	O	1.000679	0.490278	0.267117
O12	O	1.334012	0.823612	0.600450
O13	O	0.677337	-0.008925	0.066391
O14	O	1.010670	0.324408	0.399724
O15	O	1.344004	0.657741	0.733057
O16	O	0.589402	0.079024	0.066362
O17	O	0.922735	0.412358	0.399696
O18	O	1.256068	0.745691	0.733029
O19	O	0.755269	0.068990	0.066389
O20	O	1.088602	0.402323	0.399722
O21	O	1.421936	0.735657	0.733055
Zn22	Zn	0.672333	0.074006	0.087425
Zn23	Zn	1.005667	0.407340	0.420758
Zn24	Zn	1.339000	0.740673	0.754091
Zn25	Zn	0.672349	0.074013	-0.087250
Zn26	Zn	1.005682	0.407347	0.246083
Zn27	Zn	1.339015	0.740680	0.579416
O28	O	0.667334	0.156940	0.066360
O29	O	1.000667	0.490273	0.399693
O30	O	1.334000	0.823606	0.733027
C31	C	0.568191	0.078776	0.000071
C32	C	0.901524	0.412109	0.333404
C33	C	1.234857	0.745443	0.666737
C34	C	0.504972	0.078022	0.000061
C35	C	0.838305	0.411355	0.333395
C36	C	1.171639	0.744689	0.666728
C37	C	0.112952	0.073281	0.072363
C38	C	0.446285	0.406614	0.405696
C39	C	0.779619	0.739948	0.739030
C40	C	0.053553	0.072564	0.072366
C41	C	0.386886	0.405897	0.405700
C42	C	0.720219	0.739230	0.739033
O43	O	0.022829	0.072171	0.133826
O44	O	0.356162	0.405504	0.467159
O45	O	0.689495	0.738837	0.800493
N46	N	0.023850	0.072211	0.000099
N47	N	0.357184	0.405544	0.333432
N48	N	0.690517	0.738877	0.666766
C49	C	0.053552	0.072570	-0.072176
C50	C	0.386885	0.405903	0.261157
C51	C	0.720218	0.739236	0.594491
O52	O	0.022833	0.072203	-0.133644
O53	O	0.356167	0.405536	0.199689
O54	O	0.689500	0.738870	0.533022
C55	C	0.112950	0.073283	-0.072178
C56	C	0.446284	0.406616	0.261155
C57	C	0.779617	0.739950	0.594488
C58	C	0.142649	0.073641	0.000093
C59	C	0.475982	0.406975	0.333427
C60	C	0.809315	0.740308	0.666760
C61	C	0.142650	0.073639	0.144629
C62	C	0.475984	0.406972	0.477962
C63	C	0.809317	0.740306	0.811296
C64	C	0.202046	0.074357	0.144625
C65	C	0.535379	0.407691	0.477959
C66	C	0.868712	0.741024	0.811292
C67	C	0.231742	0.074718	0.072356
C68	C	0.565076	0.408051	0.405689
C69	C	0.898409	0.741385	0.739023
C70	C	0.202044	0.074360	0.000090
C71	C	0.535377	0.407693	0.333423
C72	C	0.868711	0.741027	0.666757
C73	C	0.142651	0.073638	-0.144453
C74	C	0.475984	0.406971	0.188881
C75	C	0.809318	0.740304	0.522214
C76	C	0.202054	0.074351	-0.144449
C77	C	0.535387	0.407684	0.188885
C78	C	0.868721	0.741017	0.522218
C79	C	0.231752	0.074709	-0.072177
C80	C	0.565086	0.408042	0.261156
C81	C	0.898419	0.741376	0.594490
C82	C	0.291136	0.075439	-0.072183
C83	C	0.624469	0.408772	0.261150
C84	C	0.957802	0.742106	0.594484
N85	N	0.320838	0.075792	0.000084
N86	N	0.654171	0.409125	0.333417
N87	N	0.987505	0.742458	0.666751
C88	C	0.291141	0.075431	0.072354
C89	C	0.624475	0.408765	0.405687
C90	C	0.957808	0.742098	0.739020
C91	C	-0.071190	0.071070	-0.072165
C92	C	0.262143	0.404404	0.261168
C93	C	0.595477	0.737737	0.594501
C94	C	-0.130588	0.070361	-0.072164
C95	C	0.202745	0.403695	0.261169
C96	C	0.536078	0.737028	0.594503
C97	C	-0.130583	0.070354	0.072379
C98	C	0.202750	0.403688	0.405712
C99	C	0.536084	0.737021	0.739045
C100	C	-0.071184	0.071068	0.072376
C101	C	0.262149	0.404401	0.405710
C102	C	0.595482	0.737734	0.739043
C103	C	-0.041488	0.071423	0.000102
C104	C	0.291846	0.404757	0.333435
C105	C	0.625179	0.738090	0.666768
C106	C	0.415875	0.076941	0.072341
C107	C	0.749209	0.410274	0.405674
C108	C	1.082542	0.743607	0.739007
C109	C	0.475275	0.077662	0.072331
C110	C	0.808609	0.410995	0.405664
C111	C	1.141942	0.744328	0.738997
C112	C	0.475265	0.077665	-0.072211
C113	C	0.808599	0.410999	0.261122
C114	C	1.141932	0.744332	0.594455
C115	C	0.415870	0.076948	-0.072202
C116	C	0.749203	0.410281	0.261132
C117	C	1.082537	0.743614	0.594465
C118	C	0.386177	0.076583	0.000081
C119	C	0.719510	0.409917	0.333414
C120	C	1.052843	0.743250	0.666747
O121	O	0.321898	0.075830	-0.133612
O122	O	0.655231	0.409163	0.199722
O123	O	0.988564	0.742497	0.533055
O124	O	0.321868	0.075790	0.133812
O125	O	0.655201	0.409124	0.467145
O126	O	0.988534	0.742457	0.800478
C127	C	0.677088	-0.030139	0.000105
C128	C	1.010421	0.303195	0.333438
C129	C	1.343755	0.636528	0.666771
C130	C	0.676322	-0.093356	0.000111
C131	C	1.009656	0.239978	0.333444
C132	C	1.342989	0.573311	0.666777
C133	C	0.723557	-0.492468	0.000074
C134	C	1.056890	-0.159134	0.333408
C135	C	1.390224	0.174199	0.666741
C136	C	0.722845	-0.551868	0.000068
C137	C	1.056179	-0.218534	0.333402
C138	C	1.389512	0.114799	0.666735
O139	O	0.766632	-0.588620	0.000046
O140	O	1.099966	-0.255287	0.333379
O141	O	1.433299	0.078046	0.666713
N142	N	0.670568	-0.574484	0.000061
N143	N	1.003901	-0.241151	0.333394
N144	N	1.337234	0.092183	0.666727
C145	C	0.618998	-0.537697	0.000051
C146	C	0.952332	-0.204364	0.333384
C147	C	1.285665	0.128970	0.666717
O148	O	0.574467	-0.562388	0.000043
O149	O	0.907800	-0.229055	0.333376
O150	O	1.241133	0.104278	0.666710
C151	C	0.619710	-0.478298	0.000051
C152	C	0.953044	-0.144965	0.333385
C153	C	1.286377	0.188369	0.666718
C154	C	0.671991	-0.455685	0.000067
C155	C	1.005325	-0.122352	0.333400
C156	C	1.338658	0.210982	0.666734
C157	C	0.775834	-0.469854	0.000089
C158	C	1.109167	-0.136521	0.333423
C159	C	1.442500	0.196813	0.666756
C160	C	0.776545	-0.410458	0.000097
C161	C	1.109878	-0.077125	0.333430
C162	C	1.443212	0.256209	0.666764
C163	C	0.724979	-0.373676	0.000090
C164	C	1.058313	-0.040342	0.333423
C165	C	1.391646	0.292991	0.666756
C166	C	0.672703	-0.396289	0.000075
C167	C	1.006036	-0.062956	0.333408
C168	C	1.339369	0.270378	0.666741
C169	C	0.568141	-0.441512	0.000036
C170	C	0.901475	-0.108179	0.333369
C171	C	1.234808	0.225155	0.666702
C172	C	0.568858	-0.382110	0.000036
C173	C	0.902191	-0.048776	0.333369
C174	C	1.235525	0.284557	0.666702
C175	C	0.621139	-0.359497	0.000052
C176	C	0.954472	-0.026163	0.333385
C177	C	1.287806	0.307170	0.666718
C178	C	0.621848	-0.300110	0.000075
C179	C	0.955182	0.033223	0.333408
C180	C	1.288515	0.366556	0.666742
N181	N	0.674126	-0.277494	0.000083
N182	N	1.007459	0.055839	0.333416
N183	N	1.340793	0.389173	0.666750
C184	C	0.725691	-0.314277	0.000090
C185	C	1.059025	0.019057	0.333424
C186	C	1.392358	0.352390	0.666757
C187	C	0.617507	-0.662439	0.000048
C188	C	0.950840	-0.329106	0.333382
C189	C	1.284173	0.004228	0.666715
C190	C	0.616794	-0.721837	0.000054
C191	C	0.950127	-0.388504	0.333387
C192	C	1.283461	-0.055170	0.666720
C193	C	0.720642	-0.736004	0.000070
C194	C	1.053975	-0.402670	0.333403
C195	C	1.387308	-0.069337	0.666736
C196	C	0.721354	-0.676605	0.000070
C197	C	1.054687	-0.343271	0.333403
C198	C	1.388020	-0.009938	0.666737
C199	C	0.669784	-0.639823	0.000056
C200	C	1.003118	-0.306489	0.333390
C201	C	1.336451	0.026844	0.666723
C202	C	0.727181	-0.189540	0.000107
C203	C	1.060514	0.143793	0.333440
C204	C	1.393848	0.477127	0.666774
C205	C	0.727888	-0.130138	0.000118
C206	C	1.061221	0.203195	0.333451
C207	C	1.394554	0.536528	0.666785
C208	C	0.624041	-0.115977	0.000098
C209	C	0.957374	0.217357	0.333431
C210	C	1.290707	0.550690	0.666764
C211	C	0.623334	-0.175373	0.000091
C212	C	0.956667	0.157960	0.333424
C213	C	1.290000	0.491293	0.666758
C214	C	0.674909	-0.212154	0.000093
C215	C	1.008242	0.121179	0.333426
C216	C	1.341575	0.454512	0.666760
O217	O	0.578084	-0.263323	0.000094
O218	O	0.911418	0.070010	0.333428
O219	O	1.244751	0.403344	0.666761
O220	O	0.770216	-0.289577	0.000088
O221	O	1.103549	0.043756	0.333421
O222	O	1.436882	0.377090	0.666754
C223	C	0.776491	0.069244	0.000102
C224	C	1.109825	0.402577	0.333435
C225	C	1.443158	0.735910	0.666769
C226	C	0.839710	0.069998	0.000106
C227	C	1.173043	0.403331	0.333439
C228	C	1.506377	0.736664	0.666773
C229	C	0.667594	0.178158	0.000068
C230	C	1.000927	0.511492	0.333401
C231	C	1.334261	0.844825	0.666735
C232	C	0.668360	0.241375	0.000057
C233	C	1.001693	0.574709	0.333390
C234	C	1.335027	0.908042	0.666723
N235	N	0.672327	0.074001	0.206636
N236	N	1.005661	0.407334	0.539969
N237	N	1.338994	0.740668	0.873303
N238	N	0.672360	0.074014	-0.206462
N239	N	1.005693	0.407347	0.126872
N240	N	1.339026	0.740681	0.460205
C241	C	0.711277	0.035073	0.248366
C242	C	1.044610	0.368406	0.581699
C243	C	1.377943	0.701740	0.915032
C244	C	0.711280	0.035072	0.331818
C245	C	1.044613	0.368406	0.665151
C246	C	1.377947	0.701739	0.998485
C247	C	0.672336	0.074003	0.373539
C248	C	1.005669	0.407337	0.706872
C249	C	1.339003	0.740670	1.040206
C250	C	0.633382	0.112933	0.331803
C251	C	0.966715	0.446267	0.665137
C252	C	1.300049	0.779600	0.998470
C253	C	0.633377	0.112931	0.248353
C254	C	0.966710	0.446264	0.581686
C255	C	1.300043	0.779597	0.915019
C256	C	0.633403	0.112945	0.668351
C257	C	0.966736	0.446278	1.001684
C258	C	1.300069	0.779611	1.335017
C259	C	0.633412	0.112945	0.751807
C260	C	0.966746	0.446279	1.085140
C261	C	1.300079	0.779612	1.418474
C262	C	0.711306	0.035086	0.751816
C263	C	1.044639	0.368419	1.085149
C264	C	1.377973	0.701753	1.418483
C265	C	0.711301	0.035083	0.668365
C266	C	1.044634	0.368417	1.001699
C267	C	1.377967	0.701750	1.335032
C268	C	0.672345	0.074011	0.626637
C269	C	1.005678	0.407345	0.959970
C270	C	1.339012	0.740678	1.293304
C271	C	0.672341	0.074011	0.536149
C272	C	1.005675	0.407344	0.869482
C273	C	1.339008	0.740677	1.202815
C274	C	0.672342	0.074007	0.464026
C275	C	1.005675	0.407340	0.797359
C276	C	1.339008	0.740674	1.130692
H277	H	0.391705	0.076649	0.131200
H278	H	0.725039	0.409982	0.464533
H279	H	1.058372	0.743316	0.797867
Br280	Br	0.554062	-0.066047	0.000088
Br281	Br	0.887396	0.267287	0.333421
Br282	Br	1.220729	0.600620	0.666755
Br283	Br	0.764175	-0.017747	0.808451
Br284	Br	1.097508	0.315587	1.141784
Br285	Br	1.430841	0.648920	1.475117
Br286	Br	0.764137	-0.017761	0.191753
Br287	Br	1.097470	0.315572	0.525087
Br288	Br	1.430804	0.648906	0.858420
H289	H	0.118481	0.073345	-0.203304
H290	H	0.451814	0.406678	0.130029
H291	H	0.785148	0.740012	0.463362
Br292	Br	0.580556	0.165784	0.808429
Br293	Br	0.913890	0.499118	1.141762
Br294	Br	1.247223	0.832451	1.475095
H295	H	0.743014	0.003384	0.634399
H296	H	1.076348	0.336718	0.967732
H297	H	1.409681	0.670051	1.301065
Br298	Br	0.242353	0.074830	-0.242541
Br299	Br	0.575687	0.408164	0.090792
Br300	Br	0.909020	0.741497	0.424125
H301	H	0.118478	0.073344	0.203483
H302	H	0.451811	0.406678	0.536816
H303	H	0.785144	0.740011	0.870149
H304	H	0.762629	-0.765963	0.000073
H305	H	1.095962	-0.432630	0.333406
H306	H	1.429296	-0.099296	0.666739
H307	H	0.499453	0.077955	0.131186
H308	H	0.832786	0.411289	0.464519
H309	H	1.166119	0.744622	0.797852
Br310	Br	0.375562	0.076473	-0.170285
Br311	Br	0.708895	0.409806	0.163048
Br312	Br	1.042229	0.743139	0.496381
H313	H	0.742995	0.003374	0.365794
H314	H	1.076329	0.336707	0.699127
H315	H	1.409662	0.670040	1.032461
H316	H	0.499455	0.077961	-0.131051
H317	H	0.832788	0.411295	0.202282
H318	H	1.166121	0.744628	0.535615
H319	H	0.601685	0.144642	0.634382
H320	H	0.935018	0.477975	0.967715
H321	H	1.268352	0.811309	1.301049
H322	H	0.575510	-0.632494	0.000044
H323	H	0.908844	-0.299160	0.333377
H324	H	1.242177	0.034173	0.666711
H325	H	-0.154773	0.070060	0.131224
H326	H	0.178561	0.403393	0.464558
H327	H	0.511894	0.736726	0.797891
H328	H	0.601670	0.144630	0.365777
H329	H	0.935004	0.477963	0.699111
H330	H	1.268337	0.811297	1.032444
H331	H	0.601659	0.144629	0.214377
H332	H	0.934993	0.477963	0.547710
H333	H	1.268326	0.811296	0.881044
H334	H	-0.047008	0.071360	0.131226
H335	H	0.286326	0.404693	0.464560
H336	H	0.619659	0.738027	0.797893
Br337	Br	0.242342	0.074842	0.242714
Br338	Br	0.575675	0.408175	0.576047
Br339	Br	0.909008	0.741508	0.909381
H340	H	-0.154765	0.070078	-0.131015
H341	H	0.178568	0.403412	0.202318
H342	H	0.511902	0.736745	0.535652
Br343	Br	-0.030894	0.071558	-0.170262
Br344	Br	0.302439	0.404892	0.163071
Br345	Br	0.635772	0.738225	0.496405
H346	H	0.770463	-0.111731	0.000133
H347	H	1.103796	0.221603	0.333466
H348	H	1.437130	0.554936	0.666800
H349	H	0.769178	-0.219481	0.000105
H350	H	1.102512	0.113853	0.333439
H351	H	1.435845	0.447186	0.666772
H352	H	0.817827	-0.499797	0.000092
H353	H	1.151160	-0.166464	0.333426
H354	H	1.484494	0.166869	0.666759
Br355	Br	0.847502	-0.379779	0.000096
Br356	Br	1.180835	-0.046446	0.333429
Br357	Br	1.514168	0.286888	0.666763
H358	H	0.525569	-0.459912	0.000018
H359	H	0.858902	-0.126579	0.333351
H360	H	1.192235	0.206754	0.666685
H361	H	0.574222	-0.740243	0.000055
H362	H	0.907555	-0.406909	0.333388
H363	H	1.240888	-0.073576	0.666721
Br364	Br	0.792309	-0.645922	0.000093
Br365	Br	1.125642	-0.312589	0.333427
Br366	Br	1.458975	0.020744	0.666760
H367	H	0.526863	-0.352164	0.000023
H368	H	0.860196	-0.018830	0.333356
H369	H	1.193530	0.314503	0.666690
H370	H	0.580762	-0.193785	0.000100
H371	H	0.914096	0.139548	0.333434
H372	H	1.247429	0.472881	0.666767
