data_functionalizedCrystal
_audit_creation_method	'MofGen! by Chris Wilmer'
_symmetry_space_group_name_H-M	'P1'
_symmetry_Int_Tables_number	1
_symmetry_cell_setting	triclinic
loop_
_symmetry_equiv_pos_as_xyz
  x,y,z
_cell_length_a	12.811353
_cell_length_b	12.837942
_cell_length_c	11.295483
_cell_angle_alpha	85.469583
_cell_angle_beta	91.292377
_cell_angle_gamma	90.588917
loop_
_atom_site_label
_atom_site_type_symbol
_atom_site_fract_x
_atom_site_fract_y
_atom_site_fract_z
O1	O	1.403260	-0.143346	0.052600
O2	O	1.101296	-0.156251	0.019970
O3	O	1.245582	0.001184	0.035568
O4	O	1.258974	-0.300780	0.037001
O5	O	1.232907	-0.012623	0.232249
O6	O	1.088621	-0.170057	0.216650
O7	O	1.390585	-0.157152	0.249280
Cu8	Cu	1.238446	-0.164865	0.250924
Cu9	Cu	1.253435	-0.148538	0.018326
O10	O	1.246299	-0.314587	0.233681
C11	C	1.056039	-0.162008	0.114104
C12	C	0.940073	-0.158582	0.101573
C13	C	1.234720	0.032955	0.133419
C14	C	1.221228	0.148193	0.131959
C15	C	1.435842	-0.151395	0.155143
C16	C	1.551808	-0.154820	0.167666
C17	C	1.708363	-0.167181	0.292507
C18	C	1.599401	-0.163957	0.280756
C19	C	1.613186	-0.148903	0.066320
C20	C	1.722148	-0.152127	0.078072
C21	C	1.769732	-0.161268	0.191169
C22	C	1.878696	-0.164499	0.202919
C23	C	1.892479	-0.149438	-0.011515
C24	C	1.783517	-0.146214	-0.023267
C25	C	1.257161	-0.346358	0.135828
C26	C	1.270653	-0.461595	0.137280
N27	N	1.227910	-0.176349	0.414521
C28	C	1.383432	0.387222	0.149462
C29	C	1.370759	0.495498	0.148090
C30	C	1.183213	0.473026	0.127837
C31	C	1.195885	0.364749	0.129208
C32	C	1.295998	0.321851	0.140023
C33	C	1.308668	0.213572	0.141402
C34	C	1.121124	0.191102	0.121140
C35	C	1.108452	0.299379	0.119769
N36	N	1.263978	-0.137046	-0.145270
C37	C	1.339813	-0.054325	0.675908
C38	C	1.331859	-0.063010	0.799712
C39	C	1.204044	-0.202399	0.785934
C40	C	1.211998	-0.193714	0.662130
C41	C	1.279886	-0.119675	0.607122
C42	C	1.287844	-0.110996	0.483316
C43	C	1.160024	-0.250379	0.469540
C44	C	1.152071	-0.259064	0.593344
H45	H	1.917437	-0.171948	0.295009
H46	H	1.747106	-0.174637	0.384595
O47	O	1.539939	-0.169763	0.379318
C48	C	1.605310	-0.178493	0.481654
H49	H	1.683943	-0.211369	0.458483
H50	H	1.617464	-0.098070	0.516164
C51	C	1.457501	-0.211878	0.606584
C52	C	1.554076	-0.252265	0.578126
H53	H	1.425897	-0.257379	0.666095
H54	H	1.413458	-0.205992	0.537639
H55	H	1.467643	-0.144859	0.635335
H56	H	1.543931	-0.319275	0.549362
H57	H	1.598116	-0.258164	0.647069
H58	H	1.026943	0.334322	0.110960
O59	O	1.086037	0.514846	0.117175
C60	C	1.079660	0.583926	0.013892
H61	H	1.161370	0.612269	-0.011480
H62	H	1.042857	0.541656	-0.061903
C63	C	0.911678	0.643386	0.068896
C64	C	1.012034	0.678204	0.037739
H65	H	0.869959	0.701539	0.083602
H66	H	0.915971	0.596843	0.138477
H67	H	0.881022	0.608161	0.005727
H68	H	1.042693	0.713416	0.100912
H69	H	1.007744	0.724755	-0.031832
H70	H	1.049928	0.137864	0.113464
O71	O	1.952042	-0.143871	-0.110001
C72	C	1.926685	-0.228176	-0.178430
H73	H	1.890672	-0.294378	-0.119147
H74	H	1.868388	-0.201332	-0.252028
C75	C	2.070615	-0.185788	-0.306649
C76	C	2.026391	-0.267103	-0.233835
H77	H	2.132117	-0.209798	-0.340832
H78	H	2.087697	-0.128988	-0.260551
H79	H	2.022025	-0.163426	-0.367972
H80	H	2.074976	-0.289455	-0.172506
H81	H	2.009320	-0.323908	-0.279925
O82	O	1.567013	-0.139843	-0.043561
C83	C	1.600753	-0.046382	-0.105616
H84	H	1.628701	0.011018	-0.039436
H85	H	1.667643	-0.063844	-0.165716
C86	C	1.475172	-0.068742	-0.262897
C87	C	1.509491	0.001762	-0.181613
H88	H	1.418880	-0.039046	-0.309781
H89	H	1.452443	-0.131710	-0.221093
H90	H	1.530923	-0.083287	-0.312969
H91	H	1.453745	0.016295	-0.131534
H92	H	1.532209	0.064734	-0.223411
H93	H	1.148764	-0.262673	0.830737
O94	O	1.086041	-0.331004	0.646590
C95	C	1.034874	-0.386840	0.559327
H96	H	1.035147	-0.338086	0.470491
H97	H	1.077232	-0.463437	0.550642
C98	C	0.921059	-0.470102	0.704851
C99	C	0.921386	-0.410218	0.595743
H100	H	0.851056	-0.484528	0.727315
H101	H	0.955533	-0.432488	0.763643
H102	H	0.956363	-0.533926	0.697599
H103	H	0.886095	-0.346390	0.603000
H104	H	0.886903	-0.447822	0.536952
H105	H	1.744759	-0.138767	-0.115347
H106	H	1.111231	-0.303594	0.413520
H107	H	1.390184	0.178646	0.150213
H108	H	1.464946	0.352293	0.158279
O109	O	1.353660	-0.038917	0.429944
C110	C	1.324548	0.061888	0.457330
H111	H	1.238815	0.061012	0.482338
H112	H	1.374684	0.086599	0.535121
C113	C	1.446134	0.140878	0.317664
C114	C	1.340832	0.139805	0.348369
H115	H	1.456182	0.188942	0.250455
H116	H	1.465750	0.072964	0.299216
H117	H	1.487902	0.161468	0.382499
H118	H	1.299067	0.119203	0.283541
H119	H	1.321209	0.207717	0.366804
O120	O	1.455800	0.558847	0.157327
C121	C	1.546875	0.497762	0.167133
H122	H	1.526020	0.414673	0.202378
H123	H	1.583131	0.496319	0.076033
C124	C	1.651173	0.647276	0.210006
C125	C	1.625559	0.545226	0.253305
H126	H	1.699711	0.676556	0.263157
H127	H	1.589814	0.688432	0.203396
H128	H	1.681380	0.646060	0.134091
H129	H	1.595341	0.546445	0.329212
H130	H	1.686914	0.504072	0.259930
O131	O	1.405640	0.017718	0.622493
C132	C	1.376588	0.118556	0.649823
H133	H	1.290863	0.117735	0.674862
H134	H	1.426760	0.143285	0.727577
C135	C	1.498167	0.197420	0.510066
C136	C	1.392875	0.196413	0.540810
H137	H	1.508218	0.245448	0.442825
H138	H	1.517743	0.129483	0.491656
H139	H	1.539965	0.218024	0.574871
H140	H	1.351080	0.175797	0.476012
H141	H	1.373292	0.264348	0.559207
H142	H	1.380656	-0.009795	0.855715
