data_functionalizedCrystal
_audit_creation_method	'MofGen! by Chris Wilmer'
_symmetry_space_group_name_H-M	'P1'
_symmetry_Int_Tables_number	1
_symmetry_cell_setting	triclinic
loop_
_symmetry_equiv_pos_as_xyz
  x,y,z
_cell_length_a	10.540510
_cell_length_b	10.540539
_cell_length_c	10.268362
_cell_angle_alpha	90.002580
_cell_angle_beta	89.998125
_cell_angle_gamma	95.480599
loop_
_atom_site_label
_atom_site_type_symbol
_atom_site_fract_x
_atom_site_fract_y
_atom_site_fract_z
O1	O	-0.178896	1.685869	0.108241
O2	O	-0.195753	1.316454	0.108257
O3	O	-0.002616	1.509609	0.108238
O4	O	-0.372033	1.492714	0.108260
O5	O	-0.002622	1.509591	-0.108363
O6	O	-0.195759	1.316436	-0.108344
O7	O	-0.178903	1.685850	-0.108360
Cu8	Cu	-0.187332	1.501141	-0.128129
Cu9	Cu	-0.187324	1.501163	0.128026
O10	O	-0.372040	1.492695	-0.108341
C11	C	-0.194492	1.269142	-0.000041
C12	C	-0.190710	1.128194	-0.000035
C13	C	-0.045791	0.944783	-0.000550
C14	C	-0.049624	1.091401	-0.000048
C15	C	-0.258602	1.066525	0.123653
C16	C	-0.253787	0.919981	0.123743
C17	C	-0.256665	0.919471	-0.122572
C18	C	-0.257964	1.066453	-0.124193
C19	C	-0.419340	1.493964	-0.000038
C20	C	-0.560290	1.497731	-0.000030
C21	C	-0.777746	1.363546	-0.000537
C22	C	-0.631150	1.359528	-0.000029
C23	C	-0.605063	1.568488	0.123649
C24	C	-0.751824	1.571527	0.123732
C25	C	-0.751605	1.574383	-0.122583
C26	C	-0.605263	1.567828	-0.124198
C27	C	0.044685	1.508341	-0.000062
C28	C	0.185635	1.504574	-0.000062
C29	C	-0.180164	1.733163	-0.000059
C30	C	-0.183946	1.874110	-0.000056
N31	N	-0.187336	1.501135	-0.308295
C32	C	-0.187337	1.501144	-0.426137
C33	C	-0.187326	1.501160	-0.573975
N34	N	-0.187309	1.501180	0.308192
H35	H	-0.208367	1.107413	-0.215698
H36	H	-0.576639	1.516343	-0.215695
H37	H	-0.602754	1.303865	0.088796
Br38	Br	-0.553653	1.486620	0.277083
Br39	Br	-0.526086	1.738069	0.131320
Br40	Br	-0.847671	1.273776	-0.148373
H41	H	-0.794039	1.530696	-0.216335
H42	H	-0.556190	1.668723	-0.131672
Br43	Br	-0.818877	1.490958	0.277833
Br44	Br	0.046733	0.894451	0.146451
Br45	Br	0.039650	1.160964	0.148237
H46	H	-0.773762	1.678144	-0.123430
H47	H	-0.360825	1.090668	-0.131655
H48	H	-0.774819	1.674894	0.129345
Br49	Br	-0.170145	0.872976	0.277837
H50	H	0.003796	1.134013	-0.088714
Br51	Br	-0.179991	1.137524	0.277076
Br52	Br	0.047106	0.897131	-0.148400
Br53	Br	-0.426513	0.840744	-0.123956
H54	H	-0.355253	0.872002	0.129363
Br55	Br	-0.850264	1.274330	0.146469
Br56	Br	-0.431279	1.103800	0.131370
Br57	Br	-0.180566	0.866895	-0.278839
H58	H	-0.601798	1.304155	-0.088678
