data_functionalizedCrystal
_audit_creation_method	'MofGen! by Chris Wilmer'
_symmetry_space_group_name_H-M	'P1'
_symmetry_Int_Tables_number	1
_symmetry_cell_setting	triclinic
loop_
_symmetry_equiv_pos_as_xyz
  x,y,z
_cell_length_a	14.048226
_cell_length_b	14.971475
_cell_length_c	14.971486
_cell_angle_alpha	96.388096
_cell_angle_beta	90.007287
_cell_angle_gamma	89.999545
loop_
_atom_site_label
_atom_site_type_symbol
_atom_site_fract_x
_atom_site_fract_y
_atom_site_fract_z
O1	O	0.079142	-1.186946	0.116520
O2	O	0.079148	-0.926545	0.130489
O3	O	0.079138	-1.063725	-0.006696
O4	O	0.079152	-1.049766	0.253705
O5	O	-0.079184	-1.063722	-0.006707
O6	O	-0.079173	-0.926542	0.130477
O7	O	-0.079180	-1.186943	0.116509
Zn8	Zn	-0.104313	-1.056742	0.123491
Zn9	Zn	0.104282	-1.056746	0.123506
O10	O	-0.079170	-1.049763	0.253693
C11	C	-0.000012	-0.893218	0.129860
C12	C	-0.000010	-0.793921	0.127993
N13	N	-0.246674	-1.056746	0.123481
N14	N	0.246642	-1.056749	0.123510
C15	C	-0.086312	-0.747274	0.127108
C16	C	-0.086312	-0.653976	0.125340
C17	C	-0.000010	-0.607324	0.124463
C18	C	0.086298	-0.653977	0.125346
C19	C	0.086298	-0.747275	0.127108
C20	C	0.086293	-0.459515	0.121675
C21	C	0.086294	-0.366210	0.119915
C22	C	-0.086317	-0.366215	0.119907
C23	C	-0.086317	-0.459513	0.121669
C24	C	-0.000009	-0.506160	0.122554
C25	C	0.296456	-1.117606	0.062884
C26	C	0.396114	-1.117610	0.062881
C27	C	0.445956	-1.056751	0.123500
C28	C	0.396135	-0.995892	0.184133
C29	C	0.296479	-0.995893	0.184139
C30	C	0.603849	-0.995892	0.184114
C31	C	0.703512	-0.995889	0.184106
C32	C	0.703484	-1.117608	0.062856
C33	C	0.603828	-1.117610	0.062862
C34	C	0.554014	-1.056749	0.123493
C35	C	-0.000023	-1.063099	-0.040026
C36	C	-0.000022	-1.061228	-0.139323
C37	C	-0.000016	-0.220269	0.117144
C38	C	-0.000008	-0.319564	0.119030
C39	C	-0.000024	-1.141818	-0.196552
C40	C	-0.000015	-1.140055	-0.289851
C41	C	-0.000009	-1.057701	-0.325920
C42	C	-0.000004	-0.977106	-0.268685
C43	C	-0.000007	-0.978870	-0.175387
C44	C	-0.000000	-0.973434	-0.463147
C45	C	0.000001	-0.971670	-0.556451
C46	C	-0.000008	-1.134620	-0.577611
C47	C	-0.000011	-1.136384	-0.484314
C48	C	-0.000007	-1.055788	-0.427084
C49	C	-0.000007	-1.050389	0.287024
C50	C	-0.000002	-1.052260	0.386321
H51	H	-0.156588	-0.616002	0.124604
H52	H	0.436671	-1.167164	0.013516
C53	C	-0.179947	-0.510296	0.122482
C54	C	-0.184978	-0.573860	0.046610
C55	C	-0.271211	-0.620665	0.047330
H56	H	-0.231428	-0.469262	0.121656
H57	H	-0.183539	-0.539979	0.175262
H58	H	-0.181395	-0.544178	-0.006157
H59	H	-0.133517	-0.614912	0.047420
H60	H	-0.274803	-0.650348	0.100111
H61	H	-0.322685	-0.579625	0.046507
H62	H	-0.274632	-0.663804	-0.004143
C63	C	0.180099	-0.509993	0.122687
C64	C	0.255680	-0.449168	0.121573
C65	C	0.342104	-0.495633	0.122525
H66	H	0.183827	-0.553163	0.071272
H67	H	0.183733	-0.539594	0.175519
H68	H	0.252048	-0.419582	0.068747
H69	H	0.251984	-0.405997	0.172984
H70	H	0.345739	-0.525234	0.175356
H71	H	0.345822	-0.538801	0.071109
H72	H	0.393396	-0.454369	0.121777
H73	H	0.156574	-0.785253	0.127830
C74	C	0.757756	-0.929962	0.249965
C75	C	0.815006	-0.977556	0.304868
C76	C	0.865000	-0.916854	0.365537
H77	H	0.713932	-0.893691	0.286169
H78	H	0.796676	-0.892779	0.217668
H79	H	0.776089	-1.014723	0.337162
H80	H	0.858848	-1.013824	0.268689
H81	H	0.903920	-0.879671	0.333241
H82	H	0.821169	-0.880586	0.401735
H83	H	0.903857	-0.949137	0.402790
H84	H	0.255881	-1.167160	0.013517
H85	H	0.436723	-0.946343	0.233495
H86	H	0.000005	-0.907804	-0.416552
H87	H	-0.000010	-0.904610	-0.585815
C88	C	0.242564	-0.929714	0.249997
C89	C	0.307541	-0.876398	0.303067
C90	C	0.257911	-0.815417	0.363740
H91	H	0.203693	-0.961743	0.287441
H92	H	0.203702	-0.892470	0.217706
H93	H	0.346387	-0.913637	0.335356
H94	H	0.346414	-0.844350	0.265648
H95	H	0.219048	-0.778173	0.331448
H96	H	0.219041	-0.847453	0.401177
H97	H	0.301990	-0.779229	0.399749
C98	C	-0.000077	-1.231143	-0.157222
C99	C	-0.000105	-1.215443	-0.063267
C100	C	-0.000163	-1.297709	-0.027010
H101	H	0.055118	-1.264398	-0.176754
H102	H	-0.055309	-1.264338	-0.176819
H103	H	0.055121	-1.182262	-0.043678
H104	H	-0.055296	-1.182202	-0.043710
H105	H	-0.055395	-1.330904	-0.046607
H106	H	0.055033	-1.330959	-0.046548
H107	H	-0.000191	-1.287069	0.036742
H108	H	-0.156589	-0.785251	0.127829
H109	H	-0.000019	-1.205679	-0.336444
C110	C	-0.180100	-0.315714	0.118802
C111	C	-0.232182	-0.348421	0.042348
C112	C	-0.318582	-0.301927	0.041310
H113	H	-0.167883	-0.253460	0.117575
H114	H	-0.215605	-0.324258	0.171184
H115	H	-0.196684	-0.339869	-0.010020
H116	H	-0.244424	-0.410669	0.043558
H117	H	-0.354088	-0.310471	0.093692
H118	H	-0.306356	-0.239675	0.040086
H119	H	-0.353934	-0.324118	-0.010558
H120	H	0.563247	-1.167160	0.013497
H121	H	0.156569	-0.328229	0.119202
C122	C	0.000131	-1.225732	-0.445029
C123	C	0.081570	-1.231494	-0.392055
C124	C	0.081730	-1.313784	-0.355844
H125	H	0.000180	-1.273556	-0.492382
H126	H	-0.055052	-1.229813	-0.409030
H127	H	0.136739	-1.227422	-0.428053
H128	H	0.081538	-1.183689	-0.344689
H129	H	0.026548	-1.317864	-0.319844
H130	H	0.081777	-1.361601	-0.403202
H131	H	0.136981	-1.317700	-0.319890
C132	C	0.000194	-1.222100	-0.639782
C133	C	0.081665	-1.225865	-0.693929
C134	C	0.081887	-1.306441	-0.751205
H135	H	-0.054947	-1.224887	-0.676714
H136	H	0.000238	-1.271423	-0.604967
H137	H	0.081612	-1.176556	-0.728741
H138	H	0.136819	-1.223094	-0.657021
H139	H	0.081931	-1.355763	-0.716390
H140	H	0.026743	-1.309220	-0.788131
H141	H	0.137168	-1.309010	-0.787944
C142	C	0.000151	-0.887756	-0.307967
C143	C	0.081591	-0.881996	-0.360920
C144	C	0.081756	-0.799704	-0.397129
H145	H	0.000202	-0.839933	-0.260613
H146	H	-0.055031	-0.883672	-0.343979
H147	H	0.136758	-0.886071	-0.324910
H148	H	0.081556	-0.929799	-0.408288
H149	H	0.026574	-0.795620	-0.433142
H150	H	0.081805	-0.751888	-0.349770
H151	H	0.137007	-0.795789	-0.433069
C152	C	-0.000052	-0.891274	-0.113398
C153	C	-0.000071	-0.818774	-0.164952
C154	C	-0.000119	-0.738065	-0.107880
H155	H	0.055144	-0.888452	-0.076538
H156	H	-0.055283	-0.888522	-0.076581
H157	H	0.055155	-0.821524	-0.201754
H158	H	-0.055263	-0.821566	-0.201811
H159	H	-0.055351	-0.735313	-0.071063
H160	H	0.055078	-0.735252	-0.071023
H161	H	-0.000141	-0.688864	-0.142851
C162	C	0.757527	-1.183415	-0.003275
C163	C	0.814562	-1.135626	-0.058169
C164	C	0.864303	-1.196151	-0.119208
H165	H	0.713552	-1.219545	-0.039450
H166	H	0.796573	-1.220753	0.028738
H167	H	0.775520	-1.098303	-0.090179
H168	H	0.858554	-1.099500	-0.022018
H169	H	0.903348	-1.233489	-0.087195
H170	H	0.820321	-1.232277	-0.155377
H171	H	0.903013	-1.163735	-0.156455
H172	H	0.156567	-0.615987	0.124626
C173	C	0.549936	-0.929708	0.249975
C174	C	0.614913	-0.876390	0.303042
C175	C	0.565282	-0.815401	0.363708
H176	H	0.511061	-0.961731	0.287421
H177	H	0.511077	-0.892467	0.217678
H178	H	0.653756	-0.913627	0.335337
H179	H	0.653789	-0.844347	0.265621
H180	H	0.526423	-0.778159	0.331411
H181	H	0.526410	-0.847432	0.401147
H182	H	0.609361	-0.779212	0.399715
