data_functionalizedCrystal
_audit_creation_method	'MofGen! by Chris Wilmer'
_symmetry_space_group_name_H-M	'P1'
_symmetry_Int_Tables_number	1
_symmetry_cell_setting	triclinic
loop_
_symmetry_equiv_pos_as_xyz
  x,y,z
_cell_length_a	17.077404
_cell_length_b	12.759400
_cell_length_c	17.077396
_cell_angle_alpha	89.974414
_cell_angle_beta	89.980499
_cell_angle_gamma	90.014910
loop_
_atom_site_label
_atom_site_type_symbol
_atom_site_fract_x
_atom_site_fract_y
_atom_site_fract_z
Zn1	Zn	1.200099	-0.418260	-0.443859
Zn2	Zn	1.200025	-0.593961	-0.312599
Zn3	Zn	1.068831	-0.418297	-0.312606
Zn4	Zn	1.068818	-0.593898	-0.443823
O5	O	1.134443	-0.506104	-0.378222
O6	O	1.309936	-0.441578	-0.426459
O7	O	1.182597	-0.570700	-0.202753
O8	O	1.086281	-0.271271	-0.330035
O9	O	1.309882	-0.570664	-0.330023
O10	O	1.182723	-0.271244	-0.426466
O11	O	1.086209	-0.441641	-0.202759
O12	O	0.958983	-0.441580	-0.330001
O13	O	1.086258	-0.570558	-0.553674
O14	O	0.958973	-0.570594	-0.426405
O15	O	1.182710	-0.441517	-0.553701
O16	O	1.182584	-0.740973	-0.329988
O17	O	1.086186	-0.740927	-0.426398
C18	C	0.930496	-0.506085	-0.378200
C19	C	0.843246	-0.506102	-0.378209
C20	C	0.802271	-0.573381	-0.428326
C21	C	0.720291	-0.573383	-0.428339
C22	C	0.679286	-0.506111	-0.378230
C23	C	0.720267	-0.438825	-0.328111
C24	C	0.802246	-0.438818	-0.328103
C25	C	0.549397	-0.438846	-0.328130
C26	C	0.467412	-0.438854	-0.328136
C27	C	0.467442	-0.573410	-0.428366
C28	C	0.549421	-0.573404	-0.428358
C29	C	0.590395	-0.506119	-0.378237
C30	C	1.134397	-0.779071	-0.378205
C31	C	1.134449	-0.895848	-0.378225
C32	C	1.184699	-0.950699	-0.328080
C33	C	1.184747	-1.060423	-0.328104
C34	C	1.084289	-1.060435	-0.428420
C35	C	1.084245	-0.950713	-0.428399
C36	C	1.234902	-0.895833	-0.277905
C37	C	1.285156	-0.950685	-0.227755
C38	C	1.285204	-1.060409	-0.227780
C39	C	1.234999	-1.115282	-0.277954
C40	C	1.339188	-0.506124	-0.378244
C41	C	1.426437	-0.506132	-0.378253
C42	C	1.134491	-0.506026	-0.582966
C43	C	1.134511	-0.505993	-0.670216
C44	C	1.134512	-0.232071	-0.378255
C45	C	1.134541	-0.115294	-0.378270
C46	C	1.184735	-0.438796	-0.711221
C47	C	1.184745	-0.438761	-0.793202
C48	C	1.134533	-0.505930	-0.834175
C49	C	1.084304	-0.573130	-0.793165
C50	C	1.084291	-0.573159	-0.711186
C51	C	1.084335	-0.573066	-0.964035
C52	C	1.084349	-0.573039	-1.046019
C53	C	1.184789	-0.438669	-1.046051
C54	C	1.184777	-0.438698	-0.964072
C55	C	1.134547	-0.505900	-0.923066
C56	C	1.134441	-0.506105	-0.174274
C57	C	1.134573	-0.505842	-0.087025
H58	H	0.835606	-0.384027	-0.287296
C59	C	1.029062	-1.120792	-0.483604
C60	C	1.029106	-1.241482	-0.483625
C61	C	0.973876	-1.301838	-0.538808
C62	C	0.918602	-1.241504	-0.593969
C63	C	0.918555	-1.120807	-0.593949
C64	C	0.973785	-1.060451	-0.538767
H65	H	1.070026	-1.286151	-0.442790
H66	H	0.973911	-1.391186	-0.538822
H67	H	0.877717	-1.286182	-0.634818
H68	H	0.877635	-1.076138	-0.634785
H69	H	0.973750	-0.971103	-0.538752
C70	C	1.028967	-0.890365	-0.483552
C71	C	0.939739	-0.905543	-0.477065
C72	C	0.884461	-0.845193	-0.532220
C73	C	0.918412	-0.769664	-0.593862
C74	C	1.007644	-0.754483	-0.600352
C75	C	1.062921	-0.814834	-0.545197
H76	H	0.914603	-0.961457	-0.431432
H77	H	0.818405	-0.856431	-0.527416
H78	H	0.877492	-0.724989	-0.634691
H79	H	1.032780	-0.698570	-0.645985
H80	H	1.128977	-0.803595	-0.550001
H81	H	1.225626	-0.384103	-0.677866
H82	H	1.043421	-0.627773	-0.930651
C83	C	0.422305	-0.364849	-0.273021
C84	C	0.332132	-0.364864	-0.273030
C85	C	0.287024	-0.290859	-0.217915
C86	C	0.332091	-0.216838	-0.162791
C87	C	0.422269	-0.216820	-0.162781
C88	C	0.467377	-0.290825	-0.217896
H89	H	0.298766	-0.419661	-0.313837
H90	H	0.220268	-0.290873	-0.217922
H91	H	0.298700	-0.162055	-0.121992
H92	H	0.455635	-0.162023	-0.121974
H93	H	0.534133	-0.290812	-0.217888
H94	H	1.234867	-0.806491	-0.277878
H95	H	1.326036	-0.906001	-0.186910
C96	C	1.029112	-0.646936	-1.091075
C97	C	0.967499	-0.601406	-1.147433
C98	C	0.912262	-0.675313	-1.192481
C99	C	0.918637	-0.794750	-1.181171
C100	C	0.980252	-0.840286	-1.124811
C101	C	1.035490	-0.766379	-1.079763
H102	H	0.962777	-0.512987	-1.155808
H103	H	0.866650	-0.641604	-1.234203
H104	H	0.877747	-0.849460	-1.214518
H105	H	0.984974	-0.928706	-1.116436
H106	H	1.081102	-0.800089	-1.038041
C107	C	1.239994	-0.364841	-0.838303
C108	C	1.329227	-0.373433	-0.827048
C109	C	1.384477	-0.299505	-0.872147
C110	C	1.350495	-0.216986	-0.928503
C111	C	1.261258	-0.208391	-0.939761
C112	C	1.206007	-0.282318	-0.894661
H113	H	1.354387	-0.434521	-0.785328
H114	H	1.450537	-0.305868	-0.863813
H115	H	1.391395	-0.162260	-0.961888
H116	H	1.236098	-0.147302	-0.981481
H117	H	1.139948	-0.275955	-0.902996
H118	H	0.434076	-0.628193	-0.469178
H119	H	1.225668	-0.384010	-0.930713
H120	H	0.582756	-0.384046	-0.287323
H121	H	0.686875	-0.384046	-0.287314
H122	H	1.043385	-0.627867	-0.677800
C123	C	1.029075	-0.647017	-0.838240
C124	C	1.063088	-0.729481	-0.894590
C125	C	1.007863	-0.803374	-0.939666
C126	C	0.918625	-0.794802	-0.928392
C127	C	0.884607	-0.712334	-0.872040
C128	C	0.939832	-0.638442	-0.826963
H129	H	1.129152	-0.735830	-0.902937
H130	H	1.033046	-0.864422	-0.981381
H131	H	0.877744	-0.849501	-0.961760
H132	H	0.818543	-0.705985	-0.863692
H133	H	0.914649	-0.577394	-0.785248
H134	H	0.835651	-0.628165	-0.469129
H135	H	1.225686	-0.383950	-1.079441
H136	H	0.582804	-0.628188	-0.469157
C137	C	0.675222	-0.647396	-0.483468
C138	C	0.686474	-0.766819	-0.476900
C139	C	0.641407	-0.840835	-0.532034
C140	C	0.585089	-0.795427	-0.593735
C141	C	0.573834	-0.675998	-0.600305
C142	C	0.618901	-0.601982	-0.545172
H143	H	0.728167	-0.800438	-0.431223
H144	H	0.649739	-0.929245	-0.527170
H145	H	0.551728	-0.850218	-0.634548
H146	H	0.532142	-0.642379	-0.645982
H147	H	0.610569	-0.513572	-0.550036
H148	H	1.326128	-1.105065	-0.186951
H149	H	1.235048	-1.204626	-0.277975
