data_functionalizedCrystal
_audit_creation_method	'MofGen! by Chris Wilmer'
_symmetry_space_group_name_H-M	'P1'
_symmetry_Int_Tables_number	1
_symmetry_cell_setting	triclinic
loop_
_symmetry_equiv_pos_as_xyz
  x,y,z
_cell_length_a	21.395362
_cell_length_b	18.101395
_cell_length_c	21.395355
_cell_angle_alpha	90.015727
_cell_angle_beta	90.043940
_cell_angle_gamma	90.046983
loop_
_atom_site_label
_atom_site_type_symbol
_atom_site_fract_x
_atom_site_fract_y
_atom_site_fract_z
Zn1	Zn	0.957858	-0.294602	0.354598
Zn2	Zn	0.957760	-0.418425	0.249825
Zn3	Zn	0.853073	-0.294636	0.249799
Zn4	Zn	0.853041	-0.418440	0.354530
O5	O	0.905433	-0.356526	0.302188
O6	O	1.045523	-0.311006	0.340739
O7	O	0.943845	-0.402012	0.162144
O8	O	0.867027	-0.190998	0.263718
O9	O	1.045450	-0.401979	0.263763
O10	O	0.944012	-0.190973	0.340713
O11	O	0.866932	-0.311065	0.162125
O12	O	0.765391	-0.311080	0.263652
O13	O	0.866973	-0.402005	0.442217
O14	O	0.765367	-0.402038	0.340598
O15	O	0.943982	-0.311021	0.442267
O16	O	0.943814	-0.522060	0.263697
O17	O	0.866878	-0.522071	0.340623
C18	C	0.742645	-0.356565	0.302115
C19	C	0.673004	-0.356599	0.302099
C20	C	0.640295	-0.404024	0.342105
C21	C	0.574860	-0.404006	0.342133
C22	C	0.542136	-0.356571	0.302144
C23	C	0.574852	-0.309137	0.262135
C24	C	0.640286	-0.309151	0.262113
C25	C	0.438411	-0.350605	0.245738
C26	C	0.372978	-0.350596	0.245760
C27	C	0.340315	-0.356523	0.302213
C28	C	0.373093	-0.362474	0.358647
C29	C	0.438527	-0.362488	0.358624
C30	C	0.471183	-0.356550	0.302164
C31	C	0.236654	-0.403930	0.342252
C32	C	0.171217	-0.403907	0.342281
C33	C	0.171211	-0.309042	0.262278
C34	C	0.236646	-0.309061	0.262255
C35	C	0.269364	-0.356509	0.302241
C36	C	0.905349	-0.548936	0.302170
C37	C	0.905370	-0.631250	0.302183
C38	C	0.905508	-0.930341	0.302216
C39	C	0.857214	-0.899054	0.350736
C40	C	0.856985	-0.813436	0.350585
C41	C	0.905440	-0.781959	0.302200
C42	C	0.887557	-0.813100	0.236161
C43	C	0.887246	-0.898745	0.236451
C44	C	0.971790	-0.898667	0.319154
C45	C	0.971400	-0.813017	0.320602
C46	C	0.905402	-0.698099	0.302187
C47	C	0.905544	-1.014201	0.302225
C48	C	1.068856	-0.356487	0.302261
C49	C	1.138497	-0.356470	0.302293
C50	C	0.905485	-0.356511	0.465611
C51	C	0.905507	-0.356504	0.535253
C52	C	0.905534	-0.163364	0.302220
C53	C	0.905577	-0.081050	0.302234
C54	C	0.905417	-0.356487	0.139400
C55	C	0.905516	-0.356285	0.069760
C56	C	0.945603	-0.309127	0.567993
C57	C	0.945603	-0.309095	0.633428
C58	C	0.905512	-0.356454	0.666121
C59	C	0.865408	-0.403834	0.633373
C60	C	0.865405	-0.403859	0.567939
C61	C	0.900536	-0.423137	0.769788
C62	C	0.900542	-0.423113	0.835221
C63	C	0.905516	-0.356375	0.867942
C64	C	0.910495	-0.289660	0.835222
C65	C	0.910493	-0.289685	0.769788
C66	C	0.905510	-0.356431	0.737073
C67	C	0.945613	-0.308960	0.971635
C68	C	0.945608	-0.308927	1.037071
C69	C	0.865416	-0.403672	1.037015
C70	C	0.865418	-0.403699	0.971580
C71	C	0.905520	-0.356344	0.938893
H72	H	0.465000	-0.345775	0.199764
Br73	Br	0.875673	-0.933316	0.432619
H74	H	0.978263	-0.270396	0.945020
Br75	Br	0.917251	-0.199082	0.879621
Br76	Br	1.000039	-0.244634	1.081506
Br77	Br	0.810998	-0.467937	1.081377
H78	H	0.978253	-0.270511	0.660090
H79	H	0.832771	-0.442283	0.944922
H80	H	0.808383	-0.920654	0.339656
H81	H	0.896491	-0.477437	0.861856
Br82	Br	0.530443	-0.244754	0.207870
Br83	Br	0.530459	-0.468371	0.396431
Br84	Br	0.993880	-0.779092	0.401609
H85	H	0.666918	-0.270530	0.229536
Br86	Br	0.944338	-0.779120	0.174258
H87	H	0.838794	-0.918801	0.222106
Br88	Br	0.875632	-0.778337	0.432200
H89	H	0.914546	-0.235363	0.743150
Br90	Br	0.807654	-0.777484	0.211820
H91	H	0.465212	-0.367332	0.404575
H92	H	0.346500	-0.367299	0.404617
Br93	Br	0.943322	-0.933247	0.174137
Br94	Br	0.810983	-0.468161	0.523503
H95	H	0.988093	-0.920221	0.366491
Br96	Br	0.281060	-0.468319	0.396520
Br97	Br	0.893804	-0.513719	0.725387
H98	H	1.009286	-0.791584	0.287841
Br99	Br	1.000025	-0.244857	0.523635
H100	H	0.346295	-0.345754	0.199808
H101	H	0.807855	-0.793026	0.339363
Br102	Br	0.126825	-0.468269	0.396585
Br103	Br	1.031764	-0.932399	0.260265
Br104	Br	0.126807	-0.244657	0.208013
Br105	Br	0.810994	-0.468102	0.677740
H106	H	0.263278	-0.270446	0.229675
Br107	Br	0.684695	-0.468416	0.396373
