data_functionalizedCrystal
_audit_creation_method	'MofGen! by Chris Wilmer'
_symmetry_space_group_name_H-M	'P1'
_symmetry_Int_Tables_number	1
_symmetry_cell_setting	triclinic
loop_
_symmetry_equiv_pos_as_xyz
  x,y,z
_cell_length_a	12.759400
_cell_length_b	18.215407
_cell_length_c	18.215399
_cell_angle_alpha	89.982223
_cell_angle_beta	90.024546
_cell_angle_gamma	89.989695
loop_
_atom_site_label
_atom_site_type_symbol
_atom_site_fract_x
_atom_site_fract_y
_atom_site_fract_z
Zn1	Zn	-0.418400	-1.125124	0.416093
Zn2	Zn	0.081600	-0.625124	0.916093
Zn3	Zn	-0.594097	-1.125054	0.293034
Zn4	Zn	-0.094097	-0.625054	0.793034
Zn5	Zn	-0.418419	-1.002057	0.293045
Zn6	Zn	0.081581	-0.502057	0.793045
Zn7	Zn	-0.594024	-1.002044	0.416063
Zn8	Zn	-0.094024	-0.502044	0.916063
O9	O	-0.506235	-1.063570	0.354559
O10	O	-0.006235	-0.563570	0.854559
O11	O	-0.441729	-1.228099	0.399777
O12	O	0.058271	-0.728099	0.899777
O13	O	-0.570832	-1.108714	0.190051
O14	O	-0.070832	-0.608714	0.690051
O15	O	-0.271396	-1.018416	0.309384
O16	O	0.228604	-0.518416	0.809384
O17	O	-0.570813	-1.228048	0.309366
O18	O	-0.070813	-0.728048	0.809366
O19	O	-0.271381	-1.108833	0.399787
O20	O	0.228619	-0.608833	0.899787
O21	O	-0.441762	-1.018349	0.190059
O22	O	0.058238	-0.518349	0.690059
O23	O	-0.441691	-0.899071	0.309355
O24	O	0.058309	-0.399071	0.809355
O25	O	-0.570688	-1.018395	0.519051
O26	O	-0.070688	-0.518395	1.019051
O27	O	-0.570707	-0.899062	0.399737
O28	O	-0.070707	-0.399062	0.899737
O29	O	-0.441658	-1.108821	0.519073
O30	O	0.058342	-0.608821	1.019073
O31	O	-0.741109	-1.108703	0.309337
O32	O	-0.241109	-0.608703	0.809337
O33	O	-0.741055	-1.018328	0.399726
O34	O	-0.241055	-0.518328	0.899726
C35	C	-0.506194	-0.872364	0.354544
C36	C	-0.006194	-0.372364	0.854544
C37	C	-0.506202	-0.790565	0.354556
C38	C	-0.006202	-0.290565	0.854556
C39	C	-0.439118	-0.602396	0.401706
C40	C	0.060882	-0.102396	0.901706
C41	C	-0.439123	-0.525538	0.401708
C42	C	0.060877	-0.025538	0.901708
C43	C	-0.573337	-0.525495	0.307417
C44	C	-0.073337	-0.025495	0.807417
C45	C	-0.573325	-0.602353	0.307412
C46	C	-0.073325	-0.102353	0.807412
C47	C	-0.506217	-0.640801	0.354561
C48	C	-0.006217	-0.140801	0.854561
C49	C	-0.506234	-0.487085	0.354568
C50	C	-0.006234	0.012915	0.854568
C51	C	-0.506241	-0.403752	0.354569
C52	C	-0.006241	0.096248	0.854569
C53	C	-0.506209	-0.724140	0.354558
C54	C	-0.006209	-0.224140	0.854558
C55	C	-0.779202	-1.063526	0.354543
C56	C	-0.279202	-0.563526	0.854543
C57	C	-0.895979	-1.063575	0.354561
C58	C	-0.395979	-0.563575	0.854561
C59	C	-0.950834	-1.110685	0.307548
C60	C	-0.450834	-0.610685	0.807548
C61	C	-1.060558	-1.110730	0.307570
C62	C	-0.560558	-0.610730	0.807570
C63	C	-1.060562	-1.016549	0.401622
C64	C	-0.560562	-0.516549	0.901622
C65	C	-0.950840	-1.016508	0.401603
C66	C	-0.450840	-0.516508	0.901603
C67	C	-0.895973	-1.157753	0.260506
C68	C	-0.395973	-0.657753	0.760506
C69	C	-0.950828	-1.204866	0.213488
C70	C	-0.450828	-0.704866	0.713488
C71	C	-1.060552	-1.204911	0.213511
C72	C	-0.560552	-0.704911	0.713511
C73	C	-1.115421	-1.157843	0.260552
C74	C	-0.615421	-0.657843	0.760552
C75	C	-0.232202	-1.063634	0.354590
C76	C	0.267798	-0.563634	0.854590
C77	C	-0.115425	-1.063661	0.354604
C78	C	0.384575	-0.563661	0.854604
C79	C	-0.506163	-1.063615	0.546512
C80	C	-0.006163	-0.563615	1.046512
C81	C	-0.506132	-1.063634	0.628311
C82	C	-0.006132	-0.563634	1.128311
C83	C	-0.506266	-0.255523	0.354572
C84	C	-0.006266	0.244477	0.854572
C85	C	-0.506249	-0.337322	0.354573
C86	C	-0.006249	0.162678	0.854573
C87	C	-0.506231	-1.063568	0.163352
C88	C	-0.006231	-0.563568	0.663352
C89	C	-0.505966	-1.063691	0.081554
C90	C	-0.005966	-0.563691	0.581554
C91	C	-0.438883	-1.110736	0.816517
C92	C	0.061117	-0.610736	1.316517
C93	C	-0.438852	-1.110744	0.893376
C94	C	0.061148	-0.610744	1.393376
C95	C	-0.573218	-1.016584	0.893342
C96	C	-0.073218	-0.516584	1.393342
C97	C	-0.573243	-1.016572	0.816485
C98	C	-0.073243	-0.516572	1.316485
C99	C	-0.506077	-1.063652	0.778074
C100	C	-0.006077	-0.563652	1.278074
C101	C	-0.506022	-1.063673	0.931790
C102	C	-0.006022	-0.563673	1.431790
C103	C	-0.505989	-1.063682	1.015124
C104	C	-0.005989	-0.563682	1.515124
C105	C	-0.506108	-1.063642	0.694735
C106	C	-0.006108	-0.563642	1.194735
H107	H	-0.627967	-0.633623	0.269017
H108	H	-0.127967	-0.133623	0.769017
Br109	Br	-0.664371	-0.952696	0.945475
Br110	Br	-0.164371	-0.452696	1.445475
Br111	Br	-0.747063	-1.157920	0.260700
Br112	Br	-0.247063	-0.657920	0.760700
H113	H	-0.906149	-1.243192	0.175193
H114	H	-0.406149	-0.743192	0.675193
H115	H	-0.627959	-0.978226	0.785183
H116	H	-0.127959	-0.478226	1.285183
Br117	Br	-0.876387	-0.952575	0.465412
Br118	Br	-0.376387	-0.452575	0.965412
H119	H	-0.384482	-0.494272	0.440097
H120	H	0.115518	0.005728	0.940097
Br121	Br	-0.664409	-0.473311	0.243435
Br122	Br	-0.164409	0.026689	0.743435
H123	H	-1.105213	-1.243279	0.175232
H124	H	-0.605213	-0.743279	0.675232
Br125	Br	-0.348041	-0.654575	0.465690
Br126	Br	0.151959	-0.154575	0.965690
H127	H	-0.384189	-1.149069	0.785246
H128	H	0.115811	-0.649069	1.285246
Br129	Br	-1.135027	-0.952673	0.465458
Br130	Br	-0.635027	-0.452673	0.965458
Br131	Br	-1.264332	-1.157569	0.260245
Br132	Br	-0.764332	-0.657569	0.760245
H133	H	-0.384135	-1.149083	0.924673
H134	H	0.115865	-0.649083	1.424673
