data_functionalizedCrystal
_audit_creation_method	'MofGen! by Chris Wilmer'
_symmetry_space_group_name_H-M	'P1'
_symmetry_Int_Tables_number	1
_symmetry_cell_setting	triclinic
loop_
_symmetry_equiv_pos_as_xyz
  x,y,z
_cell_length_a	10.654550
_cell_length_b	14.044220
_cell_length_c	9.130313
_cell_angle_alpha	89.994483
_cell_angle_beta	89.999724
_cell_angle_gamma	88.836904
loop_
_atom_site_label
_atom_site_type_symbol
_atom_site_fract_x
_atom_site_fract_y
_atom_site_fract_z
O1	O	1.681228	0.133232	-0.121694
O2	O	1.317025	0.145925	-0.121721
O3	O	1.493660	0.001558	-0.121693
O4	O	1.504593	0.277599	-0.121721
O5	O	1.493646	0.001554	0.121906
O6	O	1.317011	0.145921	0.121878
O7	O	1.681214	0.133227	0.121905
Cu8	Cu	1.499112	0.139574	0.144134
Cu9	Cu	1.499128	0.139579	-0.143950
O10	O	1.504580	0.277595	0.121877
C11	C	1.270127	0.144991	0.000075
C12	C	1.130403	0.142202	0.000065
C13	C	1.059459	0.227204	0.000061
C14	C	0.928175	0.224578	0.000086
C15	C	0.938790	0.051942	0.000115
C16	C	1.070072	0.054569	0.000100
C17	C	1.488867	-0.033790	0.000106
C18	C	1.474592	-0.139110	0.000107
C19	C	1.448493	-0.331943	0.000084
C20	C	1.549741	-0.388910	0.000087
C21	C	1.535219	-0.496209	0.000074
C22	C	1.463013	-0.224634	0.000097
C23	C	1.728113	0.134162	0.000106
C24	C	1.867836	0.136950	0.000106
C25	C	1.509372	0.312943	0.000075
C26	C	1.523648	0.418262	0.000064
N27	N	1.499109	0.139570	0.346757
N28	N	1.499139	0.139575	-0.346572
C29	C	1.577355	0.075671	0.423421
C30	C	1.577367	0.075671	0.576758
C31	C	1.420885	0.203477	0.576753
C32	C	1.420867	0.203472	0.423419
H33	H	1.647328	-0.357098	-0.000004
O34	O	1.138940	-0.028032	-0.000158
C35	C	1.110062	-0.081198	-0.126290
H36	H	1.070858	-0.031418	-0.214475
H37	H	1.037173	-0.136546	-0.097750
C38	C	1.278086	-0.192893	-0.075187
C39	C	1.229945	-0.131751	-0.183502
H40	H	1.352034	-0.224080	-0.110476
H41	H	1.297540	-0.157076	0.009794
H42	H	1.217334	-0.239008	-0.051413
H43	H	1.290691	-0.085631	-0.207260
H44	H	1.210505	-0.167561	-0.268489
O45	O	1.118122	0.312304	-0.000222
C46	C	1.193755	0.318983	-0.126377
H47	H	1.157198	0.269208	-0.214546
H48	H	1.294681	0.297787	-0.097865
C49	C	1.234318	0.483281	-0.075307
C50	C	1.189412	0.422153	-0.183602
H51	H	1.231645	0.546921	-0.110603
H52	H	1.183367	0.478781	0.009689
H53	H	1.318419	0.465606	-0.051556
H54	H	1.105307	0.439820	-0.207337
H55	H	1.240349	0.426658	-0.268603
H56	H	0.870417	0.293795	0.000086
O57	O	1.653444	0.013732	0.651390
C58	C	1.736689	0.065082	0.740037
H59	H	1.694942	0.138957	0.763003
H60	H	1.830286	0.072182	0.680929
C61	C	1.808855	-0.078946	0.857488
C62	C	1.757576	0.011786	0.885705
H63	H	1.821745	-0.111823	0.947340
H64	H	1.752775	-0.113543	0.797761
H65	H	1.886847	-0.073016	0.808227
H66	H	1.679578	0.005855	0.934947
H67	H	1.813643	0.046380	0.945443
O68	O	1.344819	0.265639	0.349164
C69	C	1.275749	0.322031	0.449704
H70	H	1.327404	0.323474	0.558999
H71	H	1.178946	0.290572	0.466035
C72	C	1.197846	0.422403	0.255592
C73	C	1.261295	0.424183	0.389826
H74	H	1.188924	0.485415	0.218655
H75	H	1.244375	0.384409	0.187855
H76	H	1.117183	0.396184	0.269219
H77	H	1.341961	0.450391	0.376194
H78	H	1.214779	0.462184	0.457560
H79	H	1.350913	-0.363754	0.000073
O80	O	1.653384	0.013502	0.349177
C81	C	1.722469	-0.042880	0.449732
H82	H	1.670834	-0.044308	0.559041
H83	H	1.819278	-0.011424	0.466017
C84	C	1.800327	-0.143280	0.255658
C85	C	1.736903	-0.145040	0.389910
H86	H	1.809237	-0.206296	0.218756
H87	H	1.753788	-0.105292	0.187910
H88	H	1.880995	-0.117063	0.269247
H89	H	1.656232	-0.171246	0.376316
H90	H	1.783429	-0.183035	0.457654
H91	H	0.889652	-0.019406	0.000152
H92	H	1.357184	0.255506	0.639186
