data_functionalizedCrystal
_audit_creation_method	'MofGen! by Chris Wilmer'
_symmetry_space_group_name_H-M	'P1'
_symmetry_Int_Tables_number	1
_symmetry_cell_setting	triclinic
loop_
_symmetry_equiv_pos_as_xyz
  x,y,z
_cell_length_a	21.395361
_cell_length_b	12.759401
_cell_length_c	12.759393
_cell_angle_alpha	90.019837
_cell_angle_beta	89.960721
_cell_angle_gamma	89.967767
loop_
_atom_site_label
_atom_site_type_symbol
_atom_site_fract_x
_atom_site_fract_y
_atom_site_fract_z
Zn1	Zn	-0.249376	-1.606138	-0.593964
Zn2	Zn	-0.354168	-1.605983	-0.418261
Zn3	Zn	-0.249411	-1.430440	-0.418299
Zn4	Zn	-0.354122	-1.430380	-0.593898
O5	O	-0.301769	-1.518235	-0.506106
O6	O	-0.263281	-1.753139	-0.570668
O7	O	-0.340306	-1.582658	-0.271245
O8	O	-0.161729	-1.453837	-0.441645
O9	O	-0.340272	-1.753025	-0.441580
O10	O	-0.161703	-1.582921	-0.570706
O11	O	-0.263341	-1.453687	-0.271273
O12	O	-0.263297	-1.283411	-0.441581
O13	O	-0.340193	-1.453734	-0.740928
O14	O	-0.340228	-1.283367	-0.570593
O15	O	-0.263237	-1.582863	-0.740977
O16	O	-0.441840	-1.582599	-0.441516
O17	O	-0.441806	-1.453584	-0.570556
C18	C	-0.301762	-1.245268	-0.506085
C19	C	-0.301773	-1.128491	-0.506101
C20	C	-0.464557	-1.518097	-0.506047
C21	C	-0.534198	-1.518133	-0.506057
C22	C	-0.301706	-1.518309	-0.780139
C23	C	-0.301679	-1.518340	-0.896916
C24	C	-0.566908	-1.585371	-0.438935
C25	C	-0.632343	-1.585420	-0.438958
C26	C	-0.665067	-1.518212	-0.506093
C27	C	-0.632349	-1.450970	-0.573229
C28	C	-0.566915	-1.450930	-0.573211
C29	C	-0.768782	-1.423614	-0.514329
C30	C	-0.834215	-1.423652	-0.514340
C31	C	-0.866887	-1.518335	-0.506155
C32	C	-0.834119	-1.612983	-0.497937
C33	C	-0.768685	-1.612943	-0.497919
C34	C	-0.736019	-1.518248	-0.506121
C35	C	-0.970550	-1.585631	-0.439054
C36	C	-1.035986	-1.585682	-0.439085
C37	C	-1.035990	-1.451222	-0.573350
C38	C	-0.970555	-1.451181	-0.573325
C39	C	-0.937839	-1.518384	-0.506171
C40	C	-0.138346	-1.518403	-0.506187
C41	C	-0.068705	-1.518475	-0.506222
C42	C	-0.301777	-1.792269	-0.506127
C43	C	-0.301781	-1.909045	-0.506136
C44	C	-0.341892	-1.073634	-0.573171
C45	C	-0.341895	-0.963910	-0.573192
C46	C	-0.261658	-0.963911	-0.439063
C47	C	-0.261653	-1.073633	-0.439048
C48	C	-0.261596	-1.451209	-0.951792
C49	C	-0.261577	-1.451233	-1.061516
C50	C	-0.341725	-1.585529	-1.061478
C51	C	-0.341747	-1.585498	-0.951756
C52	C	-0.301787	-1.518223	-0.233138
C53	C	-0.301638	-1.518395	-0.116362
H54	H	-0.658981	-1.640177	-0.384300
H55	H	-0.228994	-0.919231	-0.384469
H56	H	-0.943921	-1.396425	-0.627978
H57	H	-0.742186	-1.346506	-0.520999
N58	N	-0.667638	-1.378483	-0.645642
H59	H	-0.714055	-1.388708	-0.635467
H60	H	-0.656249	-1.303452	-0.629222
N61	N	-0.385163	-1.132805	-0.645489
H62	H	-0.410577	-1.081399	-0.687982
H63	H	-0.359692	-1.178375	-0.694183
N64	N	-1.071282	-1.378733	-0.645753
H65	H	-1.059945	-1.303669	-0.629364
H66	H	-1.059835	-1.395088	-0.720805
H67	H	-0.374563	-0.919249	-0.627809
N68	N	-0.218371	-1.132810	-0.366718
H69	H	-0.192957	-1.081410	-0.324240
H70	H	-0.243833	-1.178298	-0.318010
N71	N	-0.531632	-1.378392	-0.645598
H72	H	-0.485215	-1.388561	-0.635394
H73	H	-0.543019	-1.394708	-0.720652
H74	H	-0.228971	-1.396524	-0.907144
H75	H	-0.228938	-1.396568	-1.106192
N76	N	-0.869553	-1.321573	-0.523215
H77	H	-0.915962	-1.335963	-0.521980
H78	H	-0.858172	-1.274618	-0.462422
H79	H	-0.374346	-1.640208	-1.106142
N80	N	-0.384984	-1.657908	-0.892567
H81	H	-0.375253	-1.732991	-0.911669
H82	H	-0.378901	-1.647607	-0.814756
N83	N	-0.531622	-1.657868	-0.366525
H84	H	-0.543055	-1.641607	-0.291445
H85	H	-0.542980	-1.732899	-0.383012
N86	N	-0.733340	-1.715018	-0.489060
H87	H	-0.763963	-1.775010	-0.483877
H88	H	-0.706154	-1.724717	-0.553077
H89	H	-0.943911	-1.640356	-0.384377
N90	N	-0.869349	-1.715113	-0.489103
H91	H	-0.896457	-1.724954	-0.553124
H92	H	-0.838622	-1.774997	-0.483859
N93	N	-1.071270	-1.658212	-0.366691
H94	H	-1.040612	-1.700774	-0.324149
H95	H	-1.098469	-1.615486	-0.318047
