data_functionalizedCrystal
_audit_creation_method	'MofGen! by Chris Wilmer'
_symmetry_space_group_name_H-M	'P1'
_symmetry_Int_Tables_number	1
_symmetry_cell_setting	triclinic
loop_
_symmetry_equiv_pos_as_xyz
  x,y,z
_cell_length_a	8.597213
_cell_length_b	9.130313
_cell_length_c	8.559649
_cell_angle_alpha	90.001718
_cell_angle_beta	77.624681
_cell_angle_gamma	82.297963
loop_
_atom_site_label
_atom_site_type_symbol
_atom_site_fract_x
_atom_site_fract_y
_atom_site_fract_z
O1	O	2.053757	-0.380956	0.238016
O2	O	1.594618	-0.323019	0.256280
O3	O	1.864638	-0.357091	0.015178
O4	O	1.783737	-0.346885	0.479118
O5	O	1.864633	-0.113491	0.015188
O6	O	1.594613	-0.079420	0.256291
O7	O	2.053752	-0.137357	0.238026
Cu8	Cu	1.824182	-0.086146	0.247160
Cu9	Cu	1.824188	-0.374230	0.247147
O10	O	1.783732	-0.103286	0.479129
C11	C	1.536380	-0.193871	0.254325
C12	C	1.362858	-0.171976	0.248464
N13	N	1.824189	0.116476	0.247168
C14	C	1.943776	0.178038	0.140446
C15	C	1.943773	0.331376	0.140429
C16	C	1.704590	0.361575	0.353871
C17	C	1.704587	0.208242	0.353878
C18	C	2.063378	0.086273	0.033736
C19	C	2.182975	0.147834	-0.072994
C20	C	2.182973	0.301171	-0.073010
C21	C	2.063372	0.392947	0.033702
C22	C	2.111990	-0.266508	0.239982
C23	C	2.285512	-0.288413	0.245843
N24	N	1.824189	0.423147	0.247144
C25	C	1.870766	-0.236067	-0.044251
C26	C	1.889016	-0.238378	-0.221346
C27	C	1.777604	-0.224312	0.538558
C28	C	1.759354	-0.222011	0.715653
H29	H	1.296319	-0.055535	0.246228
H30	H	2.063393	-0.038583	0.033742
H31	H	2.280344	0.351294	-0.159924
H32	H	2.063371	0.517805	0.033669
H33	H	2.280343	0.073104	-0.159885
O34	O	1.575612	0.460549	0.468982
H35	H	1.595716	0.577513	0.451059
O36	O	1.373630	-0.442646	0.248820
H37	H	1.289681	-0.524493	0.245990
O38	O	1.575617	0.141823	0.468991
H39	H	1.492466	0.231389	0.543211
O40	O	1.593805	-0.201128	-0.176347
H41	H	1.604967	-0.202555	-0.049533
H42	H	2.013994	-0.254137	-0.302901
