data_functionalizedCrystal
_audit_creation_method	'MofGen! by Chris Wilmer'
_symmetry_space_group_name_H-M	'P1'
_symmetry_Int_Tables_number	1
_symmetry_cell_setting	triclinic
loop_
_symmetry_equiv_pos_as_xyz
  x,y,z
_cell_length_a	19.805407
_cell_length_b	19.805405
_cell_length_c	19.805398
_cell_angle_alpha	90.025822
_cell_angle_beta	90.017356
_cell_angle_gamma	90.026712
loop_
_atom_site_label
_atom_site_type_symbol
_atom_site_fract_x
_atom_site_fract_y
_atom_site_fract_z
Zn1	Zn	-1.034705	0.269508	-0.382747
Zn2	Zn	-1.034624	0.382693	-0.269559
Zn3	Zn	-0.921527	0.269522	-0.269569
Zn4	Zn	-0.921480	0.382659	-0.382703
O5	O	-0.978084	0.326096	-0.326144
O6	O	-1.129411	0.284531	-0.367747
O7	O	-1.019607	0.367701	-0.174844
O8	O	-0.936593	0.174803	-0.284605
O9	O	-1.129351	0.367688	-0.284588
O10	O	-1.019744	0.174793	-0.367756
O11	O	-0.936515	0.284554	-0.174851
O12	O	-0.826804	0.284521	-0.284562
O13	O	-0.936514	0.367629	-0.477425
O14	O	-0.826770	0.367642	-0.367681
O15	O	-1.019699	0.284498	-0.477458
O16	O	-1.019562	0.477405	-0.284545
O17	O	-0.936436	0.477380	-0.367671
C18	C	-0.802228	0.326079	-0.326118
C19	C	-0.726996	0.326089	-0.326123
C20	C	-0.978004	0.501952	-0.326117
C21	C	-0.978031	0.577184	-0.326128
C22	C	-0.978111	0.326058	-0.502687
C23	C	-0.978122	0.326042	-0.577919
C24	C	-0.691652	0.369435	-0.369332
C25	C	-0.620963	0.369435	-0.369339
C26	C	-0.585620	0.326092	-0.326134
C27	C	-0.620970	0.282741	-0.282923
C28	C	-0.691657	0.282738	-0.282919
C29	C	-0.335896	0.282751	-0.282938
C30	C	-0.265204	0.282759	-0.282944
C31	C	-0.265203	0.369447	-0.369358
C32	C	-0.335890	0.369445	-0.369354
C33	C	-0.371233	0.326092	-0.326146
C34	C	-0.447881	0.326091	-0.326139
C35	C	-0.508973	0.326095	-0.326137
C36	C	-0.154627	0.326108	-0.326165
C37	C	-0.229859	0.326102	-0.326157
C38	C	-1.021357	0.612518	-0.282891
C39	C	-1.021384	0.683207	-0.282908
C40	C	-0.978082	0.718559	-0.326160
C41	C	-0.934755	0.683219	-0.369402
C42	C	-0.934731	0.612532	-0.369388
C43	C	-0.934848	0.968292	-0.369461
C44	C	-0.934873	1.038985	-0.369471
C45	C	-1.021500	1.038967	-0.282981
C46	C	-1.021477	0.968280	-0.282967
C47	C	-0.978153	0.932946	-0.326212
C48	C	-0.978125	0.856298	-0.326193
C49	C	-0.978106	0.795206	-0.326175
C50	C	-0.978177	1.149553	-0.326194
C51	C	-0.978202	1.074321	-0.326236
C52	C	-1.021518	0.282636	-1.039728
C53	C	-1.021507	0.282657	-0.969040
C54	C	-0.978191	0.325948	-0.933681
C55	C	-0.934888	0.369226	-0.969014
C56	C	-0.934902	0.369208	-1.039702
C57	C	-0.934829	0.369300	-0.683941
C58	C	-0.934816	0.369313	-0.613249
C59	C	-1.021434	0.282748	-0.613279
C60	C	-1.021449	0.282730	-0.683966
C61	C	-0.978148	0.326010	-0.719294
C62	C	-0.978161	0.325988	-0.795942
C63	C	-0.978174	0.325967	-0.857034
C64	C	-0.978096	0.326084	-0.150288
C65	C	-0.978216	0.325909	-0.075057
H66	H	-0.720423	0.404732	-0.404512
C67	C	-0.374764	0.235066	-0.235403
N68	N	-0.404042	0.199148	-0.199597
C69	C	-0.887190	0.416903	-0.722792
N70	N	-0.851304	0.452758	-0.752056
C71	C	-0.887265	0.416811	-1.078562
N72	N	-0.851385	0.452668	-1.107831
C73	C	-0.887238	0.416846	-0.930117
N74	N	-0.851345	0.452712	-0.900820
H75	H	-1.056787	0.247379	-1.068513
C76	C	-0.226328	0.235071	-0.235417
N77	N	-0.197047	0.199153	-0.199623
H78	H	-1.056779	1.067745	-0.247772
H79	H	-1.056615	0.583739	-0.247667
C80	C	-0.582090	0.235062	-0.235398
N81	N	-0.552806	0.199150	-0.199600
C82	C	-0.887239	1.077871	-0.417057
N83	N	-0.851363	1.107159	-0.452897
H84	H	-0.364663	0.404741	-0.404534
H85	H	-0.720433	0.247438	-0.247737
C86	C	-1.069041	0.722072	-0.235339
N87	N	-1.104937	0.751345	-0.199507
H88	H	-0.899500	0.712009	-0.404621
C89	C	-0.582088	0.417131	-0.416860
N90	N	-0.552807	0.453063	-0.452650
H91	H	-1.056735	0.939499	-0.247745
C92	C	-0.226319	0.417131	-0.416894
N93	N	-0.197033	0.453046	-0.452697
C94	C	-0.887224	0.929434	-0.417066
N95	N	-0.851365	0.900164	-0.452937
H96	H	-0.899453	0.583763	-0.404597
H97	H	-1.056770	0.247421	-0.940279
H98	H	-1.056719	0.247475	-0.712752
C99	C	-1.069071	0.235143	-0.574413
N100	N	-1.104950	0.199286	-0.545140
C101	C	-0.887165	0.416941	-0.574355
N102	N	-0.851276	0.452813	-0.545061
