data_functionalizedCrystal
_audit_creation_method	'MofGen! by Chris Wilmer'
_symmetry_space_group_name_H-M	'P1'
_symmetry_Int_Tables_number	1
_symmetry_cell_setting	triclinic
loop_
_symmetry_equiv_pos_as_xyz
  x,y,z
_cell_length_a	19.188905
_cell_length_b	19.188924
_cell_length_c	12.996460
_cell_angle_alpha	89.991787
_cell_angle_beta	89.987288
_cell_angle_gamma	83.138260
loop_
_atom_site_label
_atom_site_type_symbol
_atom_site_fract_x
_atom_site_fract_y
_atom_site_fract_z
O1	O	0.926155	0.087086	-0.085741
O2	O	1.426155	0.587086	0.414259
O3	O	0.722841	0.098839	-0.085706
O4	O	1.222841	0.598839	0.414294
O5	O	0.830367	-0.008694	-0.085713
O6	O	1.330367	0.491306	0.414287
O7	O	0.818628	0.194619	-0.085735
O8	O	1.318628	0.694619	0.414265
O9	O	0.830356	-0.008700	0.085421
O10	O	1.330356	0.491300	0.585421
O11	O	0.722830	0.098833	0.085427
O12	O	1.222830	0.598833	0.585427
O13	O	0.926144	0.087080	0.085393
O14	O	1.426144	0.587080	0.585393
Cu15	Cu	0.824486	0.092956	0.101036
Cu16	Cu	1.324486	0.592956	0.601036
Cu17	Cu	0.824499	0.092963	-0.101350
Cu18	Cu	1.324499	0.592963	0.398650
O19	O	0.818617	0.194613	0.085399
O20	O	1.318617	0.694613	0.585399
C21	C	0.696824	0.098458	-0.000135
C22	C	1.196824	0.598458	0.499865
C23	C	0.619318	0.097324	-0.000121
C24	C	1.119318	0.597324	0.499879
C25	C	0.582933	0.096783	-0.093409
C26	C	1.082933	0.596783	0.406591
C27	C	0.510109	0.095710	-0.093422
C28	C	1.010109	0.595710	0.406578
C29	C	0.473676	0.095164	-0.000141
C30	C	0.973676	0.595164	0.499859
C31	C	0.510070	0.095710	0.093159
C32	C	1.010070	0.595710	0.593159
C33	C	0.582891	0.096790	0.093169
C34	C	1.082891	0.596790	0.593169
N35	N	0.364652	0.053733	0.069283
N36	N	0.864652	0.553733	0.569283
N37	N	0.295475	0.052705	0.069267
N38	N	0.795475	0.552705	0.569267
C39	C	0.254269	0.091911	-0.000166
C40	C	0.754269	0.591911	0.499834
N41	N	0.284855	0.132175	-0.069598
N42	N	0.784855	0.632175	0.430402
N43	N	0.354039	0.133199	-0.069585
N44	N	0.854039	0.633199	0.430415
C45	C	0.394713	0.093993	-0.000142
C46	C	0.894713	0.593993	0.499858
C47	C	0.138920	0.090208	-0.093474
C48	C	0.638920	0.590208	0.406526
C49	C	0.066094	0.089139	-0.093483
C50	C	0.566094	0.589139	0.406517
C51	C	0.066057	0.089132	0.093100
C52	C	0.566057	0.589132	0.593100
C53	C	0.138881	0.090207	0.093107
C54	C	0.638881	0.590207	0.593107
C55	C	0.175308	0.090742	-0.000183
C56	C	0.675308	0.590742	0.499817
C57	C	0.829982	-0.034708	-0.000145
C58	C	1.329982	0.465292	0.499855
C59	C	0.828844	-0.112213	-0.000142
C60	C	1.328844	0.387787	0.499858
C61	C	0.828318	-0.148609	-0.093427
C62	C	1.328318	0.351391	0.406573
C63	C	0.827238	-0.221431	-0.093435
C64	C	1.327238	0.278569	0.406565
C65	C	0.826698	-0.257857	-0.000152
C66	C	1.326698	0.242143	0.499848
C67	C	0.827219	-0.221452	0.093146
C68	C	1.327219	0.278548	0.593146
C69	C	0.828292	-0.148630	0.093151
C70	C	1.328292	0.351370	0.593151
N71	N	0.864742	-0.377526	0.069270
N72	N	1.364742	0.122474	0.569270
N73	N	0.863724	-0.446704	0.069259
N74	N	1.363724	0.053296	0.569259
C75	C	0.823464	-0.477266	-0.000161
C76	C	1.323464	0.022734	0.499839
N77	N	0.784269	-0.436037	-0.069585
N78	N	1.284269	0.063963	0.430415
N79	N	0.785290	-0.366853	-0.069577
N80	N	1.285290	0.133147	0.430423
C81	C	0.825534	-0.336821	-0.000147
C82	C	1.325534	0.163179	0.499853
C83	C	0.821766	-0.592624	-0.093461
C84	C	1.321766	-0.092624	0.406539
C85	C	0.820682	-0.665448	-0.093465
C86	C	1.320682	-0.165448	0.406535
C87	C	0.820670	-0.665468	0.093118
C88	C	1.320670	-0.165468	0.593118
C89	C	0.821748	-0.592645	0.093119
C90	C	1.321748	-0.092645	0.593119
C91	C	0.822299	-0.556228	-0.000173
C92	C	1.322299	-0.056228	0.499827
C93	C	0.952160	0.087461	-0.000181
C94	C	1.452160	0.587461	0.499819
C95	C	1.029666	0.088594	-0.000201
C96	C	1.529666	0.588594	0.499799
C97	C	0.819002	0.220627	-0.000171
C98	C	1.319002	0.720627	0.499829
C99	C	0.820141	0.298132	-0.000181
C100	C	1.320141	0.798132	0.499819
N101	N	0.824481	0.092950	0.243383
N102	N	1.324481	0.592950	0.743383
N103	N	0.824508	0.092963	-0.243697
N104	N	1.324508	0.592963	0.256303
C105	C	0.824498	0.092964	0.663197
C106	C	1.324498	0.592964	1.163197
C107	C	0.824491	0.092962	0.546392
C108	C	1.324491	0.592962	1.046392
C109	C	0.824490	0.092958	0.453294
C110	C	1.324490	0.592958	0.953294
C111	C	0.824483	0.092955	0.336481
C112	C	1.324483	0.592955	0.836481
H113	H	0.036470	0.088702	-0.169452
H114	H	0.536470	0.588702	0.330548
O115	O	0.826667	-0.256721	0.183853
O116	O	1.326667	0.243279	0.683853
C117	C	0.827380	-0.208980	0.266194
C118	C	1.327380	0.291020	0.766194
H119	H	0.806045	-0.154106	0.238853
H120	H	1.306045	0.345894	0.738853
H121	H	0.793175	-0.225490	0.331442
H122	H	1.293175	0.274510	0.831442
H123	H	0.883493	-0.208739	0.294871
H124	H	1.383493	0.291261	0.794871
O125	O	0.822299	-0.557400	0.183830
O126	O	1.322299	-0.057400	0.683830
C127	C	0.821574	-0.605161	0.266165
C128	C	1.321574	-0.105161	0.766165
H129	H	0.842907	-0.660029	0.238808
H130	H	1.342907	-0.160029	0.738808
H131	H	0.855774	-0.588670	0.331402
H132	H	1.355774	-0.088670	0.831402
H133	H	0.765457	-0.605404	0.294863
H134	H	1.265457	-0.105404	0.794863
H135	H	0.828717	-0.118997	0.169117
H136	H	1.328717	0.381003	0.669117
O137	O	0.822175	-0.557249	-0.184100
O138	O	1.322175	-0.057249	0.315900
C139	C	0.761470	-0.566937	-0.240866
C140	C	1.261470	-0.066937	0.259134
H141	H	0.718911	-0.581304	-0.186288
H142	H	1.218911	-0.081304	0.313712
H143	H	0.741893	-0.516315	-0.283163
H144	H	1.241893	-0.016315	0.216837
H145	H	0.774517	-0.611024	-0.299051
H146	H	1.274517	-0.111024	0.200949
H147	H	0.820251	-0.695079	-0.169432
H148	H	1.320251	-0.195079	0.330568
O149	O	0.618204	0.097336	-0.184120
O150	O	1.118204	0.597336	0.315880
C151	C	0.570470	0.096609	-0.266462
C152	C	1.070470	0.596609	0.233538
H153	H	0.515592	0.117939	-0.239122
H154	H	1.015592	0.617939	0.260878
H155	H	0.586979	0.130811	-0.331712
H156	H	1.086979	0.630811	0.168288
H157	H	0.570239	0.040492	-0.295135
H158	H	1.070239	0.540492	0.204865
H159	H	0.820225	-0.695125	0.169071
H160	H	1.320225	-0.195125	0.669071
H161	H	0.480478	0.095270	-0.169390
H162	H	0.980478	0.595270	0.330610
O163	O	0.030663	0.088473	0.183690
O164	O	0.530663	0.588473	0.683690
C165	C	-0.003369	0.027401	0.189260
C166	C	0.496631	0.527401	0.689260
H167	H	0.024250	-0.014525	0.136322
H168	H	0.524250	0.485475	0.636322
H169	H	-0.001487	0.007089	0.271768
H170	H	0.498513	0.507089	0.771768
H171	H	-0.060387	0.040252	0.164195
H172	H	0.439613	0.540252	0.664195
O173	O	0.474668	0.095052	0.183745
O174	O	0.974668	0.595052	0.683745
C175	C	0.440638	0.033978	0.189317
C176	C	0.940638	0.533978	0.689317
H177	H	0.468261	-0.007949	0.136386
H178	H	0.968261	0.492051	0.636386
H179	H	0.442516	0.013670	0.271828
H180	H	0.942516	0.513670	0.771828
H181	H	0.383621	0.046826	0.164246
H182	H	0.883621	0.546826	0.664246
H183	H	0.168579	0.090650	-0.169436
H184	H	0.668579	0.590650	0.330564
H185	H	0.168507	0.090644	0.169072
H186	H	0.668507	0.590644	0.669072
H187	H	0.612516	0.097231	0.169137
H188	H	1.112516	0.597231	0.669137
H189	H	0.828765	-0.118962	-0.169393
H190	H	1.328765	0.381038	0.330607
H191	H	0.826806	-0.251070	-0.169401
H192	H	1.326806	0.248930	0.330599
