data_functionalizedCrystal
_audit_creation_method	'MofGen! by Chris Wilmer'
_symmetry_space_group_name_H-M	'P1'
_symmetry_Int_Tables_number	1
_symmetry_cell_setting	triclinic
loop_
_symmetry_equiv_pos_as_xyz
  x,y,z
_cell_length_a	6.817900
_cell_length_b	17.253917
_cell_length_c	17.110486
_cell_angle_alpha	100.003024
_cell_angle_beta	99.060439
_cell_angle_gamma	102.659311
loop_
_atom_site_label
_atom_site_type_symbol
_atom_site_fract_x
_atom_site_fract_y
_atom_site_fract_z
V1	V	-3.976353	-0.111047	-0.254214
O2	O	-3.965401	0.005583	-0.241647
O3	O	-3.927661	-0.220425	-0.259908
O4	O	-3.906220	-0.109231	-0.361694
O5	O	-3.986991	-0.106381	-0.139155
V6	V	-4.462835	-0.097110	-0.239549
O7	O	-4.231121	-0.141620	-0.286382
O8	O	-4.658264	-0.066537	-0.207381
O9	O	-4.288319	0.012268	-0.233855
O10	O	-4.591183	-0.213740	-0.252116
O11	O	-4.569593	-0.101776	-0.354608
O12	O	-4.309761	-0.098926	-0.132068
C13	C	-3.773295	-0.247092	-0.257815
C14	C	-3.814626	-0.336510	-0.263187
C15	C	-3.808494	-0.367101	-0.192476
C16	C	-3.847349	-0.451119	-0.197526
C17	C	-3.892319	-0.504543	-0.273287
C18	C	-3.898456	-0.473946	-0.344004
C19	C	-3.859616	-0.389930	-0.338953
C20	C	-4.011232	-0.757040	-0.296246
C21	C	-4.050066	-0.841061	-0.301291
C22	C	-3.998960	-0.818228	-0.154812
C23	C	-3.960110	-0.734211	-0.149768
C24	C	-3.966260	-0.703622	-0.220485
N25	N	-3.932029	-0.590423	-0.278451
N26	N	-3.926566	-0.617744	-0.215321
C27	C	-3.745942	-0.105252	-0.387653
C28	C	-3.769882	-0.104491	-0.475568
C29	C	-3.962406	-0.108148	-0.521173
C30	C	-3.984888	-0.107432	-0.603778
C31	C	-3.814847	-0.103065	-0.640778
C32	C	-3.622307	-0.099406	-0.595166
C33	C	-3.599825	-0.100116	-0.512562
C34	C	-3.873658	-0.100715	-0.889974
C35	C	-3.896157	-0.100008	-0.972585
C36	C	-4.258736	-0.108033	-0.981190
C37	C	-4.236239	-0.108747	-0.898585
C38	C	-4.043700	-0.105083	-0.852980
C39	C	-3.837824	-0.102336	-0.725214
C40	C	-4.020722	-0.105807	-0.768544
C41	C	-4.106029	0.038931	-0.235946
C42	C	-4.043935	0.128348	-0.230580
C43	C	-4.133381	-0.102907	-0.106106
C44	C	-4.088680	-0.103665	-0.018190
H45	H	-3.923506	-0.690717	-0.088075
H46	H	-3.842358	-0.476022	-0.139945
H47	H	-3.993960	-0.843143	-0.097238
H48	H	-4.016216	-0.732144	-0.353828
H49	H	-4.086678	-0.884558	-0.362988
Br50	Br	-4.246184	-0.112404	-0.665669
H51	H	-3.935088	-0.517451	-0.405691
Br52	Br	-3.391532	-0.093477	-0.645379
H53	H	-3.864631	-0.365025	-0.396534
H54	H	-4.100878	-0.111709	-0.491055
H55	H	-3.757677	-0.096449	-1.002707
H56	H	-4.374708	-0.112302	-0.868465
Br57	Br	-4.520026	-0.113003	-1.043086
H58	H	-3.716899	-0.097761	-0.852858
Br59	Br	-3.338527	-0.095141	-0.450666
H60	H	-4.159166	-0.109360	-0.738415
H61	H	-3.699382	-0.098784	-0.755349
Br62	Br	-3.747443	-0.294604	-0.089651
