data_functionalizedCrystal
_audit_creation_method	'MofGen! by Chris Wilmer'
_symmetry_space_group_name_H-M	'P1'
_symmetry_Int_Tables_number	1
_symmetry_cell_setting	triclinic
loop_
_symmetry_equiv_pos_as_xyz
  x,y,z
_cell_length_a	14.971486
_cell_length_b	14.971486
_cell_length_c	13.448316
_cell_angle_alpha	89.998144
_cell_angle_beta	89.999879
_cell_angle_gamma	96.385872
loop_
_atom_site_label
_atom_site_type_symbol
_atom_site_fract_x
_atom_site_fract_y
_atom_site_fract_z
O1	O	-1.186946	0.116561	0.082565
O2	O	-0.686946	0.616561	0.582565
O3	O	-0.926545	0.130520	0.082591
O4	O	-0.426545	0.630520	0.582591
O5	O	-1.063725	-0.006660	0.082584
O6	O	-0.563725	0.493340	0.582584
O7	O	-1.049766	0.253741	0.082571
O8	O	-0.549766	0.753741	0.582571
O9	O	-1.063711	-0.006661	-0.082799
O10	O	-0.563711	0.493339	0.417201
O11	O	-0.926532	0.130519	-0.082793
O12	O	-0.426532	0.630519	0.417207
O13	O	-1.186932	0.116560	-0.082819
O14	O	-0.686932	0.616560	0.417181
Cu15	Cu	-1.056731	0.123539	-0.097907
Cu16	Cu	-0.556731	0.623539	0.402093
Cu17	Cu	-1.056747	0.123541	0.097679
Cu18	Cu	-0.556747	0.623541	0.597679
O19	O	-1.049752	0.253739	-0.082813
O20	O	-0.549752	0.753739	0.417187
C21	C	-0.893214	0.129895	-0.000098
C22	C	-0.393214	0.629895	0.499902
C23	C	-0.793917	0.128024	-0.000087
C24	C	-0.293917	0.628024	0.499913
C25	C	-1.050384	0.287065	-0.000123
C26	C	-0.550384	0.787065	0.499877
C27	C	-1.052254	0.386362	-0.000128
C28	C	-0.552254	0.886362	0.499872
C29	C	-1.063094	-0.039985	-0.000103
C30	C	-0.563094	0.460015	0.499897
C31	C	-1.061223	-0.139282	-0.000091
C32	C	-0.561223	0.360718	0.499909
C33	C	-1.220263	0.117185	-0.000128
C34	C	-0.720263	0.617185	0.499872
C35	C	-1.319561	0.119056	-0.000132
C36	C	-0.819561	0.619056	0.499868
C37	C	-0.736691	0.208614	-0.000093
C38	C	-0.236691	0.708614	0.499907
C39	C	-0.643392	0.206850	-0.000108
C40	C	-0.143392	0.706850	0.499892
C41	C	-0.607320	0.124497	-0.000110
C42	C	-0.107320	0.624497	0.499890
C43	C	-0.664552	0.043902	-0.000107
C44	C	-0.164552	0.543902	0.499893
C45	C	-0.757850	0.045666	-0.000100
C46	C	-0.257850	0.545666	0.499900
C47	C	-0.470090	0.040231	-0.000121
C48	C	0.029910	0.540231	0.499879
C49	C	-0.376786	0.038466	-0.000127
C50	C	0.123214	0.538466	0.499873
C51	C	-0.355632	0.201415	-0.000129
C52	C	0.144368	0.701415	0.499871
C53	C	-0.448930	0.203179	-0.000121
C54	C	0.051070	0.703179	0.499879
C55	C	-0.506156	0.122584	-0.000117
C56	C	-0.006156	0.622584	0.499883
C57	C	-0.971665	0.443587	-0.000119
C58	C	-0.471665	0.943587	0.499881
C59	C	-0.973428	0.536887	-0.000106
C60	C	-0.473428	1.036887	0.499894
C61	C	-1.055781	0.572959	-0.000109
C62	C	-0.555781	1.072959	0.499891
C63	C	-1.136377	0.515726	-0.000115
C64	C	-0.636377	1.015726	0.499885
C65	C	-1.134613	0.422429	-0.000121
C66	C	-0.634613	0.922429	0.499879
C67	C	-1.140048	0.710189	-0.000104
C68	C	-0.640048	1.210189	0.499896
C69	C	-1.141812	0.803493	-0.000100
C70	C	-0.641812	1.303493	0.499900
C71	C	-0.978863	0.824647	-0.000090
C72	C	-0.478863	1.324647	0.499910
C73	C	-0.977099	0.731349	-0.000096
C74	C	-0.477099	1.231349	0.499904
C75	C	-1.057695	0.674123	-0.000103
C76	C	-0.557695	1.174123	0.499897
N77	N	-1.056726	0.123538	-0.235471
N78	N	-0.556726	0.623538	0.264529
C79	C	-1.111028	0.177879	-0.287516
C80	C	-0.611028	0.677879	0.212484
C81	C	-1.111039	0.177875	-0.391619
C82	C	-0.611039	0.677875	0.108381
C83	C	-1.056743	0.123534	-0.443676
C84	C	-0.556743	0.623534	0.056324
C85	C	-1.002438	0.069187	-0.391624
C86	C	-0.502438	0.569187	0.108376
C87	C	-1.002432	0.069186	-0.287522
C88	C	-0.502432	0.569186	0.212478
C89	C	-1.002452	0.069193	-0.608604
C90	C	-0.502452	0.569193	-0.108604
C91	C	-1.002456	0.069194	-0.712712
C92	C	-0.502456	0.569194	-0.212712
C93	C	-1.111059	0.177881	-0.712700
C94	C	-0.611059	0.677881	-0.212700
C95	C	-1.111053	0.177881	-0.608599
C96	C	-0.611053	0.677881	-0.108599
C97	C	-1.056747	0.123535	-0.556554
C98	C	-0.556747	0.623535	-0.056554
N99	N	-1.056759	0.123535	0.235243
N100	N	-0.556759	0.623535	0.735243
H101	H	-0.596802	0.272474	-0.000111
H102	H	-0.096802	0.772474	0.499889
H103	H	-0.910040	0.701982	-0.000098
H104	H	-0.410040	1.201982	0.499902
H105	H	-1.155237	0.222135	-0.245139
H106	H	-0.655237	0.722135	0.254861
N107	N	-0.487827	0.292007	-0.000118
N108	N	0.012173	0.792007	0.499882
H109	H	-0.526070	0.296371	-0.061423
H110	H	-0.026070	0.796371	0.438577
H111	H	-0.526016	0.296317	0.061234
H112	H	-0.026016	0.796317	0.561234
N113	N	-0.531815	-0.046695	-0.000123
N114	N	-0.031815	0.453305	0.499877
H115	H	-0.494808	-0.099134	-0.000122
H116	H	0.005192	0.400866	0.499878
H117	H	-0.570982	-0.049511	0.061191
H118	H	-0.070982	0.450489	0.561191
H119	H	-0.958214	0.024937	-0.245149
H120	H	-0.458214	0.524937	0.254851
H121	H	-0.958242	0.024946	-0.755094
H122	H	-0.458242	0.524946	-0.255094
N123	N	-1.169652	0.236442	-0.447754
N124	N	-0.669652	0.736442	0.052246
H125	H	-1.204057	0.270856	-0.398980
H126	H	-0.704057	0.770856	0.101020
H127	H	-1.130741	0.280113	-0.490979
H128	H	-0.630741	0.780113	0.009021
H129	H	-0.958233	0.024937	-0.434017
H130	H	-0.458233	0.524937	0.065983
H131	H	-1.205678	0.663597	-0.000103
H132	H	-0.705678	1.163597	0.499897
H133	H	-0.347419	-0.028593	-0.000130
H134	H	0.152581	0.471407	0.499870
N135	N	-1.221533	0.360702	-0.000126
N136	N	-0.721533	0.860702	0.499874
H137	H	-1.273972	0.397709	-0.000128
H138	H	-0.773972	0.897709	0.499872
H139	H	-1.224348	0.321535	-0.061437
H140	H	-0.724348	0.821535	0.438563
N141	N	-0.882836	0.404692	-0.000125
N142	N	-0.382836	0.904692	0.499875
H143	H	-0.847529	0.425548	0.061187
H144	H	-0.347529	0.925548	0.561187
H145	H	-0.894015	0.336911	-0.000172
H146	H	-0.394015	0.836911	0.499828
N147	N	-1.225201	0.554631	-0.000127
N148	N	-0.725201	1.054631	0.499873
H149	H	-1.275986	0.504219	-0.000133
H150	H	-0.775986	1.004219	0.499867
H151	H	-1.229489	0.592877	0.061182
H152	H	-0.729489	1.092877	0.561182
N153	N	-0.819569	-0.041259	-0.000091
N154	N	-0.319569	0.458741	0.499909
H155	H	-0.858749	-0.044162	0.061218
H156	H	-0.358749	0.455838	0.561218
H157	H	-0.858692	-0.044107	-0.061439
H158	H	-0.358692	0.455893	0.438561
H159	H	-1.155262	0.222134	-0.566217
H160	H	-0.655262	0.722134	-0.066217
N161	N	-0.886507	0.598609	-0.000095
N162	N	-0.386507	1.098609	0.499905
H163	H	-0.834070	0.561600	-0.000100
H164	H	-0.334070	1.061600	0.499900
H165	H	-0.883688	0.637787	-0.061400
H166	H	-0.383688	1.137787	0.438600
H167	H	-0.913239	0.871245	-0.000087
H168	H	-0.413239	1.371245	0.499913
N169	N	-1.230633	0.842403	-0.000102
N170	N	-0.730633	1.342403	0.499898
H171	H	-1.281423	0.791996	-0.000100
H172	H	-0.781423	1.291996	0.499900
H173	H	-1.234909	0.880650	0.061209
H174	H	-0.734909	1.380650	0.561209
H175	H	-0.635175	-0.023152	-0.000123
H176	H	-0.135175	0.476848	0.499877
H177	H	-0.309033	0.267039	-0.000137
H178	H	0.190967	0.767039	0.499863
N179	N	-1.169653	0.236460	-0.768854
N180	N	-0.669653	0.736460	-0.268854
H181	H	-1.234705	0.218908	-0.750724
H182	H	-0.734705	0.718908	-0.250724
H183	H	-1.152021	0.301501	-0.750748
H184	H	-0.652021	0.801501	-0.250748
N185	N	-0.775595	0.297438	-0.000079
N186	N	-0.275595	0.797438	0.499921
H187	H	-0.725182	0.348223	-0.000086
H188	H	-0.225182	0.848223	0.499914
H189	H	-0.813849	0.301722	-0.061384
H190	H	-0.313849	0.801722	0.438616
N191	N	-0.943885	0.010573	-0.552467
N192	N	-0.443885	0.510573	-0.052467
H193	H	-0.909487	-0.023850	-0.601239
H194	H	-0.409487	0.476150	-0.101239
H195	H	-0.900199	0.049502	-0.509278
H196	H	-0.400199	0.549502	-0.009278
