data_functionalizedCrystal
_audit_creation_method	'MofGen! by Chris Wilmer'
_symmetry_space_group_name_H-M	'P1'
_symmetry_Int_Tables_number	1
_symmetry_cell_setting	triclinic
loop_
_symmetry_equiv_pos_as_xyz
  x,y,z
_cell_length_a	19.121063
_cell_length_b	19.077241
_cell_length_c	19.076919
_cell_angle_alpha	90.113904
_cell_angle_beta	94.606347
_cell_angle_gamma	85.144908
loop_
_atom_site_label
_atom_site_type_symbol
_atom_site_fract_x
_atom_site_fract_y
_atom_site_fract_z
Zn1	Zn	-0.255845	-1.046918	-0.451026
Zn2	Zn	-0.368787	-1.046538	-0.338137
Zn3	Zn	-0.255474	-0.934150	-0.328788
Zn4	Zn	-0.378188	-0.923939	-0.451257
O5	O	-0.314574	-0.987886	-0.392302
O6	O	-0.267049	-1.145369	-0.439867
O7	O	-0.349667	-1.035743	-0.238399
O8	O	-0.156900	-0.953541	-0.340994
O9	O	-0.350027	-1.145090	-0.356928
O10	O	-0.157173	-1.036392	-0.430801
O11	O	-0.266416	-0.953173	-0.231530
O12	O	-0.275531	-0.834294	-0.341218
O13	O	-0.366048	-0.936138	-0.549724
O14	O	-0.365688	-0.826792	-0.431195
O15	O	-0.276164	-1.026490	-0.549554
O16	O	-0.468657	-1.025842	-0.357152
O17	O	-0.475563	-0.935770	-0.440260
C18	C	-0.321590	-0.805003	-0.385218
C19	C	-0.324609	-0.726763	-0.382204
C20	C	-0.282899	-0.690146	-0.424042
C21	C	-0.285733	-0.616631	-0.421205
C22	C	-0.330279	-0.579735	-0.376533
C23	C	-0.371990	-0.616358	-0.334690
C24	C	-0.369153	-0.689871	-0.337524
C25	C	-0.343387	-0.359859	-0.363414
C26	C	-0.346222	-0.286341	-0.360585
C27	C	-0.259963	-0.286620	-0.447099
C28	C	-0.257133	-0.360134	-0.449932
C29	C	-0.298841	-0.396750	-0.408087
N30	N	-0.333178	-0.504592	-0.373633
N31	N	-0.295938	-0.471893	-0.410983
C32	C	-0.497682	-0.979675	-0.399762
C33	C	-0.576015	-0.976226	-0.402979
C34	C	-0.609197	-1.021534	-0.361259
C35	C	-0.682800	-1.018294	-0.364289
C36	C	-0.723218	-0.969741	-0.409036
C37	C	-0.690031	-0.924431	-0.450761
C38	C	-0.616430	-0.927675	-0.447734
C39	C	-0.945627	-0.957602	-0.420342
C40	C	-1.019233	-0.954360	-0.423365
C41	C	-1.011996	-1.048225	-0.336893
C42	C	-0.938394	-1.051462	-0.333867
C43	C	-0.905214	-1.006153	-0.375595
C44	C	-0.798452	-0.966427	-0.412133
C45	C	-0.829981	-1.009472	-0.372501
C46	C	-0.130750	-0.996148	-0.384829
C47	C	-0.052416	-0.999669	-0.381645
C48	C	-0.322196	-0.980218	-0.575893
C49	C	-0.325444	-0.976950	-0.654128
C50	C	-0.307526	-0.171484	-0.399409
C51	C	-0.304513	-0.249724	-0.402422
C52	C	-0.280174	-1.022454	-0.690796
C53	C	-0.283224	-1.019375	-0.764306
C54	C	-0.331547	-0.970795	-0.801147
C55	C	-0.376819	-0.925286	-0.764474
C56	C	-0.373766	-0.928362	-0.690965
C57	C	-0.345695	-0.956548	-1.021005
C58	C	-0.348746	-0.953477	-1.094519
C59	C	-0.255150	-1.047565	-1.094346
C60	C	-0.252103	-1.050639	-1.020836
C61	C	-0.297373	-1.005128	-0.984169
N62	N	-0.334667	-0.967648	-0.876286
N63	N	-0.294249	-1.008272	-0.909031
C64	C	-0.306928	-0.995567	-0.209425
C65	C	-0.303477	-0.998980	-0.131187
H66	H	-0.246627	-0.720181	-0.460421
C67	C	-0.785518	-1.062877	-0.323279
N68	N	-0.752022	-1.103100	-0.286202
C69	C	-0.415038	-0.730149	-0.291501
N70	N	-0.449599	-0.760486	-0.256833
H71	H	-0.408258	-0.586311	-0.298313
C72	C	-0.564743	-1.074945	-0.312032
N73	N	-0.531261	-1.115178	-0.274954
C74	C	-0.239851	-0.576356	-0.467232
N75	N	-0.205291	-0.546020	-0.501902
H76	H	-0.388099	-0.913915	-1.124513
C77	C	-0.893938	-1.104856	-0.284623
N78	N	-0.860454	-1.145066	-0.247523
C79	C	-0.389270	-0.400128	-0.317386
N80	N	-0.423833	-0.430460	-0.282716
C81	C	-0.842920	-0.913012	-0.461346
N82	N	-0.876416	-0.872779	-0.498411
H83	H	-0.722946	-0.884901	-0.487198
C84	C	-1.048501	-1.098063	-0.290999
N85	N	-1.075997	-1.135604	-0.256430
H86	H	-0.709813	-1.055189	-0.330316
H87	H	-0.382501	-0.256302	-0.324207
H88	H	-0.220861	-0.390170	-0.486312
C89	C	-0.233424	-1.069434	-0.804638
N90	N	-0.195913	-1.107141	-0.835015
H91	H	-0.212755	-1.090200	-0.990845
H92	H	-0.382566	-0.919499	-0.991160
C93	C	-0.214075	-0.246337	-0.493113
N94	N	-0.179505	-0.215996	-0.527767
C95	C	-1.063693	-0.900950	-0.472597
N96	N	-1.097180	-0.860724	-0.509677
C97	C	-0.579931	-0.877832	-0.493630
N98	N	-0.552440	-0.840290	-0.528202
H99	H	-0.918618	-0.920709	-0.454317
H100	H	-0.240826	-1.062015	-0.660805
H101	H	-0.416163	-0.885729	-0.794476
C102	C	-0.423567	-0.878306	-0.650631
N103	N	-0.461078	-0.840600	-0.620252
C104	C	-0.205349	-1.097615	-1.134685
N105	N	-0.167833	-1.135312	-1.165068
