data_functionalizedCrystal
_audit_creation_method	'MofGen! by Chris Wilmer'
_symmetry_space_group_name_H-M	'P1'
_symmetry_Int_Tables_number	1
_symmetry_cell_setting	triclinic
loop_
_symmetry_equiv_pos_as_xyz
  x,y,z
_cell_length_a	16.109301
_cell_length_b	10.723023
_cell_length_c	15.186229
_cell_angle_alpha	89.997261
_cell_angle_beta	89.999006
_cell_angle_gamma	83.964566
loop_
_atom_site_label
_atom_site_type_symbol
_atom_site_fract_x
_atom_site_fract_y
_atom_site_fract_z
O1	O	1.104074	0.160392	-0.073178
O2	O	1.604074	0.660392	0.426822
O3	O	0.862129	0.180352	-0.073190
O4	O	1.362129	0.680352	0.426810
O5	O	0.988683	-0.011278	-0.073180
O6	O	1.488683	0.488722	0.426820
O7	O	0.977521	0.352022	-0.073188
O8	O	1.477521	0.852022	0.426812
O9	O	0.988674	-0.011281	0.073277
O10	O	1.488674	0.488719	0.573277
O11	O	0.862121	0.180350	0.073267
O12	O	1.362121	0.680350	0.573267
O13	O	1.104065	0.160389	0.073279
O14	O	1.604065	0.660389	0.573279
Zn15	Zn	0.983092	0.170369	0.096526
Zn16	Zn	1.483092	0.670369	0.596526
Zn17	Zn	0.983103	0.170373	-0.096438
Zn18	Zn	1.483103	0.670373	0.403562
O19	O	0.977512	0.352020	0.073269
O20	O	1.477512	0.852020	0.573269
C21	C	0.831146	0.179542	0.000037
C22	C	1.331146	0.679542	0.500037
C23	C	0.738836	0.177118	0.000032
C24	C	1.238836	0.677118	0.500032
C25	C	0.430460	0.282903	0.000045
C26	C	0.930460	0.782903	0.500045
C27	C	0.517194	0.285193	0.000040
C28	C	1.017194	0.785193	0.500040
C29	C	0.535730	0.057830	0.000033
C30	C	1.035730	0.557830	0.500033
C31	C	0.448997	0.055542	0.000032
C32	C	0.948997	0.555542	0.500032
C33	C	0.396364	0.168082	0.000043
C34	C	0.896364	0.668082	0.500043
C35	C	0.569830	0.172660	0.000038
C36	C	1.069830	0.672660	0.500038
C37	C	0.663871	0.175141	0.000033
C38	C	1.163871	0.675141	0.500033
C39	C	0.302318	0.165601	0.000046
C40	C	0.802318	0.665601	0.500046
C41	C	0.987866	-0.057768	0.000047
C42	C	1.487866	0.442232	0.500047
C43	C	0.985436	-0.196290	0.000044
C44	C	1.485436	0.303710	0.500044
C45	C	0.984358	-0.258040	-0.075826
C46	C	1.484358	0.241960	0.424174
C47	C	0.981846	-0.401210	-0.075831
C48	C	1.481846	0.098790	0.424169
C49	C	1.135049	0.161199	0.000050
C50	C	1.635049	0.661199	0.500050
C51	C	1.227359	0.163624	0.000049
C52	C	1.727359	0.663624	0.500049
C53	C	0.978328	0.398510	0.000040
C54	C	1.478328	0.898510	0.500040
C55	C	0.980758	0.537032	0.000037
C56	C	1.480758	1.037032	0.500037
N57	N	0.983090	0.170366	0.228219
N58	N	1.483090	0.670366	0.728219
N59	N	0.983111	0.170366	-0.228130
N60	N	1.483111	0.670366	0.271870
C61	C	1.039147	0.085541	0.453946
C62	C	1.539147	0.585541	0.953946
C63	C	1.039150	0.085538	0.546136
C64	C	1.539150	0.585538	1.046136
C65	C	0.927048	0.255195	0.546136
C66	C	1.427048	0.755195	1.046136
C67	C	0.927042	0.255191	0.453948
C68	C	1.427042	0.755191	0.953948
C69	C	0.983096	0.170365	0.407856
C70	C	1.483096	0.670365	0.907856
C71	C	0.983105	0.170366	0.592233
C72	C	1.483105	0.670366	1.092233
C73	C	0.983107	0.170364	0.692189
C74	C	1.483107	0.670364	1.192189
C75	C	0.983093	0.170366	0.307893
C76	C	1.483093	0.670366	0.807893
H77	H	0.387608	0.374541	0.000053
H78	H	0.887608	0.874541	0.500053
Br79	Br	0.980310	-0.489713	-0.184102
Br80	Br	1.480310	0.010287	0.315898
H81	H	0.984496	-0.249416	0.064996
H82	H	1.484496	0.250584	0.564996
H83	H	0.881394	0.324266	0.416419
H84	H	1.381394	0.824266	0.916419
Br85	Br	0.607164	-0.094896	0.000026
Br86	Br	1.107164	0.405104	0.500026
Br87	Br	1.115219	-0.029582	0.391395
Br88	Br	1.615219	0.470418	0.891395
Br89	Br	0.563463	0.441028	0.000037
Br90	Br	1.063463	0.941028	0.500037
H91	H	1.084791	0.016464	0.583660
H92	H	1.584791	0.516464	1.083660
H93	H	0.421237	-0.037965	0.000027
H94	H	0.921237	0.462035	0.500027
H95	H	0.981690	-0.409873	0.064996
H96	H	1.481690	0.090127	0.564996
Br97	Br	0.985936	-0.169510	-0.184091
Br98	Br	1.485936	0.330490	0.315909
H99	H	0.881411	0.324260	0.583674
H100	H	1.381411	0.824260	1.083674
