data_functionalizedCrystal
_audit_creation_method	'MofGen! by Chris Wilmer'
_symmetry_space_group_name_H-M	'P1'
_symmetry_Int_Tables_number	1
_symmetry_cell_setting	triclinic
loop_
_symmetry_equiv_pos_as_xyz
  x,y,z
_cell_length_a	17.699083
_cell_length_b	27.732048
_cell_length_c	16.776229
_cell_angle_alpha	89.988391
_cell_angle_beta	89.998886
_cell_angle_gamma	82.962835
loop_
_atom_site_label
_atom_site_type_symbol
_atom_site_fract_x
_atom_site_fract_y
_atom_site_fract_z
O1	O	1.003540	0.061127	-0.066185
O2	O	1.503540	0.561127	0.433815
O3	O	0.783091	0.069080	-0.066212
O4	O	1.283091	0.569080	0.433788
O5	O	0.900162	-0.005269	-0.066183
O6	O	1.400162	0.494731	0.433817
O7	O	0.886469	0.135475	-0.066215
O8	O	1.386469	0.635475	0.433785
O9	O	0.900147	-0.005273	0.066394
O10	O	1.400147	0.494727	0.566394
O11	O	0.783076	0.069075	0.066364
O12	O	1.283076	0.569075	0.566364
O13	O	1.003524	0.061122	0.066391
O14	O	1.503524	0.561122	0.566391
Zn15	Zn	0.893298	0.065098	0.087427
Zn16	Zn	1.393298	0.565098	0.587427
Zn17	Zn	0.893318	0.065104	-0.087248
Zn18	Zn	1.393318	0.565104	0.412752
O19	O	0.886453	0.135471	0.066362
O20	O	1.386453	0.635471	0.566362
C21	C	0.754889	0.068792	0.000073
C22	C	1.254889	0.568792	0.500073
C23	C	0.670878	0.067938	0.000063
C24	C	1.170878	0.567938	0.500063
C25	C	0.621873	0.111579	0.000053
C26	C	1.121873	0.611579	0.500053
C27	C	0.542936	0.110772	0.000064
C28	C	1.042936	0.610772	0.500064
C29	C	0.513007	0.066325	0.000078
C30	C	1.013007	0.566325	0.500078
C31	C	0.562019	0.022680	0.000090
C32	C	1.062019	0.522680	0.500090
C33	C	0.640954	0.023487	0.000085
C34	C	1.140954	0.523487	0.500085
C35	C	0.243685	0.019426	0.000111
C36	C	0.743685	0.519426	0.500111
C37	C	0.164744	0.018623	0.000113
C38	C	0.664744	0.518623	0.500113
C39	C	0.145667	0.106712	0.000089
C40	C	0.645667	0.606712	0.500089
C41	C	0.224602	0.107518	0.000084
C42	C	0.724602	0.607518	0.500084
C43	C	0.273607	0.063874	0.000100
C44	C	0.773607	0.563874	0.500100
C45	C	0.359199	0.064749	0.000090
C46	C	0.859199	0.564749	0.500090
C47	C	0.427418	0.065450	0.000082
C48	C	0.927418	0.565450	0.500082
C49	C	0.899867	-0.023279	0.000108
C50	C	1.399867	0.476721	0.500108
C51	C	0.899001	-0.076937	0.000114
C52	C	1.399001	0.423063	0.500114
C53	C	0.962734	-0.415523	0.000081
C54	C	1.462734	0.084477	0.500081
C55	C	0.959522	-0.617194	0.000070
C56	C	1.459522	-0.117194	0.500070
O57	O	1.017801	-0.648240	0.000042
O58	O	1.517801	-0.148240	0.500042
N59	N	0.890104	-0.636567	0.000062
N60	N	1.390104	-0.136567	0.500062
C61	C	0.821484	-0.605520	0.000051
C62	C	1.321484	-0.105520	0.500051
O63	O	0.762366	-0.626625	0.000036
O64	O	1.262366	-0.126625	0.500036
C65	C	0.824696	-0.403849	0.000057
C66	C	1.324696	0.096151	0.500057
C67	C	0.894119	-0.384479	0.000073
C68	C	1.394119	0.115521	0.500073
C69	C	1.032151	-0.396152	0.000096
C70	C	1.532151	0.103848	0.500096
C71	C	1.032953	-0.345737	0.000103
C72	C	1.532953	0.154263	0.500103
C73	C	0.964338	-0.314693	0.000095
C74	C	1.464338	0.185307	0.500095
C75	C	0.894921	-0.334064	0.000080
C76	C	1.394921	0.165936	0.500080
C77	C	0.756076	-0.372802	0.000041
C78	C	1.256076	0.127198	0.500041
C79	C	0.756886	-0.322382	0.000041
C80	C	1.256886	0.177618	0.500041
C81	C	0.826308	-0.303012	0.000057
C82	C	1.326308	0.196988	0.500057
C83	C	0.827108	-0.252605	0.000080
C84	C	1.327108	0.247395	0.500080
N85	N	0.896526	-0.233232	0.000088
N86	N	1.396526	0.266768	0.500088
C87	C	0.965141	-0.264276	0.000095
C88	C	1.465141	0.235724	0.500095
C89	C	0.819802	-0.711400	0.000050
C90	C	1.319802	-0.211400	0.500050
C91	C	0.818999	-0.761817	0.000050
C92	C	1.318999	-0.261817	0.500050
C93	C	0.957038	-0.773488	0.000067
C94	C	1.457038	-0.273488	0.500067
C95	C	0.957840	-0.723070	0.000072
C96	C	1.457840	-0.223070	0.500072
C97	C	0.889220	-0.692026	0.000058
C98	C	1.389220	-0.192026	0.500058
C99	C	0.966820	-0.158401	0.000111
C100	C	1.466820	0.341599	0.500111
C101	C	0.967616	-0.107981	0.000122
C102	C	1.467616	0.392019	0.500122
C103	C	0.829578	-0.096314	0.000101
C104	C	1.329578	0.403686	0.500101
C105	C	0.828781	-0.146730	0.000095
C106	C	1.328781	0.353270	0.500095
C107	C	0.897409	-0.177772	0.000097
C108	C	1.397409	0.322228	0.500097
O109	O	0.768860	-0.221531	0.000099
O110	O	1.268860	0.278469	0.500099
O111	O	1.024251	-0.243161	0.000093
O112	O	1.524251	0.256839	0.500093
C113	C	0.961931	-0.465938	0.000074
C114	C	1.461931	0.034062	0.500074
C115	C	0.892514	-0.485309	0.000059
C116	C	1.392514	0.014691	0.500059
C117	C	0.823899	-0.454265	0.000051
C118	C	1.323899	0.045735	0.500051
C119	C	0.891711	-0.535726	0.000059
C120	C	1.391711	-0.035726	0.500059
C121	C	0.960326	-0.566770	0.000067
C122	C	1.460326	-0.066770	0.500067
C123	C	1.029744	-0.547397	0.000074
C124	C	1.529744	-0.047397	0.500074
C125	C	1.030546	-0.496982	0.000082
C126	C	1.530546	0.003018	0.500082
C127	C	0.754481	-0.473638	0.000043
C128	C	1.254481	0.026362	0.500043
C129	C	0.753685	-0.524053	0.000037
C130	C	1.253685	-0.024053	0.500037
C131	C	0.822300	-0.555097	0.000045
C132	C	1.322300	-0.055097	0.500045
C133	C	1.031726	0.061410	0.000105
C134	C	1.531726	0.561410	0.500105
C135	C	1.115737	0.062264	0.000109
C136	C	1.615737	0.562264	0.500109
C137	C	0.886748	0.153481	0.000069
C138	C	1.386748	0.653481	0.500069
C139	C	0.887614	0.207139	0.000058
C140	C	1.387614	0.707139	0.500058
N141	N	0.893289	0.065094	0.206638
N142	N	1.393289	0.565094	0.706638
N143	N	0.893332	0.065105	-0.206459
N144	N	1.393332	0.565105	0.293541
C145	C	0.945144	0.032186	0.248368
C146	C	1.445144	0.532186	0.748368
C147	C	0.945148	0.032185	0.331821
C148	C	1.445148	0.532185	0.831821
C149	C	0.893301	0.065095	0.373541
C150	C	1.393301	0.565095	0.873541
C151	C	0.841441	0.098005	0.331805
C152	C	1.341441	0.598005	0.831805
C153	C	0.841433	0.098003	0.248354
C154	C	1.341433	0.598003	0.748354
C155	C	0.841468	0.098015	0.668352
C156	C	1.341468	0.598015	1.168352
C157	C	0.841481	0.098015	0.751809
C158	C	1.341481	0.598015	1.251809
C159	C	0.945182	0.032197	0.751819
C160	C	1.445182	0.532197	1.251819
C161	C	0.945175	0.032195	0.668368
C162	C	1.445175	0.532195	1.168368
C163	C	0.893313	0.065102	0.626639
C164	C	1.393313	0.565102	1.126639
C165	C	0.893308	0.065102	0.536151
C166	C	1.393308	0.565102	1.036151
C167	C	0.893309	0.065099	0.464028
C168	C	1.393309	0.565099	0.964028
H169	H	0.503039	0.146309	0.000055
H170	H	1.003039	0.646309	0.500055
H171	H	0.799257	0.124816	0.785776
H172	H	1.299257	0.624816	1.285776
C173	C	1.104323	-0.581027	0.000120
C174	C	1.604323	-0.081027	0.500120
C175	C	1.165297	-0.553278	0.000149
C176	C	1.665297	-0.053278	0.500149
C177	C	1.234005	-0.584244	0.000196
C178	C	1.734005	-0.084244	0.500196
H179	H	1.106984	-0.600941	-0.046103
H180	H	1.606984	-0.100941	0.453897
H181	H	1.106913	-0.600939	0.046368
H182	H	1.606913	-0.100939	0.546368
H183	H	1.162708	-0.533375	-0.046095
H184	H	1.662708	-0.033375	0.453905
H185	H	1.162661	-0.533366	0.046368
H186	H	1.662661	-0.033366	0.546368
H187	H	1.236595	-0.604155	0.046444
H188	H	1.736595	-0.104155	0.546444
H189	H	1.236659	-0.604156	-0.046027
H190	H	1.736659	-0.104156	0.453973
H191	H	1.275384	-0.565421	0.000223
H192	H	1.775384	-0.065421	0.500223
C193	C	1.108304	-0.324682	0.000272
C194	C	1.608304	0.175318	0.500272
C195	C	1.112812	-0.296097	0.068489
C196	C	1.612812	0.203903	0.568489
C197	C	1.182222	-0.276702	0.068672
C198	C	1.682222	0.223298	0.568672
H199	H	1.111566	-0.305219	-0.045907
H200	H	1.611566	0.194781	0.454093
H201	H	1.149072	-0.350383	0.000316
H202	H	1.649072	0.149617	0.500316
H203	H	1.072056	-0.270400	0.068438
H204	H	1.572056	0.229600	0.568438
H205	H	1.109564	-0.315549	0.114679
H206	H	1.609564	0.184451	0.614679
H207	H	1.222989	-0.302403	0.068716
H208	H	1.722989	0.197597	0.568716
H209	H	1.185477	-0.257241	0.022490
H210	H	1.685477	0.242759	0.522490
H211	H	1.185293	-0.257308	0.114959
H212	H	1.685293	0.242692	0.614959
C213	C	0.785180	0.133813	0.376994
C214	C	1.285180	0.633813	0.876994
C215	C	0.796875	0.181303	0.356656
C216	C	1.296875	0.681303	0.856656
C217	C	0.745054	0.214303	0.398257
C218	C	1.245054	0.714303	0.898257
H219	H	0.792553	0.129172	0.432684
H220	H	1.292553	0.629172	0.932684
H221	H	0.734716	0.128630	0.363307
H222	H	1.234716	0.628630	0.863307
H223	H	0.847327	0.186484	0.370348
H224	H	1.347327	0.686484	0.870348
H225	H	0.789495	0.185960	0.300973
H226	H	1.289495	0.685960	0.800973
H227	H	0.694590	0.209120	0.384570
H228	H	1.194590	0.709120	0.884570
H229	H	0.752432	0.209657	0.453945
H230	H	1.252432	0.709657	0.953945
H231	H	0.752977	0.246529	0.384458
H232	H	1.252977	0.746529	0.884458
C233	C	0.296923	-0.027941	0.000281
C234	C	0.796923	0.472059	0.500281
C235	C	0.342787	-0.030063	0.068496
C236	C	0.842787	0.469937	0.568496
C237	C	0.391837	-0.073695	0.068683
C238	C	0.891837	0.426305	0.568683
H239	H	0.328182	-0.029501	-0.045899
H240	H	0.828182	0.470499	0.454101
H241	H	0.267821	-0.054542	0.000329
H242	H	0.767821	0.445458	0.500329
H243	H	0.371887	-0.003469	0.068441
H244	H	0.871887	0.496531	0.568441
H245	H	0.311549	-0.028511	0.114687
H246	H	0.811549	0.471489	0.614687
H247	H	0.362735	-0.100295	0.068731
H248	H	0.862735	0.399705	0.568731
H249	H	0.423091	-0.075250	0.022500
H250	H	0.923091	0.424750	0.522500
H251	H	0.422957	-0.075142	0.114970
H252	H	0.922957	0.424858	0.614970
C253	C	1.001364	-0.003592	0.797170
C254	C	1.501364	0.496408	1.297170
C255	C	0.961401	-0.033159	0.845078
C256	C	1.461401	0.466841	1.345078
C257	C	1.013129	-0.066136	0.886857
C258	C	1.513129	0.433864	1.386857
H259	H	1.032685	0.013714	0.829781
H260	H	1.532685	0.513714	1.329781
H261	H	1.032232	-0.023220	0.760397
H262	H	1.532232	0.476780	1.260397
H263	H	0.930546	-0.013534	0.881847
H264	H	1.430546	0.486466	1.381847
H265	H	0.930083	-0.050477	0.812487
H266	H	1.430083	0.449523	1.312487
H267	H	1.043997	-0.085763	0.850084
H268	H	1.543997	0.414237	1.350084
H269	H	1.044448	-0.048825	0.919463
H270	H	1.544448	0.451175	1.419463
H271	H	0.986022	-0.086204	0.919361
H272	H	1.486022	0.413796	1.419361
H273	H	0.698605	-0.448366	0.000035
H274	H	1.198605	0.051634	0.500035
H275	H	0.140380	-0.017574	0.000126
H276	H	0.640380	0.482426	0.500126
H277	H	1.087078	-0.481215	0.000094
H278	H	1.587078	0.018785	0.500094
H279	H	0.537645	-0.013510	0.000113
H280	H	1.037645	0.486490	0.500113
C281	C	0.785256	0.133757	0.202942
C282	C	1.285256	0.633757	0.702942
C283	C	0.825217	0.163305	0.154998
C284	C	1.325217	0.663305	0.654998
C285	C	0.773488	0.196242	0.113146
C286	C	1.273488	0.696242	0.613146
H287	H	0.754357	0.153405	0.239647
H288	H	1.254357	0.653405	0.739647
H289	H	0.753964	0.116404	0.170354
H290	H	1.253964	0.616404	0.670354
H291	H	0.856495	0.180656	0.187583
H292	H	1.356495	0.680656	0.687583
H293	H	0.856113	0.143670	0.118278
H294	H	1.356113	0.643670	0.618278
H295	H	0.742196	0.178889	0.080558
H296	H	1.242196	0.678889	0.580558
H297	H	0.742591	0.215887	0.149857
H298	H	1.242591	0.715887	0.649857
H299	H	0.800593	0.216292	0.080606
H300	H	1.300593	0.716292	0.580606
C301	C	0.092496	0.154114	-0.000085
C302	C	0.592496	0.654114	0.499915
C303	C	0.105925	0.180876	-0.068314
C304	C	0.605925	0.680876	0.431686
C305	C	0.056954	0.224541	-0.068509
C306	C	0.556954	0.724541	0.431491
H307	H	0.101471	0.172401	0.046086
H308	H	0.601471	0.672401	0.546086
H309	H	0.041187	0.147290	-0.000120
H310	H	0.541187	0.647290	0.499880
H311	H	0.157223	0.187701	-0.068271
H312	H	0.657223	0.687701	0.431729
H313	H	0.096945	0.162603	-0.114495
H314	H	0.596945	0.662603	0.385505
H315	H	0.005645	0.217717	-0.068545
H316	H	0.505645	0.717717	0.431455
H317	H	0.065933	0.242824	-0.022336
H318	H	0.565933	0.742824	0.477664
H319	H	0.066054	0.242702	-0.114805
H320	H	0.566054	0.742702	0.385195
H321	H	0.799241	0.124810	0.634383
H322	H	1.299241	0.624810	1.134383
C323	C	0.678383	-0.545174	0.000057
C324	C	1.178383	-0.045174	0.500057
C325	C	0.692354	-0.595972	0.000069
C326	C	1.192354	-0.095972	0.500069
C327	C	0.623008	-0.615443	0.000089
C328	C	1.123008	-0.115443	0.500089
H329	H	0.650112	-0.534555	-0.046168
H330	H	1.150112	-0.034555	0.453832
H331	H	0.650139	-0.534548	0.046303
H332	H	1.150139	-0.034548	0.546303
H333	H	0.720586	-0.606594	-0.046172
H334	H	1.220586	-0.106594	0.453828
H335	H	0.720614	-0.606605	0.046291
H336	H	1.220614	-0.106605	0.546291
H337	H	0.594764	-0.604817	0.046335
H338	H	1.094764	-0.104817	0.546335
H339	H	0.594742	-0.604821	-0.046137
H340	H	1.094742	-0.104821	0.453863
H341	H	0.632478	-0.649912	0.000104
H342	H	1.132478	-0.149912	0.500104
H343	H	0.987371	0.005389	0.365797
H344	H	1.487371	0.505389	0.865797
H345	H	0.987367	0.005388	0.214405
H346	H	1.487367	0.505388	0.714405
H347	H	0.987396	0.005398	0.634402
H348	H	1.487396	0.505398	1.134402
C349	C	0.257133	0.155764	-0.000104
C350	C	0.757133	0.655764	0.499896
C351	C	0.301869	0.158806	-0.068329
C352	C	0.801869	0.658806	0.431671
C353	C	0.331837	0.203246	-0.068536
C354	C	0.831837	0.703246	0.431464
H355	H	0.287584	0.157960	0.046069
H356	H	0.787584	0.657960	0.546069
H357	H	0.216658	0.181652	-0.000153
H358	H	0.716658	0.681652	0.499847
H359	H	0.342339	0.132924	-0.068273
H360	H	0.842339	0.632924	0.431727
H361	H	0.271435	0.156618	-0.114513
H362	H	0.771435	0.656618	0.385487
H363	H	0.291362	0.229135	-0.068585
H364	H	0.791362	0.729135	0.431415
H365	H	0.362285	0.205439	-0.022360
H366	H	0.862285	0.705439	0.477640
H367	H	0.362188	0.205318	-0.114829
H368	H	0.862188	0.705318	0.385171
C369	C	0.694038	-0.023947	0.000051
C370	C	1.194038	0.476053	0.500051
C371	C	0.650935	-0.063046	0.000041
C372	C	1.150935	0.436954	0.500041
C373	C	0.699809	-0.106751	0.000001
C374	C	1.199809	0.393249	0.500001
H375	H	0.725247	-0.025535	0.046269
H376	H	1.225247	0.474465	0.546269
H377	H	0.725215	-0.025488	-0.046202
H378	H	1.225215	0.474512	0.453798
H379	H	0.619772	-0.061506	0.046289
H380	H	1.119772	0.438494	0.546289
H381	H	0.619728	-0.061475	-0.046174
H382	H	1.119728	0.438525	0.453826
H383	H	0.730986	-0.108292	-0.046251
H384	H	1.230986	0.391708	0.453749
H385	H	0.731016	-0.108333	0.046220
H386	H	1.231016	0.391667	0.546220
H387	H	0.670571	-0.133285	-0.000012
H388	H	1.170571	0.366715	0.499988
H389	H	0.646234	0.147773	0.000041
H390	H	1.146234	0.647773	0.500041
H391	H	1.024151	-0.092213	0.000137
H392	H	1.524151	0.407787	0.500137
H393	H	0.772252	-0.162502	0.000104
H394	H	1.272252	0.337498	0.500104
H395	H	1.022703	-0.183670	0.000110
H396	H	1.522703	0.316330	0.500110
H397	H	1.088028	-0.421424	0.000099
H398	H	1.588028	0.078576	0.500099
H399	H	1.014370	-0.707302	0.000085
H400	H	1.514370	-0.207302	0.500085
C401	C	0.743602	-0.782817	-0.000123
C402	C	1.243602	-0.282817	0.499877
C403	C	0.702180	-0.767029	-0.068348
C404	C	1.202180	-0.267029	0.431652
C405	C	0.632722	-0.786367	-0.068545
C406	C	1.132722	-0.286367	0.431455
H407	H	0.715278	-0.772173	0.046050
H408	H	1.215278	-0.272173	0.546050
H409	H	0.752911	-0.817292	-0.000166
H410	H	1.252911	-0.317292	0.499834
H411	H	0.692868	-0.732562	-0.068298
H412	H	1.192868	-0.232562	0.431702
H413	H	0.730480	-0.777673	-0.114532
H414	H	1.230480	-0.277673	0.385468
H415	H	0.642031	-0.820842	-0.068587
H416	H	1.142031	-0.320842	0.431413
H417	H	0.604406	-0.775722	-0.022368
H418	H	1.104406	-0.275722	0.477632
H419	H	0.604612	-0.775662	-0.114838
H420	H	1.104612	-0.275662	0.385162
H421	H	1.012907	-0.798773	0.000073
H422	H	1.512907	-0.298773	0.500073
H423	H	0.763920	-0.686128	0.000038
H424	H	1.263920	-0.186128	0.500038
H425	H	0.701006	-0.297108	0.000028
H426	H	1.201006	0.202892	0.500028
C427	C	0.680623	-0.393730	-0.000021
C428	C	1.180623	0.106270	0.499979
C429	C	0.620715	-0.355743	-0.000054
C430	C	1.120715	0.144257	0.499946
C431	C	0.551192	-0.375002	-0.000124
C432	C	1.051192	0.124998	0.499876
H433	H	0.677314	-0.413154	0.046195
H434	H	1.177314	0.086846	0.546195
H435	H	0.677404	-0.413134	-0.046275
H436	H	1.177404	0.086866	0.453725
H437	H	0.623932	-0.336348	0.046196
H438	H	1.123932	0.163652	0.546196
H439	H	0.623999	-0.336316	-0.046267
H440	H	1.123999	0.163684	0.453733
H441	H	0.547973	-0.394405	-0.046378
H442	H	1.047973	0.105595	0.453622
H443	H	0.547891	-0.394426	0.046094
H444	H	1.047891	0.105574	0.546094
H445	H	0.510536	-0.349231	-0.000153
H446	H	1.010536	0.150769	0.499847
H447	H	0.773714	-0.071029	0.000098
H448	H	1.273714	0.428971	0.500098
