data_functionalizedCrystal
_audit_creation_method	'MofGen! by Chris Wilmer'
_symmetry_space_group_name_H-M	'P1'
_symmetry_Int_Tables_number	1
_symmetry_cell_setting	triclinic
loop_
_symmetry_equiv_pos_as_xyz
  x,y,z
_cell_length_a	8.559649
_cell_length_b	8.559649
_cell_length_c	15.186229
_cell_angle_alpha	89.998040
_cell_angle_beta	89.996456
_cell_angle_gamma	69.778664
loop_
_atom_site_label
_atom_site_type_symbol
_atom_site_fract_x
_atom_site_fract_y
_atom_site_fract_z
O1	O	2.126879	-0.055037	-0.073226
O2	O	1.651394	0.028744	-0.073227
O3	O	1.931027	-0.250889	-0.073225
O4	O	1.847246	0.224596	-0.073227
O5	O	1.931011	-0.250890	0.073232
O6	O	1.651378	0.028743	0.073231
O7	O	2.126863	-0.055038	0.073232
Zn8	Zn	1.889118	-0.013148	0.096484
Zn9	Zn	1.889139	-0.013146	-0.096479
O10	O	1.847230	0.224595	0.073230
C11	C	1.591077	0.035093	0.000002
C12	C	1.411378	0.053992	0.000001
C13	C	1.937369	-0.311198	0.000002
C14	C	1.956268	-0.490898	-0.000003
C15	C	2.187180	-0.061387	0.000001
C16	C	2.366879	-0.080286	-0.000004
C17	C	1.840889	0.284904	0.000001
C18	C	1.821990	0.464604	0.000000
N19	N	1.889116	-0.013152	0.228177
N20	N	1.889156	-0.013157	-0.228172
C21	C	2.012970	-0.136941	0.453901
C22	C	2.012976	-0.136945	0.546090
C23	C	1.765290	0.110639	0.546098
C24	C	1.765279	0.110635	0.453910
C25	C	1.889128	-0.013154	0.407814
C26	C	1.889144	-0.013155	0.592191
C27	C	1.889149	-0.013158	0.692148
C28	C	1.889121	-0.013152	0.307851
H29	H	1.312000	0.183411	-0.000008
C30	C	2.150265	-0.724406	-0.075287
C31	C	2.130999	-0.625051	-0.000002
H32	H	2.258140	-0.807218	-0.075288
H33	H	2.068572	-0.776399	-0.075275
H34	H	2.137177	-0.656981	-0.126356
H35	H	2.144076	-0.692474	0.051068
H36	H	2.212716	-0.573056	-0.000006
H37	H	1.466268	-0.209714	-0.000004
H38	H	1.692570	-0.436018	0.000003
C39	C	1.655289	0.220561	0.312593
C40	C	1.629145	0.246716	0.403243
H41	H	1.571241	0.304562	0.281315
H42	H	1.761371	0.224955	0.297484
H43	H	1.650955	0.114436	0.297501
H44	H	1.633491	0.352837	0.418336
H45	H	1.523036	0.242338	0.418358
H46	H	2.113813	-0.237739	0.416371
H47	H	2.113817	-0.237745	0.583612
H48	H	1.664456	0.211427	0.583639
