data_functionalizedCrystal
_audit_creation_method	'MofGen! by Chris Wilmer'
_symmetry_space_group_name_H-M	'P1'
_symmetry_Int_Tables_number	1
_symmetry_cell_setting	triclinic
loop_
_symmetry_equiv_pos_as_xyz
  x,y,z
_cell_length_a	16.120444
_cell_length_b	18.215407
_cell_length_c	18.215399
_cell_angle_alpha	89.982632
_cell_angle_beta	92.870532
_cell_angle_gamma	92.923925
loop_
_atom_site_label
_atom_site_type_symbol
_atom_site_fract_x
_atom_site_fract_y
_atom_site_fract_z
Zn1	Zn	-0.331974	1.110204	-0.430919
Zn2	Zn	-0.471396	1.103869	-0.314090
Zn3	Zn	-0.331994	0.987136	-0.307872
Zn4	Zn	-0.471342	0.980861	-0.437118
O5	O	-0.401676	1.045517	-0.372500
O6	O	-0.350483	1.212347	-0.415429
O7	O	-0.452934	1.088358	-0.210282
O8	O	-0.215325	1.008739	-0.318999
O9	O	-0.452915	1.207693	-0.329595
O10	O	-0.215310	1.099157	-0.409400
O11	O	-0.350517	1.002595	-0.205714
O12	O	-0.350464	0.883320	-0.325009
O13	O	-0.452824	0.998044	-0.539278
O14	O	-0.452843	0.878710	-0.419965
O15	O	-0.350430	1.093072	-0.534724
O16	O	-0.588055	1.082274	-0.335606
O17	O	-0.588015	0.991901	-0.425994
C18	C	-0.401651	0.854312	-0.372486
C19	C	-0.401660	0.772513	-0.372498
C20	C	-0.348433	0.586737	-0.417271
C21	C	-0.348440	0.509878	-0.417274
C22	C	-0.454943	0.505049	-0.327742
C23	C	-0.454931	0.581907	-0.327736
C24	C	-0.401677	0.622749	-0.372505
C25	C	-0.401696	0.469032	-0.372514
C26	C	-0.401704	0.385698	-0.372516
C27	C	-0.401668	0.706088	-0.372501
C28	C	-0.618285	1.035739	-0.382163
C29	C	-0.710951	1.031623	-0.386322
C30	C	-0.921893	1.067050	-0.351084
C31	C	-0.880608	1.024121	-0.393923
C32	C	-0.786202	1.028296	-0.389692
C33	C	-1.016308	1.062876	-0.355314
C34	C	-0.184222	1.055354	-0.362814
C35	C	-0.091555	1.059546	-0.358687
C36	C	-0.401619	1.045565	-0.564450
C37	C	-0.401594	1.045585	-0.646248
C38	C	-0.401703	1.237469	-0.372514
C39	C	-0.401714	1.319267	-0.372520
C40	C	-0.348228	1.095085	-0.832070
C41	C	-0.348204	1.095095	-0.908927
C42	C	-0.454831	0.996143	-0.913659
C43	C	-0.454851	0.996130	-0.836802
C44	C	-0.401551	1.045605	-0.796010
C45	C	-0.401507	1.045628	-0.949724
C46	C	-0.401481	1.045638	-1.033056
C47	C	-0.401575	1.045594	-0.712672
C48	C	-0.401673	1.045515	-0.181293
C49	C	-0.401463	1.045648	-0.099485
H50	H	-0.305068	0.619988	-0.453722
C51	C	-0.873866	1.120929	-0.297246
C52	C	-0.814054	1.091655	-0.236817
C53	C	-0.766014	1.145532	-0.182978
C54	C	-0.777785	1.228682	-0.189567
C55	C	-0.837599	1.257960	-0.249998
C56	C	-0.885639	1.204083	-0.303837
H57	H	-0.805338	1.030099	-0.231937
H58	H	-0.721736	1.123858	-0.138243
H59	H	-0.742223	1.268564	-0.149712
H60	H	-0.846315	1.319516	-0.254878
H61	H	-0.929918	1.225757	-0.348572
C62	C	-0.513504	0.621526	-0.278490
C63	C	-0.513486	0.706066	-0.278481
C64	C	-0.572053	0.745686	-0.229235
C65	C	-0.630637	0.700765	-0.179998
C66	C	-0.630657	0.616219	-0.180005
C67	C	-0.572090	0.576599	-0.229251
H68	H	-0.470117	0.739324	-0.314931
H69	H	-0.572038	0.808273	-0.229230
H70	H	-0.673991	0.730093	-0.143543
H71	H	-0.674026	0.582961	-0.143555
H72	H	-0.572105	0.514013	-0.229256
C73	C	-0.513526	0.460122	-0.278504
C74	C	-0.608309	0.466430	-0.288602
C75	C	-0.666896	0.421506	-0.239364
C76	C	-0.630700	0.370273	-0.180026
C77	C	-0.535912	0.363963	-0.169925
C78	C	-0.477325	0.408887	-0.219164
H79	H	-0.635108	0.504357	-0.332530
H80	H	-0.737064	0.426177	-0.246842
H81	H	-0.674069	0.337017	-0.143577
H82	H	-0.509113	0.326036	-0.125998
H83	H	-0.407157	0.404216	-0.211686
H84	H	-0.916164	0.984234	-0.433775
C85	C	-0.289593	1.149501	-0.787197
C86	C	-0.230936	1.203924	-0.826866
C87	C	-0.172296	1.258339	-0.781995
C88	C	-0.172314	1.258331	-0.697456
C89	C	-0.230973	1.203905	-0.657782
C90	C	-0.289613	1.149490	-0.702653
H91	H	-0.230920	1.203932	-0.889451
H92	H	-0.128872	1.298629	-0.811364
H93	H	-0.128905	1.298612	-0.664240
H94	H	-0.230989	1.203897	-0.595197
H95	H	-0.333037	1.109201	-0.673283
H96	H	-0.304782	1.135386	-0.938284
C97	C	-0.513466	0.941727	-0.958532
C98	C	-0.513451	0.941741	-1.043072
C99	C	-0.572090	0.887326	-1.087944
C100	C	-0.630742	0.832897	-1.048276
C101	C	-0.630759	0.832881	-0.963732
C102	C	-0.572120	0.887296	-0.918860
H103	H	-0.470031	0.982035	-1.072440
H104	H	-0.572077	0.887338	-1.150529
H105	H	-0.674150	0.792616	-1.081493
H106	H	-0.674179	0.792588	-0.934364
H107	H	-0.572133	0.887284	-0.856275
H108	H	-0.498271	0.955832	-0.807441
H109	H	-0.305082	0.480561	-0.453726
