data_functionalizedCrystal
_audit_creation_method	'MofGen! by Chris Wilmer'
_symmetry_space_group_name_H-M	'P1'
_symmetry_Int_Tables_number	1
_symmetry_cell_setting	triclinic
loop_
_symmetry_equiv_pos_as_xyz
  x,y,z
_cell_length_a	13.262402
_cell_length_b	13.339070
_cell_length_c	16.176319
_cell_angle_alpha	89.996815
_cell_angle_beta	105.910929
_cell_angle_gamma	99.431904
loop_
_atom_site_label
_atom_site_type_symbol
_atom_site_fract_x
_atom_site_fract_y
_atom_site_fract_z
O1	O	1.432363	0.136447	0.253340
O2	O	1.131108	0.151277	0.185598
O3	O	1.247161	-0.003547	0.211697
O4	O	1.316310	0.291272	0.227241
O5	O	1.247136	-0.003557	0.349184
O6	O	1.131083	0.151267	0.323086
O7	O	1.432337	0.136437	0.390828
Cu8	Cu	1.281708	0.143851	0.369510
Cu9	Cu	1.281738	0.143863	0.206915
O10	O	1.316285	0.291262	0.364729
C11	C	1.091751	0.150440	0.245495
C12	C	0.974512	0.147950	0.219131
C13	C	0.919445	0.146783	0.131799
C14	C	0.809295	0.144453	0.107031
C15	C	0.754199	0.143280	0.169593
C16	C	0.809265	0.144439	0.256927
C17	C	0.919427	0.146778	0.281697
C18	C	0.754181	0.143275	0.319491
C19	C	0.809247	0.144434	0.406825
C20	C	0.919398	0.146772	0.431592
C21	C	0.974494	0.147944	0.369030
C22	C	0.644019	0.140936	0.294721
C23	C	0.644000	0.140931	0.444619
C24	C	0.754151	0.143261	0.469387
C25	C	1.235468	-0.041291	0.277813
C26	C	1.200651	-0.153740	0.269980
C27	C	1.471369	-0.517389	0.330856
C28	C	1.504085	-0.411739	0.338221
C29	C	1.428229	-0.347234	0.321161
C30	C	1.319652	-0.388390	0.296736
C31	C	1.286934	-0.494051	0.289378
C32	C	1.243793	-0.323896	0.279682
C33	C	1.135217	-0.365052	0.255257
C34	C	1.102504	-0.470703	0.247899
C35	C	1.178359	-0.535208	0.264959
C36	C	1.276512	-0.218234	0.287041
C37	C	1.092077	-0.194896	0.245562
C38	C	1.059361	-0.300547	0.238198
C39	C	1.471695	0.137274	0.330929
C40	C	1.588934	0.139765	0.357287
C41	C	1.327978	0.329005	0.298611
C42	C	1.362795	0.441454	0.306438
N43	N	1.281695	0.143842	0.483873
N44	N	1.281757	0.143864	0.092554
C45	C	1.333113	0.075314	0.538700
C46	C	1.333118	0.075313	0.625248
C47	C	1.281711	0.143846	0.656969
C48	C	1.230286	0.212377	0.602134
C49	C	1.230275	0.212373	0.515586
C50	C	1.230327	0.212396	0.951171
C51	C	1.230345	0.212398	1.037727
C52	C	1.333170	0.075337	1.060834
C53	C	1.333159	0.075332	0.974286
C54	C	1.281730	0.143860	0.919457
C55	C	1.281724	0.143859	0.825612
C56	C	1.281723	0.143853	0.750814
H57	H	0.599195	0.139994	0.223613
H58	H	0.964315	0.147746	0.080871
H59	H	1.151727	-0.621238	0.258961
H60	H	1.064186	0.149835	0.389191
H61	H	1.374985	0.019512	0.669889
H62	H	0.964231	0.147725	0.502705
H63	H	1.030308	-0.142376	0.231675
C64	C	1.389732	-0.000054	1.121150
N65	N	1.432334	-0.056836	1.166580
C66	C	0.939928	-0.345833	0.211342
N67	N	0.849972	-0.379944	0.191118
C68	C	0.633030	0.140713	0.142345
N69	N	0.541760	0.138774	0.121817
C70	C	0.814743	0.144576	0.565454
N71	N	0.860385	0.145580	0.637813
C72	C	0.583399	0.139639	0.513442
N73	N	0.537748	0.138666	0.565275
C74	C	0.983066	-0.515972	0.221040
N75	N	0.893105	-0.550066	0.200809
H76	H	1.364916	-0.184736	0.306928
H77	H	1.374980	0.019511	0.512881
C78	C	1.389708	-0.000061	0.939398
N79	N	1.432297	-0.056853	0.913121
H80	H	1.188480	0.268207	1.063550
H81	H	1.188455	0.268195	0.906537
C82	C	1.464221	-0.231015	0.329257
N83	N	1.491335	-0.143475	0.335351
H84	H	1.188423	0.268174	0.627964
H85	H	1.592487	-0.378237	0.358108
C86	C	1.554797	-0.588350	0.349625
N87	N	1.617640	-0.641800	0.363763
C88	C	0.748729	0.143164	0.010967
N89	N	0.703109	0.142188	-0.061395
C90	C	1.173722	0.287767	0.455278
N91	N	1.131125	0.344557	0.409854
