data_functionalizedCrystal
_audit_creation_method	'MofGen! by Chris Wilmer'
_symmetry_space_group_name_H-M	'P1'
_symmetry_Int_Tables_number	1
_symmetry_cell_setting	triclinic
loop_
_symmetry_equiv_pos_as_xyz
  x,y,z
_cell_length_a	16.959447
_cell_length_b	16.959455
_cell_length_c	16.959454
_cell_angle_alpha	90.017022
_cell_angle_beta	90.026736
_cell_angle_gamma	90.014322
loop_
_atom_site_label
_atom_site_type_symbol
_atom_site_fract_x
_atom_site_fract_y
_atom_site_fract_z
Zn1	Zn	-0.446928	-1.208384	0.314730
Zn2	Zn	0.053072	-0.708384	0.814730
Zn3	Zn	-0.314758	-1.208306	0.446923
Zn4	Zn	0.185242	-0.708306	0.946923
Zn5	Zn	-0.314766	-1.076212	0.314755
Zn6	Zn	0.185234	-0.576212	0.814755
Zn7	Zn	-0.446897	-1.076177	0.446864
Zn8	Zn	0.053103	-0.576177	0.946864
O9	O	-0.380837	-1.142270	0.380818
O10	O	0.119163	-0.642270	0.880818
O11	O	-0.429406	-1.318984	0.332280
O12	O	0.070594	-0.818984	0.832280
O13	O	-0.204148	-1.190766	0.429426
O14	O	0.295852	-0.690766	0.929426
O15	O	-0.332314	-1.093792	0.204141
O16	O	0.167686	-0.593792	0.704141
O17	O	-0.332301	-1.318927	0.429402
O18	O	0.167699	-0.818927	0.929402
O19	O	-0.429413	-1.190898	0.204123
O20	O	0.070587	-0.690898	0.704123
O21	O	-0.204154	-1.093717	0.332323
O22	O	0.295846	-0.593717	0.832323
O23	O	-0.332283	-0.965597	0.332265
O24	O	0.167717	-0.465597	0.832265
O25	O	-0.557512	-1.093732	0.429301
O26	O	-0.057512	-0.593732	0.929301
O27	O	-0.429359	-0.965571	0.429325
O28	O	0.070641	-0.465571	0.929325
O29	O	-0.557535	-1.190864	0.332223
O30	O	-0.057535	-0.690864	0.832223
O31	O	-0.332270	-1.190732	0.557526
O32	O	0.167730	-0.690732	1.057526
O33	O	-0.429352	-1.093657	0.557482
O34	O	0.070648	-0.593657	1.057482
C35	C	-0.380819	-0.936904	0.380792
C36	C	0.119181	-0.436904	0.880792
C37	C	-0.380830	-0.849047	0.380800
C38	C	0.119170	-0.349047	0.880800
C39	C	-0.380824	-1.142204	0.586184
C40	C	0.119176	-0.642204	1.086184
C41	C	-0.380844	-1.142248	0.674041
C42	C	0.119156	-0.642248	1.174041
C43	C	-0.587006	-1.142303	0.380753
C44	C	-0.087006	-0.642303	0.880753
C45	C	-0.674862	-1.142317	0.380725
C46	C	-0.174862	-0.642317	0.880725
C47	C	-1.046328	-1.091839	0.431185
C48	C	-0.546328	-0.591839	0.931185
C49	C	-1.046348	-1.192983	0.330097
C50	C	-0.546348	-0.692983	0.830097
C51	C	-0.963802	-1.192962	0.330114
C52	C	-0.463802	-0.692962	0.830114
C53	C	-0.922515	-1.142380	0.380668
C54	C	-0.422515	-0.642380	0.880668
C55	C	-0.963775	-1.091818	0.431205
C56	C	-0.463775	-0.591818	0.931205
C57	C	-0.922536	-1.243529	0.279584
C58	C	-0.422536	-0.743529	0.779584
C59	C	-0.839985	-1.243510	0.279599
C60	C	-0.339985	-0.743510	0.779599
C61	C	-0.798697	-1.192923	0.330149
C62	C	-0.298697	-0.692923	0.830149
C63	C	-0.839962	-1.142359	0.380688
C64	C	-0.339962	-0.642359	0.880688
C65	C	-0.798675	-1.091776	0.431242
C66	C	-0.298675	-0.591776	0.931242
C67	C	-0.839938	-1.041207	0.481777
C68	C	-0.339938	-0.541207	0.981777
C69	C	-0.922487	-1.041231	0.481756
C70	C	-0.422487	-0.541231	0.981756
C71	C	-0.716149	-1.192899	0.330171
C72	C	-0.216149	-0.692899	0.830171
C73	C	-0.716122	-1.091755	0.431262
C74	C	-0.216122	-0.591755	0.931262
C75	C	-0.175471	-1.142283	0.380826
C76	C	0.324529	-0.642283	0.880826
C77	C	-0.087615	-1.142422	0.380631
C78	C	0.412385	-0.642422	0.880631
C79	C	-0.380856	-1.348438	0.380845
C80	C	0.119144	-0.848438	0.880845
C81	C	-0.380864	-1.436295	0.380856
C82	C	0.119136	-0.936295	0.880856
C83	C	-0.330395	-0.477560	0.330238
C84	C	0.169605	0.022440	0.830238
C85	C	-0.431324	-0.477582	0.431463
C86	C	0.068676	0.022418	0.931463
C87	C	-0.431320	-0.560128	0.431452
C88	C	0.068680	-0.060128	0.931452
C89	C	-0.380851	-0.601394	0.380834
C90	C	0.119149	-0.101394	0.880834
C91	C	-0.330387	-0.560114	0.330226
C92	C	0.169613	-0.060114	0.830226
C93	C	-0.481777	-0.601414	0.482064
C94	C	0.018223	-0.101414	0.982064
C95	C	-0.481773	-0.683965	0.482055
C96	C	0.018227	-0.183965	0.982055
C97	C	-0.431308	-0.725233	0.431432
C98	C	0.068692	-0.225233	0.931432
C99	C	-0.380843	-0.683948	0.380822
C100	C	0.119157	-0.183948	0.880822
C101	C	-0.330374	-0.725213	0.330204
C102	C	0.169626	-0.225213	0.830204
C103	C	-0.279913	-0.683930	0.279589
C104	C	0.220087	-0.183930	0.779589
C105	C	-0.279922	-0.601381	0.279603
C106	C	0.220078	-0.101381	0.779603
C107	C	-0.431299	-0.807781	0.431418
C108	C	0.068701	-0.307781	0.931418
C109	C	-0.330366	-0.807767	0.330193
C110	C	0.169634	-0.307767	0.830193
C111	C	-0.380868	-1.142358	0.174650
C112	C	0.119132	-0.642358	0.674650
C113	C	-0.380881	-1.142395	0.086793
C114	C	0.119119	-0.642395	0.586793
C115	C	-0.431382	-1.091796	1.045524
C116	C	0.068618	-0.591796	1.545524
C117	C	-0.330373	-1.192963	1.045509
C118	C	0.169627	-0.692963	1.545509
C119	C	-0.330365	-1.192936	0.962963
C120	C	0.169635	-0.692936	1.462963
C121	C	-0.380867	-1.142337	0.921694
C122	C	0.119133	-0.642337	1.421694
C123	C	-0.431375	-1.091765	0.962970
C124	C	0.068625	-0.591765	1.462970
C125	C	-0.279852	-1.243501	0.921680
C126	C	0.220148	-0.743501	1.421680
C127	C	-0.279842	-1.243475	0.839130
C128	C	0.220158	-0.743475	1.339130
C129	C	-0.330348	-1.192879	0.797859
C130	C	0.169652	-0.692879	1.297859
C131	C	-0.380859	-1.142306	0.839140
C132	C	0.119141	-0.642306	1.339140
C133	C	-0.431360	-1.091707	0.797871
C134	C	0.068640	-0.591707	1.297871
C135	C	-0.481876	-1.041137	0.839151
C136	C	0.018124	-0.541137	1.339151
C137	C	-0.481881	-1.041170	0.921699
C138	C	0.018119	-0.541170	1.421699
C139	C	-0.330343	-1.192847	0.715310
C140	C	0.169657	-0.692847	1.215310
C141	C	-0.431353	-1.091676	0.715317
C142	C	0.068647	-0.591676	1.215317
H143	H	-0.682512	-1.050557	0.472422
H144	H	-0.182512	-0.550557	0.972422
H145	H	-0.289313	-0.443944	0.289026
H146	H	0.210687	0.056056	0.789026
H147	H	-0.522860	-0.567810	0.523280
H148	H	-0.022860	-0.067810	1.023280
C149	C	-0.967950	-1.299154	0.223970
C150	C	-0.467950	-0.799154	0.723970
H151	H	-1.023023	-1.291912	0.231187
H152	H	-0.523023	-0.791912	0.731187
H153	H	-0.954430	-1.352258	0.235537
H154	H	-0.454430	-0.852258	0.735537
H155	H	-0.954427	-1.287591	0.170863
H156	H	-0.454427	-0.787591	0.670863
H157	H	-0.472513	-1.050626	1.079138
H158	H	0.027487	-0.550626	1.579138
H159	H	-0.472381	-0.841390	0.472630
H160	H	0.027619	-0.341390	0.972630
H161	H	-1.079928	-1.050665	0.472327
H162	H	-0.579928	-0.550665	0.972327
C163	C	-0.486835	-0.432192	0.487139
C164	C	0.013165	0.067808	0.987139
H165	H	-0.479615	-0.377117	0.479894
H166	H	0.020385	0.122883	0.979894
H167	H	-0.475181	-0.445709	0.540232
H168	H	0.024819	0.054291	1.040232
H169	H	-0.539965	-0.445739	0.475625
H170	H	-0.039965	0.054261	0.975625
H171	H	-0.289273	-0.841360	0.288968
H172	H	0.210727	-0.341360	0.788968
C173	C	-0.670763	-1.248513	0.274586
C174	C	-0.170763	-0.748513	0.774586
H175	H	-0.707174	-1.278638	0.244473
H176	H	-0.207174	-0.778638	0.744473
H177	H	-0.638548	-1.282930	0.304830
H178	H	-0.138548	-0.782930	0.804830
H179	H	-0.638574	-1.218275	0.240144
H180	H	-0.138574	-0.718275	0.740144
C181	C	-0.537440	-0.985546	0.967104
C182	C	-0.037440	-0.485546	1.467104
H183	H	-0.567522	-0.955411	0.930705
H184	H	-0.067522	-0.455411	1.430705
H185	H	-0.507174	-0.951138	0.999346
H186	H	-0.007174	-0.451138	1.499346
H187	H	-0.571911	-1.015778	0.999268
H188	H	-0.071911	-0.515778	1.499268
H189	H	-0.238818	-0.717539	0.238379
H190	H	0.261182	-0.217539	0.738379
C191	C	-0.274831	-1.248622	1.090903
C192	C	0.225169	-0.748622	1.590903
H193	H	-0.282073	-1.241401	1.145978
H194	H	0.217927	-0.741401	1.645978
H195	H	-0.221708	-1.237093	1.077413
H196	H	0.278292	-0.737093	1.577413
H197	H	-0.286458	-1.301719	1.077333
H198	H	0.213542	-0.801719	1.577333
C199	C	-0.224317	-1.299164	0.967076
C200	C	0.275683	-0.799164	1.467076
H201	H	-0.231568	-1.291949	1.022151
H202	H	0.268432	-0.791949	1.522151
H203	H	-0.171192	-1.287637	0.953596
H204	H	0.328808	-0.787637	1.453596
H205	H	-0.235946	-1.352260	0.953499
H206	H	0.264054	-0.852260	1.453499
C207	C	-0.224410	-0.555969	0.223945
C208	C	0.275590	-0.055969	0.723945
H209	H	-0.231636	-0.500896	0.231211
H210	H	0.268364	-0.000896	0.731211
H211	H	-0.236058	-0.569502	0.170845
H212	H	0.263942	-0.069502	0.670845
H213	H	-0.171280	-0.569481	0.235458
H214	H	0.328720	-0.069481	0.735458
C215	C	-0.224286	-1.299105	0.793729
C216	C	0.275714	-0.799105	1.293729
H217	H	-0.194216	-1.329247	0.830131
H218	H	0.305784	-0.829247	1.330131
H219	H	-0.189816	-1.268885	0.761560
H220	H	0.310184	-0.768885	1.261560
H221	H	-0.254561	-1.333517	0.761493
H222	H	0.245439	-0.833517	1.261493
H223	H	-0.522863	-0.717571	0.523268
H224	H	-0.022863	-0.217571	1.023268
C225	C	-0.274784	-1.248463	0.669902
C226	C	0.225216	-0.748463	1.169902
H227	H	-0.282009	-1.241196	0.614828
H228	H	0.217991	-0.741196	1.114828
H229	H	-0.286395	-1.301569	0.683390
H230	H	0.213605	-0.801569	1.183390
H231	H	-0.221664	-1.236924	0.683466
H232	H	0.278336	-0.736924	1.183466
C233	C	-0.794518	-0.985570	0.537383
C234	C	-0.294518	-0.485570	1.037383
H235	H	-0.739446	-0.992802	0.530151
H236	H	-0.239446	-0.492802	1.030151
H237	H	-0.808034	-0.997112	0.590491
H238	H	-0.308034	-0.497112	1.090491
H239	H	-0.808042	-0.932465	0.525796
H240	H	-0.308042	-0.432465	1.025796
C241	C	-0.967877	-0.985617	0.537343
C242	C	-0.467877	-0.485617	1.037343
H243	H	-1.022953	-0.992882	0.530096
H244	H	-0.522953	-0.492882	1.030096
H245	H	-0.954356	-0.932509	0.525775
H246	H	-0.454356	-0.432509	1.025775
H247	H	-0.954335	-0.997166	0.590459
H248	H	-0.454335	-0.497166	1.090459
H249	H	-1.079968	-1.234170	0.288943
H250	H	-0.579968	-0.734170	0.788943
H251	H	-0.472480	-1.050475	0.681721
H252	H	0.027520	-0.550475	1.181721
C253	C	-0.794603	-1.299126	0.224007
C254	C	-0.294603	-0.799126	0.724007
H255	H	-0.831015	-1.329249	0.193893
H256	H	-0.331015	-0.829249	0.693893
H257	H	-0.762388	-1.333544	0.254250
H258	H	-0.262388	-0.833544	0.754250
H259	H	-0.762414	-1.268887	0.189567
H260	H	-0.262414	-0.768887	0.689567
H261	H	-0.522991	-0.999936	0.805540
H262	H	-0.022991	-0.499936	1.305540
