data_functionalizedCrystal
_audit_creation_method	'MofGen! by Chris Wilmer'
_symmetry_space_group_name_H-M	'P1'
_symmetry_Int_Tables_number	1
_symmetry_cell_setting	triclinic
loop_
_symmetry_equiv_pos_as_xyz
  x,y,z
_cell_length_a	12.837939
_cell_length_b	11.295483
_cell_length_c	12.837942
_cell_angle_alpha	85.469583
_cell_angle_beta	94.828790
_cell_angle_gamma	94.539116
loop_
_atom_site_label
_atom_site_type_symbol
_atom_site_fract_x
_atom_site_fract_y
_atom_site_fract_z
O1	O	-1.408690	-0.099013	-0.265784
O2	O	-1.105557	-0.099017	-0.252341
O3	O	-1.250401	-0.099008	-0.107496
O4	O	-1.263845	-0.099022	-0.410629
O5	O	-1.237677	0.099042	-0.120197
O6	O	-1.092833	0.099033	-0.265042
O7	O	-1.395966	0.099037	-0.278484
Cu8	Cu	-1.243237	0.117119	-0.272923
Cu9	Cu	-1.258285	-0.117098	-0.257903
O10	O	-1.251121	0.099028	-0.423329
C11	C	-1.060126	0.000007	-0.254150
C12	C	-0.943711	0.000005	-0.240606
C13	C	-0.718836	0.000016	-0.403437
C14	C	-0.609453	0.000015	-0.390715
C15	C	-0.615561	0.000012	-0.202444
C16	C	-0.724943	0.000012	-0.215165
C17	C	-0.776577	0.000013	-0.315664
C18	C	-0.885962	0.000005	-0.328384
C19	C	-0.892067	0.000010	-0.140114
C20	C	-0.782684	0.000009	-0.127393
N21	N	-1.232661	0.281854	-0.283487
C22	C	-0.441397	0.000012	-0.276676
C23	C	-0.557812	0.000011	-0.290222
C24	C	-1.239498	0.000017	-0.074777
C25	C	-1.225954	0.000014	0.041638
N26	N	-1.268869	-0.281834	-0.247332
C27	C	-1.344997	0.531151	-0.171227
C28	C	-1.337012	0.655814	-0.179219
C29	C	-1.208703	0.655846	-0.307455
C30	C	-1.216688	0.531183	-0.299464
C31	C	-1.284838	0.468840	-0.231349
C32	C	-1.292827	0.344174	-0.223363
C33	C	-1.164513	0.344208	-0.351594
C34	C	-1.156528	0.468871	-0.359585
C35	C	-1.262025	0.000001	-0.456048
C36	C	-1.275570	-0.000005	-0.572463
C37	C	-1.388784	-0.000008	0.266514
C38	C	-1.376063	-0.000010	0.375896
C39	C	-1.187791	-0.000001	0.369788
C40	C	-1.200513	0.000001	0.260405
C41	C	-1.301012	-0.000000	0.208772
C42	C	-1.313732	0.000010	0.099387
C43	C	-1.125462	0.000011	0.093281
C44	C	-1.112740	0.000009	0.202664
H45	H	-0.740628	0.000022	-0.045570
H46	H	-1.115531	0.293460	-0.400552
H47	H	-1.053990	0.000027	0.046256
H48	H	-1.030917	0.000006	0.244719
H49	H	-0.939092	-0.000001	-0.068643
H50	H	-0.928000	0.000007	-0.410216
C51	C	-1.418841	0.356669	-0.097400
C52	C	-1.367731	0.275643	-0.148488
H53	H	-1.465078	0.314361	-0.051169
H54	H	-1.457690	0.405278	-0.147829
H55	H	-1.368416	0.405307	-0.058541
H56	H	-1.418156	0.227011	-0.187354
H57	H	-1.328881	0.227014	-0.098052
C58	C	-1.464642	0.643256	-0.051662
C59	C	-1.403142	0.724308	-0.113133
H60	H	-1.505472	0.685544	-0.010865
H61	H	-1.420459	0.594647	-0.006567
H62	H	-1.509717	0.594621	-0.095870
H63	H	-1.358061	0.772938	-0.068924
H64	H	-1.447330	0.772938	-0.158232
H65	H	-1.101039	0.519645	-0.415041
H66	H	-1.400495	0.480391	-0.115773
C67	C	-1.031082	0.694290	-0.353364
C68	C	-1.133785	0.724397	-0.382305
H69	H	-0.984829	0.736620	-0.399567
H70	H	-1.027231	0.611140	-0.357231
H71	H	-1.011529	0.714711	-0.283669
H72	H	-1.153341	0.703967	-0.451997
H73	H	-1.137640	0.807565	-0.378448
H74	H	-1.395563	0.000013	0.057349
C75	C	-1.573606	-0.000019	0.283534
C76	C	-1.499249	-0.000013	0.209751
H77	H	-1.641803	-0.000031	0.248490
H78	H	-1.560297	0.069043	0.321639
H79	H	-1.569155	-0.069086	0.330500
H80	H	-1.503695	0.069059	0.162789
H81	H	-1.512562	-0.069082	0.171629
C82	C	-1.477518	-0.101832	0.508964
C83	C	-1.472546	-0.000018	0.439365
H84	H	-1.537090	-0.101840	0.548142
H85	H	-1.415856	-0.101820	0.555369
H86	H	-1.482999	-0.170886	0.470579
H87	H	-1.467058	0.069037	0.477752
H88	H	-1.534224	-0.000020	0.392955
H89	H	-0.760877	0.000015	-0.485267
H90	H	-1.105970	-0.000012	0.411848
H91	H	-0.562444	0.000021	-0.462189
H92	H	-0.573495	0.000109	-0.120628
