data_functionalizedCrystal
_audit_creation_method	'MofGen! by Chris Wilmer'
_symmetry_space_group_name_H-M	'P1'
_symmetry_Int_Tables_number	1
_symmetry_cell_setting	triclinic
loop_
_symmetry_equiv_pos_as_xyz
  x,y,z
_cell_length_a	10.723024
_cell_length_b	10.723023
_cell_length_c	9.798715
_cell_angle_alpha	89.996998
_cell_angle_beta	89.996846
_cell_angle_gamma	84.467709
loop_
_atom_site_label
_atom_site_type_symbol
_atom_site_fract_x
_atom_site_fract_y
_atom_site_fract_z
O1	O	-1.657186	-0.175025	0.113481
O2	O	-1.157186	0.324975	0.613481
O3	O	-1.294034	-0.191778	0.113486
O4	O	-0.794034	0.308222	0.613486
O5	O	-1.483987	-0.001825	0.113475
O6	O	-0.983987	0.498175	0.613475
O7	O	-1.467233	-0.364978	0.113491
O8	O	-0.967233	0.135022	0.613491
O9	O	-1.483974	-0.001824	-0.113507
O10	O	-0.983974	0.498176	0.386493
O11	O	-1.294021	-0.191777	-0.113497
O12	O	-0.794021	0.308223	0.386503
O13	O	-1.657173	-0.175024	-0.113501
O14	O	-1.157173	0.324976	0.386499
Zn15	Zn	-1.475595	-0.183400	-0.149537
Zn16	Zn	-0.975595	0.316600	0.350463
Zn17	Zn	-1.475612	-0.183402	0.149522
Zn18	Zn	-0.975612	0.316598	0.649522
O19	O	-1.467220	-0.364976	-0.113491
O20	O	-0.967220	0.135024	0.386509
C21	C	-1.247528	-0.190558	-0.000005
C22	C	-0.747528	0.309442	0.499995
C23	C	-1.108973	-0.186911	-0.000003
C24	C	-0.608973	0.313089	0.499997
C25	C	-1.482762	0.044675	-0.000015
C26	C	-0.982762	0.544675	0.499985
C27	C	-1.479114	0.183229	-0.000012
C28	C	-0.979114	0.683229	0.499988
C29	C	-1.703679	-0.176243	-0.000008
C30	C	-1.203679	0.323757	0.499992
C31	C	-1.842234	-0.179891	-0.000000
C32	C	-1.342234	0.320109	0.500000
C33	C	-1.033991	-0.293198	0.000002
C34	C	-0.533991	0.206802	0.500002
C35	C	-0.890787	-0.289431	0.000004
C36	C	-0.390787	0.210569	0.500004
C37	C	-1.477495	0.244994	0.117573
C38	C	-0.977495	0.744994	0.617573
C39	C	-1.473726	0.388197	0.117578
C40	C	-0.973726	0.888197	0.617578
N41	N	-1.475592	-0.183398	-0.353637
N42	N	-0.975592	0.316602	0.146363
C43	C	-1.468445	0.588523	-0.000001
C44	C	-0.968445	1.088523	0.499999
C45	C	-1.472093	0.449969	-0.000004
C46	C	-0.972093	0.949969	0.499996
C47	C	-1.555546	-0.103469	-0.578573
C48	C	-1.055546	0.396531	-0.078573
C49	C	-1.555529	-0.103471	-0.421410
C50	C	-1.055529	0.396529	0.078590
N51	N	-1.475625	-0.183394	0.353621
N52	N	-0.975625	0.316606	0.853621
H53	H	-1.075812	-0.386984	-0.000002
H54	H	-0.575812	0.113016	0.499998
C55	C	-1.648002	-0.011022	-0.657328
C56	C	-1.148002	0.488978	-0.157328
N57	N	-1.717641	0.058614	-0.716645
N58	N	-1.217641	0.558614	-0.216645
C59	C	-1.383144	-0.275842	-0.432400
C60	C	-0.883144	0.224158	0.067600
N61	N	-1.313512	-0.345472	-0.491734
N62	N	-0.813512	0.154528	0.008266
C63	C	-1.473971	0.378222	-0.136013
C64	C	-0.973971	0.878222	0.363987
N65	N	-1.475383	0.324173	-0.238456
N66	N	-0.975383	0.824173	0.261544
C67	C	-1.479400	0.173214	0.253571
C68	C	-0.979400	0.673214	0.753571
N69	N	-1.480840	0.119151	0.356009
N70	N	-0.980840	0.619151	0.856009
H71	H	-0.826354	-0.380421	0.000014
H72	H	-0.326354	0.119579	0.500014
H73	H	-1.407193	-0.251827	-0.588079
H74	H	-0.907193	0.248173	-0.088079
H75	H	-1.067152	-0.093125	0.000028
H76	H	-0.567152	0.406875	0.500028
C77	C	-1.647961	-0.011018	-0.342638
C78	C	-1.147961	0.488982	0.157362
N79	N	-1.717582	0.058622	-0.283304
N80	N	-1.217582	0.558622	0.216696
C81	C	-0.929269	-0.056957	-0.000010
C82	C	-0.429269	0.443043	0.499990
N83	N	-0.994833	0.035637	-0.000021
N84	N	-0.494833	0.535637	0.499979
C85	C	-1.471844	0.459951	0.253583
C86	C	-0.971844	0.959951	0.753583
N87	N	-1.470425	0.514000	0.356025
N88	N	-0.970425	1.014000	0.856025
H89	H	-1.477702	0.236366	-0.100676
H90	H	-0.977702	0.736366	0.399324
