data_functionalizedCrystal
_audit_creation_method	'MofGen! by Chris Wilmer'
_symmetry_space_group_name_H-M	'P1'
_symmetry_Int_Tables_number	1
_symmetry_cell_setting	triclinic
loop_
_symmetry_equiv_pos_as_xyz
  x,y,z
_cell_length_a	18.215407
_cell_length_b	19.121063
_cell_length_c	18.215398
_cell_angle_alpha	92.412350
_cell_angle_beta	89.980536
_cell_angle_gamma	92.469446
loop_
_atom_site_label
_atom_site_type_symbol
_atom_site_fract_x
_atom_site_fract_y
_atom_site_fract_z
Zn1	Zn	1.112556	-0.279631	-0.428597
Zn2	Zn	1.107209	-0.397081	-0.310773
Zn3	Zn	0.989488	-0.279649	-0.305545
Zn4	Zn	0.984200	-0.397047	-0.433796
O5	O	1.048363	-0.338352	-0.369678
O6	O	1.214830	-0.295218	-0.412979
O7	O	1.091569	-0.381525	-0.207096
O8	O	1.010264	-0.181362	-0.317504
O9	O	1.210902	-0.381508	-0.326414
O10	O	1.100681	-0.181349	-0.407910
O11	O	1.005080	-0.295248	-0.203255
O12	O	0.885803	-0.295215	-0.322546
O13	O	1.001251	-0.381450	-0.536090
O14	O	0.881917	-0.381467	-0.416771
O15	O	1.095553	-0.295185	-0.532270
O16	O	1.086441	-0.495361	-0.331456
O17	O	0.996066	-0.495337	-0.421841
C18	C	0.857157	-0.338340	-0.369656
C19	C	0.775358	-0.338352	-0.369665
C20	C	0.585157	-0.383334	-0.418672
C21	C	0.508298	-0.383336	-0.418682
C22	C	0.512321	-0.293383	-0.320700
C23	C	0.589178	-0.293378	-0.320694
C24	C	0.625594	-0.338357	-0.369680
C25	C	0.471878	-0.338365	-0.369694
C26	C	0.388544	-0.338367	-0.369704
C27	C	0.708933	-0.338354	-0.369671
C28	C	1.040119	-0.520833	-0.377796
C29	C	1.036660	-0.598899	-0.381293
C30	C	1.082124	-0.635565	-0.335917
C31	C	1.078875	-0.708916	-0.339211
C32	C	1.030157	-0.745601	-0.387878
C33	C	0.984691	-0.708930	-0.433259
C34	C	0.987944	-0.635580	-0.429968
C35	C	1.017982	-0.967071	-0.400169
C36	C	1.014730	-1.040427	-0.403454
C37	C	1.108916	-1.040407	-0.309407
C38	C	1.112162	-0.967056	-0.306117
C39	C	1.066698	-0.930392	-0.351501
C40	C	1.026833	-0.820578	-0.391244
C41	C	1.070026	-0.855416	-0.348138
C42	C	1.240315	-0.338365	-0.369700
C43	C	1.322114	-0.338370	-0.369709
C44	C	1.048409	-0.338312	-0.561629
C45	C	1.048428	-0.338294	-0.643427
C46	C	1.056659	-0.155158	-0.361544
C47	C	1.060194	-0.077092	-0.358078
C48	C	1.093500	-0.383132	-0.910485
C49	C	1.093488	-0.383157	-0.833627
C50	C	1.003417	-0.293321	-0.829611
C51	C	1.003426	-0.293301	-0.906468
C52	C	1.048472	-0.338205	-0.946903
C53	C	1.048451	-0.338250	-0.793189
C54	C	1.048437	-0.338276	-0.709856
C55	C	1.048485	-0.338180	-1.030241
C56	C	1.048363	-0.338342	-0.178471
C57	C	1.048495	-0.338161	-0.096664
H58	H	1.121792	-0.605701	-0.296284
C59	C	0.953882	-0.243918	-0.785126
N60	N	0.916576	-0.206701	-0.751619
C61	C	0.472256	-0.243912	-0.266815
N62	N	0.442079	-0.206651	-0.226226
H63	H	0.475377	-0.419960	-0.458577
C64	C	1.128885	-0.749245	-0.289288
N65	N	1.166554	-0.779620	-0.251683
C66	C	0.953892	-0.243873	-0.946529
N67	N	0.916584	-0.206645	-0.976704
H68	H	0.622104	-0.256748	-0.280799
H69	H	1.130178	-0.419697	-0.943405
H70	H	1.151831	-0.937189	-0.266489
H71	H	0.614805	-0.419957	-0.458561
C72	C	0.961139	-1.080779	-0.456999
N73	N	0.920777	-1.111172	-0.497327
C74	C	1.158924	-1.080744	-0.259490
N75	N	1.196594	-1.111125	-0.221892
H76	H	0.980962	-0.937225	-0.437121
C77	C	0.973236	-0.860939	-0.444768
N78	N	0.932866	-0.891341	-0.485081
C79	C	1.143039	-0.432565	-0.793571
N80	N	1.180368	-0.469777	-0.763401
C81	C	0.937930	-0.595249	-0.479886
N82	N	0.900260	-0.564872	-0.517488
H83	H	0.945027	-0.738805	-0.472888
H84	H	1.109695	-0.825545	-0.308516
