data_functionalizedCrystal
_audit_creation_method	'MofGen! by Chris Wilmer'
_symmetry_space_group_name_H-M	'P1'
_symmetry_Int_Tables_number	1
_symmetry_cell_setting	triclinic
loop_
_symmetry_equiv_pos_as_xyz
  x,y,z
_cell_length_a	16.120530
_cell_length_b	18.050589
_cell_length_c	16.120297
_cell_angle_alpha	92.875657
_cell_angle_beta	90.128140
_cell_angle_gamma	87.123928
loop_
_atom_site_label
_atom_site_type_symbol
_atom_site_fract_x
_atom_site_fract_y
_atom_site_fract_z
Zn1	Zn	1.247404	-0.376248	-0.534587
Zn2	Zn	1.254344	-0.494473	-0.395537
Zn3	Zn	1.115396	-0.363698	-0.388504
Zn4	Zn	1.108300	-0.493789	-0.527506
O5	O	1.181361	-0.432052	-0.461533
O6	O	1.364691	-0.397469	-0.522048
O7	O	1.241786	-0.472159	-0.278238
O8	O	1.132972	-0.261442	-0.407903
O9	O	1.369789	-0.484328	-0.419888
O10	O	1.229959	-0.270662	-0.515230
O11	O	1.139701	-0.376080	-0.273071
O12	O	0.998089	-0.375417	-0.401037
O13	O	1.120879	-0.483162	-0.644811
O14	O	0.992876	-0.470994	-0.503160
O15	O	1.223078	-0.396806	-0.650014
O16	O	1.234906	-0.598303	-0.413022
O17	O	1.127608	-0.597800	-0.509979
C18	C	0.965310	-0.421770	-0.450568
C19	C	0.872881	-0.417390	-0.445896
C20	C	0.703653	-0.409376	-0.437374
C21	C	0.659907	-0.454785	-0.485754
C22	C	0.565742	-0.450326	-0.481012
C23	C	0.797826	-0.413834	-0.442115
C24	C	1.181261	-0.624999	-0.461515
C25	C	1.181293	-0.707547	-0.461538
C26	C	1.123001	-0.906753	-0.514247
C27	C	1.106578	-0.951975	-0.437341
C28	C	1.181375	-0.858682	-0.461553
C29	C	1.197838	-0.960544	-0.538470
C30	C	1.181451	-1.004671	-0.461574
C31	C	1.164914	-0.902813	-0.384605
C32	C	1.256207	-0.911381	-0.485787
C33	C	1.239815	-0.956580	-0.408830
C34	C	1.181328	-0.774581	-0.461542
C35	C	1.181498	-1.088770	-0.461577
C36	C	1.398256	-0.442375	-0.472543
C37	C	1.490683	-0.446774	-0.477234
C38	C	1.170413	-0.441308	-0.678428
C39	C	1.165748	-0.445252	-0.770856
C40	C	1.181483	-0.238354	-0.461572
C41	C	1.181535	-0.155811	-0.461588
C42	C	1.157199	-0.452435	-0.940081
C43	C	1.205687	-0.411454	-0.983846
C44	C	1.200930	-0.415451	-1.078009
C45	C	1.161955	-0.448439	-0.845910
C46	C	1.192314	-0.422781	-0.245485
C47	C	1.197141	-0.418635	-0.153066
H48	H	0.693175	-0.497008	-0.530735
C49	C	1.057150	-0.877689	-0.573696
C50	C	1.073761	-0.908126	-0.653892
C51	C	1.013111	-0.881376	-0.708671
H52	H	1.057858	-0.825104	-0.573753
H53	H	1.004029	-0.891497	-0.556403
H54	H	1.126868	-0.894313	-0.671181
H55	H	1.073046	-0.960709	-0.653861
H56	H	0.959989	-0.895184	-0.691378
H57	H	1.013823	-0.828791	-0.708721
H58	H	1.024368	-0.902029	-0.763088
H59	H	0.670386	-0.367156	-0.392397
H60	H	1.043330	-0.969970	-0.416862
C61	C	1.146255	-0.869164	-0.297920
C62	C	1.146376	-0.791654	-0.298932
C63	C	1.129177	-0.760630	-0.219099
H64	H	1.187472	-0.886530	-0.260379
H65	H	1.093275	-0.883324	-0.280624
H66	H	1.199349	-0.777500	-0.316217
H67	H	1.105159	-0.774268	-0.336456
H68	H	1.076197	-0.774790	-0.201803
H69	H	1.170396	-0.778001	-0.181565
H70	H	1.129250	-0.708037	-0.219777
C71	C	1.265703	-0.360540	-0.939566
C72	C	1.246588	-0.287077	-0.959692
C73	C	1.301850	-0.240155	-0.918909
H74	H	1.320894	-0.374563	-0.956565
H75	H	1.260951	-0.364513	-0.881243
H76	H	1.251347	-0.283108	-1.018003
H77	H	1.191406	-0.273031	-0.942691
H78	H	1.297098	-0.244128	-0.860586
H79	H	1.357038	-0.254185	-0.935911
H80	H	1.288883	-0.190305	-0.932553
C81	C	1.340480	-0.887428	-0.513306
C82	C	1.357353	-0.916746	-0.593906
C83	C	1.434972	-0.894688	-0.619298
H84	H	1.382166	-0.905250	-0.476525
H85	H	1.339995	-0.834749	-0.512652
H86	H	1.357845	-0.969415	-0.594554
H87	H	1.315688	-0.898928	-0.630706
H88	H	1.434487	-0.842008	-0.618644
H89	H	1.476651	-0.912511	-0.582511
H90	H	1.446427	-0.914571	-0.673990
H91	H	1.112120	-0.490519	-0.973329
C92	C	1.305566	-0.985662	-0.349289
C93	C	1.267705	-1.024908	-0.288197
C94	C	1.328244	-1.051719	-0.233338
H95	H	1.333072	-0.945153	-0.323749
H96	H	1.344805	-1.017749	-0.379060
H97	H	1.228480	-0.992823	-0.258430
H98	H	1.240204	-1.065427	-0.313712
H99	H	1.367484	-1.083806	-0.263108
H100	H	1.355746	-1.011206	-0.207804
H101	H	1.302565	-1.078356	-0.191885
C102	C	1.216320	-0.994312	-0.625140
C103	C	1.216835	-1.071834	-0.623854
C104	C	1.233839	-1.102962	-0.703682
H105	H	1.269057	-0.979879	-0.642787
H106	H	1.174754	-0.977281	-0.662515
H107	H	1.258399	-1.088858	-0.586492
H108	H	1.164105	-1.086287	-0.606222
H109	H	1.192273	-1.085931	-0.741057
H110	H	1.286575	-1.088524	-0.721323
H111	H	1.234183	-1.155563	-0.702822
