data_functionalizedCrystal
_audit_creation_method	'MofGen! by Chris Wilmer'
_symmetry_space_group_name_H-M	'P1'
_symmetry_Int_Tables_number	1
_symmetry_cell_setting	triclinic
loop_
_symmetry_equiv_pos_as_xyz
  x,y,z
_cell_length_a	27.732064
_cell_length_b	27.732025
_cell_length_c	16.053802
_cell_angle_alpha	92.558378
_cell_angle_beta	87.447638
_cell_angle_gamma	82.641446
loop_
_atom_site_label
_atom_site_type_symbol
_atom_site_fract_x
_atom_site_fract_y
_atom_site_fract_z
O1	O	0.642967	0.055511	-0.069256
O2	O	0.976300	0.388844	0.264078
O3	O	1.309633	0.722177	0.597411
O4	O	0.502175	0.064247	-0.069286
O5	O	0.835508	0.397580	0.264047
O6	O	1.168841	0.730914	0.597380
O7	O	0.576950	-0.010519	-0.069295
O8	O	0.910283	0.322814	0.264038
O9	O	1.243616	0.656147	0.597371
O10	O	0.568192	0.130277	-0.069247
O11	O	0.901525	0.463610	0.264087
O12	O	1.234858	0.796943	0.597420
O13	O	0.572834	-0.006421	0.069564
O14	O	0.906167	0.326913	0.402897
O15	O	1.239501	0.660246	0.736231
O16	O	0.498059	0.068345	0.069573
O17	O	0.831392	0.401679	0.402907
O18	O	1.164726	0.735012	0.736240
O19	O	0.638851	0.059609	0.069604
O20	O	0.972184	0.392942	0.402937
O21	O	1.305518	0.726276	0.736270
Zn22	Zn	0.567802	0.064628	0.091635
Zn23	Zn	0.901135	0.397961	0.424969
Zn24	Zn	1.234468	0.731295	0.758302
Zn25	Zn	0.573224	0.059228	-0.091318
Zn26	Zn	0.906557	0.392561	0.242015
Zn27	Zn	1.239891	0.725895	0.575349
O28	O	0.564076	0.134375	0.069613
O29	O	0.897409	0.467709	0.402946
O30	O	1.230743	0.801042	0.736280
C31	C	0.482110	0.066111	0.000139
C32	C	0.815443	0.399445	0.333472
C33	C	1.148777	0.732778	0.666806
C34	C	0.428456	0.065555	0.000126
C35	C	0.761789	0.398888	0.333459
C36	C	1.095123	0.732222	0.666793
C37	C	0.051386	0.017588	0.000157
C38	C	0.384720	0.350922	0.333490
C39	C	0.718053	0.684255	0.666823
C40	C	0.253047	0.019634	0.000136
C41	C	0.586380	0.352967	0.333469
C42	C	0.919714	0.686300	0.666802
O43	O	0.284302	-0.017587	0.000154
O44	O	0.617635	0.315746	0.333487
O45	O	0.950969	0.649080	0.666821
N46	N	0.272171	0.063969	0.000147
N47	N	0.605504	0.397302	0.333481
N48	N	0.938837	0.730636	0.666814
C49	C	0.240875	0.107796	0.000170
C50	C	0.574209	0.441129	0.333503
C51	C	0.907542	0.774463	0.666837
O52	O	0.261768	0.145553	0.000188
O53	O	0.595101	0.478886	0.333521
O54	O	0.928435	0.812220	0.666855
C55	C	0.039215	0.105750	0.000197
C56	C	0.372549	0.439083	0.333530
C57	C	0.705882	0.772417	0.666863
C58	C	0.020095	0.061412	0.000177
C59	C	0.353428	0.394745	0.333510
C60	C	0.686762	0.728078	0.666843
C61	C	0.032265	-0.026746	0.000138
C62	C	0.365599	0.306587	0.333471
C63	C	0.698932	0.639920	0.666804
C64	C	-0.018147	-0.027258	0.000138
C65	C	0.315187	0.306076	0.333472
C66	C	0.648520	0.639409	0.666805
C67	C	-0.049438	0.016566	0.000158
C68	C	0.283895	0.349899	0.333492
C69	C	0.617229	0.683233	0.666825
C70	C	-0.030317	0.060901	0.000177
C71	C	0.303016	0.394234	0.333511
C72	C	0.636350	0.727567	0.666844
C73	C	0.007921	0.149577	0.000225
C74	C	0.341254	0.482910	0.333559
C75	C	0.674588	0.816243	0.666892
C76	C	-0.042497	0.149061	0.000234
C77	C	0.290837	0.482395	0.333567
C78	C	0.624170	0.815728	0.666901
C79	C	-0.061617	0.104723	0.000214
C80	C	0.271716	0.438056	0.333547
C81	C	0.605050	0.771390	0.666881
C82	C	-0.112020	0.104213	0.000198
C83	C	0.221313	0.437546	0.333531
C84	C	0.554646	0.770880	0.666865
N85	N	-0.131144	0.059878	0.000186
N86	N	0.202189	0.393211	0.333520
N87	N	0.535523	0.726545	0.666853
C88	C	-0.099853	0.016054	0.000166
C89	C	0.233481	0.349388	0.333500
C90	C	0.566814	0.682721	0.666833
C91	C	0.346750	0.108867	0.000154
C92	C	0.680083	0.442200	0.333487
C93	C	1.013417	0.775534	0.666821
C94	C	0.397165	0.109379	0.000146
C95	C	0.730498	0.442712	0.333479
C96	C	1.063832	0.776045	0.666812
C97	C	0.409333	0.021216	0.000113
C98	C	0.742667	0.354550	0.333447
C99	C	1.076000	0.687883	0.666780
C100	C	0.358918	0.020705	0.000116
C101	C	0.692251	0.354038	0.333449
C102	C	1.025584	0.687372	0.666782
C103	C	0.327627	0.064532	0.000142
C104	C	0.660960	0.397865	0.333476
C105	C	0.994293	0.731198	0.666809
C106	C	-0.205722	0.014984	0.000167
C107	C	0.127611	0.348318	0.333501
C108	C	0.460945	0.681651	0.666834
C109	C	-0.256139	0.014477	0.000164
C110	C	0.077194	0.347811	0.333498
C111	C	0.410528	0.681144	0.666831
C112	C	-0.268303	0.102639	0.000201
C113	C	0.065030	0.435973	0.333535
C114	C	0.398364	0.769306	0.666868
C115	C	-0.217890	0.103147	0.000200
C116	C	0.115443	0.436480	0.333533
C117	C	0.448776	0.769813	0.666866
C118	C	-0.186601	0.059315	0.000185
C119	C	0.146733	0.392649	0.333519
C120	C	0.480066	0.725982	0.666852
O121	O	-0.143304	0.141414	0.000189
O122	O	0.190029	0.474748	0.333522
O123	O	0.523363	0.808081	0.666856
O124	O	-0.120755	-0.021696	0.000167
O125	O	0.212578	0.311637	0.333500
O126	O	0.545911	0.644970	0.666834
C127	C	0.101798	0.018099	0.000156
C128	C	0.435132	0.351433	0.333489
C129	C	0.768465	0.684766	0.666823
C130	C	0.120919	0.062434	0.000175
C131	C	0.454253	0.395767	0.333509
C132	C	0.787586	0.729101	0.666842
C133	C	0.089628	0.106257	0.000195
C134	C	0.422961	0.439591	0.333529
C135	C	0.756295	0.772924	0.666862
C136	C	0.171334	0.062945	0.000167
C137	C	0.504667	0.396279	0.333500
C138	C	0.838001	0.729612	0.666834
C139	C	0.202625	0.019122	0.000147
C140	C	0.535959	0.352455	0.333480
C141	C	0.869292	0.685789	0.666814
C142	C	0.183502	-0.025213	0.000135
C143	C	0.516835	0.308120	0.333469
C144	C	0.850168	0.641453	0.666802
C145	C	0.133090	-0.025724	0.000136
C146	C	0.466423	0.307609	0.333470
C147	C	0.799756	0.640942	0.666803
C148	C	0.108752	0.150593	0.000207
C149	C	0.442085	0.483926	0.333540
C150	C	0.775418	0.817259	0.666874
C151	C	0.159164	0.151100	0.000205
C152	C	0.492498	0.484433	0.333539
C153	C	0.825831	0.817767	0.666872
C154	C	0.190455	0.107276	0.000185
C155	C	0.523789	0.440610	0.333519
C156	C	0.857122	0.773943	0.666852
C157	C	0.574710	-0.026477	0.000126
C158	C	0.908043	0.306856	0.333459
C159	C	1.241377	0.640189	0.666793
C160	C	0.574162	-0.080134	0.000101
C161	C	0.907496	0.253200	0.333434
C162	C	1.240829	0.586533	0.666768
C163	C	0.572508	-0.465532	-0.075543
C164	C	0.905841	-0.132199	0.257790
C165	C	1.239174	0.201135	0.591123
C166	C	0.574561	-0.263873	-0.075570
C167	C	0.907894	0.069460	0.257763
C168	C	1.241228	0.402793	0.591097
O169	O	0.576754	-0.239706	-0.139945
O170	O	0.910087	0.093627	0.193388
O171	O	1.243420	0.426961	0.526721
N172	N	0.572574	-0.236418	0.000120
N173	N	0.905908	0.096915	0.333454
N174	N	1.239241	0.430249	0.666787
C175	C	0.570077	-0.259381	0.075822
C176	C	0.903410	0.073952	0.409156
C177	C	1.236744	0.407286	0.742489
O178	O	0.568439	-0.231402	0.140201
O179	O	0.901773	0.101931	0.473534
O180	O	1.235106	0.435265	0.806867
C181	C	0.568027	-0.461039	0.075848
C182	C	0.901361	-0.127706	0.409181
C183	C	1.234694	0.205627	0.742515
C184	C	0.570009	-0.488491	0.000153
C185	C	0.903343	-0.155158	0.333486
C186	C	1.236676	0.178175	0.666820
C187	C	0.574490	-0.492984	-0.151232
C188	C	0.907823	-0.159651	0.182101
C189	C	1.241157	0.173683	0.515434
C190	C	0.573974	-0.543395	-0.151225
C191	C	0.907308	-0.210062	0.182108
C192	C	1.240641	0.123271	0.515442
C193	C	0.571476	-0.566355	-0.075529
C194	C	0.904809	-0.233021	0.257805
C195	C	1.238142	0.100312	0.591138
C196	C	0.569493	-0.538903	0.000160
C197	C	0.902827	-0.205569	0.333494
C198	C	1.236160	0.127764	0.666827
C199	C	0.565534	-0.484002	0.151549
C200	C	0.898867	-0.150668	0.484882
C201	C	1.232200	0.182665	0.818216
C202	C	0.565023	-0.534420	0.151549
C203	C	0.898356	-0.201086	0.484882
C204	C	1.231689	0.132247	0.818215
C205	C	0.567005	-0.561872	0.075854
C206	C	0.900338	-0.228538	0.409187
C207	C	1.233671	0.104795	0.742520
C208	C	0.566479	-0.612273	0.075864
C209	C	0.899812	-0.278940	0.409197
C210	C	1.233146	0.054394	0.742530
N211	N	0.568466	-0.639728	0.000174
N212	N	0.901799	-0.306395	0.333507
N213	N	1.235133	0.026938	0.666840
C214	C	0.570964	-0.616769	-0.075522
C215	C	0.904298	-0.283436	0.257811
C216	C	1.237631	0.049898	0.591144
C217	C	0.571152	-0.153507	0.075804
C218	C	0.904486	0.179826	0.409137
C219	C	1.237819	0.513159	0.742470
C220	C	0.571664	-0.103093	0.075797
C221	C	0.904997	0.230240	0.409131
C222	C	1.238331	0.563574	0.742464
C223	C	0.576149	-0.107589	-0.075595
C224	C	0.909482	0.225744	0.257738
C225	C	1.242815	0.559078	0.591072
C226	C	0.575634	-0.158004	-0.075588
C227	C	0.908967	0.175329	0.257745
C228	C	1.242300	0.508663	0.591079
C229	C	0.573139	-0.180963	0.000113
C230	C	0.906473	0.152371	0.333447
C231	C	1.239806	0.485704	0.666780
C232	C	0.569880	-0.722636	-0.075501
C233	C	0.903213	-0.389303	0.257832
C234	C	1.236547	-0.055970	0.591165
C235	C	0.569362	-0.773051	-0.075487
C236	C	0.902695	-0.439718	0.257846
C237	C	1.236029	-0.106385	0.591179
C238	C	0.564880	-0.768551	0.075905
C239	C	0.898213	-0.435218	0.409238
C240	C	1.231546	-0.101885	0.742571
C241	C	0.565395	-0.718140	0.075891
C242	C	0.898729	-0.384807	0.409225
C243	C	1.232062	-0.051473	0.742558
C244	C	0.567897	-0.695184	0.000181
C245	C	0.901231	-0.361851	0.333515
C246	C	1.234564	-0.028518	0.666848
O247	O	0.564292	-0.636473	0.140205
O248	O	0.897626	-0.303140	0.473539
O249	O	1.230959	0.030193	0.806872
O250	O	0.572612	-0.644758	-0.139891
O251	O	0.905946	-0.311425	0.193442
O252	O	1.239279	0.021909	0.526775
C253	C	0.573024	-0.415121	-0.075551
C254	C	0.906357	-0.081787	0.257783
C255	C	1.239690	0.251546	0.591116
C256	C	0.571041	-0.387669	0.000138
C257	C	0.904375	-0.054335	0.333471
C258	C	1.237708	0.278998	0.666805
C259	C	0.568543	-0.410628	0.075834
C260	C	0.901876	-0.077295	0.409168
C261	C	1.235210	0.256039	0.742501
C262	C	0.571553	-0.337254	0.000132
C263	C	0.904886	-0.003921	0.333465
C264	C	1.238220	0.329412	0.666799
C265	C	0.574051	-0.314295	-0.075564
C266	C	0.907385	0.019038	0.257769
C267	C	1.240718	0.352372	0.591102
C268	C	0.576038	-0.341750	-0.151254
C269	C	0.909371	-0.008417	0.182079
C270	C	1.242705	0.324916	0.515412
C271	C	0.575522	-0.392162	-0.151247
C272	C	0.908855	-0.058828	0.182086
C273	C	1.242189	0.274505	0.515420
C274	C	0.566556	-0.383173	0.151524
C275	C	0.899889	-0.049839	0.484858
C276	C	1.233223	0.283494	0.818191
C277	C	0.567072	-0.332761	0.151511
C278	C	0.900405	0.000572	0.484844
C279	C	1.233738	0.333905	0.818178
C280	C	0.569570	-0.309802	0.075815
C281	C	0.902903	0.023531	0.409148
C282	C	1.236237	0.356864	0.742481
C283	C	0.658916	0.057745	0.000177
C284	C	0.992249	0.391078	0.333510
C285	C	1.325582	0.724411	0.666843
C286	C	0.712570	0.058301	0.000184
C287	C	1.045903	0.391634	0.333518
C288	C	1.379236	0.724967	0.666851
C289	C	0.566316	0.150333	0.000190
C290	C	0.899649	0.483667	0.333523
C291	C	1.232982	0.817000	0.666856
C292	C	0.566863	0.203989	0.000209
C293	C	0.900197	0.537323	0.333542
C294	C	1.233530	0.870656	0.666876
N295	N	0.564104	0.068313	0.216496
N296	N	0.897438	0.401646	0.549829
N297	N	1.230771	0.734980	0.883163
N298	N	0.576925	0.055539	-0.216179
N299	N	0.910259	0.388872	0.117155
N300	N	1.243592	0.722206	0.450488
C301	C	0.595933	0.036511	0.260186
C302	C	0.929266	0.369844	0.593519
C303	C	1.262599	0.703178	0.926853
C304	C	0.593351	0.039093	0.347593
C305	C	0.926684	0.372427	0.680927
C306	C	1.260017	0.705760	1.014260
C307	C	0.558943	0.073480	0.391309
C308	C	0.892276	0.406813	0.724642
C309	C	1.225609	0.740147	1.057975
C310	C	0.527111	0.105283	0.347613
C311	C	0.860444	0.438617	0.680946
C312	C	1.193778	0.771950	1.014279
C313	C	0.529691	0.102699	0.260207
C314	C	0.863024	0.436032	0.593540
C315	C	1.196357	0.769365	0.926874
C316	C	0.547673	0.084758	0.652720
C317	C	0.881007	0.418091	0.986053
C318	C	1.214340	0.751424	1.319386
C319	C	0.545097	0.087341	0.740131
C320	C	0.878430	0.420674	1.073465
C321	C	1.211764	0.754008	1.406798
C322	C	0.611337	0.021150	0.740106
C323	C	0.944670	0.354483	1.073439
C324	C	1.278003	0.687817	1.406773
C325	C	0.613915	0.018570	0.652699
C326	C	0.947249	0.351903	0.986032
C327	C	1.280582	0.685237	1.319365
C328	C	0.582082	0.050372	0.609010
C329	C	0.915415	0.383705	0.942344
C330	C	1.248749	0.717038	1.275677
N331	N	0.556304	0.076121	0.480653
N332	N	0.889637	0.409455	0.813986
N333	N	1.222970	0.742788	1.147319
N334	N	0.584719	0.047728	0.519668
N335	N	0.918052	0.381061	0.853001
N336	N	1.251385	0.714394	1.186334
H337	H	0.057738	-0.062435	0.000124
H338	H	0.391072	0.270898	0.333457
H339	H	0.724405	0.604232	0.666791
H340	H	0.578180	-0.088887	-0.137230
H341	H	0.911513	0.244447	0.196103
H342	H	1.244847	0.577780	0.529437
H343	H	0.023479	0.185681	0.000238
H344	H	0.356813	0.519015	0.333571
H345	H	0.690146	0.852348	0.666904
H346	H	-0.202322	0.139251	0.000215
H347	H	0.131011	0.472584	0.333548
H348	H	0.464345	0.805917	0.666882
H349	H	0.434819	-0.014467	0.000094
H350	H	0.768153	0.318867	0.333427
H351	H	1.101486	0.652200	0.666761
H352	H	0.571918	-0.703952	-0.137151
H353	H	0.905251	-0.370618	0.196182
H354	H	1.238585	-0.037285	0.529515
H355	H	0.083279	0.186280	0.000224
H356	H	0.416612	0.519613	0.333557
H357	H	0.749945	0.852947	0.666891
H358	H	0.499092	0.133280	0.383211
H359	H	0.832426	0.466614	0.716544
H360	H	1.165759	0.799947	1.049877
H361	H	0.174727	0.187208	0.000216
H362	H	0.508060	0.520541	0.333549
H363	H	0.841393	0.853875	0.666882
H364	H	0.521754	0.110653	0.617155
H365	H	0.855087	0.443986	0.950489
H366	H	1.188421	0.777319	1.283822
H367	H	-0.271704	-0.021630	0.000146
H368	H	0.061630	0.311703	0.333479
H369	H	0.394963	0.645037	0.666812
H370	H	0.503772	0.128594	0.224635
H371	H	0.837105	0.461928	0.557969
H372	H	1.170439	0.795261	0.891302
H373	H	-0.293789	0.138319	0.000213
H374	H	0.039544	0.471652	0.333547
H375	H	0.372878	0.804986	0.666880
H376	H	0.563925	-0.461659	0.213188
H377	H	0.897258	-0.128326	0.546522
H378	H	1.230591	0.205008	0.879855
H379	H	0.564523	-0.401861	0.213167
H380	H	0.897856	-0.068528	0.546500
H381	H	1.231189	0.264806	0.879833
H382	H	0.575592	-0.565743	-0.212864
H383	H	0.908925	-0.232410	0.120470
H384	H	1.242258	0.100924	0.453803
H385	H	-0.067972	0.184751	0.000260
H386	H	0.265361	0.518085	0.333593
H387	H	0.598694	0.851418	0.666926
H388	H	-0.180251	-0.020707	0.000155
H389	H	0.153082	0.312626	0.333489
H390	H	0.486415	0.645959	0.666822
H391	H	0.562992	-0.553110	0.213196
H392	H	0.896325	-0.219776	0.546529
H393	H	1.229658	0.113557	0.879862
H394	H	0.637253	-0.004742	0.775685
H395	H	0.970587	0.328591	1.109018
H396	H	1.303920	0.661925	1.442352
H397	H	0.117527	-0.061829	0.000120
H398	H	0.450860	0.271504	0.333453
H399	H	0.784194	0.604838	0.666787
H400	H	-0.033709	-0.063362	0.000125
H401	H	0.299624	0.269971	0.333459
H402	H	0.632957	0.603305	0.666792
H403	H	0.343354	-0.015399	0.000100
H404	H	0.676687	0.317934	0.333433
H405	H	1.010020	0.651268	0.666766
H406	H	0.412728	0.145483	0.000151
H407	H	0.746061	0.478816	0.333484
H408	H	1.079395	0.812149	0.666817
H409	H	0.577247	-0.180352	-0.137226
H410	H	0.910580	0.152981	0.196108
H411	H	1.243913	0.486315	0.529441
H412	H	0.619268	0.013197	0.383165
H413	H	0.952601	0.346531	0.716499
H414	H	1.285934	0.679864	1.049832
H415	H	0.576526	-0.474297	-0.212877
H416	H	0.909860	-0.140963	0.120457
H417	H	1.243193	0.192370	0.453790
H418	H	0.570041	-0.080744	0.137436
H419	H	0.903374	0.252589	0.470769
H420	H	1.236707	0.585923	0.804103
H421	H	0.321277	0.144558	0.000175
H422	H	0.654610	0.477891	0.333508
H423	H	0.987943	0.811225	0.666841
H424	H	0.641933	-0.009430	0.617107
H425	H	0.975267	0.323903	0.950441
H426	H	1.308600	0.657236	1.283774
H427	H	0.577136	-0.414509	-0.212886
H428	H	0.910469	-0.081175	0.120448
H429	H	1.243803	0.252158	0.453781
H430	H	0.208988	-0.060896	0.000114
H431	H	0.542322	0.272437	0.333448
H432	H	0.875655	0.605771	0.666781
H433	H	0.517076	0.115345	0.775721
H434	H	0.850409	0.448678	1.109054
H435	H	1.183743	0.782012	1.442387
H436	H	0.570974	-0.795401	-0.137130
H437	H	0.904308	-0.462067	0.196203
H438	H	1.237641	-0.128734	0.529537
H439	H	0.623953	0.008512	0.224599
H440	H	0.957287	0.341845	0.557932
H441	H	1.290620	0.675178	0.891265
H442	H	0.569121	-0.172195	0.137452
H443	H	0.902454	0.161138	0.470786
H444	H	1.235788	0.494471	0.804119
H445	H	0.563762	-0.695785	0.137528
H446	H	0.897095	-0.362451	0.470862
H447	H	1.230429	-0.029118	0.804195
H448	H	0.562844	-0.787254	0.137535
H449	H	0.896177	-0.453920	0.470868
H450	H	1.229510	-0.120587	0.804201
H451	H	0.578069	-0.323048	-0.212889
H452	H	0.911402	0.010286	0.120444
H453	H	1.244735	0.343619	0.453778
H454	H	0.565453	-0.310413	0.213156
H455	H	0.898786	0.022920	0.546489
H456	H	1.232120	0.356253	0.879822
