data_functionalizedCrystal
_audit_creation_method	'MofGen! by Chris Wilmer'
_symmetry_space_group_name_H-M	'P1'
_symmetry_Int_Tables_number	1
_symmetry_cell_setting	triclinic
loop_
_symmetry_equiv_pos_as_xyz
  x,y,z
_cell_length_a	10.540539
_cell_length_b	13.339070
_cell_length_c	9.616153
_cell_angle_alpha	89.998048
_cell_angle_beta	90.004388
_cell_angle_gamma	79.922607
loop_
_atom_site_label
_atom_site_type_symbol
_atom_site_fract_x
_atom_site_fract_y
_atom_site_fract_z
O1	O	0.637991	-1.346888	0.115671
O2	O	0.554251	-1.051756	0.115666
O3	O	0.413709	-1.206055	0.115667
O4	O	0.778532	-1.192589	0.115670
O5	O	0.413694	-1.206049	-0.115625
O6	O	0.554235	-1.051750	-0.115626
O7	O	0.637975	-1.346882	-0.115621
Zn8	Zn	0.596103	-1.199315	-0.152346
Zn9	Zn	0.596123	-1.199323	0.152391
O10	O	0.778517	-1.192583	-0.115622
C11	C	0.540098	-1.013962	0.000019
C12	C	0.497934	-0.901355	0.000018
C13	C	0.366054	-1.205042	0.000023
C14	C	0.224076	-1.202021	0.000031
C15	C	0.652128	-1.384677	0.000029
C16	C	0.694292	-1.497283	0.000039
C17	C	0.001187	-1.086244	0.000548
C18	C	0.148849	-1.089306	0.000027
C19	C	0.180899	-1.256261	-0.132047
C20	C	0.033043	-1.252414	-0.132158
C21	C	0.033324	-1.254713	0.130863
C22	C	0.180660	-1.255752	0.132610
C23	C	0.826172	-1.193596	0.000025
C24	C	0.968150	-1.196617	0.000026
N25	N	0.596090	-1.199317	-0.360320
C26	C	0.825777	-0.538931	0.000043
C27	C	0.865396	-0.644730	0.000049
C28	C	0.773534	-0.708891	0.000040
C29	C	0.642046	-0.667244	0.000027
C30	C	0.602423	-0.561434	0.000032
C31	C	0.550180	-0.731395	0.000030
C32	C	0.418692	-0.689747	0.000017
C33	C	0.379076	-0.583948	0.000021
C34	C	0.470938	-0.519786	0.000029
C35	C	0.589803	-0.837204	0.000025
C36	C	0.366449	-0.859707	0.000015
C37	C	0.326830	-0.753908	0.000008
C38	C	0.521372	-1.282166	-0.580646
C39	C	0.520903	-1.281942	-0.419479
C40	C	0.529822	-1.093296	-0.418853
C41	C	0.529269	-1.093789	-0.580071
C42	C	0.737121	-1.221561	-0.580193
C43	C	0.737064	-1.223954	-0.418964
N44	N	0.596128	-1.199329	0.360365
H45	H	0.176911	-1.046628	0.094706
H46	H	0.786486	-1.301951	-0.380708
C47	C	0.819628	-1.147825	-0.364556
N48	N	0.881812	-1.090479	-0.323574
H49	H	0.972453	-0.678632	0.000070
C50	C	0.810706	-1.323849	-0.635093
N51	N	0.866117	-1.400897	-0.676443
H52	H	0.438687	-0.433635	0.000023
C53	C	0.381911	-1.263111	-0.635387
N54	N	0.276868	-1.248754	-0.676617
H55	H	-0.010656	-1.218236	0.230970
C56	C	-0.060006	-1.026344	-0.126722
N57	N	-0.106083	-0.981235	-0.222594
C58	C	0.265393	-0.930281	0.000001
N59	N	0.189285	-0.983443	-0.000008
C60	C	0.380587	-1.262605	-0.367390
N61	N	0.274894	-1.248034	-0.328159
C62	C	0.926809	-0.468348	0.000054
N63	N	1.002913	-0.415183	0.000062
C64	C	0.234436	-0.538139	0.000005
N65	N	0.125492	-0.503637	-0.000014
H66	H	0.425304	-1.074340	-0.617689
C67	C	0.817120	-0.825273	0.000029
N68	N	0.849956	-0.912936	0.000009
C69	C	0.182195	-0.708082	0.000003
N70	N	0.073257	-0.673564	0.000001
H71	H	0.210648	-1.218578	-0.230336
H72	H	0.793193	-1.161166	-0.618347
C73	C	0.581647	-1.388372	-0.366010
N74	N	0.627393	-1.468541	-0.325744
H75	H	0.581254	-1.030128	-0.380535
H76	H	0.013848	-1.336127	0.131753
C77	C	0.390637	-1.066413	-0.364345
N78	N	0.285799	-1.046172	-0.323295
H79	H	0.175949	-1.046323	-0.094810
H80	H	0.579709	-1.030247	-0.619094
H81	H	-0.042583	-1.041721	0.095263
C82	C	-0.023527	-1.198241	-0.265533
N83	N	-0.066131	-1.157433	-0.365991
C84	C	0.581875	-1.388951	-0.633013
N85	N	0.627446	-1.469384	-0.672470
H86	H	0.231466	-1.339035	-0.136956
C87	C	0.005562	-1.361923	-0.140273
N88	N	-0.015131	-1.444404	-0.146394
H89	H	0.207997	-1.216065	0.230317
H90	H	0.232892	-1.337929	0.140587
H91	H	0.696861	-0.871103	0.000030
