data_functionalizedCrystal
_audit_creation_method	'MofGen! by Chris Wilmer'
_symmetry_space_group_name_H-M	'P1'
_symmetry_Int_Tables_number	1
_symmetry_cell_setting	triclinic
loop_
_symmetry_equiv_pos_as_xyz
  x,y,z
_cell_length_a	16.109301
_cell_length_b	16.992695
_cell_length_c	14.586319
_cell_angle_alpha	89.995905
_cell_angle_beta	89.999213
_cell_angle_gamma	87.064852
loop_
_atom_site_label
_atom_site_type_symbol
_atom_site_fract_x
_atom_site_fract_y
_atom_site_fract_z
O1	O	1.109856	0.100784	-0.076183
O2	O	1.443189	0.434117	0.257150
O3	O	1.776523	0.767450	0.590484
O4	O	0.868631	0.113326	-0.076198
O5	O	1.201964	0.446659	0.257136
O6	O	1.535298	0.779993	0.590469
O7	O	0.988277	-0.007087	-0.076183
O8	O	1.321610	0.326246	0.257150
O9	O	1.654943	0.659579	0.590483
O10	O	0.990211	0.221197	-0.076198
O11	O	1.323544	0.554531	0.257136
O12	O	1.656877	0.887864	0.590469
O13	O	0.988268	-0.007089	0.076298
O14	O	1.321601	0.326244	0.409631
O15	O	1.654934	0.659577	0.742964
O16	O	0.868622	0.113324	0.076283
O17	O	1.201955	0.446658	0.409616
O18	O	1.535289	0.779991	0.742950
O19	O	1.109847	0.100782	0.076298
O20	O	1.443180	0.434115	0.409631
O21	O	1.776514	0.767449	0.742964
Cu22	Cu	0.989234	0.107053	0.090213
Cu23	Cu	1.322567	0.440386	0.423546
Cu24	Cu	1.655900	0.773720	0.756880
Cu25	Cu	0.989244	0.107055	-0.090113
Cu26	Cu	1.322578	0.440388	0.243220
Cu27	Cu	1.655911	0.773722	0.576554
O28	O	0.990202	0.221196	0.076283
O29	O	1.323535	0.554529	0.409617
O30	O	1.656868	0.887862	0.742950
C31	C	0.837618	0.112817	0.000041
C32	C	1.170951	0.446151	0.333374
C33	C	1.504284	0.779484	0.666708
C34	C	0.745221	0.111294	0.000035
C35	C	1.078554	0.444627	0.333369
C36	C	1.411887	0.777961	0.666702
C37	C	0.527480	0.179203	0.000042
C38	C	0.860813	0.512537	0.333375
C39	C	1.194147	0.845870	0.666708
C40	C	0.440664	0.177766	0.000048
C41	C	0.773997	0.511099	0.333381
C42	C	1.107330	0.844433	0.666714
C43	C	0.451005	0.034899	0.000053
C44	C	0.784338	0.368233	0.333386
C45	C	1.117671	0.701566	0.666720
C46	C	0.537819	0.036337	0.000054
C47	C	0.871153	0.369671	0.333387
C48	C	1.204486	0.703004	0.666720
C49	C	0.576055	0.108492	0.000043
C50	C	0.909388	0.441825	0.333377
C51	C	1.242721	0.775158	0.666710
C52	C	0.402424	0.105616	0.000049
C53	C	0.735757	0.438950	0.333382
C54	C	1.069090	0.772283	0.666715
C55	C	0.308294	0.104057	0.000055
C56	C	0.641627	0.437391	0.333388
C57	C	0.974960	0.770724	0.666722
C58	C	0.670191	0.110051	0.000039
C59	C	1.003524	0.443384	0.333372
C60	C	1.336857	0.776718	0.666705
C61	C	0.985784	-0.036300	0.000057
C62	C	1.319117	0.297033	0.333390
C63	C	1.652451	0.630366	0.666724
C64	C	0.978361	-0.123343	0.000056
C65	C	1.311694	0.209991	0.333390
C66	C	1.645027	0.543324	0.666723
C67	C	1.049987	-0.173601	0.000062
C68	C	1.383320	0.159732	0.333395
C69	C	1.716653	0.493065	0.666728
C70	C	1.043007	-0.255386	0.000052
C71	C	1.376340	0.077947	0.333386
C72	C	1.709673	0.411281	0.666719
C73	C	0.964400	-0.286911	0.000045
C74	C	1.297733	0.046423	0.333378
C75	C	1.631066	0.379756	0.666711
C76	C	0.892768	-0.236645	0.000037
C77	C	1.226102	0.096688	0.333370
C78	C	1.559435	0.430021	0.666703
C79	C	0.899749	-0.154862	0.000039
C80	C	1.233083	0.178471	0.333372
C81	C	1.566416	0.511805	0.666706
C82	C	0.935467	-0.530501	0.000030
C83	C	1.268800	-0.197168	0.333364
C84	C	1.602134	0.136166	0.666697
C85	C	0.928491	-0.612291	0.000030
C86	C	1.261825	-0.278957	0.333364
C87	C	1.595158	0.054376	0.666697
C88	C	1.078731	-0.631026	0.000045
C89	C	1.412064	-0.297692	0.333378
C90	C	1.745397	0.035641	0.666711
C91	C	1.085704	-0.549240	0.000053
C92	C	1.419038	-0.215907	0.333386
C93	C	1.752371	0.117427	0.666719
C94	C	1.014073	-0.498982	0.000040
C95	C	1.347406	-0.165649	0.333373
C96	C	1.680740	0.167685	0.666706
N97	N	0.957263	-0.370508	0.000038
N98	N	1.290596	-0.037174	0.333372
N99	N	1.623930	0.296159	0.666705
N100	N	1.021210	-0.415387	0.000040
N101	N	1.354544	-0.082053	0.333373
N102	N	1.687877	0.251280	0.666706
C103	C	1.140860	0.101291	0.000057
C104	C	1.474194	0.434624	0.333390
C105	C	1.807527	0.767958	0.666724
C106	C	1.233257	0.102814	0.000057
C107	C	1.566591	0.436147	0.333390
C108	C	1.899924	0.769481	0.666723
C109	C	0.992694	0.250408	0.000041
C110	C	1.326027	0.583742	0.333374
C111	C	1.659361	0.917075	0.666708
C112	C	1.000118	0.337451	0.000036
C113	C	1.333451	0.670784	0.333369
C114	C	1.666784	1.004117	0.666702
N115	N	0.989232	0.107051	0.217045
N116	N	1.322566	0.440384	0.550378
N117	N	1.655899	0.773718	0.883712
N118	N	0.989252	0.107051	-0.216945
N119	N	1.322585	0.440384	0.116388
N120	N	1.655919	0.773717	0.449722
C121	C	1.042231	0.053750	0.452058
C122	C	1.375565	0.387083	0.785391
C123	C	1.708898	0.720416	1.118724
C124	C	1.042233	0.053748	0.548039
C125	C	1.375567	0.387081	0.881372
C126	C	1.708900	0.720414	1.214706
C127	C	0.936247	0.160355	0.548036
C128	C	1.269581	0.493688	0.881369
C129	C	1.602914	0.827021	1.214702
C130	C	0.936241	0.160352	0.452056
C131	C	1.269575	0.493686	0.785389
C132	C	1.602908	0.827019	1.118723
C133	C	0.989238	0.107051	0.404070
C134	C	1.322571	0.440384	0.737403
C135	C	1.655905	0.773717	1.070736
C136	C	0.989246	0.107051	0.596030
C137	C	1.322580	0.440385	0.929364
C138	C	1.655913	0.773718	1.262697
C139	C	0.989248	0.107050	0.700098
C140	C	1.322582	0.440383	1.033431
C141	C	1.655915	0.773716	1.366764
C142	C	0.989235	0.107051	0.299996
C143	C	1.322568	0.440384	0.633329
C144	C	1.655902	0.773718	0.966663
H145	H	0.401118	0.235347	0.000048
H146	H	0.734451	0.568680	0.333382
H147	H	1.067784	0.902013	0.666715
H148	H	1.085384	0.010345	0.587108
H149	H	1.418718	0.343678	0.920442
H150	H	1.752051	0.677011	1.253775
H151	H	1.137048	-0.671954	0.000053
H152	H	1.470382	-0.338621	0.333387
H153	H	1.803715	-0.005288	0.666720
Br154	Br	0.399108	-0.063020	0.000063
Br155	Br	0.732442	0.270314	0.333397
Br156	Br	1.065775	0.603647	0.666730
H157	H	0.893100	0.203753	0.587116
H158	H	1.226433	0.537086	0.920449
H159	H	1.559766	0.870419	1.253782
Br160	Br	0.603748	-0.059635	0.000067
Br161	Br	0.937081	0.273698	0.333401
Br162	Br	1.270415	0.607031	0.666734
Br163	Br	0.579369	0.277126	0.000031
Br164	Br	0.912702	0.610459	0.333364
Br165	Br	1.246035	0.943793	0.666698
H166	H	1.085383	0.010347	0.412989
H167	H	1.418716	0.343681	0.746323
H168	H	1.752050	0.677014	1.079656
H169	H	0.893084	0.203757	0.412982
H170	H	1.226417	0.537090	0.746315
H171	H	1.559751	0.870423	1.079648
H172	H	0.828765	-0.262319	0.000024
H173	H	1.162098	0.071014	0.333358
H174	H	1.495431	0.404348	0.666691
Br175	Br	1.156673	-0.130827	0.000086
Br176	Br	1.490006	0.202507	0.333419
Br177	Br	1.823339	0.535840	0.666752
Br178	Br	0.821804	-0.655073	0.000029
Br179	Br	1.155137	-0.321740	0.333363
Br180	Br	1.488470	0.011594	0.666696
Br181	Br	1.140218	-0.323592	0.000059
Br182	Br	1.473552	0.009741	0.333393
Br183	Br	1.806885	0.343074	0.666726
H184	H	0.877139	-0.489590	0.000020
H185	H	1.210473	-0.156257	0.333353
H186	H	1.543806	0.177077	0.666687
Br187	Br	1.192389	-0.506463	0.000034
Br188	Br	1.525722	-0.173130	0.333367
Br189	Br	1.859056	0.160204	0.666701
Br190	Br	0.802538	-0.086652	0.000025
Br191	Br	1.135872	0.246681	0.333358
Br192	Br	1.469205	0.580015	0.666691
