data_functionalizedCrystal
_audit_creation_method	'MofGen! by Chris Wilmer'
_symmetry_space_group_name_H-M	'P1'
_symmetry_Int_Tables_number	1
_symmetry_cell_setting	triclinic
loop_
_symmetry_equiv_pos_as_xyz
  x,y,z
_cell_length_a	8.597226
_cell_length_b	8.559649
_cell_length_c	7.681481
_cell_angle_alpha	94.930900
_cell_angle_beta	91.834657
_cell_angle_gamma	77.626040
loop_
_atom_site_label
_atom_site_type_symbol
_atom_site_fract_x
_atom_site_fract_y
_atom_site_fract_z
O1	O	-2.002629	-0.283814	-0.450307
O2	O	-1.551266	-0.295110	-0.381818
O3	O	-1.816713	-0.058106	-0.422095
O4	O	-1.737182	-0.520819	-0.410030
O5	O	-1.849393	-0.028866	-0.134196
O6	O	-1.583947	-0.265871	-0.093919
O7	O	-2.035309	-0.254575	-0.162408
Zn8	Zn	-1.814816	-0.255580	-0.082453
Zn9	Zn	-1.771759	-0.294104	-0.461773
O10	O	-1.769862	-0.491579	-0.122131
C11	C	-1.510357	-0.277646	-0.229182
C12	C	-1.339775	-0.269150	-0.203298
C13	C	-1.839080	0.015855	-0.279063
C14	C	-1.857019	0.192672	-0.281795
C15	C	-1.076220	-0.272035	-0.315040
C16	C	-1.246807	-0.280516	-0.340910
C17	C	-1.747495	-0.565540	-0.265167
C18	C	-1.729554	-0.742359	-0.262446
N19	N	-1.844213	-0.229288	0.176421
N20	N	-1.742376	-0.320385	-0.720649
H21	H	-1.288862	-0.252939	-0.065690
H22	H	-1.297722	-0.296748	-0.478527
C23	C	-1.984668	-0.103672	0.256704
N24	N	-2.090455	-0.009057	0.317176
C25	C	-2.023004	0.300281	-0.306971
N26	N	-2.148021	0.381333	-0.325936
C27	C	-1.601928	-0.445993	0.199074
N28	N	-1.496138	-0.540602	0.138598
H29	H	-1.606701	0.177993	-0.243799
