data_functionalizedCrystal
_audit_creation_method	'MofGen! by Chris Wilmer'
_symmetry_space_group_name_H-M	'P1'
_symmetry_Int_Tables_number	1
_symmetry_cell_setting	triclinic
loop_
_symmetry_equiv_pos_as_xyz
  x,y,z
_cell_length_a	12.759400
_cell_length_b	12.759395
_cell_length_c	12.759401
_cell_angle_alpha	89.994588
_cell_angle_beta	90.009367
_cell_angle_gamma	89.988581
loop_
_atom_site_label
_atom_site_type_symbol
_atom_site_fract_x
_atom_site_fract_y
_atom_site_fract_z
Zn1	Zn	-0.418472	-1.606098	0.594080
Zn2	Zn	-0.594126	-1.606047	0.418403
Zn3	Zn	-0.418456	-1.430450	0.418409
Zn4	Zn	-0.594104	-1.430393	0.594035
O5	O	-0.506290	-1.518247	0.506232
O6	O	-0.441788	-1.753112	0.570792
O7	O	-0.570826	-1.582756	0.271383
O8	O	-0.271437	-1.453795	0.441734
O9	O	-0.570841	-1.753075	0.441724
O10	O	-0.271449	-1.582843	0.570798
O11	O	-0.441762	-1.453746	0.271388
O12	O	-0.441741	-1.283421	0.441690
O13	O	-0.570803	-1.453699	0.741062
O14	O	-0.570788	-1.283380	0.570721
O15	O	-0.441767	-1.582788	0.741095
O16	O	-0.741144	-1.582701	0.441680
O17	O	-0.741128	-1.453649	0.570716
C18	C	-0.506261	-1.245280	0.506202
C19	C	-0.506274	-1.128503	0.506214
C20	C	-0.372123	-0.909107	0.640858
C21	C	-0.305032	-0.963993	0.708156
C22	C	-0.305019	-1.073714	0.708141
C23	C	-0.372106	-1.128553	0.640824
C24	C	-0.439197	-1.073667	0.573526
C25	C	-0.439200	-0.963943	0.573546
C26	C	-0.573365	-1.073617	0.438917
C27	C	-0.573375	-0.963896	0.438925
C28	C	-0.640452	-1.128456	0.371600
C29	C	-0.707540	-1.073570	0.304295
C30	C	-0.707549	-0.963842	0.304312
C31	C	-0.640466	-0.909010	0.371627
C32	C	-0.779257	-1.518192	0.506215
C33	C	-0.896034	-1.518265	0.506243
C34	C	-0.950822	-1.585426	0.573502
C35	C	-1.060546	-1.585475	0.573528
C36	C	-1.060684	-1.451198	0.439027
C37	C	-0.950962	-1.451144	0.439007
C38	C	-0.950743	-1.662953	0.651152
C39	C	-1.060467	-1.663002	0.651178
C40	C	-0.232256	-1.518331	0.506271
C41	C	-0.115480	-1.518367	0.506288
C42	C	-0.506284	-1.518243	0.780265
C43	C	-0.506282	-1.518241	0.897042
C44	C	-0.506308	-0.792281	0.506254
C45	C	-0.506288	-0.909057	0.506242
C46	C	-0.439107	-1.585451	0.951923
C47	C	-0.439109	-1.585445	1.061647
C48	C	-0.573471	-1.451015	1.061599
C49	C	-0.573463	-1.451016	0.951877
C50	C	-0.361537	-1.663067	0.951951
C51	C	-0.361539	-1.663061	1.061675
C52	C	-0.506311	-1.518241	1.233264
C53	C	-0.506293	-1.518233	1.116488
H54	H	-0.640443	-1.217797	0.371599
H55	H	-0.920954	-1.641083	0.732498
Br56	Br	-1.110032	-1.798671	0.614983
H57	H	-0.906354	-1.396447	0.384249
Br58	Br	-0.225910	-1.626798	0.902340
Br59	Br	-0.664612	-1.359777	0.877398
Br60	Br	-0.410133	-1.791873	0.895219
H61	H	-0.916667	-1.740253	0.622068
H62	H	-0.250389	-1.118402	0.762942
H63	H	-0.372099	-1.217894	0.640828
Br64	Br	-0.640466	-0.760101	0.371648
Br65	Br	-0.214000	-0.889566	0.799521
Br66	Br	-0.664639	-1.359784	1.136025
Br67	Br	-1.135235	-1.360106	0.347787
H68	H	-1.094490	-1.633791	0.728448
H69	H	-0.762162	-1.118228	0.249496
Br70	Br	-0.798618	-0.889363	0.212986
Br71	Br	-0.397864	-1.798669	1.111326
Br72	Br	-0.372117	-0.760198	0.640864
Br73	Br	-0.232776	-1.614346	1.118430
