data_functionalizedCrystal
_audit_creation_method	'MofGen! by Chris Wilmer'
_symmetry_space_group_name_H-M	'P1'
_symmetry_Int_Tables_number	1
_symmetry_cell_setting	triclinic
loop_
_symmetry_equiv_pos_as_xyz
  x,y,z
_cell_length_a	19.851628
_cell_length_b	23.196402
_cell_length_c	19.851628
_cell_angle_alpha	60.005676
_cell_angle_beta	90.005779
_cell_angle_gamma	59.996831
loop_
_atom_site_label
_atom_site_type_symbol
_atom_site_fract_x
_atom_site_fract_y
_atom_site_fract_z
Zr1	Zr	0.648963	0.630948	-0.088302
O2	O	0.541394	0.751219	-0.195868
O3	O	0.681940	0.510678	-0.055330
O4	O	0.681939	0.630936	-0.195854
O5	O	0.541395	0.630970	0.055506
O6	O	0.792800	0.630925	-0.195840
O7	O	0.541396	0.630961	-0.055344
O8	O	0.792803	0.415804	0.055532
O9	O	0.541392	0.846090	-0.195866
O10	O	0.778737	0.560137	-0.041255
O11	O	0.696002	0.560152	0.041461
O12	O	0.696000	0.701741	-0.123988
O13	O	0.613264	0.701756	-0.041271
Zr14	Zr	0.825773	0.630944	0.088512
Zr15	Zr	0.825774	0.630930	-0.088281
Zr16	Zr	0.648961	0.630962	0.088491
Zr17	Zr	0.648959	0.782255	-0.088299
Zr18	Zr	0.825777	0.479636	0.088509
O19	O	0.792795	0.751214	0.055540
O20	O	0.792797	0.751194	-0.195837
O21	O	0.541392	0.751239	0.055509
O22	O	0.933342	0.510672	0.196078
O23	O	0.933344	0.510652	-0.055299
O24	O	0.681938	0.510697	0.196047
O25	O	0.933341	0.630922	-0.055296
O26	O	0.792797	0.630956	0.196064
O27	O	0.681935	0.630967	0.196050
O28	O	0.933340	0.630930	0.055554
O29	O	0.681933	0.846076	-0.195849
O30	O	0.792802	0.415816	0.196059
O31	O	0.933344	0.415801	0.196076
O32	O	0.933345	0.415790	0.055549
O33	O	0.541390	0.846101	-0.055339
O34	O	0.681932	0.846087	-0.055322
O35	O	0.778736	0.560150	0.124198
O36	O	0.861472	0.560136	0.041481
O37	O	0.778734	0.701739	-0.041251
O38	O	0.695998	0.701754	0.041465
C39	C	0.516203	0.630968	0.000078
C40	C	0.441142	0.630976	0.000069
C41	C	0.737372	0.441683	0.000100
C42	C	0.737374	0.377449	0.000099
C43	C	0.737370	0.630928	-0.221036
C44	C	0.737370	0.630922	-0.296090
C45	C	0.214685	0.708166	-0.045013
C46	C	0.192325	0.669567	-0.077701
C47	C	0.303735	0.630954	0.000093
C48	C	0.192355	0.669558	0.032765
C49	C	0.171003	0.630940	0.000115
C50	C	0.282364	0.592356	-0.032641
C51	C	0.282391	0.592357	0.077869
C52	C	0.260084	0.553702	0.045200
C53	C	0.380198	0.630965	0.000078
C54	C	0.094546	0.630923	0.000129
C55	C	0.958532	0.630924	0.000132
C56	C	1.033594	0.630916	0.000141
C57	C	0.780557	-0.085402	-0.043057
C58	C	0.780555	-0.025043	-0.043065
C59	C	0.737369	0.005147	0.000112
C60	C	0.694164	-0.025013	0.043283
C61	C	0.694161	-0.085365	0.043282
C62	C	0.743538	0.067179	0.072445
C63	C	0.743548	0.127526	0.072448
C64	C	0.737375	0.191295	0.000113
C65	C	0.731209	0.194701	-0.072224
C66	C	0.731205	0.134349	-0.072225
C67	C	0.737367	0.070589	0.000117
C68	C	0.780569	0.286899	-0.043068
C69	C	0.780561	0.347262	-0.043078
C70	C	0.694177	0.347286	0.043278
C71	C	0.694179	0.286929	0.043280
C72	C	0.737380	0.256737	0.000109
C73	C	0.737363	0.820209	0.000110
C74	C	0.737362	0.884443	0.000111
C75	C	0.782483	0.553732	-0.477241
C76	C	0.815185	0.592307	-0.454857
C77	C	0.737368	0.630954	-0.566273
C78	C	0.704706	0.592339	-0.454896
C79	C	0.737370	0.630935	-0.433520
C80	C	0.770115	0.669531	-0.544877
C81	C	0.659593	0.669551	-0.544914
C82	C	0.692276	0.708183	-0.522582
C83	C	0.737368	0.630964	-0.642746
C84	C	0.737371	0.630931	-0.357052
C85	C	0.737366	0.630963	0.221246
C86	C	0.737366	0.630969	0.296300
C87	C	0.958537	0.441661	0.000127
C88	C	1.033600	0.377419	0.000135
C89	C	0.737371	0.441700	0.221242
C90	C	0.737372	0.377472	0.296294
C91	C	0.958535	0.441678	0.221269
C92	C	1.033597	0.377442	0.296330
C93	C	0.516201	0.820213	-0.221059
C94	C	0.441138	0.884449	-0.296120
C95	C	0.516199	0.820231	0.000083
C96	C	0.441136	0.884473	0.000075
C97	C	0.737365	0.820191	-0.221032
C98	C	0.737364	0.884419	-0.296084
C99	C	1.025664	0.347251	-0.043057
C100	C	1.096186	0.286898	-0.043066
C101	C	1.174644	0.256709	0.000121
C102	C	1.182579	0.286883	0.043314
C103	C	1.112057	0.347239	0.043318
C104	C	0.780558	0.347309	0.374734
C105	C	0.780556	0.286968	0.445260
C106	C	0.737371	0.256788	0.437344
C107	C	0.694179	0.286957	0.358895
C108	C	0.694177	0.347300	0.288371
C109	C	1.112042	0.347269	0.288402
C110	C	1.182578	0.286921	0.358923
C111	C	1.174667	0.256744	0.437371
C112	C	1.096214	0.286923	0.445297
C113	C	1.025680	0.347274	0.374777
C114	C	0.362694	0.914630	-0.288192
C115	C	0.292158	0.974997	-0.358713
C116	C	0.300069	1.005177	-0.437161
C117	C	0.378522	0.974994	-0.445087
C118	C	0.449056	0.914632	-0.374567
C119	C	0.449072	0.914646	0.043259
C120	C	0.378549	0.975017	0.043249
C121	C	0.300091	1.005208	0.000059
C122	C	0.292157	0.975031	-0.043130
C123	C	0.362679	0.914666	-0.043124
C124	C	0.780557	0.914581	-0.288141
C125	C	0.780573	0.974922	-0.358654
C126	C	0.737389	1.005105	-0.437108
C127	C	0.694195	0.974937	-0.445048
C128	C	0.694185	0.914593	-0.374537
H129	H	0.196233	0.773451	-0.083211
F130	F	0.724637	0.137979	-0.149210
F131	F	1.120516	0.379335	0.089296
F132	F	0.668596	0.549669	-0.404197
F133	F	0.642423	0.793576	-0.546863
H134	H	0.356205	0.890100	-0.078288
F135	F	0.737382	0.192563	0.512410
H136	H	0.153515	0.702196	-0.143466
F137	F	0.332930	0.549744	-0.068863
F138	F	0.532567	0.882528	0.089229
F139	F	0.942195	0.379377	0.383226
H140	H	0.815743	0.262317	-0.078224
H141	H	0.385026	0.999576	0.078422
F142	F	1.087724	0.254793	-0.089036
F143	F	0.208671	1.007107	-0.350260
F144	F	0.225042	1.069453	0.000062
H145	H	0.228267	0.999622	-0.078294
H146	H	0.815722	0.890015	-0.224266
F147	F	0.826528	0.379416	0.383177
H148	H	0.242629	1.054327	-0.494576
F149	F	0.354256	0.882519	-0.204709
F150	F	0.386928	1.007121	-0.528583
H151	H	0.880960	0.559664	-0.416051
F152	F	0.333119	0.549746	0.163810
F153	F	0.284344	0.468321	0.095019
F154	F	0.826531	0.254869	0.528742
H155	H	0.797815	0.702140	-0.583561
H156	H	0.815745	0.999478	-0.352172
H157	H	0.512927	0.890060	-0.381031
F158	F	0.737406	1.069331	-0.512146
H159	H	0.659036	0.999522	-0.508935
F160	F	0.648203	0.882505	-0.383002
F161	F	0.141637	0.712234	0.068871
F162	F	1.266065	0.254810	0.350470
F163	F	0.826519	-0.117518	-0.089020
H164	H	0.659012	0.371851	0.224504
F165	F	0.826532	0.007056	-0.089011
F166	F	0.942169	0.379372	-0.089028
H167	H	0.726180	0.246624	-0.131127
H168	H	0.815732	0.371819	-0.078236
H169	H	0.659009	0.371870	0.078429
F170	F	1.249694	0.192471	0.000110
F171	F	1.087808	0.254798	0.528793
F172	F	0.648209	0.254830	0.089231
H173	H	1.118499	0.371830	0.224532
H174	H	1.232107	0.207602	0.494786
F175	F	0.573638	0.712182	-0.595636
H176	H	0.748576	0.124742	0.131350
F177	F	0.750106	-0.000685	0.149438
H178	H	0.658985	-0.109916	0.078436
F179	F	0.648200	0.007121	0.089232
H180	H	1.246469	0.262294	0.078475
F181	F	0.832405	0.468407	-0.453159
H182	H	0.659019	0.262375	0.352462
