data_functionalizedCrystal
_audit_creation_method	'MofGen! by Chris Wilmer'
_symmetry_space_group_name_H-M	'P1'
_symmetry_Int_Tables_number	1
_symmetry_cell_setting	triclinic
loop_
_symmetry_equiv_pos_as_xyz
  x,y,z
_cell_length_a	10.540539
_cell_length_b	16.053802
_cell_length_c	16.992695
_cell_angle_alpha	92.741074
_cell_angle_beta	87.596857
_cell_angle_gamma	87.394910
loop_
_atom_site_label
_atom_site_type_symbol
_atom_site_fract_x
_atom_site_fract_y
_atom_site_fract_z
O1	O	1.700501	-0.069391	0.107291
O2	O	2.200501	0.430609	0.607291
O3	O	1.331993	-0.069401	0.117708
O4	O	1.831993	0.430599	0.617708
O5	O	1.514769	-0.069389	-0.001651
O6	O	2.014769	0.430611	0.498349
O7	O	1.517725	-0.069402	0.226650
O8	O	2.017725	0.430598	0.726650
O9	O	1.504706	0.069469	0.004892
O10	O	2.004706	0.569469	0.504892
O11	O	1.321930	0.069457	0.124251
O12	O	1.821930	0.569457	0.624251
O13	O	1.690438	0.069468	0.113834
O14	O	2.190438	0.569468	0.613834
Zn15	Zn	1.504586	0.091509	0.120081
Zn16	Zn	2.004586	0.591509	0.620081
Zn17	Zn	1.517845	-0.091443	0.111461
Zn18	Zn	2.017845	0.408557	0.611461
O19	O	1.507662	0.069456	0.233193
O20	O	2.007662	0.569456	0.733193
C21	C	1.279591	0.000027	0.120198
C22	C	1.779591	0.500027	0.620198
C23	C	1.138440	0.000023	0.117861
C24	C	1.638440	0.500023	0.617861
N25	N	1.495547	0.216369	0.125964
N26	N	1.995547	0.716369	0.625964
N27	N	1.526894	-0.216302	0.105572
N28	N	2.026894	0.283698	0.605572
C29	C	0.947218	0.000352	0.028315
C30	C	1.447218	0.500352	0.528315
C31	C	1.094065	0.000031	0.030670
C32	C	1.594065	0.500031	0.530670
C33	C	1.086155	-0.079271	0.156085
C34	C	1.586155	0.420729	0.656085
C35	C	0.939357	-0.079329	0.153106
C36	C	1.439357	0.420671	0.653106
C37	C	0.927578	0.078579	0.162320
C38	C	1.427578	0.578579	0.662320
C39	C	1.074555	0.079618	0.163172
C40	C	1.574555	0.579618	0.663172
C41	C	1.742841	0.000038	0.111344
C42	C	2.242841	0.500038	0.611344
C43	C	1.883992	0.000036	0.113681
C44	C	2.383992	0.500036	0.613681
C45	C	1.505937	0.000040	-0.027614
C46	C	2.005937	0.500040	0.472386
C47	C	1.494597	0.000039	-0.114721
C48	C	1.994597	0.500039	0.385279
C49	C	1.573350	0.260068	0.075194
C50	C	2.073350	0.760068	0.575194
C51	C	1.567040	0.347474	0.079317
C52	C	2.067040	0.847474	0.579317
C53	C	1.482931	0.391180	0.134213
C54	C	1.982931	0.891180	0.634213
C55	C	1.405119	0.347475	0.184984
C56	C	1.905119	0.847475	0.684984
C57	C	1.411424	0.260070	0.180857
C58	C	1.911424	0.760070	0.680857
C59	C	1.455387	0.652588	0.152217
C60	C	1.955387	1.152588	0.652217
C61	C	1.449090	0.739999	0.156341
C62	C	1.949090	1.239999	0.656341
C63	C	1.611010	0.739992	0.050673
C64	C	2.111010	1.239992	0.550673
C65	C	1.617314	0.652586	0.046554
C66	C	2.117314	1.152586	0.546554
C67	C	1.539497	0.608888	0.097322
C68	C	2.039497	1.108888	0.597322
N69	N	1.476481	0.480523	0.138429
N70	N	1.976481	0.980523	0.638429
N71	N	1.545941	0.519546	0.093101
N72	N	2.045941	1.019546	0.593101
C73	C	1.604016	0.000043	-0.164349
C74	C	2.104016	0.500043	0.335651
C75	C	1.593354	0.000035	-0.246195
C76	C	2.093354	0.500035	0.253805
C77	C	1.473270	0.000029	-0.278413
C78	C	1.973270	0.500029	0.221587
C79	C	1.363842	0.000022	-0.228779
C80	C	1.863842	0.500022	0.271221
C81	C	1.374506	0.000025	-0.146934
C82	C	1.874506	0.500025	0.353066
C83	C	1.429072	0.000016	-0.522259
C84	C	1.929072	0.500016	-0.022259
C85	C	1.418415	0.000016	-0.604110
C86	C	1.918415	0.500016	-0.104110
C87	C	1.647928	0.000027	-0.621521
C88	C	2.147928	0.500027	-0.121521
C89	C	1.658582	0.000035	-0.539673
C90	C	2.158582	0.500035	-0.039673
C91	C	1.549154	0.000024	-0.490047
C92	C	2.049154	0.500024	0.009953
N93	N	1.462368	0.000023	-0.362073
N94	N	1.962368	0.500023	0.137927
N95	N	1.560057	0.000024	-0.406389
N96	N	2.060057	0.500024	0.093611
C97	C	1.516494	0.000025	0.259155
C98	C	2.016494	0.500025	0.759155
C99	C	1.527835	0.000020	0.346263
C100	C	2.027835	0.500020	0.846263
H101	H	1.129695	0.056873	0.000332
H102	H	1.629695	0.556873	0.500332
H103	H	0.911523	0.057219	-0.003451
H104	H	1.411523	0.557219	0.496549
F105	F	0.884107	-0.084038	0.234844
F106	F	1.384107	0.415962	0.734844
H107	H	1.392027	0.617016	0.193556
H108	H	1.892027	1.117016	0.693556
F109	F	1.709814	0.000041	-0.299010
F110	F	2.209814	0.500041	0.200990
F111	F	1.144101	-0.156402	0.114353
F112	F	1.644101	0.343598	0.614353
H113	H	0.912751	-0.138598	0.119301
H114	H	1.412751	0.361402	0.619301
H115	H	1.114278	-0.082225	0.219976
H116	H	1.614278	0.417775	0.719976
F117	F	1.312608	0.000002	-0.469453
F118	F	1.812608	0.500002	0.030547
H119	H	0.889228	0.138683	0.136935
H120	H	1.389228	0.638683	0.636935
H121	H	0.918132	-0.056193	-0.008649
H122	H	1.418132	0.443807	0.491351
F123	F	1.764380	0.000038	-0.674342
F124	F	2.264380	0.500038	-0.174342
H125	H	1.336629	0.383065	0.229679
H126	H	1.836629	0.883065	0.729679
H127	H	1.266068	0.000012	-0.255017
H128	H	1.766068	0.500012	0.244983
F129	F	1.328610	0.213564	0.234891
F130	F	1.828610	0.713564	0.734891
F131	F	1.649845	0.393982	0.025282
F132	F	2.149845	0.893982	0.525282
H133	H	1.701801	0.000053	-0.138124
H134	H	2.201801	0.500053	0.361876
F135	F	1.786393	0.000020	-0.505393
F136	F	2.286393	0.500020	-0.005393
H137	H	1.108606	0.138280	0.135283
H138	H	1.608606	0.638280	0.635283
F139	F	1.112969	0.085871	0.246558
F140	F	1.612969	0.585871	0.746558
H141	H	1.320623	0.000025	-0.630337
H142	H	1.820623	0.500025	-0.130337
F143	F	1.150246	-0.074506	-0.016125
F144	F	1.650246	0.425494	0.483875
F145	F	1.693820	0.786503	-0.003357
F146	F	2.193820	1.286503	0.496643
F147	F	0.872944	0.079275	0.244669
F148	F	1.372944	0.579275	0.744669
H149	H	1.285405	0.000021	-0.106527
H150	H	1.785405	0.500021	0.393473
H151	H	1.685802	0.617002	0.001854
H152	H	2.185802	1.117002	0.501854
F153	F	1.662878	0.213561	0.016770
F154	F	2.162878	0.713561	0.516770
F155	F	1.359566	0.786508	0.214774
F156	F	1.859566	1.286508	0.714774
