data_functionalizedCrystal
_audit_creation_method	'MofGen! by Chris Wilmer'
_symmetry_space_group_name_H-M	'P1'
_symmetry_Int_Tables_number	1
_symmetry_cell_setting	triclinic
loop_
_symmetry_equiv_pos_as_xyz
  x,y,z
_cell_length_a	10.654550
_cell_length_b	15.995350
_cell_length_c	9.130313
_cell_angle_alpha	90.000982
_cell_angle_beta	89.996220
_cell_angle_gamma	83.988639
loop_
_atom_site_label
_atom_site_type_symbol
_atom_site_fract_x
_atom_site_fract_y
_atom_site_fract_z
O1	O	1.666298	0.117599	-0.121912
O2	O	1.300673	0.128803	-0.121888
O3	O	1.493480	0.001371	-0.121899
O4	O	1.473491	0.245030	-0.121900
O5	O	1.493478	0.001375	0.121700
O6	O	1.300671	0.128807	0.121711
O7	O	1.666295	0.117602	0.121687
Cu8	Cu	1.483483	0.123205	0.143942
Cu9	Cu	1.483486	0.123201	-0.144142
O10	O	1.473488	0.245034	0.121698
C11	C	1.253885	0.127982	-0.000085
C12	C	1.114473	0.125521	-0.000076
C13	C	1.492652	-0.029827	-0.000102
C14	C	1.490175	-0.122791	-0.000110
C15	C	1.034008	0.200551	-0.000098
C16	C	0.903017	0.198233	-0.000123
C17	C	0.932971	0.045849	-0.000111
C18	C	1.063959	0.048168	-0.000075
C19	C	1.084522	0.277904	-0.000099
C20	C	1.004055	0.352940	-0.000122
C21	C	0.873064	0.350622	-0.000147
C22	C	0.822541	0.273268	-0.000149
C23	C	1.481278	-0.460591	-0.000105
C24	C	1.343964	-0.413954	-0.000642
C25	C	1.346442	-0.317249	-0.000093
C26	C	1.485691	-0.293004	-0.000108
C27	C	1.553417	-0.333687	0.138991
C28	C	1.549968	-0.430342	0.139108
C29	C	1.552807	-0.430688	-0.137910
C30	C	1.552775	-0.333743	-0.139748
C31	C	1.488192	-0.198292	-0.000106
C32	C	1.478780	-0.555303	-0.000098
C33	C	1.713084	0.118423	-0.000119
C34	C	1.852495	0.120884	-0.000137
C35	C	1.474316	0.276232	-0.000101
C36	C	1.476793	0.369197	-0.000103
N37	N	1.483490	0.123207	0.346564
N38	N	1.483488	0.123192	-0.346765
C39	C	1.568887	0.066800	0.423211
C40	C	1.568883	0.066789	0.576548
C41	C	1.398083	0.179602	0.576578
C42	C	1.398081	0.179607	0.423244
C43	C	1.654296	0.010399	0.346532
C44	C	1.739700	-0.046012	0.423179
C45	C	1.739697	-0.046022	0.576516
C46	C	1.654289	0.010379	0.653206
H47	H	1.045200	0.415918	-0.000108
H48	H	1.129477	-0.012928	-0.000061
C49	C	1.687863	-0.472138	-0.139405
C50	C	1.750578	-0.445001	-0.262579
C51	C	1.874991	-0.483161	-0.263983
H52	H	1.687554	-0.531465	-0.143053
H53	H	1.730033	-0.457090	-0.053158
H54	H	1.708419	-0.460054	-0.348805
H55	H	1.750922	-0.385679	-0.258959
H56	H	1.917162	-0.468114	-0.177735
H57	H	1.874670	-0.542487	-0.267626
H58	H	1.917563	-0.464749	-0.347547
C59	C	1.492957	-0.458253	-0.278615
C60	C	1.451083	-0.387327	-0.362040
C61	C	1.395945	-0.412687	-0.491666
H62	H	1.423383	-0.488464	-0.255573
H63	H	1.553548	-0.493348	-0.333013
H64	H	1.390497	-0.352246	-0.307653
H65	H	1.520634	-0.357108	-0.385121
H66	H	1.456536	-0.447782	-0.546065
H67	H	1.326376	-0.442899	-0.468610
H68	H	1.367537	-0.364569	-0.548292
H69	H	1.654285	0.010361	0.778063
C70	C	1.305224	0.240874	0.659572
C71	C	1.230411	0.290261	0.559627
C72	C	1.144845	0.346707	0.636024
H73	H	1.350245	0.276086	0.719395
H74	H	1.252887	0.210445	0.719356
H75	H	1.282741	0.320687	0.499868
H76	H	1.185362	0.255071	0.499801
H77	H	1.092508	0.316278	0.695808
H78	H	1.189877	0.381914	0.695845
H79	H	1.094067	0.380218	0.568224
H80	H	1.328542	0.225538	0.360837
C81	C	0.878292	-0.038189	-0.000359
C82	C	0.919250	-0.083601	-0.125658
C83	C	0.868921	-0.161026	-0.125933
H84	H	0.788760	-0.028943	-0.000463
H85	H	0.905923	-0.069161	0.084551
H86	H	0.891612	-0.052636	-0.210546
H87	H	1.008775	-0.092870	-0.125580
H88	H	0.896552	-0.191998	-0.041023
H89	H	0.779391	-0.151771	-0.126033
H90	H	0.896713	-0.191850	-0.210939
C91	C	1.275001	-0.280666	0.133233
C92	C	1.229431	-0.345649	0.213607
C93	C	1.163632	-0.311983	0.336457
H94	H	1.206197	-0.242107	0.102416
H95	H	1.330096	-0.252317	0.192883
H96	H	1.174338	-0.373985	0.153969
H97	H	1.298208	-0.384213	0.244461
H98	H	1.218727	-0.283634	0.396106
H99	H	1.094834	-0.273425	0.305626
H100	H	1.132715	-0.356069	0.391013
H101	H	0.807551	0.411720	-0.000152
H102	H	1.506376	-0.305577	0.242515
C103	C	1.275339	-0.279913	-0.133083
C104	C	1.229765	-0.344425	-0.214664
C105	C	1.164235	-0.310066	-0.337172
H106	H	1.330567	-0.251313	-0.192107
H107	H	1.206554	-0.241453	-0.101814
H108	H	1.298541	-0.382870	-0.245934
H109	H	1.174520	-0.373030	-0.155684
H110	H	1.095449	-0.271605	-0.305904
H111	H	1.219471	-0.281466	-0.396184
H112	H	1.133295	-0.353830	-0.392533
H113	H	0.715878	0.271387	-0.000147
H114	H	1.289082	-0.432806	-0.100393
H115	H	1.289324	-0.433864	0.098560
H116	H	1.191179	0.279800	-0.000085
H117	H	1.500580	-0.448929	0.243098
H118	H	1.654308	0.010404	0.221678
C119	C	1.832194	-0.107323	0.339770
C120	C	1.765272	-0.158974	0.251742
C121	C	1.850424	-0.215474	0.174890
H122	H	1.883060	-0.141000	0.407241
H123	H	1.884478	-0.076932	0.279851
H124	H	1.713011	-0.189363	0.311656
H125	H	1.714411	-0.125320	0.184243
H126	H	1.902708	-0.185082	0.114971
H127	H	1.901285	-0.249145	0.242372
H128	H	1.805030	-0.250520	0.115144
H129	H	1.650782	-0.462005	0.145409
H130	H	1.503258	-0.306783	-0.242650
C131	C	1.689909	-0.314230	0.145809
C132	C	1.769877	-0.389483	0.143843
C133	C	1.895621	-0.371591	0.150098
H134	H	1.703233	-0.284387	0.233435
H135	H	1.707644	-0.280898	0.063734
H136	H	1.752150	-0.422802	0.225910
H137	H	1.756594	-0.419336	0.056224
H138	H	1.913356	-0.338259	0.068023
H139	H	1.908931	-0.341747	0.237725
H140	H	1.949895	-0.422646	0.148751
H141	H	1.654321	-0.317791	-0.148158
H142	H	1.809228	-0.091960	0.638920
