data_functionalizedCrystal
_audit_creation_method	'MofGen! by Chris Wilmer'
_symmetry_space_group_name_H-M	'P1'
_symmetry_Int_Tables_number	1
_symmetry_cell_setting	triclinic
loop_
_symmetry_equiv_pos_as_xyz
  x,y,z
_cell_length_a	23.532355
_cell_length_b	14.971486
_cell_length_c	13.448316
_cell_angle_alpha	90.002432
_cell_angle_beta	90.002669
_cell_angle_gamma	83.220814
loop_
_atom_site_label
_atom_site_type_symbol
_atom_site_fract_x
_atom_site_fract_y
_atom_site_fract_z
O1	O	-0.755746	-0.108353	-0.082557
O2	O	-0.589946	-0.124112	-0.082589
O3	O	-0.677290	0.014015	-0.082565
O4	O	-0.668402	-0.246481	-0.082581
O5	O	-0.677275	0.014012	0.082819
O6	O	-0.589932	-0.124116	0.082795
O7	O	-0.755732	-0.108357	0.082827
Cu8	Cu	-0.672830	-0.116237	0.097912
Cu9	Cu	-0.672848	-0.116233	-0.097674
O10	O	-0.668388	-0.246485	0.082803
C11	C	-0.676885	0.047334	0.000126
C12	C	-0.675694	0.146618	0.000125
C13	C	-0.568721	-0.123720	0.000099
C14	C	-0.505497	-0.122536	0.000087
C15	C	-0.776957	-0.108749	0.000136
C16	C	-0.840181	-0.109934	0.000142
C17	C	-0.113443	-0.115097	0.090280
C18	C	-0.054039	-0.113970	0.090284
O19	O	-0.023311	-0.113359	0.166953
N20	N	-0.024336	-0.113409	0.000133
C21	C	-0.054041	-0.113966	-0.090027
O22	O	-0.023322	-0.113385	-0.166706
C23	C	-0.113445	-0.115086	-0.090030
C24	C	-0.143144	-0.115656	0.000127
C25	C	-0.143142	-0.115665	0.180429
C26	C	-0.202542	-0.116794	0.180424
C27	C	-0.232243	-0.117353	0.090271
C28	C	-0.202544	-0.116785	0.000122
C29	C	-0.143150	-0.115637	-0.180189
C30	C	-0.202558	-0.116757	-0.180184
C31	C	-0.232257	-0.117327	-0.090028
C32	C	-0.291645	-0.118473	-0.090035
N33	N	-0.321348	-0.119033	0.000115
C34	C	-0.291647	-0.118474	0.090268
C35	C	0.070710	-0.111612	-0.090014
C36	C	0.130113	-0.110498	-0.090012
C37	C	0.130112	-0.110500	0.090299
C38	C	0.070708	-0.111620	0.090296
C39	C	0.041007	-0.112173	0.000137
C40	C	-0.416391	-0.120844	0.090253
C41	C	-0.475796	-0.121976	0.090240
C42	C	-0.475789	-0.121970	-0.090070
C43	C	-0.416389	-0.120842	-0.090058
C44	C	-0.386692	-0.120276	0.000111
O45	O	-0.322411	-0.119081	-0.166665
O46	O	-0.322374	-0.119043	0.166935
C47	C	-0.668793	-0.279804	0.000109
C48	C	-0.669984	-0.379088	0.000104
N49	N	-0.672822	-0.116239	0.235476
C50	C	-0.727006	0.204400	0.000136
C51	C	-0.725884	0.297688	0.000126
C52	C	-0.673448	0.333191	0.000112
C53	C	-0.622132	0.275401	0.000098
C54	C	-0.623256	0.182116	0.000102
C55	C	-0.619795	0.469838	0.000094
C56	C	-0.618671	0.563130	0.000093
C57	C	-0.722423	0.585410	0.000118
C58	C	-0.723546	0.492125	0.000122
C59	C	-0.672230	0.434341	0.000110
N60	N	-0.672860	-0.116223	-0.235238
C61	C	-0.711542	-0.055085	0.712705
C62	C	-0.711537	-0.055091	0.608602
C63	C	-0.672848	-0.116232	0.556557
C64	C	-0.634164	-0.177376	0.608621
C65	C	-0.634172	-0.177374	0.712723
C66	C	-0.634150	-0.177376	0.391641
C67	C	-0.634141	-0.177378	0.287533
C68	C	-0.711514	-0.055093	0.287520
C69	C	-0.711522	-0.055090	0.391621
C70	C	-0.672838	-0.116234	0.443679
H71	H	-0.499974	-0.122443	0.163660
H72	H	-0.575974	0.592033	0.000098
H73	H	-0.392206	-0.120393	-0.163471
H74	H	-0.226719	-0.117252	0.253839
H75	H	0.154305	-0.110043	0.163707
H76	H	-0.602636	-0.227166	0.245164
H77	H	-0.743012	-0.005308	0.245129
H78	H	-0.743023	-0.005301	0.433996
H79	H	-0.579439	0.304315	0.000081
H80	H	-0.743035	-0.005308	0.566217
H81	H	-0.392218	-0.120392	0.163677
H82	H	-0.578008	0.422793	0.000082
H83	H	0.046531	-0.112085	0.163709
H84	H	-0.602651	-0.227169	0.434023
H85	H	-0.581472	0.135069	0.000093
H86	H	-0.118966	-0.115208	0.253846
H87	H	0.154290	-0.110048	-0.163426
H88	H	-0.602664	-0.227163	0.566241
H89	H	-0.743045	-0.005293	0.755073
H90	H	-0.602675	-0.227160	0.755107
H91	H	0.046532	-0.112070	-0.163437
H92	H	-0.118979	-0.115172	-0.253604
H93	H	-0.226736	-0.117207	-0.253604
H94	H	-0.499982	-0.122429	-0.163470
H95	H	-0.769705	0.175502	0.000153
H96	H	-0.766244	0.463222	0.000140
H97	H	-0.767667	0.344731	0.000136
H98	H	-0.764207	0.632462	0.000125
