data_functionalizedCrystal
_audit_creation_method	'MofGen! by Chris Wilmer'
_symmetry_space_group_name_H-M	'P1'
_symmetry_Int_Tables_number	1
_symmetry_cell_setting	triclinic
loop_
_symmetry_equiv_pos_as_xyz
  x,y,z
_cell_length_a	16.109302
_cell_length_b	17.038272
_cell_length_c	14.586319
_cell_angle_alpha	89.995924
_cell_angle_beta	89.994552
_cell_angle_gamma	87.286668
loop_
_atom_site_label
_atom_site_type_symbol
_atom_site_fract_x
_atom_site_fract_y
_atom_site_fract_z
O1	O	1.110268	0.100498	-0.076283
O2	O	1.443601	0.433831	0.257051
O3	O	1.776934	0.767164	0.590384
O4	O	0.869094	0.113004	-0.076276
O5	O	1.202427	0.446337	0.257058
O6	O	1.535761	0.779670	0.590391
O7	O	0.988247	-0.007065	-0.076272
O8	O	1.321581	0.326269	0.257061
O9	O	1.654914	0.659602	0.590395
O10	O	0.991114	0.220566	-0.076287
O11	O	1.324447	0.553899	0.257047
O12	O	1.657781	0.887233	0.590380
O13	O	0.988238	-0.007067	0.076209
O14	O	1.321572	0.326267	0.409542
O15	O	1.654905	0.659600	0.742875
O16	O	0.869085	0.113002	0.076205
O17	O	1.202418	0.446335	0.409538
O18	O	1.535752	0.779668	0.742872
O19	O	1.110259	0.100496	0.076198
O20	O	1.443592	0.433829	0.409531
O21	O	1.776925	0.767163	0.742865
Cu22	Cu	0.989671	0.106749	0.090124
Cu23	Cu	1.323004	0.440082	0.423458
Cu24	Cu	1.656338	0.773415	0.756791
Cu25	Cu	0.989682	0.106751	-0.090202
Cu26	Cu	1.323015	0.440084	0.243131
Cu27	Cu	1.656348	0.773417	0.576465
O28	O	0.991105	0.220564	0.076194
O29	O	1.324438	0.553898	0.409528
O30	O	1.657772	0.887231	0.742861
C31	C	0.838079	0.112496	-0.000034
C32	C	1.171412	0.445829	0.333299
C33	C	1.504745	0.779163	0.666632
C34	C	0.745675	0.110977	-0.000032
C35	C	1.079009	0.444310	0.333302
C36	C	1.412342	0.777644	0.666635
C37	C	0.533080	0.107463	0.083077
C38	C	0.866413	0.440797	0.416410
C39	C	1.199747	0.774130	0.749744
C40	C	0.446258	0.106028	0.083074
C41	C	0.779591	0.439361	0.416407
C42	C	1.112925	0.772694	0.749740
C43	C	0.446279	0.106034	-0.083169
C44	C	0.779612	0.439367	0.250164
C45	C	1.112945	0.772700	0.583498
C46	C	0.533099	0.107464	-0.083165
C47	C	0.866433	0.440797	0.250168
C48	C	1.199766	0.774130	0.583502
C49	C	0.576498	0.108183	-0.000039
C50	C	0.909831	0.441516	0.333294
C51	C	1.243164	0.774849	0.666627
C52	C	0.402855	0.105317	-0.000046
C53	C	0.736188	0.438650	0.333287
C54	C	1.069522	0.771984	0.666620
C55	C	0.308719	0.103760	-0.000050
C56	C	0.642052	0.437094	0.333283
C57	C	0.975385	0.770427	0.666616
C58	C	0.670640	0.109738	-0.000035
C59	C	1.003973	0.443071	0.333298
C60	C	1.337307	0.776405	0.666632
C61	C	0.985636	-0.036194	-0.000032
C62	C	1.318969	0.297139	0.333302
C63	C	1.652302	0.630473	0.666635
C64	C	0.977856	-0.122987	-0.000032
C65	C	1.311190	0.210347	0.333302
C66	C	1.644523	0.543680	0.666635
C67	C	1.049277	-0.173101	-0.000033
C68	C	1.382611	0.160232	0.333301
C69	C	1.715944	0.493565	0.666634
C70	C	1.041963	-0.254652	-0.000041
C71	C	1.375296	0.078682	0.333292
C72	C	1.708630	0.412015	0.666625
C73	C	0.963227	-0.286086	-0.000042
C74	C	1.296561	0.047247	0.333291
C75	C	1.629894	0.380581	0.666625
C76	C	0.891801	-0.235965	-0.000044
C77	C	1.225135	0.097368	0.333290
C78	C	1.558468	0.430702	0.666623
C79	C	0.899116	-0.154416	-0.000042
C80	C	1.232450	0.178917	0.333292
C81	C	1.565783	0.512250	0.666625
C82	C	0.937385	-0.531844	-0.000054
C83	C	1.270718	-0.198511	0.333279
C84	C	1.604052	0.134823	0.666613
C85	C	0.930075	-0.613399	-0.000053
C86	C	1.263409	-0.280066	0.333280
C87	C	1.596742	0.053267	0.666614
C88	C	1.080238	-0.632080	-0.000052
C89	C	1.413571	-0.298747	0.333281
C90	C	1.746904	0.034586	0.666614
C91	C	1.087546	-0.550529	-0.000045
C92	C	1.420879	-0.217196	0.333288
C93	C	1.754213	0.116138	0.666622
C94	C	1.016120	-0.500415	-0.000051
C95	C	1.349453	-0.167082	0.333282
C96	C	1.682786	0.166252	0.666615
C97	C	0.955749	-0.369444	-0.000048
C98	C	1.289083	-0.036110	0.333286
C99	C	1.622416	0.297223	0.666619
C100	C	1.023599	-0.417059	-0.000052
C101	C	1.356932	-0.083726	0.333281
C102	C	1.690265	0.249607	0.666615
C103	C	1.141274	0.101003	-0.000045
C104	C	1.474607	0.434337	0.333288
C105	C	1.807941	0.767670	0.666621
C106	C	1.233677	0.102523	-0.000054
C107	C	1.567010	0.435856	0.333279
C108	C	1.900344	0.769189	0.666612
C109	C	0.993717	0.249693	-0.000048
C110	C	1.327050	0.583027	0.333285
C111	C	1.660384	0.916360	0.666618
C112	C	1.001496	0.336486	-0.000054
C113	C	1.334829	0.669820	0.333279
C114	C	1.668163	1.003153	0.666613
N115	N	0.989670	0.106747	0.216956
N116	N	1.323003	0.440080	0.550289
N117	N	1.656336	0.773413	0.883623
N118	N	0.989689	0.106747	-0.217034
N119	N	1.323023	0.440080	0.116300
N120	N	1.656356	0.773413	0.449633
C121	C	1.042451	0.053598	0.451964
C122	C	1.375784	0.386932	0.785297
C123	C	1.709117	0.720265	1.118631
C124	C	1.042453	0.053596	0.547945
C125	C	1.375786	0.386930	0.881279
C126	C	1.709120	0.720263	1.214612
C127	C	0.936902	0.159898	0.547951
C128	C	1.270236	0.493231	0.881285
C129	C	1.603569	0.826564	1.214618
C130	C	0.936896	0.159895	0.451972
C131	C	1.270230	0.493228	0.785305
C132	C	1.603563	0.826562	1.118639
C133	C	0.989675	0.106746	0.403981
C134	C	1.323009	0.440080	0.737314
C135	C	1.656342	0.773413	1.070647
C136	C	0.989683	0.106747	0.595942
C137	C	1.323017	0.440080	0.929275
C138	C	1.656350	0.773414	1.262608
C139	C	0.989686	0.106745	0.700009
C140	C	1.323019	0.440079	1.033342
C141	C	1.656352	0.773412	1.366675
C142	C	0.989672	0.106747	0.299907
C143	C	1.323006	0.440080	0.633240
C144	C	1.656339	0.773413	0.966574
H145	H	0.568451	0.108047	-0.150852
H146	H	0.901784	0.441381	0.182481
H147	H	1.235118	0.774714	0.515814
O148	O	1.108521	-0.383163	-0.000055
O149	O	1.441854	-0.049830	0.333278
O150	O	1.775188	0.283504	0.666612
H151	H	1.115439	-0.346464	0.062097
H152	H	1.448772	-0.013131	0.395431
H153	H	1.782105	0.320202	0.728764
O154	O	0.399425	0.105259	0.172720
O155	O	0.732759	0.438593	0.506053
O156	O	1.066092	0.771926	0.839386
H157	H	0.444191	0.106006	0.230518
H158	H	0.777525	0.439340	0.563852
H159	H	1.110858	0.772673	0.897185
H160	H	0.879224	-0.491050	-0.000059
H161	H	1.212558	-0.157717	0.333274
H162	H	1.545891	0.175616	0.666608
O163	O	0.879975	0.217224	0.400207
O164	O	1.213308	0.550557	0.733541
O165	O	1.546642	0.883891	1.066874
H166	H	0.843285	0.254191	0.449702
H167	H	1.176618	0.587524	0.783035
H168	H	1.509952	0.920857	1.116368
H169	H	0.827693	-0.261565	-0.000050
H170	H	1.161026	0.071768	0.333283
H171	H	1.494360	0.405101	0.666617
H172	H	0.865956	-0.638989	-0.000039
H173	H	1.199290	-0.305656	0.333294
H174	H	1.532623	0.027677	0.666628
O175	O	1.134203	-0.139205	-0.000031
O176	O	1.467536	0.194129	0.333302
O177	O	1.800870	0.527462	0.666635
H178	H	1.127294	-0.074079	-0.000021
H179	H	1.460627	0.259254	0.333312
H180	H	1.793961	0.592588	0.666645
H181	H	0.840958	-0.113613	-0.000041
H182	H	1.174291	0.219720	0.333292
H183	H	1.507624	0.553054	0.666626
H184	H	0.568412	0.108049	0.150763
H185	H	0.901746	0.441382	0.484097
H186	H	1.235079	0.774715	0.817430
H187	H	1.138389	-0.672891	-0.000049
H188	H	1.471722	-0.339558	0.333285
H189	H	1.805055	-0.006225	0.666618
O190	O	0.870830	-0.403353	-0.000029
O191	O	1.204163	-0.070020	0.333304
O192	O	1.537497	0.263313	0.666638
H193	H	0.863910	-0.440062	-0.062173
H194	H	1.197243	-0.106729	0.271161
H195	H	1.530577	0.226604	0.604494
O196	O	1.099363	-0.003732	0.400197
O197	O	1.432697	0.329602	0.733531
O198	O	1.766030	0.662935	1.066864
H199	H	1.136054	-0.040695	0.449692
H200	H	1.469388	0.292639	0.783026
H201	H	1.802721	0.625972	1.116359
H202	H	1.085426	0.010318	0.587011
H203	H	1.418760	0.343651	0.920344
H204	H	1.752093	0.676984	1.253677
H205	H	1.100122	-0.295452	-0.000040
H206	H	1.433455	0.037881	0.333293
H207	H	1.766788	0.371214	0.666627
O208	O	1.172468	-0.516624	-0.000066
O209	O	1.505801	-0.183291	0.333267
O210	O	1.839134	0.150043	0.666600
H211	H	1.220904	-0.565173	-0.000082
H212	H	1.554237	-0.231840	0.333251
H213	H	1.887570	0.101493	0.666584
H214	H	0.893932	0.203171	0.587035
H215	H	1.227265	0.536504	0.920369
H216	H	1.560599	0.869838	1.253702
H217	H	0.410933	0.105449	-0.150847
H218	H	0.744267	0.438783	0.182486
H219	H	1.077600	0.772116	0.515820
