data_functionalizedCrystal
_audit_creation_method	'MofGen! by Chris Wilmer'
_symmetry_space_group_name_H-M	'P1'
_symmetry_Int_Tables_number	1
_symmetry_cell_setting	triclinic
loop_
_symmetry_equiv_pos_as_xyz
  x,y,z
_cell_length_a	14.853569
_cell_length_b	23.532407
_cell_length_c	13.930277
_cell_angle_alpha	89.990782
_cell_angle_beta	89.994756
_cell_angle_gamma	83.242121
loop_
_atom_site_label
_atom_site_type_symbol
_atom_site_fract_x
_atom_site_fract_y
_atom_site_fract_z
O1	O	1.195554	0.074357	-0.079797
O2	O	1.695554	0.574357	0.420203
O3	O	0.932998	0.083213	-0.079810
O4	O	1.432998	0.583213	0.420190
O5	O	1.072194	-0.004112	-0.079786
O6	O	1.572194	0.495888	0.420214
O7	O	1.056359	0.161682	-0.079821
O8	O	1.556359	0.661682	0.420179
O9	O	1.072174	-0.004114	0.079876
O10	O	1.572174	0.495886	0.579876
O11	O	0.932979	0.083211	0.079852
O12	O	1.432979	0.583211	0.579852
O13	O	1.195535	0.074355	0.079865
O14	O	1.695535	0.574355	0.579865
Zn15	Zn	1.064254	0.078783	0.105208
Zn16	Zn	1.564254	0.578783	0.605208
Zn17	Zn	1.064279	0.078785	-0.105153
Zn18	Zn	1.564279	0.578785	0.394847
O19	O	1.056340	0.161680	0.079840
O20	O	1.556340	0.661680	0.579840
C21	C	0.899404	0.082811	0.000020
C22	C	1.399404	0.582811	0.500020
C23	C	0.799334	0.081608	0.000016
C24	C	1.299334	0.581608	0.500016
C25	C	1.071781	-0.025331	0.000048
C26	C	1.571781	0.474669	0.500048
C27	C	1.070568	-0.088553	0.000055
C28	C	1.570568	0.411447	0.500055
C29	C	0.763531	0.029170	0.000024
C30	C	1.263531	0.529170	0.500024
C31	C	0.741106	0.132915	0.000012
C32	C	1.241106	0.632915	0.500012
C33	C	0.647085	0.131787	0.000013
C34	C	1.147085	0.631787	0.500013
C35	C	0.611282	0.079349	0.000021
C36	C	1.111282	0.579349	0.500021
C37	C	0.669500	0.028040	0.000028
C38	C	1.169500	0.528040	0.500028
C39	C	0.588859	0.183095	0.000016
C40	C	1.088859	0.683095	0.500016
C41	C	0.494831	0.181968	0.000019
C42	C	0.994831	0.681968	0.500019
C43	C	0.459026	0.129530	0.000020
C44	C	0.959026	0.629530	0.500020
C45	C	0.517251	0.078219	0.000025
C46	C	1.017251	0.578219	0.500025
C47	C	0.481448	0.025782	0.000033
C48	C	0.981448	0.525782	0.500033
C49	C	0.539672	-0.025530	0.000032
C50	C	1.039672	0.474470	0.500032
C51	C	0.633696	-0.024398	0.000029
C52	C	1.133696	0.475602	0.500029
C53	C	0.365002	0.128398	0.000023
C54	C	0.865002	0.628398	0.500023
C55	C	0.387418	0.024651	0.000038
C56	C	0.887418	0.524651	0.500038
C57	C	1.145337	-0.487330	0.000006
C58	C	1.645337	0.012670	0.500006
C59	C	1.144211	-0.546735	-0.000001
C60	C	1.644211	-0.046735	0.499999
O61	O	1.213523	-0.583177	-0.000033
O62	O	1.713523	-0.083177	0.499967
N63	N	1.061459	-0.569722	-0.000004
N64	N	1.561459	-0.069722	0.499996
C65	C	0.979829	-0.533301	-0.000010
C66	C	1.479829	-0.033301	0.499990
O67	O	0.909339	-0.558309	-0.000015
O68	O	1.409339	-0.058309	0.499985
C69	C	0.980956	-0.473897	-0.000010
C70	C	1.480956	0.026103	0.499990
C71	C	1.063713	-0.450913	0.000003
C72	C	1.563713	0.049087	0.500003
C73	C	1.228088	-0.464345	0.000018
C74	C	1.728088	0.035655	0.500018
C75	C	1.229213	-0.404944	0.000027
C76	C	1.729213	0.095056	0.500027
C77	C	1.147589	-0.368527	0.000024
C78	C	1.647589	0.131473	0.500024
C79	C	1.064839	-0.391512	0.000012
C80	C	1.564839	0.108488	0.500012
C81	C	0.899326	-0.437478	-0.000022
C82	C	1.399326	0.062522	0.499978
C83	C	0.900460	-0.378070	-0.000023
C84	C	1.400460	0.121930	0.499977
C85	C	0.983217	-0.355086	-0.000010
C86	C	1.483217	0.144914	0.499990
C87	C	0.984340	-0.295695	0.000019
C88	C	1.484340	0.204305	0.500019
N89	N	1.067092	-0.272707	0.000022
N90	N	1.567092	0.227293	0.500022
C91	C	1.148716	-0.309123	0.000025
C92	C	1.648716	0.190877	0.500025
C93	C	0.977468	-0.658054	-0.000013
C94	C	1.477468	-0.158054	0.499987
C95	C	0.976340	-0.717457	-0.000007
C96	C	1.476340	-0.217457	0.499993
C97	C	1.140723	-0.730886	0.000001
C98	C	1.640723	-0.230886	0.500001
C99	C	1.141850	-0.671482	0.000001
C100	C	1.641850	-0.171482	0.500001
C101	C	1.060220	-0.635067	-0.000010
C102	C	1.560220	-0.135067	0.499990
C103	C	1.151074	-0.184376	0.000045
C104	C	1.651074	0.315624	0.500045
C105	C	1.152193	-0.124969	0.000058
C106	C	1.652193	0.375031	0.500058
C107	C	0.987811	-0.111545	0.000046
C108	C	1.487811	0.388455	0.500046
C109	C	0.986691	-0.170947	0.000038
C110	C	1.486691	0.329053	0.500038
C111	C	1.068331	-0.207362	0.000034
C112	C	1.568331	0.292638	0.500034
O113	O	0.915065	-0.259218	0.000047
O114	O	1.415065	0.240782	0.500047
O115	O	1.219195	-0.284108	0.000017
O116	O	1.719195	0.215892	0.500017
C117	C	1.229129	0.074757	0.000033
C118	C	1.729129	0.574757	0.500033
C119	C	1.329199	0.075960	0.000031
C120	C	1.829199	0.575960	0.500031
C121	C	1.056752	0.182899	0.000005
C122	C	1.556752	0.682899	0.500005
C123	C	1.057965	0.246121	-0.000009
C124	C	1.557965	0.746121	0.499991
N125	N	1.064243	0.078781	0.248774
N126	N	1.564243	0.578781	0.748774
N127	N	1.064297	0.078783	-0.248719
N128	N	1.564297	0.578783	0.251281
C129	C	1.002641	0.117438	0.701033
C130	C	1.502641	0.617438	1.201033
C131	C	1.125942	0.040129	0.701024
C132	C	1.625942	0.540129	1.201024
C133	C	1.125931	0.040127	0.600528
C134	C	1.625931	0.540127	1.100528
C135	C	1.064276	0.078782	0.550280
C136	C	1.564276	0.578782	1.050280
C137	C	1.002630	0.117438	0.600528
C138	C	1.502630	0.617438	1.100528
C139	C	1.187581	0.001475	0.550273
C140	C	1.687581	0.501475	1.050273
C141	C	1.187574	0.001472	0.449771
C142	C	1.687574	0.501472	0.949771
C143	C	1.125913	0.040124	0.399521
C144	C	1.625913	0.540124	0.899521
C145	C	1.064265	0.078782	0.449775
C146	C	1.564265	0.578782	0.949775
C147	C	1.002609	0.117437	0.399527
C148	C	1.502609	0.617437	0.899527
C149	C	0.940956	0.156093	0.449779
C150	C	1.440956	0.656093	0.949779
C151	C	0.940970	0.156091	0.550278
C152	C	1.440970	0.656091	1.050278
C153	C	1.125899	0.040126	0.299022
C154	C	1.625899	0.540126	0.799022
C155	C	1.002598	0.117438	0.299022
C156	C	1.502598	0.617438	0.799022
H157	H	0.358275	-0.018050	0.000039
H158	H	0.858275	0.481950	0.500039
Cl159	Cl	0.863472	0.204684	0.613454
Cl160	Cl	1.363472	0.704684	1.113454
Cl161	Cl	0.863454	0.204689	0.386599
Cl162	Cl	1.363454	0.704689	0.886599
H163	H	0.618017	0.225787	0.000016
H164	H	1.118017	0.725787	0.500016
Cl165	Cl	1.245891	-0.642595	0.000016
Cl166	Cl	1.745891	-0.142595	0.500016
Cl167	Cl	1.203405	-0.008463	0.235855
Cl168	Cl	1.703405	0.491537	0.735855
Cl169	Cl	1.253708	-0.230146	0.000042
Cl170	Cl	1.753708	0.269854	0.500042
H171	H	0.510509	-0.068225	0.000032
H172	H	1.010509	0.431775	0.500032
H173	H	0.952441	0.148909	0.741950
H174	H	1.452441	0.648909	1.241950
H175	H	0.681109	-0.066173	0.000030
H176	H	1.181109	0.433827	0.500030
Cl177	Cl	1.330716	-0.510116	0.000023
Cl178	Cl	1.830716	-0.010116	0.500023
Cl179	Cl	0.421645	0.246473	0.000012
Cl180	Cl	0.921645	0.746473	0.500012
Cl181	Cl	0.797832	-0.332293	-0.000037
Cl182	Cl	1.297832	0.167707	0.499963
H183	H	0.317601	0.170175	0.000032
H184	H	0.817601	0.670175	0.500032
H185	H	1.219586	-0.106259	0.000071
H186	H	1.719586	0.393741	0.500071
Cl187	Cl	1.243337	-0.776678	-0.000002
Cl188	Cl	1.743337	-0.276678	0.499998
Cl189	Cl	1.265094	-0.047115	0.613439
Cl190	Cl	1.765094	0.452885	1.113439
Cl191	Cl	0.925078	0.166032	0.235861
Cl192	Cl	1.425078	0.666032	0.735861
H193	H	0.908951	-0.736165	-0.000001
H194	H	1.408951	-0.236165	0.499999
Cl195	Cl	1.203455	-0.008461	0.764190
Cl196	Cl	1.703455	0.491539	1.264190
H197	H	0.770263	0.175607	0.000012
H198	H	1.270263	0.675607	0.500012
H199	H	1.296603	-0.386236	0.000034
H200	H	1.796603	0.113764	0.500034
H201	H	0.810940	-0.012606	0.000019
H202	H	1.310940	0.487394	0.500019
Cl203	Cl	1.265075	-0.047124	0.386603
Cl204	Cl	1.765075	0.452876	0.886603
H205	H	0.910990	-0.628407	-0.000013
H206	H	1.410990	-0.128407	0.499987
H207	H	0.831937	-0.456180	-0.000039
H208	H	1.331937	0.043820	0.499961
H209	H	0.919304	-0.189661	0.000054
H210	H	1.419304	0.310339	0.500054
H211	H	0.921354	-0.081885	0.000047
H212	H	1.421354	0.418115	0.500047
