data_functionalizedCrystal
_audit_creation_method	'MofGen! by Chris Wilmer'
_symmetry_space_group_name_H-M	'P1'
_symmetry_Int_Tables_number	1
_symmetry_cell_setting	triclinic
loop_
_symmetry_equiv_pos_as_xyz
  x,y,z
_cell_length_a	12.594517
_cell_length_b	12.759399
_cell_length_c	12.759393
_cell_angle_alpha	90.030906
_cell_angle_beta	89.976057
_cell_angle_gamma	89.985452
loop_
_atom_site_label
_atom_site_type_symbol
_atom_site_fract_x
_atom_site_fract_y
_atom_site_fract_z
Zn1	Zn	1.627292	0.418231	-0.594101
Zn2	Zn	2.127292	0.918231	-0.094101
Zn3	Zn	1.627180	0.593947	-0.418420
Zn4	Zn	2.127180	1.093947	0.081580
Zn5	Zn	1.449291	0.418281	-0.418427
Zn6	Zn	1.949291	0.918281	0.081573
Zn7	Zn	1.449281	0.593867	-0.594048
Zn8	Zn	1.949281	1.093867	-0.094048
O9	O	1.538261	0.506082	-0.506249
O10	O	2.038261	1.006082	-0.006249
O11	O	1.776223	0.441553	-0.570816
O12	O	2.276223	0.941553	-0.070816
O13	O	1.603540	0.570699	-0.271400
O14	O	2.103540	1.070699	0.228600
O15	O	1.472954	0.271253	-0.441756
O16	O	1.972954	0.771253	0.058244
O17	O	1.776141	0.570651	-0.441744
O18	O	2.276141	1.070651	0.058256
O19	O	1.603730	0.271217	-0.570823
O20	O	2.103730	0.771217	-0.070823
O21	O	1.472845	0.441637	-0.271405
O22	O	1.972845	0.941637	0.228595
O23	O	1.300344	0.441560	-0.441705
O24	O	1.800344	0.941560	0.058295
O25	O	1.472937	0.570515	-0.741076
O26	O	1.972937	1.070515	-0.241076
O27	O	1.300337	0.570562	-0.570732
O28	O	1.800337	1.070562	-0.070732
O29	O	1.603721	0.441476	-0.741115
O30	O	2.103721	0.941476	-0.241115
O31	O	1.603531	0.740957	-0.441692
O32	O	2.103531	1.240957	0.058308
O33	O	1.472829	0.740899	-0.570726
O34	O	1.972829	1.240899	-0.070726
C35	C	1.261720	0.506059	-0.506214
C36	C	1.761720	1.006059	-0.006214
C37	C	1.143415	0.506074	-0.506224
C38	C	1.643415	1.006074	-0.006224
C39	C	1.003371	0.435833	-0.436206
C40	C	1.503371	0.935833	0.063794
C41	C	1.074232	0.410231	-0.532077
C42	C	1.574232	0.910231	-0.032077
C43	C	1.074125	0.531628	-0.410363
C44	C	1.574125	1.031628	0.089637
C45	C	1.003490	0.480465	-0.602223
C46	C	1.503490	0.980465	-0.102223
C47	C	1.003377	0.601906	-0.480444
C48	C	1.503377	1.101906	0.019556
C49	C	1.074206	0.576341	-0.576381
C50	C	1.574206	1.076341	-0.076381
C51	C	1.538196	0.779049	-0.506225
C52	C	2.038196	1.279049	-0.006225
C53	C	1.538265	0.895826	-0.506250
C54	C	2.038265	1.395826	-0.006250
C55	C	1.538341	0.505981	-0.780283
C56	C	2.038341	1.005981	-0.280283
C57	C	1.538375	0.505938	-0.897059
C58	C	2.038375	1.005938	-0.397059
C59	C	1.815882	0.506105	-0.506285
C60	C	2.315882	1.006105	-0.006285
C61	C	1.934187	0.506115	-0.506300
C62	C	2.434187	1.006115	-0.006300
C63	C	1.538356	0.232048	-0.506296
C64	C	2.038356	0.732048	-0.006296
C65	C	1.538396	0.115272	-0.506316
C66	C	2.038396	0.615272	-0.006316
C67	C	1.606399	0.950683	-0.439139
C68	C	2.106399	1.450683	0.060861
C69	C	1.606468	1.060407	-0.439174
C70	C	2.106468	1.560407	0.060826
C71	C	1.470259	1.060406	-0.573435
C72	C	1.970259	1.560406	-0.073435
C73	C	1.470196	0.950684	-0.573404
C74	C	1.970196	1.450684	-0.073404
C75	C	1.606479	0.438736	-0.951943
C76	C	2.106479	0.938736	-0.451943
C77	C	1.606497	0.438691	-1.061668
C78	C	2.106497	0.938691	-0.561668
C79	C	1.470303	0.573057	-1.061614
C80	C	1.970303	1.073057	-0.561614
C81	C	1.470281	0.573097	-0.951892
C82	C	1.970281	1.073097	-0.451892
C83	C	1.538243	0.506106	-0.233282
C84	C	2.038243	1.006106	0.266718
C85	C	1.538415	0.505853	-0.116506
C86	C	2.038415	1.005853	0.383494
H87	H	0.972231	0.682909	-0.458572
H88	H	1.472231	1.182909	0.041428
H89	H	1.105156	0.553224	-0.329262
H90	H	1.605156	1.053224	0.170738
C91	C	0.961751	0.451155	-0.711818
C92	C	1.461751	0.951155	-0.211818
N93	N	0.930310	0.429073	-0.794361
N94	N	1.430310	0.929073	-0.294361
H95	H	1.661951	1.105067	-0.384527
H96	H	2.161951	1.605067	0.115473
H97	H	1.105110	0.635760	-0.635693
H98	H	1.605110	1.135760	-0.135693
H99	H	1.661827	0.906020	-0.384460
H100	H	2.161827	1.406020	0.115540
H101	H	1.414838	1.105086	-0.628108
H102	H	1.914838	1.605086	-0.128108
H103	H	1.414713	0.906016	-0.628059
H104	H	1.914713	1.406016	-0.128059
C105	C	1.681374	0.364851	-0.891632
C106	C	2.181374	0.864851	-0.391632
N107	N	1.737784	0.309194	-0.846208
N108	N	2.237784	0.809194	-0.346208
C109	C	1.681420	0.364767	-1.122035
C110	C	2.181420	0.864767	-0.622035
N111	N	1.737855	0.309084	-1.167503
N112	N	2.237855	0.809084	-0.667503
H113	H	1.414815	0.627819	-0.907204
H114	H	1.914815	1.127819	-0.407204
C115	C	0.961345	0.355502	-0.356275
C116	C	1.461345	0.855502	0.143725
N117	N	0.929687	0.294995	-0.296078
N118	N	1.429687	0.794995	0.203922
C119	C	1.116282	0.300771	-0.561586
C120	C	1.616282	0.800771	-0.061586
N121	N	1.147951	0.218323	-0.583806
N122	N	1.647951	0.718323	-0.083806
H123	H	1.414866	0.627738	-1.106272
H124	H	1.914866	1.127738	-0.606272
