data_functionalizedCrystal
_audit_creation_method	'MofGen! by Chris Wilmer'
_symmetry_space_group_name_H-M	'P1'
_symmetry_Int_Tables_number	1
_symmetry_cell_setting	triclinic
loop_
_symmetry_equiv_pos_as_xyz
  x,y,z
_cell_length_a	17.917559
_cell_length_b	14.560438
_cell_length_c	14.560438
_cell_angle_alpha	59.998929
_cell_angle_beta	89.999910
_cell_angle_gamma	57.016036
loop_
_atom_site_label
_atom_site_type_symbol
_atom_site_fract_x
_atom_site_fract_y
_atom_site_fract_z
Zr1	Zr	0.755016	0.920629	-0.078219
O2	O	0.629911	1.126234	-0.231870
O3	O	0.793354	0.724745	-0.031119
O4	O	0.793374	0.916332	-0.222718
O5	O	0.629891	0.934648	0.110867
O6	O	0.922332	0.901884	-0.215494
O7	O	0.629891	0.934648	-0.040272
O8	O	0.922296	0.559171	0.127240
O9	O	0.629927	1.277362	-0.231867
O10	O	0.905961	0.790933	-0.005638
O11	O	0.809721	0.801715	0.101765
O12	O	0.809745	1.027284	-0.123817
O13	O	0.713505	1.038066	-0.016414
Zr14	Zr	0.960690	0.897588	0.174351
Zr15	Zr	0.960689	0.897587	-0.066699
Zr16	Zr	0.755017	0.920630	0.162831
Zr17	Zr	0.755041	1.161660	-0.078214
Zr18	Zr	0.960665	0.656557	0.174346
O19	O	0.922352	1.093472	0.127252
O20	O	0.922352	1.093472	-0.215490
O21	O	0.629911	1.126235	0.110871
O22	O	1.085795	0.691983	0.328003
O23	O	1.085795	0.691982	-0.014739
O24	O	0.793354	0.724746	0.311623
O25	O	1.085815	0.883569	-0.014735
O26	O	0.922333	0.901885	0.318850
O27	O	0.793374	0.916333	0.311627
O28	O	1.085815	0.883570	0.136405
O29	O	0.793409	1.259046	-0.222710
O30	O	0.922297	0.559171	0.318843
O31	O	1.085779	0.540856	0.328000
O32	O	1.085779	0.540855	0.136397
O33	O	0.629927	1.277362	-0.040265
O34	O	0.793410	1.259047	-0.031108
O35	O	0.905962	0.790933	0.219950
O36	O	1.002201	0.780151	0.112547
O37	O	0.905985	1.016502	-0.005633
O38	O	0.809745	1.027284	0.101770
C39	C	0.857822	0.607616	0.048060
C40	C	0.857811	0.505292	0.048058
C41	C	0.928871	0.366015	0.135302
C42	C	0.928912	0.269830	0.135314
C43	C	0.786827	0.452216	-0.039175
C44	C	0.786784	0.548398	-0.039181
C45	C	0.999899	0.322909	0.222541
C46	C	1.070966	0.183624	0.309792
C47	C	1.071006	0.087440	0.309804
C48	C	0.999980	0.130539	0.222564
C49	C	0.600587	0.937931	0.033656
C50	C	0.513274	0.947713	0.028766
C51	C	0.362271	0.852653	0.076295
C52	C	0.353442	0.965559	0.019840
C53	C	0.442381	0.955626	0.024808
C54	C	0.273325	0.862583	0.071329
C55	C	1.115119	0.880287	0.062476
C56	C	1.202433	0.870505	0.067367
C57	C	0.857853	0.909108	-0.253450
C58	C	0.857852	0.909108	-0.355782
C59	C	0.857885	1.210601	0.048073
C60	C	0.857895	1.312925	0.048075
C61	C	0.786810	0.917061	-0.407832
C62	C	0.786808	0.917067	-0.503987
C63	C	0.928900	0.901159	-0.496030
C64	C	0.928897	0.901163	-0.399882
C65	C	0.715765	0.925006	-0.363733
C66	C	0.644717	0.932959	-0.415782
C67	C	0.644715	0.932964	-0.511937
C68	C	0.715761	0.925017	-0.556042
C69	C	0.857854	0.909109	0.349583
C70	C	0.857854	0.909109	0.451915
C71	C	1.115087	0.578794	0.062470
C72	C	1.202390	0.466688	0.067358
C73	C	0.857822	0.607617	0.349576
C74	C	0.857812	0.505293	0.451906
C75	C	1.115088	0.578795	0.363986
C76	C	1.202391	0.466689	0.471207
C77	C	0.600618	1.239423	-0.267854
C78	C	0.513315	1.351528	-0.375074
C79	C	0.600619	1.239423	0.033663
C80	C	0.513316	1.351529	0.028774
C81	C	0.857884	1.210601	-0.253444
C82	C	0.857895	1.312924	-0.355774
C83	C	1.193152	0.419670	0.007953
C84	C	1.275175	0.314349	0.012523
C85	C	1.366435	0.256041	0.076506
C86	C	1.375671	0.303069	0.135913
C87	C	1.293649	0.408395	0.131336
C88	C	1.293634	0.408414	0.465496
C89	C	1.375673	0.303091	0.566232
C90	C	1.366466	0.256039	0.672678
C91	C	1.275213	0.314325	0.678386
C92	C	1.193177	0.419652	0.577651
C93	C	0.422072	1.409815	-0.369363
C94	C	0.340033	1.515167	-0.470100
C95	C	0.349240	1.562225	-0.576545
C96	C	0.440493	1.503933	-0.582254
C97	C	0.522530	1.398589	-0.481519
C98	C	0.522554	1.398557	0.088170
C99	C	0.440531	1.503905	0.083573
C100	C	0.349272	1.562216	0.019587
C101	C	0.340035	1.515183	-0.039816
C102	C	0.422057	1.409844	-0.035225
C103	C	0.908044	0.451588	0.561672
C104	C	0.908027	0.355450	0.657817
C105	C	0.807542	0.366727	0.534417
C106	C	0.807555	0.462870	0.438274
C107	C	0.958301	0.494011	0.575304
C108	C	1.008539	0.440305	0.685075
C109	C	1.008521	0.344167	0.781220
C110	C	0.958266	0.301735	0.767595
H111	H	1.128788	0.148543	0.380825
Cl112	Cl	1.160338	-0.087655	0.419496
Cl113	Cl	0.555400	0.942966	-0.360347
H114	H	0.265739	1.562612	-0.465429
H115	H	0.448070	1.542180	0.131951
Cl116	Cl	1.469608	0.123623	0.799308
Cl117	Cl	1.018209	0.891170	-0.334449
Cl118	Cl	1.071666	0.276665	0.919214
H119	H	1.301184	0.446663	0.179718
Cl120	Cl	0.744401	0.530392	0.300276
Cl121	Cl	1.078436	0.492955	-0.072497
Cl122	Cl	0.697448	0.723497	-0.148862
Cl123	Cl	1.071703	0.493659	0.702201
Cl124	Cl	0.238646	1.126317	-0.060548
H125	H	0.596854	1.351088	0.140282
Cl126	Cl	0.225301	1.588498	-0.120245
H127	H	0.414522	1.371558	-0.083589
H128	H	0.282433	1.648003	-0.658562
Cl129	Cl	1.490379	0.229834	0.559030
H130	H	1.267636	0.276073	-0.035854
H131	H	0.958323	0.572288	0.497025
Cl132	Cl	1.469539	0.123628	0.082251
H133	H	1.449985	0.255580	0.188006
Cl134	Cl	1.305234	0.467551	0.331691
H135	H	1.267731	0.275999	0.765068
Cl136	Cl	0.246167	1.694640	0.013830
H137	H	0.447978	1.542260	-0.668934
H138	H	1.118885	0.467087	0.582317
Cl139	Cl	0.715747	0.925042	-0.676932
H140	H	0.436621	0.748539	0.128353
Cl141	Cl	0.410472	1.350680	-0.235559
H142	H	0.986744	0.894687	-0.531946
H143	H	0.958248	0.223463	0.845887
Cl144	Cl	1.000028	0.009617	0.222587
H145	H	0.999875	0.401217	0.222540
Cl146	Cl	0.697546	0.506389	-0.148842
H147	H	0.596822	1.351132	-0.486182
Cl148	Cl	0.715766	0.924992	-0.242849
H149	H	0.586860	0.939453	-0.554322
Cl150	Cl	0.744372	0.313378	0.517295
