data_functionalizedCrystal
_audit_creation_method	'MofGen! by Chris Wilmer'
_symmetry_space_group_name_H-M	'P1'
_symmetry_Int_Tables_number	1
_symmetry_cell_setting	triclinic
loop_
_symmetry_equiv_pos_as_xyz
  x,y,z
_cell_length_a	23.204063
_cell_length_b	23.204065
_cell_length_c	23.204116
_cell_angle_alpha	59.997987
_cell_angle_beta	89.998953
_cell_angle_gamma	60.000253
loop_
_atom_site_label
_atom_site_type_symbol
_atom_site_fract_x
_atom_site_fract_y
_atom_site_fract_z
O1	O	-0.491197	-0.412484	0.017135
O2	O	-0.407392	-0.294473	-0.017070
O3	O	-0.407389	-0.412483	0.100940
O4	O	-0.491200	-0.294474	-0.100875
O5	O	-0.311538	-0.508333	0.100940
O6	O	-0.311541	-0.390323	-0.017071
O7	O	-0.395346	-0.508335	0.017135
Zn8	Zn	-0.338225	-0.464547	0.000032
Zn9	Zn	-0.464513	-0.338260	0.000033
O10	O	-0.395349	-0.390324	-0.100876
C11	C	-0.310652	-0.181456	-0.024838
C12	C	-0.346214	-0.110333	-0.019942
C13	C	-0.241294	-0.215971	-0.025323
C14	C	-0.310655	-0.285810	-0.024846
C15	C	-0.346219	-0.326263	-0.019957
C16	C	-0.241297	-0.320167	-0.025331
C17	C	-0.206293	-0.285815	-0.024838
C18	C	-0.130274	-0.326273	-0.019941
C19	C	-0.345497	-0.215967	-0.025331
C20	C	-0.658540	-0.590043	0.035860
C21	C	-0.734559	-0.549588	0.030967
C22	C	-0.623539	-0.659889	0.036349
C23	C	-0.554183	-0.590040	0.035855
C24	C	-0.518621	-0.549582	0.030958
C25	C	-0.519339	-0.659886	0.036344
C26	C	-0.554182	-0.694402	0.035859
C27	C	-0.518619	-0.765527	0.030967
C28	C	-0.623539	-0.555686	0.036345
C29	C	-0.489889	-0.822989	0.027012
C30	C	-0.795974	-0.516903	0.027013
C31	C	-0.489891	-0.516895	0.027000
C32	C	-0.453845	-0.895077	0.022052
C33	C	-0.873022	-0.475899	0.022054
C34	C	-0.453848	-0.475888	0.022036
C35	C	-0.554187	-0.212776	-0.445775
C36	C	-0.518624	-0.253233	-0.481336
C37	C	-0.623545	-0.142931	-0.480619
C38	C	-0.554188	-0.212775	-0.341416
C39	C	-0.518626	-0.253231	-0.265397
C40	C	-0.623546	-0.142930	-0.376419
C41	C	-0.658547	-0.108416	-0.445777
C42	C	-0.734566	-0.037291	-0.481340
C43	C	-0.519344	-0.247131	-0.376417
C44	C	-0.795982	0.020169	-0.510072
C45	C	-0.489893	-0.285920	-0.510065
C46	C	-0.489896	-0.285917	-0.203980
C47	C	-0.873032	0.092257	-0.546117
C48	C	-0.453848	-0.326925	-0.546108
C49	C	-0.453852	-0.326922	-0.126930
O50	O	0.100922	-0.508345	0.017151
O51	O	-0.100892	-0.390333	-0.017055
O52	O	0.017109	-0.508348	0.100956
O53	O	-0.017080	-0.390330	-0.100860
O54	O	0.017112	-0.412502	0.100963
O55	O	-0.100890	-0.294486	-0.017048
O56	O	0.100924	-0.412499	0.017158
Zn57	Zn	0.000018	-0.338275	0.000056
Zn58	Zn	0.000014	-0.464556	0.000047
O59	O	-0.017077	-0.294483	-0.100853
O60	O	-0.395342	0.083766	0.017156
O61	O	-0.311534	-0.083842	-0.017048
O62	O	-0.311538	-0.083852	0.100962
O63	O	-0.395338	0.083777	-0.100854
O64	O	-0.407391	-0.083849	0.100954
O65	O	-0.407387	-0.083839	-0.017056
O66	O	-0.491195	0.083770	0.017149
Zn67	Zn	-0.464510	-0.000034	0.000045
Zn68	Zn	-0.338219	-0.000039	0.000055
O69	O	-0.491191	0.083780	-0.100861
O70	O	-1.100901	0.281028	-0.592582
O71	O	-0.899087	0.113413	-0.508770
O72	O	-1.017091	0.113409	-0.508767
O73	O	-0.982897	0.281032	-0.592584
O74	O	-1.017088	0.113407	-0.604617
O75	O	-0.899085	0.113411	-0.604619
O76	O	-1.100898	0.281026	-0.688432
Zn77	Zn	-0.999991	0.197218	-0.661744
Zn78	Zn	-0.999994	0.197221	-0.535458
O79	O	-0.982895	0.281030	-0.688434
O80	O	-0.407389	-0.412483	-0.688416
O81	O	-0.491197	-0.294477	-0.604610
O82	O	-0.491195	-0.412486	-0.604605
O83	O	-0.407390	-0.294474	-0.688421
O84	O	-0.395343	-0.508338	-0.508754
O85	O	-0.395345	-0.390329	-0.508759
O86	O	-0.311537	-0.508334	-0.592565
Zn87	Zn	-0.338222	-0.464550	-0.535443
Zn88	Zn	-0.464511	-0.338262	-0.661732
O89	O	-0.311539	-0.390326	-0.592570
C90	C	-0.206294	-0.621360	0.310702
C91	C	-0.130275	-0.692485	0.346265
C92	C	-0.241296	-0.586846	0.345545
C93	C	-0.310654	-0.517001	0.206342
C94	C	-0.346216	-0.476544	0.130323
C95	C	-0.345497	-0.482645	0.241343
C96	C	-0.310653	-0.517001	0.310701
C97	C	-0.346216	-0.476544	0.346263
C98	C	-0.241296	-0.586846	0.241345
C99	C	0.024887	-0.517030	0.310724
C100	C	0.019993	-0.476577	0.346290
C101	C	0.025371	-0.586874	0.345565
C102	C	0.024889	-0.517022	0.206362
C103	C	0.019998	-0.476562	0.130342
C104	C	0.025374	-0.586867	0.241361
C105	C	0.024884	-0.621384	0.310718
C106	C	0.019987	-0.692509	0.346278
C107	C	0.025377	-0.482671	0.241366
C108	C	-0.310656	-0.285855	0.310709
C109	C	-0.346220	-0.326314	0.346266
C110	C	-0.241298	-0.320218	0.345555
C111	C	-0.310655	-0.181484	0.206357
C112	C	-0.346217	-0.110348	0.130340
C113	C	-0.241296	-0.216005	0.241362
C114	C	-0.206295	-0.285860	0.310717
C115	C	-0.130275	-0.326323	0.346282
C116	C	-0.345499	-0.216001	0.241354
C117	C	-0.035774	-0.108410	-0.445754
C118	C	-0.030877	-0.037285	-0.481314
C119	C	-0.036262	-0.142920	-0.480600
C120	C	-0.035780	-0.212771	-0.341397
C121	C	-0.030889	-0.253231	-0.265377
C122	C	-0.036268	-0.247124	-0.376401
C123	C	-0.035777	-0.212765	-0.445759
C124	C	-0.030883	-0.253218	-0.481324
C125	C	-0.036265	-0.142927	-0.376396
C126	C	-0.026928	-0.285901	-0.510056
C127	C	-0.026920	0.020175	-0.510042
C128	C	-0.026936	-0.285920	-0.203961
C129	C	-0.021967	-0.326903	-0.546103
C130	C	-0.021955	0.092262	-0.546083
C131	C	-0.021978	-0.326928	-0.126911
O132	O	-0.017120	-0.390358	0.491266
O133	O	0.017098	-0.508368	0.407461
O134	O	-0.100916	-0.390357	0.407446
O135	O	0.100893	-0.508369	0.491281
O136	O	-0.100904	-0.294507	0.311599
O137	O	0.017110	-0.412518	0.311614
O138	O	-0.017109	-0.294509	0.395420
Zn139	Zn	0.000002	-0.338295	0.338299
Zn140	Zn	-0.000013	-0.464581	0.464581
O141	O	0.100905	-0.412519	0.395435
C142	C	-0.658539	0.410016	-0.445751
C143	C	-0.734559	0.450479	-0.481316
C144	C	-0.623536	0.444375	-0.480590
C145	C	-0.554179	0.305641	-0.341392
C146	C	-0.518616	0.234505	-0.265374
C147	C	-0.519335	0.340158	-0.376388
C148	C	-0.554178	0.410013	-0.445743
C149	C	-0.518614	0.450471	-0.481300
C150	C	-0.623537	0.340162	-0.376396
C151	C	-0.489883	0.483159	-0.510025
C152	C	-0.795975	0.483170	-0.510049
C153	C	-0.489886	0.177036	-0.203959
C154	C	-0.453838	0.524167	-0.546063
C155	C	-0.873025	0.524182	-0.546095
C156	C	-0.453842	0.104937	-0.126912
H157	H	-0.213198	-0.376369	-0.026116
H158	H	-0.036993	-0.114078	-0.348277
O159	O	-0.451359	0.305816	-0.342958
C160	C	-0.350914	0.312217	-0.350796
C161	C	-0.427898	0.351200	-0.388728
H162	H	-0.331918	0.348883	-0.387790
H163	H	-0.347645	0.311894	-0.301603
H164	H	-0.316168	0.246969	-0.334925
H165	H	-0.462690	0.416462	-0.404646
H166	H	-0.431111	0.351459	-0.437891
H167	H	-0.462356	-0.303332	-0.348318
H168	H	-0.651645	-0.114047	-0.348315
O169	O	0.026176	-0.621263	0.207816
C170	C	-0.033249	-0.660694	0.166350
C171	C	-0.034248	-0.621715	0.204337
H172	H	-0.082089	-0.661089	0.163538
H173	H	-0.033041	-0.623993	0.110635
H174	H	0.016158	-0.725918	0.196801
H175	H	-0.083647	-0.556496	0.173945
H176	H	-0.034418	-0.658477	0.260055
H177	H	-0.651648	0.311288	-0.348296
O178	O	-0.413442	-0.181593	0.207754
C179	C	-0.494346	-0.142127	0.108879
C180	C	-0.417377	-0.181121	0.146867
H181	H	-0.497555	-0.141717	0.059637
H182	H	-0.513364	-0.178828	0.145779
H183	H	-0.529114	-0.076908	0.093075
H184	H	-0.382555	-0.246336	0.162676
H185	H	-0.398416	-0.144359	0.109944
H186	H	-0.651638	0.500582	-0.537577
H187	H	-0.213192	-0.615736	0.402533
O188	O	-0.207857	-0.621302	0.207791
C189	C	-0.207557	-0.683796	0.150305
C190	C	-0.245517	-0.644771	0.188268
H191	H	-0.237981	-0.702797	0.134523
H192	H	-0.204689	-0.637832	0.101065
H193	H	-0.151860	-0.739707	0.187271
H194	H	-0.301231	-0.588868	0.151358
H195	H	-0.248328	-0.690788	0.237516
H196	H	-0.651642	-0.688773	0.037135
H197	H	-0.213196	-0.187082	-0.026109
O198	O	0.026428	-0.621448	0.413589
C199	C	0.088597	-0.741208	0.533538
C200	C	0.087497	-0.702150	0.456537
H201	H	0.137959	-0.806467	0.568280
H202	H	0.088898	-0.704576	0.552588
H203	H	0.039712	-0.741508	0.536739
H204	H	0.136373	-0.701843	0.453275
H205	H	0.087160	-0.738794	0.437520
O206	O	-0.451395	-0.694292	0.037157
C207	C	-0.370474	-0.733756	-0.022240
C208	C	-0.447448	-0.694759	-0.023259
H209	H	-0.367255	-0.734162	-0.071073
H210	H	-0.351457	-0.697059	-0.022031
H211	H	-0.335712	-0.798976	0.027175
H212	H	-0.482264	-0.629543	-0.072667
H213	H	-0.466407	-0.731517	-0.023430
O214	O	-0.413509	-0.415656	0.207913
C215	C	-0.533480	-0.357890	0.207642
C216	C	-0.456489	-0.433808	0.245588
H217	H	-0.568253	-0.372545	0.238079
H218	H	-0.536757	-0.305784	0.204776
H219	H	-0.552436	-0.339150	0.151944
H220	H	-0.437484	-0.452621	0.301303
H221	H	-0.453256	-0.485866	0.248398
H222	H	0.026162	-0.426467	0.213269
H223	H	-0.402486	-0.187075	-0.026121
H224	H	-0.037054	-0.303326	-0.348299
H225	H	-0.037046	-0.114028	-0.537588
O226	O	-0.657156	-0.488652	0.037302
C227	C	-0.764038	-0.389552	0.038612
C228	C	-0.726047	-0.465478	0.037551
H229	H	-0.819748	-0.370782	0.038799
H230	H	-0.733629	-0.404132	0.088010
H231	H	-0.766874	-0.337493	-0.010242
H232	H	-0.723201	-0.517570	0.086371
H233	H	-0.756470	-0.450830	-0.011879
O234	O	-0.207724	-0.181560	0.207954
C235	C	-0.150207	-0.119127	0.207749
C236	C	-0.188203	-0.158131	0.245657
H237	H	-0.134426	-0.100158	0.238208
H238	H	-0.100965	-0.165092	0.204888
H239	H	-0.187150	-0.063198	0.152049
H240	H	-0.151316	-0.214052	0.301374
H241	H	-0.237454	-0.112113	0.248462
O242	O	-0.656960	-0.108554	-0.548612
C243	C	-0.649095	-0.114868	-0.649099
C244	C	-0.611188	-0.153917	-0.572085
H245	H	-0.612100	-0.151516	-0.668106
H246	H	-0.698308	-0.114501	-0.652425
H247	H	-0.664928	-0.049632	-0.683801
H248	H	-0.595308	-0.219167	-0.537337
H249	H	-0.562006	-0.154220	-0.568816
O250	O	-0.207875	-0.387209	0.413569
C251	C	-0.207634	-0.444968	0.533533
C252	C	-0.245566	-0.369053	0.456537
H253	H	-0.238083	-0.430311	0.568297
H254	H	-0.204759	-0.497077	0.536809
H255	H	-0.151940	-0.463704	0.552502
H256	H	-0.301276	-0.350244	0.437520
H257	H	-0.248384	-0.316992	0.453306
