data_functionalizedCrystal
_audit_creation_method	'MofGen! by Chris Wilmer'
_symmetry_space_group_name_H-M	'P1'
_symmetry_Int_Tables_number	1
_symmetry_cell_setting	triclinic
loop_
_symmetry_equiv_pos_as_xyz
  x,y,z
_cell_length_a	16.992694
_cell_length_b	14.519709
_cell_length_c	15.455313
_cell_angle_alpha	92.669068
_cell_angle_beta	87.142206
_cell_angle_gamma	87.174184
loop_
_atom_site_label
_atom_site_type_symbol
_atom_site_fract_x
_atom_site_fract_y
_atom_site_fract_z
O1	O	1.044092	0.191795	-0.072025
O2	O	0.815805	0.189648	-0.072051
O3	O	0.936001	0.056918	-0.072029
O4	O	0.923896	0.324525	-0.072046
O5	O	0.929127	0.064474	0.072232
O6	O	0.808932	0.197205	0.072210
O7	O	1.037219	0.199352	0.072236
Cu8	Cu	0.922447	0.198968	0.085395
Cu9	Cu	0.930576	0.190031	-0.085210
O10	O	0.917023	0.332082	0.072215
C11	C	0.783152	0.190666	0.000077
C12	C	0.696097	0.182430	0.000067
C13	C	0.932000	0.026296	0.000101
C14	C	0.930309	-0.076207	0.000102
C15	C	0.645968	0.261890	0.000063
C16	C	0.564170	0.254147	0.000075
C17	C	0.532502	0.166943	0.000086
C18	C	0.582638	0.087478	0.000093
C19	C	0.664434	0.095222	0.000087
C20	C	0.288859	0.134847	0.000111
C21	C	0.207056	0.127109	0.000115
C22	C	0.188594	0.293779	0.000099
C23	C	0.270393	0.301515	0.000087
C24	C	0.320520	0.222050	0.000099
N25	N	0.448892	0.159027	0.000096
N26	N	0.404129	0.229968	0.000095
C27	C	0.924087	-0.451550	0.000078
C28	C	0.925815	-0.347118	0.000085
C29	C	0.927198	-0.263882	0.000091
C30	C	0.928926	-0.159443	0.000096
C31	C	1.069872	0.198333	0.000107
C32	C	1.156927	0.206569	0.000111
C33	C	0.921024	0.362704	0.000082
C34	C	0.922715	0.465206	0.000076
N35	N	0.916736	0.205254	0.205390
N36	N	0.936294	0.183739	-0.205204
C37	C	0.967817	0.148889	0.250793
C38	C	0.963505	0.153651	0.341600
C39	C	0.908115	0.214784	0.387002
C40	C	0.857028	0.271151	0.341593
C41	C	0.861337	0.266383	0.250787
C42	C	0.889516	0.235339	0.658581
C43	C	0.885212	0.240104	0.749392
C44	C	0.991689	0.122602	0.749393
C45	C	0.995996	0.117844	0.658586
C46	C	0.944907	0.174208	0.613185
N47	N	0.903708	0.219655	0.479822
N48	N	0.949311	0.169331	0.520367
H49	H	0.671744	0.332900	0.000054
H50	H	1.012925	0.099112	0.213832
H51	H	0.847918	0.281234	0.621622
C52	C	1.056922	0.050595	0.608641
C53	C	1.113114	-0.011414	0.658574
C54	C	1.174041	-0.078660	0.608626
C55	C	1.178776	-0.083897	0.508743
C56	C	1.122582	-0.021887	0.458804
C57	C	1.061655	0.045359	0.508752
H58	H	1.109610	-0.007539	0.732518
H59	H	1.215640	-0.124564	0.645595
H60	H	1.223878	-0.133677	0.471768
H61	H	1.126085	-0.025762	0.384860
H62	H	1.020056	0.091264	0.471783
C63	C	0.305224	0.397442	0.000079
C64	C	0.250083	0.484849	0.000077
C65	C	0.284915	0.580775	0.000064
C66	C	0.374888	0.589295	0.000054
C67	C	0.430034	0.501885	0.000056
C68	C	0.395202	0.405958	0.000069
H69	H	0.183475	0.478545	0.000085
H70	H	0.244092	0.645482	0.000062
H71	H	0.400672	0.660306	0.000044
H72	H	0.496642	0.508189	0.000048
H73	H	0.436025	0.341251	0.000070
H74	H	0.147771	0.358475	0.000091
H75	H	0.329663	0.070141	0.000121
C76	C	1.047879	0.060597	0.799335
C77	C	1.014181	-0.008945	0.861775
C78	C	1.070372	-0.070956	0.911716
C79	C	1.160261	-0.063425	0.899216
C80	C	1.193963	0.006120	0.836774
C81	C	1.137772	0.068131	0.786833
H82	H	0.947636	-0.014523	0.871030
H83	H	1.045423	-0.122438	0.957940
H84	H	1.201857	-0.109330	0.936185
H85	H	1.260508	0.011697	0.827519
H86	H	1.162721	0.119613	0.740609
H87	H	0.556847	0.016475	0.000114
H88	H	0.181276	0.056094	0.000123
C89	C	0.796097	0.338400	0.391531
C90	C	0.791391	0.343698	0.491413
C91	C	0.730460	0.410951	0.541348
C92	C	0.674236	0.472905	0.491400
C93	C	0.678940	0.467609	0.391512
C94	C	0.739871	0.400356	0.341577
H95	H	0.833013	0.297834	0.528392
H96	H	0.726977	0.414871	0.615292
H97	H	0.629131	0.522690	0.528365
H98	H	0.637318	0.513473	0.354533
H99	H	0.743353	0.396435	0.267633
H100	H	0.840105	0.289889	0.786355
H101	H	1.005099	0.107754	0.378567
H102	H	0.523358	0.318852	0.000071
H103	H	0.819740	0.312280	0.213821
H104	H	0.705249	0.030517	0.000090
