data_functionalizedCrystal
_audit_creation_method	'MofGen! by Chris Wilmer'
_symmetry_space_group_name_H-M	'P1'
_symmetry_Int_Tables_number	1
_symmetry_cell_setting	triclinic
loop_
_symmetry_equiv_pos_as_xyz
  x,y,z
_cell_length_a	17.019282
_cell_length_b	15.500235
_cell_length_c	17.699083
_cell_angle_alpha	92.834394
_cell_angle_beta	96.663816
_cell_angle_gamma	88.951883
loop_
_atom_site_label
_atom_site_type_symbol
_atom_site_fract_x
_atom_site_fract_y
_atom_site_fract_z
O1	O	1.046189	-0.006025	-0.096667
O2	O	1.546189	0.493975	0.403333
O3	O	0.817369	0.011031	-0.108138
O4	O	1.317369	0.511031	0.391862
O5	O	0.938243	0.002013	0.007758
O6	O	1.438243	0.502013	0.507758
O7	O	0.925315	0.002992	-0.212564
O8	O	1.425315	0.502992	0.287436
O9	O	0.930937	-0.141330	0.000728
O10	O	1.430937	0.358670	0.500728
O11	O	0.810062	-0.132313	-0.115168
O12	O	1.310062	0.367687	0.384832
O13	O	1.038883	-0.149368	-0.103698
O14	O	1.538883	0.350632	0.396302
Cu15	Cu	0.923805	-0.153929	-0.110075
Cu16	Cu	1.423805	0.346071	0.389925
Cu17	Cu	0.932446	0.015591	-0.101761
Cu18	Cu	1.432446	0.515591	0.398239
O19	O	0.918008	-0.140351	-0.219594
O20	O	1.418008	0.359649	0.280406
C21	C	0.784438	-0.058459	-0.111081
C22	C	1.284438	0.441541	0.388919
C23	C	0.697201	-0.051957	-0.109368
C24	C	1.197201	0.448043	0.390632
N25	N	0.917733	-0.273161	-0.115923
N26	N	1.417733	0.226839	0.384077
C27	C	0.887294	-0.816078	-0.145004
C28	C	1.387294	-0.316078	0.354996
C29	C	0.891903	-0.725849	-0.140596
C30	C	1.391903	-0.225849	0.359404
C31	C	0.947747	-0.684722	-0.087095
C32	C	1.447747	-0.184722	0.412905
C33	C	0.998980	-0.733828	-0.037993
C34	C	1.498980	-0.233828	0.462007
C35	C	0.994366	-0.824055	-0.042398
C36	C	1.494366	-0.324055	0.457602
C37	C	0.964352	-0.412494	-0.071226
C38	C	1.464352	0.087506	0.428774
C39	C	0.968964	-0.322260	-0.066826
C40	C	1.468964	0.177740	0.433174
C41	C	0.861885	-0.314288	-0.169429
C42	C	1.361885	0.185712	0.330571
C43	C	0.857280	-0.404517	-0.173832
C44	C	1.357280	0.095483	0.326168
C45	C	0.908510	-0.453615	-0.124727
C46	C	1.408510	0.046385	0.375273
C47	C	0.952462	-0.592493	-0.082590
C48	C	1.452462	-0.092493	0.417410
C49	C	0.903791	-0.545841	-0.129229
C50	C	1.403791	-0.045841	0.370771
C51	C	0.652239	-0.127041	-0.112394
C52	C	1.152239	0.372959	0.387606
C53	C	0.570272	-0.120934	-0.110773
C54	C	1.070272	0.379066	0.389227
C55	C	0.533269	-0.039742	-0.106131
C56	C	1.033269	0.460258	0.393869
C57	C	0.578237	0.035347	-0.103103
C58	C	1.078237	0.535347	0.396897
C59	C	0.660203	0.029240	-0.104719
C60	C	1.160203	0.529240	0.395281
C61	C	0.285985	-0.017392	-0.101055
C62	C	0.785985	0.482608	0.398945
C63	C	0.204013	-0.011289	-0.099441
C64	C	0.704013	0.488711	0.400559
C65	C	0.196053	-0.167571	-0.107110
C66	C	0.696053	0.332429	0.392890
C67	C	0.278021	-0.173672	-0.108730
C68	C	0.778021	0.326328	0.391270
C69	C	0.322983	-0.098582	-0.105698
C70	C	0.822983	0.401418	0.394302
C71	C	0.449486	-0.033498	-0.104476
C72	C	0.949486	0.466502	0.395524
C73	C	0.406765	-0.104827	-0.107348
C74	C	0.906765	0.395173	0.392652
C75	C	1.071813	-0.079877	-0.100754
C76	C	1.571813	0.420123	0.399246
C77	C	1.159050	-0.086373	-0.102467
C78	C	1.659050	0.413627	0.397533
C79	C	0.934127	-0.069624	0.032442
C80	C	1.434127	0.430376	0.532442
C81	C	0.932737	-0.069521	0.116466
C82	C	1.432737	0.430479	0.616466
N83	N	0.938524	0.134823	-0.095907
N84	N	1.438524	0.634823	0.404093
C85	C	0.922125	-0.068712	-0.244278
C86	C	1.422125	0.431288	0.255722
C87	C	0.923515	-0.068809	-0.328302
C88	C	1.423515	0.431191	0.171698
C89	C	1.003688	-0.074810	0.164783
C90	C	1.503688	0.425190	0.664783
C91	C	1.002378	-0.074705	0.243732
C92	C	1.502378	0.425295	0.743732
C93	C	0.930115	-0.069316	0.274363
C94	C	1.430115	0.430684	0.774363
C95	C	0.859159	-0.064023	0.226040
C96	C	1.359159	0.435977	0.726040
C97	C	0.860470	-0.064123	0.147093
C98	C	1.360470	0.435877	0.647093
C99	C	0.853869	-0.063622	0.544427
C100	C	1.353869	0.436378	1.044427
C101	C	0.852563	-0.063526	0.623380
C102	C	1.352563	0.436474	1.123380
C103	C	0.995776	-0.074204	0.641066
C104	C	1.495776	0.425796	1.141066
C105	C	0.997088	-0.074304	0.562118
C106	C	1.497088	0.425696	1.062118
C107	C	0.926132	-0.069006	0.513803
C108	C	1.426132	0.430994	1.013803
C109	C	0.927553	-0.069119	0.428197
C110	C	1.427553	0.430881	0.928197
C111	C	0.928692	-0.069210	0.359967
C112	C	1.428692	0.430790	0.859967
H113	H	0.841823	-0.849557	-0.188573
H114	H	1.341823	-0.349557	0.311427
H115	H	0.173887	0.054830	-0.095663
H116	H	0.673887	0.554830	0.404337
C117	C	0.335433	0.065210	-0.097712
C118	C	0.835433	0.565210	0.402288
N119	N	0.372681	0.127429	-0.095192
N120	N	0.872681	0.627429	0.404808
H121	H	0.682360	-0.193156	-0.116180
H122	H	1.182360	0.306844	0.383820
H123	H	0.308143	-0.239787	-0.112507
H124	H	0.808143	0.260213	0.387493
C125	C	1.080429	-0.080538	0.296876
C126	C	1.580429	0.419462	0.796876
N127	N	1.139221	-0.084936	0.336905
N128	N	1.639221	0.415064	0.836905
C129	C	0.779669	-0.058103	0.259737
C130	C	1.279669	0.441897	0.759737
N131	N	0.719795	-0.053650	0.285116
N132	N	1.219795	0.446350	0.785116
H133	H	0.548103	0.101455	-0.099318
H134	H	1.048103	0.601455	0.400682
C135	C	1.013877	-0.547243	-0.023727
C136	C	1.513877	-0.047243	0.476273
N137	N	1.060128	-0.513158	0.020614
N138	N	1.560128	-0.013158	0.520614
C139	C	0.520815	-0.203532	-0.114119
C140	C	1.020815	0.296468	0.385881
N141	N	0.483563	-0.265750	-0.116645
N142	N	0.983563	0.234250	0.383355
H143	H	0.159437	-0.228704	-0.109578
H144	H	0.659437	0.271296	0.390422
C145	C	0.709661	0.111838	-0.101392
C146	C	1.209661	0.611838	0.398608
N147	N	0.746913	0.174054	-0.098884
N148	N	1.246913	0.674054	0.401116
C149	C	0.782418	-0.058306	0.093945
C150	C	1.282418	0.441694	0.593945
N151	N	0.723627	-0.053922	0.053914
N152	N	1.223627	0.446078	0.553914
C153	C	1.050725	-0.878064	0.011612
C154	C	1.550725	-0.378064	0.511612
N155	N	1.093174	-0.918743	0.052295
N156	N	1.593174	-0.418743	0.552295
H157	H	0.850187	-0.685872	-0.180574
H158	H	1.350187	-0.185872	0.319426
C159	C	1.083184	-0.080739	0.131097
C160	C	1.583184	0.419261	0.631097
N161	N	1.143062	-0.085200	0.105727
N162	N	1.643062	0.414800	0.605727
C163	C	1.076582	-0.080232	0.528429
C164	C	1.576582	0.419768	1.028429
N165	N	1.136459	-0.084693	0.503056
N166	N	1.636459	0.415307	1.003056
H167	H	0.811807	-0.438000	-0.217396
H168	H	1.311807	0.062000	0.282604
C169	C	0.805530	-0.260272	-0.223434
C170	C	1.305530	0.239728	0.276566
N171	N	0.763079	-0.219587	-0.264110
N172	N	1.263079	0.280413	0.235890
H173	H	0.436897	-0.170933	-0.111123
H174	H	0.936897	0.329067	0.388877
C175	C	0.842361	-0.591084	-0.188076
C176	C	1.342361	-0.091084	0.311924
N177	N	0.796092	-0.625168	-0.232400
N178	N	1.296092	-0.125168	0.267600
H179	H	0.419348	0.032609	-0.100696
H180	H	0.919348	0.532609	0.399304
C181	C	0.773065	-0.057590	0.657072
C182	C	1.273065	0.442410	1.157072
N183	N	0.713190	-0.053119	0.682449
N184	N	1.213190	0.446881	1.182449
C185	C	1.030397	-0.277023	-0.007966
C186	C	1.530397	0.222977	0.492034
N187	N	1.076666	-0.242949	0.036365
N188	N	1.576666	0.257051	0.536365
H189	H	1.006067	-0.452463	-0.031244
H190	H	1.506067	0.047537	0.468756
C191	C	1.073830	-0.080022	0.694220
C192	C	1.573830	0.419978	1.194220
N193	N	1.132619	-0.084405	0.734255
N194	N	1.632619	0.415595	1.234255
C195	C	0.775815	-0.057790	0.491290
C196	C	1.275815	0.442210	0.991290
N197	N	0.717021	-0.053395	0.451264
N198	N	1.217021	0.446605	0.951264
H199	H	1.044447	-0.700337	0.005573
H200	H	1.544447	-0.200337	0.505573
