data_functionalizedCrystal
_audit_creation_method	'MofGen! by Chris Wilmer'
_symmetry_space_group_name_H-M	'P1'
_symmetry_Int_Tables_number	1
_symmetry_cell_setting	triclinic
loop_
_symmetry_equiv_pos_as_xyz
  x,y,z
_cell_length_a	27.440280
_cell_length_b	19.902436
_cell_length_c	19.902436
_cell_angle_alpha	90.004631
_cell_angle_beta	60.003044
_cell_angle_gamma	59.996489
loop_
_atom_site_label
_atom_site_type_symbol
_atom_site_fract_x
_atom_site_fract_y
_atom_site_fract_z
Zr1	Zr	0.533342	-0.088119	0.647405
O2	O	0.635022	-0.195418	0.540118
O3	O	0.431675	-0.055227	0.680282
O4	O	0.533348	-0.195408	0.680283
O5	O	0.533339	0.055342	0.540130
O6	O	0.533339	-0.195400	0.790862
O7	O	0.533348	-0.055237	0.540117
O8	O	0.351463	0.055359	0.790859
O9	O	0.715214	-0.195417	0.540133
O10	O	0.473480	-0.041191	0.776842
O11	O	0.473480	0.041326	0.694328
O12	O	0.593188	-0.123720	0.694330
O13	O	0.593188	-0.041203	0.611816
Zr14	Zr	0.533312	0.088256	0.823786
Zr15	Zr	0.533327	-0.088105	0.823765
Zr16	Zr	0.533327	0.088241	0.647426
Zr17	Zr	0.661240	-0.088117	0.647428
Zr18	Zr	0.405414	0.088254	0.823763
O19	O	0.634979	0.055364	0.790910
O20	O	0.635000	-0.195398	0.790880
O21	O	0.635000	0.055344	0.540148
O22	O	0.431632	0.195555	0.931073
O23	O	0.431653	-0.055207	0.931043
O24	O	0.431653	0.195535	0.680311
O25	O	0.533315	-0.055205	0.931061
O26	O	0.533305	0.195545	0.790908
O27	O	0.533315	0.195536	0.680329
O28	O	0.533305	0.055374	0.931074
O29	O	0.715202	-0.195406	0.680316
O30	O	0.351451	0.195542	0.790876
O31	O	0.351439	0.195554	0.931059
O32	O	0.351451	0.055371	0.931042
O33	O	0.715202	-0.055234	0.540149
O34	O	0.715190	-0.055223	0.680332
O35	O	0.473466	0.123856	0.776861
O36	O	0.473466	0.041339	0.859375
O37	O	0.593174	-0.041189	0.776863
O38	O	0.593174	0.041328	0.694349
C39	C	0.373346	0.000066	0.735567
C40	C	0.319050	0.000065	0.735557
C41	C	0.533346	0.000050	0.514996
C42	C	0.533352	0.000044	0.440126
C43	C	0.533308	0.220668	0.735621
C44	C	0.533302	0.295538	0.735630
C45	C	-0.017692	-0.042997	0.778690
C46	C	-0.068715	-0.042995	0.778697
O47	O	-0.095122	-0.079602	0.815353
N48	N	-0.094232	0.000076	0.735625
C49	C	-0.068726	0.043155	0.692550
O50	O	-0.095115	0.079791	0.655915
C51	C	-0.017707	0.043157	0.692547
C52	C	0.007812	0.000076	0.735616
C53	C	0.007826	-0.086074	0.821755
C54	C	0.058848	-0.086077	0.821746
C55	C	0.084351	-0.043004	0.778672
C56	C	0.058833	0.000073	0.735607
C57	C	0.007794	0.086240	0.649477
C58	C	0.058817	0.086239	0.649479
C59	C	0.084335	0.043158	0.692547
C60	C	0.135358	0.043143	0.692523
N61	N	0.160874	0.000071	0.735596
C62	C	0.135371	-0.043002	0.778670
C63	C	-0.175871	0.043148	0.692559
C64	C	-0.226886	0.043142	0.692555
C65	C	-0.226873	-0.043007	0.778705
C66	C	-0.175854	-0.043005	0.778703
C67	C	-0.150355	0.000077	0.735631
C68	C	0.242519	-0.043006	0.778647
C69	C	0.293547	-0.043008	0.778632
C70	C	0.293527	0.043144	0.692486
C71	C	0.242506	0.043143	0.692498
C72	C	0.217002	0.000066	0.735585
O73	O	0.161794	0.079734	0.655889
O74	O	0.161759	-0.079623	0.815308
C75	C	0.693307	0.000071	0.735624
C76	C	0.747603	0.000072	0.735634
C77	C	0.533346	-0.220532	0.735570
C78	C	0.533352	-0.295401	0.735561
C79	C	0.533335	0.567540	0.735584
C80	C	0.457822	0.591110	0.787386
C81	C	0.457774	0.513272	0.787678
C82	C	0.533318	0.432597	0.735607
C83	C	0.570814	0.435018	0.773574
C84	C	0.570332	0.513245	0.773953
C85	C	0.571893	0.512236	0.645793
C86	C	0.570474	0.435315	0.645935
C87	C	0.533312	0.356330	0.735619
C88	C	0.533343	0.643805	0.735575
C89	C	0.533318	0.000076	0.168124
C90	C	0.608832	-0.051735	0.144564
C91	C	0.608879	-0.052022	0.222402
C92	C	0.533335	0.000061	0.303067
C93	C	0.495839	-0.037902	0.300645
C94	C	0.496322	-0.038286	0.222417
C95	C	0.494760	0.089874	0.223419
C96	C	0.496179	0.089736	0.300341
C97	C	0.533341	0.000052	0.379334
C98	C	0.533310	0.000082	0.091859
C99	C	0.533308	0.000086	0.956196
C100	C	0.533302	0.000092	1.031065
C101	C	0.373327	0.000084	0.956167
C102	C	0.319025	0.000089	1.031027
C103	C	0.373327	0.220666	0.735593
C104	C	0.319025	0.295535	0.735592
C105	C	0.373309	0.220684	0.956193
C106	C	0.319000	0.295559	1.031062
C107	C	0.693345	-0.220547	0.514998
C108	C	0.747654	-0.295422	0.440129
C109	C	0.693326	0.000053	0.515024
C110	C	0.747629	0.000048	0.440164
C111	C	0.693326	-0.220529	0.735598
C112	C	0.747629	-0.295398	0.735599
C113	C	0.293532	-0.042996	1.023101
C114	C	0.242516	-0.043008	1.093433
C115	C	0.216991	0.000071	1.171691
C116	C	0.242490	0.043157	1.179616
C117	C	0.293508	0.043164	1.109284
C118	C	0.293517	0.373781	0.778673
C119	C	0.242501	0.444135	0.778669
C120	C	0.216991	0.436241	0.735589
C121	C	0.242505	0.357986	0.692502
C122	C	0.293523	0.287634	0.692502
C123	C	0.293496	0.287648	1.109300
C124	C	0.242474	0.357994	1.179654
C125	C	0.216954	0.436250	1.171768
C126	C	0.242463	0.444159	1.093521
C127	C	0.293487	0.373814	1.023169
C128	C	0.773164	-0.287511	0.361891
C129	C	0.824201	-0.357857	0.291537
C130	C	0.849724	-0.436113	0.299423
C131	C	0.824212	-0.444023	0.377670
C132	C	0.773179	-0.373677	0.448022
C133	C	0.773127	0.043126	0.448091
C134	C	0.824157	0.043118	0.377758
C135	C	0.849684	0.000037	0.299501
C136	C	0.824183	-0.043046	0.291576
C137	C	0.773157	-0.043043	0.361907
C138	C	0.773122	-0.287477	0.778688
C139	C	0.824138	-0.357817	0.778705
C140	C	0.849663	-0.436078	0.735627
C141	C	0.824164	-0.443997	0.692537
C142	C	0.773146	-0.373657	0.692525
H143	H	0.314324	-0.078093	0.813702
F144	F	0.851381	-0.527316	0.386050
F145	F	0.851341	-0.527294	0.646688
H146	H	0.221677	0.507885	1.087113
F147	F	0.419264	0.643292	0.873439
F148	F	0.904039	-0.510975	0.224540
F149	F	0.215316	0.089004	1.262910
H150	H	0.638484	-0.118262	0.220625
H151	H	0.314267	0.223934	1.115736
H152	H	0.221759	-0.078082	0.813734
H153	H	0.221727	0.351570	0.657427
F154	F	-0.148700	-0.088856	0.824542
H155	H	0.518920	0.121586	0.187115
F156	F	0.422048	0.140567	0.249458
F157	F	0.085998	-0.131928	0.867589
H158	H	0.844912	0.078204	0.384227
H159	H	0.314313	-0.078086	0.959385
F160	F	0.423908	0.007841	0.247695
F161	F	0.419081	0.642302	0.754273
F162	F	0.647331	-0.018740	0.220881
H163	H	0.752386	-0.223797	0.355455
H164	H	0.441065	0.131588	0.357795
H165	H	0.221734	0.507846	0.813758
F166	F	-0.019306	-0.131926	0.867602
F167	F	0.851342	-0.349422	0.208270
H168	H	0.844974	-0.078122	0.227849
F169	F	0.642745	0.487958	0.727841
H170	H	0.626359	0.378203	0.737660
F171	F	0.903964	-0.510933	0.735645
H172	H	0.523519	0.118096	0.299972
H173	H	0.314285	0.223924	0.657423
H174	H	0.175407	0.493523	1.229060
H175	H	0.440295	-0.001981	0.357452
F176	F	0.215355	0.088983	0.646649
F177	F	0.215333	0.349559	1.262921
H178	H	0.752398	-0.078120	0.355441
H179	H	0.314246	0.380267	0.959467
H180	H	0.844894	-0.351353	0.813793
H181	H	0.752394	-0.380118	0.657433
H182	H	0.638467	-0.026401	0.105406
H183	H	0.752409	-0.380128	0.511725
F184	F	0.903990	0.000041	0.224654
H185	H	0.752348	0.078213	0.511806
H186	H	0.221761	-0.078093	1.086964
H187	H	0.544765	0.433476	0.839021
F188	F	0.162692	0.511124	0.735597
H189	H	0.752348	-0.223760	0.813767
H190	H	0.428164	0.515060	0.853915
F191	F	0.531166	-0.124655	0.174643
H192	H	0.314281	0.380225	0.813755
H193	H	-0.247648	-0.078078	0.813780
F194	F	0.162692	0.000058	1.246537
H195	H	0.521888	-0.103352	0.302192
F196	F	0.540311	0.559686	0.604340
F197	F	-0.254031	0.088982	0.646704
F198	F	0.534734	0.435811	0.608865
H199	H	-0.012975	0.121322	0.614407
F200	F	-0.148734	0.088999	0.646707
H201	H	0.314303	0.078210	0.657414
F202	F	0.419320	0.514797	0.754396
F203	F	0.085950	0.132095	0.603636
H204	H	0.543677	0.549798	0.840027
H205	H	0.625589	0.377853	0.604092
H206	H	0.627523	0.492309	0.607016
H207	H	0.314258	0.078253	1.115750
F208	F	0.647388	-0.137796	0.092396
