data_functionalizedCrystal
_audit_creation_method	'MofGen! by Chris Wilmer'
_symmetry_space_group_name_H-M	'P1'
_symmetry_Int_Tables_number	1
_symmetry_cell_setting	triclinic
loop_
_symmetry_equiv_pos_as_xyz
  x,y,z
_cell_length_a	16.109302
_cell_length_b	16.109301
_cell_length_c	14.586319
_cell_angle_alpha	90.007381
_cell_angle_beta	90.002485
_cell_angle_gamma	83.461631
loop_
_atom_site_label
_atom_site_type_symbol
_atom_site_fract_x
_atom_site_fract_y
_atom_site_fract_z
O1	O	-1.103126	-0.106872	-0.076284
O2	O	-0.603126	0.393128	0.423716
O3	O	-0.861065	-0.120171	-0.076278
O4	O	-0.361065	0.379829	0.423722
O5	O	-0.988745	0.007510	-0.076272
O6	O	-0.488745	0.507510	0.423728
O7	O	-0.975446	-0.234552	-0.076290
O8	O	-0.475446	0.265448	0.423710
O9	O	-0.988744	0.007518	0.076209
O10	O	-0.488744	0.507518	0.576209
O11	O	-0.861064	-0.120163	0.076203
O12	O	-0.361064	0.379837	0.576203
O13	O	-1.103125	-0.106864	0.076196
O14	O	-0.603125	0.393136	0.576196
Cu15	Cu	-0.982094	-0.113513	0.090122
Cu16	Cu	-0.482094	0.386487	0.590122
Cu17	Cu	-0.982096	-0.113522	-0.090204
Cu18	Cu	-0.482096	0.386478	0.409796
O19	O	-0.975445	-0.234544	0.076191
O20	O	-0.475445	0.265456	0.576191
C21	C	-0.830089	-0.119628	-0.000036
C22	C	-0.330089	0.380372	0.499964
C23	C	-0.737794	-0.118013	-0.000033
C24	C	-0.237794	0.381987	0.499967
C25	C	-0.988206	0.038488	-0.000031
C26	C	-0.488206	0.538488	0.499969
C27	C	-0.986591	0.130784	-0.000030
C28	C	-0.486591	0.630784	0.499970
C29	C	-1.134101	-0.107407	-0.000047
C30	C	-0.634101	0.392593	0.499953
C31	C	-1.226396	-0.109022	-0.000056
C32	C	-0.726396	0.390978	0.499944
C33	C	-0.525452	-0.114273	0.083075
C34	C	-0.025452	0.385727	0.583075
C35	C	-0.438732	-0.112746	0.083072
C36	C	0.061268	0.387254	0.583072
C37	C	-0.438744	-0.112759	-0.083171
C38	C	0.061256	0.387241	0.416829
C39	C	-0.525463	-0.114280	-0.083167
C40	C	-0.025463	0.385720	0.416833
C41	C	-0.568815	-0.115041	-0.000041
C42	C	-0.068815	0.384959	0.499959
C43	C	-0.395375	-0.111994	-0.000048
C44	C	0.104625	0.388006	0.499952
C45	C	-0.301350	-0.110338	-0.000052
C46	C	0.198650	0.389662	0.499948
C47	C	-0.662847	-0.116695	-0.000037
C48	C	-0.162847	0.383305	0.499963
N49	N	-0.982097	-0.113523	-0.217035
N50	N	-0.482097	0.386477	0.282965
C51	C	-0.975984	-0.265523	-0.000052
C52	C	-0.475984	0.234477	0.499948
C53	C	-0.977599	-0.357819	-0.000060
C54	C	-0.477599	0.142181	0.499940
C55	C	-1.058599	0.353056	-0.000046
C56	C	-0.558599	0.853056	0.499954
C57	C	-1.057074	0.439776	-0.000054
C58	C	-0.557074	0.939776	0.499946
C59	C	-0.905586	0.419902	-0.000046
C60	C	-0.405586	0.919902	0.499954
C61	C	-0.907111	0.333184	-0.000045
C62	C	-0.407111	0.833184	0.499955
C63	C	-0.983620	0.299763	-0.000040
C64	C	-0.483620	0.799763	0.499960
C65	C	-0.980571	0.473202	-0.000049
C66	C	-0.480571	0.973202	0.499951
C67	C	-0.978918	0.567228	-0.000057
C68	C	-0.478918	1.067228	0.499943
C69	C	-0.985273	0.205731	-0.000034
C70	C	-0.485273	0.705731	0.499966
C71	C	-1.038743	-0.057096	-0.452039
C72	C	-0.538743	0.442904	0.047961
C73	C	-1.038746	-0.057094	-0.548021
C74	C	-0.538746	0.442906	-0.048021
C75	C	-0.925451	-0.169939	-0.548035
C76	C	-0.425451	0.330061	-0.048035
C77	C	-0.925453	-0.169944	-0.452056
C78	C	-0.425453	0.330056	0.047944
C79	C	-0.982098	-0.113518	-0.404060
C80	C	-0.482098	0.386482	0.095940
C81	C	-0.982098	-0.113510	-0.596021
C82	C	-0.482098	0.386490	-0.096021
C83	C	-0.982101	-0.113509	-0.700088
C84	C	-0.482101	0.386491	-0.200088
C85	C	-0.982097	-0.113520	-0.299986
C86	C	-0.482097	0.386480	0.200014
N87	N	-0.982100	-0.113506	0.216954
N88	N	-0.482100	0.386494	0.716954
H89	H	-0.560747	-0.114893	0.150762
H90	H	-0.060747	0.385107	0.650762
Br91	Br	-0.805346	0.260851	-0.000049
Br92	Br	-0.305346	0.760851	0.499951
Br93	Br	-0.379887	-0.111703	0.195878
Br94	Br	0.120113	0.388297	0.695878
Br95	Br	-0.379908	-0.111701	-0.195979
Br96	Br	0.120092	0.388299	0.304021
Br97	Br	-0.801757	0.465265	-0.000055
Br98	Br	-0.301757	0.965265	0.499945
Br99	Br	-1.115620	0.019481	-0.386906
Br100	Br	-0.615620	0.519481	0.113094
H101	H	-1.084872	-0.011151	-0.587083
H102	H	-0.584872	0.488849	-0.087083
Br103	Br	-0.584319	-0.115312	-0.195976
Br104	Br	-0.084319	0.384688	0.304024
H105	H	-0.879330	-0.215879	-0.587123
H106	H	-0.379330	0.284121	-0.087123
H107	H	-1.118130	0.483165	-0.000060
H108	H	-0.618130	0.983165	0.499940
H109	H	-1.120897	0.325848	-0.000044
H110	H	-0.620897	0.825848	0.499956
Br111	Br	-0.848579	-0.246529	-0.386933
Br112	Br	-0.348579	0.253471	0.113067
