data_functionalizedCrystal
_audit_creation_method	'MofGen! by Chris Wilmer'
_symmetry_space_group_name_H-M	'P1'
_symmetry_Int_Tables_number	1
_symmetry_cell_setting	triclinic
loop_
_symmetry_equiv_pos_as_xyz
  x,y,z
_cell_length_a	13.032831
_cell_length_b	21.295417
_cell_length_c	13.034356
_cell_angle_alpha	82.784908
_cell_angle_beta	74.815040
_cell_angle_gamma	82.834379
loop_
_atom_site_label
_atom_site_type_symbol
_atom_site_fract_x
_atom_site_fract_y
_atom_site_fract_z
Zn1	Zn	1.700064	-0.319122	-0.806376
Zn2	Zn	2.033398	0.014212	-0.473043
Zn3	Zn	2.366731	0.347545	-0.139709
Zn4	Zn	1.677332	-0.436255	-0.628722
Zn5	Zn	2.010665	-0.102922	-0.295388
Zn6	Zn	2.343999	0.230411	0.037945
Zn7	Zn	1.499869	-0.319127	-0.606258
Zn8	Zn	1.833202	0.014206	-0.272925
Zn9	Zn	2.166536	0.347539	0.060408
Zn10	Zn	1.522371	-0.412473	-0.783780
Zn11	Zn	1.855705	-0.079140	-0.450446
Zn12	Zn	2.189038	0.254194	-0.117113
O13	O	1.599909	-0.371744	-0.706284
O14	O	1.933242	-0.038411	-0.372951
O15	O	2.266576	0.294922	-0.039617
O16	O	1.845683	-0.344610	-0.801667
O17	O	2.179016	-0.011277	-0.468334
O18	O	2.512349	0.322056	-0.135001
O19	O	1.634860	-0.430673	-0.477100
O20	O	1.968194	-0.097340	-0.143767
O21	O	2.301527	0.235993	0.189567
O22	O	1.526521	-0.231040	-0.632860
O23	O	1.859855	0.102293	-0.299527
O24	O	2.193188	0.435626	0.033807
O25	O	1.828981	-0.430668	-0.671146
O26	O	2.162315	-0.097335	-0.337812
O27	O	2.495648	0.235999	-0.004479
O28	O	1.673604	-0.231036	-0.779885
O29	O	2.006937	0.102297	-0.446552
O30	O	2.340271	0.435630	-0.113219
O31	O	1.504479	-0.344620	-0.460596
O32	O	1.837812	-0.011286	-0.127263
O33	O	2.171145	0.322047	0.206070
O34	O	1.354220	-0.321559	-0.610949
O35	O	1.687553	0.011774	-0.277616
O36	O	2.020887	0.345108	0.055717
O37	O	1.564874	-0.390135	-0.935419
O38	O	1.898207	-0.056801	-0.602086
O39	O	2.231540	0.276532	-0.268752
O40	O	1.370752	-0.390140	-0.741373
O41	O	1.704086	-0.056806	-0.408040
O42	O	2.037419	0.276527	-0.074707
O43	O	1.695424	-0.321550	-0.952021
O44	O	2.028757	0.011784	-0.618687
O45	O	2.362090	0.345117	-0.285354
O46	O	1.656680	-0.521187	-0.649235
O47	O	1.990013	-0.187853	-0.315902
O48	O	2.323347	0.145480	0.017432
O49	O	1.542831	-0.503714	-0.763155
O50	O	1.876164	-0.170381	-0.429822
O51	O	2.209498	0.162953	-0.096489
C52	C	1.323947	-0.353270	-0.671273
C53	C	1.657280	-0.019936	-0.337939
C54	C	1.990614	0.313397	-0.004606
C55	C	1.205893	-0.345380	-0.656320
C56	C	1.539226	-0.012046	-0.322986
C57	C	1.872559	0.321287	0.010347
C58	C	1.161455	-0.375862	-0.714088
C59	C	1.494789	-0.042529	-0.380755
C60	C	1.828122	0.290804	-0.047421
C61	C	1.039440	-0.367708	-0.698635
C62	C	1.372773	-0.034375	-0.365301
C63	C	1.706107	0.298958	-0.031968
C64	C	1.599762	-0.535291	-0.706207
C65	C	1.933096	-0.201957	-0.372874
C66	C	2.266429	0.131376	-0.039541
C67	C	1.599801	-0.605260	-0.706223
C68	C	1.933135	-0.271927	-0.372889
C69	C	2.266468	0.061406	-0.039556
C70	C	1.659152	-0.647204	-0.646982
C71	C	1.992485	-0.313870	-0.313648
C72	C	2.325818	0.019463	0.019685
C73	C	1.659204	-0.712948	-0.647012
C74	C	1.992538	-0.379615	-0.313678
C75	C	2.325871	-0.046281	0.019655
C76	C	1.599887	-0.736746	-0.706269
C77	C	1.933220	-0.403413	-0.372936
C78	C	2.266553	-0.070079	-0.039603
C79	C	1.540533	-0.694794	-0.765523
C80	C	1.873867	-0.361460	-0.432190
C81	C	2.207200	-0.028127	-0.098856
C82	C	1.540491	-0.629051	-0.765500
C83	C	1.873824	-0.295718	-0.432166
C84	C	2.207157	0.037616	-0.098833
N85	N	1.508000	-0.833254	-0.702579
N86	N	1.841334	-0.499921	-0.369245
N87	N	2.174667	-0.166587	-0.035912
N88	N	1.508043	-0.895708	-0.702595
N89	N	1.841376	-0.562374	-0.369262
N90	N	2.174710	-0.229041	-0.035928
C91	C	1.600013	-0.934824	-0.706345
C92	C	1.933347	-0.601491	-0.373012
C93	C	2.266680	-0.268158	-0.039679
N94	N	1.691939	-0.909130	-0.710058
N95	N	2.025272	-0.575797	-0.376725
N96	N	2.358605	-0.242463	-0.043392
N97	N	1.691894	-0.846671	-0.710036
N98	N	2.025227	-0.513338	-0.376703
N99	N	2.358561	-0.180005	-0.043369
C100	C	1.599927	-0.808032	-0.706302
C101	C	1.933260	-0.474699	-0.372969
C102	C	2.266593	-0.141365	-0.039635
C103	C	1.659426	-1.048056	-0.647134
C104	C	1.992759	-0.714722	-0.313801
C105	C	2.326093	-0.381389	0.019532
C106	C	1.659482	-1.113801	-0.647172
C107	C	1.992815	-0.780467	-0.313839
C108	C	2.326148	-0.447134	0.019495
C109	C	1.540800	-1.095645	-0.765677
C110	C	1.874134	-0.762312	-0.432343
C111	C	2.207467	-0.428978	-0.099010
C112	C	1.540755	-1.029901	-0.765646
C113	C	1.874088	-0.696568	-0.432312
C114	C	2.207422	-0.363235	-0.098979
C115	C	1.600066	-1.006111	-0.706368
C116	C	1.933399	-0.672778	-0.373035
C117	C	2.266732	-0.339444	-0.039702
C118	C	1.876949	-0.390291	-0.741433
C119	C	2.210282	-0.056958	-0.408099
C120	C	2.543615	0.276375	-0.074766
C121	C	1.995007	-0.398195	-0.756411
C122	C	2.328340	-0.064862	-0.423078
C123	C	2.661673	0.268472	-0.089744
C124	C	1.635195	-0.353189	-0.983339
C125	C	1.968528	-0.019855	-0.650005
C126	C	2.301861	0.313478	-0.316672
C127	C	1.650231	-0.345281	-1.101403
C128	C	1.983564	-0.011948	-0.768070
C129	C	2.316898	0.321385	-0.434736
C130	C	1.600088	-0.207560	-0.706388
C131	C	1.933422	0.125774	-0.373054
C132	C	2.266755	0.459107	-0.039721
C133	C	1.600165	-0.137594	-0.706432
C134	C	1.933498	0.195739	-0.373098
C135	C	2.266831	0.529073	-0.039765
C136	C	1.607879	-0.367522	-1.267851
C137	C	1.941212	-0.034188	-0.934518
C138	C	2.274546	0.299145	-0.601185
C139	C	1.592335	-0.375694	-1.145825
C140	C	1.925669	-0.042361	-0.812492
C141	C	2.259002	0.290973	-0.479159
C142	C	1.564822	-0.390186	-0.430315
C143	C	1.898155	-0.056853	-0.096981
C144	C	2.231489	0.276480	0.236352
C145	C	1.549991	-0.397930	-0.312277
C146	C	1.883325	-0.064597	0.021056
C147	C	2.216658	0.268737	0.354389
H148	H	1.047290	-0.430327	-0.817320
H149	H	1.380623	-0.096994	-0.483986
H150	H	1.713956	0.236339	-0.150653
H151	H	1.707724	-1.028685	-0.598871
H152	H	2.041058	-0.695352	-0.265537
H153	H	2.374391	-0.362018	0.067796
H154	H	1.492421	-0.995749	-0.813880
H155	H	1.825755	-0.662415	-0.480547
H156	H	2.159088	-0.329082	-0.147214
H157	H	0.987157	-0.335569	-0.637737
H158	H	1.320490	-0.002236	-0.304404
H159	H	1.653823	0.331097	0.028930
H160	H	1.531268	-0.407783	-1.093525
H161	H	1.864601	-0.074450	-0.760191
H162	H	2.197935	0.258884	-0.426858
F163	F	1.470176	-0.439871	-1.243917
F164	F	1.803509	-0.106538	-0.910584
F165	F	2.136842	0.226796	-0.577251
F166	F	1.229793	-0.417867	-0.793685
F167	F	1.563126	-0.084533	-0.460351
F168	F	1.896460	0.248800	-0.127018
F169	F	1.137555	-0.303374	-0.576725
F170	F	1.470889	0.029960	-0.243392
F171	F	1.804222	0.363293	0.089941
H172	H	1.707449	-0.627836	-0.598718
H173	H	2.040782	-0.294503	-0.265384
H174	H	2.374115	0.038831	0.067949
F175	F	1.722375	-0.757595	-0.583956
F176	F	2.055708	-0.424262	-0.250622
F177	F	2.389041	-0.090928	0.082711
H178	H	1.707819	-1.147951	-0.598934
H179	H	2.041152	-0.814618	-0.265600
H180	H	2.374485	-0.481284	0.067733
H181	H	1.668950	-0.335440	-1.320156
H182	H	2.002284	-0.002107	-0.986823
H183	H	2.335617	0.331227	-0.653490
F184	F	1.477407	-0.720122	-0.828594
F185	F	1.810741	-0.386789	-0.495260
F186	F	2.144074	-0.053455	-0.161927
H187	H	1.492160	-0.594899	-0.813742
H188	H	1.825493	-0.261566	-0.480409
H189	H	2.158826	0.071768	-0.147075
H190	H	1.711306	-0.313197	-1.153703
H191	H	2.044639	0.020137	-0.820370
H192	H	2.377972	0.353470	-0.487036
H193	H	1.492508	-1.115020	-0.813931
H194	H	1.825841	-0.781687	-0.480597
H195	H	2.159174	-0.448354	-0.147264
