data_functionalizedCrystal
_audit_creation_method	'MofGen! by Chris Wilmer'
_symmetry_space_group_name_H-M	'P1'
_symmetry_Int_Tables_number	1
_symmetry_cell_setting	triclinic
loop_
_symmetry_equiv_pos_as_xyz
  x,y,z
_cell_length_a	12.827893
_cell_length_b	16.120444
_cell_length_c	16.120339
_cell_angle_alpha	89.786690
_cell_angle_beta	92.866391
_cell_angle_gamma	92.926656
loop_
_atom_site_label
_atom_site_type_symbol
_atom_site_fract_x
_atom_site_fract_y
_atom_site_fract_z
Zn1	Zn	1.547293	-0.306902	-0.486924
Zn2	Zn	1.546208	-0.453105	-0.354913
Zn3	Zn	1.380870	-0.314071	-0.347887
Zn4	Zn	1.363207	-0.445917	-0.493928
O5	O	1.459395	-0.379999	-0.420913
O6	O	1.693384	-0.326305	-0.469422
O7	O	1.531214	-0.440670	-0.237614
O8	O	1.410793	-0.196755	-0.360459
O9	O	1.692587	-0.433719	-0.372433
O10	O	1.533063	-0.191488	-0.462609
O11	O	1.409741	-0.338522	-0.232452
O12	O	1.232292	-0.331552	-0.367250
O13	O	1.380688	-0.421469	-0.609366
O14	O	1.219315	-0.428420	-0.474546
O15	O	1.515935	-0.319335	-0.604220
O16	O	1.514087	-0.568517	-0.379225
O17	O	1.379637	-0.563236	-0.481359
C18	C	1.187887	-0.379985	-0.420896
C19	C	1.071732	-0.379997	-0.420910
C20	C	1.020331	-0.326931	-0.468986
C21	C	0.900279	-0.326943	-0.469002
C22	C	1.444855	-0.596047	-0.431832
C23	C	1.438728	-0.688472	-0.436532
C24	C	1.491421	-0.901458	-0.396715
C25	C	1.427562	-0.857688	-0.445120
C26	C	1.433777	-0.763528	-0.440340
C27	C	1.485207	-0.995627	-0.401493
C28	C	1.731963	-0.380014	-0.420930
C29	C	1.848115	-0.380021	-0.420937
C30	C	1.446462	-0.368800	-0.637809
C31	C	1.440951	-0.364028	-0.730237
C32	C	1.474019	-0.163106	-0.409969
C33	C	1.480251	-0.070679	-0.405305
C34	C	1.472341	-0.391094	-0.204858
C35	C	1.478070	-0.395632	-0.112418
C36	C	1.430487	-0.355748	0.100515
C37	C	1.488531	-0.403910	0.056825
C38	C	1.482709	-0.399303	-0.037351
C39	C	1.436308	-0.360354	0.194699
H40	H	0.856073	-0.281513	-0.510164
H41	H	1.550755	-0.868217	-0.351686
H42	H	0.892313	-0.425460	-0.379780
H43	H	1.542598	-0.448602	0.090149
H44	H	1.376424	-0.311060	0.067192
H45	H	1.368223	-0.890933	-0.490151
H46	H	1.026861	-0.425437	-0.379760
H47	H	1.065202	-0.281487	-0.510132
