data_functionalizedCrystal
_audit_creation_method	'MofGen! by Chris Wilmer'
_symmetry_space_group_name_H-M	'P1'
_symmetry_Int_Tables_number	1
_symmetry_cell_setting	triclinic
loop_
_symmetry_equiv_pos_as_xyz
  x,y,z
_cell_length_a	16.625546
_cell_length_b	19.805407
_cell_length_c	19.805399
_cell_angle_alpha	90.019573
_cell_angle_beta	89.972133
_cell_angle_gamma	89.977532
loop_
_atom_site_label
_atom_site_type_symbol
_atom_site_fract_x
_atom_site_fract_y
_atom_site_fract_z
Zn1	Zn	-0.321020	-1.034754	-0.382718
Zn2	Zn	-0.455857	-1.034677	-0.269529
Zn3	Zn	-0.321043	-0.921569	-0.269543
Zn4	Zn	-0.455815	-0.921540	-0.382676
O5	O	-0.388434	-0.978135	-0.326117
O6	O	-0.338915	-1.129461	-0.367716
O7	O	-0.438001	-1.019652	-0.174815
O8	O	-0.208207	-0.936628	-0.284579
O9	O	-0.437980	-1.129404	-0.284556
O10	O	-0.208191	-1.019784	-0.367729
O11	O	-0.338953	-0.936553	-0.174825
O12	O	-0.338912	-0.826848	-0.284538
O13	O	-0.437907	-0.936579	-0.477398
O14	O	-0.437928	-0.826827	-0.367657
O15	O	-0.338874	-1.019756	-0.477429
O16	O	-0.568684	-1.019625	-0.284515
O17	O	-0.568653	-0.936504	-0.367644
C18	C	-0.597925	-0.978071	-0.326088
C19	C	-0.687546	-0.978105	-0.326099
C20	C	-0.388418	-0.802279	-0.326095
C21	C	-0.388431	-0.727047	-0.326102
C22	C	-0.388383	-0.978173	-0.502660
C23	C	-0.388361	-0.978189	-0.577892
C24	C	-1.015721	-0.978224	-0.326169
C25	C	-0.924413	-0.978189	-0.326152
C26	C	-0.851636	-0.978164	-0.326134
C27	C	-0.760322	-0.978130	-0.326117
C28	C	-0.178125	-0.978218	-0.326160
C29	C	-0.088504	-0.978253	-0.326178
C30	C	-0.388450	-1.154678	-0.326139
C31	C	-0.388457	-1.229910	-0.326149
C32	C	-0.440067	-0.691710	-0.369311
C33	C	-0.440068	-0.621021	-0.369321
C34	C	-0.388437	-0.585671	-0.326117
C35	C	-0.336796	-0.621014	-0.282905
C36	C	-0.336791	-0.691701	-0.282899
C37	C	-0.336814	-0.335941	-0.282927
C38	C	-0.336825	-0.265248	-0.282935
C39	C	-0.440091	-0.265261	-0.369349
C40	C	-0.440086	-0.335948	-0.369343
C41	C	-0.388442	-0.371284	-0.326134
C42	C	-0.388440	-0.447932	-0.326125
C43	C	-0.388443	-0.509024	-0.326122
C44	C	-0.336792	-1.021501	-0.613253
C45	C	-0.336769	-1.021508	-0.683941
C46	C	-0.388319	-0.978206	-0.719267
C47	C	-0.439890	-0.934889	-0.683901
C48	C	-0.439909	-0.934880	-0.613214
C49	C	-0.439815	-0.934928	-0.968974
C50	C	-0.439794	-0.934942	-1.039667
C51	C	-0.336675	-1.021556	-1.039702
C52	C	-0.336694	-1.021546	-0.969015
C53	C	-0.388262	-0.978227	-0.933655
C54	C	-0.388285	-0.978219	-0.857006
C55	C	-0.388300	-0.978217	-0.795914
C56	C	-0.388426	-0.978136	-0.150261
C57	C	-0.388221	-0.978251	-0.075029
H58	H	-0.482116	-0.592253	-0.404506
O59	O	-0.490090	-0.892794	-0.578966
C60	C	-0.592357	-0.806870	-0.586386
C61	C	-0.535578	-0.854508	-0.625254
H62	H	-0.629137	-0.775894	-0.623794
H63	H	-0.634579	-0.837900	-0.553312
H64	H	-0.555340	-0.771515	-0.553271
H65	H	-0.572530	-0.889873	-0.658407
H66	H	-0.493354	-0.823436	-0.658286
O67	O	-0.286735	-0.370227	-0.240857
C68	C	-0.247369	-0.391773	-0.125783
C69	C	-0.304151	-0.352913	-0.173353
H70	H	-0.261418	-0.377779	-0.071197
H71	H	-0.256225	-0.448377	-0.133137
H72	H	-0.182382	-0.377898	-0.137808
H73	H	-0.369160	-0.366732	-0.161358
H74	H	-0.295226	-0.296319	-0.165990
O75	O	-0.490019	-0.892914	-0.934669
C76	C	-0.627166	-0.859941	-0.913052
C77	C	-0.570404	-0.907583	-0.951932
H78	H	-0.692168	-0.871774	-0.927006
H79	H	-0.618402	-0.867357	-0.856452
H80	H	-0.612941	-0.805383	-0.926951
H81	H	-0.584595	-0.962159	-0.938090
H82	H	-0.579179	-0.900108	-1.008523
O83	O	-0.286783	-0.230883	-0.240887
C84	C	-0.275810	-0.151018	-0.149545
C85	C	-0.332565	-0.189904	-0.197112
H86	H	-0.312800	-0.117867	-0.114150
H87	H	-0.238916	-0.188390	-0.118613
H88	H	-0.233685	-0.117973	-0.180695
H89	H	-0.374738	-0.222951	-0.166015
H90	H	-0.369402	-0.152496	-0.228046
H91	H	-0.482132	-0.364726	-0.404522
O92	O	-0.286599	-1.063493	-0.578972
C93	C	-0.149453	-1.096424	-0.557419
C94	C	-0.206209	-1.048816	-0.596268
H95	H	-0.084447	-1.084584	-0.571399
H96	H	-0.158251	-1.088978	-0.500813
H97	H	-0.163654	-1.150993	-0.571319
H98	H	-0.192044	-0.994229	-0.582425
H99	H	-0.197401	-1.056320	-0.652864
O100	O	-0.286755	-0.586645	-0.240867
C101	C	-0.275763	-0.506768	-0.149538
C102	C	-0.332527	-0.545659	-0.197093
H103	H	-0.312746	-0.473610	-0.114144
H104	H	-0.238866	-0.544136	-0.118604
H105	H	-0.233641	-0.473729	-0.180697
H106	H	-0.374697	-0.578698	-0.165986
H107	H	-0.369366	-0.508253	-0.228029
O108	O	-0.489958	-0.892971	-1.074012
C109	C	-0.598765	-0.883833	-1.153824
C110	C	-0.542020	-0.931437	-1.114959
H111	H	-0.640860	-0.914913	-1.186950
H112	H	-0.635683	-0.852882	-1.116439
H113	H	-0.561716	-0.848452	-1.186893
H114	H	-0.579007	-0.966859	-1.081890
H115	H	-0.505099	-0.962341	-1.152381
O116	O	-0.286541	-1.063631	-0.934805
C117	C	-0.184284	-1.149568	-0.942302
C118	C	-0.241031	-1.101933	-0.981128
H119	H	-0.147486	-1.180558	-0.979737
H120	H	-0.142077	-1.118536	-0.909231
H121	H	-0.221327	-1.184911	-0.909188
H122	H	-0.204053	-1.066580	-1.014279
H123	H	-0.283241	-1.133008	-1.014156
O124	O	-0.490177	-0.230829	-0.411307
C125	C	-0.535991	-0.121939	-0.449592
C126	C	-0.479215	-0.160845	-0.402056
H127	H	-0.527160	-0.065349	-0.442119
H128	H	-0.521918	-0.135817	-0.504205
H129	H	-0.600978	-0.135854	-0.437611
H130	H	-0.414209	-0.146950	-0.413976
H131	H	-0.493357	-0.146963	-0.347458
H132	H	-0.294740	-0.720472	-0.247717
H133	H	-0.482113	-0.720486	-0.404491
O134	O	-0.286582	-1.063482	-0.718316
C135	C	-0.177712	-1.072637	-0.798162
C136	C	-0.234496	-1.025025	-0.759267
H137	H	-0.135598	-1.041564	-0.831290
H138	H	-0.140817	-1.103569	-0.760796
H139	H	-0.214731	-1.108035	-0.831231
H140	H	-0.197540	-0.989586	-0.726197
H141	H	-0.271393	-0.994140	-0.796669
H142	H	-0.294683	-1.056826	-1.068501
O143	O	-0.490051	-0.892922	-0.718245
C144	C	-0.598858	-0.883782	-0.798058
C145	C	-0.542111	-0.931387	-0.759195
H146	H	-0.640951	-0.914862	-0.831186
H147	H	-0.635777	-0.852834	-0.760671
H148	H	-0.561809	-0.848398	-0.831124
H149	H	-0.579098	-0.966812	-0.726128
H150	H	-0.505189	-0.962288	-0.796619
