data_functionalizedCrystal
_audit_creation_method	'MofGen! by Chris Wilmer'
_symmetry_space_group_name_H-M	'P1'
_symmetry_Int_Tables_number	1
_symmetry_cell_setting	triclinic
loop_
_symmetry_equiv_pos_as_xyz
  x,y,z
_cell_length_a	11.169417
_cell_length_b	14.908183
_cell_length_c	11.169409
_cell_angle_alpha	86.666262
_cell_angle_beta	89.980176
_cell_angle_gamma	93.315623
loop_
_atom_site_label
_atom_site_type_symbol
_atom_site_fract_x
_atom_site_fract_y
_atom_site_fract_z
Zn1	Zn	1.807326	-0.359096	-0.650931
Zn2	Zn	2.307326	0.140904	-0.150931
Zn3	Zn	1.795601	-0.510002	-0.438644
Zn4	Zn	2.295601	-0.010002	0.061356
Zn5	Zn	1.606607	-0.359151	-0.450261
Zn6	Zn	2.106607	0.140849	0.049739
Zn7	Zn	1.595011	-0.509929	-0.639295
Zn8	Zn	2.095011	-0.009929	-0.139295
O9	O	1.701136	-0.434544	-0.544783
O10	O	2.201136	0.065456	-0.044783
O11	O	1.973719	-0.379122	-0.622779
O12	O	2.473719	0.120878	-0.122779
O13	O	1.770477	-0.490045	-0.272231
O14	O	2.270477	0.009955	0.227769
O15	O	1.642993	-0.232888	-0.486612
O16	O	2.142993	0.267112	0.013388
O17	O	1.965105	-0.489992	-0.466812
O18	O	2.465105	0.010008	0.033188
O19	O	1.790460	-0.232848	-0.634043
O20	O	2.290460	0.267152	-0.134043
O21	O	1.631624	-0.379215	-0.280766
O22	O	2.131624	0.120785	0.219234
O23	O	1.437120	-0.379144	-0.475329
O24	O	1.937120	0.120856	0.024671
O25	O	1.623228	-0.489867	-0.808792
O26	O	2.123228	0.010133	-0.308792
O27	O	1.428600	-0.489920	-0.614211
O28	O	1.928600	0.010080	-0.114211
O29	O	1.779215	-0.379050	-0.817341
O30	O	2.279215	0.120950	-0.317341
O31	O	1.759232	-0.636248	-0.455529
O32	O	2.259232	-0.136248	0.044471
O33	O	1.611859	-0.636194	-0.602946
O34	O	2.111859	-0.136194	-0.102946
C35	C	1.389312	-0.434531	-0.544768
C36	C	1.889312	0.065469	-0.044768
C37	C	1.255911	-0.434547	-0.544789
C38	C	1.755911	0.065453	-0.044789
C39	C	1.683048	-0.668958	-0.526741
C40	C	2.183048	-0.168958	-0.026741
C41	C	1.675419	-0.769241	-0.519062
C42	C	2.175419	-0.269241	-0.019062
C43	C	1.587952	-0.910681	-0.431418
C44	C	2.087952	-0.410681	0.068582
C45	C	1.595115	-0.816457	-0.438630
C46	C	2.095115	-0.316457	0.061370
C47	C	1.748562	-0.816256	-0.592291
C48	C	2.248562	-0.316256	-0.092291
C49	C	1.741399	-0.910481	-0.585080
C50	C	2.241399	-0.410481	-0.085080
C51	C	1.661093	-0.957690	-0.504639
C52	C	2.161093	-0.457690	-0.004639
C53	C	1.653937	-1.051917	-0.497422
C54	C	2.153937	-0.551917	0.002578
C55	C	1.807377	-1.051715	-0.651089
C56	C	2.307377	-0.551715	-0.151089
C57	C	1.814540	-0.957490	-0.658300
C58	C	2.314540	-0.457490	-0.158300
C59	C	2.014177	-0.434559	-0.544798
C60	C	2.514177	0.065441	-0.044798
C61	C	2.147577	-0.434565	-0.544804
C62	C	2.647577	0.065435	-0.044804
C63	C	1.701236	-0.434444	-0.857833
C64	C	2.201236	0.065556	-0.357833
C65	C	1.701278	-0.434402	-0.991236
C66	C	2.201278	0.065598	-0.491236
C67	C	1.719328	-0.199216	-0.562921
C68	C	2.219328	0.300784	-0.062921
C69	C	1.727080	-0.098933	-0.570651
C70	C	2.227080	0.401067	-0.070651
C71	C	1.701111	-0.434579	-0.232955
C72	C	2.201111	0.065421	0.267045
C73	C	1.701320	-0.434368	-0.099572
C74	C	2.201320	0.065632	0.400428
H75	H	1.588549	-1.090353	-0.431921
H76	H	2.088549	-0.590353	0.068079
H77	H	1.522570	-0.949120	-0.365913
H78	H	2.022570	-0.449120	0.134087
H79	H	1.535556	-0.778184	-0.379008
H80	H	2.035556	-0.278184	0.120992
H81	H	1.813938	-0.777806	-0.657792
H82	H	2.313938	-0.277806	-0.157792
N83	N	1.901162	-0.906575	-0.745053
N84	N	2.401162	-0.406575	-0.245053
H85	H	1.881238	-0.922935	-0.829537
H86	H	2.381238	-0.422935	-0.329537
H87	H	1.894568	-0.839766	-0.738414
H88	H	2.394568	-0.339766	-0.238414
N89	N	1.886248	-1.102397	-0.730118
N90	N	2.386248	-0.602397	-0.230118
H91	H	1.973266	-1.085952	-0.712836
H92	H	2.473266	-0.585952	-0.212836
H93	H	1.869438	-1.169240	-0.713337
H94	H	2.369438	-0.669240	-0.213337
