data_functionalizedCrystal
_audit_creation_method	'MofGen! by Chris Wilmer'
_symmetry_space_group_name_H-M	'P1'
_symmetry_Int_Tables_number	1
_symmetry_cell_setting	triclinic
loop_
_symmetry_equiv_pos_as_xyz
  x,y,z
_cell_length_a	13.262533
_cell_length_b	13.101039
_cell_length_c	14.044190
_cell_angle_alpha	93.663707
_cell_angle_beta	91.351948
_cell_angle_gamma	77.491930
loop_
_atom_site_label
_atom_site_type_symbol
_atom_site_fract_x
_atom_site_fract_y
_atom_site_fract_z
O1	O	1.385909	-0.301029	-0.146142
O2	O	1.086809	-0.217666	-0.154929
O3	O	1.231864	-0.258115	-0.012457
O4	O	1.240854	-0.260580	-0.288613
O5	O	1.221458	-0.425643	-0.022696
O6	O	1.076403	-0.385194	-0.165168
O7	O	1.375503	-0.468557	-0.156381
Zn8	Zn	1.224301	-0.453474	-0.162400
Zn9	Zn	1.238011	-0.232749	-0.148909
O10	O	1.230448	-0.428108	-0.298853
C11	C	1.043096	-0.290697	-0.158613
C12	C	0.928348	-0.258716	-0.154326
C13	C	0.582196	-0.533847	-0.164581
C14	C	0.690007	-0.563899	-0.168614
C15	C	0.749597	-0.487606	-0.165042
C16	C	0.701366	-0.381255	-0.157437
C17	C	0.593545	-0.351200	-0.153411
C18	C	0.760946	-0.304959	-0.153872
C19	C	0.712715	-0.198608	-0.146268
C20	C	0.604904	-0.168558	-0.142242
C21	C	0.545314	-0.244851	-0.145813
C22	C	0.868768	-0.335015	-0.157898
C23	C	0.880117	-0.152367	-0.146728
C24	C	0.772306	-0.122315	-0.142696
N25	N	1.214951	-0.604116	-0.171607
C26	C	1.202232	-0.809611	-0.184142
C27	C	1.260085	-0.876619	-0.127163
C28	C	1.253007	-0.990964	-0.134138
C29	C	1.209308	-0.695256	-0.177169
C30	C	1.419216	-0.395524	-0.152696
C31	C	1.533965	-0.427498	-0.156983
C32	C	1.222730	-0.340786	0.017821
C33	C	1.211003	-0.337527	0.123293
N34	N	1.247368	-0.082109	-0.139695
C35	C	1.239582	-0.345435	-0.329130
C36	C	1.251310	-0.348688	-0.434602
C37	C	1.272735	-0.354692	0.372281
C38	C	1.189583	-0.331524	0.316404
C39	C	1.201504	-0.334864	0.208947
C40	C	1.260815	-0.351351	0.479748
H41	H	0.837381	-0.512081	-0.168326
Cl42	Cl	1.065848	-0.297036	0.367138
Cl43	Cl	1.117564	-0.853623	-0.267542
H44	H	0.733021	-0.035722	-0.136505
H45	H	0.908026	-0.421606	-0.164092
Cl46	Cl	0.750632	-0.697591	-0.178177
H47	H	0.565638	-0.081960	-0.136060
Cl48	Cl	0.507278	-0.629745	-0.169083
H49	H	1.352870	-0.377037	0.339419
H50	H	0.457525	-0.220388	-0.142521
H51	H	0.928635	-0.090243	-0.143823
H52	H	1.314930	-0.848111	-0.073145
