data_functionalizedCrystal
_audit_creation_method	'MofGen! by Chris Wilmer'
_symmetry_space_group_name_H-M	'P1'
_symmetry_Int_Tables_number	1
_symmetry_cell_setting	triclinic
loop_
_symmetry_equiv_pos_as_xyz
  x,y,z
_cell_length_a	15.944493
_cell_length_b	19.188924
_cell_length_c	14.421503
_cell_angle_alpha	90.002214
_cell_angle_beta	89.992936
_cell_angle_gamma	83.308504
loop_
_atom_site_label
_atom_site_type_symbol
_atom_site_fract_x
_atom_site_fract_y
_atom_site_fract_z
O1	O	1.114221	0.089846	-0.077104
O2	O	1.614221	0.589846	0.422896
O3	O	0.869622	0.100990	-0.077109
O4	O	1.369622	0.600990	0.422891
O5	O	0.998983	-0.006221	-0.077095
O6	O	1.498983	0.493779	0.422905
O7	O	0.984860	0.197057	-0.077117
O8	O	1.484860	0.697057	0.422883
O9	O	0.998962	-0.006205	0.077128
O10	O	1.498962	0.493795	0.577128
O11	O	0.869601	0.101006	0.077115
O12	O	1.369601	0.601006	0.577115
O13	O	1.114199	0.089862	0.077120
O14	O	1.614199	0.589862	0.577120
Cu15	Cu	0.991898	0.095435	0.091199
Cu16	Cu	1.491898	0.595435	0.591199
Cu17	Cu	0.991924	0.095416	-0.091188
Cu18	Cu	1.491924	0.595416	0.408812
O19	O	0.984839	0.197073	0.077106
O20	O	1.484839	0.697073	0.577106
C21	C	0.838319	0.100543	0.000002
C22	C	1.338319	0.600543	0.500002
C23	C	0.745075	0.099177	0.000001
C24	C	1.245075	0.599177	0.500001
C25	C	0.509077	0.162284	-0.000007
C26	C	1.009077	0.662284	0.499993
C27	C	0.458637	0.128261	0.076041
C28	C	0.958637	0.628261	0.576041
C29	C	0.574364	0.096647	0.000003
C30	C	1.074364	0.596647	0.500003
C31	C	0.458662	0.128229	-0.076011
C32	C	0.958662	0.628229	0.423989
C33	C	0.409463	0.094207	0.000001
C34	C	0.909463	0.594207	0.500001
C35	C	0.525151	0.062641	0.076114
C36	C	1.025151	0.562641	0.576114
C37	C	0.525180	0.062620	-0.076007
C38	C	1.025180	0.562620	0.423993
C39	C	0.474773	0.028548	0.000060
C40	C	0.974773	0.528548	0.500060
C41	C	0.669358	0.098054	0.000005
C42	C	1.169358	0.598054	0.500005
C43	C	0.314472	0.092795	0.000006
C44	C	0.814472	0.592795	0.500006
C45	C	0.998516	-0.032225	0.000017
C46	C	1.498516	0.467775	0.500017
C47	C	0.997146	-0.109733	0.000020
C48	C	1.497146	0.390267	0.500020
C49	C	0.996518	-0.146142	-0.084048
C50	C	1.496518	0.353858	0.415952
C51	C	0.995219	-0.218968	-0.084055
C52	C	1.495219	0.281032	0.415945
C53	C	0.994565	-0.255384	0.000011
C54	C	1.494565	0.244616	0.500011
C55	C	0.995188	-0.218966	0.084089
C56	C	1.495188	0.281034	0.584089
C57	C	0.996478	-0.146140	0.084094
C58	C	1.496478	0.353860	0.584094
N59	N	1.040330	-0.374930	0.062579
N60	N	1.540330	0.125070	0.562579
N61	N	1.039106	-0.444112	0.062569
N62	N	1.539106	0.055888	0.562569
C63	C	0.990674	-0.474803	0.000002
C64	C	1.490674	0.025197	0.500002
N65	N	0.943523	-0.433700	-0.062570
N66	N	1.443523	0.066300	0.437430
N67	N	0.944751	-0.364513	-0.062562
N68	N	1.444751	0.135487	0.437438
C69	C	0.993164	-0.334351	0.000015
C70	C	1.493164	0.165649	0.500015
C71	C	0.988636	-0.590178	-0.084079
C72	C	1.488636	-0.090178	0.415921
C73	C	0.987332	-0.663004	-0.084083
C74	C	1.487332	-0.163004	0.415917
C75	C	0.987309	-0.663001	0.084063
C76	C	1.487309	-0.163001	0.584063
C77	C	0.988605	-0.590175	0.084064
C78	C	1.488605	-0.090175	0.584064
C79	C	0.989272	-0.553768	-0.000010
C80	C	1.489272	-0.053768	0.499990
C81	C	1.145503	0.090309	0.000007
C82	C	1.645503	0.590309	0.500007
C83	C	1.238747	0.091675	0.000002
C84	C	1.738747	0.591675	0.500002
C85	C	0.985306	0.223077	-0.000008
C86	C	1.485306	0.723077	0.499992
C87	C	0.986676	0.300585	-0.000017
C88	C	1.486676	0.800585	0.499983
N89	N	0.991887	0.095448	0.219480
N90	N	1.491887	0.595448	0.719480
N91	N	0.991942	0.095398	-0.219469
N92	N	1.491942	0.595398	0.280531
C93	C	0.932060	0.145000	0.469128
C94	C	1.432060	0.645000	0.969128
C95	C	1.007911	0.158542	0.530930
C96	C	1.507911	0.658542	1.030930
C97	C	0.991907	0.095432	0.408642
C98	C	1.491907	0.595432	0.908642
C99	C	0.916076	0.081906	0.530933
C100	C	1.416076	0.581906	1.030933
C101	C	0.991920	0.095417	0.591363
C102	C	1.491920	0.595417	1.091363
C103	C	1.067796	0.109005	0.469083
C104	C	1.567796	0.609005	0.969083
C105	C	0.975911	0.032341	0.469081
C106	C	1.475911	0.532341	0.969081
C107	C	1.051817	0.045856	0.530856
C108	C	1.551817	0.545856	1.030856
C109	C	0.991898	0.095442	0.303381
C110	C	1.491898	0.595442	0.803381
C111	C	0.991937	0.095406	0.696622
C112	C	1.491937	0.595406	1.196622
H113	H	0.429586	0.155987	0.140327
H114	H	0.929586	0.655987	0.640327
N115	N	1.118928	-0.009682	0.566546
N116	N	1.618928	0.490318	1.066546
H117	H	1.149593	-0.034511	0.512459
H118	H	1.649593	0.465489	1.012459
H119	H	1.160423	0.013098	0.605999
H120	H	1.660423	0.513098	1.105999
H121	H	0.459520	-0.028034	0.000110
H122	H	0.959520	0.471966	0.500110
N123	N	0.986675	-0.702298	-0.174747
N124	N	1.486675	-0.202298	0.325253
H125	H	1.038204	-0.738179	-0.178452
H126	H	1.538204	-0.238179	0.321548
H127	H	0.934052	-0.726807	-0.178446
H128	H	1.434052	-0.226807	0.321554
H129	H	0.554075	0.034945	0.140470
H130	H	1.054075	0.534945	0.640470
H131	H	0.554240	0.034914	-0.140296
H132	H	1.054240	0.534914	0.359704
H133	H	0.986769	-0.692649	0.152511
H134	H	1.486769	-0.192649	0.652511
H135	H	0.851941	0.070473	0.558103
H136	H	1.351941	0.570473	1.058103
N137	N	0.529494	0.237174	0.000069
N138	N	1.029494	0.737174	0.500069
H139	H	0.505148	0.261893	0.057561
H140	H	1.005148	0.761893	0.557561
H141	H	0.592782	0.237532	-0.000560
H142	H	1.092782	0.737532	0.499440
N143	N	0.420108	0.164973	-0.161102
N144	N	0.920108	0.664973	0.338898
H145	H	0.432259	0.215467	-0.161015
H146	H	0.932259	0.715467	0.338985
H147	H	0.445199	0.140687	-0.218548
H148	H	0.945199	0.640687	0.281452
N149	N	1.025841	0.229206	0.566924
N150	N	1.525841	0.729206	1.066924
H151	H	1.026257	0.228534	0.636951
H152	H	1.526257	0.728534	1.136951
H153	H	1.082672	0.239766	0.543393
H154	H	1.582672	0.739766	1.043393
H155	H	0.997060	-0.116504	-0.152507
H156	H	1.497060	0.383496	0.347493
N157	N	0.994536	-0.258250	-0.174730
N158	N	1.494536	0.241750	0.325270
H159	H	0.995152	-0.224135	-0.227989
H160	H	1.495152	0.275865	0.272011
H161	H	1.046062	-0.294134	-0.178387
H162	H	1.546062	0.205866	0.321613
H163	H	0.996986	-0.116496	0.152554
H164	H	1.496986	0.383504	0.652554
N165	N	0.994487	-0.258238	0.174761
N166	N	1.494487	0.241762	0.674761
H167	H	0.993580	-0.309899	0.162002
H168	H	1.493580	0.190101	0.662002
H169	H	1.046770	-0.251171	0.211469
H170	H	1.546770	0.248829	0.711469
N171	N	0.865087	0.200560	0.433207
N172	N	1.365087	0.700560	0.933207
H173	H	0.807908	0.190836	0.456673
H174	H	1.307908	0.690836	0.956673
H175	H	0.877360	0.248173	0.455711
H176	H	1.377360	0.748173	0.955711
H177	H	0.989175	-0.560533	-0.152537
H178	H	1.489175	-0.060533	0.347463
H179	H	0.989123	-0.560531	0.152521
H180	H	1.489123	-0.060531	0.652521
N181	N	1.152772	0.124231	0.433259
N182	N	1.652772	0.624231	0.933259
H183	H	1.152236	0.124163	0.363228
H184	H	1.652236	0.624163	0.863228
H185	H	1.164949	0.171709	0.456371
H186	H	1.664949	0.671709	0.956371
H187	H	0.962346	-0.020990	0.441893
H188	H	1.462346	0.479010	0.941893
