data_functionalizedCrystal
_audit_creation_method	'MofGen! by Chris Wilmer'
_symmetry_space_group_name_H-M	'P1'
_symmetry_Int_Tables_number	1
_symmetry_cell_setting	triclinic
loop_
_symmetry_equiv_pos_as_xyz
  x,y,z
_cell_length_a	16.120490
_cell_length_b	16.120484
_cell_length_c	13.897441
_cell_angle_alpha	92.865635
_cell_angle_beta	87.082329
_cell_angle_gamma	90.164100
loop_
_atom_site_label
_atom_site_type_symbol
_atom_site_fract_x
_atom_site_fract_y
_atom_site_fract_z
Zn1	Zn	1.254497	-0.395643	-0.642066
Zn2	Zn	1.247335	-0.534710	-0.488495
Zn3	Zn	1.115431	-0.388611	-0.472224
Zn4	Zn	1.108349	-0.527588	-0.641187
O5	O	1.181403	-0.461638	-0.560993
O6	O	1.369913	-0.420014	-0.628872
O7	O	1.229804	-0.515368	-0.351355
O8	O	1.139839	-0.273181	-0.488312
O9	O	1.364651	-0.522186	-0.516044
O10	O	1.242011	-0.278348	-0.613094
O11	O	1.132894	-0.408029	-0.339401
O12	O	0.998125	-0.401123	-0.487460
O13	O	1.127770	-0.510047	-0.776285
O14	O	0.992923	-0.503229	-0.611596
O15	O	1.235144	-0.413108	-0.776931
O16	O	1.222937	-0.650128	-0.515192
O17	O	1.120825	-0.644895	-0.627374
C18	C	0.965352	-0.450641	-0.547667
C19	C	0.872923	-0.445956	-0.541991
C20	C	1.170358	-0.677684	-0.572975
C21	C	1.165709	-0.770114	-0.578139
C22	C	0.659955	-0.485932	-0.590440
C23	C	0.703699	-0.437411	-0.531626
C24	C	0.797864	-0.442167	-0.537395
C25	C	0.565781	-0.481177	-0.584672
C26	C	1.157226	-0.939344	-0.587585
C27	C	1.205729	-0.983100	-0.534426
C28	C	1.201009	-1.077265	-0.539682
C29	C	1.161945	-0.845170	-0.582330
C30	C	1.398298	-0.472679	-0.574371
C31	C	1.490726	-0.477384	-0.580072
C32	C	1.181466	-0.461568	-0.812586
C33	C	1.181492	-0.461538	-0.919799
C34	C	1.192514	-0.244749	-0.548986
C35	C	1.197249	-0.152324	-0.543869
C36	C	1.181518	-0.461482	-1.116093
C37	C	1.181501	-0.461515	-1.006861
C38	C	1.181391	-0.461651	-0.310379
C39	C	1.181538	-0.461455	-0.203162
H40	H	0.670430	-0.392299	-0.476941
H41	H	0.693222	-0.531041	-0.645120
H42	H	1.250798	-0.949840	-0.484966
H43	H	1.112159	-0.972601	-0.637039
