data_functionalizedCrystal
_audit_creation_method	'MofGen! by Chris Wilmer'
_symmetry_space_group_name_H-M	'P1'
_symmetry_Int_Tables_number	1
_symmetry_cell_setting	triclinic
loop_
_symmetry_equiv_pos_as_xyz
  x,y,z
_cell_length_a	15.995350
_cell_length_b	12.837943
_cell_length_c	11.295660
_cell_angle_alpha	85.469976
_cell_angle_beta	85.901111
_cell_angle_gamma	90.839343
loop_
_atom_site_label
_atom_site_type_symbol
_atom_site_fract_x
_atom_site_fract_y
_atom_site_fract_z
O1	O	0.222745	-1.368477	-0.098990
O2	O	0.722745	-0.868477	0.401010
O3	O	0.211993	-1.066671	-0.098997
O4	O	0.711993	-0.566671	0.401003
O5	O	0.096139	-1.225824	-0.098992
O6	O	0.596139	-0.725824	0.401008
O7	O	0.338598	-1.209324	-0.098995
O8	O	0.838598	-0.709324	0.401005
O9	O	0.085980	-1.239769	0.099053
O10	O	0.585980	-0.739769	0.599053
O11	O	0.201833	-1.080615	0.099048
O12	O	0.701833	-0.580615	0.599048
O13	O	0.212585	-1.382422	0.099056
O14	O	0.712585	-0.882422	0.599056
Cu15	Cu	0.206281	-1.232792	0.117135
Cu16	Cu	0.706281	-0.732792	0.617135
Cu17	Cu	0.218296	-1.216301	-0.117077
Cu18	Cu	0.718296	-0.716301	0.382923
O19	O	0.328439	-1.223268	0.099050
O20	O	0.828439	-0.723268	0.599050
C21	C	0.059810	-1.232114	0.000028
C22	C	0.559810	-0.732114	0.500028
C23	C	-0.033303	-1.230069	0.000021
C24	C	0.466697	-0.730069	0.500021
C25	C	0.203281	-1.035023	0.000024
C26	C	0.703281	-0.535023	0.500024
C27	C	0.192447	-0.919945	0.000021
C28	C	0.692447	-0.419945	0.500021
N29	N	0.197831	-1.244398	0.281866
N30	N	0.697831	-0.744398	0.781866
C31	C	-0.371637	-1.222725	0.000025
C32	C	0.128363	-0.722725	0.500025
C33	C	-0.333223	-1.109347	-0.000422
C34	C	0.166777	-0.609347	0.499578
C35	C	-0.236392	-1.111424	0.000025
C36	C	0.263608	-0.611424	0.500025
C37	C	-0.203785	-1.226367	0.000023
C38	C	0.296215	-0.726367	0.500023
C39	C	-0.246204	-1.290236	0.113115
C40	C	0.253796	-0.790236	0.613115
C41	C	-0.343072	-1.287396	0.113210
C42	C	0.156928	-0.787396	0.613210
C43	C	-0.331689	-1.273880	-0.112004
C44	C	0.168311	-0.773880	0.387996
C45	C	-0.234669	-1.273748	-0.113499
C46	C	0.265331	-0.773748	0.386501
C47	C	-0.108923	-1.228432	0.000025
C48	C	0.391077	-0.728432	0.500025
C49	C	-0.466499	-1.220663	0.000031
C50	C	0.033501	-0.720663	0.500031
C51	C	0.364768	-1.216978	0.000027
C52	C	0.864768	-0.716978	0.500027
C53	C	0.457881	-1.219023	0.000026
C54	C	0.957881	-0.719023	0.500026
C55	C	0.221297	-1.414070	0.000031
C56	C	0.721297	-0.914070	0.500031
C57	C	0.232131	-1.529147	0.000027
C58	C	0.732131	-1.029147	0.500027
C59	C	0.322684	-0.678988	0.000037
C60	C	0.822684	-0.178988	0.500037
C61	C	0.312509	-0.570862	0.000035
C62	C	0.812509	-0.070862	0.500035
C63	C	0.161923	-0.595566	0.000024
C64	C	0.661923	-0.095566	0.500024
C65	C	0.172098	-0.703692	0.000026
C66	C	0.672098	-0.203692	0.500026
C67	C	0.252481	-0.745399	0.000031
C68	C	0.752481	-0.245399	0.500031
C69	C	0.262656	-0.853526	0.000024
C70	C	0.762656	-0.353526	0.500024
C71	C	0.112069	-0.878228	0.000021
C72	C	0.612069	-0.378228	0.500021
C73	C	0.101894	-0.770102	0.000019
C74	C	0.601894	-0.270102	0.500019
C75	C	0.287618	-1.121019	0.531205
C76	C	0.787618	-0.621019	1.031205
C77	C	0.281225	-1.129814	0.655866
C78	C	0.781225	-0.629814	1.155866
C79	C	0.178659	-1.270787	0.655849
C80	C	0.678659	-0.770787	1.155849
C81	C	0.185051	-1.261992	0.531189
C82	C	0.685051	-0.761992	1.031189
C83	C	0.239531	-1.187105	0.468872
C84	C	0.739531	-0.687105	0.968872
C85	C	0.245919	-1.178306	0.344209
C86	C	0.745919	-0.678306	0.844209
C87	C	0.143357	-1.319283	0.344195
C88	C	0.643357	-0.819283	0.844195
C89	C	0.136965	-1.328078	0.468855
C90	C	0.636965	-0.828078	0.968855
N91	N	0.226747	-1.204695	0.718192
N92	N	0.726747	-0.704695	1.218192
H93	H	-0.207318	-1.061770	-0.081045
H94	H	0.292682	-0.561770	0.418955
H95	H	-0.356743	-1.357395	-0.112766
H96	H	0.143257	-0.857395	0.387234
F97	F	-0.205387	-1.382679	-0.122434
F98	F	0.294613	-0.882679	0.377566
F99	F	0.092174	-1.389614	0.277843
F100	F	0.592174	-0.889614	0.777843
F101	F	0.016349	-0.725703	0.000018
F102	F	0.516349	-0.225703	0.500018
F103	F	0.332407	-1.059479	0.722202
F104	F	0.832407	-0.559479	1.222202
F105	F	-0.219218	-1.401001	0.118615
F106	F	0.280782	-0.901001	0.618615
F107	F	0.078989	-1.407777	0.535188
F108	F	0.578989	-0.907777	1.035188
F109	F	-0.369223	-1.057645	0.104700
F110	F	0.130777	-0.557645	0.604700
F111	F	-0.356730	-1.042665	-0.106428
F112	F	0.143270	-0.542665	0.393572
F113	F	-0.210026	-1.061068	0.106164
F114	F	0.289974	-0.561068	0.606164
H115	H	0.134309	-1.331765	0.706604
H116	H	0.634309	-0.831765	1.206604
F117	F	-0.376915	-1.241887	0.223707
F118	F	0.123085	-0.741887	0.723707
H119	H	-0.368943	-1.370974	0.118340
H120	H	0.131057	-0.870974	0.618340
F121	F	0.408233	-0.723377	0.000027
F122	F	0.908233	-0.223377	0.500027
F123	F	-0.218803	-1.247230	0.223122
F124	F	0.281197	-0.747230	0.723122
F125	F	0.345590	-1.041310	0.464882
F126	F	0.845590	-0.541310	0.964882
F127	F	0.387229	-0.500186	0.000045
F128	F	0.887229	-0.000186	0.500045
H129	H	-0.350788	-1.230786	-0.197722
H130	H	0.149212	-0.730786	0.302278
H131	H	-0.206390	-1.226982	-0.197162
H132	H	0.293610	-0.726982	0.302838
H133	H	0.328108	-0.887481	0.000030
H134	H	0.828108	-0.387481	0.500030
F135	F	0.076379	-0.551161	0.000033
F136	F	0.576379	-0.051161	0.500033
F137	F	0.303898	-1.098602	0.277889
F138	F	0.803898	-0.598602	0.777889
F139	F	0.037350	-0.948915	-0.000000
F140	F	0.537350	-0.448915	0.500000
