data_functionalizedCrystal
_audit_creation_method	'MofGen! by Chris Wilmer'
_symmetry_space_group_name_H-M	'P1'
_symmetry_Int_Tables_number	1
_symmetry_cell_setting	triclinic
loop_
_symmetry_equiv_pos_as_xyz
  x,y,z
_cell_length_a	11.026607
_cell_length_b	11.792241
_cell_length_c	9.482900
_cell_angle_alpha	99.398500
_cell_angle_beta	78.636152
_cell_angle_gamma	96.389716
loop_
_atom_site_label
_atom_site_type_symbol
_atom_site_fract_x
_atom_site_fract_y
_atom_site_fract_z
O1	O	1.632118	0.461983	-0.120906
O2	O	1.278456	0.407791	-0.120907
O3	O	1.463868	0.271422	-0.120897
O4	O	1.446706	0.598353	-0.120917
O5	O	1.426207	0.299264	0.120894
O6	O	1.240795	0.435633	0.120883
O7	O	1.594458	0.489825	0.120884
Cu8	Cu	1.414188	0.465271	0.142961
Cu9	Cu	1.458726	0.432345	-0.142984
O10	O	1.409046	0.626195	0.120873
C11	C	1.214349	0.411715	-0.000012
C12	C	1.079439	0.381912	-0.000012
C13	C	1.006176	0.464202	-0.000018
C14	C	0.866739	0.433401	-0.000018
C15	C	1.443960	0.242838	-0.000002
C16	C	1.440733	0.116183	-0.000003
C17	C	1.434802	-0.115710	-0.000028
C18	C	1.438097	0.013331	-0.000014
C19	C	1.658565	0.485901	-0.000014
C20	C	1.793477	0.515703	-0.000024
C21	C	1.428955	0.654778	-0.000025
C22	C	1.432183	0.781432	-0.000033
N23	N	1.382871	0.488431	0.344079
N24	N	1.490052	0.409178	-0.344102
C25	C	1.449480	0.439169	0.416282
C26	C	1.423433	0.458448	0.583698
H27	H	1.038939	0.288655	-0.000043
H28	H	1.046680	0.557456	-0.000015
C29	C	0.789884	0.710106	0.124253
C30	C	0.848149	0.641599	-0.000036
H31	H	0.823647	0.787825	0.124245
H32	H	0.703365	0.705931	0.124241
H33	H	0.803147	0.683033	0.208566
H34	H	0.834879	0.668668	-0.084349
H35	H	0.934689	0.645780	-0.000037
C36	C	1.526323	0.251402	0.369037
C37	C	1.552504	0.362982	0.332388
H38	H	1.589926	0.204373	0.317227
H39	H	1.522364	0.254344	0.470522
H40	H	1.448928	0.219809	0.344190
H41	H	1.629894	0.394578	0.357245
H42	H	1.556476	0.360043	0.230880
H43	H	0.826244	0.340138	-0.000049
C44	C	1.206344	0.488056	0.630897
C45	C	1.320406	0.534654	0.667550
H46	H	1.142741	0.535099	0.682673
H47	H	1.210339	0.485109	0.529404
H48	H	1.188588	0.412364	0.655781
H49	H	1.338166	0.610343	0.642656
H50	H	1.316412	0.537615	0.769065
H51	H	1.566362	0.352721	0.593777
H52	H	1.306557	0.544875	0.406205
