data_functionalizedCrystal
_audit_creation_method	'MofGen! by Chris Wilmer'
_symmetry_space_group_name_H-M	'P1'
_symmetry_Int_Tables_number	1
_symmetry_cell_setting	triclinic
loop_
_symmetry_equiv_pos_as_xyz
  x,y,z
_cell_length_a	6.817900
_cell_length_b	10.943624
_cell_length_c	17.253917
_cell_angle_alpha	97.444049
_cell_angle_beta	102.659311
_cell_angle_gamma	108.838799
loop_
_atom_site_label
_atom_site_type_symbol
_atom_site_fract_x
_atom_site_fract_y
_atom_site_fract_z
V1	V	-4.091005	-0.414803	-0.111272
O2	O	-4.074386	-0.394297	0.005369
O3	O	-4.044882	-0.424093	-0.220655
O4	O	-4.069347	-0.590180	-0.109551
O5	O	-4.049751	-0.227061	-0.106504
V6	V	-4.570873	-0.390874	-0.097322
O7	O	-4.360282	-0.467292	-0.141874
O8	O	-4.751794	-0.338385	-0.066720
O9	O	-4.393790	-0.381584	0.012061
O10	O	-4.704890	-0.411380	-0.213963
O11	O	-4.729524	-0.578616	-0.102090
O12	O	-4.369325	-0.215497	-0.099043
C13	C	-3.889571	-0.420679	-0.247321
C14	C	-3.933325	-0.429444	-0.336743
C15	C	-3.895303	-0.314064	-0.367272
C16	C	-3.936434	-0.322304	-0.451294
C17	C	-4.015574	-0.445925	-0.504785
C18	C	-4.053604	-0.561314	-0.474251
C19	C	-4.012487	-0.553073	-0.390231
C20	C	-4.144841	-0.483386	-0.757302
C21	C	-4.185951	-0.491618	-0.841327
C22	C	-4.068782	-0.252608	-0.818365
C23	C	-4.027657	-0.244377	-0.734343
C24	C	-4.065701	-0.359766	-0.703817
N25	N	-4.057612	-0.454351	-0.590669
N26	N	-4.023677	-0.351340	-0.617934
C27	C	-3.920777	-0.632537	-0.105595
C28	C	-3.984368	-0.775988	-0.104912
C29	C	-3.830211	-0.852629	-0.100310
C30	C	-4.004534	-0.966141	-0.168622
C31	C	-3.923376	-0.918084	-0.035390
C32	C	-4.157888	-0.887630	-0.173289
C33	C	-4.076662	-0.839544	-0.039995
C34	C	-4.251118	-0.953028	-0.108327
C35	C	-4.212442	-0.384995	0.038722
C36	C	-4.147928	-0.376238	0.128143
C37	C	-4.181236	-0.173133	-0.103001
C38	C	-4.096884	-0.029681	-0.103681
H39	H	-4.043472	-0.647028	-0.365376
H40	H	-4.106409	-0.784572	0.014386
H41	H	-4.256430	-0.873510	-0.231633
H42	H	-3.824850	-0.932431	0.022877
H43	H	-3.974704	-1.021077	-0.223001
O44	O	-4.464043	-1.005080	-0.112241
C45	C	-4.728497	-1.114739	-0.046894
C46	C	-4.487289	-1.055805	-0.042345
H47	H	-4.747372	-1.155790	0.009601
H48	H	-4.800704	-1.034363	-0.050212
H49	H	-4.816004	-1.197783	-0.103477
H50	H	-4.399603	-0.972777	0.014234
H51	H	-4.415247	-1.136259	-0.039072
O52	O	-4.182140	-0.595578	-0.727763
C53	C	-4.443850	-0.803863	-0.725555
C54	C	-4.401896	-0.676873	-0.759083
H55	H	-4.621526	-0.869613	-0.750850
H56	H	-4.340315	-0.859212	-0.744623
H57	H	-4.400775	-0.776726	-0.656314
H58	H	-4.444988	-0.703895	-0.828325
H59	H	-4.505405	-0.621558	-0.739953
O60	O	-4.130843	-0.681443	-0.526187
C61	C	-4.417620	-0.894820	-0.575376
C62	C	-4.330426	-0.758814	-0.516535
H63	H	-4.578972	-0.957423	-0.567581
H64	H	-4.440644	-0.880974	-0.640692
H65	H	-4.297691	-0.946785	-0.561376
H66	H	-4.450266	-0.706776	-0.530460
H67	H	-4.307348	-0.772751	-0.451237
O68	O	-3.818531	-0.193875	-0.315429
C69	C	-3.706585	0.042322	-0.301529
C70	C	-3.793560	-0.093710	-0.360329
H71	H	-3.686326	0.123343	-0.337807
H72	H	-3.825066	0.046942	-0.264780
H73	H	-3.543812	0.057388	-0.258458
H74	H	-3.956303	-0.108865	-0.403451
H75	H	-3.674934	-0.098266	-0.397020
H76	H	-3.905475	-0.228350	-0.476146
O77	O	-3.617301	-0.800121	-0.096340
C78	C	-3.318004	-0.604958	-0.091929
C79	C	-3.559120	-0.664247	-0.096401
H80	H	-3.270901	-0.495102	-0.091994
H81	H	-3.217537	-0.618205	-0.033705
H82	H	-3.287109	-0.657712	-0.146842
H83	H	-3.590219	-0.611533	-0.041530
H84	H	-3.659463	-0.651018	-0.154660
O85	O	-3.950851	-0.124188	-0.682499
C86	C	-3.838783	0.112015	-0.668588
C87	C	-3.925847	-0.024017	-0.727394
H88	H	-3.818498	0.193041	-0.704862
H89	H	-3.957226	0.116663	-0.631826
H90	H	-3.676011	0.127046	-0.625530
H91	H	-4.088589	-0.039137	-0.770503
H92	H	-3.807260	-0.028601	-0.764099
O93	O	-4.263113	-0.611644	-0.893380
C94	C	-4.551698	-0.766214	-1.005438
C95	C	-4.464554	-0.630253	-0.946551
H96	H	-4.714595	-0.781314	-1.048430
H97	H	-4.433350	-0.770779	-1.042260
H98	H	-4.571719	-0.847249	-0.969173
H99	H	-4.444540	-0.549139	-0.982753
H100	H	-4.582940	-0.625801	-0.909728
H101	H	-4.037816	-0.158665	-0.843229
