data_functionalizedCrystal
_audit_creation_method	'MofGen! by Chris Wilmer'
_symmetry_space_group_name_H-M	'P1'
_symmetry_Int_Tables_number	1
_symmetry_cell_setting	triclinic
loop_
_symmetry_equiv_pos_as_xyz
  x,y,z
_cell_length_a	27.732048
_cell_length_b	10.654550
_cell_length_c	9.730223
_cell_angle_alpha	90.000193
_cell_angle_beta	89.997335
_cell_angle_gamma	96.436221
loop_
_atom_site_label
_atom_site_type_symbol
_atom_site_fract_x
_atom_site_fract_y
_atom_site_fract_z
O1	O	0.641855	-0.149411	-0.114365
O2	O	0.501203	-0.172130	-0.114350
O3	O	0.574763	0.022105	-0.114353
O4	O	0.568295	-0.343646	-0.114362
O5	O	0.574762	0.022100	0.114227
O6	O	0.501202	-0.172135	0.114230
O7	O	0.641854	-0.149416	0.114215
Zn8	Zn	0.571528	-0.160776	0.150515
Zn9	Zn	0.571529	-0.160770	-0.150649
O10	O	0.568294	-0.343651	0.114218
C11	C	0.574287	0.068880	-0.000064
C12	C	0.572867	0.208264	-0.000069
C13	C	0.483193	-0.171655	-0.000058
C14	C	0.429529	-0.170219	-0.000052
C15	C	0.659864	-0.149890	-0.000080
C16	C	0.713528	-0.151326	-0.000094
C17	C	1.051685	-0.045587	-0.000044
C18	C	1.253378	-0.050915	-0.000040
O19	O	1.284031	0.045776	0.000021
N20	N	1.273219	-0.166088	-0.000047
C21	C	1.242633	-0.279937	-0.000046
O22	O	1.264137	-0.378021	-0.000038
C23	C	1.040941	-0.274608	-0.000041
C24	C	1.021103	-0.159427	-0.000048
C25	C	1.031846	0.069584	-0.000050
C26	C	0.981426	0.070915	-0.000058
C27	C	0.950844	-0.042925	-0.000061
C28	C	0.970683	-0.158097	-0.000056
C29	C	1.010356	-0.388456	-0.000030
C30	C	0.959931	-0.387113	-0.000025
C31	C	0.940093	-0.271933	-0.000032
C32	C	0.889681	-0.270606	-0.000068
N33	N	0.869840	-0.155433	-0.000061
C34	C	0.900422	-0.041593	-0.000058
C35	C	1.348524	-0.282727	-0.000052
C36	C	1.398947	-0.284060	-0.000056
C37	C	1.409688	-0.055037	-0.000047
C38	C	1.359265	-0.053706	-0.000053
C39	C	1.328683	-0.167554	-0.000045
C40	C	0.794535	-0.038807	-0.000077
C41	C	0.744110	-0.037486	-0.000091
C42	C	0.733373	-0.266508	-0.000093
C43	C	0.783794	-0.267830	-0.000086
C44	C	0.814374	-0.153969	-0.000073
O45	O	0.858999	-0.367246	-0.000114
O46	O	0.878908	0.056477	-0.000035
C47	C	1.102105	-0.046918	-0.000036
C48	C	1.121943	-0.162089	-0.000030
C49	C	1.091362	-0.275929	-0.000034
C50	C	1.172366	-0.163422	-0.000034
C51	C	1.202948	-0.049581	-0.000031
C52	C	1.183107	0.065592	-0.000024
C53	C	1.132687	0.066923	-0.000033
C54	C	1.111203	-0.391102	-0.000041
C55	C	1.161623	-0.392424	-0.000034
C56	C	1.192205	-0.278584	-0.000030
C57	C	0.568769	-0.390426	-0.000074
C58	C	0.570190	-0.529810	-0.000078
N59	N	0.571531	-0.160780	0.356051
C60	C	0.616177	0.289570	-0.000069
C61	C	0.614840	0.420535	-0.000079
C62	C	0.526876	0.388874	-0.000082
C63	C	0.528215	0.257912	-0.000082
C64	C	0.660830	0.239922	-0.000056
C65	C	0.704144	0.321230	-0.000055
C66	C	0.702806	0.452195	-0.000064
C67	C	0.658154	0.501852	-0.000075
N68	N	0.571530	-0.160756	-0.356186
C69	C	0.604111	-0.074801	0.427976
C70	C	0.604110	-0.074786	0.571859
C71	C	0.538946	-0.246739	0.571879
C72	C	0.538945	-0.246747	0.427999
C73	C	0.636697	0.011166	0.356028
C74	C	0.669281	0.097151	0.427953
C75	C	0.669279	0.097166	0.571836
C76	C	0.636694	0.011197	0.643794
H77	H	0.727961	0.056312	-0.000100
H78	H	0.636702	0.011159	0.238871
H79	H	1.177770	-0.486225	-0.000038
C80	C	1.314891	-0.407978	-0.000038
N81	N	1.289560	-0.502319	-0.000029
H82	H	0.490522	0.429315	-0.000088
C83	C	0.705116	0.191728	0.348797
N84	N	0.732106	0.262969	0.289178
H85	H	1.026499	-0.482248	-0.000030
H86	H	0.492947	0.191709	-0.000080
C87	C	0.705115	0.191766	0.650949
N88	N	0.732108	0.263023	0.710535
H89	H	1.056741	0.162292	-0.000043
C90	C	1.337448	0.073000	-0.000045
N91	N	1.321018	0.168441	-0.000032
H92	H	0.636693	0.011225	0.760953
H93	H	0.935033	-0.479825	-0.000012
H94	H	0.819428	0.053910	-0.000067
C95	C	1.216757	0.190817	-0.000013
N96	N	1.242104	0.285130	0.000007
C97	C	0.656685	0.645918	-0.000093
N98	N	0.655579	0.754428	-0.000100
C99	C	0.503105	-0.341300	0.651039
N100	N	0.476110	-0.412526	0.710662
H101	H	0.965279	0.164707	-0.000058
C102	C	1.420763	-0.410767	-0.000059
N103	N	1.437192	-0.506208	-0.000051
C104	C	0.503094	-0.341301	0.348877
N105	N	0.476085	-0.412508	0.289282
C106	C	0.662305	0.095860	-0.000046
N107	N	0.663416	-0.012647	-0.000036
H108	H	1.434597	0.037656	-0.000049
C109	C	0.805616	-0.394533	-0.000093
N110	N	0.822049	-0.489969	-0.000087
H111	H	0.708464	-0.359194	-0.000102
H112	H	1.116540	0.160714	-0.000038
C113	C	1.077569	-0.516344	-0.000036
N114	N	1.052238	-0.610683	-0.000036
H115	H	0.740498	0.280791	-0.000081
H116	H	0.738075	0.518393	-0.000078
