data_functionalizedCrystal
_audit_creation_method	'MofGen! by Chris Wilmer'
_symmetry_space_group_name_H-M	'P1'
_symmetry_Int_Tables_number	1
_symmetry_cell_setting	triclinic
loop_
_symmetry_equiv_pos_as_xyz
  x,y,z
_cell_length_a	8.559649
_cell_length_b	16.109301
_cell_length_c	14.586319
_cell_angle_alpha	90.005214
_cell_angle_beta	90.003180
_cell_angle_gamma	76.620073
loop_
_atom_site_label
_atom_site_type_symbol
_atom_site_fract_x
_atom_site_fract_y
_atom_site_fract_z
O1	O	-2.120141	0.028207	-0.076224
O2	O	-1.654914	-0.014732	-0.076230
O3	O	-1.900308	0.128583	-0.076218
O4	O	-1.874747	-0.115108	-0.076237
O5	O	-1.900291	0.128584	0.076263
O6	O	-1.654897	-0.014731	0.076250
O7	O	-2.120124	0.028208	0.076257
Cu8	Cu	-1.887509	0.006738	0.090176
Cu9	Cu	-1.887529	0.006737	-0.090150
O10	O	-1.874730	-0.115107	0.076244
C11	C	-1.595374	-0.017985	0.000009
C12	C	-1.417989	-0.027671	0.000007
C13	C	-1.899264	0.159492	0.000023
C14	C	-1.896160	0.251590	0.000024
C15	C	-2.179664	0.031461	0.000015
C16	C	-2.357049	0.041147	0.000011
C17	C	-1.875774	-0.146016	0.000001
C18	C	-1.878878	-0.238114	-0.000006
N19	N	-1.887506	0.006740	0.217008
C20	C	-2.034553	0.482679	0.000012
C21	C	-2.031624	0.569213	0.000004
C22	C	-1.740473	0.530789	0.000004
C23	C	-1.743404	0.444257	0.000005
C24	C	-1.890449	0.420205	0.000013
C25	C	-1.884589	0.593271	0.000005
C26	C	-1.881412	0.687094	-0.000003
C27	C	-1.893627	0.326376	0.000020
N28	N	-1.887544	0.006743	-0.216982
C29	C	-1.996202	0.070183	0.452020
C30	C	-1.996207	0.070186	0.548001
C31	C	-1.778837	-0.056704	0.547999
C32	C	-1.778826	-0.056702	0.452020
C33	C	-1.887518	0.006741	0.404033
C34	C	-1.887533	0.006742	0.595994
C35	C	-1.887537	0.006744	0.700061
C36	C	-1.887512	0.006741	0.299959
H37	H	-1.440580	0.107476	0.000012
O38	O	-1.597503	0.554009	-0.000039
C39	C	-1.470940	0.480309	-0.000017
H40	H	-1.515708	0.424256	-0.028885
H41	H	-1.426485	0.465205	0.073135
C42	C	-1.277281	0.564771	-0.024360
C43	C	-1.332263	0.495927	-0.059823
H44	H	-1.191734	0.574405	-0.061247
H45	H	-1.362547	0.614425	-0.024372
H46	H	-1.240247	0.552175	0.036600
H47	H	-1.369314	0.508528	-0.120777
H48	H	-1.246999	0.446275	-0.059823
O49	O	-1.318406	-0.106827	-0.000164
C50	C	-1.347450	-0.151462	-0.079125
H51	H	-1.404541	-0.103955	-0.134317
H52	H	-1.432163	-0.194235	-0.061271
C53	C	-1.117499	-0.264962	-0.047156
C54	C	-1.187607	-0.206613	-0.114946
H55	H	-1.018903	-0.298985	-0.069250
H56	H	-1.097934	-0.234892	0.006044
H57	H	-1.188109	-0.300598	-0.032283
H58	H	-1.117006	-0.170972	-0.129808
H59	H	-1.207157	-0.236678	-0.168149
H60	H	-2.154287	0.463099	0.000017
H61	H	-2.148969	0.620077	0.000001
O62	O	-1.603454	0.383533	-0.000156
C63	C	-1.596469	0.332313	-0.079117
H64	H	-1.678198	0.369291	-0.134311
H65	H	-1.637804	0.271896	-0.061263
C66	C	-1.322219	0.262608	-0.047137
C67	C	-1.422589	0.308028	-0.114930
H68	H	-1.214962	0.247624	-0.069227
H69	H	-1.326926	0.297113	0.006063
H70	H	-1.356685	0.212266	-0.032265
H71	H	-1.388136	0.358373	-0.129793
H72	H	-1.417873	0.273530	-0.168134
H73	H	-1.690313	-0.108364	0.412946
O74	O	-2.101612	0.131935	0.405466
C75	C	-2.075664	0.212574	0.428981
H76	H	-1.947725	0.204821	0.455359
H77	H	-2.164214	0.242611	0.484711
C78	C	-2.257661	0.280076	0.311353
C79	C	-2.100520	0.270556	0.343744
H80	H	-2.273000	0.315845	0.258777
H81	H	-2.275149	0.225749	0.295513
H82	H	-2.331435	0.305105	0.357803
H83	H	-2.026750	0.245518	0.297299
H84	H	-2.083021	0.324881	0.359575
O85	O	-2.101568	0.131880	0.594657
C86	C	-2.016036	0.177725	0.650202
H87	H	-1.890025	0.171122	0.621285
H88	H	-2.007653	0.151173	0.722941
C89	C	-2.258921	0.280704	0.687195
C90	C	-2.104156	0.272599	0.651674
H91	H	-2.313279	0.339225	0.688107
H92	H	-2.316547	0.249815	0.649776
H93	H	-2.251913	0.258572	0.747808
H94	H	-2.111166	0.294721	0.591059
H95	H	-2.046533	0.303493	0.689083
O96	O	-1.673423	-0.118292	0.594758
C97	C	-1.696712	-0.104681	0.689763
H98	H	-1.823764	-0.065530	0.702867
H99	H	-1.606298	-0.068731	0.717014
C100	C	-1.516614	-0.239349	0.722932
C101	C	-1.672666	-0.191269	0.739028
H102	H	-1.501775	-0.292760	0.753323
H103	H	-1.500918	-0.248518	0.658926
H104	H	-1.441287	-0.209381	0.745642
H105	H	-1.747989	-0.221232	0.716308
H106	H	-1.688374	-0.182107	0.803032
