data_functionalizedCrystal
_audit_creation_method	'MofGen! by Chris Wilmer'
_symmetry_space_group_name_H-M	'P1'
_symmetry_Int_Tables_number	1
_symmetry_cell_setting	triclinic
loop_
_symmetry_equiv_pos_as_xyz
  x,y,z
_cell_length_a	15.944486
_cell_length_b	14.421503
_cell_length_c	8.559649
_cell_angle_alpha	90.007596
_cell_angle_beta	76.625539
_cell_angle_gamma	90.009643
loop_
_atom_site_label
_atom_site_type_symbol
_atom_site_fract_x
_atom_site_fract_y
_atom_site_fract_z
O1	O	-1.101290	-0.077181	-0.205602
O2	O	-0.855086	-0.077166	-0.231118
O3	O	-0.999879	-0.077174	0.014249
O4	O	-0.956497	-0.077173	-0.450969
O5	O	-0.999867	0.077049	0.014277
O6	O	-0.855074	0.077057	-0.231090
O7	O	-1.101278	0.077042	-0.205575
Cu8	Cu	-0.978175	0.091131	-0.218330
Cu9	Cu	-0.978189	-0.091256	-0.218362
O10	O	-0.956485	0.077050	-0.450942
C11	C	-0.823852	-0.000053	-0.230063
C12	C	-0.730805	-0.000047	-0.226942
N13	N	-0.978200	-0.219537	-0.218374
C14	C	-1.003160	-0.000064	0.073794
C15	C	-1.012946	-0.000070	0.251177
C16	C	-0.430066	-0.000055	-0.369512
C17	C	-0.495884	-0.076098	-0.295422
C18	C	-0.395898	-0.000062	-0.215602
C19	C	-0.495860	0.075954	-0.295354
C20	C	-0.560448	-0.000053	-0.221182
C21	C	-0.460491	-0.076168	-0.141469
C22	C	-0.460460	0.075952	-0.141422
C23	C	-0.526268	-0.000109	-0.067220
C24	C	-0.301105	-0.000069	-0.212392
C25	C	-0.655241	-0.000054	-0.224380
C26	C	-0.132509	-0.000069	-0.206651
C27	C	-0.225547	-0.000068	-0.209838
C28	C	-1.045261	-0.469164	-0.105075
C29	C	-1.052050	-0.531002	-0.249555
C30	C	-0.978190	-0.408698	-0.218354
C31	C	-0.971431	-0.530953	-0.073855
C32	C	-0.978184	-0.591420	-0.218323
C33	C	-0.985012	-0.469176	-0.362908
C34	C	-0.904367	-0.469122	-0.187113
C35	C	-0.911116	-0.530933	-0.331697
C36	C	-0.978197	-0.303437	-0.218370
C37	C	-0.978176	-0.696679	-0.218324
N38	N	-0.978171	0.219413	-0.218306
C39	C	-0.953204	-0.000062	-0.510486
C40	C	-0.943418	-0.000062	-0.687870
H41	H	-0.388491	-0.000128	-0.497248
C42	C	-1.113399	-0.079353	0.460901
C43	C	-1.103421	-0.000075	0.363919
H44	H	-1.169256	-0.079357	0.530494
H45	H	-1.071099	-0.079337	0.522904
H46	H	-1.106623	-0.133130	0.395072
H47	H	-1.110191	0.053702	0.429748
H48	H	-1.145734	-0.000082	0.301911
C49	C	-1.115535	-0.465074	0.175049
C50	C	-1.121865	-0.432543	0.024081
H51	H	-1.162830	-0.442469	0.254775
H52	H	-1.063145	-0.443879	0.197480
H53	H	-1.116351	-0.530938	0.175283
H54	H	-1.121042	-0.366678	0.023844
H55	H	-1.174268	-0.453733	0.001645
H56	H	-0.965716	-0.558091	0.048333
H57	H	-0.511785	-0.140382	-0.360536
C58	C	-0.442549	0.215856	-0.435750
C59	C	-0.517282	0.162741	-0.383236
H60	H	-0.455774	0.269434	-0.490003
H61	H	-0.400289	0.180043	-0.506936
H62	H	-0.420910	0.234127	-0.345916
H63	H	-0.538917	0.144464	-0.473071
H64	H	-0.559556	0.198561	-0.312045
H65	H	-1.114477	-0.558183	-0.275978
H66	H	-0.990794	-0.442153	-0.485127
H67	H	-0.854384	-0.557883	-0.427585
C68	C	-0.351653	-0.162294	-0.051579
C69	C	-0.439200	-0.163056	-0.053693
H70	H	-0.338508	-0.215939	0.002596
H71	H	-0.339276	-0.108372	0.002741
H72	H	-0.317801	-0.162070	-0.158647
H73	H	-0.473052	-0.163273	0.053375
H74	H	-0.451586	-0.216993	-0.108011
C75	C	-0.860438	-0.000076	0.039598
C76	C	-0.852948	-0.000065	0.199392
H77	H	-0.804585	-0.000084	-0.030006
H78	H	-0.890889	0.053701	0.020209
H79	H	-0.890910	-0.053862	0.020215
H80	H	-0.822482	0.053725	0.218778
H81	H	-0.822485	-0.053847	0.218788
H82	H	-0.567696	-0.000150	0.060631
H83	H	-0.444536	0.140242	-0.076367
H84	H	-0.841963	-0.441921	-0.160645
