data_functionalizedCrystal
_audit_creation_method	'MofGen! by Chris Wilmer'
_symmetry_space_group_name_H-M	'P1'
_symmetry_Int_Tables_number	1
_symmetry_cell_setting	triclinic
loop_
_symmetry_equiv_pos_as_xyz
  x,y,z
_cell_length_a	23.532407
_cell_length_b	26.210047
_cell_length_c	23.532407
_cell_angle_alpha	89.990689
_cell_angle_beta	97.151322
_cell_angle_gamma	90.011087
loop_
_atom_site_label
_atom_site_type_symbol
_atom_site_fract_x
_atom_site_fract_y
_atom_site_fract_z
O1	O	0.755269	0.042370	-0.069133
O2	O	1.255269	0.542370	0.430867
O3	O	0.589406	0.042386	-0.079137
O4	O	1.089406	0.542386	0.420863
O5	O	0.677339	0.042368	0.008797
O6	O	1.177339	0.542368	0.508797
O7	O	0.667336	0.042388	-0.157067
O8	O	1.167336	0.542388	0.342933
O9	O	0.677312	-0.042490	0.008797
O10	O	1.177312	0.457510	0.508797
O11	O	0.589379	-0.042472	-0.079137
O12	O	1.089379	0.457528	0.420863
O13	O	0.755242	-0.042488	-0.069133
O14	O	1.255242	0.457512	0.430867
Cu15	Cu	0.672308	-0.050228	-0.074135
Cu16	Cu	1.172308	0.449772	0.425865
Cu17	Cu	0.672340	0.050127	-0.074135
Cu18	Cu	1.172340	0.550127	0.425865
O19	O	0.667309	-0.042470	-0.157067
O20	O	1.167309	0.457530	0.342933
C21	C	0.568176	-0.000041	-0.078882
C22	C	1.068176	0.499959	0.421118
C23	C	0.504959	-0.000035	-0.078116
C24	C	1.004959	0.499965	0.421884
N25	N	0.672289	-0.120812	-0.074135
N26	N	1.172289	0.379188	0.425865
C27	C	0.105856	-0.000053	-0.125350
C28	C	0.605856	0.499947	0.374650
C29	C	0.046456	-0.000056	-0.124638
C30	C	0.546456	0.499944	0.375362
O31	O	0.009711	-0.000069	-0.168424
O32	O	0.509711	0.499931	0.331576
N33	N	0.023830	-0.000061	-0.072362
N34	N	0.523830	0.499939	0.427638
C35	C	0.060607	-0.000069	-0.020794
C36	C	0.560607	0.499931	0.479206
O37	O	0.035908	-0.000074	0.023737
O38	O	0.535908	0.499926	0.523737
C39	C	0.120006	-0.000069	-0.021506
C40	C	0.620006	0.499931	0.478494
C41	C	0.142629	-0.000059	-0.073785
C42	C	0.642629	0.499941	0.426215
C43	C	0.128479	-0.000043	-0.177625
C44	C	0.628479	0.499957	0.322375
C45	C	0.187876	-0.000039	-0.178336
C46	C	0.687876	0.499961	0.321664
C47	C	0.224649	-0.000045	-0.126772
C48	C	0.724649	0.499955	0.373228
C49	C	0.202025	-0.000055	-0.074497
C50	C	0.702025	0.499945	0.425503
C51	C	0.156783	-0.000080	0.030062
C52	C	0.656783	0.499920	0.530062
C53	C	0.216185	-0.000081	0.029345
C54	C	0.716185	0.499919	0.529345
C55	C	0.238808	-0.000071	-0.022934
C56	C	0.738808	0.499929	0.477066
C57	C	0.298194	-0.000056	-0.023643
C58	C	0.798194	0.499944	0.476357
N59	N	0.320820	-0.000051	-0.075920
N60	N	0.820820	0.499949	0.424080
C61	C	0.284048	-0.000045	-0.127484
C62	C	0.784048	0.499955	0.372516
C63	C	-0.064135	-0.000069	-0.019302
C64	C	0.435865	0.499931	0.480698
C65	C	-0.123533	-0.000065	-0.018589
C66	C	0.376467	0.499935	0.481411
C67	C	-0.137680	-0.000053	-0.122434
C68	C	0.362320	0.499947	0.377566
C69	C	-0.078281	-0.000053	-0.123146
C70	C	0.421719	0.499947	0.376854
C71	C	-0.041509	-0.000063	-0.071578
C72	C	0.458491	0.499937	0.428422
C73	C	0.408784	-0.000036	-0.128974
C74	C	0.908784	0.499964	0.371026
C75	C	0.468186	-0.000030	-0.129680
C76	C	0.968186	0.499970	0.370320
C77	C	0.482329	-0.000044	-0.025836
C78	C	0.982329	0.499956	0.474164
C79	C	0.422932	-0.000048	-0.025129
C80	C	0.922932	0.499952	0.474871
C81	C	0.386160	-0.000045	-0.076702
C82	C	0.886160	0.499955	0.423298
O83	O	0.334974	-0.000045	0.020119
O84	O	0.834974	0.499955	0.520119
O85	O	0.308755	-0.000046	-0.172007
O86	O	0.808755	0.499954	0.327993
C87	C	0.706678	-0.473325	-0.108495
C88	C	1.206678	0.026675	0.391505
C89	C	0.706695	-0.686984	-0.108495
C90	C	1.206695	-0.186984	0.391505
O91	O	0.735921	-0.714605	-0.137703
O92	O	1.235921	-0.214605	0.362297
N93	N	0.672354	-0.713706	-0.074129
N94	N	1.172354	-0.213706	0.425871
C95	C	0.638009	-0.687010	-0.039759
C96	C	1.138009	-0.187010	0.460241
O97	O	0.608804	-0.714641	-0.010524
O98	O	1.108804	-0.214641	0.489476
C99	C	0.637995	-0.473352	-0.039756
C100	C	1.137995	0.026648	0.460244
C101	C	0.672335	-0.446633	-0.074129
C102	C	1.172335	0.053367	0.425871
C103	C	0.741015	-0.446606	-0.142864
C104	C	1.241015	0.053394	0.357136
C105	C	0.741009	-0.393194	-0.142866
C106	C	1.241009	0.106806	0.357134
C107	C	0.706665	-0.366502	-0.108500
C108	C	1.206665	0.133498	0.391500
C109	C	0.672328	-0.393222	-0.074131
C110	C	1.172328	0.106778	0.425869
C111	C	0.603653	-0.446657	-0.005383
C112	C	1.103653	0.053343	0.494617
C113	C	0.603654	-0.393240	-0.005384
C114	C	1.103654	0.106760	0.494616
C115	C	0.637993	-0.366520	-0.039757
C116	C	1.137993	0.133480	0.460243
C117	C	0.637977	-0.313118	-0.039766
C118	C	1.137977	0.186882	0.460234
N119	N	0.672318	-0.286396	-0.074132
N120	N	1.172318	0.213604	0.425868
C121	C	0.706662	-0.313088	-0.108498
C122	C	1.206662	0.186912	0.391502
C123	C	0.638017	-0.799183	-0.039763
C124	C	1.138017	-0.299183	0.460237
C125	C	0.638020	-0.852597	-0.039764
C126	C	1.138020	-0.352597	0.460236
C127	C	0.706707	-0.852568	-0.108500
C128	C	1.206707	-0.352568	0.391500
C129	C	0.706701	-0.799152	-0.108501
C130	C	1.206701	-0.299152	0.391499
C131	C	0.672359	-0.772461	-0.074129
C132	C	1.172359	-0.272461	0.425871
C133	C	0.706645	-0.200920	-0.108501
C134	C	1.206645	0.299080	0.391499
C135	C	0.706633	-0.147504	-0.108501
C136	C	1.206633	0.352496	0.391499
C137	C	0.637948	-0.147539	-0.039764
C138	C	1.137948	0.352461	0.460236
C139	C	0.637957	-0.200950	-0.039765
C140	C	1.137957	0.299050	0.460235
C141	C	0.672310	-0.227640	-0.074135
C142	C	1.172310	0.272360	0.425865
O143	O	0.608771	-0.285464	-0.010568
O144	O	1.108771	0.214536	0.489432
O145	O	0.735872	-0.285448	-0.137719
O146	O	1.235872	0.214552	0.362281
C147	C	0.706685	-0.526737	-0.108493
C148	C	1.206685	-0.026737	0.391507
C149	C	0.672348	-0.553456	-0.074124
C150	C	1.172348	-0.053456	0.425876
C151	C	0.638004	-0.526764	-0.039758
C152	C	1.138004	-0.026764	0.460242
C153	C	0.672351	-0.606870	-0.074126
C154	C	1.172351	-0.106870	0.425874
C155	C	0.706695	-0.633562	-0.108492
C156	C	1.206695	-0.133562	0.391508
C157	C	0.741036	-0.606840	-0.142858
C158	C	1.241036	-0.106840	0.357142
C159	C	0.741029	-0.553429	-0.142860
C160	C	1.241029	-0.053429	0.357140
C161	C	0.603663	-0.553486	-0.005392
C162	C	1.103663	-0.053486	0.494608
C163	C	0.603672	-0.606897	-0.005393
C164	C	1.103672	-0.106897	0.494607
C165	C	0.638016	-0.633589	-0.039760
C166	C	1.138016	-0.133589	0.460240
C167	C	0.776472	-0.000059	-0.069388
C168	C	1.276472	0.499941	0.430612
C169	C	0.839689	-0.000062	-0.070154
C170	C	1.339689	0.499938	0.429846
C171	C	0.677071	-0.000062	0.030013
C172	C	1.177071	0.499938	0.530013
C173	C	0.676305	-0.000066	0.093230
C174	C	1.176305	0.499934	0.593230
N175	N	0.672364	0.120710	-0.074131
N176	N	1.172364	0.620710	0.425869
C177	C	0.667577	-0.000038	-0.178283
C178	C	1.167577	0.499962	0.321717
C179	C	0.668343	-0.000031	-0.241500
C180	C	1.168343	0.499969	0.258500
C181	C	0.723539	-0.000042	0.492333
C182	C	1.223539	0.499958	0.992333
C183	C	0.722827	-0.000038	0.551733
C184	C	1.222827	0.499962	1.051733
O185	O	0.766613	-0.000024	0.588478
O186	O	1.266613	0.499976	1.088478
N187	N	0.670551	-0.000034	0.574359
N188	N	1.170551	0.499966	1.074359
C189	C	0.618983	-0.000028	0.537582
C190	C	1.118983	0.499972	1.037582
O191	O	0.574452	-0.000023	0.562281
O192	O	1.074452	0.499977	1.062281
C193	C	0.619695	-0.000028	0.478182
C194	C	1.119695	0.499972	0.978182
C195	C	0.671974	-0.000038	0.455560
C196	C	1.171974	0.499962	0.955560
C197	C	0.775814	-0.000051	0.469710
C198	C	1.275814	0.499949	0.969710
C199	C	0.776525	-0.000056	0.410313
C200	C	1.276525	0.499944	0.910313
C201	C	0.724961	-0.000052	0.373540
C202	C	1.224961	0.499948	0.873540
C203	C	0.672685	-0.000043	0.396164
C204	C	1.172685	0.499957	0.896164
C205	C	0.568127	-0.000019	0.441406
C206	C	1.068127	0.499981	0.941406
C207	C	0.568844	-0.000019	0.382004
C208	C	1.068844	0.499981	0.882004
C209	C	0.621123	-0.000028	0.359381
C210	C	1.121123	0.499972	0.859381
C211	C	0.621832	-0.000043	0.299995
C212	C	1.121832	0.499957	0.799995
N213	N	0.674109	-0.000048	0.277368
N214	N	1.174109	0.499952	0.777368
C215	C	0.725673	-0.000052	0.314141
C216	C	1.225673	0.499948	0.814141
C217	C	0.617491	-0.000026	0.662324
C218	C	1.117491	0.499974	1.162324
C219	C	0.616778	-0.000030	0.721722
C220	C	1.116778	0.499970	1.221722
C221	C	0.720623	-0.000039	0.735869
C222	C	1.220623	0.499961	1.235869
C223	C	0.721335	-0.000039	0.676470
C224	C	1.221335	0.499961	1.176470
C225	C	0.669767	-0.000031	0.639698
C226	C	1.169767	0.499969	1.139698
C227	C	0.727163	-0.000063	0.189405
C228	C	1.227163	0.499937	0.689405
C229	C	0.727869	-0.000070	0.130003
C230	C	1.227869	0.499930	0.630003
C231	C	0.624025	-0.000058	0.115860
C232	C	1.124025	0.499942	0.615860
C233	C	0.623318	-0.000054	0.175257
C234	C	1.123318	0.499946	0.675257
C235	C	0.674891	-0.000054	0.212029
C236	C	1.174891	0.499946	0.712029
O237	O	0.578070	-0.000056	0.263215
O238	O	1.078070	0.499944	0.763215
O239	O	0.770196	-0.000050	0.289433
O240	O	1.270196	0.499950	0.789433
H241	H	0.486602	-0.000021	-0.172255
H242	H	0.986602	0.499979	0.327745
N243	N	0.600915	-0.229766	-0.002694
N244	N	1.100915	0.270234	0.497306
H245	H	0.625871	-0.251921	0.025312
H246	H	1.125871	0.248079	0.525312
H247	H	0.572905	-0.251904	-0.027666
H248	H	1.072905	0.248096	0.472334
H249	H	-0.167632	-0.000051	-0.164421
H250	H	0.332368	0.499949	0.335579
N251	N	0.566930	-0.000047	0.199658
N252	N	1.066930	0.499953	0.699658
H253	H	0.564331	0.031414	0.223977
H254	H	1.064331	0.531414	0.723977
H255	H	0.564343	-0.031521	0.223969
H256	H	1.064343	0.468479	0.723969
H257	H	0.610050	-0.777456	-0.011771
H258	H	1.110050	-0.277456	0.488229
N259	N	0.566635	-0.635712	0.031686
N260	N	1.066635	-0.135712	0.531686
H261	H	0.591597	-0.657867	0.059687
H262	H	1.091597	-0.157867	0.559687
H263	H	0.538623	-0.657851	0.006717
H264	H	1.038623	-0.157851	0.506717
N265	N	0.561871	-0.000026	0.622659
N266	N	1.061871	0.499974	1.122659
H267	H	0.539056	0.031432	0.629899
H268	H	1.039056	0.531432	1.129899
H269	H	0.539087	-0.031503	0.629930
H270	H	1.039087	0.468497	1.129930
N271	N	0.566620	-0.524701	0.031679
N272	N	1.066620	-0.024701	0.531679
H273	H	0.544869	-0.549738	0.053447
H274	H	1.044869	-0.049738	0.553447
H275	H	0.538634	-0.502544	0.006705
H276	H	1.038634	-0.002544	0.506705
H277	H	0.525555	-0.000008	0.459814
H278	H	1.025555	0.499992	0.959814
N279	N	0.560390	-0.000021	0.746117
N280	N	1.060390	0.499979	1.246117
H281	H	0.567758	-0.000018	0.789326
H282	H	1.067758	0.499982	1.289326
H283	H	0.537832	-0.031477	0.732649
H284	H	1.037832	0.468523	1.232649
H285	H	0.512280	-0.000047	0.016146
H286	H	1.012280	0.499953	0.516146
H287	H	0.582043	-0.000056	0.085909
H288	H	1.082043	0.499944	0.585909
N289	N	0.369129	-0.000045	-0.184598
N290	N	0.869129	0.499955	0.315402
H291	H	0.392482	-0.000042	-0.217818
H292	H	0.892482	0.499958	0.282182
H293	H	0.344175	0.031408	-0.186576
H294	H	0.844175	0.531408	0.313424
N295	N	0.212272	-0.000025	-0.234724
N296	N	0.712272	0.499975	0.265276
H297	H	0.179956	-0.000022	-0.267277
H298	H	0.679956	0.499978	0.232723
H299	H	0.236602	-0.031481	-0.237287
H300	H	0.736602	0.468519	0.262713
N301	N	0.782785	-0.000067	0.229063
N302	N	1.282785	0.499933	0.729063
H303	H	0.805620	0.031385	0.221810
H304	H	1.305620	0.531385	0.721810
H305	H	0.805547	-0.031550	0.221803
H306	H	1.305547	0.468450	0.721803
H307	H	0.734618	-0.222644	-0.136488
H308	H	1.234618	0.277356	0.363512
H309	H	0.575691	-0.468403	0.022607
H310	H	1.075691	0.031597	0.522607
N311	N	0.566614	-0.364453	0.031693
N312	N	1.066614	0.135547	0.531693
H313	H	0.525115	-0.373758	0.020252
H314	H	1.025115	0.126242	0.520252
H315	H	0.571867	-0.326570	0.026465
H316	H	1.071867	0.173430	0.526465
N317	N	0.088822	-0.000066	-0.233245
N318	N	0.588822	0.499934	0.266755
H319	H	0.112176	-0.000069	-0.266464
H320	H	0.612176	0.499931	0.233536
H321	H	0.063862	0.031385	-0.235236
H322	H	0.563862	0.531385	0.264764
H323	H	0.768974	-0.371444	-0.170853
H324	H	1.268974	0.128556	0.329147
N325	N	0.777722	-0.000046	0.652072
N326	N	1.277722	0.499954	1.152072
H327	H	0.780323	-0.031504	0.627748
H328	H	1.280323	0.468496	1.127748
H329	H	0.810243	-0.000032	0.684417
H330	H	1.310243	0.499968	1.184417
N331	N	-0.147930	-0.000067	0.037797
N332	N	0.352070	0.499933	0.537797
H333	H	-0.115616	-0.000069	0.070352
H334	H	0.384384	0.499931	0.570352
H335	H	-0.172271	-0.031526	0.040358
H336	H	0.327729	0.468474	0.540358
H337	H	0.734663	-0.777401	-0.136491
H338	H	1.234663	-0.277401	0.363509
N339	N	-0.024475	-0.000077	0.036321
N340	N	0.475525	0.499923	0.536321
H341	H	-0.047826	-0.000080	0.069542
H342	H	0.452174	0.499920	0.569542
H343	H	0.000486	0.031380	0.038291
H344	H	0.500486	0.531380	0.538291
N345	N	-0.053883	-0.000040	-0.179533
N346	N	0.446117	0.499960	0.320467
H347	H	-0.086197	-0.000035	-0.212087
H348	H	0.413803	0.499965	0.287913
H349	H	-0.029555	-0.031498	-0.182095
H350	H	0.470445	0.468502	0.317905
N351	N	0.132390	-0.000096	0.086449
N352	N	0.632390	0.499904	0.586449
H353	H	0.145831	0.031355	0.109029
H354	H	0.645831	0.531355	0.609029
H355	H	0.145827	-0.031580	0.108970
H356	H	0.645827	0.468420	0.608970
N357	N	0.255847	-0.000095	0.084966
N358	N	0.755847	0.499905	0.584966
H359	H	0.232498	-0.000102	0.118189
H360	H	0.732498	0.499898	0.618189
H361	H	0.280806	0.031363	0.086938
H362	H	0.780806	0.531363	0.586938
N363	N	0.398527	-0.000049	0.031256
N364	N	0.898527	0.499951	0.531256
H365	H	0.430838	-0.000050	0.063814
H366	H	0.930838	0.499950	0.563814
H367	H	0.374188	-0.031510	0.033815
H368	H	0.874188	0.468490	0.533815
H369	H	0.526850	-0.000011	0.352066
H370	H	1.026850	0.499989	0.852066
N371	N	0.778075	-0.475390	-0.179920
N372	N	1.278075	0.024610	0.320080
H373	H	0.799828	-0.450351	-0.201684
H374	H	1.299828	0.049649	0.298316
H375	H	0.753100	-0.497557	-0.207895
H376	H	1.253100	0.002443	0.292105
N377	N	0.784260	-0.000077	0.105605
N378	N	1.284260	0.499923	0.605605
H379	H	0.776890	-0.000080	0.062396
H380	H	1.276890	0.499920	0.562396
H381	H	0.806797	-0.031536	0.119087
H382	H	1.306797	0.468464	0.619087
H383	H	0.734596	-0.125752	-0.136494
H384	H	1.234596	0.374248	0.363506
N385	N	0.743750	-0.881362	-0.145569
N386	N	1.243750	-0.381362	0.354431
H387	H	0.738538	-0.919253	-0.140350
H388	H	1.238538	-0.419253	0.359650
H389	H	0.785232	-0.872020	-0.134102
H390	H	1.285232	-0.372020	0.365898
H391	H	0.610050	-0.874348	-0.011782
H392	H	1.110050	-0.374348	0.488218
N393	N	0.600912	-0.118744	-0.002692
N394	N	1.100912	0.381256	0.497308
H395	H	0.606126	-0.080853	-0.007908
H396	H	1.106126	0.419147	0.492092
H397	H	0.612412	-0.128085	0.038784
H398	H	1.112412	0.371915	0.538784
N399	N	0.778069	-0.524614	-0.179931
N400	N	1.278069	-0.024614	0.320069
H401	H	0.799825	-0.549635	-0.201697
H402	H	1.299825	-0.049635	0.298303
H403	H	0.806051	-0.502450	-0.154958
H404	H	1.306051	-0.002450	0.345042
N405	N	0.778077	-0.635635	-0.179928
N406	N	1.278077	-0.135635	0.320072
H407	H	0.772866	-0.673526	-0.174708
H408	H	1.272866	-0.173526	0.325292
H409	H	0.819559	-0.626292	-0.168466
H410	H	1.319559	-0.126292	0.331534
N411	N	0.832913	-0.000065	0.385917
N412	N	1.332913	0.499935	0.885917
H413	H	0.865466	-0.000066	0.418233
H414	H	1.365466	0.499934	0.918233
H415	H	0.835483	0.031392	0.361576
H416	H	1.335483	0.531392	0.861576
N417	N	0.831434	-0.000057	0.509367
N418	N	1.331434	0.499943	1.009367
H419	H	0.864653	-0.000063	0.486012
H420	H	1.364653	0.499937	0.986012
H421	H	0.833392	-0.031516	0.534322
H422	H	1.333392	0.468484	1.034322
H423	H	0.762610	-0.000041	0.765821
H424	H	1.262610	0.499959	1.265821
