data_functionalizedCrystal
_audit_creation_method	'MofGen! by Chris Wilmer'
_symmetry_space_group_name_H-M	'P1'
_symmetry_Int_Tables_number	1
_symmetry_cell_setting	triclinic
loop_
_symmetry_equiv_pos_as_xyz
  x,y,z
_cell_length_a	17.038272
_cell_length_b	18.266242
_cell_length_c	17.038272
_cell_angle_alpha	90.006273
_cell_angle_beta	91.111556
_cell_angle_gamma	90.003258
loop_
_atom_site_label
_atom_site_type_symbol
_atom_site_fract_x
_atom_site_fract_y
_atom_site_fract_z
O1	O	1.048760	0.060790	0.170538
O2	O	1.548760	0.560790	0.670538
O3	O	0.820948	0.060812	0.167830
O4	O	1.320948	0.560812	0.667830
O5	O	0.933500	0.060795	0.055279
O6	O	1.433500	0.560795	0.555279
O7	O	0.936208	0.060806	0.283090
O8	O	1.436208	0.560806	0.783090
O9	O	0.933479	-0.060967	0.055271
O10	O	1.433479	0.439033	0.555271
O11	O	0.820927	-0.060950	0.167823
O12	O	1.320927	0.439050	0.667823
O13	O	1.048739	-0.060972	0.170531
O14	O	1.548739	0.439028	0.670531
Zn15	Zn	0.934830	-0.080294	0.169176
Zn16	Zn	1.434830	0.419706	0.669176
Zn17	Zn	0.934857	0.080133	0.169186
Zn18	Zn	1.434857	0.580133	0.669186
O19	O	0.936187	-0.060956	0.283083
O20	O	1.436187	0.439044	0.783083
C21	C	0.791645	-0.000067	0.165364
C22	C	1.291645	0.499933	0.665364
C23	C	0.704361	-0.000059	0.158016
C24	C	1.204361	0.499941	0.658016
N25	N	0.934817	-0.189780	0.169169
N26	N	1.434817	0.310220	0.669169
C27	C	0.658752	-0.000056	0.225479
C28	C	1.158752	0.499944	0.725479
C29	C	0.576740	-0.000066	0.218570
C30	C	1.076740	0.499934	0.718570
C31	C	0.540339	-0.000074	0.144197
C32	C	1.040339	0.499926	0.644197
C33	C	0.585954	-0.000079	0.076728
C34	C	1.085954	0.499921	0.576728
C35	C	0.667965	-0.000074	0.083638
C36	C	1.167965	0.499926	0.583638
C37	C	0.292951	-0.000095	0.119787
C38	C	0.792951	0.499905	0.619787
C39	C	0.210935	-0.000098	0.112882
C40	C	0.710935	0.499902	0.612882
C41	C	0.201726	-0.000087	0.254725
C42	C	0.701726	0.499913	0.754725
C43	C	0.283739	-0.000077	0.261628
C44	C	0.783739	0.499923	0.761628
C45	C	0.329347	-0.000086	0.194159
C46	C	0.829347	0.499914	0.694159
C47	C	0.456510	-0.000083	0.137133
C48	C	0.956510	0.499917	0.637133
C49	C	0.413174	-0.000083	0.201224
C50	C	0.913174	0.499917	0.701224
C51	C	0.984674	-0.228097	0.119358
C52	C	1.484674	0.271903	0.619358
C53	C	0.984679	-0.304742	0.119355
C54	C	1.484679	0.195258	0.619355
C55	C	0.934835	-0.343067	0.169176
C56	C	1.434835	0.156933	0.669176
C57	C	0.884968	-0.304742	0.218990
C58	C	1.384968	0.195258	0.718990
C59	C	0.884959	-0.228099	0.218986
C60	C	1.384959	0.271901	0.718986
N61	N	0.929461	-0.463396	0.238001
N62	N	1.429461	0.036604	0.738001
N63	N	0.929474	-0.536204	0.238002
N64	N	1.429474	-0.036204	0.738002
C65	C	0.934857	-0.573990	0.169189
C66	C	1.434857	-0.073990	0.669189
N67	N	0.940243	-0.536217	0.100373
N68	N	1.440243	-0.036217	0.600373
N69	N	0.940234	-0.463402	0.100373
N70	N	1.440234	0.036598	0.600373
C71	C	0.934838	-0.426174	0.169185
C72	C	1.434838	0.073826	0.669185
C73	C	0.984722	-0.695413	0.119371
C74	C	1.484722	-0.195413	0.619371
C75	C	0.984722	-0.772059	0.119366
C76	C	1.484722	-0.272059	0.619366
C77	C	0.885015	-0.772058	0.219008
C78	C	1.385015	-0.272058	0.719008
C79	C	0.885011	-0.695414	0.219006
C80	C	1.385011	-0.195414	0.719006
C81	C	0.934869	-0.657095	0.169188
C82	C	1.434869	-0.157095	0.669188
C83	C	1.078042	-0.000092	0.172997
C84	C	1.578042	0.499908	0.672997
C85	C	1.165326	-0.000095	0.180346
C86	C	1.665326	0.499905	0.680346
C87	C	0.931027	-0.000086	0.025982
C88	C	1.431027	0.499914	0.525982
C89	C	0.923679	-0.000085	-0.061301
C90	C	1.423679	0.499915	0.438699
N91	N	0.934876	0.189620	0.169187
N92	N	1.434876	0.689620	0.669187
C93	C	0.991142	-0.000092	-0.106911
C94	C	1.491142	0.499908	0.393089
C95	C	0.984233	-0.000084	-0.188923
C96	C	1.484233	0.499916	0.311077
C97	C	0.909860	-0.000075	-0.225324
C98	C	1.409860	0.499925	0.274676
C99	C	0.842391	-0.000065	-0.179708
C100	C	1.342391	0.499935	0.320292
C101	C	0.849301	-0.000068	-0.097698
C102	C	1.349301	0.499932	0.402302
C103	C	0.885449	-0.000062	-0.472712
C104	C	1.385449	0.499938	0.027288
C105	C	0.878545	-0.000062	-0.554728
C106	C	1.378545	0.499938	-0.054728
C107	C	1.020387	-0.000080	-0.563937
C108	C	1.520387	0.499920	-0.063937
C109	C	1.027291	-0.000086	-0.481924
C110	C	1.527291	0.499914	0.018076
C111	C	0.959822	-0.000073	-0.436316
C112	C	1.459822	0.499927	0.063684
C113	C	0.902796	-0.000069	-0.309153
C114	C	1.402796	0.499931	0.190847
C115	C	0.966886	-0.000073	-0.352488
C116	C	1.466886	0.499927	0.147512
C117	C	0.938660	-0.000073	0.312379
C118	C	1.438660	0.499927	0.812379
C119	C	0.946008	-0.000069	0.399663
C120	C	1.446008	0.499931	0.899663
H121	H	0.688384	-0.000049	0.286042
H122	H	1.188384	0.499951	0.786042
O123	O	0.831253	-0.813383	0.272749
O124	O	1.331253	-0.313383	0.772749
H125	H	0.839638	-0.873116	0.264387
H126	H	1.339638	-0.373116	0.764387
O127	O	0.831189	-0.186764	0.272719
O128	O	1.331189	0.313236	0.772719
H129	H	0.796531	-0.226288	0.307367
H130	H	1.296531	0.273712	0.807367
H131	H	0.844416	-0.664214	0.259570
H132	H	1.344416	-0.164214	0.759570
H133	H	0.781835	-0.000053	-0.209353
H134	H	1.281835	0.499947	0.290647
H135	H	1.027441	-0.000065	-0.322847
H136	H	1.527441	0.499935	0.177153
O137	O	0.776536	-0.000070	-0.048502
O138	O	1.276536	0.499930	0.451498
H139	H	0.741206	0.049558	-0.062031
H140	H	1.241206	0.549558	0.437969
O141	O	1.038461	-0.346077	0.065630
O142	O	1.538461	0.153923	0.565630
H143	H	1.030087	-0.405809	0.074001
H144	H	1.530087	0.094191	0.574001
H145	H	1.075316	-0.000089	-0.601079
H146	H	1.575316	0.499911	-0.101079
O147	O	0.322987	-0.000075	0.341851
O148	O	0.822987	0.499925	0.841851
H149	H	0.360125	0.049559	0.348401
H150	H	0.860125	0.549559	0.848401
H151	H	1.025319	-0.803257	0.078800
H152	H	1.525319	-0.303257	0.578800
H153	H	1.051705	-0.000104	-0.077279
H154	H	1.551705	0.499896	0.422721
H155	H	0.844382	-0.335951	0.259554
H156	H	1.344382	0.164049	0.759554
O157	O	1.056997	-0.000104	-0.238119
O158	O	1.556997	0.499896	0.261881
H159	H	1.109873	-0.000124	-0.199029
H160	H	1.609873	0.499876	0.300971
O161	O	1.038483	-0.654075	0.065632
O162	O	1.538483	-0.154075	0.565632
H163	H	1.073144	-0.693599	0.030983
H164	H	1.573144	-0.193599	0.530983
O165	O	1.107513	-0.000090	-0.442675
O166	O	1.607513	0.499910	0.057325
H167	H	1.114053	-0.049723	-0.405545
H168	H	1.614053	0.450277	0.094455
H169	H	1.025269	-0.196900	0.078792
H170	H	1.525269	0.303100	0.578792
H171	H	0.842241	-0.000063	-0.338800
H172	H	1.342241	0.499937	0.161200
H173	H	0.539608	-0.000063	0.273507
H174	H	1.039608	0.499937	0.773507
H175	H	0.164583	-0.000081	0.309653
H176	H	0.664583	0.499919	0.809653
H177	H	0.705099	-0.000076	0.028702
H178	H	1.205099	0.499924	0.528702
O179	O	0.798324	-0.000044	-0.593994
O180	O	1.298324	0.499956	-0.093994
H181	H	0.752569	-0.000027	-0.548503
H182	H	1.252569	0.499973	-0.048503
O183	O	0.452427	-0.000077	0.281441
O184	O	0.952427	0.499923	0.781441
H185	H	0.489567	0.049556	0.287981
H186	H	0.989567	0.549556	0.787981
H187	H	0.181300	-0.000104	0.052315
H188	H	0.681300	0.499896	0.552315
O189	O	0.812683	-0.000067	-0.423524
O190	O	1.312683	0.499933	0.076476
H191	H	0.759809	-0.000073	-0.462617
H192	H	1.259809	0.499927	0.037383
H193	H	0.330076	-0.000103	0.064848
H194	H	0.830076	0.499897	0.564848
H195	H	0.426863	-0.000110	0.076578
H196	H	0.926863	0.499890	0.576578
O197	O	0.546699	-0.000091	-0.003492
O198	O	1.046699	0.499909	0.496508
H199	H	0.482010	-0.000087	0.003036
H200	H	0.982010	0.499913	0.503036
