data_functionalizedCrystal
_audit_creation_method	'MofGen! by Chris Wilmer'
_symmetry_space_group_name_H-M	'P1'
_symmetry_Int_Tables_number	1
_symmetry_cell_setting	triclinic
loop_
_symmetry_equiv_pos_as_xyz
  x,y,z
_cell_length_a	16.109302
_cell_length_b	15.712078
_cell_length_c	14.586319
_cell_angle_alpha	89.998056
_cell_angle_beta	89.994552
_cell_angle_gamma	101.521465
loop_
_atom_site_label
_atom_site_type_symbol
_atom_site_fract_x
_atom_site_fract_y
_atom_site_fract_z
O1	O	1.136942	0.111097	-0.076281
O2	O	0.899088	0.124922	-0.076274
O3	O	0.986372	-0.007810	-0.076272
O4	O	1.049658	0.243828	-0.076283
O5	O	0.986363	-0.007812	0.076209
O6	O	0.899078	0.124920	0.076207
O7	O	1.136933	0.111095	0.076200
Cu8	Cu	1.018005	0.118007	0.090126
Cu9	Cu	1.018016	0.118009	-0.090200
O10	O	1.049648	0.243826	0.076198
C11	C	0.867938	0.124360	-0.000033
C12	C	0.775131	0.122681	-0.000030
C13	C	0.561604	0.118797	0.083079
C14	C	0.474400	0.117210	0.083075
C15	C	0.474423	0.117217	-0.083168
C16	C	0.561623	0.118798	-0.083163
C17	C	0.605212	0.119592	-0.000038
C18	C	0.430809	0.116424	-0.000045
C19	C	0.336259	0.114703	-0.000049
C20	C	0.699767	0.121311	-0.000033
C21	C	0.976029	-0.040011	-0.000032
C22	C	0.945213	-0.135958	-0.000033
C23	C	1.206848	-0.503127	-0.000051
C24	C	1.177873	-0.593281	-0.000049
C25	C	1.032684	-0.572624	-0.000045
C26	C	1.061647	-0.482467	-0.000042
C27	C	1.148730	-0.447726	-0.000046
C28	C	1.003529	-0.427066	-0.000037
C29	C	1.032491	-0.336916	-0.000039
C30	C	1.119570	-0.302168	-0.000045
C31	C	1.177692	-0.357577	-0.000047
C32	C	0.916447	-0.461808	-0.000040
C33	C	0.858329	-0.406407	-0.000035
C34	C	0.887290	-0.316256	-0.000030
C35	C	0.974369	-0.281508	-0.000037
C36	C	0.829168	-0.260848	-0.000028
C37	C	0.858130	-0.170699	-0.000030
C38	C	1.003331	-0.191359	-0.000038
C39	C	1.168083	0.111656	-0.000044
C40	C	1.260889	0.113335	-0.000053
C41	C	1.059992	0.276027	-0.000044
C42	C	1.090808	0.371974	-0.000049
N43	N	1.018003	0.118005	0.216958
N44	N	1.018022	0.118005	-0.217032
C45	C	1.056677	0.059251	0.451965
C46	C	1.056679	0.059249	0.547946
C47	C	0.979343	0.176761	0.547954
C48	C	0.979336	0.176758	0.451974
C49	C	1.018008	0.118004	0.403982
C50	C	1.018017	0.118005	0.595943
C51	C	1.018018	0.118003	0.700010
C52	C	1.018006	0.118005	0.299909
H53	H	1.074242	-0.163071	-0.000032
Cl54	Cl	0.930716	0.250621	0.391647
H55	H	0.597091	0.119444	0.150765
Cl56	Cl	1.105290	-0.014617	0.608264
Cl57	Cl	0.719697	-0.304534	-0.000042
H58	H	0.438898	0.116563	0.150757
Cl59	Cl	0.419615	0.116197	-0.187663
H60	H	0.597130	0.119443	-0.150851
H61	H	1.143149	-0.228762	-0.000046
H62	H	1.088165	0.011409	0.412892
H63	H	1.248603	-0.329289	-0.000041
Cl64	Cl	0.930733	0.250623	0.608291
H65	H	1.277760	-0.474839	-0.000044
Cl66	Cl	1.250946	-0.662927	-0.000062
H67	H	0.961780	-0.600923	-0.000046
Cl68	Cl	0.880038	-0.575141	0.000037
H69	H	0.787425	-0.434706	-0.000036
H70	H	0.810804	-0.125589	-0.000025
