data_functionalizedCrystal
_audit_creation_method	'MofGen! by Chris Wilmer'
_symmetry_space_group_name_H-M	'P1'
_symmetry_Int_Tables_number	1
_symmetry_cell_setting	triclinic
loop_
_symmetry_equiv_pos_as_xyz
  x,y,z
_cell_length_a	23.532407
_cell_length_b	23.532407
_cell_length_c	22.610064
_cell_angle_alpha	90.015293
_cell_angle_beta	89.990081
_cell_angle_gamma	82.848712
loop_
_atom_site_label
_atom_site_type_symbol
_atom_site_fract_x
_atom_site_fract_y
_atom_site_fract_z
O1	O	0.755249	0.069141	0.049153
O2	O	0.589386	0.079145	0.049163
O3	O	0.677319	-0.008789	0.049147
O4	O	0.667316	0.157075	0.049169
O5	O	0.677332	-0.008804	-0.049222
O6	O	0.589399	0.079130	-0.049206
O7	O	0.755262	0.069126	-0.049216
Zn8	Zn	0.672333	0.074126	-0.064829
Zn9	Zn	0.672315	0.074145	0.064777
O10	O	0.667329	0.157060	-0.049200
C11	C	0.568176	0.078882	-0.000020
C12	C	0.504959	0.078116	-0.000017
C13	C	0.238792	0.022921	-0.000040
C14	C	0.298192	0.023632	-0.000040
O15	O	0.334937	-0.020153	-0.000066
N16	N	0.320818	0.075909	-0.000029
C17	C	0.284041	0.127477	-0.000024
O18	O	0.308740	0.172007	-0.000015
C19	C	0.224642	0.126765	-0.000029
C20	C	0.202019	0.074485	-0.000034
C21	C	0.216169	-0.029354	-0.000046
C22	C	0.156772	-0.030066	-0.000045
C23	C	0.119999	0.021499	-0.000038
C24	C	0.142623	0.073774	-0.000033
C25	C	0.187865	0.178333	-0.000028
C26	C	0.128463	0.177616	-0.000033
C27	C	0.105840	0.125336	-0.000038
C28	C	0.046454	0.124627	-0.000025
N29	N	0.023828	0.072351	-0.000036
C30	C	0.060600	0.020787	-0.000043
C31	C	0.408783	0.128968	-0.000016
C32	C	0.468181	0.129681	-0.000007
C33	C	0.482328	0.025836	-0.000024
C34	C	0.422929	0.025124	-0.000028
C35	C	0.386157	0.076692	-0.000027
C36	C	-0.064136	0.019297	-0.000041
C37	C	-0.123538	0.018590	-0.000037
C38	C	-0.137680	0.122435	-0.000024
C39	C	-0.078284	0.123142	-0.000024
C40	C	-0.041512	0.071568	-0.000034
O41	O	0.009675	0.168390	-0.000001
O42	O	0.035892	-0.023737	-0.000060
C43	C	0.677071	-0.030012	-0.000039
C44	C	0.676305	-0.093229	-0.000043
C45	C	0.723538	-0.492332	-0.000014
C46	C	0.722827	-0.551733	-0.000009
O47	O	0.766613	-0.588477	0.000010
N48	N	0.670551	-0.574359	-0.000007
C49	C	0.618982	-0.537581	-0.000002
O50	O	0.574452	-0.562281	0.000001
C51	C	0.619695	-0.478182	-0.000003
C52	C	0.671974	-0.455559	-0.000011
C53	C	0.775814	-0.469709	-0.000022
C54	C	0.776525	-0.410313	-0.000028
C55	C	0.724961	-0.373540	-0.000025
C56	C	0.672685	-0.396163	-0.000017
C57	C	0.568127	-0.441406	0.000006
C58	C	0.568843	-0.382003	0.000006
C59	C	0.621123	-0.359381	-0.000003
C60	C	0.621832	-0.299994	-0.000020
N61	N	0.674109	-0.277368	-0.000023
C62	C	0.725673	-0.314141	-0.000025
C63	C	0.617491	-0.662324	-0.000001
C64	C	0.616778	-0.721722	-0.000005
C65	C	0.720623	-0.735869	-0.000011
C66	C	0.721335	-0.676470	-0.000011
C67	C	0.669767	-0.639698	-0.000003
C68	C	0.727163	-0.189404	-0.000038
C69	C	0.727869	-0.130002	-0.000046
C70	C	0.624025	-0.115860	-0.000037
C71	C	0.623318	-0.175257	-0.000032
C72	C	0.674891	-0.212028	-0.000030
O73	O	0.578069	-0.263215	-0.000037
O74	O	0.770196	-0.289433	-0.000021
C75	C	0.776472	0.069389	-0.000031
C76	C	0.839689	0.070155	-0.000031
C77	C	0.667577	0.178283	-0.000012
C78	C	0.668343	0.241500	-0.000004
N79	N	0.672304	0.074155	0.153229
N80	N	0.672349	0.074112	-0.153282
C81	C	0.711350	0.035274	0.561863
C82	C	0.711354	0.035271	0.623783
O83	O	0.744544	0.002236	0.655796
N84	N	0.672345	0.074126	0.654766
C85	C	0.633332	0.112990	0.623826
O86	O	0.600152	0.146040	0.655865
C87	C	0.633331	0.112995	0.561907
C88	C	0.672339	0.074134	0.530927
C89	C	0.750356	-0.003584	0.530883
C90	C	0.750351	-0.003582	0.468968
C91	C	0.711340	0.035278	0.438032
C92	C	0.672334	0.074136	0.469012
C93	C	0.594321	0.151862	0.530968
C94	C	0.594324	0.151864	0.469045
C95	C	0.633332	0.113002	0.438065
C96	C	0.633318	0.112999	0.376160
N97	N	0.672328	0.074143	0.345177
C98	C	0.711339	0.035283	0.376113
C99	C	0.633338	0.112978	0.753860
C100	C	0.633336	0.112970	0.815777
C101	C	0.711359	0.035251	0.815730
C102	C	0.711358	0.035256	0.753811
C103	C	0.672348	0.074122	0.722877
C104	C	0.711325	0.035290	0.246086
C105	C	0.711314	0.035294	0.184165
C106	C	0.633293	0.113015	0.184217
C107	C	0.633301	0.113009	0.246133
C108	C	0.672322	0.074145	0.277066
O109	O	0.600147	0.146018	0.344108
O110	O	0.744518	0.002244	0.344066
H111	H	0.512280	-0.016150	-0.000029
H112	H	0.246104	-0.071347	-0.000053
O113	O	0.595385	0.150811	0.276139
C114	C	0.517977	0.227878	0.269643
C115	C	0.560890	0.185102	0.235594
H116	H	0.490069	0.255606	0.236877
H117	H	0.542318	0.256298	0.298613
H118	H	0.489750	0.203366	0.298652
H119	H	0.589129	0.209568	0.206553
H120	H	0.536514	0.156683	0.206661
O121	O	0.595512	0.150785	0.723786
C122	C	0.582781	0.228610	0.653888
C123	C	0.625680	0.185835	0.687916
H124	H	0.607156	0.256952	0.624870
H125	H	0.554910	0.256417	0.686647
H126	H	0.554513	0.204096	0.624925
H127	H	0.653986	0.210303	0.716880
H128	H	0.653512	0.158029	0.655125
H129	H	0.819097	-0.391900	-0.000032
O130	O	-0.056399	0.173975	-0.000039
C131	C	-0.076708	0.276899	0.000013
C132	C	-0.101562	0.219371	0.000023
H133	H	-0.113210	0.313617	0.000076
H134	H	-0.049270	0.279863	-0.041166
H135	H	-0.049236	0.279804	0.041169
H136	H	-0.129059	0.216427	-0.041104
H137	H	-0.128968	0.216432	0.041230
O138	O	0.556408	0.189670	0.560961
C139	C	0.479008	0.266744	0.554445
C140	C	0.521924	0.223962	0.520407
H141	H	0.451109	0.294471	0.521673
H142	H	0.503346	0.295163	0.583419
H143	H	0.450772	0.242236	0.583450
H144	H	0.550172	0.248422	0.491371
H145	H	0.497551	0.195543	0.491470
O146	O	0.777313	-0.225037	-0.000065
C147	C	0.880386	-0.232784	-0.000044
C148	C	0.823635	-0.192366	-0.000022
H149	H	0.917853	-0.206386	0.000004
H150	H	0.882697	-0.260951	-0.041219
H151	H	0.882619	-0.260946	0.041116
H152	H	0.821364	-0.164169	-0.041153
H153	H	0.821348	-0.164239	0.041181
H154	H	-0.167631	0.164417	-0.000015
H155	H	0.770443	-0.111587	-0.000055
H156	H	0.743080	0.003647	0.158943
H157	H	0.575496	-0.632386	0.000000
H158	H	0.817806	-0.499644	-0.000022
H159	H	0.562557	0.183515	0.443861
O160	O	-0.145445	-0.032233	0.000035
C161	C	-0.151554	-0.121185	0.051001
C162	C	-0.126699	-0.063658	0.050987
H163	H	-0.136418	-0.146604	0.092198
H164	H	-0.136361	-0.146694	0.009858
H165	H	-0.200325	-0.112827	0.050975
H166	H	-0.077929	-0.071963	0.051034
H167	H	-0.141938	-0.038167	0.092127
H168	H	0.601529	0.144653	0.159020
O169	O	-0.028399	-0.030786	-0.000151
C170	C	0.046902	-0.090260	-0.051095
C171	C	0.006455	-0.033527	-0.051056
H172	H	0.075101	-0.092490	-0.092240
H173	H	0.020549	-0.127762	-0.051135
H174	H	0.075029	-0.092511	-0.009907
H175	H	-0.021681	-0.031221	-0.092236
H176	H	0.032842	0.003948	-0.050985
H177	H	0.138359	-0.072637	-0.000052
O178	O	0.401051	-0.025710	-0.000063
C179	C	0.421369	-0.128633	-0.000039
C180	C	0.446217	-0.071102	-0.000013
H181	H	0.457873	-0.165348	0.000014
H182	H	0.393947	-0.131612	-0.041220
H183	H	0.393882	-0.131528	0.041115
H184	H	0.473729	-0.068169	-0.041140
H185	H	0.473607	-0.068148	0.041195
O186	O	0.517392	-0.463467	-0.000004
C187	C	0.470252	-0.548690	0.000059
C188	C	0.527754	-0.523785	0.000053
H189	H	0.478610	-0.597460	0.000118
H190	H	0.444779	-0.533574	-0.041111
H191	H	0.444795	-0.533467	0.041223
H192	H	0.553257	-0.538996	-0.041084
H193	H	0.553184	-0.538898	0.041251
H194	H	0.486595	0.172252	0.000005
H195	H	0.580747	-0.193677	-0.000041
H196	H	0.763906	-0.658055	-0.000018
H197	H	0.762610	-0.765821	-0.000010
O198	O	0.565944	-0.743599	0.000024
C199	C	0.463020	-0.723281	-0.000006
C200	C	0.520552	-0.698432	-0.000028
H201	H	0.426306	-0.686776	-0.000060
H202	H	0.460043	-0.750700	0.041174
H203	H	0.460125	-0.750770	-0.041161
H204	H	0.523486	-0.670918	0.041099
H205	H	0.523505	-0.671046	-0.041235
H206	H	0.526850	-0.352065	0.000013
O207	O	0.749248	-0.002519	0.276037
C208	C	0.826651	-0.079588	0.269438
C209	C	0.783730	-0.036806	0.235446
H210	H	0.854549	-0.107312	0.236636
H211	H	0.802319	-0.108011	0.298406
H212	H	0.854889	-0.055081	0.298445
H213	H	0.755481	-0.061267	0.206408
H214	H	0.808098	-0.008384	0.206515
H215	H	0.582043	-0.085909	-0.000037
O216	O	0.788306	-0.041347	0.438970
C217	C	0.865682	-0.118445	0.445482
C218	C	0.822732	-0.075700	0.479522
H219	H	0.893518	-0.146238	0.478253
H220	H	0.893977	-0.093964	0.416516
H221	H	0.841316	-0.146804	0.416468
H222	H	0.847051	-0.047329	0.508567
H223	H	0.794437	-0.100216	0.508450
H224	H	0.782126	-0.035229	0.556066
O225	O	0.749306	-0.002514	0.723812
C226	C	0.826665	-0.079630	0.730317
C227	C	0.783727	-0.036875	0.764361
H228	H	0.854497	-0.107430	0.763086
H229	H	0.854965	-0.055159	0.701348
H230	H	0.802287	-0.107982	0.701307
H231	H	0.808057	-0.008512	0.793403
H232	H	0.755428	-0.061382	0.793292
H233	H	0.378846	0.170964	-0.000010
O234	O	0.209736	0.229168	-0.000054
C235	C	0.189409	0.332091	-0.000020
C236	C	0.164566	0.274556	-0.000002
H237	H	0.152902	0.368802	0.000034
H238	H	0.216850	0.335053	-0.041198
H239	H	0.216876	0.335007	0.041137
H240	H	0.137074	0.271601	-0.041131
H241	H	0.137158	0.271619	0.041203
H242	H	0.743125	0.003610	0.840929
H243	H	0.601566	0.144609	0.840997
H244	H	0.098525	0.219610	-0.000034
