data_functionalizedCrystal
_audit_creation_method	'MofGen! by Chris Wilmer'
_symmetry_space_group_name_H-M	'P1'
_symmetry_Int_Tables_number	1
_symmetry_cell_setting	triclinic
loop_
_symmetry_equiv_pos_as_xyz
  x,y,z
_cell_length_a	14.908571
_cell_length_b	12.759394
_cell_length_c	14.908308
_cell_angle_alpha	93.268403
_cell_angle_beta	90.175053
_cell_angle_gamma	86.711101
loop_
_atom_site_label
_atom_site_type_symbol
_atom_site_fract_x
_atom_site_fract_y
_atom_site_fract_z
Zn1	Zn	1.345341	-0.548282	-0.587592
Zn2	Zn	1.353935	-0.714462	-0.437236
Zn3	Zn	1.203654	-0.528102	-0.428590
Zn4	Zn	1.194963	-0.713213	-0.578887
O5	O	1.274473	-0.626015	-0.508076
O6	O	1.472308	-0.579294	-0.574908
O7	O	1.341234	-0.681818	-0.310264
O8	O	1.222490	-0.383762	-0.449706
O9	O	1.478622	-0.701385	-0.464442
O10	O	1.326587	-0.398588	-0.566525
O11	O	1.230824	-0.544900	-0.303912
O12	O	1.076675	-0.543690	-0.441266
O13	O	1.207676	-0.699258	-0.705867
O14	O	1.070289	-0.679690	-0.551688
O15	O	1.318159	-0.578083	-0.712262
O16	O	1.332806	-0.861313	-0.456001
O17	O	1.216010	-0.860396	-0.560072
C18	C	1.040856	-0.609365	-0.494595
C19	C	0.940913	-0.602270	-0.488849
C20	C	0.746516	-0.730752	-0.592880
C21	C	0.652610	-0.724088	-0.587484
C22	C	0.659192	-0.582274	-0.472666
C23	C	0.753098	-0.588938	-0.478062
C24	C	0.796757	-0.663180	-0.538170
C25	C	0.890665	-0.669848	-0.543561
C26	C	0.897246	-0.528030	-0.428748
C27	C	0.803340	-0.521366	-0.423352
C28	C	1.274420	-0.898977	-0.508051
C29	C	1.274478	-1.015759	-0.508075
C30	C	1.396180	-1.016672	-0.399798
C31	C	1.457053	-1.071992	-0.345671
C32	C	1.457105	-1.181719	-0.345698
C33	C	1.396278	-1.236129	-0.399860
C34	C	1.335404	-1.180809	-0.453987
C35	C	1.335358	-1.071079	-0.453952
C36	C	1.213709	-1.179897	-0.562269
C37	C	1.213651	-1.070169	-0.562238
C38	C	1.152882	-1.234306	-0.616431
C39	C	1.092002	-1.178986	-0.670555
C40	C	1.091953	-1.069252	-0.670524
C41	C	1.152778	-1.014849	-0.616365
C42	C	1.509002	-0.642730	-0.521611
C43	C	1.608945	-0.649853	-0.527378
C44	C	1.260989	-0.640782	-0.742602
C45	C	1.255243	-0.647075	-0.842543
C46	C	1.274549	-0.351989	-0.508122
C47	C	1.274582	-0.235216	-0.508142
C48	C	1.359488	-0.532697	-1.037003
C49	C	1.354092	-0.538606	-1.130907
C50	C	1.239051	-0.664798	-1.124254
C51	C	1.244447	-0.658888	-1.030351
C52	C	1.304669	-0.592837	-0.986729
C53	C	1.310069	-0.586934	-0.892824
C54	C	1.195024	-0.713118	-0.886173
C55	C	1.189627	-0.719028	-0.980077
C56	C	1.287956	-0.611232	-0.274466
C57	C	1.293877	-0.604656	-0.174536
H58	H	0.938162	-0.473010	-0.384197
O59	O	1.407382	-0.480343	-1.179846
C60	C	1.462339	-0.547709	-1.237491
H61	H	1.429803	-0.625955	-1.249718
H62	H	1.470602	-0.509928	-1.304225
H63	H	1.531052	-0.561715	-1.205144
H64	H	0.926210	-0.730302	-0.592502
H65	H	1.140595	-0.772803	-1.015607
H66	H	1.152738	-0.925503	-0.616329
O67	O	0.788787	-0.802898	-0.651339
C68	C	0.724306	-0.861134	-0.698452
H69	H	0.657187	-0.813559	-0.697784
H70	H	0.747384	-0.878855	-0.770838
H71	H	0.716207	-0.938077	-0.664832
O72	O	0.616723	-0.510282	-0.414214
C73	C	0.565682	-0.562443	-0.352947
H74	H	0.594302	-0.646824	-0.348852
H75	H	0.568540	-0.519853	-0.283757
H76	H	0.492934	-0.562832	-0.376690
O77	O	0.603758	-0.789581	-0.640721
C78	C	0.546098	-0.729673	-0.695743
H79	H	0.574079	-0.649302	-0.703041
H80	H	0.541070	-0.772071	-0.764825
H81	H	0.476520	-0.719205	-0.663856
H82	H	1.506677	-1.226761	-0.301628
O83	O	1.141895	-0.771597	-0.837248
C84	C	1.196192	-0.839704	-0.785894
H85	H	1.265150	-0.806617	-0.775757
H86	H	1.163356	-0.847027	-0.717749
H87	H	1.203975	-0.920537	-0.822649
O88	O	1.368442	-0.522702	-0.850342
C89	C	1.320379	-0.447769	-0.793100
H90	H	1.253041	-0.479093	-0.775094
H91	H	1.360802	-0.432132	-0.729183
H92	H	1.308430	-0.371490	-0.828734
H93	H	0.767780	-0.460918	-0.374416
H94	H	1.396133	-0.927325	-0.399758
H95	H	1.506580	-1.027682	-0.301574
O96	O	1.396499	-1.342729	-0.399906
C97	C	1.481339	-1.386876	-0.428068
H98	H	1.533990	-1.326319	-0.415715
H99	H	1.499723	-1.458880	-0.388471
H100	H	1.478909	-1.411128	-0.502789
O101	O	1.153097	-1.340906	-0.616472
C102	C	1.237936	-1.385065	-0.644625
H103	H	1.290592	-1.324514	-0.632272
H104	H	1.256310	-1.457067	-0.605022
H105	H	1.235510	-1.409324	-0.719345
H106	H	1.042386	-1.024217	-0.714605
O107	O	1.032957	-1.231997	-0.723080
C108	C	1.046078	-1.340709	-0.711522
H109	H	1.079574	-1.353437	-0.643861
H110	H	0.978397	-1.378067	-0.713697
H111	H	1.090870	-1.378532	-0.767662
H112	H	1.190021	-0.718573	-1.159788
O113	O	1.418008	-0.468455	-0.994764
C114	C	1.465259	-0.416666	-1.059276
H115	H	1.424586	-0.414613	-1.124091
H116	H	1.476435	-0.332868	-1.032708
H117	H	1.532964	-0.460636	-1.073196
