data_functionalizedCrystal
_audit_creation_method	'MofGen! by Chris Wilmer'
_symmetry_space_group_name_H-M	'P1'
_symmetry_Int_Tables_number	1
_symmetry_cell_setting	triclinic
loop_
_symmetry_equiv_pos_as_xyz
  x,y,z
_cell_length_a	16.992694
_cell_length_b	15.944551
_cell_length_c	15.455313
_cell_angle_alpha	92.664316
_cell_angle_beta	87.142206
_cell_angle_gamma	87.083481
loop_
_atom_site_label
_atom_site_type_symbol
_atom_site_fract_x
_atom_site_fract_y
_atom_site_fract_z
O1	O	1.043832	0.174669	-0.072025
O2	O	1.543832	0.674669	0.427975
O3	O	0.815548	0.172714	-0.072051
O4	O	1.315548	0.672714	0.427949
O5	O	0.935924	0.051836	-0.072029
O6	O	1.435924	0.551836	0.427971
O7	O	0.923457	0.295548	-0.072046
O8	O	1.423457	0.795548	0.427954
O9	O	0.929040	0.058718	0.072232
O10	O	1.429040	0.558718	0.572232
O11	O	0.808664	0.179596	0.072210
O12	O	1.308664	0.679596	0.572210
O13	O	1.036949	0.181551	0.072236
O14	O	1.536949	0.681551	0.572236
Cu15	Cu	0.922178	0.181202	0.085395
Cu16	Cu	1.422178	0.681202	0.585395
Cu17	Cu	0.930319	0.173063	-0.085210
Cu18	Cu	1.430319	0.673063	0.414790
O19	O	0.916573	0.302430	0.072215
O20	O	1.416573	0.802430	0.572215
C21	C	0.782894	0.173641	0.000077
C22	C	1.282894	0.673641	0.500077
C23	C	0.695850	0.166141	0.000067
C24	C	1.195850	0.666141	0.500067
C25	C	0.931964	0.023948	0.000101
C26	C	1.431964	0.523948	0.500101
C27	C	0.930413	-0.069402	0.000102
C28	C	1.430413	0.430598	0.500102
C29	C	0.645613	0.238506	0.000063
C30	C	1.145613	0.738506	0.500063
C31	C	0.563826	0.231454	0.000075
C32	C	1.063826	0.731454	0.500075
C33	C	0.532276	0.152037	0.000086
C34	C	1.032276	0.652037	0.500086
C35	C	0.582519	0.079667	0.000093
C36	C	1.082519	0.579667	0.500093
C37	C	0.664305	0.086719	0.000087
C38	C	1.164305	0.586719	0.500087
C39	C	0.288676	0.122807	0.000111
C40	C	0.788676	0.622807	0.500111
C41	C	0.206884	0.115760	0.000115
C42	C	0.706884	0.615760	0.500115
C43	C	0.188196	0.267548	0.000099
C44	C	0.688196	0.767548	0.500099
C45	C	0.269984	0.274593	0.000087
C46	C	0.769984	0.774593	0.500087
C47	C	0.320220	0.202223	0.000099
C48	C	0.820220	0.702223	0.500099
N49	N	0.448677	0.144827	0.000096
N50	N	0.948677	0.644827	0.500096
N51	N	0.403817	0.209434	0.000095
N52	N	0.903817	0.709434	0.500095
C53	C	0.852089	-0.289513	0.000081
C54	C	1.352089	0.210487	0.500081
C55	C	0.885066	-0.344697	0.071214
C56	C	1.385066	0.155303	0.571214
C57	C	0.927606	-0.240317	0.000095
C58	C	1.427606	0.259683	0.500095
C59	C	0.891871	-0.351465	-0.071016
C60	C	1.391871	0.148535	0.428984
C61	C	0.924889	-0.405412	0.000084
C62	C	1.424889	0.094588	0.500084
C63	C	0.960600	-0.294269	0.071287
C64	C	1.460600	0.205731	0.571287
C65	C	0.967397	-0.301034	-0.071007
C66	C	1.467397	0.198966	0.428993
C67	C	1.000428	-0.356196	0.000144
C68	C	1.500428	0.143804	0.500144
C69	C	0.929168	-0.145209	0.000101
C70	C	1.429168	0.354791	0.500101
C71	C	0.923332	-0.500518	0.000084
C72	C	1.423332	-0.000518	0.500084
C73	C	1.069603	0.180624	0.000107
C74	C	1.569603	0.680624	0.500107
C75	C	1.156647	0.188124	0.000110
C76	C	1.656647	0.688124	0.500110
C77	C	0.920532	0.330318	0.000082
C78	C	1.420532	0.830318	0.500082
C79	C	0.922084	0.423668	0.000076
C80	C	1.422084	0.923668	0.500076
N81	N	0.916458	0.186926	0.205390
N82	N	1.416458	0.686926	0.705390
N83	N	0.936045	0.167333	-0.205204
N84	N	1.436045	0.667333	0.294796
C85	C	0.967616	0.135594	0.250793
C86	C	1.467616	0.635594	0.750793
C87	C	0.963297	0.139932	0.341600
C88	C	1.463297	0.639932	0.841600
C89	C	0.907824	0.195606	0.387002
C90	C	1.407824	0.695606	0.887002
C91	C	0.856661	0.246940	0.341593
C92	C	1.356661	0.746940	0.841593
C93	C	0.860976	0.242598	0.250787
C94	C	1.360976	0.742598	0.750787
C95	C	0.889197	0.214325	0.658581
C96	C	1.389197	0.714325	1.158581
C97	C	0.884887	0.218665	0.749392
C98	C	1.384887	0.718665	1.249392
C99	C	0.991523	0.111655	0.749393
C100	C	1.491523	0.611655	1.249393
C101	C	0.995836	0.107321	0.658586
C102	C	1.495836	0.607321	1.158586
C103	C	0.944671	0.158653	0.613185
C104	C	1.444671	0.658653	1.113185
N105	N	0.903410	0.200042	0.479822
N106	N	1.403410	0.700042	0.979822
N107	N	0.949081	0.154211	0.520367
N108	N	1.449081	0.654211	1.020367
H109	H	0.522926	0.290381	0.000071
H110	H	1.022926	0.790381	0.500071
O111	O	1.013021	0.090195	0.385804
O112	O	1.513021	0.590195	0.885804
C113	C	1.058902	0.140976	0.438300
C114	C	1.558902	0.640976	0.938300
H115	H	1.027022	0.205236	0.451891
H116	H	1.527022	0.705236	0.951891
H117	H	1.068270	0.109812	0.502162
H118	H	1.568270	0.609812	1.002162
H119	H	1.118514	0.148940	0.403299
H120	H	1.618514	0.648940	0.903299
H121	H	0.862790	-0.376554	-0.131158
H122	H	1.362790	0.123446	0.368842
H123	H	0.329568	0.063878	0.000121
H124	H	0.829568	0.563878	0.500121
H125	H	0.556825	0.015004	0.000114
H126	H	1.056825	0.515004	0.500114
H127	H	1.012791	0.090262	0.213832
H128	H	1.512791	0.590262	0.713832
H129	H	0.295665	0.339262	0.000069
H130	H	0.795665	0.839262	0.500069
O131	O	0.176107	0.038672	0.000095
O132	O	0.676107	0.538672	0.500095
C133	C	0.093148	0.047971	0.000117
C134	C	0.593148	0.547971	0.500117
H135	H	0.075251	0.110926	-0.027208
H136	H	0.575251	0.610926	0.472792
H137	H	0.070024	-0.005179	-0.041754
H138	H	0.570024	0.494821	0.458246
H139	H	0.067087	0.045686	0.069328
H140	H	0.567087	0.545686	0.569328
H141	H	1.041007	0.061987	0.621621
H142	H	1.541007	0.561987	1.121621
H143	H	1.033179	0.069863	0.786368
H144	H	1.533179	0.569863	1.286368
H145	H	0.850256	-0.364079	0.131345
H146	H	1.350256	0.135921	0.631345
H147	H	0.839712	0.264005	0.786355
H148	H	1.339712	0.764005	1.286355
H149	H	0.847537	0.256123	0.621622
H150	H	1.347537	0.756123	1.121622
H151	H	0.705207	0.027792	0.000090
H152	H	1.205207	0.527792	0.500090
O153	O	0.802843	0.301002	0.385828
O154	O	1.302843	0.801002	0.885828
C155	C	0.809991	0.293816	0.475712
C156	C	1.309991	0.793816	0.975712
H157	H	0.871738	0.267239	0.488111
H158	H	1.371738	0.767239	0.988111
H159	H	0.799629	0.358487	0.510210
H160	H	1.299629	0.858487	1.010210
H161	H	0.764388	0.249913	0.501498
H162	H	1.264388	0.749913	1.001498
O163	O	0.777288	-0.254814	0.000306
O164	O	1.277288	0.245186	0.500306
C165	C	0.734173	-0.276880	0.075427
C166	C	1.234173	0.223120	0.575427
H167	H	0.776696	-0.293363	0.127589
H168	H	1.276696	0.206637	0.627589
H169	H	0.692657	-0.221615	0.100245
H170	H	1.192657	0.278385	0.600245
H171	H	0.698304	-0.333501	0.059194
H172	H	1.198304	0.166499	0.559194
H173	H	0.819318	0.284397	0.213821
H174	H	1.319318	0.784397	0.713821
O175	O	0.995324	-0.264358	0.143022
O176	O	1.495324	0.235642	0.643022
C177	C	1.062377	-0.221116	0.117649
C178	C	1.562377	0.278884	0.617649
H179	H	1.056221	-0.199267	0.049005
H180	H	1.556221	0.300733	0.549005
H181	H	1.067724	-0.164237	0.164058
H182	H	1.567724	0.335763	0.664058
H183	H	1.117405	-0.264875	0.119368
H184	H	1.617405	0.235125	0.619368
O185	O	0.676124	0.315719	0.000090
O186	O	1.176124	0.815719	0.500090
C187	C	0.614243	0.378075	0.000068
C188	C	1.114243	0.878075	0.500068
H189	H	0.557385	0.352101	0.027386
H190	H	1.057385	0.852101	0.527386
H191	H	0.629343	0.435191	0.041945
H192	H	1.129343	0.935191	0.541945
H193	H	0.605962	0.397358	-0.069142
H194	H	1.105962	0.897358	0.430858
H195	H	0.147286	0.326467	0.000091
H196	H	0.647286	0.826467	0.500091
O197	O	1.075274	-0.390694	0.000350
O198	O	1.575274	0.109306	0.500350
C199	C	1.111207	-0.361331	0.075434
C200	C	1.611207	0.138669	0.575434
H201	H	1.063702	-0.339956	0.127608
H202	H	1.563702	0.160044	0.627608
H203	H	1.150481	-0.414124	0.100264
H204	H	1.650481	0.085876	0.600264
H205	H	1.148494	-0.306172	0.059147
H206	H	1.648494	0.193828	0.559147
H207	H	1.002180	-0.281632	-0.131141
H208	H	1.502180	0.218368	0.368859
