data_functionalizedCrystal
_audit_creation_method	'MofGen! by Chris Wilmer'
_symmetry_space_group_name_H-M	'P1'
_symmetry_Int_Tables_number	1
_symmetry_cell_setting	triclinic
loop_
_symmetry_equiv_pos_as_xyz
  x,y,z
_cell_length_a	27.732066
_cell_length_b	14.971506
_cell_length_c	26.809956
_cell_angle_alpha	90.024203
_cell_angle_beta	89.997565
_cell_angle_gamma	96.863755
loop_
_atom_site_label
_atom_site_type_symbol
_atom_site_fract_x
_atom_site_fract_y
_atom_site_fract_z
O1	O	-0.063035	1.185970	0.041479
O2	O	-0.070568	0.925455	0.041478
O3	O	0.003557	1.063795	0.041480
O4	O	-0.137160	1.047630	0.041477
O5	O	0.003558	1.063733	-0.041479
O6	O	-0.070567	0.925392	-0.041481
O7	O	-0.063034	1.185908	-0.041480
Zn8	Zn	-0.066800	1.055640	-0.054652
Zn9	Zn	-0.066802	1.055722	0.054650
O10	O	-0.137159	1.047568	-0.041482
C11	C	-0.070229	0.892104	-0.000001
C12	C	-0.069214	0.792824	-0.000001
C13	C	0.021566	1.063422	0.000002
C14	C	0.075225	1.062393	0.000006
C15	C	-0.108889	0.353919	0.000003
C16	C	-0.109838	0.447205	0.000005
C17	C	-0.066287	0.505108	0.000004
C18	C	-0.021783	0.469721	0.000006
C19	C	-0.020834	0.376437	0.000007
C20	C	-0.023765	0.664153	0.000002
C21	C	-0.024714	0.757443	-0.000001
C22	C	-0.112769	0.734920	-0.000000
C23	C	-0.111820	0.641637	0.000001
C24	C	-0.067316	0.606257	0.000002
C25	C	0.452710	0.973633	0.000006
C26	C	0.251033	0.977421	0.000008
O27	O	0.220101	0.908550	0.000028
N28	N	0.231523	1.059455	0.000008
C29	C	0.262437	1.140548	0.000011
O30	O	0.241216	1.210410	0.000017
C31	C	0.464114	1.136758	0.000013
C32	C	0.483620	1.054719	0.000008
C33	C	0.472217	0.891600	0.000001
C34	C	0.522634	0.890654	-0.000002
C35	C	0.553543	0.971740	-0.000000
C36	C	0.534037	1.053773	0.000004
C37	C	0.495027	1.217850	0.000020
C38	C	0.545448	1.216896	0.000021
C39	C	0.564955	1.134856	0.000016
C40	C	0.615363	1.133913	0.000003
N41	N	0.634872	1.051879	0.000003
C42	C	0.603962	0.970793	0.000001
C43	C	0.156554	1.142532	0.000009
C44	C	0.106135	1.143479	0.000008
C45	C	0.094734	0.980352	0.000006
C46	C	0.145154	0.979405	0.000003
C47	C	0.176063	1.060497	0.000009
C48	C	0.709841	0.968811	-0.000006
C49	C	0.760262	0.967872	-0.000011
C50	C	0.771659	1.130999	-0.000006
C51	C	0.721242	1.131939	-0.000004
C52	C	0.690334	1.050838	-0.000002
O53	O	0.646323	1.202748	-0.000012
O54	O	0.625193	0.900941	0.000007
C55	C	0.402294	0.974579	0.000009
C56	C	0.382787	1.056612	0.000014
C57	C	0.413697	1.137698	0.000016
C58	C	0.332368	1.057559	0.000013
C59	C	0.301459	0.976473	0.000011
C60	C	0.320968	0.894439	0.000011
C61	C	0.371384	0.893492	0.000008
C62	C	0.394188	1.219732	0.000016
C63	C	0.343771	1.220672	0.000018
C64	C	0.312861	1.139585	0.000017
C65	C	0.844832	1.047938	-0.000004
C66	C	0.791172	1.048959	-0.000010
C67	C	-0.063373	1.219258	0.000000
C68	C	-0.064388	1.318539	0.000003
N69	N	-0.066799	1.055591	-0.129248
C70	C	-0.099608	0.994404	-0.526132
C71	C	-0.099608	0.994357	-0.317255
O72	O	-0.127499	0.942221	-0.290255
N73	N	-0.066798	1.055622	-0.291127
C74	C	-0.033982	1.116899	-0.317222
O75	O	-0.006071	1.169001	-0.290205
C76	C	-0.033980	1.116940	-0.526098
C77	C	-0.066797	1.055678	-0.552223
C78	C	-0.132422	0.933146	-0.552257
C79	C	-0.132423	0.933161	-0.604474
C80	C	-0.099611	0.994435	-0.630565
C81	C	-0.066798	1.055693	-0.604440
C82	C	-0.001163	1.178212	-0.552192
C83	C	-0.001165	1.178216	-0.604415
C84	C	-0.033981	1.116953	-0.630540
C85	C	-0.033988	1.116983	-0.682747
N86	N	-0.066799	1.055718	-0.708875
C87	C	-0.099610	0.994444	-0.682784
C88	C	-0.033986	1.116874	-0.207558
C89	C	-0.033987	1.116864	-0.155339
C90	C	-0.099613	0.994322	-0.155376
C91	C	-0.099614	0.994336	-0.207596
C92	C	-0.066797	1.055609	-0.233686
C93	C	-0.099611	0.994482	-0.792442
C94	C	-0.099611	0.994505	-0.844663
C95	C	-0.033984	1.117045	-0.844621
C96	C	-0.033986	1.117025	-0.792405
C97	C	-0.066801	1.055736	-0.766317
O98	O	-0.006108	1.169085	-0.709779
O99	O	-0.127510	0.942337	-0.709809
C100	C	-0.099607	0.994388	-0.473916
C101	C	-0.066794	1.055647	-0.447791
C102	C	-0.033982	1.116921	-0.473882
C103	C	-0.066795	1.055637	-0.395572
C104	C	-0.099607	0.994364	-0.369481
C105	C	-0.132417	0.933099	-0.395609
C106	C	-0.132419	0.933115	-0.447825
C107	C	-0.001171	1.178185	-0.447754
C108	C	-0.001173	1.178165	-0.395538
C109	C	-0.033985	1.116891	-0.369447
N110	N	-0.066799	1.055779	0.129246
H111	H	-0.144353	0.306780	0.000000
C112	C	-0.168516	0.865714	-0.476556
N113	N	-0.195706	0.814942	-0.498192
C114	C	0.392834	0.803242	0.000005
N115	N	0.408987	0.735260	0.000005
H116	H	-0.159141	0.883245	-0.531019
C117	C	0.190548	1.231746	0.000007
N118	N	0.216151	1.298943	0.000001
C119	C	-0.158792	0.486119	-0.000002
N120	N	-0.195667	0.515428	-0.000009
C121	C	0.544083	0.800403	-0.000002
N122	N	0.560236	0.732422	0.000001
H123	H	0.419350	1.285764	0.000018
H124	H	0.447055	0.825566	0.000002
C125	C	0.166605	0.889157	0.000002
N126	N	0.182760	0.821177	0.000003
C127	C	-0.135711	0.926937	-0.236329
N128	N	-0.162899	0.876167	-0.257968
C129	C	-0.135704	0.926915	-0.126666
N130	N	-0.162883	0.876142	-0.105039
H131	H	-0.126332	0.944574	-0.771206
C132	C	-0.135711	0.927105	-0.873397
N133	N	-0.162900	0.876339	-0.895038
C134	C	0.002109	1.184439	-0.873332
N135	N	0.029298	1.235196	-0.894958
C136	C	0.025192	0.625238	0.000001
N137	N	0.062066	0.595926	-0.000002
C138	C	0.002110	1.184264	-0.126608
N139	N	0.029301	1.235028	-0.104969
C140	C	-0.168518	0.865757	-0.633205
N141	N	-0.195705	0.814980	-0.654841
H142	H	0.010750	0.804586	0.000002
H143	H	0.479154	1.284655	0.000024
H144	H	0.295792	0.828415	0.000006
H145	H	0.013677	0.516873	0.000008
H146	H	0.015403	0.347632	0.000008
C147	C	0.034937	1.245624	-0.633111
N148	N	0.062127	1.296398	-0.654723
C149	C	0.322320	1.310928	0.000023
N150	N	0.306166	1.378907	0.000032
C151	C	-0.161724	0.773840	0.000003
N152	N	-0.198596	0.803159	0.000005
C153	C	0.002111	1.184421	-0.763667
N154	N	0.029303	1.235180	-0.742024
H155	H	0.069558	0.914328	0.000002
H156	H	-0.159136	0.883210	-0.374357
H157	H	-0.007262	1.166772	-0.228797
H158	H	0.776141	0.901063	-0.000018
H159	H	0.090257	1.210284	0.000004
H160	H	0.025559	1.228097	-0.530928
C161	C	0.034931	1.245563	-0.366806
N162	N	0.062126	1.296320	-0.345167
C163	C	0.675849	0.879596	-0.000007
N164	N	0.650246	0.812399	-0.000012
C165	C	0.579446	1.306106	0.000025
N166	N	0.605052	1.373299	0.000026
H167	H	0.705359	1.198742	-0.000006
C168	C	0.034932	1.245585	-0.476447
N169	N	0.062127	1.296355	-0.498057
H170	H	-0.147283	0.594494	-0.000001
H171	H	0.796835	1.197017	-0.000007
