data_functionalizedCrystal
_audit_creation_method	'MofGen! by Chris Wilmer'
_symmetry_space_group_name_H-M	'P1'
_symmetry_Int_Tables_number	1
_symmetry_cell_setting	triclinic
loop_
_symmetry_equiv_pos_as_xyz
  x,y,z
_cell_length_a	17.699083
_cell_length_b	15.995350
_cell_length_c	16.776229
_cell_angle_alpha	89.995580
_cell_angle_beta	89.998886
_cell_angle_gamma	83.387695
loop_
_atom_site_label
_atom_site_type_symbol
_atom_site_fract_x
_atom_site_fract_y
_atom_site_fract_z
O1	O	1.004255	0.105885	-0.066173
O2	O	1.504255	0.605885	0.433827
O3	O	0.783899	0.119661	-0.066198
O4	O	1.283899	0.619661	0.433802
O5	O	0.900100	-0.009127	-0.066184
O6	O	1.400100	0.490873	0.433816
O7	O	0.888053	0.234673	-0.066187
O8	O	1.388053	0.734673	0.433813
O9	O	0.900085	-0.009135	0.066393
O10	O	1.400085	0.490865	0.566393
O11	O	0.783884	0.119653	0.066378
O12	O	1.283884	0.619653	0.566378
O13	O	1.004239	0.105877	0.066404
O14	O	1.504239	0.605877	0.566404
Zn15	Zn	0.894059	0.112764	0.087441
Zn16	Zn	1.394059	0.612764	0.587441
Zn17	Zn	0.894079	0.112774	-0.087235
Zn18	Zn	1.394079	0.612774	0.412765
O19	O	0.888038	0.234665	0.066390
O20	O	1.388038	0.734665	0.566390
C21	C	0.755694	0.119163	0.000087
C22	C	1.255694	0.619163	0.500087
C23	C	0.671673	0.117683	0.000077
C24	C	1.171673	0.617683	0.500077
C25	C	0.623178	0.193278	0.000076
C26	C	1.123178	0.693278	0.500076
C27	C	0.544232	0.191882	0.000087
C28	C	1.044232	0.691882	0.500087
C29	C	0.513783	0.114889	0.000092
C30	C	1.013783	0.614889	0.500092
C31	C	0.562285	0.039287	0.000095
C32	C	1.062285	0.539287	0.500095
C33	C	0.641229	0.040685	0.000090
C34	C	1.141229	0.540685	0.500090
C35	C	0.243912	0.033651	0.000115
C36	C	0.743912	0.533651	0.500115
C37	C	0.164962	0.032259	0.000117
C38	C	0.664962	0.532259	0.500117
C39	C	0.146916	0.184848	0.000111
C40	C	0.646916	0.684848	0.500111
C41	C	0.225860	0.186245	0.000106
C42	C	0.725860	0.686245	0.500106
C43	C	0.274354	0.110644	0.000114
C44	C	0.774354	0.610644	0.500114
C45	C	0.359956	0.112159	0.000104
C46	C	0.859956	0.612159	0.500104
C47	C	0.428183	0.113373	0.000096
C48	C	0.928183	0.613373	0.500096
C49	C	0.899595	-0.040324	0.000103
C50	C	1.399595	0.459676	0.500103
C51	C	0.898101	-0.133272	0.000098
C52	C	1.398101	0.366728	0.500098
C53	C	0.892739	-0.471008	0.000100
C54	C	1.392739	0.028992	0.500100
C55	C	0.809983	-0.423406	-0.000207
C56	C	1.309983	0.076594	0.499793
C57	C	0.811476	-0.326719	0.000092
C58	C	1.311476	0.173281	0.500092
C59	C	0.895399	-0.303453	0.000099
C60	C	1.395399	0.196547	0.500099
C61	C	0.936209	-0.344618	0.075810
C62	C	1.436209	0.155382	0.575810
C63	C	0.934130	-0.441250	0.075873
C64	C	1.434130	0.058750	0.575873
C65	C	0.935857	-0.441602	-0.074891
C66	C	1.435857	0.058398	0.425109
C67	C	0.935837	-0.344657	-0.075892
C68	C	1.435837	0.155343	0.424108
C69	C	0.896907	-0.208759	0.000101
C70	C	1.396907	0.291241	0.500101
C71	C	0.891234	-0.565703	0.000104
C72	C	1.391234	-0.065703	0.500104
C73	C	1.032445	0.106375	0.000117
C74	C	1.532445	0.606375	0.500117
C75	C	1.116465	0.107856	0.000122
C76	C	1.616465	0.607856	0.500122
C77	C	0.888544	0.265863	0.000101
C78	C	1.388544	0.765863	0.500101
C79	C	0.890037	0.358810	0.000101
C80	C	1.390037	0.858810	0.500101
N81	N	0.894051	0.112756	0.206652
N82	N	1.394051	0.612756	0.706652
N83	N	0.894094	0.112775	-0.206446
N84	N	1.394094	0.612775	0.293554
C85	C	0.945520	0.055752	0.248375
C86	C	1.445520	0.555752	0.748375
C87	C	0.945524	0.055752	0.331827
C88	C	1.445524	0.555752	0.831827
C89	C	0.894062	0.112760	0.373555
C90	C	1.394062	0.612760	0.873555
C91	C	0.842587	0.169766	0.331825
C92	C	1.342587	0.669766	0.831825
C93	C	0.842580	0.169762	0.248375
C94	C	1.342580	0.669762	0.748375
C95	C	0.842614	0.169783	0.668373
C96	C	1.342614	0.669783	1.168373
C97	C	0.842627	0.169784	0.751829
C98	C	1.342627	0.669784	1.251829
C99	C	0.945559	0.055772	0.751825
C100	C	1.445559	0.555772	1.251825
C101	C	0.945552	0.055768	0.668375
C102	C	1.445552	0.555768	1.168375
C103	C	0.894074	0.112771	0.626653
C104	C	1.394074	0.612771	1.126653
C105	C	0.894069	0.112770	0.536164
C106	C	1.394069	0.612770	1.036164
C107	C	0.894070	0.112765	0.464041
C108	C	1.394070	0.612765	0.964041
H109	H	0.680714	-0.020873	0.000090
H110	H	1.180714	0.479127	0.500090
H111	H	0.908806	-0.462084	-0.132275
H112	H	1.408806	0.037916	0.367725
H113	H	0.504750	0.253440	0.000085
H114	H	1.004750	0.753440	0.500085
H115	H	0.800681	0.216180	0.365805
H116	H	1.300681	0.716180	0.865805
H117	H	0.777046	-0.442936	0.053777
H118	H	1.277046	0.057064	0.553777
H119	H	0.800717	0.216208	0.785802
H120	H	1.300717	0.716208	1.285802
N121	N	1.012614	-0.325552	-0.081647
N122	N	1.512614	0.174448	0.418353
N123	N	1.033357	-0.286863	-0.141031
N124	N	1.533357	0.213137	0.358969
H125	H	1.087585	-0.273373	-0.145095
H126	H	1.587585	0.226627	0.354905
H127	H	0.987460	0.009350	0.634403
H128	H	1.487460	0.509350	1.134403
N129	N	0.898449	-0.310329	-0.146152
N130	N	1.398449	0.189671	0.353848
N131	N	0.842230	-0.255718	-0.140344
N132	N	1.342230	0.244282	0.359656
H133	H	0.815822	-0.231469	-0.189964
H134	H	1.315822	0.268531	0.310036
N135	N	1.012402	-0.481594	-0.075509
N136	N	1.512402	0.018406	0.424491
N137	N	1.035190	-0.531547	-0.021019
N138	N	1.535190	-0.031547	0.478981
H139	H	1.089249	-0.559791	-0.021446
H140	H	1.589249	-0.059791	0.478554
H141	H	0.907852	-0.316183	0.132147
H142	H	1.407852	0.183817	0.632147
N143	N	0.998135	-0.002456	0.794457
N144	N	1.498135	0.497544	1.294457
N145	N	0.998136	-0.002451	0.868966
N146	N	1.498136	0.497549	1.368966
H147	H	1.035268	-0.043572	0.899074
H148	H	1.535268	0.456428	1.399074
N149	N	0.998054	-0.002531	0.205768
N150	N	1.498054	0.497469	0.705768
N151	N	1.043973	-0.053457	0.243035
N152	N	1.543973	0.446543	0.743035
H153	H	1.081059	-0.094643	0.212947
H154	H	1.581059	0.405357	0.712947
N155	N	0.133845	-0.046384	0.000123
N156	N	0.633845	0.453616	0.500123
N157	N	0.091804	-0.064185	-0.055758
N158	N	0.591804	0.435815	0.444242
H159	H	0.069824	-0.119722	-0.055755
H160	H	0.569824	0.380278	0.444245
N161	N	0.097389	0.262083	0.000106
N162	N	0.597389	0.762083	0.500106
N163	N	0.100163	0.313325	-0.055783
N164	N	0.600163	0.813325	0.444217
H165	H	0.065187	0.367872	-0.055789
H166	H	0.565187	0.867872	0.444211
N167	N	0.998102	-0.002485	0.374434
N168	N	1.498102	0.497515	0.874434
N169	N	1.044048	-0.053379	0.337168
N170	N	1.544048	0.446621	0.837168
H171	H	1.081183	-0.094513	0.367258
H172	H	1.581183	0.405487	0.867258
H173	H	0.779397	-0.298228	-0.054181
H174	H	1.279397	0.201772	0.445819
N175	N	0.768503	-0.446563	-0.068326
N176	N	1.268503	0.053437	0.431674
N177	N	0.799445	-0.498423	-0.117442
N178	N	1.299445	0.001577	0.382558
H179	H	0.770151	-0.514781	-0.165555
H180	H	1.270151	-0.014781	0.334445
H181	H	0.800667	0.216180	0.214404
H182	H	1.300667	0.716180	0.714404
H183	H	0.800701	0.216198	0.634409
H184	H	1.300701	0.716198	1.134409
H185	H	0.250646	0.248941	0.000098
H186	H	0.750646	0.748941	0.500098
N187	N	0.654264	0.271934	0.000064
N188	N	1.154264	0.771934	0.500064
N189	N	0.610952	0.339424	0.000065
N190	N	1.110952	0.839424	0.500065
H191	H	0.632904	0.394977	0.000058
H192	H	1.132904	0.894977	0.500058
N193	N	1.010351	-0.481853	0.080199
N194	N	1.510351	0.018147	0.580199
N195	N	1.064909	-0.438796	0.083167
N196	N	1.564909	0.061204	0.583167
H197	H	1.118740	-0.467468	0.086228
H198	H	1.618740	0.032532	0.586228
H199	H	0.904358	-0.459494	0.132463
H200	H	1.404358	0.040506	0.632463
N201	N	0.293439	-0.043573	0.000129
N202	N	0.793439	0.456427	0.500129
N203	N	0.290661	-0.094817	0.056014
N204	N	0.790661	0.405183	0.556014
H205	H	0.325642	-0.149361	0.056024
H206	H	0.825642	0.350639	0.556024
N207	N	0.531184	-0.039360	0.000117
N208	N	1.031184	0.460640	0.500117
N209	N	0.489149	-0.057165	0.056005
N210	N	0.989149	0.442835	0.556005
H211	H	0.467186	-0.112712	0.056021
H212	H	0.967186	0.387288	0.556021
N213	N	0.770940	-0.291677	0.068278
N214	N	1.270940	0.208323	0.568278
N215	N	0.702250	-0.300819	0.077133
N216	N	1.202250	0.199181	0.577133
H217	H	0.673620	-0.276072	0.125293
H218	H	1.173620	0.223928	0.625293
N219	N	1.013555	-0.327056	0.079340
N220	N	1.513555	0.172944	0.579340
N221	N	1.039525	-0.283899	0.025969
N222	N	1.539525	0.216101	0.525969
H223	H	1.094151	-0.271494	0.028460
H224	H	1.594151	0.228506	0.528460
