data_functionalizedCrystal
_audit_creation_method	'MofGen! by Chris Wilmer'
_symmetry_space_group_name_H-M	'P1'
_symmetry_Int_Tables_number	1
_symmetry_cell_setting	triclinic
loop_
_symmetry_equiv_pos_as_xyz
  x,y,z
_cell_length_a	15.995350
_cell_length_b	23.532407
_cell_length_c	15.072220
_cell_angle_alpha	89.994175
_cell_angle_beta	89.991149
_cell_angle_gamma	83.170526
loop_
_atom_site_label
_atom_site_type_symbol
_atom_site_fract_x
_atom_site_fract_y
_atom_site_fract_z
O1	O	1.110385	0.073404	-0.073717
O2	O	1.610385	0.573404	0.426283
O3	O	0.866535	0.082469	-0.073736
O4	O	1.366535	0.582469	0.426264
O5	O	0.995813	-0.004967	-0.073710
O6	O	1.495813	0.495033	0.426290
O7	O	0.981107	0.160840	-0.073743
O8	O	1.481107	0.660840	0.426257
O9	O	0.995781	-0.004962	0.073856
O10	O	1.495781	0.495038	0.573856
O11	O	0.866503	0.082474	0.073829
O12	O	1.366503	0.582474	0.573829
O13	O	1.110354	0.073409	0.073848
O14	O	1.610354	0.573409	0.573848
Zn15	Zn	0.988423	0.077942	0.097268
Zn16	Zn	1.488423	0.577942	0.597268
Zn17	Zn	0.988465	0.077935	-0.097155
Zn18	Zn	1.488465	0.577935	0.402845
O19	O	0.981075	0.160845	0.073822
O20	O	1.481075	0.660845	0.573822
C21	C	0.835327	0.082096	0.000044
C22	C	1.335327	0.582096	0.500044
C23	C	0.742386	0.080973	0.000038
C24	C	1.242386	0.580973	0.500038
C25	C	0.404672	0.076938	0.000057
C26	C	0.904672	0.576938	0.500057
C27	C	0.452624	0.014668	0.000399
C28	C	0.952624	0.514668	0.500399
C29	C	0.549305	0.015792	0.000060
C30	C	1.049305	0.515792	0.500060
C31	C	0.572216	0.078939	0.000048
C32	C	1.072216	0.578939	0.500048
C33	C	0.530892	0.109650	-0.084222
C34	C	1.030892	0.609650	0.415778
C35	C	0.434269	0.108086	-0.084286
C36	C	0.934269	0.608086	0.415714
C37	C	0.433883	0.109378	0.083523
C38	C	0.933883	0.609378	0.583523
C39	C	0.530828	0.109363	0.084631
C40	C	1.030828	0.609363	0.584631
C41	C	0.666904	0.080074	0.000040
C42	C	1.166904	0.580074	0.500040
C43	C	0.309984	0.075805	0.000059
C44	C	0.809984	0.575805	0.500059
C45	C	0.995423	-0.026182	0.000075
C46	C	1.495423	0.473818	0.500075
C47	C	0.994297	-0.089404	0.000082
C48	C	1.494297	0.410596	0.500082
C49	C	1.063739	-0.488239	0.000039
C50	C	1.563739	0.011761	0.500039
C51	C	1.062693	-0.547644	0.000032
C52	C	1.562693	-0.047644	0.500032
O53	O	1.127067	-0.584141	0.000004
O54	O	1.627067	-0.084141	0.500004
N55	N	0.985837	-0.570566	0.000027
N56	N	1.485837	-0.070566	0.500027
C57	C	0.910022	-0.534080	0.000019
C58	C	1.410022	-0.034080	0.500019
O59	O	0.844554	-0.559031	0.000013
O60	O	1.344554	-0.059031	0.500013
C61	C	0.911069	-0.474677	0.000019
C62	C	1.411069	0.025323	0.500019
C63	C	0.987930	-0.451758	0.000034
C64	C	1.487930	0.048242	0.500034
C65	C	1.140594	-0.465320	0.000052
C66	C	1.640594	0.034680	0.500052
C67	C	1.141640	-0.405920	0.000061
C68	C	1.641640	0.094080	0.500061
C69	C	1.065830	-0.369439	0.000056
C70	C	1.565830	0.130561	0.500056
C71	C	0.988975	-0.392358	0.000042
C72	C	1.488975	0.107642	0.500042
C73	C	0.835255	-0.438192	0.000005
C74	C	1.335255	0.061808	0.500005
C75	C	0.836308	-0.378785	0.000005
C76	C	1.336308	0.121215	0.500005
C77	C	0.913169	-0.355867	0.000020
C78	C	1.413169	0.144133	0.500020
C79	C	0.914212	-0.296477	0.000046
C80	C	1.414212	0.203523	0.500046
N81	N	0.991068	-0.273555	0.000051
N82	N	1.491068	0.226445	0.500051
C83	C	1.066877	-0.310036	0.000056
C84	C	1.566877	0.189964	0.500056
C85	C	0.907829	-0.658831	0.000016
C86	C	1.407829	-0.158831	0.500016
C87	C	0.906781	-0.718233	0.000022
C88	C	1.406781	-0.218233	0.500022
C89	C	1.059453	-0.731793	0.000034
C90	C	1.559453	-0.231793	0.500034
C91	C	1.060500	-0.672389	0.000034
C92	C	1.560500	-0.172389	0.500034
C93	C	0.984685	-0.635909	0.000022
C94	C	1.484685	-0.135909	0.500022
C95	C	1.069067	-0.185291	0.000075
C96	C	1.569067	0.314709	0.500075
C97	C	1.070106	-0.125885	0.000087
C98	C	1.570106	0.374115	0.500087
C99	C	0.917435	-0.112330	0.000071
C100	C	1.417435	0.387670	0.500071
C101	C	0.916396	-0.171731	0.000063
C102	C	1.416396	0.328269	0.500063
C103	C	0.992219	-0.208210	0.000062
C104	C	1.492219	0.291790	0.500062
O105	O	0.849872	-0.259945	0.000070
O106	O	1.349872	0.240055	0.500070
O107	O	1.132335	-0.285076	0.000051
O108	O	1.632335	0.214924	0.500051
C109	C	1.141561	0.073781	0.000066
C110	C	1.641561	0.573781	0.500066
C111	C	1.234502	0.074905	0.000067
C112	C	1.734502	0.574905	0.500067
C113	C	0.981465	0.182060	0.000035
C114	C	1.481465	0.682060	0.500035
C115	C	0.982591	0.245281	0.000023
C116	C	1.482591	0.745281	0.500023
N117	N	0.988401	0.077946	0.229957
N118	N	1.488401	0.577946	0.729957
N119	N	0.988494	0.077927	-0.229844
N120	N	1.488494	0.577927	0.270156
C121	C	0.988463	0.077933	0.589158
C122	C	1.488463	0.577933	1.089158
C123	C	0.919059	0.124562	0.551537
C124	C	1.419059	0.624562	1.051537
C125	C	0.919216	0.124732	0.448711
C126	C	1.419216	0.624732	0.948711
C127	C	0.988431	0.077940	0.410954
C128	C	1.488431	0.577940	0.910954
C129	C	1.075688	0.090918	0.448249
C130	C	1.575688	0.590918	0.948249
C131	C	1.075299	0.091250	0.551107
C132	C	1.575299	0.591250	1.051107
C133	C	0.971391	0.018188	0.551269
C134	C	1.471391	0.518188	1.051269
C135	C	0.969383	0.018587	0.448405
C136	C	1.469383	0.518587	0.948405
C137	C	0.988419	0.077942	0.310241
C138	C	1.488419	0.577942	0.810241
C139	C	0.988482	0.077932	0.689872
C140	C	1.488482	0.577932	1.189872
H141	H	0.401740	0.155290	0.084084
H142	H	0.901740	0.655290	0.584084
Br143	Br	0.596066	-0.024542	-0.100961
Br144	Br	1.096066	0.475458	0.399039
Br145	Br	0.422073	-0.026817	0.101127
Br146	Br	0.922073	0.473183	0.601127
Br147	Br	1.101518	0.162712	0.405289
Br148	Br	1.601518	0.662712	0.905289
H149	H	0.909172	0.005708	0.577257
H150	H	1.409172	0.505708	1.077257
H151	H	0.929757	0.168648	0.577368
H152	H	1.429757	0.668648	1.077368
H153	H	0.577922	-0.008349	0.060468
H154	H	1.077922	0.491651	0.560468
H155	H	1.090419	0.134821	0.575081
H156	H	1.590419	0.634821	1.075081
Br157	Br	0.937261	0.198636	0.407665
Br158	Br	1.437261	0.698636	0.907665
Br159	Br	1.243493	-0.514821	0.000058
Br160	Br	1.743493	-0.014821	0.500058
H161	H	0.854341	0.116999	0.423497
H162	H	1.354341	0.616999	0.923497
H163	H	1.022010	-0.016511	0.575598
H164	H	1.522010	0.483489	1.075598
H165	H	0.853973	0.116956	0.576295
H166	H	1.353973	0.616956	1.076295
H167	H	0.774569	-0.349085	-0.000006
H168	H	1.274569	0.150915	0.499994
Br169	Br	0.862403	0.002167	0.407783
Br170	Br	1.362403	0.502167	0.907783
H171	H	0.401641	0.153804	-0.088119
H172	H	0.901641	0.653804	0.411881
Br173	Br	1.162338	-0.781314	0.000037
Br174	Br	1.662338	-0.281314	0.500037
Br175	Br	0.553816	0.186970	-0.089484
Br176	Br	1.053816	0.686970	0.410516
H177	H	1.128531	0.058627	0.575992
H178	H	1.628531	0.558627	1.075992
Br179	Br	0.812084	-0.202836	0.000064
Br180	Br	1.312084	0.297164	0.500064
H181	H	0.433249	-0.010110	-0.059692
H182	H	0.933249	0.489890	0.440308
Br183	Br	1.174425	-0.094785	0.000108
Br184	Br	1.674425	0.405215	0.500108
H185	H	0.416160	0.085686	-0.147271
H186	H	0.916160	0.585686	0.352729
H187	H	0.559457	0.088316	-0.146929
H188	H	1.059457	0.588316	0.353071
Br189	Br	0.399920	0.075450	0.189985
Br190	Br	0.899920	0.575450	0.689985
Br191	Br	1.163795	0.035819	0.407492
Br192	Br	1.663795	0.535819	0.907492
Br193	Br	1.164815	-0.641292	0.000056
Br194	Br	1.664815	-0.141292	0.500056
Br195	Br	0.802466	-0.749328	0.000024
Br196	Br	1.302466	-0.249328	0.500024
H197	H	0.558318	0.086945	0.146973
H198	H	1.058318	0.586945	0.646973
H199	H	1.016688	-0.017738	0.422708
H200	H	1.516688	0.482262	0.922708
Br201	Br	0.555790	0.186119	0.093100
Br202	Br	1.055790	0.686119	0.593100
Br203	Br	1.171971	-0.234789	0.000073
Br204	Br	1.671971	0.265211	0.500073
H205	H	0.846088	-0.629131	0.000014
H206	H	1.346088	-0.129131	0.500014
Br207	Br	0.730936	-0.469280	-0.000018
Br208	Br	1.230936	0.030720	0.499982
Br209	Br	0.814556	-0.062809	0.000064
Br210	Br	1.314556	0.437191	0.500064
Br211	Br	1.245957	-0.374826	0.000055
Br212	Br	1.745957	0.125174	0.500055
