data_functionalizedCrystal
_audit_creation_method	'MofGen! by Chris Wilmer'
_symmetry_space_group_name_H-M	'P1'
_symmetry_Int_Tables_number	1
_symmetry_cell_setting	triclinic
loop_
_symmetry_equiv_pos_as_xyz
  x,y,z
_cell_length_a	15.944551
_cell_length_b	19.188930
_cell_length_c	15.021413
_cell_angle_alpha	89.998889
_cell_angle_beta	89.997174
_cell_angle_gamma	83.321760
loop_
_atom_site_label
_atom_site_type_symbol
_atom_site_fract_x
_atom_site_fract_y
_atom_site_fract_z
O1	O	1.114192	0.090039	-0.073949
O2	O	0.869601	0.101141	-0.073973
O3	O	0.998955	-0.006048	-0.073943
O4	O	0.984838	0.197227	-0.073979
O5	O	0.998934	-0.006033	0.074121
O6	O	0.869580	0.101156	0.074091
O7	O	1.114171	0.090054	0.074115
Zn8	Zn	0.991873	0.095607	0.097611
Zn9	Zn	0.991900	0.095587	-0.097470
O10	O	0.984817	0.197242	0.074085
C11	C	0.838298	0.100687	0.000056
C12	C	0.745057	0.099306	0.000048
C13	C	0.998487	-0.032052	0.000091
C14	C	0.997115	-0.109560	0.000099
C15	C	0.530462	0.029563	0.000078
C16	C	0.469331	0.061941	-0.072931
C17	C	0.574341	0.096806	0.000059
C18	C	0.469332	0.061972	0.073048
C19	C	0.409437	0.094386	0.000074
C20	C	0.514438	0.129203	-0.073010
C21	C	0.514446	0.129225	0.073035
C22	C	0.453332	0.161652	0.000008
C23	C	0.669338	0.098198	0.000050
C24	C	0.314441	0.093000	0.000076
C25	C	1.073016	-0.154288	0.000111
C26	C	1.071726	-0.227115	0.000096
C27	C	0.994532	-0.255211	0.000088
C28	C	0.918622	-0.210474	0.000072
C29	C	0.919913	-0.137648	0.000077
N30	N	0.935519	-0.363364	0.050472
N31	N	0.934298	-0.432546	0.050468
C32	C	0.990637	-0.474630	0.000070
N33	N	1.048256	-0.444921	-0.050314
N34	N	1.049480	-0.375733	-0.050307
C35	C	0.993123	-0.334178	0.000082
C36	C	1.065145	-0.598326	0.000064
C37	C	1.063852	-0.671154	0.000044
C38	C	0.910745	-0.654511	0.000029
C39	C	0.912040	-0.581685	0.000040
C40	C	0.989242	-0.553597	0.000062
C41	C	1.145474	0.090507	0.000083
C42	C	1.238715	0.091889	0.000086
C43	C	0.985285	0.223247	0.000048
C44	C	0.986657	0.300755	0.000035
N45	N	0.991860	0.095621	0.230749
N46	N	0.991919	0.095568	-0.230607
C47	C	0.932038	0.145161	0.470418
C48	C	1.007887	0.158716	0.529757
C49	C	0.991882	0.095603	0.412356
C50	C	0.916053	0.082064	0.529759
C51	C	0.991896	0.095588	0.587780
C52	C	1.067770	0.109189	0.470388
C53	C	0.975885	0.032510	0.470384
C54	C	1.051789	0.046038	0.529697
C55	C	0.991872	0.095614	0.311299
C56	C	0.991914	0.095577	0.688835
H57	H	0.564003	-0.026244	-0.000002
O58	O	0.959805	-0.031172	0.439344
C59	C	1.003860	-0.155590	0.435521
C60	C	1.022169	-0.083518	0.470755
H61	H	1.054279	-0.197929	0.460886
H62	H	0.939172	-0.167108	0.459893
H63	H	1.004600	-0.155078	0.359635
H64	H	1.021473	-0.083976	0.546638
H65	H	1.086845	-0.072028	0.446315
O66	O	1.137664	-0.714506	0.000094
C67	C	1.289658	-0.723324	0.000075
C68	C	1.206129	-0.674148	0.000039
H69	H	1.345034	-0.690715	0.000011
H70	H	1.292925	-0.757828	0.062050
H71	H	1.292850	-0.757845	-0.061879
H72	H	1.202882	-0.639584	0.061951
H73	H	1.202897	-0.639693	-0.061977
H74	H	0.449335	0.033494	-0.134646
H75	H	0.881481	0.187105	0.444391
H76	H	0.534463	0.157649	0.134752
H77	H	0.850233	-0.545266	0.000035
O78	O	0.445599	0.027945	0.146658
C79	C	0.458216	-0.080162	0.229801
C80	C	0.485176	-0.041699	0.146420
H81	H	0.490189	-0.136480	0.229627
H82	H	0.477692	-0.052091	0.292043
H83	H	0.386752	-0.080398	0.229428
H84	H	0.556637	-0.041452	0.146706
H85	H	0.465639	-0.069782	0.084215
H86	H	1.135880	-0.131424	0.000125
O87	O	0.835706	-0.681713	0.000138
C88	C	0.704463	-0.689815	0.076853
C89	C	0.789409	-0.658945	0.076835
H90	H	0.667016	-0.671431	0.138865
H91	H	0.666919	-0.671369	0.014928
H92	H	0.716599	-0.749548	0.076805
H93	H	0.777350	-0.599211	0.076915
H94	H	0.826926	-0.677446	0.138755
O95	O	0.839583	0.068441	0.561019
C96	C	0.754199	0.052475	0.690149
C97	C	0.840835	0.067917	0.654873
H98	H	0.755188	0.052032	0.766033
H99	H	0.703221	0.094794	0.665861
H100	H	0.740064	-0.000888	0.664657
H101	H	0.855050	0.121260	0.680350
H102	H	0.891764	0.025557	0.679153
O103	O	1.023903	0.222408	0.560836
C104	C	0.978972	0.346663	0.565850
C105	C	0.960732	0.274572	0.530616
H106	H	0.927920	0.388858	0.541416
H107	H	0.979393	0.345928	0.641738
H108	H	1.043153	0.358576	0.540428
H109	H	0.896550	0.262614	0.555972
H110	H	0.960366	0.275343	0.454729
O111	O	1.145436	-0.270604	-0.000044
C112	C	1.232823	-0.362520	-0.076701
C113	C	1.149327	-0.313301	-0.076666
H114	H	1.235987	-0.397063	-0.138633
H115	H	1.288256	-0.329971	-0.076742
H116	H	1.236013	-0.396998	-0.014707
H117	H	1.146054	-0.278813	-0.138649
H118	H	1.093933	-0.345891	-0.076578
O119	O	0.413555	0.228307	-0.000206
C120	C	0.391471	0.339026	-0.077348
C121	C	0.436558	0.263555	-0.077223
H122	H	0.410065	0.367550	-0.139601
H123	H	0.320204	0.337533	-0.076814
H124	H	0.410812	0.367882	-0.015678
H125	H	0.417285	0.234654	-0.138883
H126	H	0.507816	0.265097	-0.077711
O127	O	1.144219	0.122989	0.439266
C128	C	1.229973	0.138490	0.310279
C129	C	1.143366	0.122838	0.345406
H130	H	1.229319	0.138359	0.234389
H131	H	1.243695	0.192120	0.335221
H132	H	1.281049	0.096525	0.335231
H133	H	1.092235	0.164759	0.320468
H134	H	1.129717	0.069187	0.320471
H135	H	0.534328	0.157617	-0.134801
H136	H	1.102459	0.004119	0.555561
H137	H	0.858103	-0.101230	0.000068
O138	O	0.843688	-0.237846	-0.000053
C139	C	0.753367	-0.310376	-0.076803
C140	C	0.838270	-0.279438	-0.076756
H141	H	0.748951	-0.343998	-0.138820
H142	H	0.748911	-0.344102	-0.014882
H143	H	0.699352	-0.265883	-0.076767
H144	H	0.892334	-0.323886	-0.076824
H145	H	0.842652	-0.245694	-0.138672
H146	H	1.128007	-0.575456	0.000078
