data_functionalizedCrystal
_audit_creation_method	'MofGen! by Chris Wilmer'
_symmetry_space_group_name_H-M	'P1'
_symmetry_Int_Tables_number	1
_symmetry_cell_setting	triclinic
loop_
_symmetry_equiv_pos_as_xyz
  x,y,z
_cell_length_a	18.101398
_cell_length_b	18.101397
_cell_length_c	18.101389
_cell_angle_alpha	90.021047
_cell_angle_beta	90.024802
_cell_angle_gamma	90.018196
loop_
_atom_site_label
_atom_site_type_symbol
_atom_site_fract_x
_atom_site_fract_y
_atom_site_fract_z
Zn1	Zn	1.132176	-0.294952	0.418835
Zn2	Zn	1.382176	-0.044952	0.668835
Zn3	Zn	1.632176	0.205048	0.918835
Zn4	Zn	1.882176	0.455048	1.168835
Zn5	Zn	1.132095	-0.418778	0.294987
Zn6	Zn	1.382095	-0.168778	0.544987
Zn7	Zn	1.632095	0.081222	0.794987
Zn8	Zn	1.882095	0.331222	1.044987
Zn9	Zn	1.008335	-0.294950	0.294995
Zn10	Zn	1.258335	-0.044950	0.544995
Zn11	Zn	1.508335	0.205050	0.794995
Zn12	Zn	1.758335	0.455050	1.044995
Zn13	Zn	1.008308	-0.418751	0.418775
Zn14	Zn	1.258308	-0.168751	0.668775
Zn15	Zn	1.508308	0.081249	0.918775
Zn16	Zn	1.758308	0.331249	1.168775
O17	O	1.070228	-0.356858	0.356898
O18	O	1.320228	-0.106858	0.606898
O19	O	1.570228	0.143142	0.856898
O20	O	1.820228	0.393142	1.106898
O21	O	1.235798	-0.311390	0.402428
O22	O	1.485798	-0.061390	0.652428
O23	O	1.735798	0.188610	0.902428
O24	O	1.985798	0.438610	1.152428
O25	O	1.115655	-0.402362	0.191355
O26	O	1.365655	-0.152362	0.441355
O27	O	1.615655	0.097638	0.691355
O28	O	1.865655	0.347638	0.941355
O29	O	1.024807	-0.191317	0.311450
O30	O	1.274807	0.058683	0.561450
O31	O	1.524807	0.308683	0.811450
O32	O	1.774807	0.558683	1.061450
O33	O	1.235738	-0.402364	0.311438
O34	O	1.485738	-0.152364	0.561438
O35	O	1.735738	0.097636	0.811438
O36	O	1.985738	0.347636	1.061438
O37	O	1.115793	-0.191319	0.402435
O38	O	1.365793	0.058681	0.652435
O39	O	1.615793	0.308681	0.902435
O40	O	1.865793	0.558681	1.152435
O41	O	1.024729	-0.311386	0.191361
O42	O	1.274729	-0.061386	0.441361
O43	O	1.524729	0.188614	0.691361
O44	O	1.774729	0.438614	0.941361
O45	O	0.904698	-0.311360	0.311393
O46	O	1.154698	-0.061360	0.561393
O47	O	1.404698	0.188640	0.811393
O48	O	1.654698	0.438640	1.061393
O49	O	1.024763	-0.402319	0.522416
O50	O	1.274763	-0.152319	0.772416
O51	O	1.524763	0.097681	1.022416
O52	O	1.774763	0.347681	1.272416
O53	O	0.904679	-0.402317	0.402333
O54	O	1.154679	-0.152317	0.652333
O55	O	1.404679	0.097683	0.902333
O56	O	1.654679	0.347683	1.152333
O57	O	1.115767	-0.311364	0.522460
O58	O	1.365767	-0.061364	0.772460
O59	O	1.615767	0.188636	1.022460
O60	O	1.865767	0.438636	1.272460
O61	O	1.115629	-0.522407	0.311380
O62	O	1.365629	-0.272407	0.561380
O63	O	1.615629	-0.022407	0.811380
O64	O	1.865629	0.227593	1.061380
O65	O	1.024684	-0.522388	0.402326
O66	O	1.274684	-0.272388	0.652326
O67	O	1.524684	-0.022388	0.902326
O68	O	1.774684	0.227612	1.152326
C69	C	0.877818	-0.356836	0.356858
C70	C	1.127818	-0.106836	0.606858
C71	C	1.377818	0.143164	0.856858
C72	C	1.627818	0.393164	1.106858
C73	C	0.795504	-0.356844	0.356858
C74	C	1.045504	-0.106844	0.606858
C75	C	1.295504	0.143156	0.856858
C76	C	1.545504	0.393156	1.106858
C77	C	1.070165	-0.549268	0.356862
C78	C	1.320165	-0.299268	0.606862
C79	C	1.570165	-0.049268	0.856862
C80	C	1.820165	0.200732	1.106862
C81	C	1.070206	-0.631582	0.356871
C82	C	1.320206	-0.381582	0.606871
C83	C	1.570206	-0.131582	0.856871
C84	C	1.820206	0.118418	1.106871
C85	C	0.644795	-0.356860	0.356891
C86	C	0.894795	-0.106860	0.606891
C87	C	1.144795	0.143140	0.856891
C88	C	1.394795	0.393140	1.106891
C89	C	0.613429	-0.299550	0.299769
C90	C	0.863429	-0.049550	0.549769
C91	C	1.113429	0.200450	0.799769
C92	C	1.363429	0.450450	1.049769
C93	C	0.527811	-0.299335	0.299957
C94	C	0.777811	-0.049335	0.549957
C95	C	1.027811	0.200665	0.799957
C96	C	1.277811	0.450665	1.049957
C97	C	0.496413	-0.356874	0.356923
C98	C	0.746413	-0.106874	0.606923
C99	C	0.996413	0.143126	0.856923
C100	C	1.246413	0.393126	1.106923
C101	C	0.527549	-0.336055	0.435059
C102	C	0.777549	-0.086055	0.685059
C103	C	1.027549	0.163945	0.935059
C104	C	1.277549	0.413945	1.185059
C105	C	0.613194	-0.335631	0.434710
C106	C	0.863194	-0.085631	0.684710
C107	C	1.113194	0.164369	0.934710
C108	C	1.363194	0.414369	1.184710
C109	C	0.613206	-0.435137	0.336566
C110	C	0.863206	-0.185137	0.586566
C111	C	1.113206	0.064863	0.836566
C112	C	1.363206	0.314863	1.086566
C113	C	0.527555	-0.434724	0.334864
C114	C	0.777555	-0.184724	0.584864
C115	C	1.027555	0.065276	0.834864
C116	C	1.277555	0.315276	1.084864
C117	C	0.412553	-0.356884	0.356945
C118	C	0.662553	-0.106884	0.606945
C119	C	0.912553	0.143116	0.856945
C120	C	1.162553	0.393116	1.106945
C121	C	0.728655	-0.356848	0.356874
C122	C	0.978655	-0.106848	0.606874
C123	C	1.228655	0.143152	0.856874
C124	C	1.478655	0.393152	1.106874
C125	C	1.070300	-0.930673	0.356939
C126	C	1.320300	-0.680673	0.606939
C127	C	1.570300	-0.430673	0.856939
C128	C	1.820300	-0.180673	1.106939
C129	C	1.127361	-0.899329	0.299565
C130	C	1.377361	-0.649329	0.549565
C131	C	1.627361	-0.399329	0.799565
C132	C	1.877361	-0.149329	1.049565
C133	C	1.127559	-0.813711	0.299714
C134	C	1.377559	-0.563711	0.549714
C135	C	1.627559	-0.313711	0.799714
C136	C	1.877559	-0.063711	1.049714
C137	C	1.070253	-0.782291	0.356905
C138	C	1.320253	-0.532291	0.606905
C139	C	1.570253	-0.282291	0.856905
C140	C	1.820253	-0.032291	1.106905
C141	C	1.091409	-0.813312	0.434968
C142	C	1.341409	-0.563312	0.684968
C143	C	1.591409	-0.313312	0.934968
C144	C	1.841409	-0.063312	1.184968
C145	C	1.091851	-0.898957	0.434655
C146	C	1.341851	-0.648957	0.684655
C147	C	1.591851	-0.398957	0.934655
C148	C	1.841851	-0.148957	1.184655
C149	C	0.991931	-0.899176	0.336926
C150	C	1.241931	-0.649176	0.586926
C151	C	1.491931	-0.399176	0.836926
C152	C	1.741931	-0.149176	1.086926
C153	C	0.992318	-0.813526	0.335184
C154	C	1.242318	-0.563526	0.585184
C155	C	1.492318	-0.313526	0.835184
C156	C	1.742318	-0.063526	1.085184
C157	C	1.070226	-0.698431	0.356890
C158	C	1.320226	-0.448431	0.606890
C159	C	1.570226	-0.198431	0.856890
C160	C	1.820226	0.051569	1.106890
C161	C	1.070330	-1.014533	0.356959
C162	C	1.320330	-0.764533	0.606959
C163	C	1.570330	-0.514533	0.856959
C164	C	1.820330	-0.264533	1.106959
C165	C	1.263390	-0.356880	0.356939
C166	C	1.513390	-0.106880	0.606939
C167	C	1.763390	0.143120	0.856939
C168	C	2.013390	0.393120	1.106939
C169	C	1.345704	-0.356890	0.356956
C170	C	1.595704	-0.106890	0.606956
C171	C	1.845704	0.143110	0.856956
C172	C	2.095704	0.393110	1.106956
C173	C	1.070271	-0.356839	0.550060
C174	C	1.320271	-0.106839	0.800060
C175	C	1.570271	0.143161	1.050060
C176	C	1.820271	0.393161	1.300060
C177	C	1.070289	-0.356831	0.632374
C178	C	1.320289	-0.106831	0.882374
C179	C	1.570289	0.143169	1.132374
C180	C	1.820289	0.393169	1.382374
C181	C	1.070312	-0.163696	0.356950
C182	C	1.320312	0.086304	0.606950
C183	C	1.570312	0.336304	0.856950
C184	C	1.820312	0.586304	1.106950
C185	C	1.070348	-0.081382	0.356972
C186	C	1.320348	0.168618	0.606972
C187	C	1.570348	0.418618	0.856972
C188	C	1.820348	0.668618	1.106972
C189	C	1.070228	-0.356823	0.164487
C190	C	1.320228	-0.106823	0.414487
C191	C	1.570228	0.143177	0.664487
C192	C	1.820228	0.393177	0.914487
C193	C	1.070354	-0.356622	0.082174
C194	C	1.320354	-0.106622	0.332174
C195	C	1.570354	0.143378	0.582174
C196	C	1.820354	0.393378	0.832174
C197	C	1.070333	-0.356692	0.931465
C198	C	1.320333	-0.106692	1.181465
C199	C	1.570333	0.143308	1.431465
C200	C	1.820333	0.393308	1.681465
C201	C	1.012878	-0.413736	0.900112
C202	C	1.262878	-0.163736	1.150112
C203	C	1.512878	0.086264	1.400112
C204	C	1.762878	0.336264	1.650112
C205	C	1.013033	-0.414001	0.814494
C206	C	1.263033	-0.164001	1.064494
C207	C	1.513033	0.085999	1.314494
C208	C	1.763033	0.335999	1.564494
C209	C	1.070311	-0.356761	0.783083
C210	C	1.320311	-0.106761	1.033083
C211	C	1.570311	0.143239	1.283083
C212	C	1.820311	0.393239	1.533083
C213	C	1.148340	-0.377948	0.814188
C214	C	1.398340	-0.127948	1.064188
C215	C	1.648340	0.122052	1.314188
C216	C	1.898340	0.372052	1.564188
C217	C	1.148020	-0.378323	0.899833
C218	C	1.398020	-0.128323	1.149833
C219	C	1.648020	0.121677	1.399833
C220	C	1.898020	0.371677	1.649833
C221	C	1.050437	-0.278334	0.899893
C222	C	1.300437	-0.028334	1.149893
C223	C	1.550437	0.221666	1.399893
C224	C	1.800437	0.471666	1.649893
C225	C	1.048701	-0.278786	0.814242
C226	C	1.298701	-0.028786	1.064242
C227	C	1.548701	0.221214	1.314242
C228	C	1.798701	0.471214	1.564242
C229	C	1.070303	-0.356799	0.699223
C230	C	1.320303	-0.106799	0.949223
C231	C	1.570303	0.143201	1.199223
C232	C	1.820303	0.393201	1.449223
C233	C	1.070345	-0.356656	1.015325
C234	C	1.320345	-0.106656	1.265325
C235	C	1.570345	0.143344	1.515325
C236	C	1.820345	0.393344	1.765325
H237	H	0.633972	-0.312389	0.241649
H238	H	0.883972	-0.062389	0.491649
H239	H	1.133972	0.187611	0.741649
H240	H	1.383972	0.437611	0.991649
O241	O	1.100100	-0.219501	0.785940
O242	O	1.350100	0.030499	1.035940
O243	O	1.600100	0.280499	1.285940
O244	O	1.850100	0.530499	1.535940
H245	H	1.083299	-0.165218	0.808984
H246	H	1.333299	0.084782	1.058984
H247	H	1.583299	0.334782	1.308984
H248	H	1.833299	0.584782	1.558984
O249	O	0.936394	-0.396436	0.786620
O250	O	1.186394	-0.146436	1.036620
O251	O	1.436394	0.103564	1.286620
O252	O	1.686394	0.353564	1.536620
H253	H	0.938297	-0.345570	0.752449
H254	H	1.188297	-0.095570	1.002449
H255	H	1.438297	0.154430	1.252449
H256	H	1.688297	0.404430	1.502449
O257	O	1.105860	-0.222029	0.926754
O258	O	1.355860	0.027971	1.176754
O259	O	1.605860	0.277971	1.426754
O260	O	1.855860	0.527971	1.676754
H261	H	1.147378	-0.249672	0.962417
H262	H	1.397378	0.000328	1.212417
H263	H	1.647378	0.250328	1.462417
H264	H	1.897378	0.500328	1.712417
H265	H	1.114323	-0.792739	0.241831
H266	H	1.364323	-0.542739	0.491831
H267	H	1.614323	-0.292739	0.741831
H268	H	1.864323	-0.042739	0.991831
H269	H	1.025884	-0.471464	0.921635
H270	H	1.275884	-0.221464	1.171635
H271	H	1.525884	0.028536	1.421635
H272	H	1.775884	0.278536	1.671635
H273	H	1.051120	-0.792958	0.478866
H274	H	1.301120	-0.542958	0.728866
H275	H	1.551120	-0.292958	0.978866
H276	H	1.801120	-0.042958	1.228866
O277	O	0.935996	-0.396356	0.927368
O278	O	1.185996	-0.146356	1.177368
O279	O	1.435996	0.103644	1.427368
O280	O	1.685996	0.353644	1.677368
H281	H	0.937911	-0.346878	0.963557
H282	H	1.187911	-0.096878	1.213557
H283	H	1.437911	0.153122	1.463557
H284	H	1.687911	0.403122	1.713557
O285	O	1.110133	-0.927268	0.222861
O286	O	1.360133	-0.677268	0.472861
O287	O	1.610133	-0.427268	0.722861
O288	O	1.860133	-0.177268	0.972861
H289	H	1.053816	-0.909248	0.206626
H290	H	1.303816	-0.659248	0.456626
H291	H	1.553816	-0.409248	0.706626
H292	H	1.803816	-0.159248	0.956626
H293	H	0.506756	-0.312322	0.242030
H294	H	0.756756	-0.062322	0.492030
H295	H	1.006756	0.187678	0.742030
H296	H	1.256756	0.437678	0.992030
H297	H	0.634966	-0.241876	0.313090
H298	H	0.884966	0.008124	0.563090
H299	H	1.134966	0.258124	0.813090
H300	H	1.384966	0.508124	1.063090
O301	O	0.966439	-0.927838	0.262825
O302	O	1.216439	-0.677838	0.512825
O303	O	1.466439	-0.427838	0.762825
O304	O	1.716439	-0.177838	1.012825
H305	H	0.963256	-0.989048	0.264608
H306	H	1.213256	-0.739048	0.514608
H307	H	1.463256	-0.489048	0.764608
H308	H	1.713256	-0.239048	1.014608
O309	O	1.203842	-0.927755	0.316904
O310	O	1.453842	-0.677755	0.566904
O311	O	1.703842	-0.427755	0.816904
O312	O	1.953842	-0.177755	1.066904
H313	H	1.201392	-0.964109	0.366208
H314	H	1.451392	-0.714109	0.616208
H315	H	1.701392	-0.464109	0.866208
H316	H	1.951392	-0.214109	1.116208
O317	O	1.166443	-0.784845	0.457805
O318	O	1.416443	-0.534845	0.707805
O319	O	1.666443	-0.284845	0.957805
O320	O	1.916443	-0.034845	1.207805
H321	H	1.188788	-0.748612	0.413689
H322	H	1.438788	-0.498612	0.663689
H323	H	1.688788	-0.248612	0.913689
H324	H	1.938788	0.001388	1.163689
H325	H	0.976366	-0.793257	0.277736
H326	H	1.226366	-0.543257	0.527736
H327	H	1.476366	-0.293257	0.777736
H328	H	1.726366	-0.043257	1.027736
H329	H	0.507338	-0.241336	0.313451
H330	H	0.757338	0.008664	0.563451
H331	H	1.007338	0.258664	0.813451
H332	H	1.257338	0.508664	1.063451
H333	H	1.026170	-0.472083	0.794009
H334	H	1.276170	-0.222083	1.044009
H335	H	1.526170	0.027917	1.294009
H336	H	1.776170	0.277917	1.544009
H337	H	0.633947	-0.375576	0.478745
H338	H	0.883947	-0.125576	0.728745
H339	H	1.133947	0.124424	0.978745
H340	H	1.383947	0.374424	1.228745
O341	O	0.639688	-0.259851	0.457452
O342	O	0.889688	-0.009851	0.707452
O343	O	1.139688	0.240149	0.957452
O344	O	1.389688	0.490149	1.207452
H345	H	0.591329	-0.223852	0.468592
H346	H	0.841329	0.026148	0.718592
H347	H	1.091329	0.276148	0.968592
H348	H	1.341329	0.526148	1.218592
H349	H	0.947517	-0.792145	0.373911
H350	H	1.197517	-0.542145	0.623911
H351	H	1.447517	-0.292145	0.873911
H352	H	1.697517	-0.042145	1.123911
O353	O	0.935548	-0.926023	0.392211
O354	O	1.185548	-0.676023	0.642211
O355	O	1.435548	-0.426023	0.892211
O356	O	1.685548	-0.176023	1.142211
H357	H	0.892212	-0.958234	0.363108
H358	H	1.142212	-0.708234	0.613108
H359	H	1.392212	-0.458234	0.863108
H360	H	1.642212	-0.208234	1.113108
H361	H	0.507216	-0.376526	0.478798
H362	H	0.757216	-0.126526	0.728798
H363	H	1.007216	0.123474	0.978798
H364	H	1.257216	0.373474	1.228798
H365	H	1.052111	-0.919689	0.478877
H366	H	1.302111	-0.669689	0.728877
H367	H	1.552111	-0.419689	0.978877
H368	H	1.802111	-0.169689	1.228877
O369	O	1.167731	-0.925349	0.457105
O370	O	1.417731	-0.675349	0.707105
O371	O	1.667731	-0.425349	0.957105
O372	O	1.917731	-0.175349	1.207105
H373	H	1.163273	-0.959461	0.507850
H374	H	1.413273	-0.709461	0.757850
H375	H	1.663273	-0.459461	1.007850
H376	H	1.913273	-0.209461	1.257850
H377	H	0.634771	-0.454151	0.280540
H378	H	0.884771	-0.204151	0.530540
H379	H	1.134771	0.045849	0.780540
H380	H	1.384771	0.295849	1.030540
O381	O	0.499175	-0.261112	0.458221
O382	O	0.749175	-0.011112	0.708221
O383	O	0.999175	0.238888	0.958221
O384	O	1.249175	0.488888	1.208221
H385	H	0.462907	-0.238573	0.414213
H386	H	0.712907	0.011427	0.664213
H387	H	0.962907	0.261427	0.914213
H388	H	1.212907	0.511427	1.164213
H389	H	1.185610	-0.793172	0.312956
H390	H	1.435610	-0.543172	0.562956
H391	H	1.685610	-0.293172	0.812956
H392	H	1.935610	-0.043172	1.062956
O393	O	1.206578	-0.324657	0.787233
O394	O	1.456578	-0.074657	1.037233
O395	O	1.706578	0.175343	1.287233
O396	O	1.956578	0.425343	1.537233
H397	H	1.180463	-0.282405	0.751293
H398	H	1.430463	-0.032405	1.001293
H399	H	1.680463	0.217595	1.251293
H400	H	1.930463	0.467595	1.501293
O401	O	1.170346	-0.454198	0.926310
O402	O	1.420346	-0.204198	1.176310
O403	O	1.670346	0.045802	1.426310
O404	O	1.920346	0.295802	1.676310
H405	H	1.181267	-0.490279	0.877942
H406	H	1.431267	-0.240279	1.127942
H407	H	1.681267	0.009721	1.377942
H408	H	1.931267	0.259721	1.627942
H409	H	0.507201	-0.450428	0.277359
H410	H	0.757201	-0.200428	0.527359
H411	H	1.007201	0.049572	0.777359
H412	H	1.257201	0.299572	1.027359
H413	H	0.633488	-0.477831	0.378171
H414	H	0.883488	-0.227831	0.628171
H415	H	1.133488	0.022169	0.878171
H416	H	1.383488	0.272169	1.128171
O417	O	0.972644	-0.257614	0.787298
O418	O	1.222644	-0.007614	1.037298
O419	O	1.472644	0.242386	1.287298
O420	O	1.722644	0.492386	1.537298
H421	H	0.931872	-0.299162	0.806561
H422	H	1.181872	-0.049162	1.056561
H423	H	1.431872	0.200838	1.306561
H424	H	1.681872	0.450838	1.556561
O425	O	1.171070	-0.453015	0.785782
O426	O	1.421070	-0.203015	1.035782
O427	O	1.671070	0.046985	1.285782
O428	O	1.921070	0.296985	1.535782
H429	H	1.226328	-0.467380	0.808152
H430	H	1.476328	-0.217380	1.058152
H431	H	1.726328	0.032620	1.308152
H432	H	1.976328	0.282620	1.558152
H433	H	0.994526	-0.259031	0.921479
H434	H	1.244526	-0.009031	1.171479
H435	H	1.494526	0.240969	1.421479
H436	H	1.744526	0.490969	1.671479
O437	O	0.499253	-0.494286	0.385924
O438	O	0.749253	-0.244286	0.635924
O439	O	0.999253	0.005714	0.885924
O440	O	1.249253	0.255714	1.135924
H441	H	0.462388	-0.469220	0.428012
H442	H	0.712388	-0.219220	0.678012
H443	H	0.962388	0.030780	0.928012
H444	H	1.212388	0.280780	1.178012
O445	O	1.206656	-0.325693	0.927319
O446	O	1.456656	-0.075693	1.177319
O447	O	1.706656	0.174307	1.427319
O448	O	1.956656	0.424307	1.677319
H449	H	1.235119	-0.300091	0.879437
H450	H	1.485119	-0.050091	1.129437
H451	H	1.735119	0.199909	1.379437
H452	H	1.985119	0.449909	1.629437
