data_functionalizedCrystal
_audit_creation_method	'MofGen! by Chris Wilmer'
_symmetry_space_group_name_H-M	'P1'
_symmetry_Int_Tables_number	1
_symmetry_cell_setting	triclinic
loop_
_symmetry_equiv_pos_as_xyz
  x,y,z
_cell_length_a	19.288840
_cell_length_b	19.288864
_cell_length_c	18.366186
_cell_angle_alpha	89.971967
_cell_angle_beta	90.016271
_cell_angle_gamma	96.868870
loop_
_atom_site_label
_atom_site_type_symbol
_atom_site_fract_x
_atom_site_fract_y
_atom_site_fract_z
O1	O	-0.921364	0.086566	-0.060706
O2	O	-0.719101	0.098273	-0.060685
O3	O	-0.826077	-0.008712	-0.060651
O4	O	-0.814388	0.193550	-0.060740
O5	O	-0.826059	-0.008717	0.060448
O6	O	-0.719083	0.098268	0.060414
O7	O	-0.921346	0.086561	0.060394
Zn8	Zn	-0.820211	0.092413	0.079631
Zn9	Zn	-0.820235	0.092420	-0.079923
O10	O	-0.814370	0.193545	0.060359
C11	C	-0.693215	0.097896	-0.000132
C12	C	-0.616110	0.096774	-0.000122
N13	N	-0.820200	0.092408	0.188522
C14	C	-0.825692	-0.034591	-0.000091
C15	C	-0.824563	-0.111694	-0.000061
C16	C	-0.947232	0.086937	-0.000161
C17	C	-1.024336	0.088059	-0.000176
C18	C	-0.579917	0.096238	-0.066135
C19	C	-0.507470	0.095176	-0.066143
C20	C	-0.471221	0.094636	-0.000135
C21	C	-0.507423	0.095176	0.065886
C22	C	-0.579868	0.096245	0.065893
C23	C	-0.361886	0.052256	0.050445
C24	C	-0.289443	0.051183	0.050435
C25	C	-0.247778	0.091342	-0.000153
C26	C	-0.278565	0.132566	-0.050744
C27	C	-0.351009	0.133635	-0.050737
C28	C	-0.392667	0.093477	-0.000135
C29	C	-0.133029	0.089655	-0.066179
C30	C	-0.060580	0.088598	-0.066185
C31	C	-0.060535	0.088591	0.065847
C32	C	-0.132982	0.089656	0.065851
C33	C	-0.169225	0.090185	-0.000164
C34	C	-0.814755	0.219424	-0.000202
C35	C	-0.815884	0.296527	-0.000237
C36	C	-0.753115	0.341229	-0.000216
C37	C	-0.754176	0.413676	-0.000199
C38	C	-0.818009	0.441418	-0.000189
C39	C	-0.880786	0.396706	-0.000215
C40	C	-0.879723	0.324261	-0.000238
C41	C	-0.868182	0.549662	0.042271
C42	C	-0.869242	0.622106	0.042299
C43	C	-0.821289	0.664863	-0.000120
C44	C	-0.772263	0.635169	-0.042557
C45	C	-0.771201	0.562724	-0.042580
C46	C	-0.819168	0.519972	-0.000164
C47	C	-0.759666	0.788121	-0.000082
C48	C	-0.760729	0.860569	-0.000070
C49	C	-0.887341	0.843598	-0.000078
C50	C	-0.886276	0.771151	-0.000097
C51	C	-0.822436	0.743418	-0.000096
N52	N	-0.820252	0.092420	-0.188814
C53	C	-0.867584	0.045059	0.226638
C54	C	-0.867589	0.045055	0.302865
C55	C	-0.820215	0.092414	0.340975
C56	C	-0.772822	0.139767	0.302850
C57	C	-0.772815	0.139764	0.226624
C58	C	-0.810917	0.155703	0.461708
C59	C	-0.810930	0.155706	0.537933
C60	C	-0.820235	0.092423	0.576082
C61	C	-0.829543	0.029132	0.537997
C62	C	-0.829535	0.029129	0.461771
C63	C	-0.820218	0.092422	0.423630
C64	C	-0.867627	0.045066	0.696853
C65	C	-0.867627	0.045062	0.773082
C66	C	-0.772863	0.139779	0.773065
C67	C	-0.772860	0.139777	0.696838
C68	C	-0.820246	0.092421	0.658736
H69	H	-0.609421	0.096669	-0.119890
H70	H	-0.477995	0.094741	-0.119901
H71	H	-0.734288	0.178336	0.804093
H72	H	-0.803355	0.207241	0.568936
H73	H	-0.244641	0.165270	-0.091935
H74	H	-0.709613	0.896966	-0.000058
H75	H	-0.906209	0.006503	0.665829
H76	H	-0.477905	0.094739	0.119631
H77	H	-0.376073	0.167202	-0.091928
H78	H	-0.162452	0.090088	0.119605
H79	H	-0.906176	0.006496	0.333905
H80	H	-0.939315	0.866184	-0.000123
H81	H	-0.162538	0.090093	-0.119933
H82	H	-0.907237	0.514853	0.076812
H83	H	-0.837120	-0.022400	0.569057
H84	H	-0.733211	0.669981	-0.077093
H85	H	-0.909158	0.646278	0.076856
H86	H	-0.803327	0.207239	0.430653
H87	H	-0.734228	0.178322	0.195589
H88	H	-0.031022	0.088156	0.119592
H89	H	-0.932759	0.419298	-0.000220
H90	H	-0.906211	0.006500	0.804116
H91	H	-0.734249	0.178326	0.333883
H92	H	-0.031112	0.088165	-0.119943
H93	H	-0.734278	0.178336	0.665802
H94	H	-0.701132	0.318654	-0.000221
H95	H	-0.837112	-0.022404	0.430765
H96	H	-0.930839	0.287864	-0.000256
H97	H	-0.707684	0.765539	-0.000076
H98	H	-0.395805	0.019552	0.091643
H99	H	-0.609336	0.096683	0.119650
H100	H	-0.264383	0.017613	0.091626
H101	H	-0.703061	0.450080	-0.000180
H102	H	-0.906167	0.006497	0.195617
H103	H	-0.731284	0.538549	-0.077135
H104	H	-0.937389	0.734754	-0.000110
