data_functionalizedCrystal
_audit_creation_method	'MofGen! by Chris Wilmer'
_symmetry_space_group_name_H-M	'P1'
_symmetry_Int_Tables_number	1
_symmetry_cell_setting	triclinic
loop_
_symmetry_equiv_pos_as_xyz
  x,y,z
_cell_length_a	10.685727
_cell_length_b	12.759399
_cell_length_c	12.759387
_cell_angle_alpha	90.061563
_cell_angle_beta	94.411984
_cell_angle_gamma	85.634793
loop_
_atom_site_label
_atom_site_type_symbol
_atom_site_fract_x
_atom_site_fract_y
_atom_site_fract_z
Zn1	Zn	-1.929547	0.541185	-0.717038
Zn2	Zn	-1.929339	0.716982	-0.541344
Zn3	Zn	-1.718436	0.527842	-0.527914
Zn4	Zn	-1.718499	0.703338	-0.703539
O5	O	-1.823955	0.622337	-0.622459
O6	O	-2.106107	0.575799	-0.705002
O7	O	-1.901249	0.692017	-0.392534
O8	O	-1.746500	0.382594	-0.553031
O9	O	-2.105954	0.704956	-0.575920
O10	O	-1.901602	0.392398	-0.691980
O11	O	-1.746299	0.553057	-0.382667
O12	O	-1.541856	0.539827	-0.539941
O13	O	-1.746609	0.681703	-0.852358
O14	O	-1.541903	0.668764	-0.668972
O15	O	-1.901664	0.562570	-0.862276
O16	O	-1.901311	0.862189	-0.562830
O17	O	-1.746408	0.852165	-0.681994
C18	C	-1.496092	0.601368	-0.601535
C19	C	-1.355831	0.592423	-0.592608
C20	C	-1.823878	0.895299	-0.622430
C21	C	-1.823960	1.012081	-0.622460
C22	C	-1.824167	0.622103	-0.896506
C23	C	-1.824257	0.622003	-1.013289
C24	C	-1.153098	0.643381	-0.643455
C25	C	-1.293359	0.652331	-0.652377
C26	C	-1.824067	0.348310	-0.622513
C27	C	-1.824115	0.231537	-0.622536
C28	C	-1.904710	1.072133	-0.560494
C29	C	-1.904791	1.181862	-0.560534
C30	C	-1.743361	1.171477	-0.684510
C31	C	-1.743288	1.061750	-0.684474
C32	C	-1.823817	0.622499	-0.349482
C33	C	-1.823971	0.622318	-0.232716
C34	C	-1.742929	0.550185	-0.063012
C35	C	-1.742782	0.550345	-0.172726
C36	C	-1.905303	0.694143	-0.182985
C37	C	-1.905442	0.693988	-0.073272
H38	H	-1.302012	0.534282	-0.534615
H39	H	-1.347185	0.710466	-0.710383
H40	H	-1.970401	1.031696	-0.510000
O41	O	-1.663742	0.480477	-0.220862
C42	C	-1.592098	0.416931	-0.144387
H43	H	-1.643857	0.416175	-0.069562
H44	H	-1.496594	0.449855	-0.126383
C45	C	-1.509355	0.304994	-0.278148
C46	C	-1.572933	0.304058	-0.186249
H47	H	-1.497528	0.235370	-0.303970
H48	H	-1.557620	0.347808	-0.329671
H49	H	-1.429776	0.332436	-0.263131
H50	H	-1.652516	0.276629	-0.201269
H51	H	-1.524681	0.261237	-0.134729
O52	O	-1.664818	1.219599	-0.744679
C53	C	-1.539033	1.184885	-0.713583
H54	H	-1.536373	1.105106	-0.673001
H55	H	-1.496578	1.244027	-0.656849
C56	C	-1.465840	1.272826	-0.860919
C57	C	-1.462573	1.174836	-0.811083
H58	H	-1.418674	1.266632	-0.921059
H59	H	-1.550583	1.296217	-0.881867
H60	H	-1.430463	1.322101	-0.813629
H61	H	-1.497964	1.125567	-0.858367
H62	H	-1.377834	1.151436	-0.790145
H63	H	-1.677531	1.012852	-0.734940
O64	O	-1.984345	0.764017	-0.241153
C65	C	-2.109955	0.748271	-0.222615
H66	H	-2.112334	0.707904	-0.143207
H67	H	-2.151929	0.696774	-0.287243
C68	C	-2.184331	0.904743	-0.319859
C69	C	-2.187254	0.855172	-0.222324
H70	H	-2.232016	0.970683	-0.319684
H71	H	-2.099706	0.915350	-0.332352
H72	H	-2.219307	0.861818	-0.373705
H73	H	-2.152265	0.898090	-0.168482
H74	H	-2.271876	0.844574	-0.209822
O75	O	-1.983269	1.240037	-0.500240
C76	C	-2.054476	1.172665	-0.445524
H77	H	-2.002732	1.091188	-0.438528
H78	H	-2.150302	1.166996	-0.490170
C79	C	-2.136263	1.316863	-0.343486
C80	C	-2.072705	1.216794	-0.334886
H81	H	-2.147513	1.344085	-0.275241
H82	H	-2.088294	1.362255	-0.380352
H83	H	-2.216111	1.312126	-0.380695
H84	H	-1.992853	1.221534	-0.297689
H85	H	-2.120661	1.171404	-0.298011
O86	O	-1.984271	0.763857	-0.024906
C87	C	-1.913068	0.827478	0.043400
H88	H	-1.813697	0.828262	0.016830
H89	H	-1.908551	0.794606	0.126767
C90	C	-2.097673	0.939358	0.073924
C91	C	-1.975627	0.940328	0.041285
H92	H	-2.136264	1.008968	0.072624
H93	H	-2.145646	0.896494	0.027908
H94	H	-2.093893	0.911959	0.143393
H95	H	-1.979410	0.967713	-0.028187
H96	H	-1.927657	0.983200	0.087289
H97	H	-1.676822	0.491571	-0.014176
