data_functionalizedCrystal
_audit_creation_method	'MofGen! by Chris Wilmer'
_symmetry_space_group_name_H-M	'P1'
_symmetry_Int_Tables_number	1
_symmetry_cell_setting	triclinic
loop_
_symmetry_equiv_pos_as_xyz
  x,y,z
_cell_length_a	17.038275
_cell_length_b	12.996460
_cell_length_c	14.519731
_cell_angle_alpha	90.007128
_cell_angle_beta	92.600437
_cell_angle_gamma	89.993941
loop_
_atom_site_label
_atom_site_type_symbol
_atom_site_fract_x
_atom_site_fract_y
_atom_site_fract_z
O1	O	-1.037706	0.085591	0.200274
O2	O	-0.810070	0.085588	0.197097
O3	O	-0.929914	0.085580	0.064909
O4	O	-0.917861	0.085599	0.332462
O5	O	-0.929902	-0.085553	0.064901
O6	O	-0.810057	-0.085545	0.197088
O7	O	-1.037693	-0.085543	0.200265
Cu8	Cu	-0.923874	-0.101170	0.198676
Cu9	Cu	-0.923889	0.101216	0.198686
O10	O	-0.917848	-0.085535	0.332453
C11	C	-0.780930	0.000021	0.194200
C12	C	-0.694123	0.000020	0.185572
N13	N	-0.923869	-0.243517	0.198668
C14	C	-0.203622	0.000014	0.132561
C15	C	-0.285186	0.000010	0.140676
C16	C	-0.316766	0.000021	0.228023
C17	C	-0.266778	0.000026	0.307261
C18	C	-0.185216	0.000024	0.299146
C19	C	-0.562572	0.000023	0.256694
C20	C	-0.644141	0.000028	0.264804
C21	C	-0.662543	0.000010	0.098217
C22	C	-0.580978	0.000014	0.090109
C23	C	-0.530997	0.000013	0.169347
C24	C	-0.400138	0.000019	0.236320
C25	C	-0.447627	0.000008	0.161050
C26	C	-0.066833	0.000024	0.203162
C27	C	-0.153640	0.000023	0.211793
C28	C	-0.923888	-0.663331	0.198687
C29	C	-0.923880	-0.546526	0.198685
C30	C	-0.923879	-0.453428	0.198679
C31	C	-0.923871	-0.336615	0.198675
N32	N	-0.923900	0.243563	0.198687
C33	C	-0.929343	0.000013	0.030502
C34	C	-0.927651	0.000013	-0.072007
C35	C	-0.926276	0.000015	-0.155257
C36	C	-0.924557	0.000023	-0.259697
C37	C	-0.923194	0.000029	-0.342940
C38	C	-0.921476	0.000035	-0.447387
C39	C	-0.918419	0.000035	0.366860
C40	C	-0.920112	0.000042	0.469370
H41	H	-0.177916	0.000012	0.061433
H42	H	-0.421911	0.000010	0.089932
O43	O	-0.550207	-0.000134	0.005311
C44	C	-0.503584	-0.088777	-0.004376
H45	H	-0.483378	-0.118323	0.066724
H46	H	-0.539550	-0.150843	-0.042361
C47	C	-0.456184	-0.025565	-0.147020
C48	C	-0.431361	-0.061848	-0.059693
H49	H	-0.411635	-0.008956	-0.181145
H50	H	-0.487596	0.034154	-0.140496
H51	H	-0.486155	-0.077293	-0.178662
H52	H	-0.401398	-0.010116	-0.028048
H53	H	-0.399942	-0.121558	-0.066213
H54	H	-0.669850	0.000023	0.335936
O55	O	-0.297362	0.000173	0.392161
C56	C	-0.271853	0.088823	0.440840
H57	H	-0.215251	0.118365	0.411266
H58	H	-0.319036	0.150888	0.433860
C59	C	-0.326232	0.025629	0.579718
C60	C	-0.256708	0.061908	0.543399
H61	H	-0.316893	0.009029	0.642981
H62	H	-0.343420	-0.034095	0.546921
H63	H	-0.365544	0.077356	0.573892
H64	H	-0.217401	0.010176	0.549214
H65	H	-0.239513	0.121622	0.576200
O66	O	-0.430776	-0.000144	0.321190
C67	C	-0.405224	-0.088752	0.369892
H68	H	-0.388179	-0.150711	0.318931
H69	H	-0.352146	-0.068703	0.417118
C70	C	-0.492972	-0.052833	0.490728
C71	C	-0.472044	-0.128935	0.428137
H72	H	-0.534188	-0.077618	0.526660
H73	H	-0.510186	0.006866	0.457919
H74	H	-0.448735	-0.036132	0.530074
H75	H	-0.516278	-0.145625	0.388785
H76	H	-0.454839	-0.188638	0.460941
O77	O	-0.136549	-0.000009	0.376017
C78	C	-0.057789	0.000009	0.350126
H79	H	-0.054557	-0.032399	0.277435
H80	H	-0.034211	0.082110	0.351771
C81	C	-0.011939	-0.027292	0.507093
C82	C	-0.007969	-0.067105	0.417816
H83	H	0.018794	-0.068687	0.548849
H84	H	-0.065001	-0.027301	0.524538
H85	H	0.007708	0.041124	0.508451
H86	H	-0.027624	-0.135515	0.416456
H87	H	0.045091	-0.067109	0.400372
O88	O	-0.710983	0.000049	0.021156
C89	C	-0.665618	0.000010	-0.057677
H90	H	-0.604782	0.032410	-0.039042
H91	H	-0.659768	-0.082095	-0.084150
C92	C	-0.780867	0.027319	-0.156093
C93	C	-0.706149	0.067121	-0.133206
H94	H	-0.805870	0.068711	-0.202685
H95	H	-0.811431	0.027341	-0.102982
H96	H	-0.775981	-0.041102	-0.178147
H97	H	-0.711037	0.135535	-0.111141
H98	H	-0.675587	0.067112	-0.186316
O99	O	-0.513951	0.000175	0.333598
C100	C	-0.466243	0.088821	0.333900
H101	H	-0.462008	0.118351	0.260367
H102	H	-0.493147	0.150895	0.378120
C103	C	-0.388709	0.025638	0.464144
C104	C	-0.383502	0.061904	0.373827
H105	H	-0.337671	0.009038	0.488776
H106	H	-0.420853	-0.034082	0.463943
H107	H	-0.411132	0.077373	0.500982
H108	H	-0.361089	0.010165	0.336989
H109	H	-0.351353	0.121615	0.374023
H110	H	-0.325878	-0.000001	0.076156
