data_functionalizedCrystal
_audit_creation_method	'MofGen! by Chris Wilmer'
_symmetry_space_group_name_H-M	'P1'
_symmetry_Int_Tables_number	1
_symmetry_cell_setting	triclinic
loop_
_symmetry_equiv_pos_as_xyz
  x,y,z
_cell_length_a	10.686220
_cell_length_b	18.050589
_cell_length_c	10.686551
_cell_angle_alpha	85.596139
_cell_angle_beta	90.308082
_cell_angle_gamma	94.409750
loop_
_atom_site_label
_atom_site_type_symbol
_atom_site_fract_x
_atom_site_fract_y
_atom_site_fract_z
Zn1	Zn	1.972217	-0.181059	-0.562396
Zn2	Zn	2.472217	0.318941	-0.062396
Zn3	Zn	1.955936	-0.315479	-0.352644
Zn4	Zn	2.455936	0.184521	0.147356
Zn5	Zn	1.746328	-0.200057	-0.368714
Zn6	Zn	2.246328	0.299943	0.131286
Zn7	Zn	1.762366	-0.313974	-0.578422
Zn8	Zn	2.262366	0.186026	-0.078422
O9	O	1.859212	-0.252642	-0.465544
O10	O	2.359212	0.247358	0.034456
O11	O	2.145602	-0.191569	-0.521139
O12	O	2.645602	0.308431	-0.021139
O13	O	1.914605	-0.308749	-0.179231
O14	O	2.414605	0.191251	0.320769
O15	O	1.776395	-0.093607	-0.394425
O16	O	2.276395	0.406393	0.105575
O17	O	2.133640	-0.290327	-0.367036
O18	O	2.633640	0.209673	0.132964
O19	O	1.942354	-0.079649	-0.536722
O20	O	2.442354	0.420351	-0.036722
O21	O	1.760607	-0.223949	-0.191038
O22	O	2.260607	0.276051	0.308962
O23	O	1.572911	-0.222489	-0.409965
O24	O	2.072911	0.277511	0.090035
O25	O	1.803729	-0.287762	-0.751841
O26	O	2.303729	0.212238	-0.251841
O27	O	1.584694	-0.306184	-0.564036
O28	O	2.084694	0.193816	-0.064036
O29	O	1.957906	-0.190110	-0.740067
O30	O	2.457906	0.309890	-0.240067
O31	O	1.930156	-0.419209	-0.382576
O32	O	2.430156	0.080791	0.117424
O33	O	1.787942	-0.418104	-0.548454
O34	O	2.287942	0.081896	-0.048454
C35	C	1.533286	-0.266235	-0.490484
C36	C	2.033286	0.233765	0.009516
C37	C	1.393856	-0.272067	-0.501183
C38	C	1.893856	0.227933	-0.001183
C39	C	1.859059	-0.445602	-0.465535
C40	C	2.359059	0.054398	0.034465
C41	C	1.859111	-0.528144	-0.465564
C42	C	2.359111	-0.028144	0.034436
C43	C	1.781855	-0.727018	-0.555733
C44	C	2.281855	-0.227018	-0.055733
C45	C	1.742482	-0.783311	-0.443604
C46	C	2.242482	-0.283311	0.056396
C47	C	1.859236	-0.679268	-0.465571
C48	C	2.359236	-0.179268	0.034429
C49	C	1.898671	-0.770054	-0.577708
C50	C	2.398671	-0.270054	-0.077708
C51	C	1.859354	-0.825247	-0.465588
C52	C	2.359354	-0.325247	0.034412
C53	C	1.819798	-0.734480	-0.353387
C54	C	2.319798	-0.234480	0.146613
C55	C	1.976046	-0.721212	-0.487563
C56	C	2.476046	-0.221212	0.012437
C57	C	1.936711	-0.777484	-0.375352
C58	C	2.436711	-0.277484	0.124648
C59	C	1.859164	-0.595174	-0.465563
C60	C	2.359164	-0.095174	0.034437
C61	C	1.859425	-0.909341	-0.465583
C62	C	2.359425	-0.409341	0.034417
C63	C	2.186411	-0.238997	-0.440508
C64	C	2.686411	0.261003	0.059492
C65	C	2.325843	-0.233182	-0.429838
C66	C	2.825843	0.266818	0.070162
C67	C	1.884423	-0.236649	-0.792743
C68	C	2.384423	0.263351	-0.292743
C69	C	1.895166	-0.229833	-0.932176
C70	C	2.395166	0.270167	-0.432176
C71	C	1.859402	-0.058926	-0.465578
C72	C	2.359402	0.441074	0.034422
C73	C	1.859483	0.023624	-0.465593
C74	C	2.359483	0.523624	0.034407
C75	C	1.834171	-0.268517	-0.139612
C76	C	2.334171	0.231483	0.360388
C77	C	1.823671	-0.275113	-0.000161
C78	C	2.323671	0.224887	0.499839
H79	H	1.716305	-0.704886	-0.631887
H80	H	2.216305	-0.204886	-0.131887
N81	N	1.329691	-0.322086	-0.592929
N82	N	1.829691	0.177914	-0.092929
H83	H	1.279837	-0.291362	-0.655271
H84	H	1.779837	0.208638	-0.155271
H85	H	1.394956	-0.347196	-0.638928
H86	H	1.894956	0.152804	-0.138928
N87	N	1.942789	-0.791055	-0.703313
N88	N	2.442789	-0.291055	-0.203313
H89	H	2.030409	-0.767513	-0.720620
H90	H	2.530409	-0.267513	-0.220620
H91	H	1.943208	-0.847039	-0.702048
H92	H	2.443208	-0.347039	-0.202048
N93	N	1.731706	-0.333376	-0.935976
N94	N	2.231706	0.166624	-0.435976
H95	H	1.736809	-0.330151	-0.842127
H96	H	2.236809	0.169849	-0.342127
H97	H	1.643864	-0.324450	-0.965671
H98	H	2.143864	0.175550	-0.465671
H99	H	1.964605	-0.185853	-0.980647
H100	H	2.464605	0.314147	-0.480647
N101	N	1.611711	-0.819180	-0.418949
N102	N	2.111711	-0.319180	0.081051
H103	H	1.581367	-0.805652	-0.334922
H104	H	2.081367	-0.305652	0.165078
H105	H	1.553360	-0.800799	-0.487159
H106	H	2.053360	-0.300799	0.012841
H107	H	1.374283	-0.195430	-0.360571
H108	H	1.874283	0.304570	0.139429
H109	H	2.002194	-0.799490	-0.299031
H110	H	2.502194	-0.299490	0.200969
N111	N	2.106798	-0.685331	-0.512242
N112	N	2.606798	-0.185331	-0.012242
H113	H	2.136473	-0.698050	-0.597009
H114	H	2.636473	-0.198050	-0.097009
H115	H	2.105818	-0.629480	-0.511161
H116	H	2.605818	-0.129480	-0.011161
N117	N	1.775534	-0.713614	-0.227750
N118	N	2.275534	-0.213614	0.272250
H119	H	1.775727	-0.657618	-0.228530
H120	H	2.275727	-0.157618	0.271470
H121	H	1.687638	-0.736862	-0.211008
H122	H	2.187638	-0.236862	0.288992
