data_functionalizedCrystal
_audit_creation_method	'MofGen! by Chris Wilmer'
_symmetry_space_group_name_H-M	'P1'
_symmetry_Int_Tables_number	1
_symmetry_cell_setting	triclinic
loop_
_symmetry_equiv_pos_as_xyz
  x,y,z
_cell_length_a	21.395362
_cell_length_b	16.625546
_cell_length_c	21.395364
_cell_angle_alpha	90.015968
_cell_angle_beta	90.025888
_cell_angle_gamma	90.038346
loop_
_atom_site_label
_atom_site_type_symbol
_atom_site_fract_x
_atom_site_fract_y
_atom_site_fract_z
Zn1	Zn	0.957784	-0.320773	0.354586
Zn2	Zn	0.957734	-0.455583	0.249808
Zn3	Zn	0.853032	-0.320805	0.249787
Zn4	Zn	0.852983	-0.455605	0.354513
O5	O	0.905383	-0.388191	0.302173
O6	O	1.045455	-0.338633	0.340726
O7	O	0.943845	-0.437708	0.162128
O8	O	0.866968	-0.207968	0.263710
O9	O	1.045419	-0.437677	0.263747
O10	O	0.943929	-0.207945	0.340705
O11	O	0.866920	-0.338687	0.162112
O12	O	0.765347	-0.338709	0.263640
O13	O	0.866885	-0.437716	0.442200
O14	O	0.765311	-0.437746	0.340581
O15	O	0.943882	-0.338655	0.442254
O16	O	0.943798	-0.568418	0.263676
O17	O	0.866837	-0.568434	0.340602
C18	C	0.742595	-0.388234	0.302101
C19	C	0.672954	-0.388272	0.302084
C20	C	0.640239	-0.439909	0.342088
C21	C	0.574803	-0.439889	0.342116
C22	C	0.542086	-0.388241	0.302129
C23	C	0.574809	-0.336594	0.262123
C24	C	0.640243	-0.336609	0.262100
C25	C	0.438378	-0.381742	0.245724
C26	C	0.372945	-0.381732	0.245745
C27	C	0.340265	-0.388188	0.302198
C28	C	0.373026	-0.394671	0.358632
C29	C	0.438460	-0.394686	0.358610
C30	C	0.471133	-0.388218	0.302149
C31	C	0.236597	-0.439806	0.342236
C32	C	0.171161	-0.439781	0.342264
C33	C	0.171168	-0.336490	0.262266
C34	C	0.236603	-0.336511	0.262242
C35	C	0.269314	-0.388174	0.302226
C36	C	0.905324	-0.597682	0.302147
C37	C	0.905356	-0.687303	0.302157
C38	C	0.905465	-1.015479	0.302222
C39	C	0.905433	-0.924171	0.302206
C40	C	0.905410	-0.851394	0.302189
C41	C	0.905378	-0.760080	0.302173
C42	C	1.068806	-0.388149	0.302247
C43	C	1.138448	-0.388131	0.302278
C44	C	0.905384	-0.388184	0.465597
C45	C	0.905384	-0.388181	0.535238
C46	C	0.905460	-0.177883	0.302213
C47	C	0.905492	-0.088261	0.302231
C48	C	0.945447	-0.336610	1.037063
C49	C	0.945454	-0.336611	0.971627
C50	C	0.905367	-0.388184	0.938876
C51	C	0.865282	-0.439775	0.971566
C52	C	0.865281	-0.439777	1.037000
C53	C	0.848917	-0.394562	0.835181
C54	C	0.848917	-0.394553	0.769748
C55	C	0.905370	-0.388181	0.737055
C56	C	0.961826	-0.381800	0.769804
C57	C	0.961825	-0.381802	0.835238
C58	C	0.905364	-0.388188	0.867924
C59	C	0.945463	-0.336599	0.633421
C60	C	0.945470	-0.336607	0.567985
C61	C	0.865293	-0.439766	0.567924
C62	C	0.865291	-0.439763	0.633360
C63	C	0.905375	-0.388175	0.666104
C64	C	0.905375	-0.388209	1.139386
C65	C	0.905365	-0.388190	1.069745
H66	H	0.144530	-0.294433	0.229711
H67	H	0.263240	-0.294467	0.229664
Cl68	Cl	0.814888	-0.504627	1.078088
Cl69	Cl	0.130032	-0.504698	0.392563
Cl70	Cl	0.995842	-0.271734	0.674589
H71	H	0.802948	-0.399749	0.743090
Cl72	Cl	0.479643	-0.402831	0.429551
Cl73	Cl	0.331767	-0.373581	0.174801
H74	H	0.464981	-0.376481	0.199750
Cl75	Cl	0.533679	-0.271661	0.211857
Cl76	Cl	0.995868	-0.271761	0.526898
H77	H	0.802942	-0.399752	0.861794
H78	H	0.666880	-0.294558	0.229525
Cl79	Cl	0.814904	-0.504611	0.526757
Cl80	Cl	0.814898	-0.504609	0.674447
H81	H	1.007793	-0.376609	0.861899
H82	H	0.666868	-0.481975	0.374647
H83	H	0.548161	-0.481938	0.374694
Cl84	Cl	0.331950	-0.402783	0.429607
H85	H	0.263232	-0.481869	0.374796
H86	H	0.978090	-0.294606	1.063719
H87	H	0.978093	-0.294605	0.945013
H88	H	1.007795	-0.376608	0.743187
H89	H	0.832644	-0.481767	0.944896
