data_functionalizedCrystal
_audit_creation_method	'MofGen! by Chris Wilmer'
_symmetry_space_group_name_H-M	'P1'
_symmetry_Int_Tables_number	1
_symmetry_cell_setting	triclinic
loop_
_symmetry_equiv_pos_as_xyz
  x,y,z
_cell_length_a	19.288859
_cell_length_b	14.971486
_cell_length_c	13.448316
_cell_angle_alpha	90.003552
_cell_angle_beta	90.007000
_cell_angle_gamma	96.626073
loop_
_atom_site_label
_atom_site_type_symbol
_atom_site_fract_x
_atom_site_fract_y
_atom_site_fract_z
O1	O	0.090519	-1.186448	0.082577
O2	O	0.101359	-0.925989	0.082604
O3	O	-0.005167	-1.063748	0.082584
O4	O	0.197045	-1.048690	0.082597
O5	O	-0.005176	-1.063745	-0.082800
O6	O	0.101349	-0.925986	-0.082780
O7	O	0.090510	-1.186445	-0.082807
Cu8	Cu	0.095929	-1.056216	-0.097894
Cu9	Cu	0.095940	-1.056219	0.097691
O10	O	0.197036	-1.048687	-0.082787
C11	C	0.100869	-0.892666	-0.000085
C12	C	0.099417	-0.793376	-0.000074
C13	C	-0.031050	-1.063263	-0.000107
C14	C	-0.108159	-1.061811	-0.000105
C15	C	0.090999	-1.219769	-0.000116
C16	C	0.092452	-1.319058	-0.000120
C17	C	-0.671968	-1.132821	-0.000087
C18	C	-0.599517	-1.134193	-0.000096
C19	C	-0.555074	-1.053363	-0.000087
C20	C	-0.583087	-0.971154	-0.000095
C21	C	-0.655536	-0.969785	-0.000096
C22	C	-0.433993	-0.993081	0.057859
C23	C	-0.361545	-0.994454	0.057866
C24	C	-0.331614	-1.057583	-0.000088
C25	C	-0.374141	-1.119355	-0.058037
C26	C	-0.446591	-1.117985	-0.058038
C27	C	-0.476513	-1.054838	-0.000086
C28	C	-0.225049	-1.141274	-0.000097
C29	C	-0.152597	-1.142642	-0.000113
C30	C	-0.136168	-0.979601	-0.000102
C31	C	-0.208619	-0.978235	-0.000096
C32	C	-0.253056	-1.059074	-0.000090
C33	C	0.222918	-1.049172	-0.000093
C34	C	0.300027	-1.050624	-0.000089
N35	N	0.095942	-1.056222	0.235256
C36	C	0.161998	-0.735811	-0.000072
C37	C	0.160628	-0.642519	-0.000087
C38	C	0.096678	-0.606794	-0.000097
C39	C	0.034092	-0.664367	-0.000103
C40	C	0.035462	-0.757657	-0.000095
C41	C	0.031241	-0.469920	-0.000117
C42	C	0.029871	-0.376624	-0.000123
C43	C	0.156408	-0.354782	-0.000108
C44	C	0.157778	-0.448072	-0.000100
C45	C	0.095192	-0.505638	-0.000104
N46	N	0.095921	-1.056220	-0.235459
C47	C	0.048866	-1.117334	0.287287
C48	C	0.048864	-1.117338	0.391390
C49	C	0.095935	-1.056225	0.443460
C50	C	0.143017	-0.995109	0.391421
C51	C	0.143022	-0.995111	0.287320
C52	C	0.143003	-0.995110	0.608401
C53	C	0.142997	-0.995107	0.712510
C54	C	0.048844	-1.117337	0.712472
C55	C	0.048849	-1.117339	0.608370
C56	C	0.095930	-1.056222	0.556339
H57	H	-0.708144	-1.198647	-0.000087
Br58	Br	-0.504305	-1.201810	-0.136682
H59	H	-0.261232	-1.207098	-0.000093
H60	H	0.010517	-1.167097	0.565975
H61	H	0.211588	-0.595652	-0.000083
H62	H	0.010510	-1.167101	0.754842
H63	H	0.181343	-0.945345	0.566041
Br64	Br	0.248793	-0.784285	-0.000047
Br65	Br	-0.561499	-1.245755	-0.000109
H66	H	-0.015499	-0.804527	-0.000097
Br67	Br	-0.333532	-1.205042	-0.136688
H68	H	-0.129797	-1.209580	-0.000117
Br69	Br	-0.075860	-0.869900	-0.000108
Br70	Br	0.206919	-0.912174	0.216706
Br71	Br	0.244569	-0.496556	-0.000071
H72	H	-0.231421	-0.911301	-0.000091
Br73	Br	0.206907	-0.912174	0.462084
Br74	Br	-0.015027	-1.200273	0.216632
Br75	Br	-0.693546	-0.858222	-0.000099
H76	H	-0.326925	-0.944160	0.105056
Br77	Br	-0.015024	-1.200281	0.462008
H78	H	0.181329	-0.945343	0.754900
Br79	Br	0.241347	-0.276658	-0.000102
Br80	Br	-0.053698	-0.548046	-0.000127
Br81	Br	-0.056921	-0.328140	-0.000170
H82	H	-0.458355	-0.941661	0.105045
H83	H	-0.546896	-0.905342	-0.000091
H84	H	-0.017978	-0.635273	-0.000126
