data_functionalizedCrystal
_audit_creation_method	'MofGen! by Chris Wilmer'
_symmetry_space_group_name_H-M	'P1'
_symmetry_Int_Tables_number	1
_symmetry_cell_setting	triclinic
loop_
_symmetry_equiv_pos_as_xyz
  x,y,z
_cell_length_a	6.817900
_cell_length_b	16.418049
_cell_length_c	16.255661
_cell_angle_alpha	95.377892
_cell_angle_beta	103.488922
_cell_angle_gamma	103.389670
loop_
_atom_site_label
_atom_site_type_symbol
_atom_site_fract_x
_atom_site_fract_y
_atom_site_fract_z
V1	V	-4.026216	-0.116563	-0.264171
O2	O	-4.014211	0.004905	-0.258835
O3	O	-3.977284	-0.230456	-0.262659
O4	O	-3.977785	-0.115076	-0.379250
O5	O	-4.013707	-0.111274	-0.141437
V6	V	-4.509917	-0.101998	-0.249455
O7	O	-4.287084	-0.148513	-0.296451
O8	O	-4.699247	-0.070048	-0.217175
O9	O	-4.335643	0.011894	-0.250967
O10	O	-4.639319	-0.223467	-0.254790
O11	O	-4.639824	-0.107288	-0.372189
O12	O	-4.335143	-0.103486	-0.134376
C13	C	-3.822156	-0.258211	-0.258568
C14	C	-3.863435	-0.351322	-0.258099
C15	C	-4.140466	-0.569819	-0.261269
C16	C	-4.179241	-0.657307	-0.260836
C17	C	-3.815025	-0.648742	-0.252362
C18	C	-3.776257	-0.561256	-0.252802
C19	C	-3.938983	-0.521797	-0.257251
C20	C	-4.016525	-0.696770	-0.256378
C21	C	-4.058564	-0.791629	-0.255908
C22	C	-3.896942	-0.426932	-0.257722
C23	C	-3.822794	-0.111031	-0.407290
C24	C	-3.864476	-0.110569	-0.501370
C25	C	-3.775056	-0.105043	-0.724175
C26	C	-3.931169	-0.176359	-0.793834
C27	C	-3.940864	-0.109701	-0.673617
C28	C	-3.859045	-0.037569	-0.771593
C29	C	-4.014635	-0.108860	-0.839998
C30	C	-4.096458	-0.181081	-0.742046
C31	C	-4.024273	-0.042228	-0.719789
C32	C	-4.180522	-0.113564	-0.789429
C33	C	-3.898361	-0.110187	-0.577769
C34	C	-4.057156	-0.108381	-0.935846
C35	C	-4.154113	0.039645	-0.255056
C36	C	-4.092073	0.132755	-0.255530
C37	C	-4.153475	-0.107533	-0.106331
C38	C	-4.091032	-0.107992	-0.012250
H39	H	-4.272970	-0.537694	-0.264891
H40	H	-4.196416	-0.241797	-0.728736
H41	H	-3.682545	-0.680880	-0.248738
H42	H	-4.343306	-0.696404	-0.264109
H43	H	-4.352379	-0.117186	-0.817785
H44	H	-3.612179	-0.522155	-0.249533
O45	O	-4.070286	0.025518	-0.681321
C46	C	-3.996704	0.177719	-0.652292
C47	C	-3.944383	0.101065	-0.695884
H48	H	-3.894971	0.238817	-0.664066
H49	H	-3.965572	0.176399	-0.580475
H50	H	-4.168437	0.174683	-0.680115
H51	H	-3.772660	0.104051	-0.668131
H52	H	-3.975660	0.102412	-0.767699
H53	H	-3.603317	-0.101533	-0.695685
O54	O	-3.884382	-0.243939	-0.832238
C55	C	-3.618407	-0.315911	-0.842337
C56	C	-3.671114	-0.239331	-0.798798
H57	H	-3.445992	-0.312220	-0.815305
H58	H	-3.652193	-0.315246	-0.914306
H59	H	-3.718082	-0.377000	-0.829591
H60	H	-3.571474	-0.178202	-0.811477
H61	H	-3.637386	-0.240071	-0.726843
H62	H	-3.759068	0.023065	-0.785046
