data_functionalizedCrystal
_audit_creation_method	'MofGen! by Chris Wilmer'
_symmetry_space_group_name_H-M	'P1'
_symmetry_Int_Tables_number	1
_symmetry_cell_setting	triclinic
loop_
_symmetry_equiv_pos_as_xyz
  x,y,z
_cell_length_a	13.032891
_cell_length_b	12.759399
_cell_length_c	12.759393
_cell_angle_alpha	89.971563
_cell_angle_beta	97.193727
_cell_angle_gamma	97.178319
loop_
_atom_site_label
_atom_site_type_symbol
_atom_site_fract_x
_atom_site_fract_y
_atom_site_fract_z
Zn1	Zn	1.597729	0.622469	0.797748
Zn2	Zn	1.597621	0.798174	0.622064
Zn3	Zn	1.422963	0.600180	0.599801
Zn4	Zn	1.422949	0.775761	0.775431
O5	O	1.510316	0.699146	0.698761
O6	O	1.743956	0.664484	0.793100
O7	O	1.574413	0.771961	0.472085
O8	O	1.446197	0.456122	0.626082
O9	O	1.743877	0.793574	0.664026
O10	O	1.574597	0.472498	0.771512
O11	O	1.446093	0.626496	0.455728
O12	O	1.276720	0.604764	0.604442
O13	O	1.446173	0.755375	0.925417
O14	O	1.276710	0.733762	0.733476
O15	O	1.574584	0.642752	0.941814
O16	O	1.574400	0.942215	0.642386
O17	O	1.446069	0.925749	0.755064
C18	C	1.238796	0.664413	0.664122
C19	C	1.122639	0.649579	0.649329
C20	C	1.510249	0.972105	0.698745
C21	C	1.510317	1.088890	0.698786
C22	C	0.950820	0.691563	0.691202
C23	C	1.070874	0.706899	0.706489
C24	C	1.577212	1.152301	0.640201
C25	C	1.577274	1.262033	0.640248
C26	C	1.443537	1.244933	0.757466
C27	C	1.443481	1.135203	0.757424
C28	C	1.654421	1.162174	0.572523
C29	C	1.654483	1.271906	0.572569
C30	C	1.782895	0.734015	0.733535
C31	C	1.899053	0.748875	0.748354
C32	C	1.510389	0.699049	0.972804
C33	C	1.510420	0.699008	1.089584
C34	C	1.510407	1.425124	0.698816
C35	C	1.510435	1.308351	0.698874
C36	C	1.510303	0.699174	0.425792
C37	C	1.510474	0.698945	0.309038
C38	C	1.577293	0.640360	1.152987
C39	C	1.577317	0.640325	1.262714
C40	C	1.443594	0.757595	1.245627
C41	C	1.443565	0.757624	1.135901
C42	C	1.654500	0.572658	1.162853
C43	C	1.654525	0.572624	1.272581
H44	H	0.906260	0.631138	0.630957
H45	H	0.943613	0.809291	0.808608
H46	H	1.078084	0.589149	0.589080
H47	H	1.389019	1.083576	0.805140
H48	H	1.735333	1.142660	0.604691
H49	H	1.389123	1.282655	0.805208
C50	C	1.513264	0.431730	1.266612
C51	C	1.615445	0.463260	1.313556
H52	H	1.489139	0.364213	1.291904
H53	H	1.469426	0.481537	1.284005
H54	H	1.511933	0.428042	1.192088
H55	H	1.616774	0.466956	1.388080
H56	H	1.659293	0.413441	1.296171
H57	H	1.115431	0.767319	0.766747
H58	H	1.735463	0.604764	1.312682
C59	C	1.589705	1.189868	0.391357
C60	C	1.615326	1.111337	0.463147
H61	H	1.565576	1.158481	0.323832
H62	H	1.536497	1.224974	0.414944
H63	H	1.649677	1.239398	0.386594
H64	H	1.555352	1.061811	0.467915
H65	H	1.668539	1.076213	0.439553
C66	C	1.826391	1.257912	0.659781
C67	C	1.758283	1.331012	0.625237
H68	H	1.890472	1.294405	0.692290
H69	H	1.796101	1.212127	0.709379
H70	H	1.838804	1.217639	0.601096
H71	H	1.745864	1.371279	0.683924
H72	H	1.788579	1.376815	0.575636
H73	H	1.632861	1.299004	0.488433
C74	C	1.311368	0.873510	1.130034
C75	C	1.370040	0.822072	1.066205
H76	H	1.265977	0.913300	1.087005
H77	H	1.271440	0.822606	1.167748
H78	H	1.356901	0.919524	1.178627
H79	H	1.324508	0.776053	1.017618
H80	H	1.409972	0.872983	1.028474
C81	C	1.384265	0.809626	1.406243
C82	C	1.370119	0.822033	1.296543
H83	H	1.338908	0.849415	1.437673
H84	H	1.368996	0.737085	1.422284
H85	H	1.454484	0.833979	1.433170
H86	H	1.299902	0.797672	1.269615
H87	H	1.385381	0.894589	1.280494
H88	H	1.632848	0.488526	1.130332
H89	H	1.731361	0.611654	1.138621
