data_functionalizedCrystal
_audit_creation_method	'MofGen! by Chris Wilmer'
_symmetry_space_group_name_H-M	'P1'
_symmetry_Int_Tables_number	1
_symmetry_cell_setting	triclinic
loop_
_symmetry_equiv_pos_as_xyz
  x,y,z
_cell_length_a	10.540539
_cell_length_b	15.995292
_cell_length_c	9.016244
_cell_angle_alpha	90.000954
_cell_angle_beta	89.994699
_cell_angle_gamma	83.997054
loop_
_atom_site_label
_atom_site_type_symbol
_atom_site_fract_x
_atom_site_fract_y
_atom_site_fract_z
O1	O	1.684234	0.117997	-0.123259
O2	O	1.314665	0.129115	-0.123276
O3	O	1.509590	0.001726	-0.123269
O4	O	1.489308	0.245387	-0.123266
O5	O	1.509562	0.001729	0.123412
O6	O	1.314636	0.129118	0.123405
O7	O	1.684206	0.118000	0.123422
Cu8	Cu	1.499418	0.123559	0.145937
Cu9	Cu	1.499452	0.123556	-0.145791
O10	O	1.489280	0.245389	0.123415
C11	C	1.267359	0.128283	0.000062
C12	C	1.126446	0.125788	0.000055
C13	C	0.944363	0.030203	0.000629
C14	C	1.090946	0.032731	0.000058
C15	C	1.064160	0.170570	-0.140806
C16	C	0.917660	0.167394	-0.140908
C17	C	0.917113	0.169290	0.139614
C18	C	1.064083	0.170147	0.141460
C19	C	1.508751	-0.029473	0.000067
C20	C	1.506276	-0.122441	0.000056
C21	C	1.497178	-0.460234	0.000069
C22	C	1.637870	-0.436080	0.000627
C23	C	1.640544	-0.339389	0.000066
C24	C	1.501692	-0.292651	0.000064
C25	C	1.431369	-0.322174	-0.140802
C26	C	1.429676	-0.418975	-0.140915
C27	C	1.426770	-0.418846	0.139608
C28	C	1.431984	-0.322322	0.141464
C29	C	1.504236	-0.197940	0.000055
C30	C	1.494630	-0.554945	0.000067
C31	C	1.731511	0.118832	0.000081
C32	C	1.872424	0.121327	0.000078
C33	C	1.490120	0.276588	0.000075
C34	C	1.492594	0.369556	0.000077
N35	N	1.499404	0.123561	0.351123
N36	N	1.499476	0.123548	-0.350977
C37	C	1.394818	0.191477	0.586152
C38	C	1.395043	0.191732	0.414261
C39	C	1.631847	0.143437	0.413468
C40	C	1.631275	0.143918	0.585413
C41	C	1.472868	0.035547	0.585664
C42	C	1.469814	0.036117	0.413710
H43	H	0.916283	-0.006559	0.101649
H44	H	1.134044	-0.002504	0.101033
H45	H	1.323210	-0.433456	0.140555
H46	H	1.329193	-0.290917	-0.146041
H47	H	1.372388	0.021052	0.372963
H48	H	1.412025	0.257021	0.373117
H49	H	0.868941	0.236505	0.140566
N50	N	1.094893	0.260019	0.152729
H51	H	1.053591	0.286869	0.244544
H52	H	1.190391	0.261022	0.158942
N53	N	1.662308	0.228966	0.638528
H54	H	1.662240	0.230131	0.750529
H55	H	1.749289	0.239758	0.600656
N56	N	1.494238	-0.454122	-0.280374
H57	H	1.446976	-0.429046	-0.369982
H58	H	1.585205	-0.439627	-0.282597
N59	N	1.146914	-0.014265	-0.133941
H60	H	1.192140	0.025038	-0.198134
H61	H	1.209694	-0.062618	-0.100492
N62	N	1.713919	-0.314547	-0.133934
H63	H	1.789660	-0.285560	-0.100608
H64	H	1.744571	-0.366472	-0.192829
N65	N	1.709684	-0.472734	0.134445
H66	H	1.711983	-0.536008	0.132510
H67	H	1.799687	-0.456430	0.132590
H68	H	1.105493	0.137433	0.245669
N69	N	1.737492	0.080919	0.640553
H70	H	1.723705	0.023048	0.603112
H71	H	1.821964	0.096825	0.602908
N72	N	1.737470	0.079691	0.359309
H73	H	1.700393	0.037214	0.293677
H74	H	1.801357	0.109247	0.300987
H75	H	1.655853	0.206914	0.370393
N76	N	1.709319	-0.474073	-0.132442
H77	H	1.799599	-0.458251	-0.131242
H78	H	1.710845	-0.537280	-0.128903
N79	N	1.417041	0.277480	0.643291
H80	H	1.494603	0.272629	0.709733
H81	H	1.431331	0.315521	0.556815
N82	N	1.347711	0.010497	0.643159
H83	H	1.306989	0.055945	0.710870
H84	H	1.288913	0.002731	0.556940
N85	N	1.293041	-0.439070	-0.149412
H86	H	1.280916	-0.473091	-0.241747
H87	H	1.272577	-0.472485	-0.059053
H88	H	1.296595	0.179773	0.372112
N89	N	1.564227	-0.034064	0.356813
H90	H	1.627803	-0.010062	0.289360
H91	H	1.610602	-0.063429	0.443323
H92	H	0.914682	-0.006406	-0.099828
H93	H	1.480227	-0.301823	-0.245631
H94	H	1.085553	0.238908	-0.146046
N95	N	1.713505	-0.313761	0.133822
H96	H	1.789257	-0.284876	0.100191
H97	H	1.655851	-0.273954	0.197179
H98	H	1.471065	-0.446668	0.246383
H99	H	1.483190	-0.303449	0.245675
H100	H	1.330635	-0.289959	0.149970
H101	H	1.549190	-0.015014	0.626319
N102	N	1.263992	0.175890	0.640973
H103	H	1.271292	0.124645	0.707099
H104	H	1.225700	0.226381	0.698931
H105	H	0.889928	0.134294	-0.246204
H106	H	1.107198	0.139459	-0.245638
N107	N	0.852832	0.256031	-0.149344
H108	H	0.878287	0.289164	-0.060791
H109	H	0.879542	0.283601	-0.243477
H110	H	0.885978	0.139176	0.246385
