data_functionalizedCrystal
_audit_creation_method	'MofGen! by Chris Wilmer'
_symmetry_space_group_name_H-M	'P1'
_symmetry_Int_Tables_number	1
_symmetry_cell_setting	triclinic
loop_
_symmetry_equiv_pos_as_xyz
  x,y,z
_cell_length_a	10.489741
_cell_length_b	10.489741
_cell_length_c	9.130313
_cell_angle_alpha	89.996004
_cell_angle_beta	89.998676
_cell_angle_gamma	84.539174
loop_
_atom_site_label
_atom_site_type_symbol
_atom_site_fract_x
_atom_site_fract_y
_atom_site_fract_z
O1	O	1.694053	0.179967	-0.121708
O2	O	1.322857	0.196860	-0.121731
O3	O	1.516901	0.002816	-0.121710
O4	O	1.500009	0.374011	-0.121728
O5	O	1.516886	0.002811	0.121889
O6	O	1.322842	0.196855	0.121868
O7	O	1.694038	0.179963	0.121891
Cu8	Cu	1.508438	0.188409	0.144122
Cu9	Cu	1.508456	0.188414	-0.143962
O10	O	1.499993	0.374007	0.121870
C11	C	1.275318	0.195582	0.000066
C12	C	1.133688	0.191765	0.000057
C13	C	1.515618	-0.044718	0.000088
C14	C	1.511801	-0.186348	0.000086
C15	C	1.065548	0.068300	0.000077
C16	C	0.973429	0.126626	-0.120029
C17	C	0.973448	0.126651	0.120140
C18	C	1.043435	0.250141	-0.120149
C19	C	1.043463	0.250149	0.120129
C20	C	0.951371	0.308564	-0.000007
C21	C	1.388336	-0.254488	0.000067
C22	C	1.446652	-0.346613	0.120178
C23	C	1.446696	-0.346583	-0.119992
C24	C	1.570168	-0.276607	0.120295
C25	C	1.570195	-0.276568	-0.119982
C26	C	1.628600	-0.368665	0.000158
C27	C	1.741577	0.181241	0.000091
C28	C	1.883206	0.185058	0.000090
C29	C	1.501277	0.421541	0.000069
C30	C	1.505094	0.563170	0.000062
N31	N	1.508435	0.188404	0.346745
C32	C	1.594386	0.102518	0.423406
C33	C	1.594397	0.102519	0.576743
C34	C	1.422501	0.274303	0.576744
C35	C	1.422485	0.274295	0.423410
N36	N	1.508462	0.188413	0.653416
H37	H	1.115238	-0.033196	-0.000068
Cl38	Cl	1.650793	-0.228628	-0.276759
Cl39	Cl	1.314417	0.382268	0.327027
H40	H	1.286824	-0.204837	0.000182
Cl41	Cl	1.785465	-0.444978	0.000264
H42	H	1.664385	0.032581	0.639156
H43	H	1.074269	0.302343	-0.221804
H44	H	1.352525	0.344235	0.639180
Cl45	Cl	1.650747	-0.229016	0.277247
H46	H	0.942421	0.074387	-0.221568
H47	H	1.394447	-0.377545	-0.221545
H48	H	0.901947	0.410168	-0.000078
H49	H	0.942464	0.074386	0.221681
Cl50	Cl	1.091393	0.330736	0.276904
H51	H	1.394405	-0.377626	0.221716
Cl52	Cl	1.702432	-0.005464	0.327033
