data_functionalizedCrystal
_audit_creation_method	'MofGen! by Chris Wilmer'
_symmetry_space_group_name_H-M	'P1'
_symmetry_Int_Tables_number	1
_symmetry_cell_setting	triclinic
loop_
_symmetry_equiv_pos_as_xyz
  x,y,z
_cell_length_a	15.944551
_cell_length_b	16.992694
_cell_length_c	16.053802
_cell_angle_alpha	92.750953
_cell_angle_beta	92.564789
_cell_angle_gamma	92.916519
loop_
_atom_site_label
_atom_site_type_symbol
_atom_site_fract_x
_atom_site_fract_y
_atom_site_fract_z
O1	O	0.174798	-1.043704	-0.069327
O2	O	0.674798	-0.543704	0.430673
O3	O	0.172843	-0.815419	-0.069352
O4	O	0.672843	-0.315419	0.430648
O5	O	0.051964	-0.935795	-0.069332
O6	O	0.551964	-0.435795	0.430668
O7	O	0.295677	-0.923328	-0.069348
O8	O	0.795677	-0.423328	0.430652
O9	O	0.058588	-0.929169	0.069526
O10	O	0.558588	-0.429169	0.569526
O11	O	0.179467	-0.808793	0.069506
O12	O	0.679467	-0.308793	0.569506
O13	O	0.181422	-1.037078	0.069530
O14	O	0.681422	-0.537078	0.569530
Zn15	Zn	0.181497	-0.921884	0.091565
Zn16	Zn	0.681497	-0.421884	0.591565
Zn17	Zn	0.172769	-0.930613	-0.091386
Zn18	Zn	0.672769	-0.430613	0.408614
O19	O	0.302301	-0.916702	0.069510
O20	O	0.802301	-0.416702	0.569510
C21	C	0.173641	-0.782894	0.000074
C22	C	0.673641	-0.282894	0.500074
C23	C	0.166141	-0.695850	0.000065
C24	C	0.666141	-0.195850	0.500065
C25	C	0.023948	-0.931964	0.000097
C26	C	0.523948	-0.431964	0.500097
C27	C	-0.069402	-0.930413	0.000098
C28	C	0.430598	-0.430413	0.500098
C29	C	0.180624	-1.069603	0.000103
C30	C	0.680624	-0.569603	0.500103
C31	C	0.188124	-1.156648	0.000106
C32	C	0.688124	-0.656648	0.500106
C33	C	-0.289513	-0.852090	0.000078
C34	C	0.210487	-0.352090	0.500078
C35	C	-0.344825	-0.885194	0.068547
C36	C	0.155175	-0.385194	0.568547
C37	C	-0.240317	-0.927606	0.000091
C38	C	0.259683	-0.427606	0.500091
C39	C	-0.351338	-0.891744	-0.068356
C40	C	0.148662	-0.391744	0.431644
C41	C	-0.405412	-0.924889	0.000081
C42	C	0.094588	-0.424889	0.500081
C43	C	-0.294396	-0.960728	0.068617
C44	C	0.205604	-0.460728	0.568617
C45	C	-0.300907	-0.967271	-0.068348
C46	C	0.199093	-0.467271	0.431652
C47	C	-0.356196	-1.000429	0.000138
C48	C	0.143804	-0.500429	0.500138
C49	C	-0.145209	-0.929169	0.000098
C50	C	0.354791	-0.429169	0.500098
C51	C	-0.500518	-0.923332	0.000080
C52	C	-0.000518	-0.423332	0.500080
C53	C	0.330318	-0.920533	0.000079
C54	C	0.830318	-0.420533	0.500079
C55	C	0.423667	-0.922085	0.000073
C56	C	0.923667	-0.422085	0.500073
N57	N	0.187453	-0.915931	0.216424
N58	N	0.687453	-0.415931	0.716424
C59	C	0.238506	-0.645613	0.000061
C60	C	0.738506	-0.145613	0.500061
C61	C	0.231454	-0.563826	0.000073
C62	C	0.731454	-0.063826	0.500073
C63	C	0.152037	-0.532276	0.000083
C64	C	0.652037	-0.032276	0.500083
C65	C	0.079667	-0.582519	0.000089
C66	C	0.579667	-0.082519	0.500089
C67	C	0.086719	-0.664305	0.000083
C68	C	0.586719	-0.164305	0.500083
C69	C	0.122807	-0.288676	0.000107
C70	C	0.622807	0.211324	0.500107
C71	C	0.115759	-0.206884	0.000111
C72	C	0.615759	0.293116	0.500111
C73	C	0.267548	-0.188196	0.000095
C74	C	0.767548	0.311804	0.500095
C75	C	0.274593	-0.269984	0.000084
C76	C	0.774593	0.230016	0.500084
C77	C	0.202223	-0.320220	0.000095
C78	C	0.702223	0.179780	0.500095
N79	N	0.144827	-0.448677	0.000092
N80	N	0.644827	0.051323	0.500092
N81	N	0.209434	-0.403818	0.000092
N82	N	0.709434	0.096182	0.500092
N83	N	0.166806	-0.936572	-0.216246
N84	N	0.666806	-0.436572	0.283754
C85	C	0.136040	-0.967170	0.260127
C86	C	0.636040	-0.467170	0.760127
C87	C	0.140215	-0.963014	0.347533
C88	C	0.640215	-0.463014	0.847533
C89	C	0.195808	-0.907622	0.391235
C90	C	0.695808	-0.407622	0.891235
C91	C	0.247223	-0.856378	0.347526
C92	C	0.747223	-0.356378	0.847526
C93	C	0.243043	-0.860531	0.260121
C94	C	0.743043	-0.360531	0.760121
C95	C	0.214042	-0.889481	0.652641
C96	C	0.714042	-0.389481	1.152641
C97	C	0.218220	-0.885333	0.740052
C98	C	0.718220	-0.385333	1.240052
C99	C	0.111209	-0.991968	0.740053
C100	C	0.611209	-0.491968	1.240053
C101	C	0.107038	-0.996120	0.652646
C102	C	0.607038	-0.496120	1.152646
C103	C	0.158450	-0.944873	0.608945
C104	C	0.658450	-0.444873	1.108945
N105	N	0.200078	-0.903374	0.480578
N106	N	0.700078	-0.403374	0.980578
N107	N	0.154175	-0.949118	0.519604
N108	N	0.654175	-0.449118	1.019604
H109	H	-0.260406	-0.789404	0.000139
H110	H	0.239594	-0.289404	0.500139
N111	N	0.324165	-0.679635	0.000056
N112	N	0.824165	-0.179635	0.500056
H113	H	0.317655	-0.739069	0.000051
H114	H	0.817655	-0.239069	0.500051
H115	H	0.353618	-0.663705	-0.051421
H116	H	0.853618	-0.163705	0.448579
N117	N	-0.261414	-0.999323	0.145382
N118	N	0.238586	-0.499323	0.645382
H119	H	-0.277737	-0.968545	0.197023
H120	H	0.222263	-0.468545	0.697023
H121	H	-0.286276	-1.055176	0.145562
H122	H	0.213724	-0.555176	0.645562
N123	N	-0.370634	-0.839237	0.145222
N124	N	0.129366	-0.339237	0.645222
H125	H	-0.346231	-0.783213	0.145168
H126	H	0.153769	-0.283213	0.645168
H127	H	-0.433978	-0.839025	0.144893
H128	H	0.066022	-0.339025	0.644893
H129	H	0.284908	-0.818806	0.224539
H130	H	0.784908	-0.318806	0.724539
N131	N	0.309509	-0.509637	0.000162
N132	N	0.809509	-0.009637	0.500162
H133	H	0.360890	-0.542032	0.000180
H134	H	0.860890	-0.042032	0.500180
H135	H	0.307493	-0.477698	-0.051280
H136	H	0.807493	0.022302	0.448720
N137	N	0.269495	-0.834204	0.605523
N138	N	0.769495	-0.334204	1.105523
H139	H	0.330449	-0.842512	0.620724
H140	H	0.830449	-0.342512	1.120724
H141	H	0.258346	-0.845255	0.543535
H142	H	0.758346	-0.345255	1.043535
N143	N	0.278184	-0.825578	0.787178
N144	N	0.778184	-0.325578	1.287178
H145	H	0.245466	-0.789144	0.823457
H146	H	0.745466	-0.289144	1.323457
H147	H	0.319131	-0.853874	0.823380
H148	H	0.819131	-0.353874	1.323380
N149	N	-0.005991	-0.548493	0.000093
N150	N	0.494009	-0.048493	0.500093
H151	H	-0.050764	-0.592731	0.000095
H152	H	0.449236	-0.092731	0.500095
H153	H	-0.009769	-0.512516	0.051570
H154	H	0.490231	-0.012516	0.551570
H155	H	-0.385145	-1.063164	0.000184
H156	H	0.114855	-0.563164	0.500184
N157	N	-0.275062	-1.013208	-0.145014
N158	N	0.224938	-0.513208	0.354986
H159	H	-0.295748	-0.987098	-0.196708
H160	H	0.204252	-0.487098	0.303292
H161	H	-0.211759	-1.014335	-0.144074
H162	H	0.288241	-0.514335	0.355926
N163	N	-0.384451	-0.853081	-0.145026
N164	N	0.115549	-0.353081	0.354974
H165	H	-0.360040	-0.797053	-0.144967
H166	H	0.139960	-0.297053	0.355033
H167	H	-0.367724	-0.883562	-0.196694
H168	H	0.132276	-0.383562	0.303306
H169	H	0.339262	-0.295666	0.000066
H170	H	0.839262	0.204334	0.500066
H171	H	0.090773	-1.012279	0.224550
H172	H	0.590773	-0.512279	0.724550
N173	N	0.008671	-0.718495	0.000083
N174	N	0.508671	-0.218495	0.500083
H175	H	0.010673	-0.750394	0.051557
H176	H	0.510673	-0.250394	0.551557
H177	H	-0.042669	-0.686049	0.000057
H178	H	0.457331	-0.186049	0.500057
N179	N	0.345600	-0.134015	0.000085
N180	N	0.845600	0.365985	0.500085
H181	H	0.329085	-0.077416	0.000091
H182	H	0.829085	0.422584	0.500091
H183	H	0.382429	-0.141782	0.051558
H184	H	0.882429	0.358218	0.551558
N185	N	0.030098	-0.172854	0.000116
N186	N	0.530098	0.327146	0.500116
H187	H	-0.014678	-0.217087	0.000123
H188	H	0.485322	0.282913	0.500123
H189	H	0.026326	-0.136874	0.051592
H190	H	0.526326	0.363126	0.551592
N191	N	0.044755	-0.342852	0.000124
N192	N	0.544755	0.157148	0.500124
H193	H	-0.006624	-0.310453	0.000130
H194	H	0.493376	0.189547	0.500130
H195	H	0.041911	-0.379646	-0.051350
H196	H	0.541911	0.120354	0.448650
H197	H	0.098349	-1.004736	0.383115
H198	H	0.598349	-0.504736	0.883115
N199	N	0.047078	-1.055865	0.605512
N200	N	0.547078	-0.555865	1.105512
H201	H	0.015140	-1.087694	0.646462
H202	H	0.515140	-0.587694	1.146462
H203	H	0.006177	-1.027570	0.569258
H204	H	0.506177	-0.527570	1.069258
N205	N	0.055760	-1.047239	0.787186
N206	N	0.555760	-0.547239	1.287186
H207	H	0.066841	-1.036205	0.849188
H208	H	0.566841	-0.536205	1.349188
H209	H	-0.005172	-1.038906	0.771920
H210	H	0.494828	-0.538906	1.271920
H211	H	0.292485	-0.811273	0.383113
H212	H	0.792485	-0.311273	0.883113
