data_functionalizedCrystal
_audit_creation_method	'MofGen! by Chris Wilmer'
_symmetry_space_group_name_H-M	'P1'
_symmetry_Int_Tables_number	1
_symmetry_cell_setting	triclinic
loop_
_symmetry_equiv_pos_as_xyz
  x,y,z
_cell_length_a	13.032831
_cell_length_b	19.120904
_cell_length_c	13.032721
_cell_angle_alpha	99.259939
_cell_angle_beta	90.902885
_cell_angle_gamma	85.545341
loop_
_atom_site_label
_atom_site_type_symbol
_atom_site_fract_x
_atom_site_fract_y
_atom_site_fract_z
Zn1	Zn	1.479527	-0.577867	-0.640939
Zn2	Zn	1.979527	-0.077867	-0.140939
Zn3	Zn	1.464932	-0.473366	-0.807210
Zn4	Zn	1.964932	0.026634	-0.307210
Zn5	Zn	1.316971	-0.444097	-0.611801
Zn6	Zn	1.816971	0.055903	-0.111801
Zn7	Zn	1.285939	-0.574123	-0.790782
Zn8	Zn	1.785939	-0.074123	-0.290782
O9	O	1.386842	-0.517363	-0.712683
O10	O	1.886842	-0.017363	-0.212683
O11	O	1.620531	-0.577822	-0.682065
O12	O	2.120531	-0.077822	-0.182065
O13	O	1.452183	-0.371333	-0.775969
O14	O	1.952183	0.128667	-0.275969
O15	O	1.357629	-0.451160	-0.471177
O16	O	1.857629	0.048840	0.028823
O17	O	1.609808	-0.501045	-0.804223
O18	O	2.109808	-0.001045	-0.304223
O19	O	1.477059	-0.549440	-0.492585
O20	O	1.977059	-0.049440	0.007415
O21	O	1.343477	-0.349829	-0.632402
O22	O	1.843477	0.150171	-0.132402
O23	O	1.169914	-0.447529	-0.616473
O24	O	1.669914	0.052471	-0.116473
O25	O	1.304741	-0.672770	-0.776224
O26	O	1.804741	-0.172770	-0.276224
O27	O	1.147116	-0.543058	-0.747970
O28	O	1.647116	-0.043058	-0.247970
O29	O	1.446969	-0.675521	-0.666136
O30	O	1.946969	-0.175521	-0.166136
O31	O	1.422094	-0.497414	-0.949519
O32	O	1.922094	0.002586	-0.449519
O33	O	1.290588	-0.571439	-0.937450
O34	O	1.790588	-0.071439	-0.437450
C35	C	1.121452	-0.491711	-0.677278
C36	C	1.621452	0.008289	-0.177278
C37	C	1.007913	-0.480756	-0.662157
C38	C	1.507913	0.019244	-0.162157
C39	C	1.374021	-0.700306	-0.722598
C40	C	1.874021	-0.200306	-0.222598
C41	C	1.368558	-0.778266	-0.726823
C42	C	1.868558	-0.278266	-0.226823
C43	C	0.946032	-0.523081	-0.720575
C44	C	1.446032	-0.023081	-0.220575
C45	C	0.828683	-0.511759	-0.704948
C46	C	1.328683	-0.011759	-0.204948
C47	C	1.440038	-0.816325	-0.671493
C48	C	1.940038	-0.316325	-0.171493
C49	C	1.434892	-0.889574	-0.675458
C50	C	1.934892	-0.389574	-0.175458
C51	C	1.358270	-0.924765	-0.734759
C52	C	1.858270	-0.424765	-0.234759
C53	C	1.286783	-0.886700	-0.790090
C54	C	1.786783	-0.386700	-0.290090
C55	C	1.291925	-0.813451	-0.786119
C56	C	1.791925	-0.313451	-0.286119
C57	C	1.339036	-1.145857	-0.749610
C58	C	1.839036	-0.645857	-0.249610
C59	C	1.333902	-1.219112	-0.753580
C60	C	1.833902	-0.719112	-0.253580
C61	C	1.482011	-1.221981	-0.638946
C62	C	1.982011	-0.721981	-0.138946
C63	C	1.487149	-1.148731	-0.634985
C64	C	1.987149	-0.648731	-0.134985
C65	C	1.415659	-1.110672	-0.690312
C66	C	1.915659	-0.610672	-0.190312
C67	C	1.353011	-0.999638	-0.738815
C68	C	1.853011	-0.499638	-0.238815
C69	C	1.420915	-1.035799	-0.686249
C70	C	1.920915	-0.535799	-0.186249
C71	C	1.653268	-0.543116	-0.748227
C72	C	2.153268	-0.043116	-0.248227
C73	C	1.766803	-0.554090	-0.763374
C74	C	2.266803	-0.054090	-0.263374
C75	C	1.351416	-0.537215	-0.980954
C76	C	1.851416	-0.037215	-0.480954
C77	C	1.336353	-0.545739	-1.095735
C78	C	1.836353	-0.045739	-0.595735
C79	C	1.399682	-0.335132	-0.702740
C80	C	1.899682	0.164868	-0.202740
C81	C	1.405382	-0.257171	-0.698250
C82	C	1.905382	0.242829	-0.198250
C83	C	1.394756	-0.512951	-1.152854
C84	C	1.894756	-0.012951	-0.652854
C85	C	1.379189	-0.521761	-1.271486
C86	C	1.879189	-0.021761	-0.771486
C87	C	1.422433	-0.497453	-0.443369
C88	C	1.922433	0.002547	0.056631
C89	C	1.437600	-0.488968	-0.328604
C90	C	1.937600	0.011032	0.171396
H91	H	0.979931	-0.567702	-0.782154
H92	H	1.479931	-0.067702	-0.282154
Cl93	Cl	0.955586	-0.411869	-0.567069
Cl94	Cl	1.455586	0.088131	-0.067069
H95	H	0.800696	-0.598716	-0.824955
H96	H	1.300696	-0.098716	-0.324955
H97	H	0.794790	-0.467140	-0.643357
H98	H	1.294790	0.032860	-0.143357
H99	H	1.493101	-0.920559	-0.630405
H100	H	1.993101	-0.420559	-0.130405
H101	H	1.499134	-0.454375	-1.289685
H102	H	1.999134	0.045625	-0.789685
Cl103	Cl	1.571875	-1.269829	-0.569392
Cl104	Cl	2.071875	-0.769829	-0.069392
Cl105	Cl	1.536372	-0.772094	-0.596946
Cl106	Cl	2.036372	-0.272094	-0.096946
H107	H	1.549546	-1.120085	-0.586699
H108	H	2.049546	-0.620085	-0.086699
Cl109	Cl	1.237565	-1.263349	-0.828128
Cl110	Cl	1.737565	-0.763349	-0.328128
H111	H	1.224392	-0.915357	-0.838369
H112	H	1.724392	-0.415357	-0.338369
H113	H	1.280837	-1.114881	-0.794679
H114	H	1.780837	-0.614881	-0.294679
Cl115	Cl	1.202057	-0.765604	-0.855676
Cl116	Cl	1.702057	-0.265604	-0.355676
H117	H	1.483296	-1.007144	-0.637962
H118	H	1.983296	-0.507144	-0.137962
Cl119	Cl	1.256693	-1.043884	-0.813367
Cl120	Cl	1.756693	-0.543884	-0.313367
H121	H	1.274831	-0.580336	-1.134660
H122	H	1.774831	-0.080336	-0.634660
Cl123	Cl	1.489757	-0.459544	-1.092767
Cl124	Cl	1.989757	0.040456	-0.592767
Cl125	Cl	1.284195	-0.575180	-1.331571
Cl126	Cl	1.784195	-0.075180	-0.831571
