data_functionalizedCrystal
_audit_creation_method	'MofGen! by Chris Wilmer'
_symmetry_space_group_name_H-M	'P1'
_symmetry_Int_Tables_number	1
_symmetry_cell_setting	triclinic
loop_
_symmetry_equiv_pos_as_xyz
  x,y,z
_cell_length_a	18.050589
_cell_length_b	19.077241
_cell_length_c	19.077174
_cell_angle_alpha	94.706947
_cell_angle_beta	92.276796
_cell_angle_gamma	87.679727
loop_
_atom_site_label
_atom_site_type_symbol
_atom_site_fract_x
_atom_site_fract_y
_atom_site_fract_z
Zn1	Zn	-0.268160	-1.093724	-0.442013
Zn2	Zn	0.231840	-0.593724	0.057987
Zn3	Zn	-0.387560	-1.088902	-0.324132
Zn4	Zn	0.112440	-0.588902	0.175868
Zn5	Zn	-0.268169	-0.971105	-0.319394
Zn6	Zn	0.231831	-0.471105	0.180606
Zn7	Zn	-0.397097	-0.975791	-0.437235
Zn8	Zn	0.102903	-0.475791	0.062765
O9	O	-0.330246	-1.032380	-0.380694
O10	O	0.169754	-0.532380	0.119306
O11	O	-0.280004	-1.191737	-0.430359
O12	O	0.219996	-0.691737	0.069641
O13	O	-0.367736	-1.069296	-0.224853
O14	O	0.132264	-0.569296	0.275147
O15	O	-0.164241	-0.987427	-0.335676
O16	O	0.335759	-0.487427	0.164324
O17	O	-0.367727	-1.188195	-0.343752
O18	O	0.132273	-0.688195	0.156248
O19	O	-0.164235	-1.077515	-0.425764
O20	O	0.335765	-0.577515	0.074236
O21	O	-0.280019	-0.982752	-0.221372
O22	O	0.219981	-0.482752	0.278628
O23	O	-0.289266	-0.873073	-0.331043
O24	O	0.210734	-0.373073	0.168957
O25	O	-0.383980	-0.995415	-0.536519
O26	O	0.116020	-0.495415	-0.036519
O27	O	-0.383989	-0.876516	-0.417620
O28	O	0.116011	-0.376516	0.082380
O29	O	-0.289250	-1.082059	-0.540030
O30	O	0.210750	-0.582059	-0.040030
O31	O	-0.492752	-1.073841	-0.339119
O32	O	0.007248	-0.573841	0.160881
O33	O	-0.499758	-0.990739	-0.422215
O34	O	0.000242	-0.490739	0.077785
C35	C	-0.337664	-0.849215	-0.373299
C36	C	0.162336	-0.349215	0.126701
C37	C	-0.340856	-0.770857	-0.370152
C38	C	0.159144	-0.270857	0.129848
C39	C	-0.296761	-0.735892	-0.413834
C40	C	0.203239	-0.235892	0.086166
C41	C	-0.299756	-0.662266	-0.410871
C42	C	0.200244	-0.162266	0.089129
C43	C	-0.346851	-0.623606	-0.364230
C44	C	0.153149	-0.123606	0.135770
C45	C	-0.390947	-0.658576	-0.320543
C46	C	0.109053	-0.158576	0.179457
C47	C	-0.387948	-0.732201	-0.323503
C48	C	0.112052	-0.232201	0.176497
C49	C	-0.360707	-0.403213	-0.350532
C50	C	0.139293	0.096787	0.149468
C51	C	-0.363705	-0.329584	-0.347577
C52	C	0.136295	0.170416	0.152423
C53	C	-0.272512	-0.333279	-0.437905
C54	C	0.227488	0.166721	0.062095
C55	C	-0.269520	-0.406905	-0.440863
C56	C	0.230480	0.093095	0.059137
C57	C	-0.313614	-0.441868	-0.397174
C58	C	0.186386	0.058132	0.102826
N59	N	-0.349915	-0.548348	-0.361202
N60	N	0.150085	-0.048348	0.138798
N61	N	-0.310545	-0.517124	-0.400199
N62	N	0.189455	-0.017124	0.099801
C63	C	-0.523201	-1.032295	-0.380678
C64	C	-0.023201	-0.532295	0.119322
C65	C	-0.605747	-1.032324	-0.380698
C66	C	-0.105747	-0.532324	0.119302
C67	C	-0.809032	-0.987179	-0.425871
C68	C	-0.309032	-0.487179	0.074129
C69	C	-0.856551	-0.967414	-0.360852
C70	C	-0.356551	-0.467414	0.139148
C71	C	-0.756875	-1.032393	-0.380710
C72	C	-0.256875	-0.532393	0.119290
C73	C	-0.856436	-1.052193	-0.445738
C74	C	-0.356436	-0.552193	0.054262
C75	C	-0.902858	-1.032459	-0.380727
C76	C	-0.402858	-0.532459	0.119273
C77	C	-0.803307	-1.012593	-0.315655
C78	C	-0.303307	-0.512593	0.184345
C79	C	-0.803188	-1.097404	-0.400587
C80	C	-0.303188	-0.597404	0.099413
C81	C	-0.850682	-1.077662	-0.335524
C82	C	-0.350682	-0.577662	0.164476
C83	C	-0.672778	-1.032353	-0.380701
C84	C	-0.172778	-0.532353	0.119299
C85	C	-0.986953	-1.032499	-0.380729
C86	C	-0.486953	-0.532499	0.119271
C87	C	-0.136538	-1.032486	-0.380725
C88	C	0.363462	-0.532486	0.119275
C89	C	-0.053990	-1.032531	-0.380738
C90	C	0.446010	-0.532531	0.119262
C91	C	-0.337678	-1.039798	-0.564569
C92	C	0.162322	-0.539798	-0.064569
C93	C	-0.340845	-1.042958	-0.642925
C94	C	0.159155	-0.542958	-0.142925
C95	C	-0.322796	-0.216261	-0.388112
C96	C	0.177204	0.283739	0.111888
C97	C	-0.319610	-0.294619	-0.391259
C98	C	0.180390	0.205381	0.108741
C99	C	-0.296664	-0.999386	-0.677925
C100	C	0.203336	-0.499386	-0.177925
C101	C	-0.299646	-1.002353	-0.751549
C102	C	0.200354	-0.502353	-0.251549
C103	C	-0.346805	-1.048897	-0.790173
C104	C	0.153195	-0.548897	-0.290173
C105	C	-0.390991	-1.092471	-0.755169
C106	C	0.109009	-0.592471	-0.255169
C107	C	-0.388012	-1.089500	-0.681546
C108	C	0.111988	-0.589500	-0.181546
C109	C	-0.360614	-1.062611	-1.010557
C110	C	0.139386	-0.562611	-0.510557
C111	C	-0.363587	-1.065581	-1.084185
C112	C	0.136413	-0.565581	-0.584185
C113	C	-0.272243	-0.975462	-1.080560
C114	C	0.227757	-0.475462	-0.580560
C115	C	-0.269266	-0.972498	-1.006936
C116	C	0.230734	-0.472498	-0.506936
C117	C	-0.313454	-1.016069	-0.971938
C118	C	0.186546	-0.516069	-0.471938
N119	N	-0.349853	-1.051932	-0.865429
N120	N	0.150147	-0.551932	-0.365429
N121	N	-0.310410	-1.013030	-0.896683
N122	N	0.189590	-0.513030	-0.396683
C123	C	-0.322788	-1.025033	-0.197535
C124	C	0.177212	-0.525033	0.302465
C125	C	-0.319407	-1.022009	-0.119184
C126	C	0.180593	-0.522009	0.380816
H127	H	-0.258413	-0.767364	-0.451817
H128	H	0.241587	-0.267364	0.048183
O129	O	-0.218714	-0.448602	-0.491159
O130	O	0.281286	0.051398	0.008841
H131	H	-0.188546	-0.411919	-0.521030
H132	H	0.311454	0.088081	-0.021030
O133	O	-0.224944	-0.295570	-0.485016
O134	O	0.275056	0.204430	0.014984
H135	H	-0.234933	-0.237879	-0.475118
H136	H	0.265067	0.262121	0.024882
H137	H	-0.429393	-1.130364	-0.786622
H138	H	0.070607	-0.630364	-0.286622
O139	O	-0.887264	-1.074348	-0.518573
O140	O	-0.387264	-0.574348	-0.018573
H141	H	-0.870692	-1.036699	-0.555943
H142	H	-0.370692	-0.536699	-0.055943
O143	O	-0.414494	-0.287885	-0.297259
O144	O	0.085506	0.212115	0.202741
H145	H	-0.454976	-0.255609	-0.327398
H146	H	0.045024	0.244391	0.172602
H147	H	-0.263850	-0.633801	-0.446443
H148	H	0.236150	-0.133801	0.053557
H149	H	-0.879944	-0.912467	-0.344055
H150	H	-0.379944	-0.412467	0.155945
O151	O	-0.435504	-0.769916	-0.276384
O152	O	0.064496	-0.269916	0.223616
H153	H	-0.473242	-0.804730	-0.309219
H154	H	0.026758	-0.304730	0.190781
O155	O	-0.784625	-0.936453	-0.476377
O156	O	-0.284625	-0.436453	0.023623
H157	H	-0.834214	-0.910861	-0.501160
H158	H	-0.334214	-0.410861	-0.001160
H159	H	-0.263672	-0.966869	-0.780042
H160	H	0.236328	-0.466869	-0.280042
O161	O	-0.408266	-0.440913	-0.303409
O162	O	0.091734	0.059087	0.196591
H163	H	-0.446008	-0.475727	-0.336242
H164	H	0.053992	0.024273	0.163758
H165	H	-0.423983	-1.124986	-0.653051
H166	H	0.076017	-0.624986	-0.153051
H167	H	-0.258258	-0.961489	-0.646482
H168	H	0.241742	-0.461489	-0.146482
O169	O	-0.441742	-0.616884	-0.270232
O170	O	0.058258	-0.116884	0.229768
H171	H	-0.436426	-0.559813	-0.275516
H172	H	0.063574	-0.059813	0.224484
O173	O	-0.772203	-1.170172	-0.422875
O174	O	-0.272203	-0.670172	0.077125
H175	H	-0.735747	-1.189460	-0.379761
H176	H	-0.235747	-0.689460	0.120239
O177	O	-0.772609	-0.990356	-0.242793
O178	O	-0.272609	-0.490356	0.257207
H179	H	-0.711140	-0.990474	-0.243365
H180	H	-0.211140	-0.490474	0.256635
O181	O	-0.874896	-1.128350	-0.284892
O182	O	-0.374896	-0.628350	0.215108
H183	H	-0.853465	-1.111779	-0.230989
H184	H	-0.353465	-0.611779	0.269011
O185	O	-0.218388	-0.922310	-0.965277
O186	O	0.281612	-0.422310	-0.465277
H187	H	-0.188164	-0.892511	-1.001984
H188	H	0.311836	-0.392511	-0.501984
O189	O	-0.224576	-0.928475	-1.118306
O190	O	0.275424	-0.428475	-0.618306
H191	H	-0.234567	-0.938359	-1.175990
H192	H	0.265433	-0.438359	-0.675990
H193	H	-0.401991	-1.103485	-1.115631
H194	H	0.098009	-0.603485	-0.615631
H195	H	-0.396604	-1.098083	-0.982070
H196	H	0.103396	-0.598083	-0.482070
