data_functionalizedCrystal
_audit_creation_method	'MofGen! by Chris Wilmer'
_symmetry_space_group_name_H-M	'P1'
_symmetry_Int_Tables_number	1
_symmetry_cell_setting	triclinic
loop_
_symmetry_equiv_pos_as_xyz
  x,y,z
_cell_length_a	14.853566
_cell_length_b	14.853569
_cell_length_c	13.930277
_cell_angle_alpha	90.002857
_cell_angle_beta	89.998044
_cell_angle_gamma	96.365010
loop_
_atom_site_label
_atom_site_type_symbol
_atom_site_fract_x
_atom_site_fract_y
_atom_site_fract_z
O1	O	1.196367	-0.117695	-0.079770
O2	O	0.933907	-0.131717	-0.079786
O3	O	1.072147	0.006524	-0.079768
O4	O	1.058127	-0.255936	-0.079788
O5	O	1.072133	0.006520	0.079893
O6	O	0.933894	-0.131721	0.079876
O7	O	1.196353	-0.117698	0.079892
Zn8	Zn	1.065121	-0.124710	0.105234
Zn9	Zn	1.065139	-0.124705	-0.105128
O10	O	1.058114	-0.255939	0.079874
C11	C	0.900312	-0.131084	0.000043
C12	C	0.800228	-0.129181	0.000037
C13	C	0.377051	-0.121128	-0.086977
C14	C	0.377057	-0.121133	0.087092
C15	C	0.471091	-0.122920	0.087089
C16	C	0.518109	-0.123813	0.000052
C17	C	0.471093	-0.122918	-0.086983
C18	C	0.518113	-0.123824	0.174122
C19	C	0.612153	-0.125612	0.174122
C20	C	0.659173	-0.126499	0.087084
C21	C	0.612152	-0.125603	0.000046
C22	C	0.659170	-0.126496	-0.086992
C23	C	0.612150	-0.125593	-0.174031
C24	C	0.518114	-0.123804	-0.174022
C25	C	0.753210	-0.128288	0.087075
C26	C	0.753212	-0.128286	-0.086998
C27	C	1.071505	0.040111	0.000063
C28	C	1.069600	0.140194	0.000064
C29	C	1.229949	-0.118332	0.000061
C30	C	1.330033	-0.120235	0.000060
N31	N	1.065116	-0.124713	0.248800
C32	C	1.058756	-0.289526	0.000041
C33	C	1.060660	-0.389610	0.000034
C34	C	0.986590	0.176570	0.000060
C35	C	1.150822	0.197861	0.000060
C36	C	1.149036	0.291895	0.000056
C37	C	1.066025	0.328271	0.000052
C38	C	0.984800	0.270613	0.000053
C39	C	1.230259	0.349560	0.000045
C40	C	1.228475	0.443600	0.000040
C41	C	1.145463	0.479978	0.000043
C42	C	1.064236	0.422313	0.000045
C43	C	0.981225	0.458690	0.000042
C44	C	0.899996	0.401027	0.000050
C45	C	0.901788	0.306991	0.000056
C46	C	1.143671	0.574014	0.000037
C47	C	0.979436	0.552732	0.000035
N48	N	1.065152	-0.124695	-0.248694
C49	C	1.003895	-0.185908	0.299055
C50	C	1.126342	-0.063515	0.299049
C51	C	1.126352	-0.063512	0.399545
C52	C	1.065131	-0.124706	0.449800
C53	C	1.003901	-0.185904	0.399560
C54	C	1.187575	-0.002309	0.449793
C55	C	1.187586	-0.002302	0.550295
C56	C	1.126369	-0.063501	0.600552
C57	C	1.065137	-0.124702	0.550305
C58	C	1.003916	-0.185897	0.600561
C59	C	0.942687	-0.247103	0.550316
C60	C	0.942683	-0.247104	0.449817
C61	C	1.126373	-0.063501	0.701051
C62	C	1.003922	-0.185893	0.701066
H63	H	0.791488	-0.129031	0.157940
C64	C	0.875327	-0.314394	0.605599
H65	H	0.838850	-0.350838	0.561288
H66	H	0.907788	-0.351980	0.644818
H67	H	0.837766	-0.281865	0.644791
H68	H	0.954071	-0.235729	0.741978
H69	H	1.209806	0.620959	0.000021
H70	H	1.176182	-0.013688	0.258128
C71	C	0.325356	-0.120032	0.182825
H72	H	0.262622	-0.118797	0.170363
H73	H	0.333920	-0.172817	0.218667
H74	H	0.347624	-0.067750	0.218503
H75	H	0.479822	-0.123069	-0.244884
C76	C	0.812445	0.243566	0.000054
H77	H	0.762749	0.278696	0.000058
H78	H	0.809736	0.206438	-0.055624
H79	H	0.809727	0.206443	0.055738
H80	H	0.479823	-0.123103	0.244983
H81	H	0.791488	-0.129010	-0.157875
H82	H	0.920455	0.129618	0.000071
C83	C	0.663876	-0.126576	-0.269766
H84	H	0.726614	-0.127769	-0.257298
H85	H	0.641656	-0.178810	-0.305536
H86	H	0.655283	-0.073741	-0.305520
H87	H	0.650428	-0.126345	0.244995
H88	H	0.911837	0.582342	0.000041
C89	C	0.875329	-0.314411	0.394547
H90	H	0.884086	-0.305638	0.327497
H91	H	0.885187	-0.374601	0.411007
H92	H	0.815152	-0.304500	0.411029
H93	H	0.832409	0.430657	0.000042
H94	H	1.218406	0.168237	0.000082
H95	H	0.338764	-0.120390	-0.157842
C96	C	1.321561	0.309545	0.000045
H97	H	1.310991	0.245282	0.000061
H98	H	1.355009	0.329319	-0.055636
H99	H	1.355009	0.329336	0.055726
H100	H	1.294617	0.490542	0.000034
C101	C	0.936546	-0.253227	0.243792
H102	H	0.945304	-0.244465	0.176740
H103	H	0.946411	-0.313412	0.260265
H104	H	0.876367	-0.243320	0.260269
H105	H	1.176220	-0.013664	0.741955
C106	C	1.254892	0.065018	0.394513
H107	H	1.246119	0.056246	0.327463
H108	H	1.245007	0.125198	0.410990
H109	H	1.315082	0.055136	0.410967
H110	H	1.237442	0.047534	0.591198
