data_functionalizedCrystal
_audit_creation_method	'MofGen! by Chris Wilmer'
_symmetry_space_group_name_H-M	'P1'
_symmetry_Int_Tables_number	1
_symmetry_cell_setting	triclinic
loop_
_symmetry_equiv_pos_as_xyz
  x,y,z
_cell_length_a	12.837943
_cell_length_b	15.944551
_cell_length_c	11.892095
_cell_angle_alpha	93.888509
_cell_angle_beta	85.689438
_cell_angle_gamma	89.163839
loop_
_atom_site_label
_atom_site_type_symbol
_atom_site_fract_x
_atom_site_fract_y
_atom_site_fract_z
O1	O	1.382096	0.213524	-0.093988
O2	O	1.080290	0.202737	-0.093995
O3	O	1.239434	0.086515	-0.093981
O4	O	1.222952	0.329745	-0.094002
O5	O	1.226164	0.096189	0.094025
O6	O	1.067021	0.212411	0.094012
O7	O	1.368826	0.223198	0.094018
Zn8	Zn	1.215817	0.219340	0.123865
Zn9	Zn	1.233299	0.206594	-0.123842
O10	O	1.209683	0.339419	0.094005
C11	C	1.035034	0.203930	0.000008
C12	C	0.919957	0.193062	0.000006
C13	C	0.679007	0.323714	0.000011
C14	C	0.570881	0.313507	0.000010
C15	C	0.595575	0.162440	0.000010
C16	C	0.703701	0.172648	0.000012
C17	C	0.745413	0.253287	0.000010
C18	C	0.853542	0.263494	0.000003
C19	C	0.878234	0.112428	0.000012
C20	C	0.770107	0.102221	0.000011
C21	C	1.232115	0.060004	0.000022
C22	C	1.230063	-0.033407	0.000023
C23	C	1.126515	-0.256548	0.000005
C24	C	1.168058	-0.308949	0.092705
C25	C	1.226352	-0.204430	0.000014
C26	C	1.181163	-0.318468	-0.092655
C27	C	1.222761	-0.369631	0.000001
C28	C	1.267917	-0.255596	0.092790
C29	C	1.281014	-0.265115	-0.092653
C30	C	1.322628	-0.317491	0.000069
C31	C	1.228418	-0.109262	0.000023
C32	C	1.220702	-0.464796	0.000000
C33	C	1.414082	0.222005	0.000013
C34	C	1.529160	0.232872	0.000008
C35	C	1.217002	0.365931	-0.000001
C36	C	1.219054	0.459340	-0.000009
N37	N	1.203893	0.228039	0.292918
N38	N	1.245231	0.197890	-0.292895
C39	C	1.328203	0.137313	0.529576
C40	C	1.319876	0.143400	0.647918
C41	C	1.178907	0.246295	0.647944
C42	C	1.187234	0.240208	0.529603
C43	C	1.261886	0.185716	0.470423
C44	C	1.270217	0.179634	0.352080
C45	C	1.129244	0.282524	0.352108
C46	C	1.120917	0.288611	0.470449
H47	H	0.516815	0.370856	0.000013
O48	O	1.316478	-0.219304	0.196711
H49	H	1.339119	-0.271112	0.248312
O50	O	1.391415	0.091196	0.711711
H51	H	1.343989	0.049626	0.765634
H52	H	1.328737	-0.245642	-0.171025
O53	O	1.432517	-0.352561	0.000144
H54	H	1.479549	-0.334110	-0.076084
H55	H	1.144455	-0.345956	-0.171031
O56	O	0.898531	0.350467	0.000004
H57	H	0.984875	0.345736	-0.000006
H58	H	1.075247	0.321940	0.303932
O59	O	0.725109	0.015250	0.000011
H60	H	0.746371	-0.015068	0.076642
O61	O	0.550577	0.075470	0.000030
H62	H	0.464233	0.080209	0.000031
H63	H	1.331005	0.135266	0.303897
H64	H	1.388994	0.092949	0.481392
H65	H	1.118121	0.290655	0.696143
O66	O	0.724006	0.410684	-0.000000
H67	H	0.767277	0.422887	0.076624
O68	O	0.949855	0.036459	0.000017
H69	H	1.032051	0.057101	0.000024
H70	H	1.060134	0.332975	0.518647
O71	O	1.016747	-0.221184	0.000118
H72	H	0.960520	-0.273403	0.000972
O73	O	1.104809	-0.334718	0.196520
H74	H	1.023441	-0.310249	0.196331
