data_functionalizedCrystal
_audit_creation_method	'MofGen! by Chris Wilmer'
_symmetry_space_group_name_H-M	'P1'
_symmetry_Int_Tables_number	1
_symmetry_cell_setting	triclinic
loop_
_symmetry_equiv_pos_as_xyz
  x,y,z
_cell_length_a	14.971486
_cell_length_b	8.559649
_cell_length_c	13.448316
_cell_angle_alpha	89.994831
_cell_angle_beta	89.998199
_cell_angle_gamma	76.696397
loop_
_atom_site_label
_atom_site_type_symbol
_atom_site_fract_x
_atom_site_fract_y
_atom_site_fract_z
O1	O	1.172521	0.208203	-0.082574
O2	O	0.910393	0.233136	-0.082601
O3	O	1.064550	-0.011888	-0.082584
O4	O	1.018363	0.453227	-0.082591
O5	O	1.064534	-0.011904	0.082800
O6	O	0.910377	0.233121	0.082783
O7	O	1.172504	0.208188	0.082810
Cu8	Cu	1.041439	0.220653	0.097897
Cu9	Cu	1.041458	0.220671	-0.097688
O10	O	1.018347	0.453212	0.082793
C11	C	0.877137	0.232013	0.000088
C12	C	0.778072	0.228672	0.000078
C13	C	0.710872	0.372617	0.000077
C14	C	0.617791	0.369468	0.000092
C15	C	0.591911	0.222372	0.000100
C16	C	0.659119	0.078416	0.000104
C17	C	0.752198	0.081566	0.000096
C18	C	0.465111	0.071859	0.000118
C19	C	0.372025	0.068707	0.000124
C20	C	0.330704	0.359760	0.000113
C21	C	0.423783	0.362910	0.000106
C22	C	0.490984	0.218954	0.000107
C23	C	1.068043	-0.071419	0.000106
C24	C	1.078461	-0.248779	0.000102
C25	C	1.205760	0.209310	0.000119
C26	C	1.304826	0.212652	0.000123
C27	C	1.014855	0.512743	0.000101
C28	C	1.004436	0.690103	0.000098
N29	N	1.041432	0.220639	0.235462
N30	N	1.041473	0.220672	-0.235252
C31	C	1.109709	0.112187	0.287509
C32	C	1.109715	0.112186	0.391613
C33	C	1.041447	0.220646	0.443666
C34	C	0.973163	0.329103	0.391611
C35	C	0.973154	0.329095	0.287510
C36	C	0.973187	0.329114	0.608591
C37	C	0.973196	0.329124	0.712700
C38	C	1.109747	0.112204	0.712694
C39	C	1.109739	0.112197	0.608593
C40	C	1.041456	0.220656	0.556545
H41	H	0.444850	0.482689	0.000089
H42	H	0.350958	-0.051071	0.000132
H43	H	1.165331	0.023889	0.566211
C44	C	1.174854	-0.361384	0.000118
H45	H	1.219897	-0.299258	0.000125
H46	H	1.182076	-0.427181	-0.057549
H47	H	1.182062	-0.427167	0.057804
H48	H	0.275983	0.476974	0.000116
H49	H	1.165304	0.023874	0.245134
H50	H	0.917574	0.417407	0.433999
H51	H	0.917556	0.417406	0.245133
H52	H	1.165310	0.023875	0.433989
C53	C	0.539030	-0.086491	0.000108
H54	H	0.510288	-0.174548	0.000100
H55	H	0.576209	-0.091331	0.057773
H56	H	0.576188	-0.091291	-0.057580
C57	C	0.898102	0.448415	0.769962
H58	H	0.907896	0.432894	0.839415
H59	H	0.839614	0.430878	0.752918
H60	H	0.900482	0.555080	0.752891
C61	C	0.739332	0.534424	0.000067
H62	H	0.685976	0.619700	0.000078
H63	H	0.774780	0.541713	-0.057608
H64	H	0.774784	0.541697	0.057745
H65	H	1.165345	0.023893	0.755077
H66	H	0.638040	-0.041353	0.000125
C67	C	0.826118	-0.076773	0.000087
H68	H	0.797375	-0.164830	0.000082
H69	H	0.863293	-0.081604	0.057755
H70	H	0.863280	-0.081582	-0.057598
H71	H	0.917581	0.417428	0.566217
C72	C	0.543875	0.527807	0.000088
H73	H	0.572620	0.615862	0.000069
H74	H	0.506709	0.532632	0.057764
H75	H	0.506703	0.532627	-0.057589
C76	C	0.908050	-0.197293	0.000079
H77	H	0.913456	-0.088861	0.000066
H78	H	0.875606	-0.216760	0.057747
H79	H	0.875628	-0.216768	-0.057606
