data_functionalizedCrystal
_audit_creation_method	'MofGen! by Chris Wilmer'
_symmetry_space_group_name_H-M	'P1'
_symmetry_Int_Tables_number	1
_symmetry_cell_setting	triclinic
loop_
_symmetry_equiv_pos_as_xyz
  x,y,z
_cell_length_a	11.792241
_cell_length_b	17.038272
_cell_length_c	10.268362
_cell_angle_alpha	89.994496
_cell_angle_beta	89.999626
_cell_angle_gamma	87.652486
loop_
_atom_site_label
_atom_site_type_symbol
_atom_site_fract_x
_atom_site_fract_y
_atom_site_fract_z
O1	O	1.516303	0.107207	-0.108175
O2	O	1.186930	0.118256	-0.108205
O3	O	1.349659	-0.001093	-0.108180
O4	O	1.353574	0.226556	-0.108200
O5	O	1.349643	-0.001098	0.108421
O6	O	1.186914	0.118251	0.108396
O7	O	1.516287	0.107202	0.108426
Cu8	Cu	1.351600	0.112726	0.128188
Cu9	Cu	1.351618	0.112732	-0.127967
O10	O	1.353558	0.226551	0.108401
C11	C	1.144571	0.117559	0.000092
C12	C	1.018375	0.115482	0.000080
C13	C	0.787328	0.111662	0.000118
C14	C	0.915899	0.113785	0.000097
C15	C	1.346090	-0.030239	0.000120
C16	C	1.335466	-0.117079	0.000119
C17	C	1.433006	-0.166762	0.000129
C18	C	1.423017	-0.248357	0.000116
C19	C	1.315487	-0.280267	0.000102
C20	C	1.217940	-0.230577	0.000087
C21	C	1.227930	-0.148984	0.000091
C22	C	1.280194	-0.526181	0.000081
C23	C	1.270211	-0.607780	0.000080
C24	C	1.475289	-0.625554	0.000107
C25	C	1.485270	-0.543958	0.000118
C26	C	1.387723	-0.494276	0.000097
C27	C	1.305274	-0.363669	0.000092
C28	C	1.397937	-0.410875	0.000097
C29	C	1.558647	0.107899	0.000127
C30	C	1.684843	0.109976	0.000130
C31	C	1.357127	0.255697	0.000098
C32	C	1.367751	0.342537	0.000091
N33	N	1.351595	0.112721	0.308354
N34	N	1.351631	0.112730	-0.308133
C35	C	1.351612	0.112730	0.574025
C36	C	1.351599	0.112728	0.426187
H37	H	1.520568	-0.140788	0.000149
H38	H	1.217723	-0.389660	0.000083
C39	C	1.174324	-0.472212	-0.000202
C40	C	1.174052	-0.424860	-0.111657
C41	C	1.076529	-0.375139	-0.111969
H42	H	1.173843	-0.439942	0.075242
H43	H	1.108829	-0.502881	-0.000276
H44	H	1.239530	-0.394194	-0.111570
H45	H	1.174516	-0.457108	-0.187118
H46	H	1.011034	-0.405808	-0.112044
H47	H	1.076057	-0.342875	-0.036521
H48	H	1.076327	-0.343010	-0.187596
C49	C	1.601951	-0.509213	-0.000078
C50	C	1.613677	-0.462867	-0.111494
C51	C	1.721144	-0.430841	-0.111707
H52	H	1.658714	-0.550411	-0.000142
H53	H	1.610123	-0.477715	0.075419
H54	H	1.605517	-0.494364	-0.186971
H55	H	1.556939	-0.421657	-0.111454
H56	H	1.729316	-0.399342	-0.036210
H57	H	1.777899	-0.472044	-0.111768
H58	H	1.729111	-0.399386	-0.187295
C59	C	1.529055	-0.302168	0.000204
C60	C	1.625362	-0.256759	0.000263
C61	C	1.723068	-0.306302	0.000362
H62	H	1.529596	-0.334379	-0.075310
H63	H	1.529471	-0.334360	0.075767
H64	H	1.624946	-0.224580	-0.075292
H65	H	1.624858	-0.224549	0.075771
H66	H	1.723484	-0.338495	0.075925
H67	H	1.723598	-0.338511	-0.075153
H68	H	1.788424	-0.275500	0.000414
C69	C	1.122069	-0.095000	-0.000186
C70	C	1.121812	-0.047647	-0.111640
C71	C	1.024300	0.002084	-0.111955
H72	H	1.121593	-0.062731	0.075258
H73	H	1.056566	-0.125661	-0.000263
H74	H	1.187297	-0.016989	-0.111550
H75	H	1.122270	-0.079895	-0.187102
H76	H	0.958797	-0.028577	-0.112033
H77	H	1.023834	0.034348	-0.036506
H78	H	1.024107	0.034214	-0.187581
C79	C	1.581152	-0.679534	-0.000154
C80	C	1.581430	-0.726872	-0.111610
C81	C	1.678944	-0.776600	-0.111909
H82	H	1.581619	-0.711813	0.075289
H83	H	1.646653	-0.648871	-0.000217
H84	H	1.515946	-0.757533	-0.111535
H85	H	1.580981	-0.694614	-0.187071
H86	H	1.744445	-0.745937	-0.111973
H87	H	1.679402	-0.808874	-0.036462
H88	H	1.679151	-0.808720	-0.187536
H89	H	1.182643	-0.633757	0.000090
H90	H	1.485487	-0.384890	0.000080
H91	H	1.130387	-0.256565	0.000067
