data_functionalizedCrystal
_audit_creation_method	'MofGen! by Chris Wilmer'
_symmetry_space_group_name_H-M	'P1'
_symmetry_Int_Tables_number	1
_symmetry_cell_setting	triclinic
loop_
_symmetry_equiv_pos_as_xyz
  x,y,z
_cell_length_a	29.839131
_cell_length_b	19.805407
_cell_length_c	19.805399
_cell_angle_alpha	90.019573
_cell_angle_beta	89.970435
_cell_angle_gamma	89.958580
loop_
_atom_site_label
_atom_site_type_symbol
_atom_site_fract_x
_atom_site_fract_y
_atom_site_fract_z
Zn1	Zn	-0.178864	-1.034665	-0.382710
Zn2	Zn	0.321136	-0.534665	0.117290
Zn3	Zn	-0.253991	-1.034550	-0.269518
Zn4	Zn	0.246009	-0.534550	0.230482
Zn5	Zn	-0.178876	-0.921480	-0.269535
Zn6	Zn	0.321124	-0.421480	0.230465
Zn7	Zn	-0.253967	-0.921414	-0.382665
Zn8	Zn	0.246033	-0.421414	0.117335
O9	O	-0.216425	-0.978027	-0.326107
O10	O	0.283575	-0.478027	0.173893
O11	O	-0.188834	-1.129366	-0.367707
O12	O	0.311166	-0.629366	0.132293
O13	O	-0.244042	-1.019531	-0.174804
O14	O	0.255958	-0.519531	0.325196
O15	O	-0.116007	-0.936570	-0.284574
O16	O	0.383993	-0.436570	0.215426
O17	O	-0.244030	-1.129282	-0.284545
O18	O	0.255970	-0.629282	0.215455
O19	O	-0.115998	-1.019727	-0.367723
O20	O	0.384002	-0.519727	0.132277
O21	O	-0.188856	-0.936458	-0.174816
O22	O	0.311144	-0.436458	0.325184
O23	O	-0.188832	-0.826754	-0.284530
O24	O	0.311168	-0.326754	0.215470
O25	O	-0.243990	-0.936457	-0.477388
O26	O	0.256010	-0.436457	0.022612
O27	O	-0.244002	-0.826706	-0.367646
O28	O	0.255998	-0.326706	0.132354
O29	O	-0.188811	-1.019662	-0.477421
O30	O	0.311189	-0.519662	0.022579
O31	O	-0.316855	-1.019467	-0.284501
O32	O	0.183145	-0.519467	0.215499
O33	O	-0.316838	-0.936346	-0.367630
O34	O	0.183162	-0.436346	0.132370
C35	C	-0.216416	-0.802171	-0.326085
C36	C	0.283584	-0.302171	0.173915
C37	C	-0.216423	-0.726939	-0.326092
C38	C	0.283577	-0.226939	0.173908
C39	C	-0.333147	-0.977905	-0.326073
C40	C	0.166853	-0.477905	0.173927
C41	C	-0.383082	-0.977915	-0.326082
C42	C	0.116918	-0.477915	0.173918
C43	C	-0.216396	-0.978065	-0.502650
C44	C	0.283604	-0.478065	-0.002650
C45	C	-0.216384	-0.978081	-0.577882
C46	C	0.283616	-0.478081	-0.077882
C47	C	-0.692722	-1.021387	-0.282885
C48	C	-0.192722	-0.521387	0.217115
C49	C	-0.880395	-1.021471	-0.282912
C50	C	-0.380395	-0.521471	0.217088
O51	O	-0.904656	-1.058335	-0.246159
O52	O	-0.404656	-0.558335	0.253841
N53	N	-0.903867	-0.978168	-0.326158
N54	N	-0.403867	-0.478168	0.173842
C55	C	-0.880418	-0.934844	-0.369404
C56	C	-0.380418	-0.434844	0.130596
O57	O	-0.904688	-0.898019	-0.406194
O58	O	-0.404688	-0.398019	0.093806
C59	C	-0.692746	-0.934764	-0.369381
C60	C	-0.192746	-0.434764	0.130619
C61	C	-0.669276	-0.978065	-0.326127
C62	C	-0.169276	-0.478065	0.173873
C63	C	-0.669252	-1.064685	-0.239635
C64	C	-0.169252	-0.564685	0.260365
C65	C	-0.622336	-1.064661	-0.239626
C66	C	-0.122336	-0.564661	0.260374
C67	C	-0.598891	-1.021339	-0.282868
C68	C	-0.098891	-0.521339	0.217132
C69	C	-0.622360	-0.978041	-0.326118
C70	C	-0.122360	-0.478041	0.173882
C71	C	-0.669297	-0.891444	-0.412630
C72	C	-0.169297	-0.391444	0.087370
C73	C	-0.622376	-0.891429	-0.412621
C74	C	-0.122376	-0.391429	0.087379
C75	C	-0.598907	-0.934730	-0.369367
C76	C	-0.098907	-0.434730	0.130633
C77	C	-0.551999	-0.934695	-0.369351
C78	C	-0.051999	-0.434695	0.130649
N79	N	-0.528527	-0.977998	-0.326104
N80	N	-0.028527	-0.477998	0.173896
C81	C	-0.551973	-1.021320	-0.282863
C82	C	-0.051973	-0.521320	0.217137
C83	C	-0.978948	-0.934888	-0.369412
C84	C	-0.478948	-0.434888	0.130588
C85	C	-1.025866	-0.934907	-0.369418
C86	C	-0.525866	-0.434907	0.130582
C87	C	-1.025840	-1.021534	-0.282926
C88	C	-0.525840	-0.521534	0.217074
C89	C	-0.978921	-1.021512	-0.282918
C90	C	-0.478921	-0.521512	0.217082
C91	C	-0.955476	-0.978191	-0.326166
C92	C	-0.455476	-0.478191	0.173834
C93	C	-0.453447	-1.021266	-0.282847
C94	C	0.046553	-0.521266	0.217153
C95	C	-0.406527	-1.021237	-0.282840
C96	C	0.093473	-0.521237	0.217160
C97	C	-0.406558	-0.934611	-0.369334
C98	C	0.093442	-0.434611	0.130666
C99	C	-0.453473	-0.934638	-0.369339
C100	C	0.046527	-0.434638	0.130661
C101	C	-0.476917	-0.977971	-0.326093
C102	C	0.023083	-0.477971	0.173907
O103	O	-0.527708	-0.897855	-0.406090
O104	O	-0.027708	-0.397855	0.093910
O105	O	-0.527694	-1.058150	-0.246090
O106	O	-0.027694	-0.558150	0.253910
C107	C	-0.739637	-1.021411	-0.282894
C108	C	-0.239637	-0.521411	0.217106
C109	C	-0.763107	-0.978113	-0.326144
C110	C	-0.263107	-0.478113	0.173856
C111	C	-0.739661	-0.934791	-0.369386
C112	C	-0.239661	-0.434791	0.130614
C113	C	-0.810025	-0.978132	-0.326149
C114	C	-0.310025	-0.478132	0.173851
C115	C	-0.833470	-1.021454	-0.282908
C116	C	-0.333470	-0.521454	0.217092
C117	C	-0.809998	-1.064757	-0.239661
C118	C	-0.309998	-0.564757	0.260339
C119	C	-0.763083	-1.064733	-0.239653
C120	C	-0.263083	-0.564733	0.260347
C121	C	-0.763133	-0.891488	-0.412632
C122	C	-0.263133	-0.391488	0.087368
C123	C	-0.810049	-0.891515	-0.412637
C124	C	-0.310049	-0.391515	0.087363
C125	C	-0.833494	-0.934837	-0.369395
C126	C	-0.333494	-0.434837	0.130605
C127	C	-0.099246	-0.978168	-0.326156
C128	C	0.400754	-0.478168	0.173844
C129	C	-0.049312	-0.978228	-0.326176
C130	C	0.450688	-0.478228	0.173824
C131	C	-0.216434	-1.154570	-0.326129
C132	C	0.283566	-0.654570	0.173871
C133	C	-0.216437	-1.229802	-0.326139
C134	C	0.283563	-0.729802	0.173861
C135	C	-0.245193	-0.691587	-0.369300
C136	C	0.254807	-0.191587	0.130700
C137	C	-0.245194	-0.620899	-0.369310
C138	C	0.254806	-0.120899	0.130690
C139	C	-0.216427	-0.585564	-0.326107
C140	C	0.283573	-0.085564	0.173893
C141	C	-0.187654	-0.620920	-0.282897
C142	C	0.312346	-0.120920	0.217103
C143	C	-0.187651	-0.691607	-0.282891
C144	C	0.312349	-0.191607	0.217109
C145	C	-0.187664	-0.335847	-0.282919
C146	C	0.312336	0.164153	0.217081
C147	C	-0.187669	-0.265155	-0.282927
C148	C	0.312331	0.234845	0.217073
C149	C	-0.245207	-0.265139	-0.369338
C150	C	0.254793	0.234861	0.130662
C151	C	-0.245204	-0.335826	-0.369332
C152	C	0.254796	0.164174	0.130668
C153	C	-0.216429	-0.371176	-0.326125
C154	C	0.283571	0.128824	0.173875
C155	C	-0.216428	-0.447825	-0.326116
C156	C	0.283572	0.052175	0.173884
C157	C	-0.216430	-0.508916	-0.326112
C158	C	0.283570	-0.008916	0.173888
C159	C	-0.187652	-1.021407	-0.613244
C160	C	0.312348	-0.521407	-0.113244
C161	C	-0.187638	-1.021414	-0.683933
C162	C	0.312362	-0.521414	-0.183933
C163	C	-0.216361	-0.978098	-0.719258
C164	C	0.283639	-0.478098	-0.219258
C165	C	-0.245095	-0.934767	-0.683890
C166	C	0.254905	-0.434767	-0.183890
C167	C	-0.245105	-0.934757	-0.613203
C168	C	0.254895	-0.434757	-0.113203
C169	C	-0.245053	-0.934806	-0.968963
C170	C	0.254947	-0.434806	-0.468963
C171	C	-0.245041	-0.934820	-1.039656
C172	C	0.254959	-0.434820	-0.539656
C173	C	-0.187586	-1.021462	-1.039694
C174	C	0.312414	-0.521462	-0.539694
C175	C	-0.187597	-1.021453	-0.969006
C176	C	0.312403	-0.521453	-0.469006
C177	C	-0.216329	-0.978120	-0.933645
C178	C	0.283671	-0.478120	-0.433645
C179	C	-0.216342	-0.978112	-0.856997
C180	C	0.283658	-0.478112	-0.356997
C181	C	-0.216350	-0.978109	-0.795905
C182	C	0.283650	-0.478109	-0.295905
C183	C	-0.216420	-0.978028	-0.150251
C184	C	0.283580	-0.478028	0.349749
C185	C	-0.216306	-0.978143	-0.075019
C186	C	0.283694	-0.478143	0.424981
H187	H	-0.472529	-1.056554	-0.247634
H188	H	0.027471	-0.556554	0.252366
H189	H	-1.044971	-0.899640	-0.404633
H190	H	-0.544971	-0.399640	0.095367
C191	C	-0.156035	-1.069076	-0.722829
C192	C	0.343965	-0.569076	-0.222829
H193	H	-0.138935	-1.094878	-0.691667
H194	H	0.361065	-0.594878	-0.191667
H195	H	-0.136453	-1.043216	-0.750407
H196	H	0.363547	-0.543216	-0.250407
H197	H	-0.173222	-1.098551	-0.750402
H198	H	0.326778	-0.598551	-0.250402
C199	C	-0.737349	-0.843826	-0.460195
C200	C	-0.237349	-0.343826	0.039805
H201	H	-0.758051	-0.818038	-0.485944
H202	H	-0.258051	-0.318038	0.014056
H203	H	-0.719014	-0.869681	-0.489712
H204	H	-0.219014	-0.369681	0.010288
H205	H	-0.719081	-0.814337	-0.434265
H206	H	-0.219081	-0.314337	0.065735
H207	H	-0.164229	-0.592145	-0.247723
H208	H	0.335771	-0.092145	0.252277
C209	C	-0.276648	-0.887128	-0.930075
C210	C	0.223352	-0.387128	-0.430075
H211	H	-0.293751	-0.861333	-0.961239
H212	H	0.206249	-0.361333	-0.461239
H213	H	-0.259455	-0.857657	-0.902511
H214	H	0.240545	-0.357657	-0.402511
H215	H	-0.296234	-0.912977	-0.902487
H216	H	0.203766	-0.412977	-0.402487
C217	C	-0.835792	-1.112411	-0.192096
C218	C	-0.335792	-0.612411	0.307904
H219	H	-0.815098	-1.138197	-0.166330
H220	H	-0.315098	-0.638197	0.333670
H221	H	-0.854065	-1.141891	-0.218022
H222	H	-0.354065	-0.641891	0.281978
H223	H	-0.854125	-1.086539	-0.162583
H224	H	-0.354125	-0.586539	0.337417
H225	H	-0.164221	-0.720390	-0.247710
H226	H	0.335779	-0.220390	0.252290
H227	H	-0.164264	-1.056683	-0.584488
H228	H	0.335736	-0.556683	-0.084488
C229	C	-0.276839	-0.226254	-0.416898
C230	C	0.223161	0.273746	0.083102
H231	H	-0.293970	-0.257424	-0.442628
H232	H	0.206030	0.242576	0.057372
H233	H	-0.259667	-0.198723	-0.446433
H234	H	0.240333	0.301277	0.053567
H235	H	-0.296399	-0.198636	-0.390973
H236	H	0.203601	0.301364	0.109027
C237	C	-0.276722	-0.887116	-0.574304
C238	C	0.223278	-0.387116	-0.074304
H239	H	-0.293833	-0.861328	-0.605465
H240	H	0.206167	-0.361328	-0.105465
H241	H	-0.259549	-0.857637	-0.546722
H242	H	0.240451	-0.357637	-0.046722
H243	H	-0.296301	-0.912998	-0.546734
H244	H	0.203699	-0.412998	-0.046734
H245	H	-0.959863	-0.899609	-0.404631
H246	H	-0.459863	-0.399609	0.095369
C247	C	-0.156001	-1.069098	-0.930153
C248	C	0.343999	-0.569098	-0.430153
H249	H	-0.138883	-1.094898	-0.961338
H250	H	0.361117	-0.594898	-0.461338
H251	H	-0.173189	-1.098564	-0.902574
H252	H	0.326811	-0.598564	-0.402574
H253	H	-0.136428	-1.043218	-0.902584
H254	H	0.363572	-0.543218	-0.402584
C255	C	-0.155977	-1.069126	-1.078590
C256	C	0.344023	-0.569126	-0.578590
H257	H	-0.138877	-1.094926	-1.047427
H258	H	0.361123	-0.594926	-0.547427
H259	H	-0.136395	-1.043265	-1.106168
H260	H	0.363605	-0.543265	-0.606168
H261	H	-0.173163	-1.098601	-1.106162
H262	H	0.326837	-0.598601	-0.606162
C263	C	-0.276634	-0.887165	-1.078512
C264	C	0.223366	-0.387165	-0.578512
H265	H	-0.293744	-0.861351	-1.047328
H266	H	0.206256	-0.361351	-0.547328
H267	H	-0.296207	-0.913035	-1.106083
H268	H	0.203793	-0.413035	-0.606083
H269	H	-0.259437	-0.857702	-1.106088
H270	H	0.240563	-0.357702	-0.606088
H271	H	-0.268622	-0.592119	-0.404494
H272	H	0.231378	-0.092119	0.095506
C273	C	-0.953109	-1.069147	-0.235344
C274	C	-0.453109	-0.569147	0.264656
H275	H	-0.973796	-1.094951	-0.209597
H276	H	-0.473796	-0.594951	0.290403
H277	H	-0.934833	-1.043271	-0.205825
H278	H	-0.434833	-0.543271	0.294175
H279	H	-0.934779	-1.098621	-0.261266
H280	H	-0.434779	-0.598621	0.238734
H281	H	-0.268620	-0.720352	-0.404479
H282	H	0.231380	-0.220352	0.095521
C283	C	-0.276689	-0.887121	-0.722745
C284	C	0.223311	-0.387121	-0.222745
H285	H	-0.272572	-0.893337	-0.769909
H286	H	0.227428	-0.393337	-0.269909
H287	H	-0.270115	-0.841650	-0.711156
H288	H	0.229885	-0.341650	-0.211156
H289	H	-0.306878	-0.896994	-0.711147
H290	H	0.193122	-0.396994	-0.211147
H291	H	-0.164241	-0.236387	-0.247745
H292	H	0.335759	0.263613	0.252255
H293	H	-0.387420	-1.056497	-0.247615
H294	H	0.112580	-0.556497	0.252385
H295	H	-0.688336	-1.099967	-0.204423
H296	H	-0.188336	-0.599967	0.295577
C297	C	-0.596526	-1.112301	-0.192055
C298	C	-0.096526	-0.612301	0.307945
H299	H	-0.617214	-1.138107	-0.166312
H300	H	-0.117214	-0.638107	0.333688
H301	H	-0.578250	-1.086428	-0.162532
H302	H	-0.078250	-0.586428	0.337468
H303	H	-0.578195	-1.141773	-0.217978
H304	H	-0.078195	-0.641773	0.282022
H305	H	-0.688398	-0.856180	-0.447849
H306	H	-0.188398	-0.356180	0.052151
H307	H	-1.044937	-1.056809	-0.247717
H308	H	-0.544937	-0.556809	0.252283
H309	H	-0.472583	-0.899381	-0.404562
H310	H	0.027417	-0.399381	0.095438
C311	C	-0.596590	-0.843775	-0.460196
C312	C	-0.096590	-0.343775	0.039804
H313	H	-0.617290	-0.817990	-0.485952
H314	H	-0.117290	-0.317990	0.014048
H315	H	-0.578257	-0.869641	-0.489708
H316	H	-0.078257	-0.369641	0.010292
H317	H	-0.578319	-0.814284	-0.434274
H318	H	-0.078319	-0.314284	0.065726
C319	C	-0.276846	-0.374691	-0.416857
C320	C	0.223154	0.125309	0.083143
H321	H	-0.293978	-0.343512	-0.442598
H322	H	0.206022	0.156488	0.057402
H323	H	-0.296397	-0.402238	-0.390913
H324	H	0.203603	0.097762	0.109087
H325	H	-0.259680	-0.402293	-0.446395
H326	H	0.240320	0.097707	0.053605
C327	C	-0.380762	-0.886964	-0.416899
C328	C	0.119238	-0.386964	0.083101
H329	H	-0.349458	-0.893161	-0.410702
H330	H	0.150542	-0.393161	0.089298
H331	H	-0.388482	-0.841494	-0.406961
H332	H	0.111518	-0.341494	0.093039
H333	H	-0.388424	-0.896856	-0.462389
H334	H	0.111576	-0.396856	0.037611
H335	H	-0.743977	-1.099993	-0.204431
H336	H	-0.243977	-0.599993	0.295569
C337	C	-0.156021	-0.374724	-0.235381
C338	C	0.343979	0.125276	0.264619
H339	H	-0.138895	-0.343553	-0.209646
H340	H	0.361105	0.156447	0.290354
H341	H	-0.136465	-0.402333	-0.261315
H342	H	0.363535	0.097667	0.238685
H343	H	-0.173186	-0.402265	-0.205839
H344	H	0.326814	0.097735	0.294161
H345	H	-0.829154	-0.856248	-0.447859
H346	H	-0.329154	-0.356248	0.052141
