data_functionalizedCrystal
_audit_creation_method	'MofGen! by Chris Wilmer'
_symmetry_space_group_name_H-M	'P1'
_symmetry_Int_Tables_number	1
_symmetry_cell_setting	triclinic
loop_
_symmetry_equiv_pos_as_xyz
  x,y,z
_cell_length_a	12.759401
_cell_length_b	17.640280
_cell_length_c	12.759393
_cell_angle_alpha	101.231919
_cell_angle_beta	90.019837
_cell_angle_gamma	78.802151
loop_
_atom_site_label
_atom_site_type_symbol
_atom_site_fract_x
_atom_site_fract_y
_atom_site_fract_z
Zn1	Zn	1.690807	-0.314590	0.509564
Zn2	Zn	1.726231	-0.446786	0.298394
Zn3	Zn	1.515121	-0.314634	0.333887
Zn4	Zn	1.550612	-0.446728	0.474047
O5	O	1.620692	-0.380685	0.403973
O6	O	1.842528	-0.332131	0.481562
O7	O	1.698199	-0.429299	0.156070
O8	O	1.508747	-0.204022	0.386909
O9	O	1.868554	-0.429255	0.326416
O10	O	1.637823	-0.203989	0.515978
O11	O	1.543097	-0.332207	0.182146
O12	O	1.372806	-0.332151	0.352470
O13	O	1.569237	-0.429157	0.625791
O14	O	1.398881	-0.429200	0.455444
O15	O	1.672237	-0.332075	0.651885
O16	O	1.732613	-0.557385	0.291977
O17	O	1.603586	-0.557342	0.421028
C18	C	1.347723	-0.380675	0.403955
C19	C	1.230950	-0.380690	0.403967
C20	C	1.189713	-0.431300	0.457459
C21	C	1.079990	-0.431303	0.457479
C22	C	1.052749	-0.330083	0.350506
C23	C	1.162469	-0.330077	0.350493
C24	C	1.675824	-0.586043	0.348820
C25	C	1.699505	-0.673896	0.325260
C26	C	1.441218	-0.962860	0.583335
C27	C	1.463472	-1.045411	0.561164
C28	C	1.597911	-1.045390	0.426919
C29	C	1.575672	-0.962837	0.449082
C30	C	1.497323	-0.921579	0.527291
C31	C	1.631777	-0.921556	0.393038
C32	C	1.609535	-0.839010	0.415196
C33	C	1.531188	-0.797746	0.493399
C34	C	1.475081	-0.839033	0.549449
C35	C	1.710120	-0.962816	0.314825
C36	C	1.766225	-0.921534	0.258780
C37	C	1.743989	-0.838987	0.280944
C38	C	1.665642	-0.797723	0.359146
C39	C	1.800096	-0.797700	0.224893
C40	C	1.777854	-0.715154	0.247052
C41	C	1.643400	-0.715177	0.381305
C42	C	1.894728	-0.380695	0.403992
C43	C	2.011506	-0.380699	0.404000
C44	C	1.620744	-0.380605	0.678028
C45	C	1.620766	-0.380571	0.794814
C46	C	1.565375	-0.174525	0.459365
C47	C	1.541801	-0.086672	0.482969
C48	C	1.620686	-0.380707	0.131000
C49	C	1.620808	-0.380519	0.014274
C50	C	1.540027	-0.330006	0.863256
C51	C	1.540044	-0.329982	0.972987
C52	C	1.701552	-0.431089	0.945823
C53	C	1.701529	-0.431117	0.836093
H54	H	1.046421	-0.472514	0.501040
H55	H	1.377426	-0.929266	0.647028
C56	C	1.788617	-0.564969	0.766341
C57	C	1.790287	-0.486702	0.760854
H58	H	1.843412	-0.599283	0.719896
H59	H	1.721131	-0.576530	0.745245
H60	H	1.800192	-0.572176	0.837604
H61	H	1.778703	-0.479494	0.689592
H62	H	1.857789	-0.475137	0.781944
H63	H	1.474297	-0.288807	1.028709
H64	H	1.863880	-0.831305	0.161209
H65	H	0.996979	-0.288877	0.306967
H66	H	1.411289	-0.805439	0.613142
H67	H	1.474264	-0.288848	0.829650
C68	C	1.426115	-0.679516	0.598238
C69	C	1.506733	-0.707009	0.517760
H70	H	1.411015	-0.623499	0.613271
H71	H	1.449272	-0.698148	0.661040
H72	H	1.363379	-0.698244	0.574971
H73	H	1.569472	-0.688285	0.541031
H74	H	1.483580	-0.688368	0.454946
C75	C	1.437855	-1.171957	0.586808
C76	C	1.401794	-1.090790	0.622773
H77	H	1.399771	-1.199970	0.624836
H78	H	1.512058	-1.185432	0.598638
H79	H	1.426175	-1.185515	0.512559
H80	H	1.413481	-1.077231	0.697020
H81	H	1.327574	-1.077309	0.610951
C82	C	1.912991	-0.723416	0.112126
C83	C	1.839523	-0.669771	0.185448
H84	H	1.951063	-0.695397	0.074096
H85	H	1.875928	-0.755657	0.063246
H86	H	1.961819	-0.755568	0.149317
H87	H	1.790690	-0.637623	0.148257
H88	H	1.876588	-0.637517	0.234335
C89	C	1.124531	-0.230029	0.244740
C90	C	1.207804	-0.274444	0.291685
H91	H	1.152523	-0.195688	0.208434
H92	H	1.073653	-0.199838	0.298693
H93	H	1.090953	-0.264440	0.195241
H94	H	1.241377	-0.240033	0.341190
H95	H	1.258700	-0.304637	0.237725
C96	C	1.691686	-1.171918	0.333318
C97	C	1.684017	-1.090746	0.340941
H98	H	1.744847	-1.199915	0.280239
H99	H	1.624763	-1.185482	0.314244
H100	H	1.710669	-1.185405	0.400300
H101	H	1.665027	-1.077258	0.273960
H102	H	1.750955	-1.077176	0.360009
C103	C	1.860000	-1.048062	0.165179
C104	C	1.852331	-0.966890	0.172802
H105	H	1.913161	-1.076060	0.112100
H106	H	1.793078	-1.061627	0.146105
H107	H	1.878983	-1.061549	0.232162
H108	H	1.833341	-0.953402	0.105822
H109	H	1.919269	-0.953320	0.191871
C110	C	1.845851	-0.442046	1.066275
C111	C	1.790330	-0.486641	0.991203
H112	H	1.900665	-0.476343	1.094282
H113	H	1.797771	-0.411935	1.122736
H114	H	1.876788	-0.407625	1.032711
H115	H	1.759387	-0.521058	1.024768
H116	H	1.838418	-0.516766	0.934732
C117	C	1.205613	-0.531342	0.563213
C118	C	1.264986	-0.486924	0.516251
H119	H	1.252082	-0.565677	0.599517
H120	H	1.170907	-0.561539	0.509269
H121	H	1.153594	-0.496932	0.612716
H122	H	1.316999	-0.521334	0.466742
H123	H	1.299709	-0.456725	0.570201
H124	H	1.728229	-1.030030	0.296789
H125	H	1.579608	-0.681583	0.444998
