data_functionalizedCrystal
_audit_creation_method	'MofGen! by Chris Wilmer'
_symmetry_space_group_name_H-M	'P1'
_symmetry_Int_Tables_number	1
_symmetry_cell_setting	triclinic
loop_
_symmetry_equiv_pos_as_xyz
  x,y,z
_cell_length_a	19.077105
_cell_length_b	13.897448
_cell_length_c	13.897441
_cell_angle_alpha	89.969401
_cell_angle_beta	87.680829
_cell_angle_gamma	87.714101
loop_
_atom_site_label
_atom_site_type_symbol
_atom_site_fract_x
_atom_site_fract_y
_atom_site_fract_z
Zn1	Zn	1.076041	-0.443323	-0.604588
Zn2	Zn	1.075964	-0.604640	-0.443285
Zn3	Zn	0.958338	-0.436874	-0.436830
Zn4	Zn	0.958325	-0.598086	-0.598065
O5	O	1.017167	-0.520731	-0.520692
O6	O	1.174522	-0.470164	-0.588622
O7	O	1.060334	-0.582430	-0.307446
O8	O	0.973989	-0.302750	-0.459112
O9	O	1.174465	-0.588683	-0.470114
O10	O	1.060465	-0.307488	-0.582363
O11	O	0.973914	-0.459173	-0.302703
O12	O	0.859845	-0.452818	-0.452787
O13	O	0.973967	-0.577512	-0.733913
O14	O	0.859835	-0.571259	-0.571245
O15	O	1.060452	-0.463808	-0.738706
O16	O	1.060321	-0.738750	-0.463788
O17	O	0.973892	-0.733935	-0.577504
C18	C	0.834302	-0.510628	-0.510608
C19	C	0.756071	-0.506330	-0.506317
C20	C	1.017115	-0.771342	-0.520661
C21	C	1.017158	-0.878559	-0.520684
C22	C	0.719332	-0.566069	-0.565879
C23	C	0.645826	-0.562017	-0.561852
C24	C	0.609061	-0.498230	-0.498257
C25	C	0.645806	-0.438484	-0.438693
C26	C	0.719310	-0.442532	-0.442725
C27	C	0.389225	-0.479497	-0.479598
C28	C	0.315716	-0.475456	-0.475567
C29	C	0.315741	-0.598989	-0.598729
C30	C	0.389247	-0.603035	-0.602752
C31	C	0.425985	-0.543285	-0.543191
N32	N	0.533927	-0.494089	-0.494137
N33	N	0.501118	-0.547422	-0.547316
C34	C	1.017232	-1.074858	-0.520748
C35	C	1.017189	-0.965623	-0.520715
C36	C	1.200746	-0.530874	-0.530816
C37	C	1.278976	-0.535196	-0.535130
C38	C	1.017217	-0.520648	-0.772288
C39	C	1.017238	-0.520613	-0.879503
C40	C	1.017237	-0.269142	-0.520745
C41	C	1.017268	-0.161929	-0.520768
C42	C	1.017257	-0.520549	-1.075799
C43	C	1.017244	-0.520587	-0.966566
C44	C	1.017158	-0.520746	-0.270077
C45	C	1.017273	-0.520517	-0.162870
H46	H	0.749261	-0.618015	-0.617662
N47	N	0.606199	-0.626464	-0.626080
H48	H	0.640643	-0.667496	-0.666969
H49	H	0.575684	-0.669366	-0.585047
H50	H	0.615866	-0.386543	-0.386917
H51	H	0.749223	-0.393880	-0.394229
N52	N	0.276112	-0.663425	-0.662965
H53	H	0.245638	-0.622602	-0.706063
H54	H	0.310599	-0.704438	-0.703802
H55	H	0.285784	-0.423502	-0.423787
H56	H	0.419176	-0.654979	-0.654535
N57	N	0.428845	-0.415041	-0.415375
H58	H	0.394399	-0.374018	-0.374481
H59	H	0.459328	-0.455909	-0.372333
