data_functionalizedCrystal
_audit_creation_method	'MofGen! by Chris Wilmer'
_symmetry_space_group_name_H-M	'P1'
_symmetry_Int_Tables_number	1
_symmetry_cell_setting	triclinic
loop_
_symmetry_equiv_pos_as_xyz
  x,y,z
_cell_length_a	27.732048
_cell_length_b	15.944551
_cell_length_c	14.421503
_cell_angle_alpha	90.003141
_cell_angle_beta	89.999321
_cell_angle_gamma	96.929303
loop_
_atom_site_label
_atom_site_type_symbol
_atom_site_fract_x
_atom_site_fract_y
_atom_site_fract_z
O1	O	0.062334	-1.113714	-0.077025
O2	O	0.312334	-0.863714	0.172975
O3	O	0.562334	-0.613714	0.422975
O4	O	0.812334	-0.363714	0.672975
O5	O	0.070020	-0.869064	-0.077050
O6	O	0.320020	-0.619064	0.172950
O7	O	0.570020	-0.369064	0.422950
O8	O	0.820020	-0.119064	0.672950
O9	O	-0.004187	-0.998987	-0.077019
O10	O	0.245813	-0.748987	0.172981
O11	O	0.495813	-0.498987	0.422981
O12	O	0.745813	-0.248987	0.672981
O13	O	0.136540	-0.983791	-0.077056
O14	O	0.386540	-0.733791	0.172944
O15	O	0.636540	-0.483791	0.422944
O16	O	0.886540	-0.233791	0.672944
O17	O	-0.004176	-0.998966	0.077204
O18	O	0.245824	-0.748966	0.327204
O19	O	0.495824	-0.498966	0.577204
O20	O	0.745824	-0.248966	0.827204
O21	O	0.070031	-0.869042	0.077174
O22	O	0.320031	-0.619042	0.327174
O23	O	0.570031	-0.369042	0.577174
O24	O	0.820031	-0.119042	0.827174
O25	O	0.062345	-1.113693	0.077198
O26	O	0.312345	-0.863693	0.327198
O27	O	0.562345	-0.613693	0.577198
O28	O	0.812345	-0.363693	0.827198
Cu29	Cu	0.066189	-0.991366	0.091268
Cu30	Cu	0.316189	-0.741366	0.341268
Cu31	Cu	0.566189	-0.491366	0.591268
Cu32	Cu	0.816189	-0.241366	0.841268
Cu33	Cu	0.066176	-0.991391	-0.091119
Cu34	Cu	0.316176	-0.741391	0.158881
Cu35	Cu	0.566176	-0.491391	0.408881
Cu36	Cu	0.816176	-0.241391	0.658881
O37	O	0.136552	-0.983769	0.077168
O38	O	0.386552	-0.733769	0.327168
O39	O	0.636552	-0.483769	0.577168
O40	O	0.886552	-0.233769	0.827168
C41	C	0.069706	-0.837763	0.000059
C42	C	0.319706	-0.587763	0.250059
C43	C	0.569706	-0.337763	0.500059
C44	C	0.819706	-0.087763	0.750059
C45	C	0.068749	-0.744530	0.000051
C46	C	0.318749	-0.494530	0.250051
C47	C	0.568749	-0.244530	0.500051
C48	C	0.818749	0.005470	0.750051
C49	C	-0.022190	-0.998658	0.000095
C50	C	0.227810	-0.748658	0.250095
C51	C	0.477810	-0.498658	0.500095
C52	C	0.727810	-0.248658	0.750095
C53	C	-0.075849	-0.997697	0.000103
C54	C	0.174151	-0.747697	0.250103
C55	C	0.424151	-0.497697	0.500103
C56	C	0.674151	-0.247697	0.750103
C57	C	0.062658	-1.144993	0.000087
C58	C	0.312658	-0.894993	0.250087
C59	C	0.562658	-0.644993	0.500087
C60	C	0.812658	-0.394993	0.750087
C61	C	0.063615	-1.238227	0.000090
C62	C	0.313615	-0.988227	0.250090
C63	C	0.563615	-0.738227	0.500090
C64	C	0.813615	-0.488227	0.750090
C65	C	-0.414358	-1.068426	0.000062
C66	C	-0.164358	-0.818426	0.250062
C67	C	0.085642	-0.568426	0.500062
C68	C	0.335642	-0.318426	0.750062
C69	C	-0.616033	-1.064862	0.000049
C70	C	-0.366033	-0.814862	0.250049
C71	C	-0.116033	-0.564862	0.500049
C72	C	0.133967	-0.314862	0.750049
O73	O	-0.647008	-1.129539	0.000015
O74	O	-0.397008	-0.879539	0.250015
O75	O	-0.147008	-0.629539	0.500015
O76	O	0.102992	-0.379539	0.750015
N77	N	-0.635490	-0.987823	0.000042
N78	N	-0.385490	-0.737823	0.250042
N79	N	-0.135490	-0.487823	0.500042
N80	N	0.114510	-0.237823	0.750042
C81	C	-0.604525	-0.911669	0.000032
C82	C	-0.354525	-0.661669	0.250032
C83	C	-0.104525	-0.411669	0.500032
C84	C	0.145475	-0.161669	0.750032
O85	O	-0.625703	-0.846061	0.000017
O86	O	-0.375703	-0.596061	0.250017
O87	O	-0.125703	-0.346061	0.500017
O88	O	0.124297	-0.096061	0.750017
C89	C	-0.402851	-0.915234	0.000039
C90	C	-0.152851	-0.665234	0.250039
C91	C	0.097149	-0.415234	0.500039
C92	C	0.347149	-0.165234	0.750039
C93	C	-0.383397	-0.992278	0.000055
C94	C	-0.133397	-0.742278	0.250055
C95	C	0.116603	-0.492278	0.500055
C96	C	0.366603	-0.242278	0.750055
C97	C	-0.394903	-1.145464	0.000077
C98	C	-0.144903	-0.895464	0.250077
C99	C	0.105097	-0.645464	0.500077
C100	C	0.355097	-0.395464	0.750077
C101	C	-0.344487	-1.146354	0.000086
C102	C	-0.094487	-0.896354	0.250086
C103	C	0.155513	-0.646354	0.500086
C104	C	0.405513	-0.396354	0.750086
C105	C	-0.313526	-1.070206	0.000079
C106	C	-0.063526	-0.820206	0.250079
C107	C	0.186474	-0.570206	0.500079
C108	C	0.436474	-0.320206	0.750079
C109	C	-0.332981	-0.993168	0.000064
C110	C	-0.082981	-0.743168	0.250064
C111	C	0.167019	-0.493168	0.500064
C112	C	0.417019	-0.243168	0.750064
C113	C	-0.371887	-0.839081	0.000023
C114	C	-0.121887	-0.589081	0.250023
C115	C	0.128113	-0.339081	0.500023
C116	C	0.378113	-0.089081	0.750023
C117	C	-0.321466	-0.839979	0.000022
C118	C	-0.071466	-0.589979	0.250022
C119	C	0.178534	-0.339979	0.500022
C120	C	0.428534	-0.089979	0.750022
C121	C	-0.302012	-0.917024	0.000038
C122	C	-0.052012	-0.667024	0.250038
C123	C	0.197988	-0.417024	0.500038
C124	C	0.447988	-0.167024	0.750038
C125	C	-0.251604	-0.917911	0.000065
C126	C	-0.001604	-0.667911	0.250065
C127	C	0.248396	-0.417911	0.500065
C128	C	0.498396	-0.167911	0.750065
N129	N	-0.232147	-0.994950	0.000072
N130	N	0.017853	-0.744950	0.250072
N131	N	0.267853	-0.494950	0.500072
N132	N	0.517853	-0.244950	0.750072
C133	C	-0.263108	-1.071098	0.000079
C134	C	-0.013108	-0.821098	0.250079
C135	C	0.236892	-0.571098	0.500079
C136	C	0.486892	-0.321098	0.750079
C137	C	-0.710408	-0.909803	0.000031
C138	C	-0.460408	-0.659803	0.250031
C139	C	-0.210408	-0.409803	0.500031
C140	C	0.039592	-0.159803	0.750031
C141	C	-0.760826	-0.908912	0.000031
C142	C	-0.510826	-0.658912	0.250031
C143	C	-0.260826	-0.408912	0.500031
C144	C	-0.010826	-0.158912	0.750031
C145	C	-0.772330	-1.062105	0.000045
C146	C	-0.522330	-0.812105	0.250045
C147	C	-0.272330	-0.562105	0.500045
C148	C	-0.022330	-0.312105	0.750045
C149	C	-0.721911	-1.062995	0.000052
C150	C	-0.471911	-0.812995	0.250052
C151	C	-0.221911	-0.562995	0.500052
C152	C	0.028089	-0.312995	0.750052
C153	C	-0.690950	-0.986842	0.000038
C154	C	-0.440950	-0.736842	0.250038
C155	C	-0.190950	-0.486842	0.500038
C156	C	0.059050	-0.236842	0.750038
C157	C	-0.157231	-1.072961	0.000097
C158	C	0.092769	-0.822961	0.250097
C159	C	0.342769	-0.572961	0.500097
C160	C	0.592769	-0.322961	0.750097
C161	C	-0.106810	-1.073845	0.000109
C162	C	0.143190	-0.823845	0.250109
C163	C	0.393190	-0.573845	0.500109
C164	C	0.643190	-0.323845	0.750109
C165	C	-0.095310	-0.920652	0.000090
C166	C	0.154690	-0.670652	0.250090
C167	C	0.404690	-0.420652	0.500090
C168	C	0.654690	-0.170652	0.750090
C169	C	-0.145727	-0.919768	0.000083
C170	C	0.104273	-0.669768	0.250083
C171	C	0.354273	-0.419768	0.500083
C172	C	0.604273	-0.169768	0.750083
C173	C	-0.176686	-0.995930	0.000083
C174	C	0.073314	-0.745930	0.250083
C175	C	0.323314	-0.495930	0.500083
C176	C	0.573314	-0.245930	0.750083
O177	O	-0.220600	-0.853269	0.000089
O178	O	0.029400	-0.603269	0.250089
O179	O	0.279400	-0.353269	0.500089
O180	O	0.529400	-0.103269	0.750089
O181	O	-0.241921	-1.136697	0.000074
O182	O	0.008079	-0.886697	0.250074
O183	O	0.258079	-0.636697	0.500074
O184	O	0.508079	-0.386697	0.750074
C185	C	-0.464774	-1.067536	0.000054
C186	C	-0.214774	-0.817536	0.250054
C187	C	0.035226	-0.567536	0.500054
C188	C	0.285226	-0.317536	0.750054
C189	C	-0.484228	-0.990498	0.000039
C190	C	-0.234228	-0.740498	0.250039
C191	C	0.015772	-0.490498	0.500039
C192	C	0.265772	-0.240498	0.750039
C193	C	-0.453268	-0.914350	0.000032
C194	C	-0.203268	-0.664350	0.250032
C195	C	0.046732	-0.414350	0.500032
C196	C	0.296732	-0.164350	0.750032
C197	C	-0.534647	-0.989607	0.000039
C198	C	-0.284647	-0.739607	0.250039
C199	C	-0.034647	-0.489607	0.500039
C200	C	0.215353	-0.239607	0.750039
C201	C	-0.565608	-1.065754	0.000045
C202	C	-0.315608	-0.815754	0.250045
C203	C	-0.065608	-0.565754	0.500045
C204	C	0.184392	-0.315754	0.750045
C205	C	-0.546150	-1.142794	0.000052
C206	C	-0.296150	-0.892794	0.250052
C207	C	-0.046150	-0.642794	0.500052
C208	C	0.203850	-0.392794	0.750052
C209	C	-0.495734	-1.143684	0.000061
C210	C	-0.245734	-0.893684	0.250061
C211	C	0.004266	-0.643684	0.500061
C212	C	0.254266	-0.393684	0.750061
C213	C	-0.472725	-0.837311	0.000025
C214	C	-0.222725	-0.587311	0.250025
C215	C	0.027275	-0.337311	0.500025
C216	C	0.277275	-0.087311	0.750025
C217	C	-0.523141	-0.836427	0.000018
C218	C	-0.273141	-0.586427	0.250018
C219	C	-0.023141	-0.336427	0.500018
C220	C	0.226859	-0.086427	0.750018
C221	C	-0.554102	-0.912575	0.000024
C222	C	-0.304102	-0.662575	0.250024
C223	C	-0.054102	-0.412575	0.500024
C224	C	0.195898	-0.162575	0.750024
C225	C	0.154554	-0.984099	0.000051
C226	C	0.404554	-0.734099	0.250051
C227	C	0.654554	-0.484099	0.500051
C228	C	0.904554	-0.234099	0.750051
C229	C	0.208213	-0.985059	0.000038
C230	C	0.458213	-0.735059	0.250038
C231	C	0.708213	-0.485059	0.500038
C232	C	0.958213	-0.235059	0.750038
N233	N	0.066198	-0.991354	0.219549
N234	N	0.316198	-0.741354	0.469549
N235	N	0.566198	-0.491354	0.719549
N236	N	0.816198	-0.241354	0.969549
C237	C	0.020466	-0.530305	0.000081
C238	C	0.270466	-0.280305	0.250081
C239	C	0.520466	-0.030305	0.500081
C240	C	0.770466	0.219695	0.750081
C241	C	0.042882	-0.469002	-0.075965
C242	C	0.292882	-0.219002	0.174035
C243	C	0.542882	0.030998	0.424035
C244	C	0.792882	0.280998	0.674035
C245	C	0.067019	-0.573827	0.000062
C246	C	0.317019	-0.323827	0.250062
C247	C	0.567019	-0.073827	0.500062
C248	C	0.817019	0.176173	0.750062
C249	C	0.042904	-0.469003	0.076087
C250	C	0.292904	-0.219003	0.326087
C251	C	0.542904	0.030997	0.576087
C252	C	0.792904	0.280997	0.826087
C253	C	0.065344	-0.408936	0.000077
C254	C	0.315344	-0.158936	0.250077
C255	C	0.565344	0.091064	0.500077
C256	C	0.815344	0.341064	0.750077
C257	C	0.089447	-0.513752	-0.076047
C258	C	0.339447	-0.263752	0.173953
C259	C	0.589447	-0.013752	0.423953
C260	C	0.839447	0.236248	0.673953
C261	C	0.089463	-0.513759	0.076074
C262	C	0.339463	-0.263759	0.326074
C263	C	0.589463	-0.013759	0.576074
C264	C	0.839463	0.236241	0.826074
C265	C	0.111912	-0.452474	0.000009
C266	C	0.361912	-0.202474	0.250009
C267	C	0.611912	0.047526	0.500009
C268	C	0.861912	0.297526	0.750009
C269	C	0.067983	-0.668816	0.000053
C270	C	0.317983	-0.418816	0.250053
C271	C	0.567983	-0.168816	0.500053
C272	C	0.817983	0.081184	0.750053
C273	C	0.064384	-0.313947	0.000080
C274	C	0.314384	-0.063947	0.250080
C275	C	0.564384	0.186053	0.500080
C276	C	0.814384	0.436053	0.750080
N277	N	0.066163	-0.991409	-0.219401
N278	N	0.316163	-0.741409	0.030599
N279	N	0.566163	-0.491409	0.280599
N280	N	0.816163	-0.241409	0.530599
C281	C	0.100495	-0.931267	0.469189
C282	C	0.350495	-0.681267	0.719189
C283	C	0.600495	-0.431267	0.969189
C284	C	0.850495	-0.181267	1.219189
C285	C	0.109880	-1.007044	0.530996
C286	C	0.359880	-0.757044	0.780996
C287	C	0.609880	-0.507044	1.030996
C288	C	0.859880	-0.257044	1.280996
C289	C	0.066186	-0.991374	0.408710
C290	C	0.316186	-0.741374	0.658710
C291	C	0.566186	-0.491374	0.908710
C292	C	0.816186	-0.241374	1.158710
C293	C	0.056813	-0.915616	0.530997
C294	C	0.306813	-0.665616	0.780997
C295	C	0.556813	-0.415616	1.030997
C296	C	0.806813	-0.165616	1.280997
C297	C	0.066176	-0.991387	0.591432
C298	C	0.316176	-0.741387	0.841432
C299	C	0.566176	-0.491387	1.091432
C300	C	0.816176	-0.241387	1.341432
C301	C	0.075592	-1.067190	0.469157
C302	C	0.325592	-0.817190	0.719157
C303	C	0.575592	-0.567190	0.969157
C304	C	0.825592	-0.317190	1.219157
C305	C	0.022507	-0.975712	0.469153
C306	C	0.272507	-0.725712	0.719153
C307	C	0.522507	-0.475712	0.969153
C308	C	0.772507	-0.225712	1.219153
C309	C	0.031872	-1.051545	0.530932
C310	C	0.281872	-0.801545	0.780932
C311	C	0.531872	-0.551545	1.030932
C312	C	0.781872	-0.301545	1.280932
C313	C	0.066193	-0.991366	0.303449
C314	C	0.316193	-0.741366	0.553449
C315	C	0.566193	-0.491366	0.803449
C316	C	0.816193	-0.241366	1.053449
C317	C	0.066169	-0.991405	0.696691
C318	C	0.316169	-0.741405	0.946691
C319	C	0.566169	-0.491405	1.196691
C320	C	0.816169	-0.241405	1.446691
H321	H	-0.090973	-1.136586	0.000125
H322	H	0.159027	-0.886586	0.250125
H323	H	0.409027	-0.636586	0.500125
H324	H	0.659027	-0.386586	0.750125
H325	H	0.023210	-0.449165	0.140376
H326	H	0.273210	-0.199165	0.390376
H327	H	0.523210	0.050835	0.640376
H328	H	0.773210	0.300835	0.890376
H329	H	0.150587	-0.418809	-0.000044
H330	H	0.400587	-0.168809	0.249956
H331	H	0.650587	0.081191	0.499956
H332	H	0.900587	0.331191	0.749956
F333	F	-0.190173	-1.154021	0.000097
F334	F	0.059827	-0.904021	0.250097
F335	F	0.309827	-0.654021	0.500097
F336	F	0.559827	-0.404021	0.750097
H337	H	0.048890	-0.851544	0.558163
H338	H	0.298890	-0.601544	0.808163
H339	H	0.548890	-0.351544	1.058163
H340	H	0.798890	-0.101544	1.308163
H341	H	-0.776661	-0.846175	0.000034
H342	H	-0.526661	-0.596175	0.250034
H343	H	-0.276661	-0.346175	0.500034
H344	H	-0.026661	-0.096175	0.750034
H345	H	0.129533	-0.880487	0.442079
H346	H	0.379533	-0.630487	0.692079
H347	H	0.629533	-0.380487	0.942079
H348	H	0.879533	-0.130487	1.192079
H349	H	-0.014416	-0.962429	0.441967
H350	H	0.235584	-0.712429	0.691967
H351	H	0.485584	-0.462429	0.941967
H352	H	0.735584	-0.212429	1.191967
F353	F	-0.323789	-1.228356	0.000083
F354	F	-0.073789	-0.978356	0.250083
F355	F	0.176211	-0.728356	0.500083
F356	F	0.426211	-0.478356	0.750083
F357	F	-0.427847	-1.226518	0.000084
F358	F	-0.177847	-0.976518	0.250084
F359	F	0.072153	-0.726518	0.500084
F360	F	0.322153	-0.476518	0.750084
H361	H	0.023187	-0.449158	-0.140246
H362	H	0.273187	-0.199158	0.109754
H363	H	0.523187	0.050842	0.359754
H364	H	0.773187	0.300842	0.609754
F365	F	-0.701210	-1.144995	0.000069
F366	F	-0.451210	-0.894995	0.250069
F367	F	-0.201210	-0.644995	0.500069
F368	F	0.048790	-0.394995	0.750069
F369	F	-0.006059	-1.118062	0.566150
F370	F	0.243941	-0.868062	0.816150
F371	F	0.493941	-0.618062	1.066150
F372	F	0.743941	-0.368062	1.316150
H373	H	0.146814	-1.020304	0.558160
H374	H	0.396814	-0.770304	0.808160
H375	H	0.646814	-0.520304	1.058160
H376	H	0.896814	-0.270304	1.308160
H377	H	-0.797547	-1.124107	0.000051
H378	H	-0.547547	-0.874107	0.250051
H379	H	-0.297547	-0.624107	0.500051
H380	H	-0.047547	-0.374107	0.750051
H381	H	0.109141	-0.533624	0.140358
H382	H	0.359141	-0.283624	0.390358
H383	H	0.609141	-0.033624	0.640358
H384	H	0.859141	0.216376	0.890358
F385	F	-0.392581	-0.757079	0.000002
F386	F	-0.142581	-0.507079	0.250002
F387	F	0.107419	-0.257079	0.500002
F388	F	0.357419	-0.007079	0.750002
H389	H	0.109118	-0.533491	-0.140408
H390	H	0.359118	-0.283491	0.109592
H391	H	0.609118	-0.033491	0.359592
H392	H	0.859118	0.216509	0.609592
H393	H	0.083559	-1.131276	0.442107
H394	H	0.333559	-0.881276	0.692107
H395	H	0.583559	-0.631276	0.942107
H396	H	0.833559	-0.381276	1.192107
H397	H	-0.685203	-0.847786	0.000019
H398	H	-0.435203	-0.597786	0.250019
H399	H	-0.185203	-0.347786	0.500019
H400	H	0.064797	-0.097786	0.750019
H401	H	-0.296260	-0.777965	0.000009
H402	H	-0.046260	-0.527965	0.250009
H403	H	0.203740	-0.277965	0.500009
H404	H	0.453740	-0.027965	0.750009
H405	H	-0.538976	-0.773684	0.000013
H406	H	-0.288976	-0.523684	0.250013
H407	H	-0.038976	-0.273684	0.500013
H408	H	0.211024	-0.023684	0.750013
F409	F	-0.166432	-0.837770	0.000082
F410	F	0.083568	-0.587770	0.250082
F411	F	0.333568	-0.337770	0.500082
F412	F	0.583568	-0.087770	0.750082
H413	H	-0.571368	-1.204796	0.000062
H414	H	-0.321368	-0.954796	0.250062
H415	H	-0.071368	-0.704796	0.500062
H416	H	0.178632	-0.454796	0.750062
F417	F	-0.439780	-0.756259	0.000015
F418	F	-0.189780	-0.506259	0.250015
F419	F	0.060220	-0.256259	0.500015
F420	F	0.310220	-0.006259	0.750015
H421	H	-0.070093	-0.858655	0.000088
H422	H	0.179907	-0.608655	0.250088
H423	H	0.429907	-0.358655	0.500088
H424	H	0.679907	-0.108655	0.750088
H425	H	-0.479900	-1.206421	0.000073
H426	H	-0.229900	-0.956421	0.250073
H427	H	0.020100	-0.706421	0.500073
H428	H	0.270100	-0.456421	0.750073
H429	H	-0.018169	-0.564143	-0.000003
H430	H	0.231831	-0.314143	0.249997
H431	H	0.481831	-0.064143	0.499997
H432	H	0.731831	0.185857	0.749997
