data_functionalizedCrystal
_audit_creation_method	'MofGen! by Chris Wilmer'
_symmetry_space_group_name_H-M	'P1'
_symmetry_Int_Tables_number	1
_symmetry_cell_setting	triclinic
loop_
_symmetry_equiv_pos_as_xyz
  x,y,z
_cell_length_a	13.262503
_cell_length_b	15.538191
_cell_length_c	11.804365
_cell_angle_alpha	97.089886
_cell_angle_beta	86.418793
_cell_angle_gamma	113.375180
loop_
_atom_site_label
_atom_site_type_symbol
_atom_site_fract_x
_atom_site_fract_y
_atom_site_fract_z
O1	O	-1.256037	0.185518	0.307777
O2	O	-0.971645	0.181694	0.215670
O3	O	-1.169201	0.050139	0.279648
O4	O	-1.058480	0.317073	0.243799
O5	O	-1.117206	0.084735	0.460865
O6	O	-0.919649	0.216289	0.396887
O7	O	-1.204041	0.220114	0.488994
Cu8	Cu	-1.057097	0.221361	0.459487
Cu9	Cu	-1.118588	0.180447	0.245177
O10	O	-1.006484	0.351669	0.425016
C11	C	-0.910138	0.196022	0.294778
C12	C	-0.804338	0.187162	0.260511
C13	C	-0.392719	0.237634	0.559045
C14	C	-0.492120	0.245964	0.591245
C15	C	-0.570179	0.231264	0.508565
C16	C	-0.548828	0.208234	0.393678
C17	C	-0.449414	0.199911	0.361474
C18	C	-0.626874	0.193540	0.310993
C19	C	-0.605523	0.170510	0.196107
C20	C	-0.506118	0.162188	0.163909
C21	C	-0.428059	0.176888	0.246590
C22	C	-0.726288	0.201863	0.343198
C23	C	-0.782983	0.164139	0.145627
C24	C	-0.683582	0.155810	0.113427
C25	C	-1.154789	0.033107	0.374004
C26	C	-1.189297	-0.069185	0.385169
C27	C	-0.846491	-0.379655	0.274168
C28	C	-0.878937	-0.475774	0.284680
C29	C	-1.061444	-0.486140	0.343788
C30	C	-1.029015	-0.390021	0.333277
C31	C	-0.921537	-0.336786	0.298468
C32	C	-1.104060	-0.347152	0.357576
C33	C	-1.071631	-0.251041	0.347071
C34	C	-0.964157	-0.197799	0.312266
C35	C	-0.889108	-0.240675	0.287962
C36	C	-1.211535	-0.400388	0.392393
C37	C	-1.286581	-0.357519	0.416692
C38	C	-1.254155	-0.261407	0.406179
C39	C	-1.146680	-0.208165	0.371375
C40	C	-1.329204	-0.218531	0.430483
C41	C	-1.296775	-0.122420	0.419978
C42	C	-1.114251	-0.112054	0.360870
C43	C	-0.265551	0.205777	0.409888
C44	C	-0.371364	0.214611	0.444161
C45	C	-1.020898	0.368700	0.330657
C46	C	-0.986392	0.470991	0.319485
N47	N	-1.013855	0.250137	0.610224
N48	N	-1.161841	0.151664	0.094443
C49	C	-1.265687	0.082544	1.065727
C50	C	-1.298400	0.060771	0.951660
C51	C	-1.227267	0.108110	0.866296
C52	C	-1.123415	0.177227	0.895010
C53	C	-1.090702	0.199008	1.009090
C54	C	-1.052281	0.224574	0.809658
C55	C	-0.948429	0.293691	0.838372
C56	C	-0.915721	0.315467	0.952441
C57	C	-0.986855	0.268128	1.037805
C58	C	-1.084994	0.202793	0.695578
C59	C	-0.910008	0.319257	0.638940
C60	C	-0.877295	0.341031	0.753007
H61	H	-0.488734	0.143445	0.070360
Br62	Br	-0.521089	0.277225	0.747153
H63	H	-0.846539	0.152173	0.078300
Br64	Br	-0.654602	0.124536	-0.042482
H65	H	-0.801591	-0.197329	0.259609
Br66	Br	-1.362224	0.018315	1.181577
H67	H	-1.357884	-0.087516	0.439766
H68	H	-1.169550	0.146519	0.672210
H69	H	-0.852086	0.357808	0.569435
Br70	Br	-0.705083	0.242568	0.552266
Br71	Br	-0.736356	0.434829	0.791989
Br72	Br	-0.774790	0.409283	0.991417
H73	H	-1.382956	0.004497	0.928285
H74	H	-1.026734	-0.068709	0.332516
Br75	Br	-1.271663	0.078560	0.711486
Br76	Br	-0.286774	0.257599	0.671238
H77	H	-1.374089	-0.400875	0.445038
H78	H	-0.347120	0.170098	0.220380
Br79	Br	-0.920137	-0.067358	0.298023
H80	H	-1.416709	-0.261888	0.458835
Br81	Br	-0.777074	-0.533948	0.251710
Br82	Br	-0.700630	-0.307402	0.226911
Br83	Br	-0.942451	0.297673	1.192616
H84	H	-1.148952	-0.529496	0.372134
Br85	Br	-1.255544	-0.530824	0.406662
H86	H	-0.743661	0.220616	0.436738
