data_functionalizedCrystal
_audit_creation_method	'MofGen! by Chris Wilmer'
_symmetry_space_group_name_H-M	'P1'
_symmetry_Int_Tables_number	1
_symmetry_cell_setting	triclinic
loop_
_symmetry_equiv_pos_as_xyz
  x,y,z
_cell_length_a	21.295420
_cell_length_b	21.295417
_cell_length_c	18.050582
_cell_angle_alpha	89.973245
_cell_angle_beta	89.984936
_cell_angle_gamma	90.028757
loop_
_atom_site_label
_atom_site_type_symbol
_atom_site_fract_x
_atom_site_fract_y
_atom_site_fract_z
Zn1	Zn	0.962296	-0.250679	-0.419894
Zn2	Zn	1.295629	0.082655	-0.086560
Zn3	Zn	1.628962	0.415988	0.246773
Zn4	Zn	0.962216	-0.355940	-0.295695
Zn5	Zn	1.295549	-0.022606	0.037639
Zn6	Zn	1.628882	0.310727	0.370972
Zn7	Zn	0.857036	-0.250685	-0.295718
Zn8	Zn	1.190370	0.082648	0.037616
Zn9	Zn	1.523703	0.415981	0.370949
Zn10	Zn	0.856988	-0.355911	-0.419843
Zn11	Zn	1.190321	-0.022577	-0.086510
Zn12	Zn	1.523655	0.310756	0.246824
O13	O	0.909634	-0.303304	-0.357787
O14	O	1.242967	0.030030	-0.024454
O15	O	1.576301	0.363363	0.308879
O16	O	1.050374	-0.264651	-0.403430
O17	O	1.383708	0.068682	-0.070097
O18	O	1.717041	0.402016	0.263236
O19	O	0.948250	-0.341993	-0.191773
O20	O	1.281583	-0.008659	0.141560
O21	O	1.614917	0.324674	0.474894
O22	O	0.871053	-0.162595	-0.312221
O23	O	1.204386	0.170738	0.021113
O24	O	1.537720	0.504072	0.354446
O25	O	1.050316	-0.341986	-0.312182
O26	O	1.383649	-0.008653	0.021152
O27	O	1.716982	0.324681	0.354485
O28	O	0.948386	-0.162590	-0.403452
O29	O	1.281720	0.170743	-0.070119
O30	O	1.615053	0.504077	0.263214
O31	O	0.870975	-0.264662	-0.191790
O32	O	1.204309	0.068671	0.141543
O33	O	1.537642	0.402004	0.474877
O34	O	0.768941	-0.264634	-0.312171
O35	O	1.102274	0.068699	0.021162
O36	O	1.435607	0.402032	0.354495
O37	O	0.870971	-0.341936	-0.523774
O38	O	1.204304	-0.008603	-0.190441
O39	O	1.537637	0.324730	0.142892
O40	O	0.768905	-0.341943	-0.403366
O41	O	1.102239	-0.008610	-0.070032
O42	O	1.435572	0.324724	0.263301
O43	O	0.948339	-0.264623	-0.523812
O44	O	1.281673	0.068710	-0.190478
O45	O	1.615006	0.402044	0.142855
O46	O	0.948203	-0.444025	-0.312132
O47	O	1.281537	-0.110692	0.021201
O48	O	1.614870	0.222641	0.354534
O49	O	0.870893	-0.444004	-0.403343
O50	O	1.204226	-0.110671	-0.070010
O51	O	1.537560	0.222663	0.263323
C52	C	0.746082	-0.303287	-0.357766
C53	C	1.079416	0.030047	-0.024433
C54	C	1.412749	0.363380	0.308901
C55	C	0.676114	-0.303294	-0.357774
C56	C	1.009448	0.030039	-0.024441
C57	C	1.342781	0.363372	0.308892
C58	C	0.176654	-0.343632	-0.405226
C59	C	0.509988	-0.010299	-0.071893
C60	C	0.843321	0.323034	0.261441
C61	C	0.242397	-0.343633	-0.405218
C62	C	0.575730	-0.010299	-0.071885
C63	C	0.909063	0.323034	0.261448
C64	C	0.275275	-0.303318	-0.357811
C65	C	0.608608	0.030015	-0.024477
C66	C	0.941941	0.363349	0.308856
C67	C	0.242405	-0.263011	-0.310394
C68	C	0.575738	0.070322	0.022940
C69	C	0.909071	0.403655	0.356273
C70	C	0.176664	-0.263017	-0.310398
C71	C	0.509997	0.070317	0.022936
C72	C	0.843330	0.403650	0.356269
N73	N	0.378516	-0.248201	-0.352227
N74	N	0.711850	0.085133	-0.018894
N75	N	1.045183	0.418466	0.314439
N76	N	0.440968	-0.248197	-0.352228
N77	N	0.774301	0.085136	-0.018894
N78	N	1.107634	0.418469	0.314439
C79	C	0.473349	-0.303300	-0.357795
C80	C	0.806683	0.030033	-0.024461
C81	C	1.140016	0.363367	0.308872
N82	N	0.440921	-0.358407	-0.363376
N83	N	0.774254	-0.025074	-0.030042
N84	N	1.107587	0.308259	0.303291
N85	N	0.378463	-0.358410	-0.363379
N86	N	0.711797	-0.025077	-0.030045
N87	N	1.045130	0.308257	0.303288
C88	C	0.346560	-0.303308	-0.357801
C89	C	0.679893	0.030026	-0.024467
C90	C	1.013227	0.363359	0.308866
C91	C	0.577497	-0.343607	-0.405196
C92	C	0.910830	-0.010274	-0.071863
C93	C	1.244164	0.323059	0.261470
C94	C	0.643241	-0.343609	-0.405183
C95	C	0.976574	-0.010275	-0.071850
C96	C	1.309907	0.323058	0.261483
C97	C	0.643248	-0.262982	-0.310363
C98	C	0.976581	0.070351	0.022971
C99	C	1.309914	0.403685	0.356304
C100	C	0.577505	-0.262986	-0.310372
C101	C	0.910838	0.070347	0.022961
C102	C	1.244172	0.403680	0.356295
C103	C	0.544634	-0.303298	-0.357793
C104	C	0.877967	0.030035	-0.024459
C105	C	1.211300	0.363368	0.308874
C106	C	0.909551	-0.466855	-0.357746
C107	C	1.242885	-0.133522	-0.024413
C108	C	1.576218	0.199811	0.308921
C109	C	0.909574	-0.536823	-0.357753
C110	C	1.242907	-0.203490	-0.024420
C111	C	1.576240	0.129843	0.308913
C112	C	0.949865	-0.569680	-0.310308
C113	C	1.283198	-0.236347	0.023025
C114	C	1.616532	0.096986	0.356358
C115	C	0.949894	-0.635423	-0.310325
C116	C	1.283228	-0.302089	0.023008
C117	C	1.616561	0.031244	0.356342
C118	C	0.909621	-0.668306	-0.357779
C119	C	1.242955	-0.334972	-0.024446
C120	C	1.576288	-0.001639	0.308888
C121	C	0.869327	-0.635441	-0.405233
C122	C	1.202661	-0.302108	-0.071900
C123	C	1.535994	0.031226	0.261434
C124	C	0.869304	-0.569700	-0.405220
C125	C	1.202637	-0.236366	-0.071887
C126	C	1.535970	0.096967	0.261446
N127	N	0.854554	-0.771570	-0.363433
N128	N	1.187887	-0.438237	-0.030100
N129	N	1.521220	-0.104904	0.303233
N130	N	0.854578	-0.834022	-0.363441
N131	N	1.187911	-0.500688	-0.030108
N132	N	1.521245	-0.167355	0.303226
C133	C	0.909692	-0.866380	-0.357822
C134	C	1.243025	-0.533047	-0.024488
C135	C	1.576359	-0.199714	0.308845
N136	N	0.964782	-0.833929	-0.352179
N137	N	1.298115	-0.500595	-0.018846
N138	N	1.631448	-0.167262	0.314487
N139	N	0.964756	-0.771471	-0.352168
N140	N	1.298090	-0.438138	-0.018834
N141	N	1.631423	-0.104805	0.314499
C142	C	0.909643	-0.739591	-0.357798
C143	C	1.242976	-0.406258	-0.024465
C144	C	1.576310	-0.072924	0.308868
C145	C	0.950019	-0.970523	-0.310392
C146	C	1.283352	-0.637190	0.022941
C147	C	1.616685	-0.303856	0.356275
C148	C	0.950049	-1.036267	-0.310414
C149	C	1.283382	-0.702933	0.022919
C150	C	1.616716	-0.369600	0.356253
C151	C	0.869477	-1.036284	-0.405318
C152	C	1.202810	-0.702950	-0.071985
C153	C	1.536143	-0.369617	0.261348
C154	C	0.869452	-0.970541	-0.405300
C155	C	1.202785	-0.637208	-0.071967
C156	C	1.536118	-0.303874	0.261366
C157	C	0.909722	-0.937665	-0.357833
C158	C	1.243055	-0.604331	-0.024500
C159	C	1.576388	-0.270998	0.308833
C160	C	1.073824	-0.303321	-0.357809
C161	C	1.407157	0.030012	-0.024476
C162	C	1.740491	0.363346	0.308858
C163	C	1.143792	-0.303329	-0.357818
C164	C	1.477126	0.030005	-0.024485
C165	C	1.810459	0.363338	0.308848
C166	C	0.909659	-0.303276	-0.551493
C167	C	1.242992	0.030058	-0.218160
C168	C	1.576325	0.363391	0.115174
C169	C	0.909669	-0.303264	-0.634039
C170	C	1.243002	0.030070	-0.300705
C171	C	1.576336	0.363403	0.032628
C172	C	0.909734	-0.139113	-0.357845
C173	C	1.243067	0.194220	-0.024511
C174	C	1.576401	0.527553	0.308822
C175	C	0.909777	-0.069145	-0.357869
C176	C	1.243110	0.264188	-0.024536
C177	C	1.576443	0.597522	0.308797
C178	C	0.867628	-0.345249	-0.833469
C179	C	1.200961	-0.011916	-0.500136
C180	C	1.534295	0.321417	-0.166803
C181	C	0.925059	-0.360639	-0.882859
C182	C	1.258392	-0.027305	-0.549526
C183	C	1.591725	0.306028	-0.216193
C184	C	0.909700	-0.303216	-0.785169
C185	C	1.243033	0.030118	-0.451836
C186	C	1.576367	0.363451	-0.118503
C187	C	0.852301	-0.287809	-0.882861
C188	C	1.185634	0.045524	-0.549527
C189	C	1.518968	0.378858	-0.216194
C190	C	0.909725	-0.303170	-0.931154
C191	C	1.243058	0.030163	-0.597821
C192	C	1.576392	0.363496	-0.264488
C193	C	0.967161	-0.318635	-0.833472
C194	C	1.300494	0.014698	-0.500139
C195	C	1.633828	0.348032	-0.166805
C196	C	0.894365	-0.245779	-0.833469
C197	C	1.227698	0.087555	-0.500136
C198	C	1.561031	0.420888	-0.166803
C199	C	0.951835	-0.261146	-0.882837
C200	C	1.285168	0.072187	-0.549504
C201	C	1.618501	0.405521	-0.216170
C202	C	0.909685	-0.303243	-0.701071
C203	C	1.243018	0.030090	-0.367738
C204	C	1.576352	0.363423	-0.034404
C205	C	0.909747	-0.303143	-1.015251
C206	C	1.243080	0.030191	-0.681918
C207	C	1.576413	0.363524	-0.348584
C208	C	0.909646	-0.303286	-0.164835
C209	C	1.242979	0.030047	0.168498
C210	C	1.576312	0.363381	0.501832
C211	C	0.909757	-0.303121	-0.082290
C212	C	1.243090	0.030213	0.251044
C213	C	1.576424	0.363546	0.584377
H214	H	0.149894	-0.376460	-0.443837
H215	H	0.483228	-0.043126	-0.110504
H216	H	0.816561	0.290207	0.222829
H217	H	0.982657	-0.542914	-0.271660
H218	H	1.315990	-0.209581	0.061674
H219	H	1.649323	0.123753	0.395007
Br220	Br	0.132062	-0.208314	-0.246054
Br221	Br	0.465395	0.125019	0.087280
Br222	Br	0.798728	0.458352	0.420613
H223	H	0.836688	-1.063056	-0.443959
H224	H	1.170022	-0.729723	-0.110626
H225	H	1.503355	-0.396390	0.222707
H226	H	1.015727	-0.331702	-0.811869
H227	H	1.349060	0.001631	-0.478535
H228	H	1.682394	0.334965	-0.145202
Br229	Br	0.946706	-0.441564	-0.919019
Br230	Br	1.280039	-0.108230	-0.585686
Br231	Br	1.613372	0.225103	-0.252353
Br232	Br	1.011218	-0.201867	-0.918743
Br233	Br	1.344551	0.131467	-0.585410
Br234	Br	1.677885	0.464800	-0.252077
Br235	Br	1.004579	-0.680024	-0.245931
Br236	Br	1.337913	-0.346691	0.087402
Br237	Br	1.671246	-0.013358	0.420736
Br238	Br	0.872693	-0.164874	-0.797280
Br239	Br	1.206027	0.168460	-0.463946
Br240	Br	1.539360	0.501793	-0.130613
H241	H	0.269158	-0.376453	-0.443826
H242	H	0.602492	-0.043119	-0.110492
H243	H	0.935825	0.290214	0.222841
H244	H	0.669996	-0.376433	-0.443786
H245	H	1.003329	-0.043100	-0.110453
H246	H	1.336663	0.290233	0.222880
Br247	Br	0.814676	-0.680066	-0.469641
Br248	Br	1.148009	-0.346733	-0.136308
Br249	Br	1.481342	-0.013399	0.197025
Br250	Br	0.808382	-0.404569	-0.797338
Br251	Br	1.141715	-0.071236	-0.464005
Br252	Br	1.475048	0.262097	-0.130671
Br253	Br	0.814619	-0.525105	-0.469616
Br254	Br	1.147953	-0.191772	-0.136283
Br255	Br	1.481286	0.141562	0.197051
H256	H	0.982811	-0.943754	-0.271744
H257	H	1.316144	-0.610421	0.061590
H258	H	1.649478	-0.277087	0.394923
Br259	Br	0.771380	-0.266121	-0.919023
Br260	Br	1.104713	0.067213	-0.585690
Br261	Br	1.438046	0.400546	-0.252357
H262	H	0.550749	-0.230164	-0.271770
H263	H	0.884082	0.103169	0.061563
H264	H	1.217415	0.436502	0.394897
H265	H	0.269178	-0.230188	-0.271793
H266	H	0.602512	0.103146	0.061540
H267	H	0.935845	0.436479	0.394874
H268	H	0.550732	-0.376433	-0.443808
H269	H	0.884065	-0.043099	-0.110475
H270	H	1.217398	0.290234	0.222858
Br271	Br	1.004742	-1.080860	-0.246026
Br272	Br	1.338075	-0.747526	0.087307
Br273	Br	1.671408	-0.414193	0.420640
Br274	Br	0.814766	-0.925946	-0.469692
Br275	Br	1.148099	-0.592613	-0.136359
Br276	Br	1.481433	-0.259280	0.196975
Br277	Br	0.687860	-0.208276	-0.246013
Br278	Br	1.021194	0.125057	0.087321
Br279	Br	1.354527	0.458391	0.420654
