data_functionalizedCrystal
_audit_creation_method	'MofGen! by Chris Wilmer'
_symmetry_space_group_name_H-M	'P1'
_symmetry_Int_Tables_number	1
_symmetry_cell_setting	triclinic
loop_
_symmetry_equiv_pos_as_xyz
  x,y,z
_cell_length_a	12.759401
_cell_length_b	15.299816
_cell_length_c	12.759393
_cell_angle_alpha	80.349000
_cell_angle_beta	90.019676
_cell_angle_gamma	80.350755
loop_
_atom_site_label
_atom_site_type_symbol
_atom_site_fract_x
_atom_site_fract_y
_atom_site_fract_z
Zn1	Zn	1.678557	-0.359001	0.666400
Zn2	Zn	1.708822	-0.509842	0.521147
Zn3	Zn	1.502865	-0.359047	0.490749
Zn4	Zn	1.533208	-0.509776	0.696775
O5	O	1.605863	-0.434417	0.593768
O6	O	1.829594	-0.379020	0.647142
O7	O	1.681469	-0.489885	0.370103
O8	O	1.500806	-0.232832	0.488615
O9	O	1.851830	-0.489842	0.540426
O10	O	1.629886	-0.232799	0.617666
O11	O	1.530153	-0.379096	0.347769
O12	O	1.359867	-0.379032	0.518068
O13	O	1.552522	-0.489729	0.839758
O14	O	1.382160	-0.489773	0.669435
O15	O	1.659309	-0.378956	0.817441
O16	O	1.710892	-0.636042	0.569879
O17	O	1.581869	-0.635993	0.698912
C18	C	1.332893	-0.434401	0.593750
C19	C	1.216119	-0.434416	0.593771
C20	C	1.652986	-0.668742	0.641013
C21	C	1.673241	-0.768987	0.661259
C22	C	1.149700	-0.376815	0.649464
C23	C	1.039978	-0.376825	0.649472
C24	C	1.063104	-0.492043	0.538096
C25	C	1.172823	-0.492029	0.538081
C26	C	1.461784	-1.051930	0.449419
C27	C	1.442747	-0.957745	0.430399
C28	C	1.500369	-0.910551	0.488112
C29	C	1.577030	-0.957551	0.564849
C30	C	1.596063	-1.051746	0.583877
C31	C	1.634648	-0.910367	0.622570
C32	C	1.711310	-0.957368	0.699307
C33	C	1.730339	-1.051553	0.718331
C34	C	1.672717	-1.098747	0.660618
C35	C	1.615616	-0.816172	0.603542
C36	C	1.749895	-0.815988	0.738000
C37	C	1.768932	-0.910174	0.757021
C38	C	1.879900	-0.434433	0.593787
C39	C	1.996678	-0.434440	0.593795
C40	C	1.605924	-0.434330	0.867784
C41	C	1.605950	-0.434293	0.984553
C42	C	1.558585	-0.199176	0.546362
C43	C	1.538438	-0.098931	0.526160
C44	C	1.605849	-0.434438	0.320805
C45	C	1.605976	-0.434221	0.203985
C46	C	1.661557	-0.376604	1.027795
C47	C	1.661567	-0.376565	1.137511
C48	C	1.550362	-0.491912	1.160736
C49	C	1.550346	-0.491946	1.051020
H50	H	1.184947	-0.329901	0.694806
H51	H	1.505094	-0.538853	1.214867
H52	H	1.796814	-0.777564	0.784998
C53	C	1.015476	-0.555420	0.476853
H54	H	0.940620	-0.547187	0.484846
H55	H	1.030753	-0.542149	0.403609
H56	H	1.045666	-0.616033	0.504341
C57	C	1.814658	-1.103252	0.802745
H58	H	1.846257	-1.061658	0.834386
H59	H	1.781871	-1.139995	0.855909
H60	H	1.867880	-1.139987	0.770006
H61	H	1.706830	-0.329657	0.973679
C62	C	1.245893	-0.555391	0.476819
H63	H	1.317436	-0.547123	0.484778
H64	H	1.240121	-0.616008	0.504297
H65	H	1.225209	-0.542114	0.403575
C66	C	1.693592	-1.202352	0.681610
H67	H	1.747481	-1.223587	0.735596
H68	H	1.630066	-1.223641	0.704035
H69	H	1.716107	-1.223746	0.618163
H70	H	1.553198	-0.777912	0.541062
C71	C	1.489176	-0.555405	1.003446
H72	H	1.497122	-0.547159	0.928583
H73	H	1.516727	-0.616000	1.033635
H74	H	1.415930	-0.542186	1.018754
C75	C	0.966923	-0.313468	0.710740
H76	H	1.008428	-0.279162	0.743909
H77	H	0.916187	-0.274132	0.662705
H78	H	0.931097	-0.348029	0.763424
C79	C	1.479439	-0.806949	0.467182
H80	H	1.425538	-0.785716	0.413208
H81	H	1.456931	-0.785603	0.530652
H82	H	1.542939	-0.785610	0.444747
H83	H	1.380330	-0.919480	0.367921
H84	H	1.706846	-0.329588	1.172712
H85	H	1.414871	-1.090364	0.402442
C86	C	1.853253	-0.961877	0.841430
H87	H	1.884854	-0.920286	0.873074
H88	H	1.820468	-0.998623	0.894593
H89	H	1.906473	-0.998609	0.808685
