data_functionalizedCrystal
_audit_creation_method	'MofGen! by Chris Wilmer'
_symmetry_space_group_name_H-M	'P1'
_symmetry_Int_Tables_number	1
_symmetry_cell_setting	triclinic
loop_
_symmetry_equiv_pos_as_xyz
  x,y,z
_cell_length_a	19.188930
_cell_length_b	17.666332
_cell_length_c	19.188930
_cell_angle_alpha	89.988397
_cell_angle_beta	96.855221
_cell_angle_gamma	90.023234
loop_
_atom_site_label
_atom_site_type_symbol
_atom_site_fract_x
_atom_site_fract_y
_atom_site_fract_z
O1	O	0.926150	0.063200	-0.087169
O2	O	0.722838	0.063149	-0.098903
O3	O	0.830361	0.063161	0.008620
O4	O	0.818627	0.063188	-0.194692
O5	O	0.830342	-0.062735	0.008625
O6	O	0.722820	-0.062747	-0.098897
O7	O	0.926131	-0.062697	-0.087163
Cu8	Cu	0.824473	-0.074217	-0.093030
Cu9	Cu	0.824496	0.074670	-0.093036
O10	O	0.818608	-0.062709	-0.194686
C11	C	0.696818	0.000194	-0.098520
C12	C	0.619313	0.000174	-0.097380
N13	N	0.824463	-0.178937	-0.093025
C14	C	0.574389	0.000194	-0.160470
C15	C	0.501566	0.000203	-0.159399
C16	C	0.473669	0.000206	-0.095233
C17	C	0.518603	0.000181	-0.032133
C18	C	0.591425	0.000166	-0.033207
N19	N	0.365695	0.043078	-0.046188
N20	N	0.296517	0.043095	-0.045172
C21	C	0.254260	0.000252	-0.091994
N22	N	0.283795	-0.042599	-0.139881
N23	N	0.352979	-0.042612	-0.140899
C24	C	0.394707	0.000222	-0.094062
C25	C	0.130372	0.000280	-0.153928
C26	C	0.057547	0.000283	-0.152853
C27	C	0.074586	0.000270	-0.025586
C28	C	0.147409	0.000258	-0.026662
C29	C	0.175298	0.000267	-0.090835
C30	C	0.872089	-0.218541	-0.045437
C31	C	0.872093	-0.297789	-0.045433
C32	C	0.824478	-0.337429	-0.093030
C33	C	0.776842	-0.297815	-0.140621
C34	C	0.776835	-0.218569	-0.140619
N35	N	0.815401	-0.461841	-0.154837
N36	N	0.815413	-0.537121	-0.154837
C37	C	0.824496	-0.576193	-0.093040
N38	N	0.833582	-0.537140	-0.031239
N39	N	0.833574	-0.461853	-0.031240
C40	C	0.824480	-0.423358	-0.093038
C41	C	0.872130	-0.701727	-0.045444
C42	C	0.872129	-0.780976	-0.045440
C43	C	0.776881	-0.781000	-0.140634
C44	C	0.776878	-0.701753	-0.140632
C45	C	0.824506	-0.662121	-0.093038
C46	C	0.952151	0.000260	-0.087546
C47	C	1.029656	0.000285	-0.088687
C48	C	0.829972	0.000211	0.034634
C49	C	0.828831	0.000204	0.112138
N50	N	0.824512	0.179390	-0.093036
C51	C	0.818997	0.000244	-0.220700
C52	C	0.820138	0.000255	-0.298204
C53	C	0.891922	0.000216	0.157062
C54	C	0.890850	0.000228	0.229886
C55	C	0.826684	0.000212	0.257782
C56	C	0.763585	0.000205	0.212849
C57	C	0.764658	0.000200	0.140026
N58	N	0.777630	-0.042645	0.365789
N59	N	0.776615	-0.042642	0.434968
C60	C	0.823446	0.000227	0.477191
N61	N	0.871341	0.043084	0.447624
N62	N	0.872359	0.043079	0.378439
C63	C	0.825513	0.000218	0.336745
C64	C	0.885379	0.000253	0.601079
C65	C	0.884305	0.000270	0.673904
C66	C	0.757038	0.000239	0.656865
C67	C	0.758114	0.000230	0.584042
C68	C	0.822287	0.000233	0.556154
H69	H	0.464982	0.000217	-0.210776
H70	H	0.706738	0.000216	0.547464
H71	H	0.020970	0.000295	-0.204232
C72	C	0.043909	0.000278	0.044995
H73	H	-0.005896	0.000295	0.036600
H74	H	0.059319	-0.043628	0.070971
H75	H	0.059367	0.044183	0.070957
C76	C	0.605063	0.000190	-0.231057
H77	H	0.567874	0.000195	-0.268479
H78	H	0.633145	0.044084	-0.234128
H79	H	0.633088	-0.043728	-0.234117
H80	H	0.711340	0.000194	0.235567
C81	C	0.196828	0.000248	0.042738
H82	H	0.169786	0.000257	0.081108
H83	H	0.225568	-0.043660	0.044969
H84	H	0.225611	0.044152	0.044960
C85	C	0.960253	0.000236	0.279311
H86	H	0.998624	0.000233	0.252272
H87	H	0.962490	0.044139	0.308067
H88	H	0.962464	-0.043673	0.308078
C89	C	0.695257	0.000185	0.090605
H90	H	0.705087	0.000188	0.043240
H91	H	0.668926	-0.043720	0.099049
H92	H	0.668948	0.044091	0.099029
C93	C	0.487920	0.000189	0.038447
H94	H	0.438115	0.000210	0.030051
H95	H	0.503327	-0.043719	0.064420
H96	H	0.503380	0.044093	0.064411
H97	H	0.910878	-0.330041	-0.006680
C98	C	0.955964	0.000266	0.570399
H99	H	0.993387	0.000286	0.607587
H100	H	0.959023	-0.043640	0.542357
H101	H	0.959034	0.044172	0.542334
H102	H	0.935683	0.000284	0.710481
C103	C	0.724503	-0.658182	-0.192991
H104	H	0.731317	-0.605310	-0.186172
H105	H	0.731947	-0.671157	-0.239569
H106	H	0.677927	-0.671193	-0.185526
H107	H	0.738109	-0.813275	-0.179385
H108	H	0.704792	0.000230	0.679578
C109	C	0.924471	-0.174950	0.006922
H110	H	0.952831	-0.209892	0.035269
H111	H	0.953452	-0.144010	-0.018118
H112	H	0.899437	-0.144062	0.035930
C113	C	0.924510	-0.658128	0.006913
H114	H	0.952869	-0.693068	0.035264
H115	H	0.953493	-0.627192	-0.018129
H116	H	0.899477	-0.627236	0.035917
H117	H	0.944176	0.000222	0.134360
H118	H	0.738072	-0.330094	-0.179374
H119	H	0.738051	-0.186322	-0.179371
H120	H	0.153080	0.000276	-0.206181
C121	C	0.640843	0.000152	0.036196
H122	H	0.613802	0.000160	0.074566
H123	H	0.669586	-0.043753	0.038426
H124	H	0.669624	0.044058	0.038417
C125	C	0.924522	-0.824541	0.006908
H126	H	0.952889	-0.789585	0.035247
H127	H	0.899505	-0.855476	0.035915
H128	H	0.953507	-0.855432	-0.018146
