data_functionalizedCrystal
_audit_creation_method	'MofGen! by Chris Wilmer'
_symmetry_space_group_name_H-M	'P1'
_symmetry_Int_Tables_number	1
_symmetry_cell_setting	triclinic
loop_
_symmetry_equiv_pos_as_xyz
  x,y,z
_cell_length_a	12.759399
_cell_length_b	19.805407
_cell_length_c	19.805399
_cell_angle_alpha	90.019573
_cell_angle_beta	89.976347
_cell_angle_gamma	89.984884
loop_
_atom_site_label
_atom_site_type_symbol
_atom_site_fract_x
_atom_site_fract_y
_atom_site_fract_z
Zn1	Zn	-0.418291	-1.034789	-0.382738
Zn2	Zn	-0.593984	-1.034726	-0.269558
Zn3	Zn	-0.418320	-0.921603	-0.269563
Zn4	Zn	-0.593928	-0.921589	-0.382704
O5	O	-0.506131	-0.978177	-0.326141
O6	O	-0.441608	-1.129497	-0.367736
O7	O	-0.570717	-1.019700	-0.174842
O8	O	-0.271295	-0.936650	-0.284592
O9	O	-0.570689	-1.129451	-0.284583
O10	O	-0.271273	-1.019807	-0.367741
O11	O	-0.441657	-0.936589	-0.174845
O12	O	-0.441603	-0.826885	-0.284559
O13	O	-0.570594	-0.936626	-0.477425
O14	O	-0.570622	-0.826875	-0.367684
O15	O	-0.441554	-1.019793	-0.477450
O16	O	-0.740998	-1.019686	-0.284551
O17	O	-0.740957	-0.936565	-0.367679
C18	C	-0.506110	-0.802321	-0.326119
C19	C	-0.506127	-0.727089	-0.326126
C20	C	-0.779098	-0.978135	-0.326125
C21	C	-0.895875	-0.978180	-0.326141
C22	C	-0.506064	-0.978215	-0.502684
C23	C	-0.506036	-0.978231	-0.577916
C24	C	-0.950723	-1.021510	-0.282906
C25	C	-1.060447	-1.021554	-0.282928
C26	C	-1.060465	-0.934930	-0.369424
C27	C	-0.950743	-0.934891	-0.369405
C28	C	-1.210321	-1.101446	-0.258846
C29	C	-1.265173	-1.144771	-0.215599
C30	C	-1.229620	-1.155188	-0.149559
C31	C	-1.139217	-1.122271	-0.126751
C32	C	-1.084370	-1.078942	-0.169994
C33	C	-1.119922	-1.068537	-0.236044
C34	C	-0.800867	-0.854997	-0.393480
C35	C	-0.746018	-0.811663	-0.436720
C36	C	-0.781569	-0.801239	-0.502762
C37	C	-0.871976	-0.834144	-0.525567
C38	C	-0.926825	-0.877478	-0.482327
C39	C	-0.891266	-0.887903	-0.416286
C40	C	-0.232097	-0.978237	-0.326171
C41	C	-0.115321	-0.978263	-0.326184
C42	C	-0.506152	-1.154720	-0.326163
C43	C	-0.506160	-1.229952	-0.326173
C44	C	-0.573408	-0.691757	-0.369339
C45	C	-0.573410	-0.621069	-0.369348
C46	C	-0.506135	-0.585713	-0.326141
C47	C	-0.438847	-0.621050	-0.282926
C48	C	-0.438840	-0.691737	-0.282920
C49	C	-0.438870	-0.335977	-0.282948
C50	C	-0.438884	-0.265285	-0.282956
C51	C	-0.573440	-0.265308	-0.369376
C52	C	-0.573433	-0.335995	-0.369370
C53	C	-0.506141	-0.371326	-0.326158
C54	C	-0.506139	-0.447974	-0.326149
C55	C	-0.506143	-0.509066	-0.326146
C56	C	-0.438842	-1.021537	-0.613274
C57	C	-0.438811	-1.021544	-0.683962
C58	C	-0.505981	-0.978248	-0.719291
C59	C	-0.573179	-0.934937	-0.683928
C60	C	-0.573203	-0.934927	-0.613241
C61	C	-0.573081	-0.934975	-0.969002
C62	C	-0.573054	-0.934990	-1.039694
C63	C	-0.438689	-1.021592	-1.039723
C64	C	-0.438713	-1.021582	-0.969036
C65	C	-0.505906	-0.978269	-0.933679
C66	C	-0.505937	-0.978261	-0.857030
C67	C	-0.505957	-0.978259	-0.795938
C68	C	-0.506121	-0.978178	-0.150285
C69	C	-0.505853	-0.978293	-0.075053
H70	H	-1.010764	-1.052143	-0.151425
C71	C	-0.365689	-0.582789	-0.235988
C72	C	-0.306746	-0.628863	-0.198155
C73	C	-0.239334	-0.593643	-0.154913
H74	H	-0.405705	-0.555195	-0.206394
H75	H	-0.319912	-0.555244	-0.261917
H76	H	-0.352517	-0.656396	-0.172228
H77	H	-0.266708	-0.656459	-0.227731
H78	H	-0.193556	-0.566099	-0.180842
H79	H	-0.279358	-0.566051	-0.125323
H80	H	-0.199325	-0.624899	-0.129243
C81	C	-0.646115	-0.888090	-1.078086
C82	C	-0.713467	-0.926407	-1.118650
C83	C	-0.780793	-0.883231	-1.154020
H84	H	-0.606033	-0.858602	-1.105719
H85	H	-0.686196	-0.862305	-1.046926
H86	H	-0.673390	-0.952181	-1.149807
H87	H	-0.753572	-0.955893	-1.091035
H88	H	-0.820874	-0.857445	-1.122859
H89	H	-0.740702	-0.853745	-1.181648
H90	H	-0.826505	-0.909222	-1.181541
C91	C	-0.365942	-0.374290	-0.235918
C92	C	-0.388701	-0.357076	-0.168925
C93	C	-0.321545	-0.392365	-0.125579
H94	H	-0.295338	-0.362741	-0.245816
H95	H	-0.375568	-0.421460	-0.242053
H96	H	-0.379066	-0.309917	-0.162792
H97	H	-0.459292	-0.368627	-0.159005
H98	H	-0.331171	-0.439535	-0.131715
H99	H	-0.250945	-0.380813	-0.135483
H100	H	-0.336984	-0.380695	-0.080120
H101	H	-0.628228	-0.236533	-0.404564
H102	H	-0.628195	-0.720538	-0.404521
C103	C	-1.289286	-1.202280	-0.102718
C104	C	-1.376049	-1.228886	-0.136830
C105	C	-1.431032	-1.272278	-0.093709
H106	H	-1.312430	-1.177902	-0.064183
H107	H	-1.244582	-1.238054	-0.088873
H108	H	-1.420746	-1.193117	-0.150665
H109	H	-1.352935	-1.253275	-0.175362
H110	H	-1.386327	-1.308052	-0.079864
H111	H	-1.454169	-1.247895	-0.055176
H112	H	-1.489901	-1.290340	-0.116849
H113	H	-0.384020	-1.056841	-0.940274
C114	C	-1.248948	-1.090286	-0.330568
C115	C	-1.250314	-1.152013	-0.365035
C116	C	-1.285911	-1.141759	-0.431103
H117	H	-1.203396	-1.059808	-0.353147
H118	H	-1.317735	-1.071944	-0.329426
H119	H	-1.181538	-1.170345	-0.366180
H120	H	-1.295869	-1.182500	-0.342476
H121	H	-1.354698	-1.123418	-0.429961
H122	H	-1.240355	-1.111280	-0.453676
H123	H	-1.286852	-1.183640	-0.454495
H124	H	-1.110283	-1.130751	-0.072972
C125	C	-1.120228	-0.887953	-0.416315
C126	C	-1.228058	-0.897246	-0.407065
C127	C	-1.283141	-0.853973	-0.450241
H128	H	-1.102314	-0.897781	-0.461826
H129	H	-1.102372	-0.842461	-0.406355
H130	H	-1.245906	-0.942728	-0.417029
H131	H	-1.246003	-0.887413	-0.361563
H132	H	-1.265286	-0.808481	-0.440282
H133	H	-1.265219	-0.863805	-0.495750
H134	H	-1.356309	-0.860268	-0.443967
H135	H	-0.672399	-0.784874	-0.418148
C136	C	-0.365966	-0.730189	-0.235962
C137	C	-0.425361	-0.770758	-0.192523
C138	C	-0.358260	-0.806196	-0.149263
H139	H	-0.325875	-0.699089	-0.210163
H140	H	-0.320257	-0.757819	-0.261886
H141	H	-0.471051	-0.743130	-0.166602
H142	H	-0.465449	-0.801870	-0.218303
H143	H	-0.312551	-0.833826	-0.175187
H144	H	-0.318173	-0.775091	-0.123469
H145	H	-0.398548	-0.833731	-0.119789
H146	H	-0.384147	-1.056796	-0.584514
C147	C	-1.024847	-0.913305	-0.507166
C148	C	-0.999490	-0.953958	-0.562670
C149	C	-1.089754	-0.986981	-0.585562
H150	H	-1.075701	-0.880804	-0.520226
H151	H	-1.052415	-0.940642	-0.471982
H152	H	-0.971937	-0.926622	-0.597847
H153	H	-0.948650	-0.986470	-0.549627
H154	H	-1.117322	-1.014319	-0.550378
H155	H	-1.140601	-0.954476	-0.598618
H156	H	-1.072559	-1.014573	-0.623220
H157	H	-0.384094	-0.236500	-0.247771
H158	H	-0.906052	-1.056760	-0.247679
C159	C	-0.910384	-0.822770	-0.597306
C160	C	-0.842985	-0.777793	-0.630298
C161	C	-0.878323	-0.767303	-0.696387
H162	H	-0.979118	-0.804363	-0.596228
H163	H	-0.911323	-0.864573	-0.620840
H164	H	-0.842057	-0.735998	-0.606770
H165	H	-0.774248	-0.796187	-0.631395
H166	H	-0.879263	-0.809106	-0.719922
H167	H	-0.947057	-0.748899	-0.695303
H168	H	-0.832593	-0.736791	-0.718783
C169	C	-0.646131	-0.887915	-0.930742
C170	C	-0.704961	-0.850011	-0.976814
C171	C	-0.772269	-0.806652	-0.941591
H172	H	-0.606046	-0.858372	-0.903172
H173	H	-0.691986	-0.913763	-0.903173
H174	H	-0.659112	-0.824165	-1.004372
H175	H	-0.745067	-0.879537	-1.004385
H176	H	-0.818124	-0.832499	-0.914022
H177	H	-0.732176	-0.777112	-0.914022
H178	H	-0.812200	-0.780933	-0.972845
H179	H	-0.628198	-0.592304	-0.404536
H180	H	-0.771906	-0.863486	-0.339705
C181	C	-0.646066	-0.888001	-0.722405
C182	C	-0.631686	-0.897291	-0.791878
C183	C	-0.698824	-0.854072	-0.827342
H184	H	-0.630754	-0.842498	-0.710896
H185	H	-0.716685	-0.897895	-0.710852
H186	H	-0.561083	-0.887392	-0.803427
H187	H	-0.647006	-0.942784	-0.803408
H188	H	-0.769443	-0.863966	-0.815789
H189	H	-0.683506	-0.808571	-0.815827
H190	H	-0.689083	-0.860373	-0.874484
H191	H	-0.383973	-1.056857	-1.068519
H192	H	-0.627909	-0.899656	-0.584453
H193	H	-0.384097	-1.056810	-0.712748
H194	H	-0.736902	-0.765951	-0.537966
C195	C	-0.646344	-0.374344	-0.416397
C196	C	-0.623582	-0.357193	-0.483392
C197	C	-0.690714	-0.392511	-0.526734
H198	H	-0.716955	-0.362776	-0.406506
H199	H	-0.636696	-0.421509	-0.410251
H200	H	-0.633239	-0.310037	-0.489535
H201	H	-0.552984	-0.368762	-0.493304
H202	H	-0.681066	-0.439677	-0.520588
H203	H	-0.761321	-0.380940	-0.516837
H204	H	-0.675273	-0.380884	-0.572195
H205	H	-1.338780	-1.171572	-0.234176
