data_functionalizedCrystal
_audit_creation_method	'MofGen! by Chris Wilmer'
_symmetry_space_group_name_H-M	'P1'
_symmetry_Int_Tables_number	1
_symmetry_cell_setting	triclinic
loop_
_symmetry_equiv_pos_as_xyz
  x,y,z
_cell_length_a	23.532407
_cell_length_b	23.532407
_cell_length_c	17.766277
_cell_angle_alpha	89.988964
_cell_angle_beta	89.995974
_cell_angle_gamma	82.848678
loop_
_atom_site_label
_atom_site_type_symbol
_atom_site_fract_x
_atom_site_fract_y
_atom_site_fract_z
O1	O	0.755263	0.069136	-0.062508
O2	O	1.255263	0.569136	0.437492
O3	O	0.589400	0.079139	-0.062531
O4	O	1.089400	0.579139	0.437469
O5	O	0.677333	-0.008794	-0.062505
O6	O	1.177333	0.491206	0.437495
O7	O	0.667330	0.157069	-0.062534
O8	O	1.167330	0.657069	0.437466
O9	O	0.677318	-0.008799	0.062684
O10	O	1.177318	0.491201	0.562684
O11	O	0.589385	0.079134	0.062657
O12	O	1.089385	0.579134	0.562657
O13	O	0.755248	0.069131	0.062681
O14	O	1.255248	0.569131	0.562681
Cu15	Cu	0.672315	0.074132	0.074100
Cu16	Cu	1.172315	0.574132	0.574100
Cu17	Cu	0.672333	0.074138	-0.073950
Cu18	Cu	1.172333	0.574138	0.426050
O19	O	0.667315	0.157065	0.062655
O20	O	1.167315	0.657065	0.562655
C21	C	0.568176	0.078882	0.000060
C22	C	1.068176	0.578882	0.500060
C23	C	0.504959	0.078116	0.000052
C24	C	1.004959	0.578116	0.500052
C25	C	0.677071	-0.030013	0.000091
C26	C	1.177071	0.469987	0.500091
C27	C	0.676305	-0.093230	0.000097
C28	C	1.176305	0.406770	0.500097
C29	C	0.105856	0.125350	0.000078
C30	C	0.605856	0.625350	0.500078
C31	C	0.046456	0.124638	0.000083
C32	C	0.546456	0.624638	0.500083
O33	O	0.009711	0.168424	0.000102
O34	O	0.509711	0.668424	0.500102
N35	N	0.023830	0.072362	0.000091
N36	N	0.523830	0.572362	0.500091
C37	C	0.060607	0.020794	0.000101
C38	C	0.560607	0.520794	0.500101
O39	O	0.035908	-0.023737	0.000109
O40	O	0.535908	0.476263	0.500109
C41	C	0.120006	0.021506	0.000102
C42	C	0.620006	0.521506	0.500102
C43	C	0.142629	0.073785	0.000087
C44	C	0.642629	0.573785	0.500087
C45	C	0.128479	0.177625	0.000063
C46	C	0.628479	0.677625	0.500063
C47	C	0.187876	0.178336	0.000057
C48	C	0.687876	0.678336	0.500057
C49	C	0.224649	0.126772	0.000066
C50	C	0.724649	0.626772	0.500066
C51	C	0.202025	0.074496	0.000080
C52	C	0.702025	0.574496	0.500080
C53	C	0.156783	-0.030062	0.000118
C54	C	0.656783	0.469938	0.500118
C55	C	0.216185	-0.029345	0.000120
C56	C	0.716185	0.470655	0.500120
C57	C	0.238808	0.022934	0.000104
C58	C	0.738808	0.522934	0.500104
C59	C	0.298194	0.023643	0.000083
C60	C	0.798194	0.523643	0.500083
N61	N	0.320820	0.075920	0.000075
N62	N	0.820820	0.575920	0.500075
C63	C	0.284048	0.127484	0.000066
C64	C	0.784048	0.627484	0.500066
C65	C	-0.064135	0.019302	0.000101
C66	C	0.435865	0.519302	0.500101
C67	C	-0.123533	0.018589	0.000095
C68	C	0.376467	0.518589	0.500095
C69	C	-0.137680	0.122434	0.000078
C70	C	0.362320	0.622434	0.500078
C71	C	-0.078281	0.123146	0.000079
C72	C	0.421719	0.623146	0.500079
C73	C	-0.041509	0.071578	0.000094
C74	C	0.458491	0.571578	0.500094
C75	C	0.408784	0.128974	0.000053
C76	C	0.908784	0.628974	0.500053
C77	C	0.468186	0.129680	0.000044
C78	C	0.968186	0.629680	0.500044
C79	C	0.482329	0.025836	0.000065
C80	C	0.982329	0.525836	0.500065
C81	C	0.422932	0.025129	0.000070
C82	C	0.922932	0.525129	0.500070
C83	C	0.386160	0.076702	0.000067
C84	C	0.886160	0.576702	0.500067
O85	O	0.334974	-0.020119	0.000066
O86	O	0.834974	0.479881	0.500066
O87	O	0.308755	0.172007	0.000069
O88	O	0.808755	0.672007	0.500069
C89	C	0.723539	-0.492333	0.000062
C90	C	1.223539	0.007667	0.500062
C91	C	0.722827	-0.551733	0.000056
C92	C	1.222827	-0.051733	0.500056
O93	O	0.766613	-0.588478	0.000035
O94	O	1.266613	-0.088478	0.500035
N95	N	0.670551	-0.574359	0.000050
N96	N	1.170551	-0.074359	0.500050
C97	C	0.618983	-0.537582	0.000041
C98	C	1.118983	-0.037582	0.500041
O99	O	0.574452	-0.562281	0.000034
O100	O	1.074452	-0.062281	0.500034
C101	C	0.619695	-0.478182	0.000041
C102	C	1.119695	0.021818	0.500041
C103	C	0.671974	-0.455560	0.000056
C104	C	1.171974	0.044440	0.500056
C105	C	0.775814	-0.469710	0.000076
C106	C	1.275814	0.030290	0.500076
C107	C	0.776525	-0.410313	0.000083
C108	C	1.276525	0.089687	0.500083
C109	C	0.724961	-0.373540	0.000077
C110	C	1.224961	0.126460	0.500077
C111	C	0.672685	-0.396164	0.000063
C112	C	1.172685	0.103836	0.500063
C113	C	0.568127	-0.441406	0.000027
C114	C	1.068127	0.058594	0.500027
C115	C	0.568844	-0.382004	0.000027
C116	C	1.068844	0.117996	0.500027
C117	C	0.621123	-0.359381	0.000042
C118	C	1.121123	0.140619	0.500042
C119	C	0.621832	-0.299995	0.000064
C120	C	1.121832	0.200005	0.500064
N121	N	0.674109	-0.277368	0.000071
N122	N	1.174109	0.222632	0.500071
C123	C	0.725673	-0.314141	0.000077
C124	C	1.225673	0.185859	0.500077
C125	C	0.617491	-0.662324	0.000039
C126	C	1.117491	-0.162324	0.500039
C127	C	0.616778	-0.721722	0.000044
C128	C	1.116778	-0.221722	0.500044
C129	C	0.720623	-0.735869	0.000058
C130	C	1.220623	-0.235869	0.500058
C131	C	0.721335	-0.676470	0.000058
C132	C	1.221335	-0.176470	0.500058
C133	C	0.669767	-0.639698	0.000046
C134	C	1.169767	-0.139698	0.500046
C135	C	0.727163	-0.189405	0.000093
C136	C	1.227163	0.310595	0.500093
C137	C	0.727869	-0.130003	0.000103
C138	C	1.227869	0.369997	0.500103
C139	C	0.624025	-0.115860	0.000085
C140	C	1.124025	0.384140	0.500085
C141	C	0.623318	-0.175257	0.000079
C142	C	1.123318	0.324743	0.500079
C143	C	0.674891	-0.212029	0.000080
C144	C	1.174891	0.287971	0.500080
O145	O	0.578070	-0.263215	0.000083
O146	O	1.078070	0.236785	0.500083
O147	O	0.770196	-0.289433	0.000074
O148	O	1.270196	0.210567	0.500074
C149	C	0.776472	0.069388	0.000088
C150	C	1.276472	0.569388	0.500088
C151	C	0.839689	0.070154	0.000091
C152	C	1.339689	0.570154	0.500091
C153	C	0.667577	0.178283	0.000057
C154	C	1.167577	0.678283	0.500057
C155	C	0.668343	0.241500	0.000046
C156	C	1.168343	0.741500	0.500046
N157	N	0.672306	0.074128	0.178230
N158	N	1.172306	0.574128	0.678230
N159	N	0.672346	0.074137	-0.178080
N160	N	1.172346	0.574137	0.321920
C161	C	0.711256	0.035211	0.217629
C162	C	1.211256	0.535211	0.717629
C163	C	0.711259	0.035208	0.296430
C164	C	1.211259	0.535208	0.796430
C165	C	0.672318	0.074133	0.335831
C166	C	1.172318	0.574133	0.835831
C167	C	0.633362	0.113054	0.296423
C168	C	1.133362	0.613054	0.796423
C169	C	0.633356	0.113052	0.217622
C170	C	1.133356	0.613052	0.717622
C171	C	0.664563	0.126044	0.460659
C172	C	1.164563	0.626044	0.960659
C173	C	0.664573	0.126047	0.539458
C174	C	1.164573	0.626047	1.039458
C175	C	0.672334	0.074140	0.578877
C176	C	1.172334	0.574140	1.078877
C177	C	0.680096	0.022228	0.539488
C178	C	1.180096	0.522228	1.039488
C179	C	0.680090	0.022225	0.460687
C180	C	1.180090	0.522225	0.960687
C181	C	0.672320	0.074139	0.421276
C182	C	1.172320	0.574139	0.921276
C183	C	0.711289	0.035216	0.703721
C184	C	1.211289	0.535216	1.203721
C185	C	0.711288	0.035212	0.782525
C186	C	1.211288	0.535212	1.282525
C187	C	0.633393	0.113063	0.782515
C188	C	1.133393	0.613063	1.282515
C189	C	0.633391	0.113062	0.703714
C190	C	1.133391	0.613062	1.203714
C191	C	0.672342	0.074139	0.664321
C192	C	1.172342	0.574139	1.164321
H193	H	0.486602	0.172255	0.000031
H194	H	0.986602	0.672255	0.500031
H195	H	0.246123	-0.071339	0.000132
H196	H	0.746123	0.428661	0.500132
C197	C	0.368344	0.185707	0.000045
C198	C	0.868344	0.685707	0.500045
N199	N	0.337885	0.228439	0.000033
N200	N	0.837885	0.728439	0.500033
H201	H	0.582043	-0.085909	0.000083
H202	H	1.082043	0.414091	0.500083
H203	H	0.580748	-0.193677	0.000088
H204	H	1.080748	0.306323	0.500088
C205	C	0.785383	-0.105122	0.000117
C206	C	1.285383	0.394878	0.500117
N207	N	0.828702	-0.086384	0.000125
N208	N	1.328702	0.413616	0.500125
C209	C	0.688632	-0.034875	0.582843
C210	C	1.188632	0.465125	1.082843
N211	N	0.695062	-0.077883	0.615501
N212	N	1.195062	0.422117	1.115501
C213	C	0.559267	-0.746600	0.000037
C214	C	1.059267	-0.246600	0.500037
N215	N	0.515947	-0.765335	0.000028
N216	N	1.015947	-0.265335	0.500028
H217	H	-0.167632	0.164421	0.000075
H218	H	0.332368	0.664421	0.500075
C219	C	0.590558	0.155882	0.825851
C220	C	1.090558	0.655882	1.325851
N221	N	0.558294	0.188134	0.858496
N222	N	1.058294	0.688134	1.358496
C223	C	0.398046	-0.032381	0.000078
C224	C	0.898046	0.467619	0.500078
N225	N	0.379307	-0.075699	0.000090
N226	N	0.879307	0.424301	0.500090
C227	C	0.088037	0.234355	0.000057
C228	C	0.588037	0.734355	0.500057
N229	N	0.057580	0.277088	0.000047
N230	N	0.557580	0.777088	0.500047
H231	H	0.819097	-0.391900	0.000092
H232	H	1.319097	0.108100	0.500092
C233	C	0.510614	-0.466277	0.000006
C234	C	1.010614	0.033723	0.500006
N235	N	0.467292	-0.485008	-0.000012
N236	N	0.967292	0.014992	0.499988
H237	H	-0.141947	-0.023982	0.000096
H238	H	0.358053	0.476018	0.500096
H239	H	0.742970	0.003516	0.185558
H240	H	1.242970	0.503516	0.685558
C241	C	0.832544	-0.510152	0.000091
C242	C	1.332544	-0.010152	0.500091
N243	N	0.875277	-0.540609	0.000110
N244	N	1.375277	-0.040609	0.500110
C245	C	0.778846	-0.651592	0.000067
C246	C	1.278846	-0.151592	0.500067
N247	N	0.822166	-0.632856	0.000072
N248	N	1.322166	-0.132856	0.500072
H249	H	0.512280	-0.016146	0.000069
H250	H	1.012280	0.483854	0.500069
H251	H	0.206289	0.220908	0.000044
H252	H	0.706289	0.720908	0.500044
H253	H	-0.059867	0.165717	0.000070
H254	H	0.440133	0.665717	0.500070
C255	C	0.783896	-0.229845	0.000101
C256	C	1.283896	0.270155	0.500101
N257	N	0.826628	-0.260304	0.000114
N258	N	1.326628	0.239696	0.500114
H259	H	0.601677	0.144755	0.671633
H260	H	1.101677	0.644755	1.171633
C261	C	0.560758	-0.621879	0.000035
C262	C	1.060758	-0.121879	0.500035
N263	N	0.518027	-0.591418	0.000031
N264	N	1.018027	-0.091418	0.500031
C265	C	-0.023690	-0.037431	0.000105
C266	C	0.476310	0.462569	0.500105
N267	N	0.006771	-0.080162	0.000108
N268	N	0.506771	0.419838	0.500108
C269	C	0.131912	-0.087575	0.000150
C270	C	0.631912	0.412425	0.500150
N271	N	0.113181	-0.130897	0.000180
N272	N	0.613181	0.369103	0.500180
C273	C	0.512113	-0.341557	0.000016
C274	C	1.012113	0.158443	0.500016
N275	N	0.469384	-0.311094	0.000011
N276	N	0.969384	0.188906	0.500011
H277	H	0.743003	0.003518	0.814603
H278	H	1.243003	0.503518	1.314603
H279	H	0.658255	0.168316	0.571523
H280	H	1.158255	0.668316	1.071523
H281	H	0.742977	0.003515	0.328515
H282	H	1.242977	0.503515	0.828515
C283	C	0.590531	0.155891	0.174283
C284	C	1.090531	0.655891	0.674283
N285	N	0.558284	0.188167	0.141638
N286	N	1.058284	0.688167	0.641638
H287	H	0.686410	-0.020043	0.428620
H288	H	1.186410	0.479957	0.928620
H289	H	0.658233	0.168315	0.428570
H290	H	1.158233	0.668315	0.928570
C291	C	0.754129	-0.007605	0.660387
C292	C	1.254129	0.492395	1.160387
N293	N	0.786396	-0.039860	0.627750
N294	N	1.286396	0.460140	1.127750
C295	C	0.590524	0.155869	0.339765
C296	C	1.090524	0.655869	0.839765
N297	N	0.558256	0.188117	0.372410
N298	N	1.058256	0.688117	0.872410
H299	H	0.762610	-0.765821	0.000060
H300	H	1.262610	-0.265821	0.500060
