data_functionalizedCrystal
_audit_creation_method	'MofGen! by Chris Wilmer'
_symmetry_space_group_name_H-M	'P1'
_symmetry_Int_Tables_number	1
_symmetry_cell_setting	triclinic
loop_
_symmetry_equiv_pos_as_xyz
  x,y,z
_cell_length_a	14.853567
_cell_length_b	14.853567
_cell_length_c	13.930277
_cell_angle_alpha	89.997356
_cell_angle_beta	89.996364
_cell_angle_gamma	96.365069
loop_
_atom_site_label
_atom_site_type_symbol
_atom_site_fract_x
_atom_site_fract_y
_atom_site_fract_z
O1	O	-1.196369	0.117691	0.079769
O2	O	-0.696369	0.617691	0.579769
O3	O	-0.933909	0.131713	0.079786
O4	O	-0.433909	0.631713	0.579786
O5	O	-1.072150	-0.006528	0.079766
O6	O	-0.572150	0.493472	0.579766
O7	O	-1.058128	0.255932	0.079789
O8	O	-0.558128	0.755932	0.579789
O9	O	-1.072130	-0.006506	-0.079896
O10	O	-0.572130	0.493494	0.420104
O11	O	-0.933889	0.131734	-0.079876
O12	O	-0.433889	0.631734	0.420124
O13	O	-1.196349	0.117713	-0.079893
O14	O	-0.696349	0.617713	0.420107
Zn15	Zn	-1.065116	0.124727	-0.105234
Zn16	Zn	-0.565116	0.624727	0.394766
Zn17	Zn	-1.065142	0.124699	0.105127
Zn18	Zn	-0.565142	0.624699	0.605127
O19	O	-1.058108	0.255953	-0.079873
O20	O	-0.558108	0.755953	0.420127
C21	C	-0.900311	0.131088	-0.000043
C22	C	-0.400311	0.631088	0.499957
C23	C	-0.800227	0.129184	-0.000037
C24	C	-0.300227	0.629184	0.499963
N25	N	-1.065104	0.124745	-0.248800
N26	N	-0.565104	0.624745	0.251200
C27	C	-1.229947	0.118337	-0.000062
C28	C	-0.729947	0.618337	0.499938
C29	C	-1.330031	0.120241	-0.000062
C30	C	-0.830031	0.620241	0.499938
C31	C	-0.387693	0.039019	-0.000066
C32	C	0.112307	0.539019	0.499934
C33	C	-0.366412	0.203251	-0.000051
C34	C	0.133588	0.703251	0.499949
C35	C	-0.460446	0.205042	-0.000048
C36	C	0.039554	0.705042	0.499952
C37	C	-0.518108	0.123819	-0.000052
C38	C	-0.018108	0.623819	0.499948
C39	C	-0.481736	0.040806	-0.000060
C40	C	0.018264	0.540806	0.499940
C41	C	-0.496825	0.288053	-0.000030
C42	C	0.003175	0.788053	0.499970
C43	C	-0.590864	0.289846	-0.000026
C44	C	-0.090864	0.789846	0.499974
C45	C	-0.648528	0.208623	-0.000037
C46	C	-0.148528	0.708623	0.499963
C47	C	-0.612150	0.125607	-0.000046
C48	C	-0.112150	0.625607	0.499954
C49	C	-0.669812	0.044384	-0.000051
C50	C	-0.169812	0.544384	0.499949
C51	C	-0.633437	-0.038633	-0.000067
C52	C	-0.133437	0.461367	0.499933
C53	C	-0.539399	-0.040417	-0.000072
C54	C	-0.039399	0.459583	0.499928
C55	C	-0.742565	0.210407	-0.000032
C56	C	-0.242565	0.710407	0.499968
C57	C	-0.763855	0.046172	-0.000045
C58	C	-0.263855	0.546172	0.499955
C59	C	-1.058754	0.289531	-0.000039
C60	C	-0.558754	0.789531	0.499961
C61	C	-1.060657	0.389615	-0.000030
C62	C	-0.560657	0.889615	0.499970
C63	C	-1.071504	-0.040106	-0.000066
C64	C	-0.571504	0.459894	0.499934
C65	C	-1.069601	-0.140189	-0.000068
C66	C	-0.569601	0.359811	0.499932
C67	C	-1.150823	0.802149	-0.000071
C68	C	-0.650823	1.302149	0.499929
C69	C	-0.986590	0.823430	-0.000059
C70	C	-0.486590	1.323430	0.499941
C71	C	-0.984800	0.729396	-0.000050
C72	C	-0.484800	1.229396	0.499950
C73	C	-1.066023	0.671734	-0.000052
C74	C	-0.566023	1.171734	0.499948
C75	C	-1.149036	0.708106	-0.000064
C76	C	-0.649036	1.208106	0.499936
C77	C	-0.901789	0.693017	-0.000048
C78	C	-0.401789	1.193017	0.499952
C79	C	-0.899996	0.598978	-0.000039
C80	C	-0.399996	1.098978	0.499961
C81	C	-0.981219	0.541314	-0.000035
C82	C	-0.481219	1.041314	0.499965
C83	C	-1.064235	0.577691	-0.000046
C84	C	-0.564235	1.077691	0.499954
C85	C	-1.145458	0.520029	-0.000048
C86	C	-0.645458	1.020029	0.499952
C87	C	-1.228475	0.556405	-0.000052
C88	C	-0.728475	1.056405	0.499948
C89	C	-1.230259	0.650442	-0.000060
C90	C	-0.730259	1.150442	0.499940
C91	C	-0.979435	0.447277	-0.000028
C92	C	-0.479435	0.947277	0.499972
C93	C	-1.143670	0.425987	-0.000042
C94	C	-0.643670	0.925987	0.499958
C95	C	-1.119898	0.179462	-0.701058
C96	C	-0.619898	0.679462	-0.201058
C97	C	-1.010414	0.069899	-0.701050
C98	C	-0.510414	0.569899	-0.201050
C99	C	-1.010401	0.069914	-0.600555
C100	C	-0.510401	0.569914	-0.100555
C101	C	-1.065138	0.124702	-0.550306
C102	C	-0.565138	0.624702	-0.050306
C103	C	-1.119888	0.179476	-0.600553
C104	C	-0.619888	0.679476	-0.100553
C105	C	-0.955658	0.015134	-0.550300
C106	C	-0.455658	0.515134	-0.050300
C107	C	-0.955643	0.015145	-0.449798
C108	C	-0.455643	0.515145	0.050202
C109	C	-1.010376	0.069939	-0.399548
C110	C	-0.510376	0.569939	0.100452
C111	C	-1.065128	0.124716	-0.449801
C112	C	-0.565128	0.624716	0.050199
C113	C	-1.119865	0.179505	-0.399552
C114	C	-0.619865	0.679505	0.100448
C115	C	-1.174612	0.234287	-0.449804
C116	C	-0.674612	0.734287	0.050196
C117	C	-1.174621	0.234270	-0.550302
C118	C	-0.674621	0.734270	-0.050302
C119	C	-1.010367	0.069957	-0.299049
C120	C	-0.510367	0.569957	0.200951
C121	C	-1.119855	0.179519	-0.299047
C122	C	-0.619855	0.679519	0.200953
N123	N	-1.065161	0.124673	0.248693
N124	N	-0.565161	0.624673	0.748693
H125	H	-0.810798	-0.019971	-0.000052
H126	H	-0.310798	0.480029	0.499948
Br127	Br	-0.791930	0.323063	0.000001
Br128	Br	-0.291930	0.823063	0.500001
Br129	Br	-0.711703	-0.148859	-0.000062
Br130	Br	-0.211703	0.351141	0.499938
Br131	Br	-0.791565	0.771274	-0.000050
Br132	Br	-0.291565	1.271274	0.499950
H133	H	-1.294606	0.509444	-0.000060
H134	H	-0.794606	1.009444	0.499940
Br135	Br	-1.248911	0.308614	-0.618505
Br136	Br	-0.748911	0.808614	-0.118505
H137	H	-1.297847	0.680068	-0.000088
H138	H	-0.797847	1.180068	0.499912
H139	H	-1.164470	0.224067	-0.741977
H140	H	-0.664470	0.724067	-0.241977
Br141	Br	-0.787333	0.549619	-0.000030
Br142	Br	-0.287333	1.049619	0.499970
Br143	Br	-0.866779	0.397912	-0.000036
Br144	Br	-0.366779	0.897912	0.499964
H145	H	-1.164424	0.224140	-0.258142
H146	H	-0.664424	0.724140	0.241858
Br147	Br	-0.490027	-0.153073	-0.000090
Br148	Br	0.009973	0.346927	0.499910
H149	H	-0.965856	0.025287	-0.741969
H150	H	-0.465856	0.525287	-0.241969
H151	H	-1.219183	0.278892	-0.408878
H152	H	-0.719183	0.778892	0.091122
Br153	Br	-0.640223	0.402509	-0.000004
Br154	Br	-0.140223	0.902509	0.499996
Br155	Br	-0.936094	-0.004405	-0.230854
Br156	Br	-0.436094	0.495595	0.269146
Br157	Br	-0.881377	-0.059217	-0.618498
Br158	Br	-0.381377	0.440783	-0.118498
H159	H	-0.358072	-0.028572	-0.000083
H160	H	0.141928	0.471428	0.499917
Br161	Br	-0.881329	-0.059184	-0.381608
Br162	Br	-0.381329	0.440816	0.118392
H163	H	-0.449870	0.354180	-0.000016
H164	H	0.050130	0.854180	0.499984
Br165	Br	-1.253907	0.347738	-0.000034
Br166	Br	-0.753907	0.847738	0.499966
Br167	Br	-1.263484	0.851511	-0.000066
Br168	Br	-0.763484	1.351511	0.499934
H169	H	-0.319459	0.269379	-0.000039
H170	H	0.180541	0.769379	0.499961
H171	H	-0.920463	0.870383	-0.000063
H172	H	-0.420463	1.370383	0.499937
