data_functionalizedCrystal
_audit_creation_method	'MofGen! by Chris Wilmer'
_symmetry_space_group_name_H-M	'P1'
_symmetry_Int_Tables_number	1
_symmetry_cell_setting	triclinic
loop_
_symmetry_equiv_pos_as_xyz
  x,y,z
_cell_length_a	18.101398
_cell_length_b	25.639234
_cell_length_c	18.101397
_cell_angle_alpha	89.977192
_cell_angle_beta	90.015323
_cell_angle_gamma	89.988672
loop_
_atom_site_label
_atom_site_type_symbol
_atom_site_fract_x
_atom_site_fract_y
_atom_site_fract_z
Zn1	Zn	1.132191	-0.295498	-0.294963
Zn2	Zn	1.132108	-0.208066	-0.418798
Zn3	Zn	1.008346	-0.208090	-0.294965
Zn4	Zn	1.008325	-0.295483	-0.418757
O5	O	1.070243	-0.251784	-0.356871
O6	O	1.235813	-0.283897	-0.311406
O7	O	1.115665	-0.134904	-0.402389
O8	O	1.024818	-0.219701	-0.191332
O9	O	1.235752	-0.219660	-0.402387
O10	O	1.115806	-0.283920	-0.191330
O11	O	1.024738	-0.134922	-0.311410
O12	O	0.904711	-0.219687	-0.311370
O13	O	1.024782	-0.368651	-0.402317
O14	O	0.904695	-0.283894	-0.402320
O15	O	1.115786	-0.368662	-0.311366
O16	O	1.115644	-0.219646	-0.522425
O17	O	1.024701	-0.283871	-0.522395
C18	C	0.877832	-0.251792	-0.356842
C19	C	0.795518	-0.251807	-0.356847
C20	C	0.496427	-0.251785	-0.356890
C21	C	0.527767	-0.291984	-0.414390
C22	C	0.613385	-0.292149	-0.414210
C23	C	0.644809	-0.251796	-0.356870
C24	C	0.613740	-0.266854	-0.278869
C25	C	0.528095	-0.267140	-0.279215
C26	C	0.527976	-0.196433	-0.376703
C27	C	0.613626	-0.196729	-0.378415
C28	C	0.728669	-0.251802	-0.356853
C29	C	0.412567	-0.251781	-0.356902
C30	C	1.070291	-0.388158	-0.356837
C31	C	1.070311	-0.446272	-0.356822
C32	C	1.022986	-0.806649	-0.309361
C33	C	1.022990	-0.861254	-0.309348
O34	O	0.982716	-0.889503	-0.269076
N35	N	1.070336	-0.888554	-0.356706
C36	C	1.117675	-0.861248	-0.404087
O37	O	1.157946	-0.889483	-0.444368
C38	C	1.117667	-0.806644	-0.404103
C39	C	1.070323	-0.779347	-0.356736
C40	C	0.975646	-0.779352	-0.261999
C41	C	0.975643	-0.724751	-0.262012
C42	C	1.022981	-0.697448	-0.309387
C43	C	1.070321	-0.724746	-0.356749
C44	C	1.165002	-0.779338	-0.451487
C45	C	1.164989	-0.724731	-0.451499
C46	C	1.117646	-0.697434	-0.404133
C47	C	1.117655	-0.642843	-0.404137
N48	N	1.070309	-0.615542	-0.356778
C49	C	1.022972	-0.642845	-0.309403
C50	C	1.117688	-0.975918	-0.404049
C51	C	1.117700	-1.030521	-0.404029
C52	C	1.023014	-1.030523	-0.309291
C53	C	1.023006	-0.975920	-0.309308
C54	C	1.070342	-0.948618	-0.356691
C55	C	1.022970	-0.528180	-0.309433
C56	C	1.022974	-0.473574	-0.309447
C57	C	1.117657	-0.473577	-0.404188
C58	C	1.117656	-0.528177	-0.404171
C59	C	1.070307	-0.555478	-0.356791
O60	O	1.157907	-0.614559	-0.444390
O61	O	0.982701	-0.614603	-0.269135
C62	C	1.263404	-0.251777	-0.356900
C63	C	1.345718	-0.251774	-0.356913
C64	C	1.070181	-0.251766	-0.549281
C65	C	1.070223	-0.251775	-0.631595
C66	C	1.070237	-0.115942	-0.356851
C67	C	1.070360	-0.057828	-0.356657
C68	C	1.070268	-0.251793	-0.782304
C69	C	1.127543	-0.211423	-0.813645
C70	C	1.127401	-0.211275	-0.899264
C71	C	1.070314	-0.251810	-0.930686
C72	C	0.992211	-0.236988	-0.899662
C73	C	0.992516	-0.236685	-0.814017
C74	C	1.090423	-0.307090	-0.813807
C75	C	1.092171	-0.306805	-0.899457
C76	C	1.070335	-0.251821	-1.014546
C77	C	1.070242	-0.251781	-0.698444
C78	C	1.070324	-0.251815	-0.163709
C79	C	1.070359	-0.251828	-0.081395
H80	H	0.506373	-0.182749	-0.432608
Cl81	Cl	0.645167	-0.223064	-0.210928
H82	H	0.507708	-0.166481	-0.334821
H83	H	0.937089	-0.702530	-0.223443
H84	H	0.974875	-0.197020	-0.921160
H85	H	1.156215	-0.550404	-0.442732
Cl86	Cl	0.646873	-0.328650	-0.252451
H87	H	0.984415	-0.550401	-0.270851
H88	H	1.156200	-0.451337	-0.442757
Cl89	Cl	1.177230	-1.064831	-0.463569
Cl90	Cl	1.180906	-0.324071	-0.930765
H91	H	1.185309	-0.220532	-0.920238
Cl92	Cl	1.217212	-0.225545	-0.781784
H93	H	1.146391	-0.320601	-0.792158
H94	H	1.114058	-0.170307	-0.919798
Cl95	Cl	1.032510	-0.355724	-0.932475
H96	H	0.506256	-0.332759	-0.401448
Cl97	Cl	0.924545	-0.280995	-0.931087
Cl98	Cl	1.026033	-0.353529	-0.782497
H99	H	0.633941	-0.185372	-0.435812
H100	H	0.633887	-0.333162	-0.401101
Cl101	Cl	0.646645	-0.148002	-0.318446
Cl102	Cl	1.107176	-0.148523	-0.780490
H103	H	0.984456	-0.953698	-0.270737
Cl104	Cl	0.963453	-0.439261	-0.249895
H105	H	0.937095	-0.801576	-0.223420
Cl106	Cl	0.963503	-1.064857	-0.249735
H107	H	1.203541	-0.702505	-0.490080
Cl108	Cl	1.177209	-0.941601	-0.463615
Cl109	Cl	1.224517	-0.813642	-0.511044
H110	H	0.975463	-0.196268	-0.794089
H111	H	0.634392	-0.282712	-0.472052
H112	H	0.507163	-0.282652	-0.472421
H113	H	0.508132	-0.307605	-0.262409
Cl114	Cl	0.496083	-0.223910	-0.210830
Cl115	Cl	0.924368	-0.280115	-0.782006
