data_functionalizedCrystal
_audit_creation_method	'MofGen! by Chris Wilmer'
_symmetry_space_group_name_H-M	'P1'
_symmetry_Int_Tables_number	1
_symmetry_cell_setting	triclinic
loop_
_symmetry_equiv_pos_as_xyz
  x,y,z
_cell_length_a	12.645331
_cell_length_b	12.645330
_cell_length_c	16.120297
_cell_angle_alpha	87.123238
_cell_angle_beta	87.114961
_cell_angle_gamma	90.016927
loop_
_atom_site_label
_atom_site_type_symbol
_atom_site_fract_x
_atom_site_fract_y
_atom_site_fract_z
Zn1	Zn	1.590320	-0.452473	0.471265
Zn2	Zn	2.090320	0.047527	0.971265
Zn3	Zn	1.599197	-0.620763	0.331863
Zn4	Zn	2.099197	-0.120763	0.831863
Zn5	Zn	1.422029	-0.443513	0.331884
Zn6	Zn	1.922029	0.056487	0.831884
Zn7	Zn	1.413017	-0.629691	0.471247
Zn8	Zn	1.913017	-0.129691	0.971247
O9	O	1.506141	-0.536610	0.401565
O10	O	2.006141	-0.036610	0.901565
O11	O	1.739844	-0.474810	0.452772
O12	O	2.239844	0.025190	0.952772
O13	O	1.583182	-0.589763	0.215202
O14	O	2.083182	-0.089763	0.715202
O15	O	1.444409	-0.296355	0.350389
O16	O	1.944409	0.203645	0.850389
O17	O	1.746367	-0.598452	0.350354
O18	O	2.246367	-0.098452	0.850354
O19	O	1.568052	-0.302938	0.452792
O20	O	2.068052	0.197062	0.952792
O21	O	1.453017	-0.459538	0.215217
O22	O	1.953017	0.040462	0.715217
O23	O	1.272486	-0.468196	0.350371
O24	O	1.772486	0.031804	0.850371
O25	O	1.429050	-0.613670	0.587913
O26	O	1.929050	-0.113670	1.087913
O27	O	1.265865	-0.604981	0.452761
O28	O	1.765865	-0.104981	0.952761
O29	O	1.559313	-0.483468	0.587926
O30	O	2.059313	0.016532	1.087926
O31	O	1.574444	-0.770293	0.350337
O32	O	2.074444	-0.270293	0.850337
O33	O	1.437658	-0.776853	0.452741
O34	O	1.937658	-0.276853	0.952741
C35	C	1.230711	-0.536586	0.401567
C36	C	1.730711	-0.036586	0.901567
C37	C	1.112879	-0.536603	0.401587
C38	C	1.612879	-0.036603	0.901587
C39	C	1.506064	-0.812039	0.401553
C40	C	2.006064	-0.312039	0.901553
C41	C	1.506126	-0.929870	0.401576
C42	C	2.006126	-0.429870	0.901576
C43	C	1.420399	-1.101618	0.466197
C44	C	1.920399	-0.601618	0.966197
C45	C	1.419996	-0.979045	0.465989
C46	C	1.919996	-0.479045	0.965989
C47	C	1.481551	-0.968793	0.313718
C48	C	1.981551	-0.468793	0.813718
C49	C	1.481028	-1.091417	0.314110
C50	C	1.981028	-0.591417	0.814110
C51	C	1.616974	-1.098415	0.424100
C52	C	2.116974	-0.598415	0.924100
C53	C	1.616162	-0.975932	0.426021
C54	C	2.116162	-0.475932	0.926021
C55	C	0.941207	-0.623081	0.465665
C56	C	1.441207	-0.123081	0.965665
C57	C	1.063750	-0.622833	0.465933
C58	C	1.563750	-0.122833	0.965933
C59	C	1.066852	-0.426497	0.425590
C60	C	1.566852	0.073503	0.925590
C61	C	0.944225	-0.427029	0.426041
C62	C	1.444225	0.072971	0.926041
C63	C	0.951331	-0.559317	0.313304
C64	C	1.451331	-0.059317	0.813304
C65	C	1.073906	-0.561790	0.313780
C66	C	1.573906	-0.061790	0.813780
C67	C	1.782646	-0.536635	0.401563
C68	C	2.282646	-0.036635	0.901563
C69	C	1.900476	-0.536645	0.401562
C70	C	2.400476	-0.036645	0.901562
C71	C	1.492186	-0.550565	0.619015
C72	C	1.992186	-0.050565	1.119015
C73	C	1.486240	-0.556511	0.711680
C74	C	1.986240	-0.056511	1.211680
C75	C	1.506245	-0.260107	0.401595
C76	C	2.006245	0.239893	0.901595
C77	C	1.506290	-0.142277	0.401607
C78	C	2.006290	0.357723	0.901607
C79	C	1.520102	-0.522633	0.184960
C80	C	2.020102	-0.022633	0.684960
C81	C	1.526254	-0.516388	0.092296
C82	C	2.026254	-0.016388	0.592296
C83	C	1.475344	-0.567345	0.881339
C84	C	1.975344	-0.067345	1.381339
C85	C	1.537146	-0.505558	0.922642
C86	C	2.037146	-0.005558	1.422642
C87	C	1.531084	-0.511585	1.017046
C88	C	2.031084	-0.011585	1.517046
C89	C	1.481405	-0.561318	0.786926
C90	C	1.981405	-0.061318	1.286926
H91	H	1.434715	-0.953097	0.531136
H92	H	1.934715	-0.453097	1.031136
C93	C	0.902657	-0.734010	0.445578
C94	C	1.402657	-0.234010	0.945578
H95	H	0.861369	-0.728607	0.397922
H96	H	1.361369	-0.228607	0.897922
H97	H	0.961999	-0.778219	0.434862
H98	H	1.461999	-0.278219	0.934862
H99	H	0.860792	-0.763633	0.491559
H100	H	1.360792	-0.263633	0.991559
H101	H	0.921817	-0.637939	0.291487
H102	H	1.421817	-0.137939	0.791487
C103	C	1.614784	-0.427987	0.874642
C104	C	2.114784	0.072013	1.374642
H105	H	1.652760	-0.390010	0.912973
H106	H	2.152760	0.109990	1.412973
H107	H	1.663092	-0.466422	0.840678
H108	H	2.163092	0.033578	1.340678
H109	H	1.576387	-0.379659	0.840668
H110	H	2.076387	0.120341	1.340668
C111	C	0.916295	-0.474182	0.248776
C112	C	1.416295	0.025818	0.748776
H113	H	0.947283	-0.488300	0.195573
H114	H	1.447283	0.011700	0.695573
H115	H	0.841349	-0.475251	0.246825
H116	H	1.341349	0.024749	0.746825
H117	H	0.938655	-0.406468	0.264121
H118	H	1.438655	0.093532	0.764121
C119	C	1.310076	-1.142064	0.446324
C120	C	1.810076	-0.642064	0.946324
H121	H	1.316132	-1.183618	0.398833
H122	H	1.816132	-0.683618	0.898833
H123	H	1.281067	-1.184039	0.492466
H124	H	1.781067	-0.684039	0.992466
H125	H	1.264971	-1.083476	0.435394
H126	H	1.764971	-0.583476	0.935394
H127	H	1.417886	-0.624765	0.916876
H128	H	1.917886	-0.124765	1.416876
H129	H	1.640500	-1.133325	0.487077
H130	H	2.140500	-0.633325	0.987077
H131	H	1.104157	-0.642783	0.295677
H132	H	1.604157	-0.142783	0.795677
C133	C	0.899992	-0.400163	0.513203
C134	C	1.399992	0.099837	1.013203
H135	H	0.956988	-0.389033	0.548005
H136	H	1.456988	0.110967	1.048005
H137	H	0.858421	-0.337740	0.509063
H138	H	1.358421	0.162260	1.009063
H139	H	0.857294	-0.457162	0.536325
H140	H	1.357294	0.042838	1.036325
C141	C	1.439928	-1.147179	0.554475
C142	C	1.939928	-0.647179	1.054475
H143	H	1.500643	-1.191397	0.552738
H144	H	2.000643	-0.691397	1.052738
H145	H	1.451129	-1.090843	0.589889
H146	H	1.951129	-0.590843	1.089889
H147	H	1.380032	-1.187468	0.575252
H148	H	1.880032	-0.687468	1.075252
H149	H	1.337825	-0.948848	0.451088
H150	H	1.837825	-0.448848	0.951088
H151	H	1.542376	-0.936444	0.264279
H152	H	2.042376	-0.436444	0.764279
C153	C	1.706557	-0.930732	0.367101
C154	C	2.206557	-0.430732	0.867101
H155	H	1.772041	-0.959907	0.383333
H156	H	2.272041	-0.459907	0.883333
H157	H	1.694638	-0.948496	0.311770
H158	H	2.194638	-0.448496	0.811770
H159	H	1.708769	-0.855901	0.369859
H160	H	2.208769	-0.355901	0.869859
H161	H	0.917419	-0.360637	0.381493
H162	H	1.417419	0.139363	0.881493
H163	H	1.088879	-0.608280	0.531329
H164	H	1.588879	-0.108280	1.031329
H165	H	1.400285	-1.118877	0.295055
H166	H	1.900285	-0.618877	0.795055
C167	C	1.562265	-1.127148	0.246873
C168	C	2.062265	-0.627148	0.746873
H169	H	1.595435	-1.066726	0.219435
H170	H	2.095435	-0.566726	0.719435
H171	H	1.614260	-1.170449	0.272107
H172	H	2.114260	-0.670449	0.772107
H173	H	1.527202	-1.166297	0.207580
H174	H	2.027202	-0.666297	0.707580
C175	C	1.703307	-1.133364	0.360495
C176	C	2.203307	-0.633364	0.860495
H177	H	1.672111	-1.174500	0.320431
H178	H	2.172111	-0.674500	0.820431
H179	H	1.736285	-1.072597	0.333446
H180	H	2.236285	-0.572597	0.833446
H181	H	1.754770	-1.174549	0.388351
H182	H	2.254770	-0.674549	0.888351
C183	C	1.110126	-0.337461	0.364484
C184	C	1.610126	0.162539	0.864484
H185	H	1.081277	-0.271592	0.380140
H186	H	1.581277	0.228408	0.880140
H187	H	1.185101	-0.334891	0.365766
H188	H	1.685101	0.165109	0.865766
H189	H	1.090672	-0.350967	0.309841
H190	H	1.590672	0.149033	0.809841
C191	C	0.894081	-0.603631	0.553519
C192	C	1.394081	-0.103631	1.053519
H193	H	0.919126	-0.656175	0.591869
H194	H	1.419126	-0.156175	1.091869
H195	H	0.915049	-0.535610	0.569188
H196	H	1.415049	-0.035610	1.069188
H197	H	0.819021	-0.607100	0.553707
H198	H	1.319021	-0.107100	1.053707
C199	C	1.373653	-0.925767	0.287512
C200	C	1.873653	-0.425767	0.787512
H201	H	1.343444	-0.884088	0.329988
H202	H	1.843444	-0.384088	0.829988
H203	H	1.383217	-0.883402	0.237340
H204	H	1.883217	-0.383402	0.737340
H205	H	1.327720	-0.983278	0.279058
H206	H	1.827720	-0.483278	0.779058
H207	H	1.094793	-0.704660	0.450890
H208	H	1.594793	-0.204660	0.950890
C209	C	1.102760	-0.398975	0.511818
C210	C	1.602760	0.101025	1.011818
H211	H	1.145783	-0.454432	0.533306
H212	H	1.645783	0.045568	1.033306
H213	H	1.142238	-0.334848	0.506949
H214	H	1.642238	0.165152	1.006949
H215	H	1.042394	-0.390692	0.548408
H216	H	1.542394	0.109308	1.048408
H217	H	1.634798	-0.950956	0.490680
H218	H	2.134798	-0.450956	0.990680
H219	H	1.107770	-0.502948	0.263457
H220	H	1.607770	-0.002948	0.763457
