data_functionalizedCrystal
_audit_creation_method	'MofGen! by Chris Wilmer'
_symmetry_space_group_name_H-M	'P1'
_symmetry_Int_Tables_number	1
_symmetry_cell_setting	triclinic
loop_
_symmetry_equiv_pos_as_xyz
  x,y,z
_cell_length_a	11.169417
_cell_length_b	14.908520
_cell_length_c	11.169409
_cell_angle_alpha	93.260433
_cell_angle_beta	89.979436
_cell_angle_gamma	93.321403
loop_
_atom_site_label
_atom_site_type_symbol
_atom_site_fract_x
_atom_site_fract_y
_atom_site_fract_z
Zn1	Zn	1.807307	-0.359063	-0.706060
Zn2	Zn	1.795569	-0.509955	-0.516941
Zn3	Zn	1.606586	-0.359118	-0.505398
Zn4	Zn	1.594981	-0.509882	-0.717580
O5	O	1.701111	-0.434504	-0.611495
O6	O	1.973699	-0.379087	-0.680982
O7	O	1.770444	-0.490000	-0.347464
O8	O	1.642982	-0.232867	-0.522365
O9	O	1.965075	-0.489947	-0.542037
O10	O	1.790451	-0.232826	-0.669790
O11	O	1.631600	-0.379180	-0.338984
O12	O	1.437098	-0.379109	-0.533535
O13	O	1.623202	-0.489822	-0.883997
O14	O	1.428571	-0.489875	-0.689424
O15	O	1.779198	-0.379016	-0.875534
O16	O	1.759191	-0.636189	-0.553207
O17	O	1.611820	-0.636135	-0.700616
C18	C	1.389287	-0.434491	-0.611478
C19	C	1.255886	-0.434507	-0.611501
C20	C	1.683005	-0.668896	-0.629440
C21	C	1.675369	-0.769170	-0.637158
C22	C	1.814635	-0.957589	-0.498287
C23	C	1.807464	-1.051806	-0.505534
C24	C	1.653864	-1.051820	-0.658905
C25	C	1.661034	-0.957603	-0.651658
C26	C	1.741422	-0.910492	-0.571345
C27	C	1.748585	-0.816274	-0.564092
C28	C	1.594991	-0.816290	-0.717468
C29	C	1.587821	-0.910506	-0.724716
C30	C	2.014152	-0.434519	-0.611512
C31	C	2.147552	-0.434525	-0.611519
C32	C	1.701215	-0.434404	-0.924530
C33	C	1.701259	-0.434362	-1.057926
C34	C	1.719320	-0.199198	-0.593505
C35	C	1.727080	-0.098924	-0.585839
C36	C	1.701082	-0.434539	-0.299673
C37	C	1.701289	-0.434327	-0.166257
H38	H	1.880081	-0.919230	-0.432884
N39	N	1.567168	-1.102641	-0.745522
H40	H	1.587013	-1.086182	-0.830026
H41	H	1.573783	-1.169455	-0.738922
H42	H	1.867085	-1.090149	-0.446045
N43	N	1.501123	-0.961321	-0.811336
H44	H	1.507688	-1.028154	-0.804843
H45	H	1.416668	-0.944921	-0.791307
N46	N	1.516014	-0.765488	-0.796264
H47	H	1.567730	-0.726329	-0.848917
H48	H	1.464015	-0.809689	-0.848161
N49	N	1.835282	-0.765457	-0.477472
H50	H	1.880577	-0.809593	-0.432295
H51	H	1.893774	-0.726300	-0.523370
