data_functionalizedCrystal
_audit_creation_method	'MofGen! by Chris Wilmer'
_symmetry_space_group_name_H-M	'P1'
_symmetry_Int_Tables_number	1
_symmetry_cell_setting	triclinic
loop_
_symmetry_equiv_pos_as_xyz
  x,y,z
_cell_length_a	12.759401
_cell_length_b	16.625546
_cell_length_c	12.759393
_cell_angle_alpha	89.963806
_cell_angle_beta	89.981504
_cell_angle_gamma	90.022629
loop_
_atom_site_label
_atom_site_type_symbol
_atom_site_fract_x
_atom_site_fract_y
_atom_site_fract_z
Zn1	Zn	1.606199	-0.320951	-0.593948
Zn2	Zn	2.106199	0.179049	-0.093948
Zn3	Zn	1.606069	-0.455807	-0.418253
Zn4	Zn	2.106069	0.044193	0.081747
Zn5	Zn	1.430501	-0.320993	-0.418287
Zn6	Zn	1.930501	0.179007	0.081713
Zn7	Zn	1.430465	-0.455745	-0.593895
Zn8	Zn	1.930465	0.044255	-0.093895
O9	O	1.518308	-0.388374	-0.506096
O10	O	2.018308	0.111626	-0.006096
O11	O	1.753203	-0.338848	-0.570649
O12	O	2.253203	0.161152	-0.070649
O13	O	1.582740	-0.437968	-0.271237
O14	O	2.082740	0.062032	0.228763
O15	O	1.453876	-0.208155	-0.441625
O16	O	1.953876	0.291845	0.058375
O17	O	1.753107	-0.437927	-0.441568
O18	O	2.253107	0.062073	0.058432
O19	O	1.582961	-0.208124	-0.570682
O20	O	2.082961	0.291876	-0.070682
O21	O	1.453751	-0.338920	-0.271261
O22	O	1.953751	0.161080	0.228739
O23	O	1.283475	-0.338860	-0.441574
O24	O	1.783475	0.161140	0.058426
O25	O	1.453816	-0.437821	-0.740923
O26	O	1.953816	0.062179	-0.240923
O27	O	1.283449	-0.437862	-0.570592
O28	O	1.783449	0.062138	-0.070592
O29	O	1.582927	-0.338788	-0.740962
O30	O	2.082927	0.161212	-0.240962
O31	O	1.582706	-0.568632	-0.441517
O32	O	2.082706	-0.068632	0.058483
O33	O	1.453691	-0.568586	-0.570560
O34	O	1.953691	-0.068586	-0.070560
C35	C	1.245341	-0.388359	-0.506081
C36	C	1.745341	0.111641	-0.006081
C37	C	1.128564	-0.388372	-0.506100
C38	C	1.628564	0.111628	-0.006100
C39	C	1.518209	-0.597865	-0.506052
C40	C	2.018209	-0.097865	-0.006052
C41	C	1.518263	-0.687486	-0.506068
C42	C	2.018263	-0.187486	-0.006068
C43	C	1.073717	-0.440005	-0.573169
C44	C	1.573717	0.059995	-0.073169
C45	C	0.963992	-0.440015	-0.573180
C46	C	1.463992	0.059985	-0.073180
C47	C	0.963974	-0.336758	-0.439045
C48	C	1.463974	0.163242	0.060955
C49	C	1.073696	-0.336744	-0.439040
C50	C	1.573696	0.163256	0.060960
C51	C	1.128585	-0.491634	-0.640229
C52	C	1.628585	0.008366	-0.140229
C53	C	1.073737	-0.543271	-0.707303
C54	C	1.573737	-0.043271	-0.207303
C55	C	0.964013	-0.543282	-0.707314
C56	C	1.464013	-0.043282	-0.207314
C57	C	0.909137	-0.491654	-0.640252
C58	C	1.409137	0.008346	-0.140252
C59	C	1.518446	-1.015662	-0.506177
C60	C	2.018446	-0.515662	-0.006177
C61	C	1.518392	-0.924353	-0.506150
C62	C	2.018392	-0.424353	-0.006150
C63	C	1.518353	-0.851577	-0.506122
C64	C	2.018353	-0.351577	-0.006122
C65	C	1.518301	-0.760262	-0.506096
C66	C	2.018301	-0.260262	-0.006096
C67	C	1.792342	-0.388390	-0.506111
C68	C	2.292342	0.111610	-0.006111
C69	C	1.909118	-0.388396	-0.506117
C70	C	2.409118	0.111604	-0.006117
C71	C	1.518382	-0.388293	-0.780129
C72	C	2.018382	0.111707	-0.280129
C73	C	1.518413	-0.388258	-0.896906
C74	C	2.018413	0.111742	-0.396906
C75	C	1.518437	-0.178065	-0.506163
C76	C	2.018437	0.321935	-0.006163
C77	C	1.518492	-0.088444	-0.506191
C78	C	2.018492	0.411556	-0.006191
C79	C	1.585650	-0.336687	-0.951790
C80	C	2.085650	0.163313	-0.451790
C81	C	1.585675	-0.336657	-1.061514
C82	C	2.085675	0.163343	-0.561514
C83	C	1.451223	-0.439778	-1.061461
C84	C	1.951223	0.060222	-0.561461
C85	C	1.451194	-0.439803	-0.951739
C86	C	1.951194	0.060197	-0.451739
C87	C	1.652870	-0.285142	-0.896957
C88	C	2.152870	0.214858	-0.396957
C89	C	1.720113	-0.233567	-0.951841
C90	C	2.220113	0.266433	-0.451841
C91	C	1.720138	-0.233538	-1.061565
C92	C	2.220138	0.266462	-0.561565
C93	C	1.652920	-0.285084	-1.116405
C94	C	2.152920	0.214916	-0.616405
C95	C	1.518296	-0.388397	-0.233128
C96	C	2.018296	0.111603	0.266872
C97	C	1.518468	-0.388204	-0.116352
C98	C	2.018468	0.111796	0.383648
H99	H	1.118424	-0.585299	-0.761909
H100	H	1.618424	-0.085299	-0.261909
O101	O	1.652836	-0.285172	-0.778613
O102	O	2.152836	0.214828	-0.278613
H103	H	1.710866	-0.240663	-0.749702
H104	H	2.210866	0.259337	-0.249702
O105	O	0.904849	-0.599057	-0.779541
O106	O	1.404849	-0.099057	-0.279541
H107	H	0.961440	-0.634988	-0.826121
H108	H	1.461440	-0.134988	-0.326121
O109	O	1.792606	-0.177970	-0.892699
O110	O	2.292606	0.322030	-0.392699
H111	H	1.875057	-0.191797	-0.913770
H112	H	2.375057	0.308203	-0.413770
O113	O	0.790790	-0.491670	-0.640249
O114	O	1.290790	0.008330	-0.140249
H115	H	0.761867	-0.536253	-0.698146
H116	H	1.261867	-0.036253	-0.198146
H117	H	1.217928	-0.491633	-0.640226
H118	H	1.717928	0.008367	-0.140226
O119	O	0.904794	-0.281098	-0.366688
O120	O	1.404794	0.218902	0.133312
H121	H	0.819283	-0.289794	-0.377944
H122	H	1.319283	0.210206	0.122056
H123	H	1.118354	-0.294694	-0.384435
H124	H	1.618354	0.205306	0.115565
H125	H	1.774883	-0.191537	-1.106249
H126	H	2.274883	0.308463	-0.606249
O127	O	1.652941	-0.285055	-1.234752
O128	O	2.152941	0.214945	-0.734752
H129	H	1.710991	-0.240536	-1.263707
H130	H	2.210991	0.259464	-0.763707
H131	H	1.396497	-0.481744	-1.106120
H132	H	1.896497	0.018256	-0.606120
H133	H	1.396427	-0.481784	-0.907051
H134	H	1.896427	0.018216	-0.407051
