data_functionalizedCrystal
_audit_creation_method	'MofGen! by Chris Wilmer'
_symmetry_space_group_name_H-M	'P1'
_symmetry_Int_Tables_number	1
_symmetry_cell_setting	triclinic
loop_
_symmetry_equiv_pos_as_xyz
  x,y,z
_cell_length_a	16.974829
_cell_length_b	16.053802
_cell_length_c	19.288865
_cell_angle_alpha	92.551370
_cell_angle_beta	96.732854
_cell_angle_gamma	96.228883
loop_
_atom_site_label
_atom_site_type_symbol
_atom_site_fract_x
_atom_site_fract_y
_atom_site_fract_z
O1	O	1.055614	0.140761	-0.082619
O2	O	1.555614	0.640761	0.417381
O3	O	0.824616	0.125157	-0.094547
O4	O	1.324616	0.625157	0.405453
O5	O	0.946789	0.133393	0.012554
O6	O	1.446789	0.633393	0.512554
O7	O	0.933441	0.132525	-0.189719
O8	O	1.433441	0.632525	0.310281
O9	O	0.940064	-0.005919	0.006683
O10	O	1.440064	0.494081	0.506683
O11	O	0.817891	-0.014156	-0.100418
O12	O	1.317891	0.485844	0.399582
O13	O	1.048890	0.001449	-0.088489
O14	O	1.548890	0.501449	0.411511
Zn15	Zn	0.932323	-0.028472	-0.095386
Zn16	Zn	1.432323	0.471528	0.404614
Zn17	Zn	0.941183	0.155078	-0.087651
Zn18	Zn	1.441183	0.655078	0.412349
O19	O	0.926716	-0.006788	-0.195590
O20	O	1.426716	0.493212	0.304410
C21	C	0.791700	0.053504	-0.097137
C22	C	1.291700	0.553504	0.402863
C23	C	0.703642	0.047555	-0.096099
C24	C	1.203642	0.547555	0.403901
C25	C	0.207567	0.005914	-0.090625
C26	C	0.707567	0.505914	0.409375
C27	C	0.290308	0.011506	-0.091600
C28	C	0.790308	0.511506	0.408400
C29	C	0.335345	0.090242	-0.088881
C30	C	0.835345	0.590242	0.411119
C31	C	0.297636	0.163392	-0.085195
C32	C	0.797636	0.663392	0.414805
C33	C	0.214896	0.157799	-0.084225
C34	C	0.714896	0.657799	0.415775
C35	C	0.583193	0.115111	-0.091443
C36	C	1.083193	0.615111	0.408557
C37	C	0.665939	0.120698	-0.092411
C38	C	1.165939	0.620698	0.407589
C39	C	0.658605	-0.031188	-0.098817
C40	C	1.158605	0.468812	0.401183
C41	C	0.575864	-0.036773	-0.097842
C42	C	1.075864	0.463227	0.402158
C43	C	0.538162	0.036376	-0.094160
C44	C	1.038162	0.536376	0.405840
N45	N	0.419919	0.095960	-0.089876
N46	N	0.919919	0.595960	0.410124
N47	N	0.453588	0.030657	-0.093171
N48	N	0.953588	0.530657	0.406829
N49	N	0.926282	-0.153740	-0.100664
N50	N	1.426282	0.346260	0.399336
C51	C	0.978285	-0.193928	-0.055109
C52	C	1.478285	0.306072	0.444891
C53	C	0.974067	-0.281619	-0.058808
C54	C	1.474067	0.218381	0.441192
C55	C	0.917848	-0.329120	-0.108066
C56	C	1.417848	0.170880	0.391934
C57	C	0.865839	-0.288927	-0.153624
C58	C	1.365839	0.211073	0.346376
C59	C	0.870054	-0.201237	-0.149921
C60	C	1.370054	0.298763	0.350079
C61	C	0.899436	-0.591771	-0.124221
C62	C	1.399436	-0.091771	0.375779
C63	C	0.895226	-0.679466	-0.127922
C64	C	1.395226	-0.179466	0.372078
C65	C	1.003454	-0.672153	-0.033105
C66	C	1.503454	-0.172153	0.466895
C67	C	1.007667	-0.584462	-0.029409
C68	C	1.507667	-0.084462	0.470591
C69	C	0.955655	-0.544276	-0.074964
C70	C	1.455655	-0.044276	0.425036
N71	N	0.913537	-0.418755	-0.111850
N72	N	1.413537	0.081245	0.388150
N73	N	0.959963	-0.454643	-0.071177
N74	N	1.459963	0.045357	0.428823
C75	C	1.081805	0.073103	-0.085899
C76	C	1.581805	0.573103	0.414101
C77	C	1.169864	0.079058	-0.086937
C78	C	1.669864	0.579058	0.413063
C79	C	0.942997	0.063706	0.035494
C80	C	1.442997	0.563706	0.535494
C81	C	0.941707	0.063611	0.112596
C82	C	1.441707	0.563611	0.612596
N83	N	0.947230	0.280346	-0.082366
N84	N	1.447230	0.780346	0.417634
C85	C	0.930508	0.062902	-0.218530
C86	C	1.430508	0.562902	0.281470
C87	C	0.931799	0.063002	-0.295632
C88	C	1.431799	0.563002	0.204368
C89	C	1.013393	0.068450	0.157367
C90	C	1.513393	0.568450	0.657367
C91	C	1.012182	0.068381	0.229813
C92	C	1.512182	0.568381	0.729813
C93	C	0.939281	0.063457	0.257485
C94	C	1.439281	0.563457	0.757485
C95	C	0.867586	0.058622	0.212705
C96	C	1.367586	0.558622	0.712705
C97	C	0.868799	0.058700	0.140261
C98	C	1.368799	0.558700	0.640261
C99	C	0.879616	0.010787	0.363657
C100	C	1.379616	0.510787	0.863657
C101	C	0.878406	0.010705	0.436100
C102	C	1.378406	0.510705	0.936100
C103	C	0.935536	0.063223	0.480928
C104	C	1.435536	0.563223	0.980928
C105	C	0.993890	0.115812	0.453304
C106	C	1.493890	0.615812	0.953304
C107	C	0.995103	0.115889	0.380860
C108	C	1.495103	0.615889	0.880860
C109	C	0.937957	0.063373	0.336038
C110	C	1.437957	0.563373	0.836038
C111	C	1.005914	0.067988	0.604253
C112	C	1.505914	0.567988	1.104253
C113	C	1.004701	0.067925	0.676701
C114	C	1.504701	0.567925	1.176701
C115	C	0.860102	0.058157	0.659591
C116	C	1.360102	0.558157	1.159591
C117	C	0.861318	0.058230	0.587145
C118	C	1.361318	0.558230	1.087145
C119	C	0.934226	0.063141	0.559481
C120	C	1.434226	0.563141	1.059481
H121	H	0.334311	0.227501	-0.082986
H122	H	0.834311	0.727501	0.417014
H123	H	1.016412	-0.314339	-0.021713
H124	H	1.516412	0.185661	0.478287
Br125	Br	1.083967	-0.519994	0.037439
Br126	Br	1.583967	-0.019994	0.537439
Br127	Br	0.761162	0.051483	0.697138
Br128	Br	1.261162	0.551483	1.197138
H129	H	0.184199	0.217361	-0.081224
H130	H	0.684199	0.717361	0.418776
Br131	Br	0.532036	0.214386	-0.086443
Br132	Br	1.032036	0.714386	0.413557
Br133	Br	1.109477	0.074952	0.290585
Br134	Br	1.609477	0.574952	0.790585
Br135	Br	0.764024	0.051662	0.526381
Br136	Br	1.264024	0.551662	1.026381
H137	H	0.857087	-0.559059	-0.161315
H138	H	1.357087	-0.059059	0.338685
H139	H	1.045799	-0.704880	0.003985
H140	H	1.545799	-0.204880	0.503985
H141	H	1.040411	0.158577	0.489802
H142	H	1.540411	0.658577	0.989802
Br143	Br	0.709775	-0.130456	-0.103818
Br144	Br	1.209775	0.369544	0.396182
H145	H	0.830887	-0.032111	0.458584
H146	H	1.330887	0.467889	0.958584
Br147	Br	0.727061	0.227562	-0.088720
Br148	Br	1.227061	0.727562	0.411280
H149	H	0.849444	-0.718139	-0.168037
H150	H	1.349444	-0.218139	0.331963
Br151	Br	0.514746	-0.143634	-0.101547
Br152	Br	1.014746	0.356366	0.398453
H153	H	0.833091	-0.031983	0.327162
H154	H	1.333091	0.468017	0.827162
H155	H	1.024068	-0.155257	-0.015001
H156	H	1.524068	0.344743	0.484999
H157	H	1.042615	0.158711	0.358372
H158	H	1.542615	0.658711	0.858372
H159	H	0.820060	-0.327608	-0.193729
H160	H	1.320060	0.172392	0.306271
H161	H	0.827706	-0.168517	-0.187016
H162	H	1.327706	0.331483	0.312984
H163	H	1.072761	0.072452	0.134848
H164	H	1.572761	0.572452	0.634848
H165	H	1.065281	0.071991	0.581728
H166	H	1.565281	0.571991	1.081728
Br167	Br	0.771503	0.052135	0.079496
Br168	Br	1.271503	0.552135	0.579496
H169	H	1.063079	0.071869	0.713153
H170	H	1.563079	0.571869	1.213153
H171	H	0.170903	-0.058201	-0.092841
H172	H	0.670903	0.441799	0.407159
H173	H	0.321002	-0.048056	-0.094601
H174	H	0.821002	0.451944	0.405399
Br175	Br	0.768647	0.051950	0.250258
Br176	Br	1.268647	0.551950	0.750258
