data_functionalizedCrystal
_audit_creation_method	'MofGen! by Chris Wilmer'
_symmetry_space_group_name_H-M	'P1'
_symmetry_Int_Tables_number	1
_symmetry_cell_setting	triclinic
loop_
_symmetry_equiv_pos_as_xyz
  x,y,z
_cell_length_a	15.624953
_cell_length_b	19.288865
_cell_length_c	18.366186
_cell_angle_alpha	90.011479
_cell_angle_beta	108.076319
_cell_angle_gamma	96.285124
loop_
_atom_site_label
_atom_site_type_symbol
_atom_site_fract_x
_atom_site_fract_y
_atom_site_fract_z
O1	O	1.195844	-0.090649	0.255264
O2	O	0.933325	-0.101460	0.185931
O3	O	1.072170	0.005051	0.222615
O4	O	1.056999	-0.197159	0.218580
O5	O	1.072147	0.005056	0.343708
O6	O	0.933302	-0.101454	0.307024
O7	O	1.195820	-0.090644	0.376357
Zn8	Zn	1.064557	-0.096048	0.360917
Zn9	Zn	1.064588	-0.096055	0.201371
O10	O	1.056976	-0.197154	0.339673
C11	C	0.899728	-0.100969	0.237607
C12	C	0.799654	-0.099505	0.211177
C13	C	1.229418	-0.091135	0.324679
C14	C	1.329492	-0.092599	0.351104
C15	C	1.470536	-0.094660	0.454354
C16	C	1.376501	-0.093284	0.429516
C17	C	1.376508	-0.093293	0.297500
C18	C	1.470544	-0.094672	0.322327
C19	C	1.517551	-0.095355	0.400755
C20	C	1.517559	-0.095367	0.268728
C21	C	1.611588	-0.096742	0.293553
C22	C	1.658602	-0.097423	0.371978
C23	C	1.611580	-0.096730	0.425580
C24	C	1.470551	-0.094679	0.190300
C25	C	1.517566	-0.095373	0.136701
C26	C	1.611596	-0.096754	0.161526
C27	C	1.658610	-0.097435	0.239951
C28	C	1.658618	-0.097447	0.107924
C29	C	1.752647	-0.098822	0.132749
C30	C	1.752639	-0.098810	0.264776
C31	C	1.071670	0.030931	0.283035
C32	C	1.070205	0.108040	0.282654
C33	C	1.057476	-0.223035	0.279251
C34	C	1.058941	-0.300143	0.279627
N35	N	1.064543	-0.096043	0.469804
C36	C	1.151673	0.152463	0.304174
C37	C	1.150296	0.224915	0.303799
C38	C	1.067447	0.252940	0.281918
C39	C	0.985968	0.208506	0.260391
C40	C	0.987347	0.136056	0.260759
C41	C	1.002310	0.361447	0.307133
C42	C	1.000934	0.433896	0.306770
C43	C	1.063190	0.476400	0.280777
C44	C	1.126837	0.446447	0.255161
C45	C	1.128216	0.373997	0.255529
C46	C	1.065943	0.331499	0.281515
C47	C	1.143171	0.599384	0.301891
C48	C	1.141791	0.671837	0.301510
C49	C	0.977461	0.655427	0.258108
C50	C	0.978843	0.582976	0.258482
C51	C	1.061701	0.554959	0.280377
N52	N	1.064610	-0.096055	0.092486
C53	C	1.126043	-0.048904	0.524154
C54	C	1.126049	-0.048901	0.600383
C55	C	1.064563	-0.096049	0.622262
C56	C	1.003051	-0.143192	0.567900
C57	C	1.003041	-0.143189	0.491671
C58	C	1.052495	-0.159296	0.739826
C59	C	1.052511	-0.159300	0.816055
C60	C	1.064589	-0.096058	0.857376
C61	C	1.076669	-0.032809	0.822464
C62	C	1.076659	-0.032806	0.746235
C63	C	1.064567	-0.096057	0.704918
C64	C	1.126099	-0.048911	0.994383
C65	C	1.126098	-0.048907	1.070612
C66	C	1.003104	-0.143204	1.038129
C67	C	1.003100	-0.143202	0.961901
C68	C	1.064602	-0.096056	0.940033
H69	H	1.790913	-0.099377	0.328639
C70	C	1.193713	0.002936	0.500105
H71	H	1.184914	-0.003822	0.446925
H72	H	1.184149	0.049315	0.510075
H73	H	1.253838	-0.004721	0.528474
H74	H	1.735166	-0.098542	0.392189
H75	H	0.912503	0.546804	0.240962
C76	C	1.663297	-0.097461	0.511851
H77	H	1.621833	-0.096841	0.540221
H78	H	1.692954	-0.138461	0.522433
H79	H	1.707004	-0.057511	0.526122
C80	C	1.242812	0.121649	0.328245
H81	H	1.291135	0.158487	0.341001
H82	H	1.246762	0.093733	0.371517
H83	H	1.246771	0.093722	0.287054
H84	H	1.338222	-0.092733	0.233644
C85	C	1.522253	-0.095390	0.540625
H86	H	1.480789	-0.094771	0.568995
H87	H	1.551910	-0.136391	0.551207
H88	H	1.565960	-0.055441	0.554896
C89	C	0.935400	-0.195042	0.591956
H90	H	0.898759	-0.223110	0.548663
H91	H	0.967693	-0.224009	0.630213
H92	H	0.897987	-0.169986	0.611818
H93	H	0.921004	0.099886	0.243235
C94	C	1.193704	0.002953	0.660178
H95	H	1.230332	0.031029	0.636237
H96	H	1.161402	0.031912	0.681399
H97	H	1.231129	-0.022095	0.699781
H98	H	1.338222	-0.092735	0.473168
H99	H	0.949105	0.458277	0.327623
H100	H	1.790927	-0.099391	0.089103
H101	H	0.910003	0.678243	0.240288
H102	H	1.216639	0.261092	0.321321
C103	C	0.933823	0.314699	0.335725
H104	H	0.895730	0.342914	0.350938
H105	H	0.897965	0.282794	0.295671
H106	H	0.965528	0.289558	0.378219
C107	C	1.195318	0.493190	0.226562
H108	H	1.185376	0.540628	0.230000
H109	H	1.255189	0.487280	0.257289
H110	H	1.187622	0.480508	0.174743
H111	H	1.208135	0.708007	0.319031
C112	C	1.465856	-0.094636	0.050435
H113	H	1.507326	-0.095247	0.022069
H114	H	1.422139	-0.134574	0.036154
H115	H	1.436213	-0.053624	0.039859
C116	C	1.606907	-0.096701	0.021658
H117	H	1.648376	-0.097310	-0.006709
H118	H	1.563186	-0.136637	0.007372
H119	H	1.577268	-0.055687	0.011089
C120	C	1.367123	-0.093154	0.162989
H121	H	1.345864	-0.092834	0.108605
H122	H	1.338799	-0.133311	0.179883
H123	H	1.352903	-0.052361	0.183621
C124	C	1.198213	0.341049	0.227344
H125	H	1.235092	0.376734	0.211804
H126	H	1.235146	0.316425	0.267684
H127	H	1.167577	0.309669	0.185138
H128	H	1.210639	0.576572	0.319716
H129	H	0.918512	0.231329	0.242573
H130	H	1.086493	0.018694	0.717812
C131	C	1.089948	0.036762	0.867904
H132	H	1.088212	0.027705	0.918300
H133	H	1.146903	0.061456	0.870452
H134	H	1.042905	0.064041	0.843000
H135	H	1.176176	-0.010517	1.114866
H136	H	1.176175	-0.010520	0.976578
H137	H	0.953037	-0.181591	1.055941
C138	C	0.935467	-0.195068	0.902115
H139	H	0.944266	-0.188313	0.853582
H140	H	0.945075	-0.241436	0.917134
H141	H	0.875329	-0.187444	0.898735
C142	C	1.039229	-0.228870	0.854454
H143	H	1.032020	-0.266534	0.818925
H144	H	1.090728	-0.232799	0.897776
H145	H	0.986732	-0.230201	0.870338
H146	H	1.042644	-0.210799	0.706184
H147	H	0.952959	-0.181576	0.447417
