data_functionalizedCrystal
_audit_creation_method	'MofGen! by Chris Wilmer'
_symmetry_space_group_name_H-M	'P1'
_symmetry_Int_Tables_number	1
_symmetry_cell_setting	triclinic
loop_
_symmetry_equiv_pos_as_xyz
  x,y,z
_cell_length_a	13.897447
_cell_length_b	25.639242
_cell_length_c	13.897441
_cell_angle_alpha	89.968225
_cell_angle_beta	90.029327
_cell_angle_gamma	89.985811
loop_
_atom_site_label
_atom_site_type_symbol
_atom_site_fract_x
_atom_site_fract_y
_atom_site_fract_z
Zn1	Zn	-0.384121	-0.799339	0.545674
Zn2	Zn	-0.134121	-0.549339	0.795674
Zn3	Zn	0.115879	-0.299339	1.045674
Zn4	Zn	0.365879	-0.049339	1.295674
Zn5	Zn	-0.545443	-0.799278	0.384379
Zn6	Zn	-0.295443	-0.549278	0.634379
Zn7	Zn	-0.045443	-0.299278	0.884379
Zn8	Zn	0.204557	-0.049278	1.134379
Zn9	Zn	-0.384149	-0.711902	0.384361
Zn10	Zn	-0.134149	-0.461902	0.634361
Zn11	Zn	0.115851	-0.211902	0.884361
Zn12	Zn	0.365851	0.038098	1.134361
Zn13	Zn	-0.545361	-0.711889	0.545600
Zn14	Zn	-0.295361	-0.461889	0.795600
Zn15	Zn	-0.045361	-0.211889	1.045600
Zn16	Zn	0.204639	0.038111	1.295600
O17	O	-0.464769	-0.755602	0.465003
O18	O	-0.214769	-0.505602	0.715003
O19	O	0.035231	-0.255602	0.965003
O20	O	0.285231	-0.005602	1.215003
O21	O	-0.405544	-0.872496	0.524316
O22	O	-0.155544	-0.622496	0.774316
O23	O	0.094456	-0.372496	1.024316
O24	O	0.344456	-0.122496	1.274316
O25	O	-0.524093	-0.787668	0.249395
O26	O	-0.274093	-0.537668	0.499395
O27	O	-0.024093	-0.287668	0.749395
O28	O	0.225907	-0.037668	0.999395
O29	O	-0.249164	-0.723531	0.405783
O30	O	0.000836	-0.473531	0.655783
O31	O	0.250836	-0.223531	0.905783
O32	O	0.500836	0.026469	1.155783
O33	O	-0.524066	-0.872451	0.405813
O34	O	-0.274066	-0.622451	0.655813
O35	O	-0.024066	-0.372451	0.905813
O36	O	0.225934	-0.122451	1.155813
O37	O	-0.249143	-0.787770	0.524299
O38	O	0.000857	-0.537770	0.774299
O39	O	0.250857	-0.287770	1.024299
O40	O	0.500857	-0.037770	1.274299
O41	O	-0.405591	-0.723473	0.249382
O42	O	-0.155591	-0.473473	0.499382
O43	O	0.094409	-0.223473	0.749382
O44	O	0.344409	0.026527	0.999382
O45	O	-0.405511	-0.638735	0.405712
O46	O	-0.155511	-0.388735	0.655712
O47	O	0.094489	-0.138735	0.905712
O48	O	0.344489	0.111265	1.155712
O49	O	-0.523927	-0.723509	0.680592
O50	O	-0.273927	-0.473509	0.930592
O51	O	-0.023927	-0.223509	1.180592
O52	O	0.226073	0.026491	1.430592
O53	O	-0.523953	-0.638726	0.524173
O54	O	-0.273953	-0.388726	0.774173
O55	O	-0.023953	-0.138726	1.024173
O56	O	0.226047	0.111274	1.274173
O57	O	-0.405465	-0.787758	0.680646
O58	O	-0.155465	-0.537758	0.930646
O59	O	0.094535	-0.287758	1.180646
O60	O	0.344535	-0.037758	1.430646
O61	O	-0.680414	-0.787655	0.405742
O62	O	-0.430414	-0.537655	0.655742
O63	O	-0.180414	-0.287655	0.905742
O64	O	0.069586	-0.037655	1.155742
O65	O	-0.680354	-0.723451	0.524191
O66	O	-0.430354	-0.473451	0.774191
O67	O	-0.180354	-0.223451	1.024191
O68	O	0.069646	0.026549	1.274191
C69	C	-0.464727	-0.619759	0.464933
C70	C	-0.214727	-0.369759	0.714933
C71	C	0.035273	-0.119759	0.964933
C72	C	0.285273	0.130241	1.214933
C73	C	-0.464732	-0.561645	0.464926
C74	C	-0.214732	-0.311645	0.714926
C75	C	0.035268	-0.061645	0.964926
C76	C	0.285268	0.188355	1.214926
C77	C	-0.402989	-0.310448	0.403403
C78	C	-0.152989	-0.060448	0.653403
C79	C	0.097011	0.189552	0.903403
C80	C	0.347011	0.439552	1.153403
C81	C	-0.402981	-0.365052	0.403393
C82	C	-0.152981	-0.115052	0.653393
C83	C	0.097019	0.134948	0.903393
C84	C	0.347019	0.384948	1.153393
O85	O	-0.350430	-0.393286	0.351043
O86	O	-0.100430	-0.143286	0.601043
O87	O	0.149570	0.106714	0.851043
O88	O	0.399570	0.356714	1.101043
N89	N	-0.464743	-0.392371	0.464965
N90	N	-0.214743	-0.142371	0.714965
N91	N	0.035257	0.107629	0.964965
N92	N	0.285257	0.357629	1.214965
C93	C	-0.526510	-0.365084	0.526557
C94	C	-0.276510	-0.115084	0.776557
C95	C	-0.026510	0.134916	1.026557
C96	C	0.223490	0.384916	1.276557
O97	O	-0.579042	-0.393335	0.578929
O98	O	-0.329042	-0.143335	0.828929
O99	O	-0.079042	0.106665	1.078929
O100	O	0.170958	0.356665	1.328929
C101	C	-0.526513	-0.310480	0.526571
C102	C	-0.276513	-0.060480	0.776571
C103	C	-0.026513	0.189520	1.026571
C104	C	0.223487	0.439520	1.276571
C105	C	-0.464754	-0.283164	0.464988
C106	C	-0.214754	-0.033164	0.714988
C107	C	0.035246	0.216836	0.964988
C108	C	0.285246	0.466836	1.214988
C109	C	-0.341235	-0.283132	0.341826
C110	C	-0.091235	-0.033132	0.591826
C111	C	0.158765	0.216868	0.841826
C112	C	0.408765	0.466868	1.091826
C113	C	-0.341245	-0.228531	0.341834
C114	C	-0.091245	0.021469	0.591834
C115	C	0.158755	0.271469	0.841834
C116	C	0.408755	0.521469	1.091834
C117	C	-0.403009	-0.201247	0.403419
C118	C	-0.153009	0.048753	0.653419
C119	C	0.096991	0.298753	0.903419
C120	C	0.346991	0.548753	1.153419
C121	C	-0.464764	-0.228563	0.464996
C122	C	-0.214764	0.021437	0.714996
C123	C	0.035236	0.271437	0.964996
C124	C	0.285236	0.521437	1.214996
C125	C	-0.588275	-0.283193	0.588167
C126	C	-0.338275	-0.033193	0.838167
C127	C	-0.088275	0.216807	1.088167
C128	C	0.161725	0.466807	1.338167
C129	C	-0.588272	-0.228586	0.588176
C130	C	-0.338272	0.021414	0.838176
C131	C	-0.088272	0.271414	1.088176
C132	C	0.161728	0.521414	1.338176
C133	C	-0.526513	-0.201270	0.526593
C134	C	-0.276513	0.048730	0.776593
C135	C	-0.026513	0.298730	1.026593
C136	C	0.223487	0.548730	1.276593
C137	C	-0.526539	-0.146679	0.526590
C138	C	-0.276539	0.103321	0.776590
C139	C	-0.026539	0.353321	1.026590
C140	C	0.223461	0.603321	1.276590
N141	N	-0.464777	-0.119359	0.465018
N142	N	-0.214777	0.130641	0.715018
N143	N	0.035223	0.380641	0.965018
N144	N	0.285223	0.630641	1.215018
C145	C	-0.403012	-0.146644	0.403433
C146	C	-0.153012	0.103356	0.653433
C147	C	0.096988	0.353356	0.903433
C148	C	0.346988	0.603356	1.153433
C149	C	-0.526498	-0.479754	0.526526
C150	C	-0.276498	-0.229754	0.776526
C151	C	-0.026498	0.020246	1.026526
C152	C	0.223502	0.270246	1.276526
C153	C	-0.526501	-0.534356	0.526508
C154	C	-0.276501	-0.284356	0.776508
C155	C	-0.026501	-0.034356	1.026508
C156	C	0.223499	0.215644	1.276508
C157	C	-0.402970	-0.534321	0.403345
C158	C	-0.152970	-0.284321	0.653345
C159	C	0.097030	-0.034321	0.903345
C160	C	0.347030	0.215679	1.153345
C161	C	-0.402973	-0.479718	0.403359
C162	C	-0.152973	-0.229718	0.653359
C163	C	0.097027	0.020282	0.903359
C164	C	0.347027	0.270282	1.153359
C165	C	-0.464736	-0.452435	0.464954
C166	C	-0.214736	-0.202435	0.714954
C167	C	0.035264	0.047565	0.964954
C168	C	0.285264	0.297565	1.214954
C169	C	-0.403039	-0.031979	0.403454
C170	C	-0.153039	0.218021	0.653454
C171	C	0.096961	0.468021	0.903454
C172	C	0.346961	0.718021	1.153454
C173	C	-0.403057	0.022627	0.403465
C174	C	-0.153057	0.272627	0.653465
C175	C	0.096943	0.522627	0.903465
C176	C	0.346943	0.772627	1.153465
C177	C	-0.526584	0.022587	0.526631
C178	C	-0.276584	0.272587	0.776631
C179	C	-0.026584	0.522587	1.026631
C180	C	0.223416	0.772587	1.276631
C181	C	-0.526570	-0.032013	0.526617
C182	C	-0.276570	0.217987	0.776617
C183	C	-0.026570	0.467987	1.026617
C184	C	0.223430	0.717987	1.276617
C185	C	-0.464789	-0.059295	0.465025
C186	C	-0.214789	0.190705	0.715025
C187	C	0.035211	0.440705	0.965025
C188	C	0.285211	0.690705	1.215025
O189	O	-0.579060	-0.118411	0.578916
O190	O	-0.329060	0.131589	0.828916
O191	O	-0.079060	0.381589	1.078916
O192	O	0.170940	0.631589	1.328916
O193	O	-0.350480	-0.118386	0.351079
O194	O	-0.100480	0.131614	0.601079
O195	O	0.149520	0.381614	0.851079
O196	O	0.399520	0.631614	1.101079
C197	C	-0.715383	-0.755559	0.464981
C198	C	-0.465383	-0.505559	0.714981
C199	C	-0.215383	-0.255559	0.964981
C200	C	0.034617	-0.005559	1.214981
C201	C	-0.822597	-0.755589	0.465004
C202	C	-0.572597	-0.505589	0.715004
C203	C	-0.322597	-0.255589	0.965004
C204	C	-0.072597	-0.005589	1.215004
C205	C	-0.909667	-0.755614	0.465026
C206	C	-0.659667	-0.505614	0.715026
C207	C	-0.409667	-0.255614	0.965026
C208	C	-0.159667	-0.005614	1.215026
C209	C	-1.018899	-0.755651	0.465051
C210	C	-0.768899	-0.505651	0.715051
C211	C	-0.518899	-0.255651	0.965051
C212	C	-0.268899	-0.005651	1.215051
C213	C	-0.213176	-0.755659	0.465047
C214	C	0.036824	-0.505659	0.715047
C215	C	0.286824	-0.255659	0.965047
C216	C	0.536824	-0.005659	1.215047
C217	C	-0.105962	-0.755683	0.465066
C218	C	0.144038	-0.505683	0.715066
C219	C	0.394038	-0.255683	0.965066
C220	C	0.644038	-0.005683	1.215066
C221	C	-0.464683	-0.755639	0.716597
C222	C	-0.214683	-0.505639	0.966597
C223	C	0.035317	-0.255639	1.216597
C224	C	0.285317	-0.005639	1.466597
C225	C	-0.464647	-0.755655	0.823811
C226	C	-0.214647	-0.505655	1.073811
C227	C	0.035353	-0.255655	1.323811
C228	C	0.285353	-0.005655	1.573811
C229	C	-0.464809	0.108025	0.465061
C230	C	-0.214809	0.358025	0.715061
C231	C	0.035191	0.608025	0.965061
C232	C	0.285191	0.858025	1.215061
C233	C	-0.464822	0.049911	0.465050
C234	C	-0.214822	0.299911	0.715050
C235	C	0.035178	0.549911	0.965050
C236	C	0.285178	0.799911	1.215050
C237	C	-0.464784	-0.755595	0.214389
C238	C	-0.214784	-0.505595	0.464389
C239	C	0.035216	-0.255595	0.714389
C240	C	0.285216	-0.005595	0.964389
C241	C	-0.464549	-0.755681	0.107176
C242	C	-0.214549	-0.505681	0.357176
C243	C	0.035451	-0.255681	0.607176
C244	C	0.285451	-0.005681	0.857176
C245	C	-0.464582	-0.755669	1.020106
C246	C	-0.214582	-0.505669	1.270106
C247	C	0.035418	-0.255669	1.520106
C248	C	0.285418	-0.005669	1.770106
C249	C	-0.464621	-0.755660	0.910873
C250	C	-0.214621	-0.505660	1.160873
C251	C	0.035379	-0.255660	1.410873
C252	C	0.285379	-0.005660	1.660873
H253	H	-0.576874	0.044812	0.576769
H254	H	-0.326874	0.294812	0.826769
H255	H	-0.076874	0.544812	1.076769
H256	H	0.173126	0.794812	1.326769
Cl257	Cl	-0.665919	-0.317520	0.665592
Cl258	Cl	-0.415919	-0.067520	0.915592
Cl259	Cl	-0.165919	0.182480	1.165592
Cl260	Cl	0.084081	0.432480	1.415592
Cl261	Cl	-0.325373	-0.066267	0.326021
Cl262	Cl	-0.075373	0.183733	0.576021
Cl263	Cl	0.174627	0.433733	0.826021
Cl264	Cl	0.424627	0.683733	1.076021
H265	H	-0.638565	-0.206375	0.638338
H266	H	-0.388565	0.043625	0.888338
H267	H	-0.138565	0.293625	1.138338
H268	H	0.111435	0.543625	1.388338
H269	H	-0.352680	-0.457481	0.353216
H270	H	-0.102680	-0.207481	0.603216
H271	H	0.147320	0.042519	0.853216
H272	H	0.397320	0.292519	1.103216
Cl273	Cl	-0.263575	-0.317422	0.264395
Cl274	Cl	-0.013575	-0.067422	0.514395
Cl275	Cl	0.236425	0.182578	0.764395
Cl276	Cl	0.486425	0.432578	1.014395
H277	H	-0.576866	-0.054256	0.576755
H278	H	-0.326866	0.195744	0.826755
H279	H	-0.076866	0.445744	1.076755
H280	H	0.173134	0.695744	1.326755
Cl281	Cl	-0.325321	-0.568632	0.325924
Cl282	Cl	-0.075321	-0.318632	0.575924
Cl283	Cl	0.174679	-0.068632	0.825924
Cl284	Cl	0.424679	0.181368	1.075924
H285	H	-0.290954	-0.206295	0.291687
H286	H	-0.040954	0.043705	0.541687
H287	H	0.209046	0.293705	0.791687
H288	H	0.459046	0.543705	1.041687
H289	H	-0.576802	-0.556593	0.576645
H290	H	-0.326802	-0.306593	0.826645
H291	H	-0.076802	-0.056593	1.076645
H292	H	0.173198	0.193407	1.326645
H293	H	-0.352764	0.044865	0.353314
H294	H	-0.102764	0.294865	0.603314
H295	H	0.147236	0.544865	0.853314
H296	H	0.397236	0.794865	1.103314
Cl297	Cl	-0.604160	-0.445461	0.603959
Cl298	Cl	-0.354160	-0.195461	0.853959
Cl299	Cl	-0.104160	0.054539	1.103959
Cl300	Cl	0.145840	0.304539	1.353959
