data_functionalizedCrystal
_audit_creation_method	'MofGen! by Chris Wilmer'
_symmetry_space_group_name_H-M	'P1'
_symmetry_Int_Tables_number	1
_symmetry_cell_setting	triclinic
loop_
_symmetry_equiv_pos_as_xyz
  x,y,z
_cell_length_a	11.026607
_cell_length_b	14.044220
_cell_length_c	9.482900
_cell_angle_alpha	100.188801
_cell_angle_beta	78.636152
_cell_angle_gamma	100.887447
loop_
_atom_site_label
_atom_site_type_symbol
_atom_site_fract_x
_atom_site_fract_y
_atom_site_fract_z
O1	O	1.671574	0.392560	-0.120918
O2	O	1.313283	0.346512	-0.120917
O3	O	1.487049	0.230635	-0.120903
O4	O	1.497809	0.508437	-0.120932
O5	O	1.451766	0.254293	0.120886
O6	O	1.278001	0.370170	0.120872
O7	O	1.636292	0.416218	0.120871
Cu8	Cu	1.453925	0.395354	0.142949
Cu9	Cu	1.495650	0.367376	-0.142995
O10	O	1.462526	0.532095	0.120857
C11	C	1.249512	0.349846	-0.000022
C12	C	1.112056	0.324521	-0.000022
C13	C	1.045821	0.394445	-0.000030
C14	C	0.903753	0.368273	-0.000029
C15	C	1.464699	0.206346	-0.000008
C16	C	1.450655	0.098724	-0.000006
C17	C	1.424983	-0.098320	-0.000027
C18	C	1.524588	-0.138958	-0.000032
C19	C	1.510304	-0.248600	-0.000043
C20	C	1.439266	0.011332	-0.000015
C21	C	1.700064	0.412884	-0.000027
C22	C	1.837521	0.438207	-0.000037
C23	C	1.484876	0.556383	-0.000041
C24	C	1.498922	0.664004	-0.000053
N25	N	1.424586	0.415033	0.344067
N26	N	1.524998	0.347690	-0.344113
C27	C	1.486988	0.373174	0.416271
C28	C	1.462587	0.389556	0.583687
H29	H	1.094290	0.473686	-0.000030
H30	H	1.620606	-0.091415	-0.000129
O31	O	1.310538	-0.155175	0.000044
C32	C	1.321579	-0.253574	-0.000000
H33	H	1.408874	-0.256160	0.045762
H34	H	1.329530	-0.293982	-0.115999
C35	C	1.097760	-0.299808	0.038628
C36	C	1.204972	-0.302983	0.094844
H37	H	1.025830	-0.330289	0.097126
H38	H	1.090320	-0.233516	0.038651
H39	H	1.104403	-0.333480	-0.058038
H40	H	1.198335	-0.269302	0.191500
H41	H	1.212408	-0.369272	0.094839
H42	H	1.391089	0.437521	0.645805
H43	H	1.596487	0.299716	0.593768
O44	O	1.572158	0.315903	0.341978
C45	C	1.512092	0.236535	0.253939
H46	H	1.422887	0.256425	0.231337
H47	H	1.487288	0.169401	0.312466
C48	C	1.710054	0.189230	0.137000
C49	C	1.600495	0.213662	0.109229
H50	H	1.764585	0.175117	0.047738
H51	H	1.750522	0.242699	0.196317
H52	H	1.689367	0.133288	0.185776
H53	H	1.621182	0.269610	0.060471
H54	H	1.560032	0.160202	0.049900
O55	O	0.895207	0.532766	-0.000246
C56	C	0.878853	0.566718	-0.125499
H57	H	0.792612	0.521131	-0.167242
H58	H	0.965045	0.559611	-0.213185
C59	C	0.966976	0.730975	-0.036213
C60	C	0.861047	0.674990	-0.087475
H61	H	0.955998	0.797764	-0.012761
H62	H	0.977999	0.708102	0.048170
H63	H	1.038792	0.725043	-0.109293
H64	H	0.789236	0.680914	-0.014388
H65	H	0.850012	0.697867	-0.171845
O66	O	1.339125	0.472126	0.418104
C67	C	1.220354	0.432151	0.381018
H68	H	1.217193	0.350626	0.339084
H69	H	1.202813	0.470971	0.292787
C70	C	1.122465	0.546301	0.567844
C71	C	1.118578	0.446169	0.516351
H72	H	1.059683	0.554952	0.651320
H73	H	1.202483	0.573236	0.592826
H74	H	1.107851	0.578640	0.494305
H75	H	1.133208	0.413835	0.589883
H76	H	1.038560	0.419229	0.491384
O77	O	0.845928	0.273721	-0.000279
C78	C	0.789765	0.242673	-0.125484
H79	H	0.838584	0.289754	-0.213013
H80	H	0.686385	0.250474	-0.097172
C81	C	0.742161	0.076795	-0.074753
C82	C	0.802128	0.134615	-0.182263
H83	H	0.749781	0.010139	-0.109775
H84	H	0.779994	0.097712	0.009603
H85	H	0.656016	0.083307	-0.051170
H86	H	0.888274	0.128112	-0.205832
H87	H	0.764309	0.113694	-0.266625
H88	H	1.063591	0.245278	-0.000051
