data_functionalizedCrystal
_audit_creation_method	'MofGen! by Chris Wilmer'
_symmetry_space_group_name_H-M	'P1'
_symmetry_Int_Tables_number	1
_symmetry_cell_setting	triclinic
loop_
_symmetry_equiv_pos_as_xyz
  x,y,z
_cell_length_a	12.827893
_cell_length_b	12.827892
_cell_length_c	17.077396
_cell_angle_alpha	90.025067
_cell_angle_beta	90.017613
_cell_angle_gamma	90.015552
loop_
_atom_site_label
_atom_site_type_symbol
_atom_site_fract_x
_atom_site_fract_y
_atom_site_fract_z
Zn1	Zn	1.597652	-0.416029	0.443822
Zn2	Zn	1.930986	-0.082695	0.777155
Zn3	Zn	2.264319	0.250638	1.110488
Zn4	Zn	1.597552	-0.590791	0.312564
Zn5	Zn	1.930885	-0.257458	0.645897
Zn6	Zn	2.264218	0.075876	0.979230
Zn7	Zn	1.422899	-0.416065	0.312574
Zn8	Zn	1.756232	-0.082732	0.645907
Zn9	Zn	2.089566	0.250602	0.979241
Zn10	Zn	1.422879	-0.590729	0.443792
Zn11	Zn	1.756212	-0.257395	0.777125
Zn12	Zn	2.089546	0.075938	1.110458
O13	O	1.510246	-0.503403	0.378188
O14	O	1.843579	-0.170070	0.711521
O15	O	2.176912	0.163263	1.044854
O16	O	1.743875	-0.439222	0.426418
O17	O	2.077208	-0.105889	0.759752
O18	O	2.410542	0.227445	1.093085
O19	O	1.574350	-0.567655	0.202718
O20	O	1.907683	-0.234321	0.536051
O21	O	2.241016	0.099012	0.869385
O22	O	1.446131	-0.269824	0.330001
O23	O	1.779464	0.063509	0.663335
O24	O	2.112798	0.396842	0.996668
O25	O	1.743801	-0.567619	0.329984
O26	O	2.077134	-0.234286	0.663317
O27	O	2.410468	0.099048	0.996650
O28	O	1.574522	-0.269797	0.426429
O29	O	1.907855	0.063536	0.759762
O30	O	2.241188	0.396869	1.093095
O31	O	1.446033	-0.439284	0.202726
O32	O	1.779366	-0.105951	0.536059
O33	O	2.112700	0.227383	0.869392
O34	O	1.276660	-0.439224	0.329972
O35	O	1.609994	-0.105890	0.663305
O36	O	1.943327	0.227443	0.996639
O37	O	1.446097	-0.567513	0.553643
O38	O	1.779430	-0.234180	0.886976
O39	O	2.112764	0.099154	1.220309
O40	O	1.276646	-0.567548	0.426377
O41	O	1.609979	-0.234215	0.759710
O42	O	1.943312	0.099118	1.093044
O43	O	1.574502	-0.439162	0.553665
O44	O	1.907836	-0.105828	0.886998
O45	O	2.241169	0.227505	1.220331
O46	O	1.574330	-0.737019	0.329954
O47	O	1.907664	-0.403685	0.663288
O48	O	2.240997	-0.070352	0.996621
O49	O	1.445999	-0.736973	0.426367
O50	O	1.779333	-0.403640	0.759700
O51	O	2.112666	-0.070306	1.093034
C52	C	1.238736	-0.503384	0.378173
C53	C	1.572069	-0.170051	0.711506
C54	C	1.905402	0.163283	1.044839
C55	C	1.122583	-0.503401	0.378185
C56	C	1.455916	-0.170068	0.711518
C57	C	1.789249	0.163266	1.044852
C58	C	0.950717	-0.566854	0.330416
C59	C	1.284050	-0.233521	0.663750
C60	C	1.617384	0.099812	0.997083
C61	C	1.070767	-0.566838	0.330403
C62	C	1.404101	-0.233505	0.663736
C63	C	1.737434	0.099828	0.997069
C64	C	1.510180	-0.774913	0.378173
C65	C	1.843514	-0.441580	0.711507
C66	C	2.176847	-0.108247	1.044840
C67	C	1.510248	-0.891066	0.378193
C68	C	1.843581	-0.557733	0.711527
C69	C	2.176915	-0.224400	1.044860
C70	C	1.573751	-0.942754	0.425951
C71	C	1.907085	-0.609421	0.759285
C72	C	2.240418	-0.276088	1.092618
C73	C	1.573823	-1.062805	0.425973
C74	C	1.907156	-0.729471	0.759306
C75	C	2.240489	-0.396138	1.092640
C76	C	1.782816	-0.503423	0.378203
C77	C	2.116149	-0.170090	0.711537
C78	C	2.449482	0.163243	1.044870
C79	C	1.898969	-0.503432	0.378210
C80	C	2.232302	-0.170099	0.711543
C81	C	2.565635	0.163235	1.044876
C82	C	1.510309	-0.503326	0.582932
C83	C	1.843642	-0.169993	0.916265
C84	C	2.176975	0.163340	1.249599
C85	C	1.510336	-0.503294	0.670182
C86	C	1.843669	-0.169960	1.003515
C87	C	2.177002	0.163373	1.336849
C88	C	1.510340	-0.230833	0.378220
C89	C	1.843673	0.102500	0.711553
C90	C	2.177006	0.435833	1.044886
C91	C	1.510380	-0.114680	0.378233
C92	C	1.843713	0.218653	0.711566
C93	C	2.177046	0.551987	1.044900
C94	C	1.510243	-0.503405	0.174240
C95	C	1.843576	-0.170071	0.507573
C96	C	2.176909	0.163262	0.840907
C97	C	1.510418	-0.503143	0.086991
C98	C	1.843752	-0.169810	0.420324
C99	C	2.177085	0.163524	0.753657
C100	C	1.577199	-0.436455	0.711185
C101	C	1.910532	-0.103122	1.044518
C102	C	2.243865	0.230211	1.377852
C103	C	1.577211	-0.436421	0.793165
C104	C	1.910545	-0.103087	1.126499
C105	C	2.243878	0.230246	1.459832
C106	C	1.510365	-0.503230	0.834141
C107	C	1.843699	-0.169897	1.167475
C108	C	2.177032	0.163437	1.500808
C109	C	1.443495	-0.570071	0.793133
C110	C	1.776828	-0.236738	1.126466
C111	C	2.110162	0.096596	1.459799
C112	C	1.443478	-0.570100	0.711154
C113	C	1.776811	-0.236767	1.044487
C114	C	2.110145	0.096567	1.377820
C115	C	1.443537	-0.570008	0.964003
C116	C	1.776870	-0.236675	1.297336
C117	C	2.110204	0.096658	1.630670
C118	C	1.443555	-0.569981	1.045988
C119	C	1.776889	-0.236648	1.379321
C120	C	2.110222	0.096685	1.712654
C121	C	1.577270	-0.436329	1.046015
C122	C	1.910604	-0.102996	1.379348
C123	C	2.243937	0.230338	1.712681
C124	C	1.577253	-0.436358	0.964036
C125	C	1.910587	-0.103024	1.297369
C126	C	2.243920	0.230309	1.630702
C127	C	1.510384	-0.503201	0.923033
C128	C	1.843717	-0.169867	1.256366
C129	C	2.177051	0.163466	1.589699
H130	H	1.078087	-0.449103	0.419107
H131	H	1.411420	-0.115770	0.752441
H132	H	1.744754	0.217563	1.085774
F133	F	1.372311	-0.641236	0.667516
F134	F	1.705644	-0.307902	1.000849
F135	F	2.038977	0.025431	1.334182
F136	F	1.644893	-1.120901	0.479414
F137	F	1.978227	-0.787568	0.812747
F138	F	2.311560	-0.454235	1.146081
F139	F	1.372402	-0.641078	1.089596
F140	F	1.705735	-0.307745	1.422929
F141	F	2.039068	0.025588	1.756262
F142	F	0.957224	-0.432437	0.431677
F143	F	1.290557	-0.099103	0.765010
F144	F	1.623890	0.234230	1.098344
H145	H	1.628063	-0.898132	0.466826
H146	H	1.961396	-0.564799	0.800160
H147	H	2.294730	-0.231466	1.133493
F148	F	1.648412	-0.365318	0.836800
F149	F	1.981745	-0.031985	1.170134
F150	F	2.315079	0.301349	1.503467
F151	F	1.439317	-1.056590	0.324782
F152	F	1.772650	-0.723257	0.658115
F153	F	2.105983	-0.389923	0.991449
F154	F	1.439246	-0.949388	0.324773
F155	F	1.772580	-0.616055	0.658107
F156	F	2.105913	-0.282722	0.991440
F157	F	0.892462	-0.637839	0.276941
F158	F	1.225796	-0.304505	0.610274
F159	F	1.559129	0.028828	0.943608
H160	H	1.631636	-0.382054	0.677828
H161	H	1.964969	-0.048721	1.011162
H162	H	2.298302	0.284612	1.344495
F163	F	1.648404	-0.365258	0.920427
F164	F	1.981738	-0.031925	1.253761
F165	F	2.315071	0.301409	1.587094
F166	F	1.648439	-0.365190	1.089654
F167	F	1.981772	-0.031857	1.422987
F168	F	2.315106	0.301476	1.756320
F169	F	1.372364	-0.641148	0.920366
F170	F	1.705698	-0.307815	1.253700
F171	F	2.039031	0.025519	1.587033
H172	H	1.389064	-0.624465	0.826502
H173	H	1.722397	-0.291131	1.159835
H174	H	2.055731	0.042202	1.493169
H175	H	1.115270	-0.621142	0.289489
H176	H	1.448603	-0.287809	0.622823
H177	H	1.781936	0.045525	0.956156
