data_functionalizedCrystal
_audit_creation_method	'MofGen! by Chris Wilmer'
_symmetry_space_group_name_H-M	'P1'
_symmetry_Int_Tables_number	1
_symmetry_cell_setting	triclinic
loop_
_symmetry_equiv_pos_as_xyz
  x,y,z
_cell_length_a	18.101398
_cell_length_b	21.295417
_cell_length_c	18.101389
_cell_angle_alpha	90.021518
_cell_angle_beta	90.024327
_cell_angle_gamma	90.024968
loop_
_atom_site_label
_atom_site_type_symbol
_atom_site_fract_x
_atom_site_fract_y
_atom_site_fract_z
Zn1	Zn	1.132128	-0.250755	0.418823
Zn2	Zn	1.632128	0.249245	0.918823
Zn3	Zn	1.132027	-0.356008	0.294975
Zn4	Zn	1.632027	0.143992	0.794975
Zn5	Zn	1.008287	-0.250748	0.294984
Zn6	Zn	1.508287	0.249252	0.794984
Zn7	Zn	1.008241	-0.355981	0.418763
Zn8	Zn	1.508241	0.144019	0.918763
O9	O	1.070171	-0.303373	0.356886
O10	O	1.570171	0.196627	0.856886
O11	O	1.235748	-0.264731	0.402415
O12	O	1.735748	0.235269	0.902415
O13	O	1.115590	-0.342054	0.191343
O14	O	1.615590	0.157946	0.691343
O15	O	1.024777	-0.162660	0.311440
O16	O	1.524777	0.337340	0.811440
O17	O	1.235673	-0.342060	0.311424
O18	O	1.735673	0.157940	0.811424
O19	O	1.115762	-0.162664	0.402424
O20	O	1.615762	0.337336	0.902424
O21	O	1.024679	-0.264720	0.191350
O22	O	1.524679	0.235280	0.691350
O23	O	0.904648	-0.264694	0.311382
O24	O	1.404648	0.235306	0.811382
O25	O	1.024698	-0.342014	0.522404
O26	O	1.524698	0.157986	1.022404
O27	O	0.904614	-0.342008	0.402322
O28	O	1.404614	0.157992	0.902322
O29	O	1.115717	-0.264705	0.522448
O30	O	1.615717	0.235295	1.022448
O31	O	1.115545	-0.444094	0.311366
O32	O	1.615545	0.055906	0.811366
O33	O	1.024600	-0.444074	0.402313
O34	O	1.524600	0.055926	0.902313
C35	C	0.877760	-0.303348	0.356847
C36	C	1.377760	0.196652	0.856847
C37	C	0.795446	-0.303352	0.356848
C38	C	1.295446	0.196648	0.856848
C39	C	0.496355	-0.303391	0.356911
C40	C	0.996355	0.196609	0.856911
C41	C	0.527677	-0.254504	0.299973
C42	C	1.027677	0.245496	0.799973
C43	C	0.613295	-0.254635	0.299730
C44	C	1.113295	0.245365	0.799730
C45	C	0.644738	-0.303371	0.356880
C46	C	1.144738	0.196629	0.856880
C47	C	0.613622	-0.369679	0.335551
C48	C	1.113622	0.130321	0.835551
C49	C	0.527976	-0.369407	0.335155
C50	C	1.027976	0.130593	0.835155
C51	C	0.527969	-0.286547	0.435311
C52	C	1.027969	0.213453	0.935311
C53	C	0.613620	-0.285070	0.434883
C54	C	1.113620	0.214930	0.934883
C55	C	0.728597	-0.303364	0.356864
C56	C	1.228597	0.196636	0.856864
C57	C	0.412496	-0.303403	0.356925
C58	C	0.912496	0.196597	0.856925
C59	C	1.070076	-0.466925	0.356849
C60	C	1.570076	0.033075	0.856849
C61	C	1.070104	-0.536893	0.356857
C62	C	1.570104	-0.036893	0.856857
C63	C	1.117453	-0.569705	0.404266
C64	C	1.617453	-0.069705	0.904266
C65	C	1.117479	-0.635447	0.404285
C66	C	1.617479	-0.135447	0.904285
C67	C	1.070164	-0.668375	0.356881
C68	C	1.570164	-0.168375	0.856881
C69	C	1.022806	-0.635555	0.309468
C70	C	1.522806	-0.135555	0.809468
C71	C	1.022776	-0.569814	0.309456
C72	C	1.522776	-0.069814	0.809456
N73	N	1.064571	-0.771628	0.292068
N74	N	1.564571	-0.271628	0.792068
N75	N	1.064604	-0.834080	0.292081
N76	N	1.564604	-0.334080	0.792081
C77	C	1.070250	-0.866450	0.356914
C78	C	1.570250	-0.366450	0.856914
N79	N	1.075877	-0.834010	0.421735
N80	N	1.575877	-0.334010	0.921735
N81	N	1.075848	-0.771553	0.421721
N82	N	1.575848	-0.271553	0.921721
C83	C	1.070191	-0.739661	0.356888
C84	C	1.570191	-0.239661	0.856888
C85	C	1.117630	-0.970547	0.404347
C86	C	1.617630	-0.470547	0.904347
C87	C	1.117651	-1.036291	0.404367
C88	C	1.617651	-0.536291	0.904367
C89	C	1.022982	-1.036398	0.309543
C90	C	1.522982	-0.536398	0.809543
C91	C	1.022957	-0.970656	0.309530
C92	C	1.522957	-0.470656	0.809530
C93	C	1.070285	-0.937734	0.356931
C94	C	1.570285	-0.437734	0.856931
C95	C	1.263333	-0.303399	0.356925
C96	C	1.763333	0.196601	0.856925
C97	C	1.345647	-0.303410	0.356942
C98	C	1.845647	0.196590	0.856942
C99	C	1.070214	-0.303357	0.550048
C100	C	1.570214	0.196643	1.050048
C101	C	1.070232	-0.303350	0.632362
C102	C	1.570232	0.196650	1.132362
C103	C	1.070286	-0.139183	0.356940
C104	C	1.570286	0.360817	0.856940
C105	C	1.070335	-0.069215	0.356963
C106	C	1.570335	0.430785	0.856963
C107	C	1.070171	-0.303344	0.164476
C108	C	1.570171	0.196656	0.664476
C109	C	1.070296	-0.303173	0.082162
C110	C	1.570296	0.196827	0.582162
C111	C	1.070275	-0.303232	0.931453
C112	C	1.570275	0.196768	1.431453
C113	C	1.012811	-0.351719	0.900101
C114	C	1.512811	0.148281	1.400101
C115	C	1.012966	-0.351944	0.814482
C116	C	1.512966	0.148056	1.314482
C117	C	1.070253	-0.303291	0.783071
C118	C	1.570253	0.196709	1.283071
C119	C	1.148279	-0.321303	0.814175
C120	C	1.648279	0.178697	1.314175
C121	C	1.147959	-0.321621	0.899820
C122	C	1.647959	0.178379	1.399820
C123	C	1.050392	-0.236626	0.899882
C124	C	1.550392	0.263374	1.399882
C125	C	1.048656	-0.237011	0.814231
C126	C	1.548656	0.262989	1.314231
C127	C	1.070245	-0.303323	0.699211
C128	C	1.570245	0.196677	1.199211
C129	C	1.070288	-0.303202	1.015313
C130	C	1.570288	0.196798	1.515313
H131	H	0.507965	-0.383693	0.277840
H132	H	1.007965	0.116307	0.777840
O133	O	0.971707	-0.534418	0.258318
O134	O	1.471707	-0.034418	0.758318
H135	H	1.004865	-0.504459	0.220673
H136	H	1.504865	-0.004459	0.720673
H137	H	0.635026	-0.318083	0.479580
H138	H	1.135026	0.181917	0.979580
H139	H	0.635037	-0.384213	0.278855
H140	H	1.135037	0.115787	0.778855
H141	H	0.506396	-0.239037	0.454702
H142	H	1.006396	0.260963	0.954702
H143	H	0.984452	-1.063207	0.270951
H144	H	1.484452	-0.563207	0.770951
O145	O	0.501136	-0.333704	0.491514
O146	O	1.001136	0.166296	0.991514
H147	H	0.465456	-0.368971	0.463792
H148	H	0.965456	0.131029	0.963792
O149	O	1.168667	-0.935032	0.455474
O150	O	1.668667	-0.435032	0.955474
H151	H	1.201589	-0.968896	0.488454
H152	H	1.701589	-0.468896	0.988454
O153	O	0.500519	-0.419282	0.387694
O154	O	1.000519	0.080718	0.887694
H155	H	0.548415	-0.443493	0.413265
H156	H	1.048415	0.056507	0.913265
O157	O	0.500431	-0.189164	0.317454
O158	O	1.000431	0.310836	0.817454
H159	H	0.468683	-0.170722	0.269693
H160	H	0.968683	0.329278	0.769693
O161	O	0.499158	-0.269091	0.223461
O162	O	0.999158	0.230909	0.723461
H163	H	0.462771	-0.311008	0.225809
H164	H	0.962771	0.188992	0.725809
O165	O	1.206580	-0.276879	0.927338
O166	O	1.706580	0.223121	1.427338
H167	H	1.261444	-0.292182	0.906743
H168	H	1.761444	0.207818	1.406743
O169	O	0.640400	-0.269354	0.222773
O170	O	1.140400	0.230646	0.722773
H171	H	0.592335	-0.276417	0.185588
H172	H	1.092335	0.223583	0.685588
H173	H	1.025808	-0.400788	0.921623
H174	H	1.525808	0.099212	1.421623
H175	H	0.633987	-0.407079	0.375724
H176	H	1.133987	0.092921	0.875724
H177	H	1.156208	-1.063006	0.442976
H178	H	1.656208	-0.563006	0.942976
O179	O	1.105831	-0.188774	0.926741
O180	O	1.605831	0.311226	1.426741
H181	H	1.091425	-0.141880	0.904213
H182	H	1.591425	0.358120	1.404213
H183	H	0.633963	-0.236275	0.450966
H184	H	1.133963	0.263725	0.950966
O185	O	1.170272	-0.386119	0.926292
O186	O	1.670272	0.113881	1.426292
H187	H	1.226480	-0.397246	0.905608
H188	H	1.726480	0.102754	1.405608
O189	O	0.971779	-0.671073	0.258338
O190	O	1.471779	-0.171073	0.758338
H191	H	0.913641	-0.658500	0.270981
H192	H	1.413641	-0.158500	0.770981
H193	H	1.165426	-0.369476	0.792730
H194	H	1.665426	0.130524	1.292730
O195	O	1.030259	-0.417357	0.787336
O196	O	1.530259	0.082643	1.287336
H197	H	1.038566	-0.448948	0.835380
H198	H	1.538566	0.051052	1.335380
O199	O	0.971902	-0.935259	0.258382
O200	O	1.471902	-0.435259	0.758382
H201	H	0.939010	-0.969198	0.225414
H202	H	1.439010	-0.469198	0.725414
H203	H	0.955107	-0.340671	0.793450
H204	H	1.455107	0.159329	1.293450
O205	O	0.935932	-0.336942	0.927357
O206	O	1.435932	0.163058	1.427357
H207	H	0.937855	-0.294886	0.963546
H208	H	1.437855	0.205114	1.463546
H209	H	1.192244	-0.287098	0.793832
H210	H	1.692244	0.212902	1.293832
O211	O	0.976328	-0.214895	0.928461
O212	O	1.476328	0.285105	1.428461
H213	H	0.978111	-0.212152	0.989670
H214	H	1.478111	0.287848	1.489670
O215	O	0.972603	-0.219011	0.787288
O216	O	1.472603	0.280989	1.287288
H217	H	0.931824	-0.254326	0.806551
H218	H	1.431824	0.245674	1.306551
O219	O	0.641174	-0.189501	0.317414
O220	O	1.141174	0.310499	0.817414
H221	H	0.593483	-0.157624	0.326217
H222	H	1.093483	0.342376	0.826217
O223	O	1.168510	-0.534195	0.455376
O224	O	1.668510	-0.034195	0.955376
H225	H	1.201442	-0.568061	0.488344
H226	H	1.701442	-0.068061	0.988344
O227	O	1.168555	-0.670850	0.455415
O228	O	1.668555	-0.170850	0.955415
H229	H	1.201464	-0.636913	0.488369
H230	H	1.701464	-0.136913	0.988369
H231	H	1.087456	-0.198968	0.792849
H232	H	1.587456	0.301032	1.292849
