data_functionalizedCrystal
_audit_creation_method	'MofGen! by Chris Wilmer'
_symmetry_space_group_name_H-M	'P1'
_symmetry_Int_Tables_number	1
_symmetry_cell_setting	triclinic
loop_
_symmetry_equiv_pos_as_xyz
  x,y,z
_cell_length_a	17.699097
_cell_length_b	12.811415
_cell_length_c	16.176319
_cell_angle_alpha	84.562354
_cell_angle_beta	89.988988
_cell_angle_gamma	83.667269
loop_
_atom_site_label
_atom_site_type_symbol
_atom_site_fract_x
_atom_site_fract_y
_atom_site_fract_z
O1	O	1.004668	0.132799	-0.078769
O2	O	0.784368	0.150053	-0.080049
O3	O	0.900059	-0.011381	-0.067950
O4	O	0.888976	0.294233	-0.090869
O5	O	0.900043	-0.011391	0.069544
O6	O	0.784352	0.150042	0.057445
O7	O	1.004651	0.132788	0.058724
Cu8	Cu	0.894500	0.141414	0.070639
Cu9	Cu	0.894519	0.141427	-0.091964
O10	O	0.888960	0.294222	0.046625
C11	C	0.756160	0.149427	-0.011254
C12	C	0.672134	0.147565	-0.011109
C13	C	0.156374	0.136158	-0.085235
C14	C	0.235326	0.137901	-0.085361
C15	C	0.274787	0.138768	-0.010476
C16	C	0.235293	0.137882	0.064543
C17	C	0.156343	0.136132	0.064669
C18	C	0.553689	0.144937	0.064035
C19	C	0.632644	0.146690	0.063903
C20	C	0.632671	0.146705	-0.085995
C21	C	0.553721	0.144956	-0.085869
C22	C	0.514235	0.144064	-0.010851
C23	C	0.428626	0.142173	-0.010714
C24	C	0.360393	0.140666	-0.010612
C25	C	0.899430	-0.050489	0.003727
C26	C	0.897569	-0.167003	0.012460
C27	C	0.894076	-0.385923	-0.121044
C28	C	0.892328	-0.495398	-0.112843
C29	C	0.892319	-0.495430	0.037062
C30	C	0.894067	-0.385955	0.028861
C31	C	0.894947	-0.331205	-0.050194
C32	C	0.896701	-0.221729	-0.058395
C33	C	0.896686	-0.221762	0.091510
C34	C	0.894937	-0.331237	0.099711
C35	C	1.032859	0.133414	-0.010073
C36	C	1.116885	0.135276	-0.010223
C37	C	0.889590	0.333330	-0.025054
C38	C	0.891450	0.449844	-0.033792
N39	N	0.894492	0.141405	0.185005
N40	N	0.894533	0.141427	-0.206329
C41	C	0.945736	0.069951	0.233624
C42	C	0.945740	0.069950	0.320171
C43	C	0.894503	0.141409	0.358097
C44	C	0.843254	0.212866	0.309471
C45	C	0.843247	0.212861	0.222926
C46	C	0.843280	0.212886	0.658498
C47	C	0.843292	0.212887	0.745050
C48	C	0.945773	0.069975	0.755743
C49	C	0.945766	0.069970	0.669198
C50	C	0.894514	0.141423	0.620580
C51	C	0.894510	0.141422	0.526736
C52	C	0.894511	0.141416	0.451939
H53	H	0.664771	0.147396	0.124888
H54	H	0.897398	-0.177200	0.149201
H55	H	0.897419	-0.177154	-0.122766
C56	C	1.002129	-0.008642	0.627485
N57	N	1.044579	-0.067858	0.596069
H58	H	0.987502	0.011790	0.795338
H59	H	0.801566	0.271079	0.775926
H60	H	0.801551	0.271067	0.618920
H61	H	0.801532	0.271046	0.340356
H62	H	0.521550	0.144196	0.125121
H63	H	0.521595	0.144255	-0.146849
H64	H	0.801518	0.271045	0.183340
C65	C	0.895049	-0.325697	-0.208004
N66	N	0.895780	-0.280335	-0.273505
C67	C	0.112974	0.135203	-0.167617
N68	N	0.080288	0.134478	-0.229669
H69	H	0.267474	0.138613	-0.146443
C70	C	0.112906	0.135166	0.147188
N71	N	0.080190	0.134436	0.209344
C72	C	0.278699	0.138880	0.146915
N73	N	0.311390	0.139653	0.208958
C74	C	0.676114	0.147672	-0.168516
N75	N	0.708835	0.148400	-0.230669
C76	C	1.002101	-0.008661	0.191914
N77	N	1.044555	-0.067877	0.160501
C78	C	0.891334	-0.555671	0.124017
N79	N	0.890589	-0.601044	0.189511
C80	C	0.891389	-0.555587	-0.190783
N81	N	0.890687	-0.600922	-0.249490
H82	H	0.894218	-0.375829	0.164076
H83	H	0.987466	0.011767	0.359757
