data_functionalizedCrystal
_audit_creation_method	'MofGen! by Chris Wilmer'
_symmetry_space_group_name_H-M	'P1'
_symmetry_Int_Tables_number	1
_symmetry_cell_setting	triclinic
loop_
_symmetry_equiv_pos_as_xyz
  x,y,z
_cell_length_a	16.625548
_cell_length_b	18.101395
_cell_length_c	16.625539
_cell_angle_alpha	89.972352
_cell_angle_beta	89.979432
_cell_angle_gamma	90.032172
loop_
_atom_site_label
_atom_site_type_symbol
_atom_site_fract_x
_atom_site_fract_y
_atom_site_fract_z
Zn1	Zn	1.232632	-0.294807	-0.455913
Zn2	Zn	1.732632	0.205193	0.044087
Zn3	Zn	1.232515	-0.418656	-0.321082
Zn4	Zn	1.732515	0.081344	0.178918
Zn5	Zn	1.097794	-0.294835	-0.321094
Zn6	Zn	1.597794	0.205165	0.178906
Zn7	Zn	1.097744	-0.418614	-0.455872
Zn8	Zn	1.597744	0.081386	0.044128
O9	O	1.165171	-0.356728	-0.388490
O10	O	1.665171	0.143272	0.111510
O11	O	1.345449	-0.311242	-0.438040
O12	O	1.845449	0.188758	0.061960
O13	O	1.214616	-0.402261	-0.208251
O14	O	1.714616	0.097739	0.291749
O15	O	1.115750	-0.191199	-0.339000
O16	O	1.615750	0.308801	0.161000
O17	O	1.345363	-0.402233	-0.338980
O18	O	1.845363	0.097767	0.161020
O19	O	1.214815	-0.191178	-0.438051
O20	O	1.714815	0.308822	0.061949
O21	O	1.115637	-0.311290	-0.208260
O22	O	1.615637	0.188710	0.291740
O23	O	0.984955	-0.311249	-0.338960
O24	O	1.484955	0.188751	0.161040
O25	O	1.115665	-0.402161	-0.568710
O26	O	1.615665	0.097839	-0.068710
O27	O	0.984918	-0.402188	-0.437981
O28	O	1.484918	0.097812	0.062019
O29	O	1.214767	-0.311201	-0.568740
O30	O	1.714767	0.188799	-0.068740
O31	O	1.214567	-0.522284	-0.338940
O32	O	1.714567	-0.022284	0.161060
O33	O	1.115552	-0.522252	-0.437969
O34	O	1.615552	-0.022252	0.062031
C35	C	0.955680	-0.356718	-0.388467
C36	C	1.455680	0.143282	0.111533
C37	C	0.866059	-0.356731	-0.388477
C38	C	1.366059	0.143269	0.111523
C39	C	0.537884	-0.356736	-0.388511
C40	C	1.037884	0.143264	0.111489
C41	C	0.629192	-0.356732	-0.388499
C42	C	1.129192	0.143268	0.111501
C43	C	0.701969	-0.356734	-0.388494
C44	C	1.201969	0.143266	0.111506
C45	C	0.793283	-0.356729	-0.388483
C46	C	1.293283	0.143271	0.111517
C47	C	1.165063	-0.549139	-0.388466
C48	C	1.665063	-0.049139	0.111534
C49	C	1.165091	-0.631453	-0.388483
C50	C	1.665091	-0.131453	0.111517
C51	C	1.165268	-0.930544	-0.388527
C52	C	1.665268	-0.430544	0.111473
C53	C	1.103114	-0.899230	-0.450988
C54	C	1.603114	-0.399230	0.049012
C55	C	1.102819	-0.813612	-0.450793
C56	C	1.602819	-0.313612	0.049207
C57	C	1.165180	-0.782161	-0.388506
C58	C	1.665180	-0.282161	0.111494
C59	C	1.142173	-0.813313	-0.303528
C60	C	1.642173	-0.313313	0.196472
C61	C	1.141772	-0.898959	-0.303901
C62	C	1.641772	-0.398959	0.196099
C63	C	1.250565	-0.898886	-0.410295
C64	C	1.750565	-0.398886	0.089705
C65	C	1.250063	-0.813235	-0.412159
C66	C	1.750063	-0.313235	0.087841
C67	C	1.165132	-0.698302	-0.388489
C68	C	1.665132	-0.198302	0.111511
C69	C	1.165314	-1.014403	-0.388538
C70	C	1.665314	-0.514403	0.111462
C71	C	1.375480	-0.356739	-0.388513
C72	C	1.875480	0.143261	0.111487
C73	C	1.465101	-0.356744	-0.388523
C74	C	1.965101	0.143256	0.111477
C75	C	1.165224	-0.356673	-0.598799
C76	C	1.665224	0.143327	-0.098799
C77	C	1.165246	-0.356649	-0.688420
C78	C	1.665246	0.143351	-0.188420
C79	C	1.165302	-0.163566	-0.388531
C80	C	1.665302	0.336434	0.111469
C81	C	1.165357	-0.081252	-0.388549
C82	C	1.665357	0.418748	0.111451
C83	C	1.165283	-0.356567	-1.016596
C84	C	1.665283	0.143433	-0.516596
C85	C	1.165271	-0.356592	-0.925287
C86	C	1.665271	0.143408	-0.425287
C87	C	1.165265	-0.356609	-0.852511
C88	C	1.665265	0.143391	-0.352511
C89	C	1.165252	-0.356633	-0.761197
C90	C	1.665252	0.143367	-0.261197
C91	C	1.165165	-0.356730	-0.178999
C92	C	1.665165	0.143270	0.321001
C93	C	1.165299	-0.356545	-0.089378
C94	C	1.665299	0.143455	0.410622
H95	H	1.117214	-0.792547	-0.513803
H96	H	1.617214	-0.292547	-0.013803
H97	H	1.186018	-0.792943	-0.255720
H98	H	1.686018	-0.292943	0.244280
H99	H	1.298821	-0.791822	-0.369981
H100	H	1.798821	-0.291822	0.130019
C101	C	1.199528	-0.926734	-0.239822
C102	C	1.699528	-0.426734	0.260178
C103	C	1.199631	-1.004083	-0.239696
C104	C	1.699631	-0.504083	0.260304
C105	C	1.252841	-1.029693	-0.180694
C106	C	1.752841	-0.529693	0.319306
H107	H	1.182899	-0.909226	-0.188599
H108	H	1.682899	-0.409226	0.311401
H109	H	1.252190	-0.909154	-0.251116
H110	H	1.752190	-0.409154	0.248884
H111	H	1.146980	-1.021656	-0.228396
H112	H	1.646980	-0.521656	0.271604
H113	H	1.216268	-1.021611	-0.290904
H114	H	1.716268	-0.521611	0.209096
H115	H	1.305504	-1.012113	-0.191989
H116	H	1.805504	-0.512113	0.308011
H117	H	1.236207	-1.012179	-0.129476
H118	H	1.736207	-0.512179	0.370524
H119	H	1.252924	-1.082176	-0.180606
H120	H	1.752924	-0.582176	0.319394
C121	C	1.312312	-0.926034	-0.349717
C122	C	1.812312	-0.426034	0.150283
C123	C	1.314972	-1.003329	-0.351240
C124	C	1.814972	-0.503329	0.148760
C125	C	1.371845	-1.028369	-0.295454
C126	C	1.871845	-0.528369	0.204546
H127	H	1.297655	-0.909859	-0.297384
H128	H	1.797655	-0.409859	0.202616
H129	H	1.363752	-0.906769	-0.363186
H130	H	1.863752	-0.406769	0.136814
H131	H	1.263543	-1.022587	-0.337765
H132	H	1.763543	-0.522587	0.162235
H133	H	1.329639	-1.019524	-0.403559
H134	H	1.829639	-0.519524	0.096441
H135	H	1.423285	-1.009104	-0.308923
H136	H	1.923285	-0.509104	0.191077
H137	H	1.357182	-1.012189	-0.243125
H138	H	1.857182	-0.512189	0.256875
H139	H	1.373663	-1.080815	-0.296485
H140	H	1.873663	-0.580815	0.203515
C141	C	1.121939	-0.926660	-0.535306
C142	C	1.621939	-0.426660	-0.035306
C143	C	1.056224	-0.966705	-0.564859
C144	C	1.556224	-0.466705	-0.064859
C145	C	1.073532	-0.991981	-0.642537
C146	C	1.573532	-0.491981	-0.142537
H147	H	1.168013	-0.957636	-0.533748
H148	H	1.668013	-0.457636	-0.033748
H149	H	1.132171	-0.885660	-0.569516
H150	H	1.632171	-0.385660	-0.069516
H151	H	1.046003	-1.007700	-0.530658
H152	H	1.546003	-0.507700	-0.030658
H153	H	1.010144	-0.935745	-0.566437
H154	H	1.510144	-0.435745	-0.066437
H155	H	1.083764	-0.950981	-0.676746
H156	H	1.583764	-0.450981	-0.176746
H157	H	1.119607	-1.022954	-0.640970
H158	H	1.619607	-0.522954	-0.140970
H159	H	1.028945	-1.019149	-0.662601
H160	H	1.528945	-0.519149	-0.162601
H161	H	1.079421	-0.919003	-0.285461
H162	H	1.579421	-0.419003	0.214539
H163	H	1.080482	-0.791930	-0.284757
H164	H	1.580482	-0.291930	0.215243
H165	H	1.271540	-0.920433	-0.471205
H166	H	1.771540	-0.420433	0.028795
H167	H	1.039595	-0.793190	-0.436373
H168	H	1.539595	-0.293190	0.063627
C169	C	1.019257	-0.927862	-0.432031
C170	C	1.519257	-0.427862	0.067969
C171	C	0.968077	-0.868141	-0.416512
C172	C	1.468077	-0.368141	0.083488
C173	C	0.890820	-0.894489	-0.399056
C174	C	1.390820	-0.394489	0.100944
H175	H	1.021404	-0.959020	-0.386093
H176	H	1.521404	-0.459020	0.113907
H177	H	0.999412	-0.955079	-0.476666
H178	H	1.499412	-0.455079	0.023334
H179	H	0.987916	-0.840935	-0.371881
H180	H	1.487916	-0.340935	0.128119
H181	H	0.965906	-0.836977	-0.462439
H182	H	1.465906	-0.336977	0.037561
H183	H	0.870976	-0.921706	-0.443691
H184	H	1.370976	-0.421706	0.056309
H185	H	0.892976	-0.925647	-0.353120
H186	H	1.392976	-0.425647	0.146880
H187	H	0.856084	-0.853972	-0.388532
H188	H	1.356084	-0.353972	0.111468
H189	H	1.267413	-0.792871	-0.474698
H190	H	1.767413	-0.292871	0.025302
