data_functionalizedCrystal
_audit_creation_method	'MofGen! by Chris Wilmer'
_symmetry_space_group_name_H-M	'P1'
_symmetry_Int_Tables_number	1
_symmetry_cell_setting	triclinic
loop_
_symmetry_equiv_pos_as_xyz
  x,y,z
_cell_length_a	10.540539
_cell_length_b	13.930277
_cell_length_c	14.853569
_cell_angle_alpha	89.994278
_cell_angle_beta	84.080528
_cell_angle_gamma	89.994842
loop_
_atom_site_label
_atom_site_type_symbol
_atom_site_fract_x
_atom_site_fract_y
_atom_site_fract_z
O1	O	1.684496	-0.079788	0.127051
O2	O	1.314951	-0.079801	0.139022
O3	O	1.509593	-0.079785	0.001861
O4	O	1.489853	-0.079804	0.264211
O5	O	1.509566	0.079877	0.001858
O6	O	1.314924	0.079861	0.139019
O7	O	1.684469	0.079873	0.127048
Zn8	Zn	1.499692	0.105217	0.133033
Zn9	Zn	1.499728	-0.105144	0.133037
O10	O	1.489826	0.079858	0.264208
C11	C	1.267644	0.000029	0.138122
C12	C	1.126726	0.000025	0.135437
N13	N	1.499677	0.248783	0.133029
C14	C	1.508685	0.000046	-0.031734
C15	C	1.506004	0.000047	-0.131832
C16	C	0.944430	0.000405	0.032519
C17	C	1.091019	0.000035	0.035242
C18	C	1.064539	-0.091150	0.183656
C19	C	0.918032	-0.091216	0.180237
C20	C	0.917490	0.090349	0.182271
C21	C	1.064462	0.091544	0.183194
C22	C	1.731775	0.000042	0.127947
C23	C	1.872694	0.000040	0.130633
N24	N	1.499753	-0.248710	0.133033
C25	C	1.413537	0.701046	0.193747
C26	C	1.585954	0.701029	0.072320
C27	C	1.585938	0.600533	0.072317
C28	C	1.499722	0.550289	0.133031
C29	C	1.413521	0.600541	0.193748
C30	C	1.672146	0.550274	0.011607
C31	C	1.672136	0.449772	0.011602
C32	C	1.585913	0.399526	0.072313
C33	C	1.499707	0.449784	0.133032
C34	C	1.413491	0.399540	0.193746
C35	C	1.327279	0.449796	0.254461
C36	C	1.327298	0.550295	0.254459
C37	C	1.585893	0.299027	0.072315
C38	C	1.413476	0.299035	0.193747
C39	C	1.389124	0.000045	-0.168857
C40	C	1.620364	0.000042	-0.188864
C41	C	1.617849	0.000038	-0.282912
C42	C	1.500969	0.000036	-0.319937
C43	C	1.386605	0.000038	-0.262914
C44	C	1.732211	0.000026	-0.339942
C45	C	1.729701	0.000021	-0.433996
C46	C	1.612819	0.000025	-0.471023
C47	C	1.498450	0.000029	-0.413994
C48	C	1.381570	0.000027	-0.451019
C49	C	1.267200	0.000037	-0.393991
C50	C	1.269723	0.000043	-0.299941
C51	C	1.610296	0.000019	-0.565073
C52	C	1.379051	0.000019	-0.545075
C53	C	1.490734	0.000024	0.297803
C54	C	1.493416	0.000017	0.397902
H55	H	1.134039	0.065393	-0.002699
H56	H	1.172036	0.000029	-0.424149
H57	H	1.176610	0.000048	-0.253501
H58	H	1.107507	-0.158999	0.150162
C59	C	1.096124	0.098986	0.281876
N60	N	1.119980	0.104589	0.356204
H61	H	1.133195	-0.065431	-0.002964
H62	H	1.283873	0.000026	-0.575213
C63	C	1.263322	0.000052	-0.106128
N64	N	1.168567	0.000055	-0.058878
C65	C	0.906373	0.088738	-0.020958
N66	N	0.877697	0.155272	-0.061239
H67	H	1.827369	0.000087	-0.309788
H68	H	1.742347	0.591186	-0.037821
H69	H	1.257108	0.591219	0.303892
C70	C	1.748925	0.000049	-0.148132
N71	N	1.845762	0.000060	-0.117450
H72	H	0.886289	0.159459	0.149845
H73	H	1.343340	0.741966	0.243179
C74	C	1.766961	0.394500	-0.055193
N75	N	1.838379	0.352868	-0.105506
C76	C	1.120259	0.182668	0.135578
N77	N	1.162284	0.251302	0.099705
H78	H	1.656154	0.741941	0.022892
C79	C	1.680721	0.243750	0.005533
N80	N	1.752149	0.202117	-0.044773
H81	H	1.822828	0.000014	-0.480421
H82	H	0.869467	0.090960	0.254641
C83	C	1.736095	0.000007	-0.627798
N84	N	1.830855	0.000000	-0.675043
C85	C	1.318661	0.243774	0.260562
N86	N	1.247260	0.202153	0.310897
C87	C	0.904204	-0.087419	-0.020736
N88	N	0.873900	-0.153568	-0.060846
H89	H	0.890225	-0.159365	0.144601
H90	H	0.869271	-0.095360	0.252295
H91	H	1.086083	-0.094548	0.257236
C92	C	1.232445	0.394514	0.321246
N93	N	1.161017	0.352872	0.371545
