data_functionalizedCrystal
_audit_creation_method	'MofGen! by Chris Wilmer'
_symmetry_space_group_name_H-M	'P1'
_symmetry_Int_Tables_number	1
_symmetry_cell_setting	triclinic
loop_
_symmetry_equiv_pos_as_xyz
  x,y,z
_cell_length_a	16.992694
_cell_length_b	10.540539
_cell_length_c	16.053802
_cell_angle_alpha	92.593658
_cell_angle_beta	87.249047
_cell_angle_gamma	87.596857
loop_
_atom_site_label
_atom_site_type_symbol
_atom_site_fract_x
_atom_site_fract_y
_atom_site_fract_z
O1	O	1.045174	0.264306	-0.069318
O2	O	0.816873	0.261349	-0.069343
O3	O	0.936232	0.078573	-0.069329
O4	O	0.925815	0.447082	-0.069332
O5	O	0.929662	0.088589	0.069529
O6	O	0.810303	0.271366	0.069516
O7	O	1.038604	0.274322	0.069540
Zn8	Zn	0.923410	0.274434	0.091575
Zn9	Zn	0.932067	0.261237	-0.091377
O10	O	0.919245	0.457098	0.069526
C11	C	0.784355	0.262556	0.000083
C12	C	0.697247	0.251215	0.000074
C13	C	0.647620	0.360635	0.000073
C14	C	0.565773	0.349973	0.000085
C15	C	0.533555	0.229889	0.000091
C16	C	0.583189	0.120461	0.000094
C17	C	0.665034	0.131125	0.000088
C18	C	0.289709	0.185691	0.000114
C19	C	0.207858	0.175036	0.000117
C20	C	0.190447	0.404549	0.000110
C21	C	0.272294	0.415202	0.000099
C22	C	0.321921	0.305774	0.000106
N23	N	0.449895	0.218988	0.000100
N24	N	0.405579	0.316677	0.000103
C25	C	0.932166	0.036210	0.000099
C26	C	0.929829	-0.104941	0.000094
C27	C	0.840283	-0.296162	-0.000227
C28	C	0.842638	-0.149316	0.000086
C29	C	0.968037	-0.157237	0.079393
C30	C	0.965058	-0.304035	0.079460
C31	C	0.974303	-0.315790	-0.078448
C32	C	0.975156	-0.168814	-0.079496
C33	C	1.071123	0.273115	0.000112
C34	C	1.158230	0.284456	0.000117
C35	C	0.923311	0.499461	0.000097
C36	C	0.925649	0.640612	0.000096
N37	N	0.917508	0.283440	0.216434
N38	N	0.937975	0.252222	-0.216237
C39	C	0.968315	0.205700	0.260134
C40	C	0.964193	0.212013	0.347540
C41	C	0.909269	0.296073	0.391245
C42	C	0.858458	0.373817	0.347539
C43	C	0.862576	0.367497	0.260134
C44	C	0.891281	0.323645	0.652653
C45	C	0.887169	0.329962	0.740063
C46	C	0.992904	0.168156	0.740059
C47	C	0.997020	0.161848	0.652652
C48	C	0.946206	0.239587	0.608954
N49	N	0.905057	0.302531	0.480588
N50	N	0.950415	0.233122	0.519612
H51	H	0.705441	0.042023	0.000088
H52	H	0.947229	-0.134851	-0.138159
H53	H	1.013043	0.137255	0.224555
H54	H	0.948927	-0.354127	-0.138551
H55	H	0.298520	0.512986	0.000084
C56	C	0.836206	0.408277	0.605266
C57	C	0.848644	0.535920	0.626505
C58	C	0.797929	0.613927	0.582859
H59	H	0.783066	0.390327	0.619568
H60	H	0.846520	0.392569	0.546942
H61	H	0.838324	0.551620	0.684816
H62	H	0.901774	0.553909	0.612201
H63	H	0.808243	0.598220	0.524535
H64	H	0.744791	0.595966	0.597165
H65	H	0.806366	0.700541	0.597258
C66	C	0.798780	0.464883	0.395097
C67	C	0.748031	0.395939	0.445307
C68	C	0.693054	0.479791	0.489136
H69	H	0.769028	0.510313	0.356648
H70	H	0.825667	0.523092	0.429232
H71	H	0.721146	0.337753	0.411174
H72	H	0.777760	0.350512	0.483771
H73	H	0.719941	0.538000	0.523271
H74	H	0.663308	0.525216	0.450681
H75	H	0.658619	0.433026	0.523214
H76	H	1.037306	-0.357589	-0.078974
C77	C	0.925580	-0.097995	0.158104
C78	C	0.979054	-0.031504	0.205219
C79	C	0.939964	0.023097	0.277724
H80	H	0.904076	-0.162967	0.190165
H81	H	0.884300	-0.041063	0.143263
H82	H	1.020320	-0.088431	0.220062
H83	H	1.000561	0.033487	0.173183
H84	H	0.898683	0.080028	0.262883
H85	H	0.918461	-0.041884	0.309778
H86	H	0.976237	0.068226	0.309697
H87	H	0.806696	-0.106338	0.057018
H88	H	0.330106	0.096587	0.000120
C89	C	0.512024	0.468921	0.000041
C90	C	0.557758	0.576365	0.000008
C91	C	0.508273	0.685966	-0.000042
H92	H	0.477437	0.473210	0.048455
H93	H	0.482029	0.466105	-0.048398
H94	H	0.587740	0.579182	0.048441
H95	H	0.592344	0.572119	-0.048402
H96	H	0.478277	0.683150	-0.048481
H97	H	0.473688	0.690242	0.048372
H98	H	0.539296	0.758879	-0.000072
C99	C	1.048155	0.083681	0.787353
C100	C	1.097145	0.008729	0.730369
C101	C	1.148056	-0.069103	0.773905
H102	H	1.018118	0.030277	0.821457
H103	H	1.079508	0.135138	0.821426
H104	H	1.065795	-0.042723	0.696310
H105	H	1.127198	0.062099	0.696263
H106	H	1.179410	-0.017646	0.807979
H107	H	1.118013	-0.122498	0.808008
H108	H	1.181307	-0.119959	0.735249
C109	C	0.807375	0.452055	0.212836
C110	C	0.758407	0.527050	0.269816
C111	C	0.707550	0.604970	0.226277
H112	H	0.775996	0.400696	0.178746
H113	H	0.837476	0.505419	0.178749
H114	H	0.728309	0.473692	0.303890
H115	H	0.789764	0.578434	0.303909
H116	H	0.737651	0.658334	0.192190
H117	H	0.676177	0.553602	0.192188
H118	H	0.674324	0.655872	0.264931
H119	H	1.027595	-0.346303	0.083064
H120	H	0.673844	0.458420	0.000068
C121	C	0.802128	-0.102029	-0.075731
C122	C	0.775312	-0.205724	-0.122240
C123	C	0.737974	-0.162218	-0.192082
H124	H	0.838462	-0.058058	-0.109370
H125	H	0.758642	-0.046158	-0.057916
H126	H	0.818792	-0.261573	-0.140056
H127	H	0.738968	-0.249706	-0.088627
H128	H	0.694489	-0.106347	-0.174267
H129	H	0.774314	-0.118247	-0.225713
H130	H	0.719769	-0.232566	-0.223643
H131	H	1.031928	-0.129114	0.082349
H132	H	0.150032	0.493638	0.000105
H133	H	0.931243	-0.330650	0.138731
H134	H	0.181630	0.077244	0.000121
C135	C	1.060266	-0.129862	-0.085960
C136	C	1.110781	-0.238140	-0.084998
C137	C	1.189189	-0.202297	-0.090977
H138	H	1.069911	-0.073591	-0.040040
H139	H	1.069547	-0.088385	-0.136602
H140	H	1.101504	-0.279597	-0.034362
H141	H	1.101161	-0.294424	-0.130916
H142	H	1.198470	-0.160820	-0.141619
H143	H	1.198825	-0.146024	-0.045056
H144	H	1.223473	-0.275758	-0.090333
C145	C	1.056326	0.069896	0.605320
C146	C	1.016168	-0.015690	0.555403
C147	C	1.070686	-0.100670	0.511880
H148	H	1.085817	0.024401	0.643950
H149	H	1.091052	0.115807	0.571012
H150	H	0.981456	-0.061596	0.589708
H151	H	0.986680	0.029768	0.516757
H152	H	1.105412	-0.054760	0.477572
H153	H	1.100174	-0.146156	0.550517
H154	H	1.043447	-0.158743	0.478001
H155	H	0.556951	0.022687	0.000111
H156	H	0.808532	-0.331853	-0.057095
C157	C	1.019461	0.127568	0.394835
C158	C	1.068463	0.052636	0.337853
C159	C	1.119397	-0.025157	0.381389
H160	H	0.989441	0.074151	0.428946
H161	H	1.050804	0.179052	0.428902
H162	H	1.037123	0.001156	0.303800
H163	H	1.098500	0.106019	0.303740
H164	H	1.150741	0.026328	0.415456
H165	H	1.089371	-0.078565	0.415499
H166	H	1.152656	-0.075999	0.342734
C167	C	0.827402	0.421055	0.787477
C168	C	0.751198	0.390988	0.766253
C169	C	0.696124	0.474856	0.809925
H170	H	0.836949	0.505711	0.773186
H171	H	0.832181	0.413667	0.845798
H172	H	0.746422	0.398388	0.707946
H173	H	0.741626	0.306347	0.780546
H174	H	0.700903	0.467469	0.868245
H175	H	0.705679	0.559508	0.795630
H176	H	0.644414	0.454460	0.795536
H177	H	0.803306	-0.325268	0.056314
