data_functionalizedCrystal
_audit_creation_method	'MofGen! by Chris Wilmer'
_symmetry_space_group_name_H-M	'P1'
_symmetry_Int_Tables_number	1
_symmetry_cell_setting	triclinic
loop_
_symmetry_equiv_pos_as_xyz
  x,y,z
_cell_length_a	23.532361
_cell_length_b	23.532407
_cell_length_c	16.053802
_cell_angle_alpha	92.540846
_cell_angle_beta	87.439726
_cell_angle_gamma	82.839208
loop_
_atom_site_label
_atom_site_type_symbol
_atom_site_fract_x
_atom_site_fract_y
_atom_site_fract_z
O1	O	0.757691	0.066599	-0.069360
O2	O	0.591824	0.076629	-0.069382
O3	O	0.679758	-0.011318	-0.069347
O4	O	0.669757	0.154546	-0.069395
O5	O	0.674918	-0.006497	0.069510
O6	O	0.586984	0.081450	0.069475
O7	O	0.752851	0.071420	0.069497
Zn8	Zn	0.669149	0.077201	0.091533
Zn9	Zn	0.675526	0.070849	-0.091418
O10	O	0.664917	0.159367	0.069462
C11	C	0.568188	0.078788	0.000044
C12	C	0.504970	0.078033	0.000037
C13	C	0.677083	-0.030123	0.000086
C14	C	0.676317	-0.093339	0.000098
C15	C	0.234364	0.072102	-0.075648
C16	C	0.293764	0.072817	-0.075651
O17	O	0.326733	0.070932	-0.140022
N18	N	0.320831	0.075806	0.000040
C19	C	0.288496	0.078074	0.075739
O20	O	0.316973	0.080682	0.140120
C21	C	0.229098	0.077355	0.075740
C22	C	0.202033	0.074372	0.000044
C23	C	0.207299	0.069118	-0.151338
C24	C	0.147903	0.068404	-0.151336
C25	C	0.115572	0.070674	-0.075643
C26	C	0.142637	0.073658	0.000047
C27	C	0.196765	0.079620	0.151438
C28	C	0.137363	0.078900	0.151433
C29	C	0.110298	0.075917	0.075736
C30	C	0.050911	0.075215	0.075742
N31	N	0.023843	0.072225	0.000051
C32	C	0.056174	0.069955	-0.075642
C33	C	0.413237	0.079583	0.075730
C34	C	0.472633	0.080306	0.075730
C35	C	0.477897	0.075047	-0.075660
C36	C	0.418499	0.074328	-0.075659
C37	C	0.386169	0.076594	0.000039
C38	C	-0.068562	0.068457	-0.075631
C39	C	-0.127964	0.067746	-0.075621
C40	C	-0.133222	0.073002	0.075768
C41	C	-0.073826	0.073716	0.075759
C42	C	-0.041497	0.071441	0.000053
O43	O	0.017905	0.077095	0.140080
O44	O	0.027690	0.067341	-0.140012
C45	C	0.621122	-0.359500	0.000039
C46	C	0.621834	-0.300099	0.000045
O47	O	0.578048	-0.263349	0.000013
N48	N	0.674111	-0.277481	0.000062
C49	C	0.725680	-0.314267	0.000064
O50	O	0.770211	-0.289575	0.000077
C51	C	0.724968	-0.373667	0.000051
C52	C	0.672688	-0.396281	0.000043
C53	C	0.568846	-0.382114	0.000030
C54	C	0.568135	-0.441511	0.000025
C55	C	0.619700	-0.478292	0.000029
C56	C	0.671977	-0.455677	0.000038
C57	C	0.776537	-0.410452	0.000047
C58	C	0.775821	-0.469855	0.000034
C59	C	0.723541	-0.492469	0.000025
C60	C	0.722831	-0.551855	0.000037
N61	N	0.670554	-0.574473	0.000021
C62	C	0.618989	-0.537691	0.000016
C63	C	0.727170	-0.189524	0.000088
C64	C	0.727882	-0.130126	0.000107
C65	C	0.624036	-0.115962	0.000087
C66	C	0.623324	-0.175361	0.000075
C67	C	0.674894	-0.212142	0.000072
C68	C	0.617499	-0.662428	0.000007
C69	C	0.616793	-0.721830	0.000005
C70	C	0.720639	-0.735989	0.000021
C71	C	0.721346	-0.676592	0.000026
C72	C	0.669771	-0.639813	0.000017
O73	O	0.766594	-0.588640	0.000066
O74	O	0.574465	-0.562393	-0.000008
C75	C	0.776487	0.069261	0.000069
C76	C	0.839706	0.070016	0.000071
C77	C	0.667592	0.178172	0.000027
C78	C	0.668358	0.241388	0.000009
N79	N	0.664801	0.081535	0.216391
N80	N	0.679878	0.066510	-0.216276
C81	C	0.702231	0.044127	0.260100
C82	C	0.699194	0.047164	0.347506
C83	C	0.658731	0.087613	0.391201
C84	C	0.621298	0.125023	0.347486
C85	C	0.624331	0.121983	0.260082
C86	C	0.645479	0.100879	0.652605
C87	C	0.642449	0.103918	0.740015
C88	C	0.720345	0.026058	0.740029
C89	C	0.723378	0.023023	0.652623
C90	C	0.685942	0.060431	0.608916
N91	N	0.655628	0.090720	0.480543
N92	N	0.689043	0.057321	0.519575
H93	H	-0.149997	0.065318	-0.137265
Br94	Br	0.111182	0.064351	-0.254072
Br95	Br	0.587532	0.158820	0.799310
H96	H	0.386916	0.081435	0.137376
Br97	Br	-0.024696	0.065370	-0.178375
Br98	Br	0.573528	0.172750	0.200762
Br99	Br	0.566377	0.179916	0.406783
Br100	Br	0.757152	-0.010767	0.200809
Br101	Br	0.251166	0.066035	-0.254078
Br102	Br	0.594676	0.151646	0.593292
H103	H	0.396467	0.071899	-0.137297
Br104	Br	0.771147	-0.024709	0.799349
Br105	Br	-0.037095	0.077774	0.178490
Br106	Br	0.509355	0.084370	0.178464
Br107	Br	0.521785	0.071970	-0.178387
H108	H	0.111042	0.080750	0.213076
Br109	Br	0.233480	0.083670	0.254175
Br110	Br	0.790617	-0.785917	0.000035
H111	H	0.817816	-0.499800	0.000027
H112	H	0.580753	-0.193769	0.000071
H113	H	-0.159556	0.074852	0.137395
Br114	Br	0.547505	-0.612522	-0.000006
Br115	Br	0.545836	-0.752517	-0.000001
Br116	Br	0.497179	-0.472192	0.000005
H117	H	0.770454	-0.111719	0.000126
Br118	Br	0.749990	-0.003607	0.406828
Br119	Br	0.498855	-0.332207	0.000020
H120	H	0.582049	-0.086003	0.000084
Br121	Br	0.778295	-0.031870	0.593321
H122	H	0.769167	-0.219469	0.000092
H123	H	0.819110	-0.392050	0.000053
H124	H	0.763917	-0.658179	0.000045
