data_functionalizedCrystal
_audit_creation_method	'MofGen! by Chris Wilmer'
_symmetry_space_group_name_H-M	'P1'
_symmetry_Int_Tables_number	1
_symmetry_cell_setting	triclinic
loop_
_symmetry_equiv_pos_as_xyz
  x,y,z
_cell_length_a	11.169417
_cell_length_b	19.805405
_cell_length_c	11.169409
_cell_angle_alpha	89.960143
_cell_angle_beta	89.980176
_cell_angle_gamma	90.027289
loop_
_atom_site_label
_atom_site_type_symbol
_atom_site_fract_x
_atom_site_fract_y
_atom_site_fract_z
Zn1	Zn	1.834828	-0.269393	-0.678480
Zn2	Zn	2.334828	0.230607	-0.178480
Zn3	Zn	1.834661	-0.382602	-0.477771
Zn4	Zn	2.334661	0.117398	0.022229
Zn5	Zn	1.634114	-0.269434	-0.477814
Zn6	Zn	2.134114	0.230566	0.022186
Zn7	Zn	1.634065	-0.382547	-0.678415
Zn8	Zn	2.134065	0.117453	-0.178415
O9	O	1.734417	-0.325994	-0.578120
O10	O	2.234417	0.174006	-0.078120
O11	O	2.002756	-0.284416	-0.651864
O12	O	2.502756	0.215584	-0.151864
O13	O	1.808009	-0.367630	-0.309827
O14	O	2.308009	0.132370	0.190173
O15	O	1.660830	-0.174712	-0.504478
O16	O	2.160830	0.325288	-0.004478
O17	O	2.002633	-0.367590	-0.504404
O18	O	2.502633	0.132410	-0.004404
O19	O	1.808293	-0.174681	-0.651907
O20	O	2.308293	0.325319	-0.151907
O21	O	1.660668	-0.284486	-0.309859
O22	O	2.160668	0.215514	0.190141
O23	O	1.466158	-0.284433	-0.504416
O24	O	1.966158	0.215567	-0.004416
O25	O	1.660746	-0.367496	-0.846374
O26	O	2.160746	0.132504	-0.346374
O27	O	1.466122	-0.367536	-0.651797
O28	O	1.966122	0.132464	-0.151797
O29	O	1.808246	-0.284362	-0.846421
O30	O	2.308246	0.215638	-0.346421
O31	O	1.807962	-0.477311	-0.504341
O32	O	2.307962	0.022689	-0.004341
O33	O	1.660585	-0.477271	-0.651754
O34	O	2.160585	0.022729	-0.151754
C35	C	1.422593	-0.325983	-0.578105
C36	C	1.922593	0.174017	-0.078105
C37	C	1.289193	-0.325995	-0.578127
C38	C	1.789193	0.174005	-0.078127
C39	C	1.734282	-0.501850	-0.578062
C40	C	2.234282	-0.001850	-0.078062
C41	C	1.734334	-0.577082	-0.578077
C42	C	2.234334	-0.077082	-0.078077
C43	C	1.811148	-0.612424	-0.501400
C44	C	2.311148	-0.112424	-0.001400
C45	C	1.811199	-0.683113	-0.501426
C46	C	2.311199	-0.183113	-0.001426
C47	C	1.734429	-0.718457	-0.578125
C48	C	2.234429	-0.218457	-0.078125
C49	C	1.657612	-0.683110	-0.654811
C50	C	2.157612	-0.183110	-0.154811
C51	C	1.657568	-0.612422	-0.654790
C52	C	2.157568	-0.112422	-0.154790
C53	C	1.657789	-0.968183	-0.654900
C54	C	2.157789	-0.468183	-0.154900
C55	C	1.657837	-1.038875	-0.654913
C56	C	2.157837	-0.538875	-0.154913
C57	C	1.811420	-1.038873	-0.501537
C58	C	2.311420	-0.538873	-0.001537
C59	C	1.811376	-0.968186	-0.501515
C60	C	2.311376	-0.468186	-0.001515
C61	C	1.734564	-0.932845	-0.578205
C62	C	2.234564	-0.432845	-0.078205
C63	C	1.734511	-0.856196	-0.578177
C64	C	2.234511	-0.356196	-0.078177
C65	C	1.734475	-0.795104	-0.578148
C66	C	2.234475	-0.295104	-0.078148
C67	C	2.047460	-0.326004	-0.578136
C68	C	2.547460	0.173996	-0.078136
C69	C	2.180860	-0.326009	-0.578143
C70	C	2.680860	0.173991	-0.078143
C71	C	1.734509	-0.325919	-0.891163
C72	C	2.234509	0.174081	-0.391163
C73	C	1.734549	-0.325886	-1.024563
C74	C	2.234549	0.174114	-0.524563
C75	C	1.734586	-0.149451	-0.578205
C76	C	2.234586	0.350549	-0.078205
C77	C	1.734657	-0.074219	-0.578241
C78	C	2.234657	0.425781	-0.078241
C79	C	1.734395	-0.326020	-0.266295
C80	C	2.234395	0.173980	0.233705
C81	C	1.734588	-0.325861	-0.132896
C82	C	2.234588	0.174139	0.367104
H83	H	1.873748	-0.711886	-0.438987
H84	H	2.373748	-0.211886	0.061013
H85	H	1.595244	-0.939413	-0.717341
H86	H	2.095244	-0.439413	-0.217341
H87	H	1.595110	-0.711893	-0.717266
H88	H	2.095110	-0.211893	-0.217266
N89	N	1.575027	-1.076993	-0.737645
N90	N	2.075027	-0.576993	-0.237645
H91	H	1.593622	-1.064646	-0.823411
H92	H	2.093622	-0.564646	-0.323411
H93	H	1.586744	-1.127124	-0.725915
H94	H	2.086744	-0.627124	-0.225915
H95	H	1.873969	-1.067657	-0.439096
H96	H	2.373969	-0.567657	0.060904
H97	H	1.873885	-0.939411	-0.439056
H98	H	2.373885	-0.439411	0.060944
N99	N	1.574721	-0.574295	-0.737487
N100	N	2.074721	-0.074295	-0.237487
H101	H	1.593324	-0.586546	-0.823259
H102	H	2.093324	-0.086546	-0.323259
H103	H	1.489017	-0.586658	-0.718676
H104	H	1.989017	-0.086658	-0.218676
N105	N	1.893946	-0.574305	-0.418670
N106	N	2.393946	-0.074305	0.081330
H107	H	1.942617	-0.607424	-0.370102
H108	H	2.442617	-0.107424	0.129898
H109	H	1.949443	-0.544927	-0.467565
H110	H	2.449443	-0.044927	0.032435
