data_functionalizedCrystal
_audit_creation_method	'MofGen! by Chris Wilmer'
_symmetry_space_group_name_H-M	'P1'
_symmetry_Int_Tables_number	1
_symmetry_cell_setting	triclinic
loop_
_symmetry_equiv_pos_as_xyz
  x,y,z
_cell_length_a	14.971482
_cell_length_b	14.519731
_cell_length_c	13.448316
_cell_angle_alpha	89.992415
_cell_angle_beta	89.993798
_cell_angle_gamma	83.650731
loop_
_atom_site_label
_atom_site_type_symbol
_atom_site_fract_x
_atom_site_fract_y
_atom_site_fract_z
O1	O	1.187026	0.120166	-0.082681
O2	O	0.926634	0.134562	-0.082686
O3	O	1.063724	-0.006877	-0.082675
O4	O	1.049936	0.261606	-0.082693
O5	O	1.063707	-0.006886	0.082709
O6	O	0.926617	0.134553	0.082697
O7	O	1.187009	0.120158	0.082703
Cu8	Cu	1.056811	0.127355	0.097801
Cu9	Cu	1.056832	0.127365	-0.097785
O10	O	1.049919	0.261597	0.082691
C11	C	0.893301	0.133915	0.000005
C12	C	0.794002	0.131987	0.000003
C13	C	0.747348	0.131075	0.090155
C14	C	0.654048	0.129249	0.090156
C15	C	0.607404	0.128342	0.000005
C16	C	0.654065	0.129252	-0.090154
C17	C	0.747364	0.131071	-0.090154
C18	C	0.459601	0.125463	-0.090147
C19	C	0.366296	0.123645	-0.090148
C20	C	0.366285	0.123640	0.090163
C21	C	0.459584	0.125459	0.090163
C22	C	0.506238	0.126371	0.000004
C23	C	1.063069	-0.041241	0.000018
C24	C	1.061134	-0.143620	0.000018
C25	C	1.059560	-0.226763	0.000016
C26	C	1.057595	-0.331070	0.000008
C27	C	1.056035	-0.414208	0.000002
C28	C	1.054070	-0.518523	-0.000004
C29	C	1.220342	0.120805	0.000009
C30	C	1.319641	0.122733	0.000004
C31	C	1.050574	0.295960	-0.000003
C32	C	1.052510	0.398339	-0.000011
N33	N	1.056804	0.127347	0.235365
N34	N	1.056847	0.127366	-0.235349
C35	C	1.117526	0.064743	0.287411
C36	C	1.117531	0.064743	0.391514
C37	C	1.056818	0.127351	0.443570
C38	C	0.996090	0.189957	0.391517
C39	C	0.996080	0.189953	0.287416
C40	C	0.996114	0.189963	0.608497
C41	C	0.996124	0.189969	0.712606
C42	C	1.117565	0.064753	0.712595
C43	C	1.117556	0.064749	0.608494
C44	C	1.056828	0.127357	0.556448
H45	H	0.785318	0.131820	0.163567
N46	N	1.179612	0.000807	0.555359
N47	N	1.178296	-0.084444	0.567002
H48	H	1.222137	-0.129599	0.529486
H49	H	0.616081	0.128507	-0.163557
N50	N	1.179567	0.000764	0.765750
N51	N	1.151076	-0.056535	0.823828
H52	H	1.194859	-0.101736	0.861367
N53	N	0.507246	0.126384	-0.182251
N54	N	0.465592	0.125576	-0.262738
H55	H	0.499241	0.126229	-0.327785
N56	N	0.934093	0.253916	0.765766
N57	N	0.879866	0.309798	0.719288
H58	H	0.836050	0.354958	0.756832
H59	H	0.328294	0.122898	0.163574
H60	H	0.946660	0.240942	0.566125
H61	H	0.946651	0.240930	0.433907
H62	H	0.946633	0.240930	0.245041
H63	H	0.328320	0.122908	-0.163557
H64	H	0.497558	0.126203	0.163573
N65	N	0.606410	0.128333	0.182258
N66	N	0.608693	0.193497	0.242607
H67	H	0.575052	0.192852	0.307660
N68	N	0.795011	0.131995	-0.182251
N69	N	0.753357	0.131182	-0.262738
H70	H	0.787006	0.131830	-0.327786
H71	H	1.166969	0.013765	0.245034
N72	N	1.179531	0.000788	0.444703
N73	N	1.235093	0.030114	0.502808
H74	H	1.278868	-0.015064	0.540383
