data_functionalizedCrystal
_audit_creation_method	'MofGen! by Chris Wilmer'
_symmetry_space_group_name_H-M	'P1'
_symmetry_Int_Tables_number	1
_symmetry_cell_setting	triclinic
loop_
_symmetry_equiv_pos_as_xyz
  x,y,z
_cell_length_a	23.532407
_cell_length_b	15.944551
_cell_length_c	14.421503
_cell_angle_alpha	90.003340
_cell_angle_beta	89.997762
_cell_angle_gamma	83.173708
loop_
_atom_site_label
_atom_site_type_symbol
_atom_site_fract_x
_atom_site_fract_y
_atom_site_fract_z
O1	O	0.755658	0.101953	-0.076998
O2	O	0.589852	0.116706	-0.077025
O3	O	0.677283	-0.012983	-0.077003
O4	O	0.668227	0.231642	-0.077021
O5	O	0.677268	-0.012964	0.077221
O6	O	0.589837	0.116726	0.077198
O7	O	0.755643	0.101972	0.077225
Cu8	Cu	0.672739	0.109351	0.091294
Cu9	Cu	0.672756	0.109328	-0.091094
O10	O	0.668213	0.231662	0.077203
C11	C	0.676899	-0.044265	0.000109
C12	C	0.675772	-0.137501	0.000110
C13	C	0.568627	0.116340	0.000083
C14	C	0.505406	0.115211	0.000073
C15	C	0.618885	-0.351879	0.000087
C16	C	0.645294	-0.413109	0.076133
C17	C	0.673733	-0.308210	0.000102
C18	C	0.645322	-0.413111	-0.075919
C19	C	0.671760	-0.473106	0.000091
C20	C	0.700158	-0.368212	0.076211
C21	C	0.700178	-0.368208	-0.075910
C22	C	0.726627	-0.429421	0.000155
C23	C	0.674869	-0.213217	0.000109
C24	C	0.670629	-0.568097	0.000090
C25	C	0.106572	0.184874	0.000109
C26	C	0.047168	0.183824	0.000115
O27	O	0.010674	0.248403	0.000144
N28	N	0.024243	0.106724	0.000119
C29	C	0.060726	0.030668	0.000127
O30	O	0.035772	-0.035009	0.000132
C31	C	0.120129	0.031718	0.000128
C32	C	0.143051	0.108823	0.000114
C33	C	0.129494	0.261973	0.000097
C34	C	0.188894	0.263022	0.000089
C35	C	0.225373	0.186971	0.000094
C36	C	0.202451	0.109872	0.000107
C37	C	0.156611	-0.044337	0.000143
C38	C	0.216018	-0.043281	0.000144
C39	C	0.238939	0.033825	0.000131
C40	C	0.298329	0.034871	0.000105
N41	N	0.321254	0.111971	0.000100
C42	C	0.284776	0.188022	0.000095
C43	C	-0.064025	0.028468	0.000127
C44	C	-0.123427	0.027417	0.000119
C45	C	-0.136981	0.180574	0.000109
C46	C	-0.077578	0.181624	0.000110
C47	C	-0.041100	0.105569	0.000123
C48	C	0.409521	0.190219	0.000079
C49	C	0.468927	0.191261	0.000067
C50	C	0.482476	0.038104	0.000083
C51	C	0.423075	0.037062	0.000089
C52	C	0.386599	0.113126	0.000090
O53	O	0.334859	-0.029673	0.000080
O54	O	0.309738	0.253687	0.000103
C55	C	0.776868	0.102338	0.000115
C56	C	0.840090	0.103468	0.000119
C57	C	0.668596	0.262943	0.000089
C58	C	0.669723	0.356179	0.000082
N59	N	0.672731	0.109366	0.219575
N60	N	0.672769	0.109306	-0.219375
C61	C	0.632296	0.169308	0.469218
C62	C	0.683757	0.185182	0.531028
C63	C	0.672745	0.109346	0.408736
C64	C	0.621298	0.093492	0.531020
C65	C	0.672754	0.109328	0.591458
C66	C	0.724232	0.125257	0.469185
C67	C	0.661739	0.033535	0.469172
C68	C	0.713237	0.049376	0.530954
C69	C	0.672739	0.109358	0.303475
C70	C	0.672766	0.109315	0.696717
H71	H	0.622089	-0.433014	0.140416
H72	H	0.767753	0.138736	0.442138
H73	H	0.622122	-0.433001	-0.140214
C74	C	0.731462	-0.341467	0.163164
C75	C	0.738287	-0.247712	0.179258
C76	C	0.769587	-0.220965	0.266211
C77	C	0.794063	-0.287973	0.337070
C78	C	0.787238	-0.381735	0.320977
C79	C	0.755938	-0.408482	0.234024
H80	H	0.720168	-0.198103	0.126803
H81	H	0.774639	-0.151557	0.278123
H82	H	0.817233	-0.268174	0.401437
H83	H	0.805357	-0.431344	0.373433
H84	H	0.750886	-0.477890	0.222112
C85	C	0.369403	0.273888	0.000073
C86	C	0.326702	0.294221	-0.080012
C87	C	0.286584	0.377890	-0.080025
C88	C	0.289166	0.441225	0.000046
C89	C	0.331867	0.420893	0.080137
C90	C	0.371986	0.337225	0.080150
H91	H	0.324790	0.247335	-0.139290
H92	H	0.254973	0.392940	-0.139314
H93	H	0.259467	0.503161	0.000036
H94	H	0.333780	0.467780	0.139416
H95	H	0.403597	0.322175	0.139439
C96	C	0.557383	-0.306356	0.000174
C97	C	0.516572	-0.320246	0.080726
C98	C	0.455073	-0.274722	0.080818
C99	C	0.434385	-0.215309	0.000357
C100	C	0.475197	-0.201417	-0.080201
C101	C	0.536696	-0.246941	-0.080293
H102	H	0.531886	-0.364229	0.140293
H103	H	0.424862	-0.285006	0.140453
H104	H	0.388860	-0.181610	0.000425
H105	H	0.459883	-0.157434	-0.139768
H106	H	0.566908	-0.236656	-0.139927
C107	C	0.089375	0.345638	0.000087
C108	C	0.091965	0.408938	-0.080008
C109	C	0.051851	0.492610	-0.080026
C110	C	0.009145	0.512982	0.000051
C111	C	0.006552	0.449680	0.080153
C112	C	0.046667	0.366008	0.080171
H113	H	0.123580	0.393858	-0.139292
H114	H	0.053770	0.539469	-0.139323
H115	H	-0.020550	0.574921	0.000038
H116	H	-0.025062	0.464760	0.139437
H117	H	0.044748	0.319149	0.139468
H118	H	0.772194	-0.462964	0.000205
C119	C	0.759499	-0.019142	0.567354
C120	C	0.822827	-0.015461	0.542709
C121	C	0.869090	-0.083975	0.579110
C122	C	0.852025	-0.156169	0.640158
C123	C	0.788695	-0.159853	0.664807
C124	C	0.742431	-0.091340	0.628405
H125	H	0.835462	0.037984	0.497515
H126	H	0.915972	-0.081247	0.560864
H127	H	0.886272	-0.206887	0.667105
H128	H	0.776060	-0.213298	0.710001
H129	H	0.695550	-0.094067	0.646652
H130	H	0.723363	-0.348281	-0.140196
C131	C	-0.177114	0.264233	0.000112
C132	C	-0.219819	0.284560	-0.079966
C133	C	-0.259953	0.368214	-0.079964
C134	C	-0.257381	0.431541	0.000118
C135	C	-0.214674	0.411216	0.080203
C136	C	-0.174541	0.327562	0.080200
H137	H	-0.221724	0.237680	-0.139253
H138	H	-0.291567	0.383260	-0.139248
H139	H	-0.287090	0.493467	0.000120
H140	H	-0.212769	0.458096	0.139490
H141	H	-0.142926	0.312516	0.139485
C142	C	0.522610	-0.045547	0.000094
C143	C	0.520038	-0.108849	0.080192
C144	C	0.560174	-0.192501	0.080212
C145	C	0.602884	-0.212849	0.000134
C146	C	0.605458	-0.149545	-0.079970
C147	C	0.565321	-0.065894	-0.079990
H148	H	0.488421	-0.093787	0.139475
H149	H	0.558269	-0.239362	0.139510
H150	H	0.632595	-0.274773	0.000149
H151	H	0.637075	-0.164607	-0.139253
H152	H	0.567227	-0.019032	-0.139288
H153	H	0.487586	0.254052	0.000056
H154	H	0.207551	0.325809	0.000078
H155	H	-0.058920	0.244410	0.000104
C156	C	0.586134	0.237859	0.432586
C157	C	0.603235	0.309104	0.370169
C158	C	0.557077	0.377656	0.333535
C159	C	0.493816	0.374964	0.359318
C160	C	0.476712	0.303717	0.421739
C161	C	0.522870	0.235165	0.458372
H162	H	0.650067	0.311099	0.351079
H163	H	0.569739	0.430397	0.287327
H164	H	0.459647	0.425711	0.332200
H165	H	0.429880	0.301722	0.440828
H166	H	0.510208	0.182423	0.504580
C167	C	-0.148636	-0.057401	0.000123
C168	C	-0.134871	-0.120421	0.080211
C169	C	-0.160076	-0.205242	0.080219
C170	C	-0.199047	-0.227043	0.000140
C171	C	-0.212814	-0.164021	-0.079954
C172	C	-0.187608	-0.079200	-0.079963
H173	H	-0.106021	-0.104283	0.139496
H174	H	-0.149885	-0.251894	0.139511
H175	H	-0.217706	-0.289832	0.000146
H176	H	-0.241664	-0.180159	-0.139239
H177	H	-0.197800	-0.032548	-0.139254
H178	H	0.693074	0.249286	0.558197
C179	C	0.562518	0.075371	0.567709
C180	C	0.551912	0.071278	0.672892
C181	C	0.493132	0.053161	0.709575
C182	C	0.444958	0.039138	0.641075
C183	C	0.455562	0.043231	0.535886
C184	C	0.514342	0.061347	0.499202
H185	H	0.587575	0.081659	0.723606
H186	H	0.485282	0.050132	0.787444
H187	H	0.401445	0.025728	0.668230
H188	H	0.419899	0.032850	0.485172
H189	H	0.522192	0.064377	0.421334
H190	H	-0.034327	-0.033470	0.000129
C191	C	0.131411	-0.129158	0.000161
C192	C	0.145180	-0.192167	0.080258
C193	C	0.119983	-0.276995	0.080278
C194	C	0.081016	-0.298813	0.000200
C195	C	0.067245	-0.235802	-0.079902
C196	C	0.092442	-0.150975	-0.079922
H197	H	0.174027	-0.176017	0.139542
H198	H	0.130177	-0.323639	0.139576
H199	H	0.062363	-0.361607	0.000215
H200	H	0.038398	-0.251952	-0.139186
H201	H	0.082248	-0.104331	-0.139220
H202	H	0.404412	-0.025724	0.000087
C203	C	0.256143	-0.126945	0.000155
C204	C	0.253564	-0.190251	0.080247
C205	C	0.293688	-0.273915	0.080255
C206	C	0.336391	-0.294271	0.000171
C207	C	0.338972	-0.230964	-0.079928
C208	C	0.298848	-0.147300	-0.079936
H209	H	0.221952	-0.175183	0.139536
H210	H	0.291778	-0.320779	0.139550
H211	H	0.366093	-0.356204	0.000177
H212	H	0.370584	-0.246031	-0.139216
H213	H	0.300758	-0.100436	-0.139230
C214	C	0.649131	-0.053036	0.432428
C215	C	0.592208	-0.086460	0.456776
C216	C	0.579592	-0.173030	0.420029
C217	C	0.623901	-0.226176	0.358934
C218	C	0.680828	-0.192754	0.334583
C219	C	0.693444	-0.106184	0.371330
H220	H	0.559404	-0.047117	0.502005
H221	H	0.537451	-0.197771	0.438056
H222	H	0.614562	-0.290261	0.331732
H223	H	0.713632	-0.232097	0.289354
H224	H	0.735585	-0.081442	0.353303
