data_functionalizedCrystal
_audit_creation_method	'MofGen! by Chris Wilmer'
_symmetry_space_group_name_H-M	'P1'
_symmetry_Int_Tables_number	1
_symmetry_cell_setting	triclinic
loop_
_symmetry_equiv_pos_as_xyz
  x,y,z
_cell_length_a	14.519709
_cell_length_b	14.472310
_cell_length_c	15.995350
_cell_angle_alpha	89.998838
_cell_angle_beta	96.413740
_cell_angle_gamma	89.993107
loop_
_atom_site_label
_atom_site_type_symbol
_atom_site_fract_x
_atom_site_fract_y
_atom_site_fract_z
O1	O	-1.223680	0.076705	0.109753
O2	O	-0.955180	0.076735	0.122678
O3	O	-1.096770	0.076718	-0.005661
O4	O	-1.082090	0.076721	0.238092
O5	O	-1.096733	-0.076964	-0.005654
O6	O	-0.955143	-0.076947	0.122686
O7	O	-1.223644	-0.076977	0.109760
Cu8	Cu	-1.089390	-0.090995	0.116224
Cu9	Cu	-1.089433	0.090752	0.116215
O10	O	-1.082054	-0.076961	0.238100
C11	C	-0.920803	-0.000102	0.122080
C12	C	-0.818425	-0.000091	0.120275
N13	N	-1.089367	-0.218826	0.116229
C14	C	-0.443541	-0.000129	0.113629
C15	C	-0.547846	-0.000118	0.115475
C16	C	-0.630980	-0.000109	0.116952
C17	C	-0.735291	-0.000100	0.118797
C18	C	-1.089432	-0.592917	0.116212
C19	C	-1.013416	-0.553742	0.184652
C20	C	-1.013591	-0.446654	0.184903
C21	C	-1.089399	-0.407326	0.116220
C22	C	-1.185624	-0.446173	0.135446
C23	C	-1.185197	-0.553295	0.135933
C24	C	-1.070081	-0.553444	0.028343
C25	C	-1.067874	-0.446317	0.028925
C26	C	-1.089386	-0.302438	0.116224
C27	C	-1.089451	-0.697805	0.116210
C28	C	-0.258021	-0.000136	0.110359
C29	C	-0.360399	-0.000135	0.112164
C30	C	-1.096145	-0.000121	-0.036853
C31	C	-1.094325	-0.000116	-0.129806
N32	N	-1.089464	0.218583	0.116203
C33	C	-1.087791	-0.000118	-0.467563
C34	C	-0.986954	0.000238	-0.420280
C35	C	-0.988773	-0.000109	-0.323587
C36	C	-1.091032	-0.000116	-0.299998
C37	C	-1.140748	-0.087880	-0.340997
C38	C	-1.138215	-0.087953	-0.437636
C39	C	-1.140340	0.086812	-0.438000
C40	C	-1.140316	0.087971	-0.341054
C41	C	-1.092869	-0.000118	-0.205298
C42	C	-1.085957	-0.000122	-0.562264
C43	C	-1.082679	-0.000119	0.269292
C44	C	-1.084498	-0.000119	0.362245
H45	H	-0.941658	-0.579522	0.173363
C46	C	-1.242234	-0.092308	-0.321760
H47	H	-1.255216	-0.040549	-0.288470
H48	H	-1.282222	-0.091498	-0.372987
H49	H	-1.251868	-0.147605	-0.291935
H50	H	-1.214889	0.093264	-0.325581
H51	H	-0.997089	-0.420927	0.014338
H52	H	-1.025949	-0.421021	0.250105
H53	H	-1.243530	-0.579208	0.088057
H54	H	-1.214687	0.087396	-0.469649
H55	H	-1.103967	0.152897	-0.313863
H56	H	-1.119644	-0.419549	-0.024402
C57	C	-1.029877	-0.590086	0.272242
H58	H	-1.082877	-0.629027	0.267283
H59	H	-0.977233	-0.624184	0.295476
H60	H	-1.039699	-0.539460	0.308000
H61	H	-1.243542	-0.420697	0.086929
H62	H	-1.125516	-0.578777	-0.022590
C63	C	-0.932717	-0.084290	-0.446826
H64	H	-0.871869	-0.083540	-0.417975
H65	H	-0.963485	-0.139256	-0.433123
H66	H	-0.929324	-0.082210	-0.505765
C67	C	-0.935966	0.084870	-0.285269
H68	H	-0.913202	0.119914	-0.328793
H69	H	-0.976610	0.122000	-0.256919
H70	H	-0.885486	0.065117	-0.246465
H71	H	-1.202250	-0.578272	0.200019
H72	H	-1.107387	0.153331	-0.458592
C73	C	-0.916964	-0.411168	0.169416
H74	H	-0.877247	-0.462222	0.162918
H75	H	-0.922023	-0.374575	0.119811
H76	H	-0.891996	-0.374830	0.215981
H77	H	-0.949399	-0.063120	-0.295779
C78	C	-1.089191	-0.176562	-0.462437
H79	H	-1.087216	-0.177390	-0.521600
H80	H	-1.027830	-0.177920	-0.434729
H81	H	-1.122294	-0.229047	-0.446291
C82	C	-1.209213	-0.409931	0.221037
H83	H	-1.160552	-0.371136	0.245164
H84	H	-1.265342	-0.375699	0.213230
H85	H	-1.216279	-0.460607	0.257529
H86	H	-1.001437	-0.580505	0.009892
H87	H	-0.946665	0.063176	-0.438875
C88	C	-1.238218	-0.093365	-0.481059
H89	H	-1.237349	-0.093444	-0.540360
H90	H	-1.266614	-0.148509	-0.464414
H91	H	-1.272382	-0.041471	-0.465197
C92	C	-1.094055	-0.176104	-0.302737
H93	H	-1.044271	-0.159642	-0.261788
H94	H	-1.138089	-0.211618	-0.276931
H95	H	-1.070977	-0.211474	-0.345894
