data_functionalizedCrystal
_audit_creation_method	'MofGen! by Chris Wilmer'
_symmetry_space_group_name_H-M	'P1'
_symmetry_Int_Tables_number	1
_symmetry_cell_setting	triclinic
loop_
_symmetry_equiv_pos_as_xyz
  x,y,z
_cell_length_a	10.654555
_cell_length_b	9.130313
_cell_length_c	10.654550
_cell_angle_alpha	89.995631
_cell_angle_beta	95.514047
_cell_angle_gamma	90.000876
loop_
_atom_site_label
_atom_site_type_symbol
_atom_site_fract_x
_atom_site_fract_y
_atom_site_fract_z
O1	O	-1.667836	-0.121710	0.176429
O2	O	-1.167836	0.378290	0.676429
O3	O	-1.302358	-0.121732	0.193228
O4	O	-0.802358	0.378268	0.693228
O5	O	-1.493500	-0.121711	0.002089
O6	O	-0.993500	0.378289	0.502089
O7	O	-1.476694	-0.121731	0.367568
O8	O	-0.976694	0.378269	0.867568
O9	O	-1.493487	0.121887	0.002084
O10	O	-0.993487	0.621887	0.502084
O11	O	-1.302345	0.121866	0.193223
O12	O	-0.802345	0.621866	0.693223
O13	O	-1.667823	0.121889	0.176423
O14	O	-1.167823	0.621889	0.676423
Cu15	Cu	-1.485083	0.144120	0.184822
Cu16	Cu	-0.985083	0.644120	0.684822
Cu17	Cu	-1.485098	-0.143964	0.184829
Cu18	Cu	-0.985098	0.356036	0.684829
O19	O	-1.476681	0.121868	0.367562
O20	O	-0.976681	0.621868	0.867562
C21	C	-1.255554	0.000064	0.191991
C22	C	-0.755554	0.500064	0.691991
C23	C	-1.116111	0.000056	0.188296
C24	C	-0.616111	0.500056	0.688296
C25	C	-1.492259	0.000087	-0.044711
C26	C	-0.992259	0.500087	0.455289
C27	C	-1.488567	0.000085	-0.184155
C28	C	-0.988567	0.500085	0.315845
C29	C	-0.919572	-0.132722	0.183097
C30	C	-0.419572	0.367278	0.683097
C31	C	-1.050595	-0.132729	0.186561
C32	C	-0.550595	0.367271	0.686561
C33	C	-1.050599	0.132856	0.186555
C34	C	-0.550599	0.632856	0.686555
C35	C	-0.919580	0.132861	0.183082
C36	C	-0.419580	0.632861	0.683082
N37	N	-1.485081	0.346743	0.184817
N38	N	-0.985081	0.846743	0.684817
C39	C	-0.714627	0.000084	0.177662
C40	C	-0.214627	0.500084	0.677662
C41	C	-0.854069	0.000068	0.181360
C42	C	-0.354069	0.500068	0.681360
N43	N	-1.485110	-0.346586	0.184824
N44	N	-0.985110	0.153414	0.684824
C45	C	-1.569747	0.423404	0.100217
C46	C	-1.069747	0.923404	0.600217
C47	C	-1.569759	0.576741	0.100217
C48	C	-1.069759	1.076741	0.600217
C49	C	-1.400434	0.576742	0.269429
C50	C	-0.900434	1.076742	0.769429
C51	C	-1.400417	0.423408	0.269422
C52	C	-0.900417	0.923408	0.769422
C53	C	-1.601109	0.000091	-0.263638
C54	C	-1.101109	0.500091	0.236362
C55	C	-1.597632	0.000073	-0.394659
C56	C	-1.097632	0.500073	0.105341
C57	C	-1.369063	0.000048	-0.366700
C58	C	-0.869063	0.500048	0.133300
C59	C	-1.372541	0.000056	-0.235682
C60	C	-0.872541	0.500056	0.264318
C61	C	-1.477921	0.000066	0.414363
C62	C	-0.977921	0.500066	0.914363
C63	C	-1.481613	0.000059	0.553806
C64	C	-0.981613	0.500059	1.053806
H65	H	-1.103922	-0.240860	0.187974
H66	H	-0.603922	0.259140	0.687974
H67	H	-1.638684	0.360987	0.031325
H68	H	-1.138684	0.860987	0.531325
H69	H	-1.695585	0.000111	-0.221690
H70	H	-1.195585	0.500111	0.278310
H71	H	-1.280891	0.000046	-0.170962
H72	H	-0.780891	0.500046	0.329038
H73	H	-1.103954	0.240972	0.187960
H74	H	-0.603954	0.740972	0.687960
H75	H	-1.331505	0.639178	0.338314
H76	H	-0.831505	1.139178	0.838314
H77	H	-1.331466	0.360986	0.338314
H78	H	-0.831466	0.860986	0.838314
H79	H	-1.638701	0.639154	0.031326
H80	H	-1.138701	1.139154	0.531326
O81	O	-0.848914	0.276090	0.181216
O82	O	-0.348914	0.776090	0.681216
H83	H	-0.916474	0.368429	0.183018
H84	H	-0.416474	0.868429	0.683018
H85	H	-0.866238	-0.240851	0.181694
H86	H	-0.366238	0.259149	0.681694
O87	O	-1.719015	0.000098	-0.480393
O88	O	-1.219015	0.500098	0.019607
H89	H	-1.800273	0.000134	-0.422546
H90	H	-1.300273	0.500134	0.077454
O91	O	-1.243923	0.000049	-0.422274
O92	O	-0.743923	0.500049	0.077726
H93	H	-1.260409	0.000066	-0.526733
H94	H	-0.760409	0.500066	-0.026733
