data_functionalizedCrystal
_audit_creation_method	'MofGen! by Chris Wilmer'
_symmetry_space_group_name_H-M	'P1'
_symmetry_Int_Tables_number	1
_symmetry_cell_setting	triclinic
loop_
_symmetry_equiv_pos_as_xyz
  x,y,z
_cell_length_a	27.731994
_cell_length_b	27.732048
_cell_length_c	9.565339
_cell_angle_alpha	89.995294
_cell_angle_beta	90.002574
_cell_angle_gamma	82.631595
loop_
_atom_site_label
_atom_site_type_symbol
_atom_site_fract_x
_atom_site_fract_y
_atom_site_fract_z
O1	O	0.640944	0.057389	-0.116075
O2	O	0.500147	0.066162	-0.116124
O3	O	0.574918	-0.008622	-0.116072
O4	O	0.566173	0.132173	-0.116128
O5	O	0.574912	-0.008618	0.116448
O6	O	0.500141	0.066166	0.116396
O7	O	0.640938	0.057393	0.116445
Zn8	Zn	0.570539	0.061781	0.153338
Zn9	Zn	0.570546	0.061774	-0.153017
O10	O	0.566167	0.132177	0.116392
C11	C	0.482137	0.065984	0.000130
C12	C	0.428480	0.065442	0.000113
C13	C	0.095759	0.062028	0.126915
C14	C	-0.105900	0.059967	0.126931
O15	O	-0.131975	0.059682	0.234724
N16	N	-0.131111	0.059708	0.000185
C17	C	-0.105905	0.059962	-0.126575
O18	O	-0.131975	0.059690	-0.234380
C19	C	0.095753	0.062020	-0.126590
C20	C	0.120961	0.062283	0.000165
C21	C	0.120967	0.062291	0.253659
C22	C	0.171378	0.062809	0.253654
C23	C	0.196581	0.063064	0.126904
C24	C	0.171372	0.062801	0.000159
C25	C	0.120959	0.062270	-0.253348
C26	C	0.171377	0.062784	-0.253341
C27	C	0.196585	0.063047	-0.126586
C28	C	0.246986	0.063575	-0.126596
N29	N	0.272198	0.063833	0.000150
C30	C	0.246995	0.063578	0.126900
C31	C	-0.211778	0.058882	-0.126558
C32	C	-0.262192	0.058369	-0.126554
C33	C	-0.262184	0.058373	0.126952
C34	C	-0.211769	0.058890	0.126947
C35	C	-0.186566	0.059141	0.000189
C36	C	0.352862	0.064666	0.126879
C37	C	0.403278	0.065186	0.126863
C38	C	0.403265	0.065180	-0.126643
C39	C	0.352853	0.064662	-0.126627
C40	C	0.327654	0.064404	0.000145
O41	O	0.273093	0.063855	-0.234333
O42	O	0.273076	0.063840	0.234690
C43	C	0.045347	0.061510	0.126920
C44	C	0.020139	0.061247	0.000176
C45	C	0.045342	0.061503	-0.126574
C46	C	-0.030275	0.060734	0.000179
C47	C	-0.055478	0.060479	0.126929
C48	C	-0.030266	0.060737	0.253676
C49	C	0.020145	0.061255	0.253670
C50	C	0.020130	0.061244	-0.253321
C51	C	-0.030281	0.060726	-0.253305
C52	C	-0.055484	0.060471	-0.126555
C53	C	0.574732	-0.026627	0.000192
C54	C	0.574179	-0.080282	0.000203
C55	C	0.614884	-0.419105	0.000146
C56	C	0.612833	-0.620764	0.000126
O57	O	0.650055	-0.652027	0.000077
N58	N	0.568496	-0.639879	0.000112
C59	C	0.524670	-0.608576	0.000093
O60	O	0.486912	-0.629462	0.000067
C61	C	0.526721	-0.406918	0.000104
C62	C	0.571061	-0.387805	0.000132
C63	C	0.659220	-0.399992	0.000172
C64	C	0.659732	-0.349580	0.000185
C65	C	0.615908	-0.318281	0.000171
C66	C	0.571573	-0.337394	0.000144
C67	C	0.482895	-0.375615	0.000075
C68	C	0.483412	-0.325198	0.000074
C69	C	0.527751	-0.306086	0.000103
C70	C	0.528262	-0.255683	0.000143
N71	N	0.572598	-0.236567	0.000157
C72	C	0.616421	-0.267867	0.000171
C73	C	0.523596	-0.714450	0.000091
C74	C	0.523083	-0.764864	0.000091
C75	C	0.611246	-0.777049	0.000120
C76	C	0.611759	-0.726633	0.000130
C77	C	0.567932	-0.695335	0.000105
C78	C	0.617494	-0.161998	0.000199
C79	C	0.618002	-0.111581	0.000217
C80	C	0.529839	-0.099401	0.000181
C81	C	0.529331	-0.149813	0.000169
C82	C	0.573162	-0.181111	0.000174
O83	O	0.491060	-0.224391	0.000176
O84	O	0.654174	-0.246971	0.000167
C85	C	0.614372	-0.469517	0.000133
C86	C	0.570036	-0.488629	0.000106
C87	C	0.526213	-0.457330	0.000093
C88	C	0.569523	-0.539043	0.000106
C89	C	0.613346	-0.570343	0.000120
C90	C	0.657683	-0.551228	0.000134
C91	C	0.658195	-0.500816	0.000147
C92	C	0.481876	-0.476445	0.000079
C93	C	0.481367	-0.526857	0.000067
C94	C	0.525191	-0.558157	0.000081
C95	C	0.658949	0.057571	0.000187
C96	C	0.712605	0.058114	0.000196
C97	C	0.566353	0.150182	0.000125
C98	C	0.566906	0.203837	0.000105
N99	N	0.570537	0.061784	0.362417
N100	N	0.570552	0.061767	-0.362097
C101	C	0.535947	0.096358	0.453596
C102	C	0.579560	0.105403	0.546786
C103	C	0.526943	0.052743	0.546783
C104	C	0.614171	0.070851	0.453555
C105	C	0.561526	0.018172	0.453544
C106	C	0.605170	0.027198	0.546692
H107	H	0.332350	0.064460	0.230110
N108	N	0.478102	0.042617	0.601015
H109	H	0.482392	0.011951	0.659106
H110	H	0.463391	0.070802	0.660551
H111	H	0.494160	-0.073908	0.000174
N112	N	0.658515	-0.810810	0.000121
H113	H	0.677878	-0.804708	0.086318
H114	H	0.651418	-0.845632	0.000062
N115	N	0.704951	-0.584989	0.000140
H116	H	0.724312	-0.578888	0.086343
H117	H	0.697855	-0.619811	0.000075
H118	H	0.587192	0.142277	0.587741
H119	H	0.446189	-0.450966	0.000064
H120	H	0.423800	0.065403	0.230086
N121	N	0.663026	0.081026	0.399556
H122	H	0.662715	0.080985	0.293971
H123	H	0.669891	0.113843	0.434398
N124	N	0.436141	-0.291440	0.000040
H125	H	0.407978	-0.311201	0.000021
H126	H	0.434427	-0.270261	0.086241
N127	N	0.433540	-0.547466	0.000025
H128	H	0.439860	-0.584153	0.000014
H129	H	0.414375	-0.535997	0.086212
H130	H	0.100452	0.062083	0.356880
N131	N	0.643963	-0.011544	0.600510
H132	H	0.676865	-0.004657	0.566414
H133	H	0.643528	-0.011508	0.706088
N134	N	0.093778	0.061980	-0.390062
H135	H	0.098408	0.092041	-0.445504
H136	H	0.106717	0.032068	-0.445327
H137	H	0.695837	-0.334024	0.000202
H138	H	0.506722	0.125623	0.412721
H139	H	0.040665	0.061470	0.356887
N140	N	0.047311	0.061525	-0.390031
H141	H	0.072375	0.031764	-0.395686
H142	H	0.023656	0.061301	-0.470239
H143	H	-0.191248	0.059105	0.230162
H144	H	0.553880	-0.018690	0.412556
N145	N	0.706018	-0.480206	0.000180
H146	H	0.733698	-0.507689	0.000186
H147	H	0.708157	-0.459551	-0.086014
N148	N	0.198559	0.063091	0.390377
H149	H	0.193927	0.033025	0.445793
H150	H	0.234311	0.063475	0.371055
N151	N	-0.289376	0.058096	0.263656
H152	H	-0.306684	0.028238	0.268471
H153	H	-0.265647	0.057689	0.343877
H154	H	-0.191263	0.059086	-0.229786
N155	N	-0.289380	0.058092	-0.263267
H156	H	-0.265759	0.058330	-0.343556
H157	H	-0.306151	0.027900	-0.268777
H158	H	0.191894	0.062988	-0.356566
H159	H	0.332327	0.064456	-0.229841
N160	N	0.430451	0.065453	-0.263351
H161	H	0.447224	0.095641	-0.269020
H162	H	0.455487	0.035668	-0.268888
H163	H	-0.050796	0.060532	0.356880
H164	H	-0.050802	0.060516	-0.356532
N165	N	0.665827	-0.090967	0.000256
H166	H	0.693510	-0.118448	0.000259
H167	H	0.667964	-0.070311	-0.085935
N168	N	0.664768	-0.195750	0.000204
H169	H	0.692928	-0.175986	0.000226
H170	H	0.666474	-0.216936	0.086400
H171	H	0.647863	-0.711076	0.000152
N172	N	0.706489	-0.433748	0.000197
H173	H	0.725854	-0.427634	-0.085985
H174	H	0.725803	-0.427618	0.086463
N175	N	0.475260	-0.785475	0.000098
H176	H	0.447579	-0.757993	0.000090
H177	H	0.473124	-0.806125	-0.086098
H178	H	0.487905	-0.688970	0.000070
N179	N	0.435067	-0.396213	0.000032
H180	H	0.432890	-0.416853	-0.086170
H181	H	0.432904	-0.416837	0.086278
N182	N	0.481509	-0.170431	0.000158
H183	H	0.453826	-0.142951	0.000156
H184	H	0.479379	-0.191075	-0.086051
