data_functionalizedCrystal
_audit_creation_method	'MofGen! by Chris Wilmer'
_symmetry_space_group_name_H-M	'P1'
_symmetry_Int_Tables_number	1
_symmetry_cell_setting	triclinic
loop_
_symmetry_equiv_pos_as_xyz
  x,y,z
_cell_length_a	11.169417
_cell_length_b	18.050588
_cell_length_c	11.169409
_cell_angle_alpha	90.035796
_cell_angle_beta	90.019513
_cell_angle_gamma	90.030810
loop_
_atom_site_label
_atom_site_type_symbol
_atom_site_fract_x
_atom_site_fract_y
_atom_site_fract_z
Zn1	Zn	1.834802	-0.295575	0.678504
Zn2	Zn	2.168135	0.037759	1.011837
Zn3	Zn	2.501469	0.371092	1.345171
Zn4	Zn	1.834624	-0.419790	0.477809
Zn5	Zn	2.167957	-0.086456	0.811142
Zn6	Zn	2.501291	0.246877	1.144475
Zn7	Zn	1.634088	-0.295621	0.477839
Zn8	Zn	1.967421	0.037713	0.811173
Zn9	Zn	2.300755	0.371046	1.144506
Zn10	Zn	1.634028	-0.419730	0.678455
Zn11	Zn	1.967361	-0.086397	1.011788
Zn12	Zn	2.300695	0.246937	1.345121
O13	O	1.734386	-0.357679	0.578152
O14	O	2.067719	-0.024345	0.911485
O15	O	2.401052	0.308988	1.244818
O16	O	2.002728	-0.312058	0.651889
O17	O	2.336061	0.021276	0.985222
O18	O	2.669395	0.354609	1.318556
O19	O	1.807973	-0.403363	0.309863
O20	O	2.141306	-0.070029	0.643196
O21	O	2.474640	0.263304	0.976530
O22	O	1.660813	-0.191690	0.504491
O23	O	1.994146	0.141643	0.837825
O24	O	2.327479	0.474977	1.171158
O25	O	2.002597	-0.403318	0.504439
O26	O	2.335931	-0.069985	0.837772
O27	O	2.669264	0.263349	1.171106
O28	O	1.808276	-0.191656	0.651919
O29	O	2.141610	0.141677	0.985252
O30	O	2.474943	0.475011	1.318585
O31	O	1.660640	-0.312136	0.309885
O32	O	1.993973	0.021197	0.643219
O33	O	2.327307	0.354530	0.976552
O34	O	1.466130	-0.312078	0.504444
O35	O	1.799464	0.021255	0.837777
O36	O	2.132797	0.354588	1.171110
O37	O	1.660711	-0.403216	0.846411
O38	O	1.994044	-0.069883	1.179744
O39	O	2.327377	0.263450	1.513078
O40	O	1.466086	-0.403261	0.651835
O41	O	1.799420	-0.069928	0.985168
O42	O	2.132753	0.263406	1.318501
O43	O	1.808218	-0.312000	0.846447
O44	O	2.141552	0.021334	1.179781
O45	O	2.474885	0.354667	1.513114
O46	O	1.807915	-0.523706	0.504391
O47	O	2.141248	-0.190373	0.837725
O48	O	2.474582	0.142960	1.171058
O49	O	1.660538	-0.523663	0.651805
O50	O	1.993871	-0.190329	0.985138
O51	O	2.327205	0.143004	1.318472
C52	C	1.422561	-0.357669	0.578138
C53	C	1.755894	-0.024335	0.911471
C54	C	2.089228	0.308998	1.244805
C55	C	1.289161	-0.357682	0.578160
C56	C	1.622494	-0.024349	0.911494
C57	C	1.955828	0.308984	1.244827
C58	C	1.734233	-0.550631	0.578116
C59	C	2.067567	-0.217298	0.911449
C60	C	2.400900	0.116036	1.244782
C61	C	1.734278	-0.633177	0.578140
C62	C	2.067611	-0.299843	0.911474
C63	C	2.400945	0.033490	1.244807
C64	C	1.654261	-0.882005	0.658305
C65	C	1.987594	-0.548672	0.991638
C66	C	2.320927	-0.215339	1.324971
C67	C	1.763699	-0.832531	0.687749
C68	C	2.097033	-0.499197	1.021083
C69	C	2.430366	-0.165864	1.354416
C70	C	1.734527	-0.930297	0.578207
C71	C	2.067861	-0.596964	0.911541
C72	C	2.401194	-0.263630	1.244874
C73	C	1.624972	-0.832690	0.548786
C74	C	1.958305	-0.499357	0.882119
C75	C	2.291638	-0.166023	1.215453
C76	C	1.734399	-0.784312	0.578177
C77	C	2.067732	-0.450979	0.911511
C78	C	2.401066	-0.117645	1.244844
C79	C	1.844025	-0.881909	0.607709
C80	C	2.177358	-0.548576	0.941042
C81	C	2.510691	-0.215243	1.274376
C82	C	1.705223	-0.882073	0.468695
C83	C	2.038556	-0.548740	0.802028
C84	C	2.371890	-0.215407	1.135361
C85	C	1.814737	-0.832621	0.498098
C86	C	2.148071	-0.499287	0.831431
C87	C	2.481404	-0.165954	1.164765
C88	C	1.734600	-1.014395	0.578228
C89	C	2.067933	-0.681062	0.911561
C90	C	2.401266	-0.347729	1.244894
C91	C	1.734339	-0.700215	0.578157
C92	C	2.067672	-0.366882	0.911490
C93	C	2.401006	-0.033549	1.244824
C94	C	2.047428	-0.357689	0.578166
C95	C	2.380761	-0.024356	0.911499
C96	C	2.714095	0.308977	1.244833
C97	C	2.180828	-0.357694	0.578172
C98	C	2.514161	-0.024360	0.911506
C99	C	2.847494	0.308973	1.244839
C100	C	1.734478	-0.357596	0.891194
C101	C	2.067811	-0.024263	1.224528
C102	C	2.401144	0.309070	1.557861
C103	C	1.734517	-0.357561	1.024594
C104	C	2.067850	-0.024228	1.357928
C105	C	2.401184	0.309106	1.691261
C106	C	1.734571	-0.163973	0.578214
C107	C	2.067904	0.169360	0.911547
C108	C	2.401238	0.502694	1.244881
C109	C	1.734650	-0.081427	0.578241
C110	C	2.067983	0.251906	0.911574
C111	C	2.401317	0.585239	1.244907
C112	C	1.734363	-0.357707	0.266327
C113	C	2.067696	-0.024374	0.599660
C114	C	2.401029	0.308959	0.932994
C115	C	1.734556	-0.357533	0.132927
C116	C	2.067889	-0.024200	0.466261
C117	C	2.401223	0.309133	0.799594
H118	H	1.586520	-0.903687	0.726105
H119	H	1.919853	-0.570354	1.059438
H120	H	2.253186	-0.237020	1.392771
H121	H	1.936648	-0.903441	0.632688
H122	H	2.269981	-0.570108	0.966021
H123	H	2.603314	-0.236775	1.299354
H124	H	1.788439	-0.810771	0.780349
H125	H	2.121772	-0.477438	1.113682
H126	H	2.455105	-0.144105	1.447016
F127	F	1.503943	-0.804426	0.516275
F128	F	1.837277	-0.471092	0.849609
F129	F	2.170610	-0.137759	1.182942
H130	H	1.882640	-0.811074	0.430349
H131	H	2.215973	-0.477741	0.763683
H132	H	2.549306	-0.144408	1.097016
F133	F	1.672846	-0.910538	0.347694
F134	F	2.006180	-0.577204	0.681027
F135	F	2.339513	-0.243871	1.014361
