data_functionalizedCrystal
_audit_creation_method	'MofGen! by Chris Wilmer'
_symmetry_space_group_name_H-M	'P1'
_symmetry_Int_Tables_number	1
_symmetry_cell_setting	triclinic
loop_
_symmetry_equiv_pos_as_xyz
  x,y,z
_cell_length_a	29.839131
_cell_length_b	12.759401
_cell_length_c	12.759393
_cell_angle_alpha	90.018713
_cell_angle_beta	89.963159
_cell_angle_gamma	89.957055
loop_
_atom_site_label
_atom_site_type_symbol
_atom_site_fract_x
_atom_site_fract_y
_atom_site_fract_z
Zn1	Zn	-0.178813	-1.606048	-0.593974
Zn2	Zn	-0.253950	-1.605864	-0.418275
Zn3	Zn	-0.178837	-1.430354	-0.418309
Zn4	Zn	-0.253919	-1.430257	-0.593912
O5	O	-0.216380	-1.518131	-0.506117
O6	O	-0.188783	-1.753045	-0.570679
O7	O	-0.244010	-1.582546	-0.271258
O8	O	-0.115967	-1.453778	-0.441652
O9	O	-0.243986	-1.752910	-0.441593
O10	O	-0.115949	-1.582860	-0.570712
O11	O	-0.188824	-1.453599	-0.271283
O12	O	-0.188794	-1.283320	-0.441592
O13	O	-0.243933	-1.453613	-0.740941
O14	O	-0.243956	-1.283249	-0.570606
O15	O	-0.188753	-1.582766	-0.740987
O16	O	-0.316813	-1.582452	-0.441533
O17	O	-0.316790	-1.453434	-0.570573
C18	C	-0.216374	-1.245163	-0.506097
C19	C	-0.216383	-1.128387	-0.506113
C20	C	-0.333103	-1.517941	-0.506065
C21	C	-0.383037	-1.517956	-0.506078
C22	C	-0.216337	-1.518199	-0.780151
C23	C	-0.216318	-1.518228	-0.896928
C24	C	-0.692680	-1.585433	-0.439024
C25	C	-0.880353	-1.585562	-0.439065
O26	O	-0.904617	-1.642783	-0.382014
N27	N	-0.903822	-1.518349	-0.506197
C28	C	-0.880370	-1.451103	-0.573327
O29	O	-0.904638	-1.393944	-0.630435
C30	C	-0.692698	-1.450979	-0.573291
C31	C	-0.669231	-1.518190	-0.506148
C32	C	-0.669213	-1.652638	-0.371888
C33	C	-0.622297	-1.652601	-0.371874
C34	C	-0.598849	-1.585358	-0.438997
C35	C	-0.622316	-1.518152	-0.506134
C36	C	-0.669247	-1.383739	-0.640427
C37	C	-0.622326	-1.383716	-0.640413
C38	C	-0.598859	-1.450927	-0.573270
C39	C	-0.551952	-1.450872	-0.573244
N40	N	-0.528482	-1.518086	-0.506113
C41	C	-0.551931	-1.585329	-0.438989
C42	C	-0.978901	-1.451171	-0.573340
C43	C	-1.025818	-1.451200	-0.573348
C44	C	-1.025798	-1.585662	-0.439087
C45	C	-0.978879	-1.585626	-0.439075
C46	C	-0.955431	-1.518385	-0.506209
C47	C	-0.453405	-1.585245	-0.438965
C48	C	-0.406486	-1.585199	-0.438955
C49	C	-0.406510	-1.450742	-0.573219
C50	C	-0.453426	-1.450784	-0.573226
C51	C	-0.476872	-1.518044	-0.506096
O52	O	-0.527658	-1.393690	-0.630274
O53	O	-0.527655	-1.642496	-0.381907
C54	C	-0.739595	-1.585470	-0.439038
C55	C	-0.763062	-1.518264	-0.506175
C56	C	-0.739613	-1.451021	-0.573298
C57	C	-0.809980	-1.518293	-0.506183
C58	C	-0.833428	-1.585536	-0.439060
C59	C	-0.809959	-1.652750	-0.371928
C60	C	-0.763044	-1.652713	-0.371915
C61	C	-0.763083	-1.383807	-0.640430
C62	C	-0.809998	-1.383849	-0.640437
C63	C	-0.833447	-1.451092	-0.573314
C64	C	-0.099202	-1.518350	-0.506193
C65	C	-0.049267	-1.518443	-0.506225
C66	C	-0.216386	-1.792164	-0.506139
C67	C	-0.216388	-1.908941	-0.506148
C68	C	-0.245150	-1.073515	-0.573185
C69	C	-0.245151	-0.963791	-0.573206
C70	C	-0.187618	-0.963820	-0.439073
C71	C	-0.187615	-1.073542	-0.439058
C72	C	-0.261271	-0.813873	-0.697062
C73	C	-0.290045	-0.758998	-0.764125
C74	C	-0.333888	-0.794547	-0.780061
C75	C	-0.348966	-0.884970	-0.728920
C76	C	-0.320195	-0.939839	-0.661849
C77	C	-0.276346	-0.904292	-0.645932
C78	C	-0.171499	-1.223462	-0.315200
C79	C	-0.142730	-1.278334	-0.248124
C80	C	-0.098886	-1.242787	-0.232176
C81	C	-0.083810	-1.152360	-0.283300
C82	C	-0.112579	-1.097489	-0.350376
C83	C	-0.156422	-1.133044	-0.366325
C84	C	-0.245037	-1.451000	-0.951768
C85	C	-0.245020	-1.451038	-1.061492
C86	C	-0.187562	-1.585533	-1.061526
C87	C	-0.187582	-1.585500	-0.951804
C88	C	-0.297976	-1.413443	-1.211412
C89	C	-0.326690	-1.346200	-1.266256
C90	C	-0.333591	-1.243661	-1.230639
C91	C	-0.311771	-1.208346	-1.140179
C92	C	-0.283052	-1.275584	-1.085341
C93	C	-0.276160	-1.378137	-1.120957
C94	C	-0.134626	-1.623084	-0.801882
C95	C	-0.105905	-1.690317	-0.747042
C96	C	-0.099000	-1.792857	-0.782657
C97	C	-0.120812	-1.828169	-0.873120
C98	C	-0.149533	-1.760935	-0.927960
C99	C	-0.156439	-1.658396	-0.892337
C100	C	-0.216391	-1.518124	-0.233150
C101	C	-0.216282	-1.518298	-0.116374
H102	H	-0.387380	-1.639930	-0.384275
H103	H	-0.075464	-1.287468	-0.177548
H104	H	-0.292364	-1.496942	-1.240413
C105	C	-0.276434	-1.133117	-0.645818
C106	C	-0.305206	-1.196016	-0.586202
C107	C	-0.334035	-1.250921	-0.653080
H108	H	-0.259323	-1.176053	-0.691683
H109	H	-0.293592	-1.084751	-0.685750
H110	H	-0.288050	-1.244376	-0.546289
H111	H	-0.322327	-1.153106	-0.540340
H112	H	-0.351193	-1.202556	-0.693012
H113	H	-0.316919	-1.293852	-0.698942
H114	H	-0.353562	-1.293597	-0.612641
H115	H	-0.356971	-1.188911	-1.275301
H116	H	-0.384669	-0.913900	-0.741892
H117	H	-0.332471	-1.013459	-0.620210
H118	H	-0.075607	-1.847593	-0.738004
H119	H	-0.743994	-1.329051	-0.695091
C120	C	-0.113413	-1.939526	-0.911823
C121	C	-0.154395	-1.992875	-0.913286
C122	C	-0.147594	-2.095455	-0.948946
H123	H	-0.093211	-1.974646	-0.866266
H124	H	-0.101209	-1.937800	-0.980591
H125	H	-0.166592	-1.994607	-0.844529
H126	H	-0.174603	-1.957787	-0.958846
H127	H	-0.135390	-2.093728	-1.017714
H128	H	-0.127391	-2.130564	-0.903385
H129	H	-0.175399	-2.131662	-0.949953
H130	H	-0.357316	-0.749860	-0.834667
H131	H	-1.044898	-1.640414	-0.384433
C132	C	-0.273709	-0.660913	-0.819854
C133	C	-0.276502	-0.675711	-0.928388
C134	C	-0.261465	-0.585375	-0.979758
H135	H	-0.243471	-0.647520	-0.800900
H136	H	-0.291860	-0.602987	-0.800042
H137	H	-0.258351	-0.733619	-0.948192
H138	H	-0.306736	-0.689090	-0.947373
H139	H	-0.279616	-0.527449	-0.959946
H140	H	-0.231227	-0.571990	-0.960796
H141	H	-0.263362	-0.595399	-1.053403
H142	H	-0.225570	-0.784927	-0.684103
C143	C	-0.082245	-1.652228	-0.648695
C144	C	-0.094822	-1.714998	-0.563648
C145	C	-0.073032	-1.679978	-0.473028
H146	H	-0.090442	-1.581560	-0.635137
H147	H	-0.050732	-1.656580	-0.658470
H148	H	-0.126328	-1.710636	-0.553873
H149	H	-0.086624	-1.785667	-0.577171
H150	H	-0.041519	-1.684330	-0.482803
H151	H	-0.081231	-1.609310	-0.459480
H152	H	-0.081559	-1.722567	-0.415315
C153	C	-0.142079	-1.511693	-0.763325
C154	C	-0.101129	-1.458212	-0.761904
C155	C	-0.107995	-1.355594	-0.726424
H156	H	-0.154293	-1.513311	-0.694577
H157	H	-0.162298	-1.476733	-0.808986
H158	H	-0.080917	-1.493162	-0.716243
H159	H	-0.088908	-1.456564	-0.830639
H160	H	-0.128214	-1.320635	-0.772085
H161	H	-0.120210	-1.357224	-0.657679
H162	H	-0.080213	-1.319292	-0.725464
H163	H	-0.472490	-1.640017	-0.384304
C164	C	-0.156288	-1.658499	-1.120976
C165	C	-0.111843	-1.635716	-1.094287
C166	C	-0.083019	-1.702918	-1.149019
H167	H	-0.160327	-1.648955	-1.194193
H168	H	-0.162841	-1.729090	-1.102973
H169	H	-0.105292	-1.565142	-1.112298
H170	H	-0.107790	-1.645266	-1.021080
H171	H	-0.089572	-1.773509	-1.131015
H172	H	-0.087062	-1.693369	-1.222233
H173	H	-0.052861	-1.687476	-1.130911
H174	H	-0.155009	-1.351963	-0.206496
C175	C	-0.596904	-1.725703	-0.298947
C176	C	-0.627489	-1.784614	-0.240198
C177	C	-0.604117	-1.851984	-0.173018
H178	H	-0.578630	-1.685658	-0.253029
H179	H	-0.578580	-1.771503	-0.339155
H180	H	-0.645805	-1.738820	-0.199993
H181	H	-0.645764	-1.824680	-0.286089
H182	H	-0.585793	-1.897784	-0.213226
H183	H	-0.585844	-1.811931	-0.127107
H184	H	-0.624865	-1.891970	-0.133156
H185	H	-0.344457	-1.374963	-1.339908
H186	H	-0.688300	-1.707401	-0.317227
C187	C	-0.381101	-1.377811	-0.646272
C188	C	-0.392478	-1.400637	-0.750241
C189	C	-0.369082	-1.333476	-0.817573
H190	H	-0.349792	-1.387363	-0.636787
H191	H	-0.388831	-1.307209	-0.630915
H192	H	-0.384745	-1.471222	-0.765593
H193	H	-0.423783	-1.391079	-0.759759
H194	H	-0.376812	-1.262874	-0.802216
H195	H	-0.337774	-1.343033	-0.808079
H196	H	-0.376801	-1.348948	-0.888123
H197	H	-0.164197	-0.919152	-0.384478
C198	C	-0.173134	-1.799351	-1.026256
C199	C	-0.141148	-1.829179	-1.100876
C200	C	-0.162872	-1.864580	-1.191435
H201	H	-0.191224	-1.744700	-1.053948
H202	H	-0.191474	-1.857801	-1.009377
H203	H	-0.122817	-1.770736	-1.117756
H204	H	-0.123057	-1.883839	-1.073218
H205	H	-0.181211	-1.923030	-1.174556
H206	H	-0.180961	-1.809924	-1.219117
H207	H	-0.141173	-1.884832	-1.242072
H208	H	-0.265285	-1.246830	-1.011694
H209	H	-0.959813	-1.396412	-0.628010
C210	C	-0.953484	-1.658717	-0.366141
C211	C	-0.984067	-1.717621	-0.307379
C212	C	-0.960693	-1.784977	-0.240189
H213	H	-0.935211	-1.618662	-0.320230
H214	H	-0.935160	-1.704522	-0.406341
H215	H	-1.002384	-1.671822	-0.267181
H216	H	-1.002342	-1.757698	-0.353261
H217	H	-0.942368	-1.830782	-0.280390
H218	H	-0.942420	-1.744914	-0.194286
H219	H	-0.981440	-1.824958	-0.200318
H220	H	-0.317387	-1.124844	-1.111194
C221	C	-0.737650	-1.725806	-0.298980
C222	C	-0.768236	-1.784714	-0.240228
C223	C	-0.744863	-1.852074	-0.173038
H224	H	-0.719378	-1.685755	-0.253064
H225	H	-0.719325	-1.771609	-0.339180
H226	H	-0.786553	-1.738917	-0.200030
H227	H	-0.786509	-1.824788	-0.286116
H228	H	-0.726538	-1.897877	-0.213238
H229	H	-0.726592	-1.812014	-0.127129
H230	H	-0.765612	-1.892058	-0.133173
C231	C	-0.096120	-0.999366	-0.405836
C232	C	-0.051562	-0.979988	-0.377538
C233	C	-0.036383	-0.889617	-0.428617
H234	H	-0.114221	-0.941378	-0.386007
H235	H	-0.097941	-1.009206	-0.479520
H236	H	-0.049744	-0.970141	-0.303871
H237	H	-0.033450	-1.037952	-0.397369
H238	H	-0.038205	-0.899457	-0.502301
H239	H	-0.054488	-0.831636	-0.408784
H240	H	-0.006148	-0.876463	-0.409432
C241	C	-1.051213	-1.378180	-0.646354
C242	C	-1.020629	-1.319311	-0.705152
C243	C	-1.044004	-1.252046	-0.772433
H244	H	-1.069550	-1.332340	-0.606250
H245	H	-1.069473	-1.418331	-0.692230
H246	H	-1.002377	-1.279163	-0.659282
H247	H	-1.002291	-1.365123	-0.745277
H248	H	-1.062264	-1.292198	-0.818308
H249	H	-1.062340	-1.206214	-0.732320
H250	H	-1.023257	-1.212103	-0.812342
H251	H	-0.688346	-1.329004	-0.695097
C252	C	-0.596950	-1.310596	-0.713348
C253	C	-0.627547	-1.251734	-0.772128
C254	C	-0.604189	-1.184357	-0.839314
H255	H	-0.578614	-1.350633	-0.759247
H256	H	-0.578690	-1.264765	-0.673144
H257	H	-0.645800	-1.297559	-0.812328
H258	H	-0.645885	-1.211675	-0.726256
H259	H	-0.585929	-1.138526	-0.799111
H260	H	-0.585853	-1.224402	-0.885207
H261	H	-0.624946	-1.144404	-0.879197
C262	C	-0.478929	-1.377676	-0.645943
C263	C	-0.505910	-1.310372	-0.586410
C264	C	-0.529401	-1.243008	-0.653368
H265	H	-0.497233	-1.417731	-0.691787
H266	H	-0.458256	-1.337561	-0.685893
H267	H	-0.526581	-1.350483	-0.546477
H268	H	-0.487617	-1.270293	-0.540569
H269	H	-0.508727	-1.202892	-0.693319
H270	H	-0.547702	-1.283072	-0.699209
H271	H	-0.547707	-1.197328	-0.612985
C272	C	-0.835392	-1.310831	-0.713457
C273	C	-0.804809	-1.251961	-0.772253
C274	C	-0.828184	-1.184707	-0.839544
H275	H	-0.853733	-1.264992	-0.673360
H276	H	-0.853649	-1.350990	-0.759333
H277	H	-0.786559	-1.211806	-0.726383
H278	H	-0.786468	-1.297773	-0.812371
H279	H	-0.846441	-1.224866	-0.885420
H280	H	-0.846523	-1.138875	-0.799439
H281	H	-0.807436	-1.144763	-0.879453
C282	C	-0.835440	-1.725919	-0.299243
C283	C	-0.862308	-1.793251	-0.358834
C284	C	-0.885782	-1.860690	-0.291930
H285	H	-0.853818	-1.685918	-0.253403
H286	H	-0.814756	-1.766009	-0.259286
H287	H	-0.882990	-1.753164	-0.398773
H288	H	-0.843941	-1.833274	-0.404671
H289	H	-0.865098	-1.900780	-0.251973
H290	H	-0.904158	-1.820681	-0.246093
H291	H	-0.904011	-1.906389	-0.332352
C292	C	-0.036218	-1.113786	-0.265769
C293	C	-0.030002	-1.091665	-0.159281
C294	C	0.013836	-1.056142	-0.143085
H295	H	-0.031308	-1.052045	-0.305724
H296	H	-0.015606	-1.166452	-0.287048
H297	H	-0.050608	-1.039003	-0.138014
H298	H	-0.034902	-1.153390	-0.119304
H299	H	0.034448	-1.108808	-0.164363
H300	H	0.018742	-0.994404	-0.183044
H301	H	0.018061	-1.041137	-0.070831
C302	C	-0.219071	-1.262266	-0.332549
C303	C	-0.217825	-1.363599	-0.374593
C304	C	-0.261639	-1.399383	-0.390571
H305	H	-0.234086	-1.216758	-0.379846
H306	H	-0.234619	-1.263327	-0.267558
H307	H	-0.202283	-1.362532	-0.439575
H308	H	-0.202818	-1.409132	-0.327312
H309	H	-0.277187	-1.400444	-0.325580
H310	H	-0.276651	-1.353867	-0.437866
H311	H	-0.260799	-1.468144	-0.419091
H312	H	-0.268434	-1.396217	-0.907090
