data_functionalizedCrystal
_audit_creation_method	'MofGen! by Chris Wilmer'
_symmetry_space_group_name_H-M	'P1'
_symmetry_Int_Tables_number	1
_symmetry_cell_setting	triclinic
loop_
_symmetry_equiv_pos_as_xyz
  x,y,z
_cell_length_a	14.519709
_cell_length_b	16.956995
_cell_length_c	15.455301
_cell_angle_alpha	86.829328
_cell_angle_beta	92.989373
_cell_angle_gamma	100.132692
loop_
_atom_site_label
_atom_site_type_symbol
_atom_site_fract_x
_atom_site_fract_y
_atom_site_fract_z
O1	O	-0.041585	1.061214	-0.072187
O2	O	0.458415	1.561214	0.427813
O3	O	-0.073957	0.829103	-0.072172
O4	O	0.426043	1.329103	0.427828
O5	O	0.076948	0.951313	-0.072188
O6	O	0.576948	1.451313	0.427812
O7	O	-0.192490	0.939004	-0.072171
O8	O	0.307510	1.439004	0.427829
O9	O	0.083681	0.945061	0.072075
O10	O	0.583681	1.445061	0.572075
O11	O	-0.067224	0.822851	0.072090
O12	O	0.432776	1.322851	0.572090
O13	O	-0.034852	1.054963	0.072076
O14	O	0.465148	1.554963	0.572076
Cu15	Cu	-0.050423	0.938336	0.085255
Cu16	Cu	0.449577	1.438336	0.585255
Cu17	Cu	-0.058386	0.945729	-0.085352
Cu18	Cu	0.441614	1.445729	0.414648
O19	O	-0.185757	0.932752	0.072091
O20	O	0.314243	1.432752	0.572091
C21	C	-0.072248	0.796271	-0.000039
C22	C	0.427752	1.296271	0.499961
C23	C	-0.077175	0.707758	-0.000034
C24	C	0.422825	1.207758	0.499966
C25	C	-0.114042	0.208511	-0.000064
C26	C	0.385958	0.708511	0.499936
C27	C	-0.109405	0.291680	-0.000064
C28	C	0.390595	0.791680	0.499936
C29	C	-0.022358	0.342644	-0.000063
C30	C	0.477642	0.842644	0.499937
C31	C	0.060056	0.310436	-0.000071
C32	C	0.560056	0.810436	0.499929
C33	C	0.055418	0.227269	-0.000077
C34	C	0.555418	0.727269	0.499923
C35	C	0.000600	0.592383	-0.000049
C36	C	0.500600	1.092383	0.499951
C37	C	0.005233	0.675555	-0.000040
C38	C	0.505233	1.175555	0.499960
C39	C	-0.164229	0.656793	-0.000035
C40	C	0.335771	1.156793	0.499965
C41	C	-0.168859	0.573625	-0.000036
C42	C	0.331141	1.073625	0.499964
C43	C	-0.086446	0.541425	-0.000049
C44	C	0.413554	1.041425	0.499951
N45	N	-0.017615	0.427656	-0.000060
N46	N	0.482385	0.927656	0.499940
N47	N	-0.091189	0.456414	-0.000058
N48	N	0.408811	0.956414	0.499942
C49	C	-0.223438	0.936452	-0.000038
C50	C	0.276562	1.436452	0.499962
C51	C	-0.325685	0.938170	-0.000032
C52	C	0.174315	1.438170	0.499968
C53	C	-0.700088	0.944500	-0.000067
C54	C	-0.200088	1.444500	0.499933
C55	C	-0.595917	0.942742	-0.000057
C56	C	-0.095917	1.442742	0.499943
C57	C	-0.512890	0.941335	-0.000049
C58	C	-0.012890	1.441335	0.499951
C59	C	-0.408712	0.939577	-0.000041
C60	C	0.091288	1.439577	0.499959
C61	C	0.114629	0.947614	-0.000060
C62	C	0.614629	1.447614	0.499940
C63	C	0.216876	0.945895	-0.000072
C64	C	0.716876	1.445895	0.499928
C65	C	-0.036561	1.087794	-0.000059
C66	C	0.463439	1.587794	0.499941
C67	C	-0.031634	1.176308	-0.000070
C68	C	0.468366	1.676308	0.499930
N69	N	-0.044821	0.933142	0.205251
N70	N	0.455179	1.433142	0.705251
N71	N	-0.063980	0.950930	-0.205348
N72	N	0.436020	1.450930	0.294652
C73	C	-0.094979	0.979611	0.250642
C74	C	0.405021	1.479611	0.750642
C75	C	-0.090736	0.975694	0.341450
C76	C	0.409264	1.475694	0.841450
C77	C	-0.036340	0.925302	0.386866
C78	C	0.463660	1.425302	0.886866
C79	C	0.013824	0.878831	0.341468
C80	C	0.513824	1.378831	0.841468
C81	C	0.009586	0.882753	0.250662
C82	C	0.509586	1.382753	0.750662
C83	C	-0.018054	0.908381	0.658448
C84	C	0.481946	1.408381	1.158448
C85	C	-0.013822	0.904461	0.749261
C86	C	0.486178	1.404461	1.249261
C87	C	-0.118381	1.001325	0.749237
C88	C	0.381619	1.501325	1.249237
C89	C	-0.122619	1.005240	0.658428
C90	C	0.377381	1.505240	1.158428
C91	C	-0.072451	0.958772	0.613039
C92	C	0.427549	1.458772	1.113039
N93	N	-0.032004	0.921294	0.479686
N94	N	0.467996	1.421294	0.979686
N95	N	-0.076782	0.962784	0.520220
N96	N	0.423218	1.462784	1.020220
H97	H	0.076120	0.717049	-0.000043
H98	H	0.576120	1.217049	0.499957
H99	H	0.067708	0.566176	-0.000057
H100	H	0.567708	1.066176	0.499943
H101	H	-0.166911	1.046276	0.621457
H102	H	0.333089	1.546276	1.121457
H103	H	-0.184925	0.167021	-0.000059
H104	H	0.315075	0.667021	0.499941
H105	H	0.130932	0.351938	-0.000075
H106	H	0.630932	0.851938	0.499925
H107	H	-0.131579	1.013535	0.378403
H108	H	0.368421	1.513535	0.878403
H109	H	-0.176510	0.317895	-0.000068
H110	H	0.323490	0.817895	0.499932
H111	H	0.122523	0.201052	-0.000084
H112	H	0.622523	0.701052	0.499916
H113	H	0.022797	0.870544	0.621503
H114	H	0.522797	1.370544	1.121503
H115	H	-0.139281	1.020641	0.213671
H116	H	0.360719	1.520641	0.713671
H117	H	-0.159224	1.039157	0.786202
H118	H	0.340776	1.539157	1.286202
H119	H	0.030474	0.863421	0.786236
H120	H	0.530474	1.363421	1.286236
H121	H	0.050430	0.844912	0.213706
H122	H	0.550430	1.344912	0.713706
H123	H	0.058120	0.837804	0.378453
H124	H	0.558120	1.337804	0.878453
H125	H	-0.231326	0.683020	-0.000026
H126	H	0.268674	1.183020	0.499974
H127	H	-0.239742	0.532135	-0.000040
H128	H	0.260258	1.032135	0.499960
