data_functionalizedCrystal
_audit_creation_method	'MofGen! by Chris Wilmer'
_symmetry_space_group_name_H-M	'P1'
_symmetry_Int_Tables_number	1
_symmetry_cell_setting	triclinic
loop_
_symmetry_equiv_pos_as_xyz
  x,y,z
_cell_length_a	13.635800
_cell_length_b	23.752966
_cell_length_c	23.752930
_cell_angle_alpha	82.886677
_cell_angle_beta	100.066047
_cell_angle_gamma	79.933465
loop_
_atom_site_label
_atom_site_type_symbol
_atom_site_fract_x
_atom_site_fract_y
_atom_site_fract_z
V1	V	1.985895	-0.079916	0.178717
O2	O	1.988842	0.003064	0.174985
O3	O	1.953505	-0.157713	0.177813
O4	O	1.953510	-0.079027	0.256517
O5	O	1.988837	-0.076166	0.095736
V6	V	2.229830	-0.069950	0.168753
O7	O	2.111754	-0.101776	0.200574
O8	O	2.329069	-0.048090	0.146897
O9	O	2.150616	0.007847	0.169658
O10	O	2.285581	-0.152930	0.172486
O11	O	2.285586	-0.073699	0.251735
O12	O	2.150612	-0.070839	0.090954
V13	V	2.485895	-0.079916	0.178717
O14	O	2.488842	0.003064	0.174985
O15	O	2.453505	-0.157713	0.177813
O16	O	2.453510	-0.079027	0.256517
O17	O	2.488837	-0.076166	0.095736
V18	V	2.729830	-0.069950	0.168753
O19	O	2.611754	-0.101776	0.200574
O20	O	2.829069	-0.048090	0.146897
O21	O	2.650616	0.007847	0.169658
O22	O	2.785581	-0.152930	0.172486
O23	O	2.785586	-0.073699	0.251735
O24	O	2.650612	-0.070839	0.090954
C25	C	1.874278	-0.176667	0.175076
C26	C	1.888385	-0.240270	0.174855
C27	C	2.066428	-0.637610	0.176414
C28	C	2.079699	-0.697373	0.176215
O29	O	2.163481	-0.730773	0.178570
N30	N	1.995892	-0.724336	0.173246
C31	C	1.898810	-0.691534	0.170480
O32	O	1.828745	-0.719956	0.167936
C33	C	1.885541	-0.631773	0.170683
C34	C	1.969352	-0.604812	0.173647
C35	C	2.150232	-0.610649	0.179378
C36	C	2.136961	-0.550890	0.179576
C37	C	2.039886	-0.518092	0.176809
C38	C	1.956082	-0.545053	0.173845
C39	C	1.788461	-0.598973	0.167922
C40	C	1.775199	-0.539208	0.168126
C41	C	1.859011	-0.512247	0.171090
C42	C	1.845736	-0.452496	0.171276
N43	N	1.929542	-0.425533	0.174245
C44	C	2.026617	-0.458331	0.177012
C45	C	1.926682	-0.817037	0.170055
C46	C	1.939949	-0.876796	0.169848
C47	C	2.120837	-0.882631	0.175584
C48	C	2.107568	-0.822870	0.175787
C49	C	2.010489	-0.790073	0.173025
C50	C	1.998740	-0.332832	0.177426
C51	C	1.985460	-0.273067	0.177621
C52	C	1.804574	-0.267238	0.171888
C53	C	1.817852	-0.326998	0.171690
C54	C	1.914944	-0.359794	0.174462
O55	O	1.761985	-0.419059	0.168924
O56	O	2.096670	-0.429902	0.179563
C57	C	1.874283	-0.076295	0.275470
C58	C	1.888393	-0.076083	0.339074
C59	C	2.061514	0.026799	0.172394
C60	C	2.037026	0.090400	0.172618
C61	C	2.061509	-0.073572	0.071998
C62	C	2.037020	-0.073781	0.008394
C63	C	2.374278	-0.176667	0.175076
C64	C	2.388385	-0.240270	0.174855
C65	C	2.374283	-0.076295	0.275470
C66	C	2.388393	-0.076083	0.339074
C67	C	2.066422	-0.077585	0.736404
C68	C	2.079691	-0.077379	0.796166
O69	O	2.163463	-0.079691	0.829559
N70	N	1.995885	-0.074411	0.823130
C71	C	1.898802	-0.071643	0.790328
O72	O	1.828738	-0.069099	0.818751
C73	C	1.885533	-0.071846	0.730567
C74	C	1.969347	-0.074820	0.703607
C75	C	2.150228	-0.080558	0.709444
C76	C	2.136960	-0.080766	0.649686
C77	C	2.039885	-0.078000	0.616889
C78	C	1.956079	-0.075027	0.643850
C79	C	1.788451	-0.069074	0.697766
C80	C	1.775188	-0.069276	0.638001
C81	C	1.859002	-0.072250	0.611041
C82	C	1.845736	-0.072469	0.551295
N83	N	1.929541	-0.075437	0.524331
C84	C	2.026616	-0.078203	0.557128
C85	C	1.926675	-0.071217	0.915831
C86	C	1.939944	-0.071019	0.975592
C87	C	2.120832	-0.076753	0.981425
C88	C	2.107563	-0.076956	0.921664
C89	C	2.010481	-0.074185	0.888867
C90	C	1.998744	-0.078639	0.431633
C91	C	1.985467	-0.078849	0.371871
C92	C	1.804581	-0.073111	0.366042
C93	C	1.817857	-0.072905	0.425800
C94	C	1.914946	-0.075667	0.458594
O95	O	1.761994	-0.070156	0.517865
O96	O	2.096664	-0.080739	0.528697
C97	C	2.561514	0.026799	0.172394
C98	C	2.537026	0.090400	0.172618
C99	C	2.561509	-0.073572	0.071998
C100	C	2.537020	-0.073781	0.008394
C101	C	2.485460	-0.273067	0.177621
C102	C	2.498731	-0.332830	0.177423
C103	C	2.414925	-0.359794	0.174453
C104	C	2.317842	-0.326992	0.171688
C105	C	2.304573	-0.267231	0.171891
C106	C	2.485467	-0.078849	0.371871
C107	C	2.498737	-0.078642	0.431632
C108	C	2.414931	-0.075674	0.458596
C109	C	2.317848	-0.072907	0.425795
C110	C	2.304579	-0.073109	0.366034
C111	C	2.612445	0.123198	0.169853
C112	C	2.589445	0.182960	0.170054
C113	C	2.491028	0.209923	0.173025
C114	C	2.415604	0.177122	0.175789
C115	C	2.438602	0.117361	0.175583
C116	C	2.438594	-0.076743	-0.018556
C117	C	2.415566	-0.076932	-0.078320
C118	C	2.490968	-0.074164	-0.111132
C119	C	2.589401	-0.071201	-0.084179
C120	C	2.612425	-0.071007	-0.024417
H121	H	2.053713	-0.251118	0.180033
Cl122	Cl	2.462007	-0.074411	-0.186262
H123	H	2.205212	-0.528944	0.181994
Cl124	Cl	2.212504	-0.069184	0.459703
H125	H	2.577786	-0.359529	0.179673
Cl126	Cl	2.212494	-0.360897	0.167951
Cl127	Cl	2.242871	-0.080227	1.022666
H128	H	2.175813	-0.079377	0.899717
Cl129	Cl	2.431631	-0.075423	0.533727
H130	H	2.425743	-0.408455	0.174288
Cl131	Cl	2.272282	-0.651870	0.182857
Cl132	Cl	2.291820	-0.080663	-0.112190
Cl133	Cl	1.683073	-0.065334	0.731643
Cl134	Cl	1.682548	-0.069636	0.324801
H135	H	2.225522	-0.240530	0.169634
H136	H	1.725535	-0.240523	0.169633
H137	H	2.553718	-0.081267	0.349925
H138	H	2.225529	-0.070858	0.339335
H139	H	2.577794	-0.080898	0.458332
Cl140	Cl	2.684184	-0.067729	-0.125436
Cl141	Cl	1.834575	-0.067292	1.009479
H142	H	1.847616	-0.068960	0.889131
H143	H	2.692576	-0.068599	-0.002479
Cl144	Cl	2.736177	0.089314	0.166117
Cl145	Cl	2.343776	0.076137	0.179063
H146	H	2.077800	-0.359528	0.179684
Cl147	Cl	2.212937	-0.788983	0.179517
H148	H	2.553710	-0.251121	0.180036
Cl149	Cl	2.684279	0.224184	0.166582
H150	H	1.847624	-0.790337	0.167802
Cl151	Cl	2.462133	0.285053	0.173284
Cl152	Cl	2.291883	0.211028	0.179521
Cl153	Cl	1.834575	-0.910680	0.166108
H154	H	2.377185	-0.078996	0.008153
H155	H	2.199882	-0.909345	0.177833
H156	H	1.696146	-0.512508	0.165879
Cl157	Cl	1.712488	-0.360892	0.167963
Cl158	Cl	1.683085	-0.632851	0.164189
H159	H	2.053724	-0.081272	0.349923
H160	H	2.205211	-0.083185	0.627741
Cl161	Cl	2.120799	-0.082112	0.472851
H162	H	2.229279	-0.082808	0.736141
H163	H	1.749610	-0.070489	0.447753
Cl164	Cl	1.653135	-0.065790	0.596773
