data_functionalizedCrystal
_audit_creation_method	'MofGen! by Chris Wilmer'
_symmetry_space_group_name_H-M	'P1'
_symmetry_Int_Tables_number	1
_symmetry_cell_setting	triclinic
loop_
_symmetry_equiv_pos_as_xyz
  x,y,z
_cell_length_a	19.288864
_cell_length_b	11.792241
_cell_length_c	17.766277
_cell_angle_alpha	89.993523
_cell_angle_beta	89.976791
_cell_angle_gamma	83.664831
loop_
_atom_site_label
_atom_site_type_symbol
_atom_site_fract_x
_atom_site_fract_y
_atom_site_fract_z
O1	O	0.922157	0.141582	-0.062836
O2	O	0.720005	0.160681	-0.062785
O3	O	0.825987	-0.014113	-0.062806
O4	O	0.816176	0.316377	-0.062814
O5	O	0.825968	-0.014122	0.062382
O6	O	0.719986	0.160673	0.062404
O7	O	0.922139	0.141573	0.062352
Cu8	Cu	0.821061	0.151122	0.073809
Cu9	Cu	0.821083	0.151133	-0.074241
O10	O	0.816157	0.316368	0.062374
C11	C	0.694116	0.160063	-0.000184
C12	C	0.617002	0.158218	-0.000164
C13	C	0.572888	0.260779	-0.000178
C14	C	0.500431	0.259046	-0.000187
C15	C	0.472091	0.154746	-0.000196
C16	C	0.516215	0.052171	-0.000177
C17	C	0.588670	0.053907	-0.000161
C18	C	0.363370	0.072757	-0.044078
C19	C	0.290916	0.071025	-0.044099
C20	C	0.248615	0.149387	-0.000241
C21	C	0.278776	0.229499	0.043627
C22	C	0.351232	0.231235	0.043643
C23	C	0.393526	0.152852	-0.000212
C24	C	0.125935	0.250076	-0.000263
C25	C	0.053477	0.248339	-0.000267
C26	C	0.069262	0.041460	-0.000265
C27	C	0.141718	0.043201	-0.000254
C28	C	0.170050	0.147512	-0.000257
C29	C	0.825361	-0.056399	-0.000212
C30	C	0.823517	-0.182385	-0.000212
C31	C	0.820125	-0.413045	-0.000224
C32	C	0.822009	-0.284689	-0.000218
C33	C	0.948028	0.142192	-0.000250
C34	C	1.025142	0.144037	-0.000275
C35	C	0.816783	0.358654	-0.000222
C36	C	0.818627	0.484640	-0.000226
N37	N	0.821050	0.151114	0.177939
N38	N	0.821099	0.151132	-0.178371
C39	C	0.867994	0.073753	0.217316
C40	C	0.867998	0.073748	0.296118
C41	C	0.821065	0.151123	0.335540
C42	C	0.774112	0.228490	0.296153
C43	C	0.774105	0.228486	0.217353
C44	C	0.812354	0.254534	0.460377
C45	C	0.812366	0.254540	0.539175
C46	C	0.821084	0.151137	0.578586
C47	C	0.829804	0.047723	0.539188
C48	C	0.829797	0.047719	0.460388
C49	C	0.821067	0.151136	0.420985
C50	C	0.868035	0.073764	0.703409
C51	C	0.868034	0.073757	0.782213
C52	C	0.774151	0.228509	0.782246
C53	C	0.774148	0.228506	0.703444
C54	C	0.821094	0.151135	0.664030
H55	H	0.017560	0.331860	-0.000274
C56	C	0.919667	-0.011353	0.660050
C57	C	0.918016	-0.140591	0.670897
C58	C	0.969649	-0.225709	0.627541
C59	C	1.022931	-0.181588	0.573339
C60	C	1.024584	-0.052343	0.562490
C61	C	0.972951	0.032774	0.605846
H62	H	0.878572	-0.173258	0.711022
H63	H	0.968425	-0.321385	0.635572
H64	H	1.061152	-0.244598	0.541244
H65	H	1.064028	-0.019677	0.522364
H66	H	0.974175	0.128450	0.597814
H67	H	0.836902	-0.036478	0.571275
H68	H	0.805270	0.338745	0.571247
C69	C	0.919675	-0.011346	0.825533
C70	C	0.971326	-0.096424	0.782178
C71	C	1.022968	-0.181527	0.825500
C72	C	1.022958	-0.181553	0.912178
C73	C	0.971305	-0.096472	0.955537
C74	C	0.919663	-0.011368	0.912215
H75	H	0.971335	-0.096408	0.718010
H76	H	1.061205	-0.244510	0.793402
H77	H	1.061187	-0.244551	0.944248
H78	H	0.971296	-0.096487	1.019705
H79	H	0.881426	0.051614	0.944313
C80	C	0.802767	0.368287	0.417029
C81	C	0.793188	0.482035	0.460360
C82	C	0.783601	0.595783	0.417014
C83	C	0.783594	0.595783	0.330337
C84	C	0.793173	0.482031	0.287001
C85	C	0.802759	0.368283	0.330347
H86	H	0.793193	0.482038	0.524528
H87	H	0.776510	0.679989	0.449094
H88	H	0.776497	0.679986	0.298249
H89	H	0.793168	0.482028	0.222833
H90	H	0.809851	0.284077	0.298267
C91	C	0.485044	-0.062562	-0.000187
C92	C	0.533573	-0.175383	-0.000171
C93	C	0.502404	-0.290120	-0.000177
C94	C	0.422706	-0.292035	-0.000199
C95	C	0.374173	-0.179210	-0.000215
C96	C	0.405342	-0.064473	-0.000209
H97	H	0.592574	-0.173969	-0.000155
H98	H	0.538332	-0.373641	-0.000165
H99	H	0.399633	-0.376971	-0.000203
H100	H	0.315172	-0.180624	-0.000231
H101	H	0.369414	0.019048	-0.000221
C102	C	0.919626	-0.011362	0.173960
C103	C	0.892157	-0.098052	0.119812
C104	C	0.943787	-0.183168	0.076452
C105	C	1.022885	-0.181594	0.087239
C106	C	1.050358	-0.094901	0.141389
C107	C	0.998729	-0.009784	0.184750
H108	H	0.833600	-0.099220	0.111825
H109	H	0.923449	-0.247344	0.036367
H110	H	1.061105	-0.244602	0.055142
H111	H	1.108915	-0.093732	0.149377
H112	H	1.019066	0.054392	0.224835
H113	H	0.397806	0.008943	-0.079797
C114	C	0.637200	-0.058918	-0.000152
C115	C	0.633716	-0.144497	0.064854
C116	C	0.682247	-0.257323	0.064861
C117	C	0.734262	-0.284570	-0.000137
C118	C	0.737748	-0.198989	-0.065148
C119	C	0.689217	-0.086163	-0.065155
H120	H	0.595209	-0.124329	0.112974
H121	H	0.679666	-0.320676	0.112987
H122	H	0.770188	-0.368091	-0.000132
H123	H	0.776254	-0.219158	-0.113268
H124	H	0.691797	-0.022811	-0.113281
H125	H	0.735934	0.291505	0.814342
H126	H	0.464507	0.342567	-0.000196
C127	C	0.722515	0.313616	0.660122
C128	C	0.670906	0.398762	0.703476
C129	C	0.619269	0.483873	0.660154
C130	C	0.619242	0.483837	0.573477
C131	C	0.670853	0.398687	0.530117
C132	C	0.722489	0.313577	0.573440
H133	H	0.670925	0.398792	0.767644
H134	H	0.581063	0.546907	0.692252
H135	H	0.581017	0.546841	0.541407
H136	H	0.670834	0.398658	0.465949
H137	H	0.760695	0.250543	0.541342
H138	H	0.906227	0.010749	0.328185
C139	C	0.839375	-0.066028	0.417050
C140	C	0.848960	-0.179776	0.460388
C141	C	0.858533	-0.293524	0.417050
C142	C	0.858519	-0.293524	0.330372
C143	C	0.848933	-0.179771	0.287029
C144	C	0.839361	-0.066024	0.330367
H145	H	0.848970	-0.179780	0.524556
H146	H	0.865629	-0.377731	0.449136
H147	H	0.865605	-0.377727	0.298291
H148	H	0.848923	-0.179767	0.222861
H149	H	0.832265	0.018183	0.298281
C150	C	0.722467	0.313594	0.174032
C151	C	0.670858	0.398741	0.217387
C152	C	0.619221	0.483851	0.174064
C153	C	0.619193	0.483816	0.087387
C154	C	0.670804	0.398666	0.044027
C155	C	0.722441	0.313555	0.087350
H156	H	0.670876	0.398770	0.281555
H157	H	0.581015	0.546885	0.206162
H158	H	0.580969	0.546820	0.055317
H159	H	0.670785	0.398636	-0.020141
H160	H	0.760647	0.250521	0.055252
C161	C	0.384411	0.319344	0.091900
C162	C	0.337892	0.405546	0.140146
C163	C	0.371071	0.493652	0.188406
C164	C	0.450770	0.495557	0.188422
C165	C	0.497293	0.409353	0.140175
C166	C	0.464114	0.321246	0.091914
H167	H	0.278890	0.404138	0.140136
H168	H	0.336631	0.557466	0.224122
H169	H	0.475331	0.560779	0.224147
H170	H	0.556295	0.410760	0.140185
H171	H	0.498554	0.257432	0.056199
C172	C	0.232258	0.315703	0.091880
C173	C	0.232406	0.444647	0.078270
C174	C	0.185886	0.530850	0.126519
C175	C	0.139218	0.488108	0.188380
C176	C	0.139069	0.359158	0.201993
C177	C	0.185589	0.272955	0.153743
H178	H	0.266954	0.476293	0.032474
H179	H	0.185997	0.626308	0.116442
H180	H	0.104781	0.551921	0.224097
H181	H	0.104521	0.327512	0.247788
H182	H	0.185478	0.177497	0.163820
C183	C	0.190247	-0.069622	-0.000248
C184	C	0.242192	-0.096885	0.064771
C185	C	0.290721	-0.209714	0.064780
C186	C	0.287305	-0.295279	-0.000229
C187	C	0.235358	-0.268018	-0.065252
C188	C	0.186829	-0.155189	-0.065262
H189	H	0.244723	-0.033543	0.112899
H190	H	0.329176	-0.229894	0.112915
H191	H	0.323229	-0.378802	-0.000222
H192	H	0.232827	-0.331360	-0.113380
H193	H	0.148374	-0.135009	-0.113397
H194	H	0.595951	0.345717	-0.000182
H195	H	0.149004	0.335012	-0.000255
H196	H	0.046188	-0.043463	-0.000319
H197	H	0.266364	0.005797	-0.079822
H198	H	0.735897	0.291489	0.328254
