data_functionalizedCrystal
_audit_creation_method	'MofGen! by Chris Wilmer'
_symmetry_space_group_name_H-M	'P1'
_symmetry_Int_Tables_number	1
_symmetry_cell_setting	triclinic
loop_
_symmetry_equiv_pos_as_xyz
  x,y,z
_cell_length_a	15.537862
_cell_length_b	17.699083
_cell_length_c	16.176319
_cell_angle_alpha	90.005533
_cell_angle_beta	90.000790
_cell_angle_gamma	65.273724
loop_
_atom_site_label
_atom_site_type_symbol
_atom_site_fract_x
_atom_site_fract_y
_atom_site_fract_z
O1	O	-1.250541	0.246067	0.068696
O2	O	-0.750541	0.746067	0.568696
O3	O	-0.976067	0.158602	0.068709
O4	O	-0.476067	0.658602	0.568709
O5	O	-1.121059	0.314643	0.068695
O6	O	-0.621059	0.814643	0.568695
O7	O	-1.105550	0.090026	0.068710
O8	O	-0.605550	0.590026	0.568710
O9	O	-1.121045	0.314618	-0.068798
O10	O	-0.621045	0.814618	0.431202
O11	O	-0.976053	0.158578	-0.068784
O12	O	-0.476053	0.658578	0.431216
O13	O	-1.250527	0.246042	-0.068797
O14	O	-0.750527	0.746042	0.431203
Cu15	Cu	-1.113289	0.202308	-0.081345
Cu16	Cu	-0.613289	0.702308	0.418655
Cu17	Cu	-1.113305	0.202337	0.081257
Cu18	Cu	-0.613305	0.702337	0.581257
O19	O	-1.105536	0.090001	-0.068783
O20	O	-0.605536	0.590001	0.431217
C21	C	-0.940942	0.149439	-0.000036
C22	C	-0.440942	0.649439	0.499964
C23	C	-0.836301	0.122179	-0.000031
C24	C	-0.336301	0.622179	0.499969
C25	C	-1.120496	0.342676	-0.000052
C26	C	-0.620496	0.842676	0.499948
C27	C	-1.118829	0.426238	-0.000052
C28	C	-0.618829	0.926238	0.499948
C29	C	-1.285652	0.255206	-0.000050
C30	C	-0.785652	0.755206	0.499950
C31	C	-1.390294	0.282465	-0.000050
C32	C	-0.890294	0.782465	0.499950
C33	C	-0.677419	0.011686	-0.000020
C34	C	-0.177419	0.511686	0.499980
C35	C	-0.775747	0.037308	-0.000024
C36	C	-0.275747	0.537308	0.499976
C37	C	-0.798543	0.181461	-0.000038
C38	C	-0.298543	0.681461	0.499962
C39	C	-0.700215	0.155851	-0.000038
C40	C	-0.200215	0.655851	0.499962
C41	C	-0.639660	0.070962	-0.000028
C42	C	-0.139660	0.570962	0.499972
C43	C	-0.662456	0.215127	-0.000045
C44	C	-0.162456	0.715127	0.499955
C45	C	-0.564137	0.189518	-0.000041
C46	C	-0.064137	0.689518	0.499959
C47	C	-0.503576	0.104633	-0.000029
C48	C	-0.003576	0.604633	0.499971
C49	C	-0.541341	0.045353	-0.000023
C50	C	-0.041341	0.545353	0.499977
C51	C	-0.723012	0.300015	-0.000049
C52	C	-0.223012	0.800015	0.499951
C53	C	-0.685253	0.359292	-0.000057
C54	C	-0.185253	0.859292	0.499943
C55	C	-0.586932	0.333683	-0.000059
C56	C	-0.086932	0.833683	0.499941
C57	C	-0.526372	0.248798	-0.000046
C58	C	-0.026372	0.748798	0.499954
C59	C	-0.549168	0.392963	-0.000064
C60	C	-0.049168	0.892963	0.499936
C61	C	-0.450848	0.367354	-0.000060
C62	C	0.049152	0.867354	0.499940
C63	C	-0.428052	0.223189	-0.000042
C64	C	0.071948	0.723189	0.499958
C65	C	-1.106098	0.061969	-0.000034
C66	C	-0.606098	0.561969	0.499966
C67	C	-1.107765	-0.021594	-0.000029
C68	C	-0.607765	0.478406	0.499971
N69	N	-1.113284	0.202289	-0.195710
N70	N	-0.613284	0.702289	0.304290
C71	C	-1.203936	0.498118	-0.000057
C72	C	-0.703936	0.998118	0.499943
C73	C	-1.202363	0.576632	-0.000050
C74	C	-0.702363	1.076632	0.499950
C75	C	-1.115684	0.583264	-0.000043
C76	C	-0.615684	1.083264	0.499957
C77	C	-1.030570	0.511376	-0.000035
C78	C	-0.530570	1.011376	0.499965
C79	C	-1.032143	0.432864	-0.000037
C80	C	-0.532143	0.932864	0.499963
C81	C	-1.024224	0.828004	-0.000028
C82	C	-0.524224	1.328004	0.499972
C83	C	-1.022658	0.906524	-0.000029
C84	C	-0.522658	1.406524	0.499971
C85	C	-1.194444	0.971773	-0.000041
C86	C	-0.694444	1.471773	0.499959
C87	C	-1.196017	0.893261	-0.000043
C88	C	-0.696017	1.393261	0.499957
C89	C	-1.110905	0.821380	-0.000031
C90	C	-0.610905	1.321380	0.499969
C91	C	-1.112610	0.736247	-0.000037
C92	C	-0.612610	1.236247	0.499963
C93	C	-1.113977	0.668395	-0.000042
C94	C	-0.613977	1.168395	0.499958
C95	C	-1.056253	0.232609	-0.761100
C96	C	-0.556253	0.732609	-0.261100
C97	C	-1.056251	0.232603	-0.674553
C98	C	-0.556251	0.732603	-0.174553
C99	C	-1.113309	0.202345	-0.631285
C100	C	-0.613309	0.702345	-0.131285
C101	C	-1.170380	0.172099	-0.674569
C102	C	-0.670380	0.672099	-0.174569
C103	C	-1.170386	0.172111	-0.761114
C104	C	-0.670386	0.672111	-0.261114
C105	C	-1.170357	0.172050	-0.325541
C106	C	-0.670357	0.672050	0.174459
C107	C	-1.170344	0.172038	-0.238989
C108	C	-0.670344	0.672038	0.261011
C109	C	-1.056222	0.232541	-0.238979
C110	C	-0.556222	0.732541	0.261021
C111	C	-1.056228	0.232554	-0.325525
C112	C	-0.556228	0.732554	0.174475
C113	C	-1.113302	0.202312	-0.368801
C114	C	-0.613302	0.702312	0.131199
C115	C	-1.113305	0.202321	-0.462645
C116	C	-0.613305	0.702321	0.037355
C117	C	-1.113302	0.202330	-0.537443
C118	C	-0.613302	0.702330	-0.037443
N119	N	-1.113318	0.202363	0.195622
N120	N	-0.613318	0.702363	0.695622
H121	H	-0.378745	0.154064	-0.000045
H122	H	0.121255	0.654064	0.499955
H123	H	-0.492033	-0.023772	-0.000026
H124	H	0.007967	0.476228	0.499974
H125	H	-1.009785	0.257243	-0.796323
H126	H	-0.509785	0.757243	-0.296323
H127	H	-1.271666	0.635157	-0.000056
H128	H	-0.771666	1.135157	0.499944
O129	O	-0.929159	0.913672	-0.000017
O130	O	-0.429159	1.413672	0.499983
H131	H	-0.924322	0.947864	-0.056062
H132	H	-0.424322	1.447864	0.443938
O133	O	-1.289507	0.886106	-0.000051
O134	O	-0.789507	1.386106	0.499949
H135	H	-1.294328	0.851895	0.055986
H136	H	-0.794328	1.351895	0.555986
H137	H	-1.274520	0.492728	-0.000068
H138	H	-0.774520	0.992728	0.499932
O139	O	-1.286251	1.049302	-0.000047
O140	O	-0.786251	1.549302	0.499953
H141	H	-1.270601	1.105013	-0.000037
H142	H	-0.770601	1.605013	0.499963
H143	H	-0.628111	-0.057439	-0.000023
H144	H	-0.128111	0.442561	0.499977
O145	O	-1.231895	0.139405	-0.192323
O146	O	-0.731895	0.639405	0.307677
H147	H	-1.186605	0.086292	-0.152914
H148	H	-0.686605	0.586292	0.347086
O149	O	-0.410118	0.431287	-0.000079
O150	O	0.089882	0.931287	0.499921
H151	H	-0.365880	0.423087	0.055965
H152	H	0.134120	0.923087	0.555965
O153	O	-0.750575	0.450846	-0.000075
O154	O	-0.250575	0.950846	0.499925
H155	H	-0.737184	0.480513	0.055962
H156	H	-0.237184	0.980513	0.555962
H157	H	-1.009787	0.257235	-0.639320
H158	H	-0.509787	0.757235	-0.139320
O159	O	-0.397529	0.077006	-0.000033
O160	O	0.102471	0.577006	0.499967
H161	H	-0.376524	0.101385	0.055999
H162	H	0.123476	0.601385	0.555999
H163	H	-0.598485	0.462080	-0.000064
H164	H	-0.098485	0.962080	0.499936
O165	O	-1.231940	0.139489	-0.807789
O166	O	-0.731940	0.639489	-0.307789
H167	H	-1.282694	0.189707	-0.847196
H168	H	-0.782694	0.689707	-0.347196
H169	H	-0.847859	0.250578	-0.000043
H170	H	-0.347859	0.750578	0.499957
H171	H	-1.216829	0.147425	-0.360766
H172	H	-0.716829	0.647425	0.139234
O173	O	-0.994691	0.265176	-0.192279
O174	O	-0.494691	0.765176	0.307721
H175	H	-0.919307	0.228035	-0.208874
H176	H	-0.419307	0.728035	0.291126
O177	O	-1.231918	0.139455	-0.627908
O178	O	-0.731918	0.639455	-0.127908
H179	H	-1.222318	0.144516	-0.560456
H180	H	-0.722318	0.644516	-0.060456
O181	O	-0.816477	-0.026629	-0.000023
O182	O	-0.316477	0.473371	0.499977
H183	H	-0.757848	-0.089957	-0.000022
H184	H	-0.257848	0.410043	0.499978
H185	H	-0.803070	0.320863	-0.000037
H186	H	-0.303070	0.820863	0.499963
O187	O	-0.932429	0.750481	-0.000036
O188	O	-0.432429	1.250481	0.499964
H189	H	-0.871894	0.768286	-0.000046
H190	H	-0.371894	1.268286	0.499954
H191	H	-0.962840	0.374337	-0.000032
H192	H	-0.462840	0.874337	0.499968
H193	H	-0.959994	0.516781	-0.000025
H194	H	-0.459994	1.016781	0.499975
H195	H	-1.009762	0.257189	-0.360749
H196	H	-0.509762	0.757189	0.139251
