data_functionalizedCrystal
_audit_creation_method	'MofGen! by Chris Wilmer'
_symmetry_space_group_name_H-M	'P1'
_symmetry_Int_Tables_number	1
_symmetry_cell_setting	triclinic
loop_
_symmetry_equiv_pos_as_xyz
  x,y,z
_cell_length_a	15.298068
_cell_length_b	18.101397
_cell_length_c	15.296720
_cell_angle_alpha	80.358625
_cell_angle_beta	91.645182
_cell_angle_gamma	99.679550
loop_
_atom_site_label
_atom_site_type_symbol
_atom_site_fract_x
_atom_site_fract_y
_atom_site_fract_z
Zn1	Zn	1.253390	-0.220303	0.727346
Zn2	Zn	1.278658	-0.319761	0.580869
Zn3	Zn	1.132270	-0.213107	0.555514
Zn4	Zn	1.106889	-0.361277	0.701889
O5	O	1.192802	-0.278612	0.641405
O6	O	1.379317	-0.219133	0.729181
O7	O	1.280435	-0.285227	0.454946
O8	O	1.148384	-0.110428	0.578350
O9	O	1.397881	-0.292205	0.621565
O10	O	1.237371	-0.115714	0.704595
O11	O	1.172885	-0.206869	0.436317
O12	O	1.006328	-0.247125	0.553665
O13	O	1.105126	-0.362963	0.827826
O14	O	0.987681	-0.355985	0.661207
O15	O	1.212760	-0.259389	0.846529
O16	O	1.255825	-0.428902	0.596881
O17	O	1.129627	-0.459404	0.685794
C18	C	0.965222	-0.305280	0.601923
C19	C	0.867859	-0.316710	0.585053
C20	C	0.554688	-0.197106	0.761977
C21	C	0.646165	-0.186370	0.777831
C22	C	0.701593	-0.218954	0.729638
C23	C	0.665535	-0.262276	0.665588
C24	C	0.574049	-0.273018	0.649736
C25	C	0.720953	-0.294866	0.617398
C26	C	0.684895	-0.338188	0.553347
C27	C	0.593418	-0.348928	0.537498
C28	C	0.537990	-0.316344	0.585691
C29	C	0.812440	-0.284124	0.633249
C30	C	0.831800	-0.360036	0.521008
C31	C	0.740323	-0.370772	0.505154
C32	C	1.192734	-0.471024	0.641349
C33	C	1.192780	-0.553335	0.641369
C34	C	1.192878	-0.852426	0.641468
C35	C	1.272121	-0.801871	0.585312
C36	C	1.272324	-0.716254	0.585529
C37	C	1.192830	-0.704043	0.641418
C38	C	1.201867	-0.747495	0.738070
C39	C	1.202453	-0.833017	0.737791
C40	C	1.104280	-0.827863	0.601739
C41	C	1.105095	-0.741816	0.599758
C42	C	1.192800	-0.620184	0.641395
C43	C	1.192909	-0.936285	0.641497
C44	C	1.421270	-0.251841	0.681041
C45	C	1.518630	-0.240432	0.697932
C46	C	1.153294	-0.316610	0.869845
C47	C	1.136458	-0.332802	0.967192
C48	C	1.192890	-0.085449	0.641484
C49	C	1.192928	-0.003134	0.641517
C50	C	1.232206	-0.240703	0.413862
C51	C	1.249212	-0.224282	0.316544
C52	C	1.313164	-0.162749	1.280551
C53	C	1.328987	-0.147537	1.189089
C54	C	1.280856	-0.193851	1.133611
C55	C	1.216899	-0.255382	1.169603
C56	C	1.201078	-0.270600	1.261075
C57	C	1.168771	-0.301702	1.114134
C58	C	1.104813	-0.363233	1.150126
C59	C	1.088995	-0.378447	1.241589
C60	C	1.137127	-0.332133	1.297068
C61	C	1.184591	-0.286484	1.022662
C62	C	1.072506	-0.394335	1.003186
C63	C	1.056682	-0.409547	1.094647
H64	H	0.776077	-0.210207	0.742548
H65	H	1.004607	-0.459646	1.123965
H66	H	0.675516	-0.151100	0.829984
H67	H	0.841789	-0.248849	0.685399
C68	C	0.493715	-0.161266	0.814976
C69	C	0.418946	-0.212257	0.872763
C70	C	0.357970	-0.176412	0.925764
C71	C	0.371762	-0.089577	0.920977
C72	C	0.446535	-0.038581	0.863188
C73	C	0.507511	-0.074425	0.810187
H74	H	0.408733	-0.276542	0.876308
H75	H	0.302618	-0.214163	0.968543
H76	H	0.326624	-0.063042	0.960212
H77	H	0.456748	0.025705	0.859643
H78	H	0.562863	-0.036674	0.767408
C79	C	1.019555	-0.445282	0.942165
C80	C	1.024488	-0.530726	0.955932
C81	C	0.971544	-0.581669	0.894904
C82	C	0.913667	-0.547169	0.820109
C83	C	0.908732	-0.461721	0.806338
C84	C	0.961676	-0.410778	0.867366
H85	H	1.067334	-0.556269	1.011303
H86	H	0.975197	-0.644923	0.905099
H87	H	0.874475	-0.584880	0.774933
H88	H	0.865886	-0.436178	0.750967
H89	H	0.958022	-0.347523	0.857172
H90	H	1.044172	-0.734275	0.636375
H91	H	1.124247	-0.344516	1.371544
H92	H	1.381064	-0.097440	1.159792
H93	H	0.463500	-0.325089	0.572791
H94	H	0.564062	-0.384210	0.485350
C95	C	1.089003	-0.845832	0.507041
C96	C	1.156790	-0.883049	0.464575
C97	C	1.141525	-0.901016	0.369875
C98	C	1.058473	-0.881767	0.317641
C99	C	0.990680	-0.844548	0.360107
C100	C	1.005945	-0.826581	0.454807
H101	H	1.218274	-0.897300	0.503241
H102	H	1.191710	-0.928568	0.338439
H103	H	1.047173	-0.895068	0.247538
H104	H	0.929195	-0.830297	0.321440
H105	H	0.955760	-0.799029	0.486243
H106	H	1.236665	-0.236385	0.993367
H107	H	0.710952	-0.406046	0.453004
H108	H	1.293744	-0.181461	1.059139
C109	C	0.892762	-0.395880	0.467988
C110	C	0.993388	-0.384062	0.485419
C111	C	1.054355	-0.419905	0.432405
C112	C	1.014695	-0.467565	0.361961
C113	C	0.914063	-0.479385	0.344526
C114	C	0.853096	-0.443542	0.397540
H115	H	1.022751	-0.348779	0.537570
H116	H	1.128850	-0.411155	0.445312
H117	H	1.059826	-0.494098	0.322717
H118	H	0.884700	-0.514668	0.292376
H119	H	0.778602	-0.452292	0.384634
H120	H	1.352350	-0.125050	1.325730
H121	H	1.036924	-0.428555	1.270892
H122	H	1.268523	-0.685725	0.514365
H123	H	1.045435	-0.862258	0.642444
C124	C	1.267301	-0.816768	0.488945
C125	C	1.185734	-0.802226	0.431384
C126	C	1.180910	-0.817130	0.335014
C127	C	1.257655	-0.846578	0.296206
C128	C	1.339229	-0.861123	0.353768
C129	C	1.344052	-0.846218	0.450137
H130	H	1.128917	-0.780425	0.460111
H131	H	1.120524	-0.806363	0.292403
H132	H	1.254085	-0.857612	0.224867
H133	H	1.396045	-0.882923	0.325040
H134	H	1.404439	-0.856985	0.492748
H135	H	1.337729	-0.817909	0.612625
C136	C	1.361415	-0.681142	0.622768
C137	C	1.432596	-0.731013	0.652407
C138	C	1.521689	-0.695902	0.689654
C139	C	1.539602	-0.610919	0.697261
C140	C	1.468419	-0.561043	0.667621
C141	C	1.379326	-0.596154	0.630375
H142	H	1.419338	-0.793927	0.646777
H143	H	1.574383	-0.732824	0.711595
H144	H	1.605554	-0.584928	0.724833
H145	H	1.481677	-0.498129	0.673252
H146	H	1.326631	-0.559232	0.608433
H147	H	1.266738	-0.848329	0.769578
C148	C	1.095493	-0.702145	0.503564
C149	C	1.014466	-0.663188	0.476560
C150	C	1.004869	-0.623509	0.380367
C151	C	1.076301	-0.622787	0.311178
C152	C	1.157334	-0.661746	0.338181
C153	C	1.166930	-0.701424	0.434374
H154	H	0.961583	-0.663721	0.527779
H155	H	0.944883	-0.594670	0.360378
H156	H	1.069197	-0.593415	0.239971
H157	H	1.210217	-0.661212	0.286962
H158	H	1.226917	-0.730264	0.454363
H159	H	1.146391	-0.867968	0.781943
H160	H	1.145221	-0.741372	0.781726
H161	H	1.265335	-0.721526	0.770064
