data_functionalizedCrystal
_audit_creation_method	'MofGen! by Chris Wilmer'
_symmetry_space_group_name_H-M	'P1'
_symmetry_Int_Tables_number	1
_symmetry_cell_setting	triclinic
loop_
_symmetry_equiv_pos_as_xyz
  x,y,z
_cell_length_a	25.639242
_cell_length_b	29.839131
_cell_length_c	25.639233
_cell_angle_alpha	89.972761
_cell_angle_beta	89.977834
_cell_angle_gamma	90.030754
loop_
_atom_site_label
_atom_site_type_symbol
_atom_site_fract_x
_atom_site_fract_y
_atom_site_fract_z
Zn1	Zn	0.799238	-0.178962	-0.295711
Zn2	Zn	1.299238	0.321038	0.204289
Zn3	Zn	0.799166	-0.254076	-0.208263
Zn4	Zn	1.299166	0.245924	0.291737
Zn5	Zn	0.711814	-0.178955	-0.208275
Zn6	Zn	1.211814	0.321045	0.291725
Zn7	Zn	0.711764	-0.254059	-0.295653
Zn8	Zn	1.211764	0.245941	0.204347
O9	O	0.755496	-0.216513	-0.251976
O10	O	1.255496	0.283487	0.248024
O11	O	0.872393	-0.188935	-0.284130
O12	O	1.372393	0.311065	0.215870
O13	O	0.787570	-0.244115	-0.135099
O14	O	1.287570	0.255885	0.364901
O15	O	0.723461	-0.116089	-0.219904
O16	O	1.223461	0.383911	0.280096
O17	O	0.872341	-0.244122	-0.219882
O18	O	1.372341	0.255878	0.280118
O19	O	0.787691	-0.116094	-0.284143
O20	O	1.287691	0.383906	0.215857
O21	O	0.723392	-0.188924	-0.135109
O22	O	1.223392	0.311076	0.364891
O23	O	0.638642	-0.188908	-0.219847
O24	O	1.138642	0.311092	0.280153
O25	O	0.723377	-0.244093	-0.368826
O26	O	1.223377	0.255907	0.131174
O27	O	0.638606	-0.244087	-0.284043
O28	O	1.138606	0.255913	0.215957
O29	O	0.787643	-0.188919	-0.368869
O30	O	1.287643	0.311081	0.131131
O31	O	0.787522	-0.316941	-0.219825
O32	O	1.287522	0.183059	0.280175
O33	O	0.723308	-0.316929	-0.284030
O34	O	1.223308	0.183071	0.215970
C35	C	0.619653	-0.216495	-0.251940
C36	C	1.119653	0.283505	0.248060
C37	C	0.561539	-0.216499	-0.251937
C38	C	1.061539	0.283501	0.248063
C39	C	0.755416	-0.333236	-0.251931
C40	C	1.255416	0.166764	0.248069
C41	C	0.755430	-0.383170	-0.251930
C42	C	1.255430	0.116830	0.248070
C43	C	0.201166	-0.245293	-0.285371
C44	C	0.701166	0.254707	0.214629
C45	C	0.146561	-0.245295	-0.285379
C46	C	0.646561	0.254705	0.214621
O47	O	0.118316	-0.269755	-0.313775
O48	O	0.618316	0.230245	0.186225
N49	N	0.119256	-0.216525	-0.252010
N50	N	0.619256	0.283475	0.247990
C51	C	0.146559	-0.187748	-0.218634
C52	C	0.646559	0.312252	0.281366
O53	O	0.118320	-0.163276	-0.190252
O54	O	0.618320	0.336724	0.309748
C55	C	0.201162	-0.187743	-0.218629
C56	C	0.701162	0.312257	0.281371
C57	C	0.228464	-0.216518	-0.251996
C58	C	0.728464	0.283482	0.248004
C59	C	0.228468	-0.274065	-0.318736
C60	C	0.728468	0.225935	0.181264
C61	C	0.283069	-0.274063	-0.318727
C62	C	0.783069	0.225937	0.181273
C63	C	0.310367	-0.245288	-0.285352
C64	C	0.810367	0.254712	0.214648
C65	C	0.283065	-0.216516	-0.251987
C66	C	0.783065	0.283484	0.248013
C67	C	0.228463	-0.158963	-0.185256
C68	C	0.728463	0.341037	0.314744
C69	C	0.283070	-0.158961	-0.185254
C70	C	0.783070	0.341039	0.314746
C71	C	0.310372	-0.187736	-0.218621
C72	C	0.810372	0.312264	0.281379
C73	C	0.364964	-0.187739	-0.218604
C74	C	0.864964	0.312261	0.281396
N75	N	0.392269	-0.216509	-0.251973
N76	N	0.892269	0.283491	0.248027
C77	C	0.364970	-0.245283	-0.285347
C78	C	0.864970	0.254717	0.214653
C79	C	0.031888	-0.187759	-0.218648
C80	C	0.531888	0.312241	0.281352
C81	C	-0.022714	-0.187766	-0.218650
C82	C	0.477286	0.312234	0.281350
C83	C	-0.022708	-0.245313	-0.285396
C84	C	0.477292	0.254687	0.214604
C85	C	0.031896	-0.245308	-0.285391
C86	C	0.531896	0.254692	0.214609
C87	C	0.059193	-0.216529	-0.252017
C88	C	0.559193	0.283471	0.247983
C89	C	0.479635	-0.245277	-0.285325
C90	C	0.979635	0.254723	0.214675
C91	C	0.534241	-0.245273	-0.285312
C92	C	1.034241	0.254727	0.214688
C93	C	0.534229	-0.187724	-0.218568
C94	C	1.034229	0.312276	0.281432
C95	C	0.479629	-0.187729	-0.218580
C96	C	0.979629	0.312271	0.281420
C97	C	0.452333	-0.216507	-0.251962
C98	C	0.952333	0.283493	0.248038
O99	O	0.393244	-0.163290	-0.190224
O100	O	0.893244	0.336710	0.309776
O101	O	0.393216	-0.269746	-0.313729
O102	O	0.893216	0.230254	0.186271
C103	C	0.788933	-0.692781	-0.285472
C104	C	1.288933	-0.192781	0.214528
C105	C	0.788989	-0.880454	-0.285504
C106	C	1.288989	-0.380454	0.214496
O107	O	0.817397	-0.904691	-0.313990
O108	O	1.317397	-0.404691	0.186010
N109	N	0.755584	-0.903955	-0.252034
N110	N	1.255584	-0.403955	0.247966
C111	C	0.722160	-0.880535	-0.218556
C112	C	1.222160	-0.380535	0.281444
O113	O	0.693745	-0.904830	-0.190092
O114	O	1.193745	-0.404830	0.309908
C115	C	0.722101	-0.692863	-0.218527
C116	C	1.222101	-0.192863	0.281473
C117	C	0.755512	-0.669364	-0.251996
C118	C	1.255512	-0.169364	0.248004
C119	C	0.822341	-0.669282	-0.318939
C120	C	1.322341	-0.169282	0.181061
C121	C	0.822328	-0.622367	-0.318928
C122	C	1.322328	-0.122367	0.181072
C123	C	0.788908	-0.598950	-0.285452
C124	C	1.288908	-0.098950	0.214548
C125	C	0.755500	-0.622449	-0.251986
C126	C	1.255500	-0.122449	0.248014
C127	C	0.688675	-0.669444	-0.185052
C128	C	1.188675	-0.169444	0.314948
C129	C	0.688662	-0.622522	-0.185049
C130	C	1.188662	-0.122522	0.314951
C131	C	0.722073	-0.599024	-0.218518
C132	C	1.222073	-0.099024	0.281482
C133	C	0.722067	-0.552116	-0.218499
C134	C	1.222067	-0.052116	0.281501
N135	N	0.755472	-0.528615	-0.251969
N136	N	1.255472	-0.028615	0.248031
C137	C	0.788892	-0.552032	-0.285446
C138	C	1.288892	-0.052032	0.214554
C139	C	0.722194	-0.979066	-0.218572
C140	C	1.222194	-0.479066	0.281428
C141	C	0.722210	-1.025983	-0.218578
C142	C	1.222210	-0.525983	0.281422
C143	C	0.789038	-1.025899	-0.285527
C144	C	1.289038	-0.525899	0.214473
C145	C	0.789025	-0.978981	-0.285518
C146	C	1.289025	-0.478981	0.214482
C147	C	0.755599	-0.955565	-0.252042
C148	C	1.255599	-0.455565	0.247958
C149	C	0.788864	-0.453506	-0.285421
C150	C	1.288864	0.046494	0.214579
C151	C	0.788850	-0.406587	-0.285407
C152	C	1.288850	0.093413	0.214593
C153	C	0.722020	-0.406675	-0.218460
C154	C	1.222020	0.093325	0.281540
C155	C	0.722035	-0.453591	-0.218472
C156	C	1.222035	0.046409	0.281528
C157	C	0.755459	-0.477005	-0.251957
C158	C	1.255459	0.022995	0.248043
O159	O	0.693670	-0.527850	-0.190032
O160	O	1.193670	-0.027850	0.309968
O161	O	0.817296	-0.527729	-0.313913
O162	O	1.317296	-0.027729	0.186087
C163	C	0.788945	-0.739696	-0.285483
C164	C	1.288945	-0.239696	0.214517
C165	C	0.755537	-0.763195	-0.252016
C166	C	1.255537	-0.263195	0.247984
C167	C	0.722117	-0.739778	-0.218540
C168	C	1.222117	-0.239778	0.281460
C169	C	0.755553	-0.810113	-0.252023
C170	C	1.255553	-0.310113	0.247977
C171	C	0.788973	-0.833530	-0.285499
C172	C	1.288973	-0.333530	0.214501
C173	C	0.822378	-0.810029	-0.318969
C174	C	1.322378	-0.310029	0.181031
C175	C	0.822366	-0.763113	-0.318959
C176	C	1.322366	-0.263113	0.181041
C177	C	0.688712	-0.763279	-0.185070
C178	C	1.188712	-0.263279	0.314930
C179	C	0.688727	-0.810195	-0.185082
C180	C	1.188727	-0.310195	0.314918
C181	C	0.722148	-0.833612	-0.218559
C182	C	1.222148	-0.333612	0.281441
C183	C	0.891869	-0.216531	-0.252011
C184	C	1.391869	0.283469	0.247989
C185	C	0.949983	-0.216539	-0.252027
C186	C	1.449983	0.283461	0.247973
C187	C	0.755512	-0.216505	-0.388349
C188	C	1.255512	0.283495	0.111651
C189	C	0.755520	-0.216502	-0.446463
C190	C	1.255520	0.283498	0.053537
C191	C	0.755590	-0.099335	-0.252031
C192	C	1.255590	0.400665	0.247969
C193	C	0.755630	-0.049400	-0.252055
C194	C	1.255630	0.450600	0.247945
C195	C	0.789025	-0.187687	-0.806854
C196	C	1.289025	0.312313	-0.306854
C197	C	0.789032	-0.187675	-0.861458
C198	C	1.289032	0.312325	-0.361458
O199	O	0.817478	-0.163229	-0.889719
O200	O	1.317478	0.336771	-0.389719
N201	N	0.755577	-0.216396	-0.888745
N202	N	1.255577	0.283604	-0.388745
C203	C	0.722110	-0.245129	-0.861425
C204	C	1.222110	0.254871	-0.361425
O205	O	0.693655	-0.269558	-0.889649
O206	O	1.193655	0.230442	-0.389649
C207	C	0.722101	-0.245139	-0.806822
C208	C	1.222101	0.254861	-0.306822
C209	C	0.755562	-0.216419	-0.779538
C210	C	1.255562	0.283581	-0.279538
C211	C	0.822483	-0.158969	-0.779570
C212	C	1.322483	0.341031	-0.279570
C213	C	0.822477	-0.158982	-0.724969
C214	C	1.322477	0.341018	-0.224969
C215	C	0.789014	-0.187714	-0.697653
C216	C	1.289014	0.312286	-0.197653
C217	C	0.755556	-0.216432	-0.724937
C218	C	1.255556	0.283568	-0.224937
C219	C	0.688632	-0.273869	-0.779503
C220	C	1.188632	0.226131	-0.279503
C221	C	0.688626	-0.273876	-0.724896
C222	C	1.188626	0.226124	-0.224896
C223	C	0.722087	-0.245156	-0.697611
C224	C	1.222087	0.254844	-0.197611
C225	C	0.722087	-0.245176	-0.643020
C226	C	1.222087	0.254824	-0.143020
N227	N	0.755542	-0.216455	-0.615733
N228	N	1.255542	0.283545	-0.115733
C229	C	0.789005	-0.187723	-0.643050
C230	C	1.289005	0.312277	-0.143050
C231	C	0.722130	-0.245106	-0.976096
C232	C	1.222130	0.254894	-0.476096
C233	C	0.722141	-0.245099	-1.030698
C234	C	1.222141	0.254901	-0.530698
C235	C	0.789063	-0.187644	-1.030728
C236	C	1.289063	0.312356	-0.530728
C237	C	0.789054	-0.187653	-0.976124
C238	C	1.289054	0.312347	-0.476124
C239	C	0.755585	-0.216384	-0.948809
C240	C	1.255585	0.283616	-0.448809
C241	C	0.788990	-0.187753	-0.528384
C242	C	1.288990	0.312247	-0.028384
C243	C	0.788983	-0.187770	-0.473779
C244	C	1.288983	0.312230	0.026221
C245	C	0.722060	-0.245223	-0.473754
C246	C	1.222060	0.254777	0.026246
C247	C	0.722069	-0.245208	-0.528355
C248	C	1.222069	0.254792	-0.028355
C249	C	0.755536	-0.216470	-0.555669
C250	C	1.255536	0.283530	-0.055669
O251	O	0.693654	-0.269609	-0.614725
O252	O	1.193654	0.230391	-0.114725
O253	O	0.817451	-0.163295	-0.614819
O254	O	1.317451	0.336705	-0.114819
C255	C	0.755509	-0.216488	-0.116133
C256	C	1.255509	0.283512	0.383867
C257	C	0.755603	-0.216365	-0.058019
C258	C	1.255603	0.283635	0.441981
H259	H	0.556468	-0.268707	-0.312484
H260	H	1.056468	0.231293	0.187516
H261	H	-0.044944	-0.268742	-0.312573
H262	H	0.455056	0.231258	0.187427
H263	H	0.816251	-1.044973	-0.312785
H264	H	1.316251	-0.544973	0.187215
H265	H	0.816059	-0.387456	-0.312661
H266	H	1.316059	0.112544	0.187339
O267	O	0.689572	-0.383854	-0.185992
O268	O	1.189572	0.116146	0.314008
C269	C	0.696737	-0.337405	-0.193157
C270	C	1.196737	0.162595	0.306843
H271	H	0.713836	-0.330969	-0.233523
H272	H	1.213836	0.169031	0.266477
H273	H	0.724595	-0.324087	-0.162171
H274	H	1.224595	0.175913	0.337829
C275	C	0.622832	-0.321256	-0.138736
C276	C	1.122832	0.178744	0.361264
C277	C	0.643830	-0.313351	-0.188316
C278	C	1.143830	0.186649	0.311684
H279	H	0.590198	-0.306418	-0.135747
H280	H	1.090198	0.193582	0.364253
H281	H	0.618006	-0.352550	-0.133907
H282	H	1.118006	0.147450	0.366093
H283	H	0.646053	-0.310158	-0.112920
H284	H	1.146053	0.189842	0.387080
H285	H	0.620613	-0.324454	-0.214131
H286	H	1.120613	0.175546	0.285869
H287	H	0.648651	-0.282059	-0.193149
H288	H	1.148651	0.217941	0.306851
O289	O	0.821379	-0.476178	-0.317967
O290	O	1.321379	0.023822	0.182033
C291	C	0.850848	-0.445368	-0.347510
C292	C	1.350848	0.054632	0.152490
H293	H	0.852662	-0.411937	-0.326083
H294	H	1.352662	0.088063	0.173917
H295	H	0.831669	-0.440365	-0.387195
H296	H	1.331669	0.059635	0.112805
C297	C	0.904267	-0.504694	-0.381433
C298	C	1.404267	-0.004694	0.118567
C299	C	0.906499	-0.463634	-0.355114
C300	C	1.406499	0.036366	0.144886
H301	H	0.938595	-0.515961	-0.386126
H302	H	1.438595	-0.015961	0.113874
H303	H	0.884412	-0.525451	-0.361531
H304	H	1.384412	-0.025451	0.138469
H305	H	0.888283	-0.500519	-0.414501
H306	H	1.388283	-0.000519	0.085499
H307	H	0.922477	-0.467811	-0.322045
H308	H	1.422477	0.032189	0.177955
H309	H	0.926358	-0.442878	-0.375011
H310	H	1.426358	0.057122	0.124989
H311	H	0.849592	-0.829103	-0.346225
H312	H	1.349592	-0.329103	0.153775
O313	O	0.453206	-0.273273	-0.317770
O314	O	0.953206	0.226727	0.182230
C315	C	0.489022	-0.298656	-0.347223
C316	C	0.989022	0.201344	0.152777
H317	H	0.527930	-0.300179	-0.325793
H318	H	1.027930	0.199821	0.174207
H319	H	0.494863	-0.282253	-0.386968
H320	H	0.994863	0.217747	0.113032
C321	C	0.419908	-0.344611	-0.380978
C322	C	0.919908	0.155389	0.119022
C323	C	0.467694	-0.346485	-0.354655
C324	C	0.967694	0.153515	0.145345
H325	H	0.406752	-0.374114	-0.385565
H326	H	0.906752	0.125886	0.114435
H327	H	0.395778	-0.327510	-0.361137
H328	H	0.895778	0.172490	0.138863
H329	H	0.424783	-0.330941	-0.414096
H330	H	0.924783	0.169059	0.085904
H331	H	0.462818	-0.360150	-0.321536
H332	H	0.962818	0.139850	0.178464
H333	H	0.491823	-0.363590	-0.374491
H334	H	0.991823	0.136410	0.125509
H335	H	0.661521	-0.829323	-0.157823
H336	H	1.161521	-0.329323	0.342177
H337	H	0.849733	-0.135570	-0.801805
H338	H	1.349733	0.364430	-0.301805
H339	H	0.661496	-0.744217	-0.157809
H340	H	1.161496	-0.244217	0.342191
O341	O	0.560731	-0.159824	-0.186074
O342	O	1.060731	0.340176	0.313926
C343	C	0.547351	-0.169565	-0.133942
C344	C	1.047351	0.330435	0.366058
H345	H	0.532313	-0.205451	-0.131219
H346	H	1.032313	0.294549	0.368781
H347	H	0.515668	-0.145459	-0.120331
H348	H	1.015668	0.354541	0.379669
C349	C	0.614317	-0.120221	-0.102405
C350	C	1.114317	0.379779	0.397595
C351	C	0.595851	-0.164297	-0.099060
C352	C	1.095851	0.335703	0.400940
H353	H	0.644233	-0.116969	-0.080887
H354	H	1.144233	0.383031	0.419113
H355	H	0.623330	-0.113656	-0.137527
H356	H	1.123330	0.386344	0.362473
H357	H	0.587910	-0.100137	-0.091063
H358	H	1.087910	0.399863	0.408937
H359	H	0.622255	-0.184379	-0.110407
H360	H	1.122255	0.315621	0.389593
H361	H	0.586844	-0.170865	-0.063938
H362	H	1.086844	0.329135	0.436062
H363	H	0.206247	-0.297497	-0.345916
H364	H	0.706247	0.202503	0.154084
O365	O	0.656176	-0.301854	-0.698383
O366	O	1.156176	0.198146	-0.198383
C367	C	0.667563	-0.346626	-0.711731
C368	C	1.167563	0.153374	-0.211731
H369	H	0.709331	-0.348892	-0.726756
H370	H	1.209331	0.151108	-0.226756
H371	H	0.639525	-0.358359	-0.743414
H372	H	1.139525	0.141641	-0.243414
C373	C	0.610157	-0.373838	-0.644764
C374	C	1.110157	0.126162	-0.144764
C375	C	0.661458	-0.376622	-0.663213
C376	C	1.161458	0.123378	-0.163213
H377	H	0.606389	-0.392342	-0.614837
H378	H	1.106389	0.107658	-0.114837
H379	H	0.602483	-0.343675	-0.635772
H380	H	1.102483	0.156325	-0.135772
H381	H	0.586797	-0.383615	-0.671171
H382	H	1.086797	0.116385	-0.171171
H383	H	0.684816	-0.366840	-0.636809
H384	H	1.184816	0.133160	-0.136809
H385	H	0.669136	-0.406785	-0.672200
H386	H	1.169136	0.093215	-0.172200
H387	H	0.694875	-0.268504	-0.953859
H388	H	1.194875	0.231496	-0.453859
H389	H	0.457398	-0.164299	-0.191408
H390	H	0.957398	0.335701	0.308592
H391	H	0.816300	-0.164266	-0.953913
H392	H	1.316300	0.335734	-0.453913
H393	H	0.816309	-0.164248	-1.052978
H394	H	1.316309	0.335752	-0.552978
H395	H	-0.044939	-0.164338	-0.191474
H396	H	0.455061	0.335662	0.308526
H397	H	0.305293	-0.297494	-0.345899
H398	H	0.805293	0.202506	0.154101
H399	H	0.849723	-0.135594	-0.702759
H400	H	1.349723	0.364406	-0.202759
H401	H	0.661441	-0.603459	-0.157790
H402	H	1.161441	-0.103459	0.342210
O403	O	0.656203	-0.301820	-0.806017
O404	O	1.156203	0.198180	-0.306017
C405	C	0.685945	-0.330833	-0.837608
C406	C	1.185945	0.169167	-0.337608
H407	H	0.727123	-0.333612	-0.821171
H408	H	1.227123	0.166388	-0.321171
H409	H	0.687753	-0.316944	-0.879000
H410	H	1.187753	0.183056	-0.379000
C411	C	0.609789	-0.374119	-0.858596
C412	C	1.109789	0.125881	-0.358596
C413	C	0.660364	-0.377536	-0.838405
C414	C	1.160364	0.122464	-0.338405
H415	H	0.594009	-0.402927	-0.859090
H416	H	1.094009	0.097073	-0.359090
H417	H	0.589751	-0.354572	-0.837315
H418	H	1.089751	0.145428	-0.337315
H419	H	0.611303	-0.362544	-0.893088
H420	H	1.111303	0.137456	-0.393088
H421	H	0.658849	-0.389106	-0.803912
H422	H	1.158849	0.110894	-0.303912
H423	H	0.680401	-0.397087	-0.859681
H424	H	1.180401	0.102913	-0.359681
O425	O	0.689534	-0.476350	-0.185942
O426	O	1.189534	0.023650	0.314058
C427	C	0.660046	-0.445619	-0.156382
C428	C	1.160046	0.054381	0.343618
H429	H	0.658216	-0.412162	-0.177787
H430	H	1.158216	0.087838	0.322213
H431	H	0.679217	-0.440642	-0.116692
H432	H	1.179217	0.059358	0.383308
C433	C	0.606654	-0.505058	-0.122504
C434	C	1.106654	-0.005058	0.377496
C435	C	0.604403	-0.463967	-0.148795
C436	C	1.104403	0.036033	0.351205
H437	H	0.572332	-0.516377	-0.117821
H438	H	1.072332	-0.016377	0.382179
H439	H	0.626522	-0.525763	-0.142417
H440	H	1.126522	-0.025763	0.357583
H441	H	0.622633	-0.500905	-0.089431
H442	H	1.122633	-0.000905	0.410569
H443	H	0.588431	-0.468121	-0.181869
H444	H	1.088431	0.031879	0.318131
H445	H	0.584531	-0.443263	-0.128887
H446	H	1.084531	0.056737	0.371113
H447	H	0.694828	-0.268599	-0.550571
H448	H	1.194828	0.231401	-0.050571
H449	H	0.694817	-0.268617	-0.451504
H450	H	1.194817	0.231383	0.048496
H451	H	0.054121	-0.268739	-0.312562
H452	H	0.554121	0.231261	0.187438
O453	O	0.058322	-0.159792	-0.186171
O454	O	0.558322	0.340208	0.313829
C455	C	0.022508	-0.134395	-0.156732
C456	C	0.522508	0.365605	0.343268
H457	H	-0.016425	-0.152800	-0.154891
H458	H	0.483575	0.347200	0.345109
H459	H	0.016727	-0.100299	-0.175954
H460	H	0.516727	0.399701	0.324046
C461	C	0.091603	-0.105246	-0.103356
C462	C	0.591603	0.394754	0.396644
C463	C	0.043787	-0.127852	-0.101091
C464	C	0.543787	0.372148	0.398909
H465	H	0.104730	-0.101207	-0.069034
H466	H	0.604730	0.398793	0.430966
H467	H	0.115732	-0.122354	-0.123190
H468	H	0.615732	0.377646	0.376810
H469	H	0.086779	-0.076835	-0.119376
H470	H	0.586779	0.423165	0.380624
H471	H	0.048613	-0.156265	-0.085076
H472	H	0.548613	0.343735	0.414924
H473	H	0.019659	-0.110749	-0.081252
H474	H	0.519659	0.389251	0.418748
O475	O	0.821504	-0.159827	-0.447357
O476	O	1.321504	0.340173	0.052643
C477	C	0.851047	-0.134473	-0.483180
C478	C	1.351047	0.365527	0.016820
H479	H	0.829635	-0.132907	-0.522097
H480	H	1.329635	0.367093	-0.022097
H481	H	0.890744	-0.150928	-0.488996
H482	H	1.390744	0.349072	0.011004
C483	C	0.884918	-0.088587	-0.414088
C484	C	1.384918	0.411413	0.085912
C485	C	0.858617	-0.086661	-0.461885
C486	C	1.358617	0.413339	0.038115
H487	H	0.889590	-0.059095	-0.400952
H488	H	1.389590	0.440905	0.099048
H489	H	0.865016	-0.105669	-0.389953
H490	H	1.365016	0.394331	0.110047
H491	H	0.917996	-0.102302	-0.418941
H492	H	1.417996	0.397698	0.081059
H493	H	0.825538	-0.072951	-0.457031
H494	H	1.325538	0.427049	0.042969
H495	H	0.878514	-0.069575	-0.486019
H496	H	1.378514	0.430425	0.013981
H497	H	0.206243	-0.135532	-0.158083
H498	H	0.706243	0.364468	0.341917
H499	H	0.849533	-0.603237	-0.346183
H500	H	1.349533	-0.103237	0.153817
H501	H	0.305293	-0.135522	-0.158079
H502	H	0.805293	0.364478	0.341921
O503	O	0.821527	-0.159901	-0.554970
O504	O	1.321527	0.340099	-0.054970
C505	C	0.855290	-0.185475	-0.586546
C506	C	1.355290	0.314525	-0.086546
H507	H	0.836822	-0.219515	-0.594720
H508	H	1.336822	0.280485	-0.094720
H509	H	0.894027	-0.190425	-0.565507
H510	H	1.394027	0.309575	-0.065507
C511	C	0.887474	-0.118934	-0.628379
C512	C	1.387474	0.381066	-0.128379
C513	C	0.864789	-0.160740	-0.638422
C514	C	1.364789	0.339260	-0.138422
H515	H	0.893336	-0.103676	-0.660378
H516	H	1.393336	0.396324	-0.160378
H517	H	0.864728	-0.101703	-0.607104
H518	H	1.364728	0.398297	-0.107104
H519	H	0.919752	-0.123064	-0.610845
H520	H	1.419752	0.376936	-0.110845
H521	H	0.832509	-0.156609	-0.655949
H522	H	1.332509	0.343391	-0.155949
H523	H	0.887529	-0.177969	-0.659701
H524	H	1.387529	0.322031	-0.159701
H525	H	0.849555	-0.688343	-0.346202
H526	H	1.349555	-0.188343	0.153798
H527	H	0.816231	-0.959851	-0.312771
H528	H	1.316231	-0.459851	0.187229
O529	O	0.656167	-0.692193	-0.152526
O530	O	1.156167	-0.192193	0.347474
C531	C	0.626678	-0.661455	-0.122976
C532	C	1.126678	-0.161455	0.377024
H533	H	0.624853	-0.628002	-0.144388
H534	H	1.124853	-0.128002	0.355612
H535	H	0.645845	-0.656472	-0.083285
H536	H	1.145845	-0.156472	0.416715
C537	C	0.573278	-0.720886	-0.089089
C538	C	1.073278	-0.220886	0.410911
C539	C	0.571033	-0.679799	-0.115391
C540	C	1.071033	-0.179799	0.384609
H541	H	0.538955	-0.732202	-0.084408
H542	H	1.038955	-0.232202	0.415592
H543	H	0.593147	-0.741595	-0.108996
H544	H	1.093147	-0.241595	0.391004
H545	H	0.589254	-0.716728	-0.056016
H546	H	1.089254	-0.216728	0.443984
H547	H	0.555064	-0.683958	-0.148466
H548	H	1.055064	-0.183958	0.351534
H549	H	0.551161	-0.659091	-0.095489
H550	H	1.051161	-0.159091	0.404511
H551	H	0.695009	-1.045112	-0.191319
H552	H	1.195009	-0.545112	0.308681
H553	H	0.694900	-0.268490	-1.052908
H554	H	1.194900	0.231510	-0.552908
O555	O	0.689709	-0.956392	-0.185998
O556	O	1.189709	-0.456392	0.314002
C557	C	0.660225	-0.987201	-0.156470
C558	C	1.160225	-0.487201	0.343530
H559	H	0.681657	-1.020630	-0.154696
H560	H	1.181657	-0.520630	0.345304
H561	H	0.620503	-0.992210	-0.175571
H562	H	1.120503	-0.492210	0.324429
C563	C	0.626402	-0.927874	-0.102988
C564	C	1.126402	-0.427874	0.397012
C565	C	0.652727	-0.968931	-0.100806
C566	C	1.152727	-0.468931	0.399194
H567	H	0.621775	-0.916603	-0.068653
H568	H	1.121775	-0.416603	0.431347
H569	H	0.646265	-0.907117	-0.122883
H570	H	1.146265	-0.407117	0.377117
H571	H	0.593304	-0.932053	-0.118908
H572	H	1.093304	-0.432053	0.381092
H573	H	0.685828	-0.964750	-0.084892
H574	H	1.185828	-0.464750	0.415108
H575	H	0.632870	-0.989687	-0.080907
H576	H	1.132870	-0.489687	0.419093
O577	O	0.854835	-0.740360	-0.351523
O578	O	1.354835	-0.240360	0.148477
C579	C	0.884341	-0.771097	-0.381059
C580	C	1.384341	-0.271097	0.118941
H581	H	0.862929	-0.804553	-0.382846
H582	H	1.362929	-0.304553	0.117154
H583	H	0.924064	-0.776071	-0.361957
H584	H	1.424064	-0.276071	0.138043
C585	C	0.918131	-0.711666	-0.434518
C586	C	1.418131	-0.211666	0.065482
C587	C	0.891831	-0.752757	-0.436717
C588	C	1.391831	-0.252757	0.063283
H589	H	0.922754	-0.700353	-0.468850
H590	H	1.422754	-0.200353	0.031150
H591	H	0.898254	-0.690958	-0.414618
H592	H	1.398254	-0.190958	0.085382
H593	H	0.951231	-0.715817	-0.418597
H594	H	1.451231	-0.215817	0.081403
H595	H	0.858729	-0.748605	-0.452632
H596	H	1.358729	-0.248605	0.047368
H597	H	0.911702	-0.773465	-0.456621
H598	H	1.411702	-0.273465	0.043379
