data_functionalizedCrystal
_audit_creation_method	'MofGen! by Chris Wilmer'
_symmetry_space_group_name_H-M	'P1'
_symmetry_Int_Tables_number	1
_symmetry_cell_setting	triclinic
loop_
_symmetry_equiv_pos_as_xyz
  x,y,z
_cell_length_a	23.532407
_cell_length_b	9.065218
_cell_length_c	8.140239
_cell_angle_alpha	90.001686
_cell_angle_beta	89.997376
_cell_angle_gamma	83.932281
loop_
_atom_site_label
_atom_site_type_symbol
_atom_site_fract_x
_atom_site_fract_y
_atom_site_fract_z
O1	O	-0.756573	-0.179072	-0.136402
O2	O	-0.256573	0.320928	0.363598
O3	O	-0.590900	-0.204983	-0.136449
O4	O	-0.090900	0.295017	0.363551
O5	O	-0.677161	0.022784	-0.136422
O6	O	-0.177161	0.522784	0.363578
O7	O	-0.670312	-0.406838	-0.136430
O8	O	-0.170312	0.093162	0.363570
O9	O	-0.677156	0.022786	0.136806
O10	O	-0.177156	0.522786	0.636806
O11	O	-0.590895	-0.204980	0.136778
O12	O	-0.090895	0.295020	0.636778
O13	O	-0.756568	-0.179069	0.136825
O14	O	-0.256568	0.320931	0.636825
Zn15	Zn	-0.673731	-0.192024	0.180182
Zn16	Zn	-0.173731	0.307976	0.680182
Zn17	Zn	-0.673737	-0.192028	-0.179807
Zn18	Zn	-0.173737	0.307972	0.320193
O19	O	-0.670307	-0.406836	0.136797
O20	O	-0.170307	0.093164	0.636797
C21	C	-0.569676	-0.204321	0.000158
C22	C	-0.069676	0.295679	0.500158
C23	C	-0.506445	-0.202338	0.000140
C24	C	-0.006445	0.297662	0.500140
C25	C	-0.676500	0.077739	0.000189
C26	C	-0.176500	0.577739	0.500189
C27	C	-0.674532	0.241485	0.000181
C28	C	-0.174532	0.741485	0.500181
C29	C	-0.777791	-0.179731	0.000214
C30	C	-0.277791	0.320269	0.500214
C31	C	-0.841023	-0.181714	0.000221
C32	C	-0.341023	0.318286	0.500221
C33	C	-0.108240	-0.324683	0.000212
C34	C	0.391760	0.175317	0.500212
C35	C	-0.048826	-0.322840	0.000222
C36	C	0.451174	0.177160	0.500222
O37	O	-0.012914	-0.436255	0.000279
O38	O	0.487086	0.063745	0.500279
N39	N	-0.025206	-0.187433	0.000222
N40	N	0.474794	0.312567	0.500222
C41	C	-0.061003	-0.053860	0.000228
C42	C	0.438997	0.446140	0.500228
O43	O	-0.035456	0.061484	0.000231
O44	O	0.464544	0.561484	0.500231
C45	C	-0.120415	-0.055704	0.000230
C46	C	0.379585	0.444296	0.500230
C47	C	-0.144032	-0.191120	0.000213
C48	C	0.355968	0.308880	0.500213
C49	C	-0.131857	-0.460088	0.000197
C50	C	0.368143	0.039912	0.500197
C51	C	-0.191267	-0.461930	0.000184
C52	C	0.308733	0.038070	0.500184
C53	C	-0.227059	-0.328367	0.000185
C54	C	0.272941	0.171633	0.500185
C55	C	-0.203442	-0.192962	0.000200
C56	C	0.296558	0.307038	0.500200
C57	C	-0.156211	0.077867	0.000248
C58	C	0.343789	0.577867	0.500248
C59	C	-0.215627	0.076011	0.000251
C60	C	0.284373	0.576011	0.500251
C61	C	-0.239244	-0.059405	0.000235
C62	C	0.260756	0.440595	0.500235
C63	C	-0.298644	-0.061242	0.000189
C64	C	0.201356	0.438758	0.500189
N65	N	-0.322264	-0.196649	0.000189
N66	N	0.177736	0.303351	0.500189
C67	C	-0.286472	-0.330211	0.000187
C68	C	0.213528	0.169789	0.500187
C69	C	0.063768	-0.049997	0.000228
C70	C	0.563768	0.450003	0.500228
C71	C	0.123180	-0.048151	0.000214
C72	C	0.623180	0.451849	0.500214
C73	C	0.135352	-0.317131	0.000211
C74	C	0.635352	0.182869	0.500211
C75	C	0.075939	-0.318976	0.000212
C76	C	0.575939	0.181024	0.500212
C77	C	0.040148	-0.185404	0.000228
C78	C	0.540148	0.314596	0.500228
C79	C	-0.411237	-0.334070	0.000158
C80	C	0.088763	0.165930	0.500158
C81	C	-0.470653	-0.335900	0.000138
C82	C	0.029347	0.164100	0.500138
C83	C	-0.482820	-0.066921	0.000150
C84	C	0.017180	0.433079	0.500150
C85	C	-0.423410	-0.065089	0.000162
C86	C	0.076590	0.434911	0.500162
C87	C	-0.387619	-0.198676	0.000171
C88	C	0.112381	0.301324	0.500171
O89	O	-0.334591	0.052114	0.000138
O90	O	0.165409	0.552114	0.500138
O91	O	-0.312027	-0.445536	0.000206
O92	O	0.187973	0.054464	0.500206
C93	C	-0.670968	-0.461791	0.000183
C94	C	-0.170968	0.038209	0.500183
C95	C	-0.672936	-0.625537	0.000180
C96	C	-0.172936	-0.125537	0.500180
N97	N	-0.673731	-0.192021	0.425865
N98	N	-0.173731	0.307979	0.925865
N99	N	-0.673742	-0.192019	-0.425489
N100	N	-0.173742	0.307981	0.074511
H101	H	-0.489878	-0.446177	0.000123
H102	H	0.010122	0.053823	0.500123
H103	H	0.056715	-0.429243	0.000208
H104	H	0.556715	0.070757	0.500208
F105	F	0.173455	-0.459282	0.000216
F106	F	0.673455	0.040718	0.500216
H107	H	-0.382103	-0.442849	0.000171
H108	H	0.117897	0.057151	0.500171
F109	F	0.148308	0.095977	0.000195
F110	F	0.648308	0.595977	0.500195
F111	F	0.025680	0.092179	0.000228
F112	F	0.525680	0.592179	0.500228
H113	H	-0.210490	-0.572199	0.000169
H114	H	0.289510	-0.072199	0.500169
H115	H	-0.102721	-0.568857	0.000201
H116	H	0.397279	-0.068857	0.500201
H117	H	-0.136993	0.188137	0.000263
H118	H	0.363007	0.688137	0.500263
H119	H	-0.244767	0.184784	0.000265
H120	H	0.255233	0.684784	0.500265
F121	F	-0.398274	0.079034	0.000180
F122	F	0.101726	0.579034	0.500180
F123	F	-0.520923	0.075219	0.000155
F124	F	-0.020923	0.575219	0.500155
