data_functionalizedCrystal
_audit_creation_method	'MofGen! by Chris Wilmer'
_symmetry_space_group_name_H-M	'P1'
_symmetry_Int_Tables_number	1
_symmetry_cell_setting	triclinic
loop_
_symmetry_equiv_pos_as_xyz
  x,y,z
_cell_length_a	14.853566
_cell_length_b	11.792254
_cell_length_c	13.930277
_cell_angle_alpha	89.995290
_cell_angle_beta	89.995631
_cell_angle_gamma	83.916506
loop_
_atom_site_label
_atom_site_type_symbol
_atom_site_fract_x
_atom_site_fract_y
_atom_site_fract_z
O1	O	1.196951	0.148173	-0.079768
O2	O	0.934561	0.165827	-0.079784
O3	O	1.072118	-0.008209	-0.079769
O4	O	1.059395	0.322209	-0.079783
O5	O	1.072098	-0.008212	0.079893
O6	O	0.934542	0.165823	0.079878
O7	O	1.196932	0.148170	0.079894
Zn8	Zn	1.065734	0.156996	0.105236
Zn9	Zn	1.065759	0.157001	-0.105126
O10	O	1.059375	0.322205	0.079879
C11	C	0.900960	0.165025	0.000045
C12	C	0.800866	0.162629	0.000039
C13	C	0.377652	0.152496	-0.086975
C14	C	0.377653	0.152493	0.087094
C15	C	0.471695	0.154743	0.087091
C16	C	0.518721	0.155871	0.000054
C17	C	0.471703	0.154750	-0.086981
C18	C	0.518719	0.155876	0.174124
C19	C	0.612767	0.158128	0.174125
C20	C	0.659795	0.159248	0.087086
C21	C	0.612772	0.158125	0.000048
C22	C	0.659798	0.159254	-0.086990
C23	C	0.612777	0.158123	-0.174029
C24	C	0.518731	0.155870	-0.174019
C25	C	0.753841	0.161501	0.087077
C26	C	0.753849	0.161508	-0.086995
C27	C	1.071307	-0.050496	0.000062
C28	C	1.068908	-0.176495	0.000061
C29	C	1.066959	-0.278819	0.000057
C30	C	1.064521	-0.407191	0.000048
C31	C	1.230534	0.148971	0.000063
C32	C	1.330627	0.151367	0.000063
C33	C	1.060186	0.364493	0.000046
C34	C	1.062585	0.490491	0.000041
N35	N	1.065723	0.156992	0.248802
N36	N	1.065777	0.156996	-0.248692
C37	C	1.004847	0.234033	0.701065
C38	C	1.126697	0.079959	0.701047
C39	C	1.126686	0.079956	0.600552
C40	C	1.065756	0.156993	0.550308
C41	C	1.004836	0.234034	0.600559
C42	C	1.187611	0.002924	0.550292
C43	C	1.187603	0.002918	0.449790
C44	C	1.126667	0.079951	0.399545
C45	C	1.065745	0.156994	0.449803
C46	C	1.004814	0.234032	0.399559
C47	C	0.943886	0.311071	0.449815
C48	C	0.943900	0.311068	0.550314
C49	C	1.126654	0.079954	0.299046
C50	C	1.004803	0.234033	0.299054
H51	H	0.792131	0.162423	-0.157873
H52	H	0.651077	0.159049	-0.244895
H53	H	0.894280	0.373800	0.408895
H54	H	1.237212	-0.059812	0.408878
H55	H	0.339358	0.151582	0.157956
H56	H	0.955237	0.296755	0.741986
H57	H	0.955183	0.296763	0.258151
H58	H	0.480423	0.154965	0.244986
H59	H	0.480439	0.154948	-0.244882
H60	H	1.176309	0.017243	0.741959
H61	H	1.237223	-0.059793	0.591204
H62	H	0.894296	0.373791	0.591239
H63	H	0.792120	0.162433	0.157943
H64	H	1.176264	0.017235	0.258132
H65	H	0.651044	0.159046	0.244997
H66	H	0.339364	0.151570	-0.157840
