data_functionalizedCrystal
_audit_creation_method	'MofGen! by Chris Wilmer'
_symmetry_space_group_name_H-M	'P1'
_symmetry_Int_Tables_number	1
_symmetry_cell_setting	triclinic
loop_
_symmetry_equiv_pos_as_xyz
  x,y,z
_cell_length_a	18.101398
_cell_length_b	18.101395
_cell_length_c	11.169409
_cell_angle_alpha	89.961482
_cell_angle_beta	89.971502
_cell_angle_gamma	90.027218
loop_
_atom_site_label
_atom_site_type_symbol
_atom_site_fract_x
_atom_site_fract_y
_atom_site_fract_z
Zn1	Zn	1.132147	-0.294863	-0.678769
Zn2	Zn	1.132032	-0.418729	-0.478064
Zn3	Zn	1.008297	-0.294896	-0.478073
Zn4	Zn	1.008255	-0.418657	-0.678678
O5	O	1.070183	-0.356786	-0.578396
O6	O	1.235765	-0.311311	-0.652179
O7	O	1.115588	-0.402347	-0.310115
O8	O	1.024792	-0.191259	-0.504737
O9	O	1.235680	-0.402315	-0.504722
O10	O	1.115784	-0.191235	-0.652187
O11	O	1.024680	-0.311367	-0.310122
O12	O	0.904659	-0.311297	-0.504649
O13	O	1.024720	-0.402191	-0.846640
O14	O	0.904628	-0.402223	-0.652034
O15	O	1.115743	-0.311241	-0.846707
O16	O	1.115547	-0.522353	-0.504634
O17	O	1.024609	-0.522300	-0.652025
C18	C	0.877772	-0.356756	-0.578333
C19	C	0.795458	-0.356761	-0.578335
C20	C	0.496367	-0.356808	-0.578436
C21	C	0.527687	-0.299313	-0.486158
C22	C	0.613305	-0.299467	-0.485764
C23	C	0.644750	-0.356784	-0.578386
C24	C	0.613629	-0.434799	-0.543824
C25	C	0.527984	-0.434480	-0.543182
C26	C	0.527988	-0.336965	-0.705492
C27	C	0.613639	-0.335228	-0.704799
C28	C	0.728609	-0.356775	-0.578360
C29	C	0.412508	-0.356821	-0.578459
C30	C	1.070081	-0.549197	-0.578345
C31	C	1.070105	-0.631511	-0.578364
C32	C	1.070190	-0.782220	-0.578411
C33	C	1.012945	-0.813571	-0.671074
C34	C	1.013161	-0.899189	-0.671465
C35	C	1.070273	-0.930602	-0.578458
C36	C	1.148349	-0.899422	-0.612496
C37	C	1.147970	-0.813777	-0.613142
C38	C	1.050059	-0.813867	-0.451488
C39	C	1.048385	-0.899519	-0.452191
C40	C	1.070324	-1.014461	-0.578483
C41	C	1.070144	-0.698360	-0.578390
C42	C	1.263345	-0.356817	-0.578460
C43	C	1.345659	-0.356830	-0.578487
C44	C	1.070240	-0.356704	-0.891439
C45	C	1.070264	-0.356669	-1.024839
C46	C	1.070305	-0.163625	-0.578473
C47	C	1.070358	-0.081310	-0.578506
C48	C	1.070169	-0.356815	-0.266571
C49	C	1.070288	-0.356641	-0.133172
H50	H	0.507119	-0.241285	-0.507584
H51	H	1.091749	-0.793585	-0.382450
H52	H	0.507734	-0.378842	-0.774248
H53	H	0.994072	-0.792334	-0.420436
Br54	Br	0.647562	-0.239547	-0.748255
H55	H	1.192089	-0.793033	-0.548570
Br56	Br	0.492040	-0.243795	-0.757866
Br57	Br	0.649314	-0.399939	-0.825541
H58	H	0.955273	-0.920275	-0.650188
H59	H	0.990926	-0.919908	-0.426517
H60	H	0.954850	-0.793048	-0.650036
Br61	Br	1.034911	-0.777614	-0.826937
Br62	Br	1.112825	-0.935160	-0.331015
Br63	Br	1.176370	-0.780375	-0.767766
H64	H	1.026550	-0.919619	-0.765514
H65	H	0.507968	-0.451305	-0.450298
H66	H	0.633754	-0.312585	-0.391617
H67	H	1.192190	-0.919765	-0.547094
H68	H	0.634348	-0.241616	-0.507429
Br69	Br	0.491746	-0.320912	-0.330155
H70	H	0.507264	-0.478769	-0.607462
Br71	Br	0.647560	-0.508115	-0.652349
H72	H	1.165706	-0.920810	-0.704263
H73	H	0.635039	-0.451916	-0.451943
