data_functionalizedCrystal
_audit_creation_method	'MofGen! by Chris Wilmer'
_symmetry_space_group_name_H-M	'P1'
_symmetry_Int_Tables_number	1
_symmetry_cell_setting	triclinic
loop_
_symmetry_equiv_pos_as_xyz
  x,y,z
_cell_length_a	17.019292
_cell_length_b	17.699083
_cell_length_c	16.098691
_cell_angle_alpha	86.940143
_cell_angle_beta	83.071016
_cell_angle_gamma	83.337122
loop_
_atom_site_label
_atom_site_type_symbol
_atom_site_fract_x
_atom_site_fract_y
_atom_site_fract_z
O1	O	-1.046758	-0.096643	0.005846
O2	O	-0.816321	-0.108226	-0.010689
O3	O	-0.938051	0.007730	-0.001947
O4	O	-0.925029	-0.212599	-0.002896
O5	O	-0.944330	0.001676	0.137013
O6	O	-0.822601	-0.114280	0.128271
O7	O	-1.053038	-0.102697	0.144806
Zn8	Zn	-0.938817	-0.109450	0.158601
Zn9	Zn	-0.930543	-0.101473	-0.024485
O10	O	-0.931309	-0.218653	0.136064
C11	C	-0.789977	-0.110696	0.056675
C12	C	-0.702125	-0.109026	0.050371
C13	C	-0.664279	-0.111539	0.123159
C14	C	-0.581734	-0.109958	0.117238
C15	C	-0.537035	-0.105869	0.038529
C16	C	-0.574886	-0.103353	-0.034263
C17	C	-0.657431	-0.104928	-0.028342
C18	C	-0.287633	-0.100941	0.016861
C19	C	-0.205082	-0.099367	0.010945
C20	C	-0.211936	-0.105972	0.162448
C21	C	-0.294481	-0.107552	0.168362
C22	C	-0.332326	-0.105031	0.095569
C23	C	-0.452660	-0.104255	0.032476
C24	C	-0.416700	-0.106640	0.101624
C25	C	-0.079383	-0.100223	0.077438
C26	C	-0.167237	-0.101881	0.083733
C27	C	-0.940724	0.032902	0.067499
C28	C	-0.939324	0.116925	0.067399
C29	C	-0.928636	-0.243824	0.066615
C30	C	-0.930035	-0.327848	0.066710
N31	N	-0.944469	-0.114893	0.283552
C32	C	-1.010777	0.165276	0.072528
C33	C	-1.009456	0.244225	0.072425
C34	C	-0.936683	0.274820	0.067201
C35	C	-0.865225	0.226463	0.062070
C36	C	-0.866546	0.147516	0.062166
C37	C	-0.859897	0.544846	0.061681
C38	C	-0.858582	0.623799	0.061587
C39	C	-1.002808	0.641555	0.071940
C40	C	-1.004128	0.562608	0.072036
C41	C	-0.932671	0.514258	0.066901
C42	C	-0.934103	0.428653	0.067010
C43	C	-0.935250	0.360423	0.067098
C44	C	-0.898555	-0.070771	0.323870
C45	C	-0.902529	-0.074588	0.411342
C46	C	-0.952422	-0.122522	0.458495
C47	C	-0.998337	-0.166649	0.418171
C48	C	-0.994359	-0.162836	0.330701
C49	C	-0.966828	-0.136342	0.722770
C50	C	-0.970805	-0.140150	0.810246
C51	C	-0.874995	-0.048089	0.803411
C52	C	-0.871024	-0.044277	0.715939
C53	C	-0.916937	-0.088407	0.675623
C54	C	-0.956487	-0.126423	0.547905
C55	C	-0.912867	-0.084510	0.586214
N56	N	-0.924891	-0.096028	0.850564
H57	H	-0.688243	-0.102883	-0.087614
H58	H	-0.805972	0.251380	0.057811
H59	H	-0.453098	-0.109966	0.165708
H60	H	-1.038958	-0.205682	0.456570
Cl61	Cl	-0.396465	-0.099080	-0.066469
H62	H	-0.872241	-0.045485	0.547818
Cl63	Cl	-0.817276	0.007380	0.854099
Cl64	Cl	-1.102269	0.126821	0.079104
Cl65	Cl	-1.099287	0.305007	0.078875
H66	H	-0.700667	-0.114875	0.187252
Cl67	Cl	-0.776716	0.086731	0.055716
H68	H	-1.004216	-0.172272	0.689956
Cl69	Cl	-0.767089	0.662260	0.055017
H70	H	-0.801712	0.505488	0.057499
H71	H	-1.063388	0.537702	0.076295
Cl72	Cl	-0.534158	-0.113132	0.208747
Cl73	Cl	-1.052084	-0.218304	0.280016
H74	H	-0.830399	-0.005241	0.677553
H75	H	-1.060992	0.680932	0.076117
Cl76	Cl	-0.350668	-0.112698	0.267314
H77	H	-0.857930	-0.031735	0.285484
Cl78	Cl	-1.033535	-0.200412	0.869524
Cl79	Cl	-0.518696	-0.098184	-0.133212
H80	H	-0.181114	-0.108022	0.221711
H81	H	-0.865142	-0.038659	0.444164
H82	H	-0.997112	-0.165449	0.586307
H83	H	-0.168690	-0.096040	-0.053152
H84	H	-0.318436	-0.098886	-0.042412
