data_functionalizedCrystal
_audit_creation_method	'MofGen! by Chris Wilmer'
_symmetry_space_group_name_H-M	'P1'
_symmetry_Int_Tables_number	1
_symmetry_cell_setting	triclinic
loop_
_symmetry_equiv_pos_as_xyz
  x,y,z
_cell_length_a	14.853567
_cell_length_b	27.732048
_cell_length_c	13.330367
_cell_angle_alpha	89.990394
_cell_angle_beta	89.995418
_cell_angle_gamma	83.138793
loop_
_atom_site_label
_atom_site_type_symbol
_atom_site_fract_x
_atom_site_fract_y
_atom_site_fract_z
O1	O	1.195342	0.063107	-0.083366
O2	O	0.932760	0.070624	-0.083384
O3	O	1.072207	-0.003493	-0.083355
O4	O	1.055896	0.137224	-0.083395
O5	O	1.072187	-0.003495	0.083492
O6	O	0.932740	0.070622	0.083463
O7	O	1.195322	0.063105	0.083481
Cu8	Cu	1.064029	0.066864	0.098707
Cu9	Cu	1.064053	0.066865	-0.098609
O10	O	1.055876	0.137222	0.083453
C11	C	0.899167	0.070283	0.000037
C12	C	0.799100	0.069262	0.000031
C13	C	0.387353	0.020920	0.000067
C14	C	0.364639	0.108973	0.000041
C15	C	0.458657	0.109933	0.000038
C16	C	0.517028	0.066385	0.000047
C17	C	0.481380	0.021878	0.000061
C18	C	0.494313	0.154439	0.000015
C19	C	0.588336	0.155401	0.000010
C20	C	0.646708	0.111853	0.000027
C21	C	0.611055	0.067344	0.000041
C22	C	0.669425	0.023796	0.000051
C23	C	0.633774	-0.020713	0.000072
C24	C	0.539752	-0.021670	0.000077
C25	C	0.740730	0.112809	0.000021
C26	C	0.763452	0.024755	0.000044
C27	C	1.071854	-0.021503	0.000071
C28	C	1.070823	-0.075162	0.000079
C29	C	1.146736	-0.413622	0.000033
C30	C	1.142911	-0.615300	0.000019
O31	O	1.212328	-0.646231	-0.000020
N32	N	1.060225	-0.634810	0.000014
C33	C	0.978490	-0.603898	0.000006
O34	O	0.908073	-0.625120	-0.000009
C35	C	0.982316	-0.402221	0.000013
C36	C	1.065007	-0.382714	0.000028
C37	C	1.229421	-0.394114	0.000047
C38	C	1.230376	-0.343698	0.000056
C39	C	1.148647	-0.312790	0.000051
C40	C	1.065963	-0.332298	0.000037
C41	C	0.900582	-0.371310	-0.000002
C42	C	0.901546	-0.320888	-0.000003
C43	C	0.984237	-0.301381	0.000012
C44	C	0.985189	-0.250973	0.000041
N45	N	1.067875	-0.231462	0.000046
C46	C	1.149604	-0.262371	0.000051
C47	C	0.976487	-0.709781	0.000004
C48	C	0.975530	-0.760200	0.000004
C49	C	1.139952	-0.771599	0.000015
C50	C	1.140908	-0.721179	0.000022
C51	C	1.059173	-0.690271	0.000009
C52	C	1.151604	-0.156492	0.000071
C53	C	1.152552	-0.106071	0.000084
C54	C	0.988131	-0.094677	0.000068
C55	C	0.987183	-0.145094	0.000060
C56	C	1.068926	-0.176001	0.000058
O57	O	0.915809	-0.220013	0.000069
O58	O	1.220011	-0.241139	0.000044
C59	C	1.145781	-0.464039	0.000024
C60	C	1.063097	-0.483547	0.000010
C61	C	0.981367	-0.452638	0.000005
C62	C	1.062140	-0.533966	0.000010
C63	C	1.143869	-0.564874	0.000015
C64	C	1.226555	-0.545364	0.000020
C65	C	1.227510	-0.494947	0.000029
C66	C	0.898682	-0.472149	0.000000
C67	C	0.897733	-0.522566	-0.000008
C68	C	0.979462	-0.553474	-0.000003
C69	C	1.228915	0.063446	0.000058
C70	C	1.328982	0.064467	0.000057
C71	C	1.056228	0.155232	0.000024
C72	C	1.057259	0.208891	0.000009
N73	N	1.064019	0.066862	0.237488
N74	N	1.064070	0.066863	-0.237391
C75	C	1.002304	0.099672	0.710098
C76	C	1.125827	0.034055	0.710092
C77	C	1.125817	0.034054	0.605074
C78	C	1.064050	0.066862	0.552563
C79	C	1.002294	0.099672	0.605070
C80	C	1.187578	0.001248	0.552558
C81	C	1.187571	0.001246	0.447533
C82	C	1.125799	0.034052	0.395021
C83	C	1.064040	0.066863	0.447535
C84	C	1.002273	0.099671	0.395024
C85	C	0.940509	0.132480	0.447536
C86	C	0.940522	0.132479	0.552557
C87	C	1.125786	0.034053	0.289999
C88	C	1.002263	0.099672	0.289996
H89	H	0.769753	0.149048	0.000006
O90	O	0.308071	0.151317	-0.000017
C91	C	0.295458	0.238756	0.000016
C92	C	0.359628	0.190836	0.000059
H93	H	0.337116	0.270719	0.000099
H94	H	0.250893	0.240542	-0.069827
H95	H	0.250847	0.240481	0.069824
H96	H	0.404296	0.189079	-0.069701
H97	H	0.404131	0.189070	0.069948
O98	O	1.232962	-0.087202	0.000050
C99	C	1.395944	-0.103839	0.000118
C100	C	1.304949	-0.125269	0.000136
H101	H	1.454169	-0.134605	0.000209
H102	H	1.400574	-0.080529	-0.069719
H103	H	1.400448	-0.080510	0.069931
H104	H	1.300383	-0.148620	-0.069629
H105	H	1.300357	-0.148551	0.070020
O106	O	0.880443	0.164365	0.603411
C107	C	0.757952	0.229465	0.592339
C108	C	0.825927	0.193373	0.534618
H109	H	0.713871	0.252935	0.536745
H110	H	0.713157	0.208574	0.641498
H111	H	0.796556	0.253629	0.641518
H112	H	0.787397	0.169200	0.485385
H113	H	0.870721	0.214295	0.485522
H114	H	0.510716	-0.057907	0.000118
O115	O	1.247483	-0.030605	0.396379
C116	C	1.370412	-0.040945	0.277396
C117	C	1.302739	-0.004790	0.335353
H118	H	1.415092	-0.020087	0.228027
H119	H	1.414640	-0.064454	0.332801
H120	H	1.331553	-0.065065	0.228399
H121	H	1.341525	0.019362	0.384351
H122	H	1.258513	0.018686	0.279893
O123	O	0.942185	0.131492	0.761059
C124	C	0.785037	0.159675	0.793159
C125	C	0.853023	0.123605	0.735401
H126	H	0.712936	0.153318	0.772420
H127	H	0.795570	0.154039	0.877254
H128	H	0.796283	0.198399	0.772511
H129	H	0.841819	0.084868	0.755965
H130	H	0.842474	0.129284	0.651320
O131	O	1.230985	-0.186530	-0.000103
C132	C	1.325340	-0.250077	-0.086501
C133	C	1.235420	-0.216079	-0.086449
H134	H	1.328947	-0.273982	-0.156292
H135	H	1.384629	-0.227490	-0.086552
H136	H	1.328985	-0.273951	-0.016645
H137	H	1.231686	-0.192198	-0.156292
H138	H	1.176174	-0.238694	-0.086345
O139	O	1.306030	-0.575324	0.000066
C140	C	1.469215	-0.581326	0.000004
C141	C	1.379284	-0.547338	-0.000016
H142	H	1.528465	-0.558713	-0.000083
H143	H	1.472930	-0.605215	0.069841
H144	H	1.472823	-0.605217	-0.069810
H145	H	1.375615	-0.523417	0.069751
H146	H	1.375606	-0.523481	-0.069899
O147	O	0.437649	0.196750	-0.000177
C148	C	0.389483	0.271725	-0.086614
C149	C	0.453699	0.223820	-0.086534
H150	H	0.402451	0.293629	-0.156415
H151	H	0.316144	0.263419	-0.086666
H152	H	0.402358	0.293607	-0.016768
H153	H	0.440906	0.201915	-0.156368
H154	H	0.527017	0.232160	-0.086430
O155	O	0.942227	0.131590	0.239146
C156	C	0.819669	0.196651	0.250236
C157	C	0.887623	0.160539	0.307947
H158	H	0.775491	0.220059	0.305837
H159	H	0.858198	0.220873	0.201082
H160	H	0.774966	0.175729	0.201052
H161	H	0.932343	0.181421	0.357185
H162	H	0.849038	0.136317	0.357038
H163	H	1.176078	0.007343	0.247249
H164	H	0.919849	-0.160977	0.000076
H165	H	0.617355	0.191643	-0.000007
O166	O	1.185779	0.002119	0.760992
C167	C	1.239719	-0.081879	0.793209
C168	C	1.171792	-0.045761	0.735477
H169	H	1.228422	-0.120599	0.772618
H170	H	1.311858	-0.075558	0.772532
H171	H	1.229124	-0.076216	0.877285
H172	H	1.182304	-0.051403	0.651388
H173	H	1.099677	-0.052092	0.756238
O174	O	1.247525	-0.030689	0.603463
C175	C	1.301458	-0.114688	0.635681
C176	C	1.233540	-0.078569	0.577940
H177	H	1.290163	-0.153407	0.615083
H178	H	1.373601	-0.108367	0.615018
H179	H	1.290850	-0.109027	0.719755
H180	H	1.244066	-0.084209	0.493853
H181	H	1.161423	-0.084900	0.598686
O182	O	1.310783	-0.324832	0.000018
C183	C	1.473763	-0.341478	0.000083
C184	C	1.382762	-0.362903	0.000106
H185	H	1.531982	-0.372248	0.000176
H186	H	1.478397	-0.318171	-0.069758
H187	H	1.478274	-0.318148	0.069893
H188	H	1.378190	-0.386255	-0.069656
H189	H	1.378167	-0.386182	0.069993
O190	O	0.690350	-0.063059	0.000033
C191	C	0.702980	-0.150498	0.000119
C192	C	0.638801	-0.102581	0.000143
H193	H	0.661329	-0.182464	0.000229
H194	H	0.747545	-0.152281	-0.069730
H195	H	0.747590	-0.152222	0.069921
H196	H	0.594134	-0.100825	-0.069611
H197	H	0.594298	-0.100818	0.070038
H198	H	0.358321	-0.015319	0.000088
H199	H	0.810972	-0.010707	0.000056
H200	H	1.295978	-0.419276	0.000047
O201	O	0.897002	-0.679829	0.000045
C202	C	0.733819	-0.673858	-0.000013
C203	C	0.823769	-0.707831	-0.000043
H204	H	0.674587	-0.696483	-0.000106
H205	H	0.730083	-0.649983	0.069830
H206	H	0.730202	-0.649952	-0.069821
H207	H	0.827447	-0.731767	0.069717
H208	H	0.827468	-0.731672	-0.069933
H209	H	1.208242	-0.705300	0.000034
H210	H	0.890222	0.159195	0.404769
H211	H	1.206499	-0.796773	0.000020
O212	O	0.817377	-0.541488	-0.000199
C213	C	0.676547	-0.547124	-0.086642
C214	C	0.767523	-0.525674	-0.086549
H215	H	0.636206	-0.534338	-0.156438
H216	H	0.689837	-0.588471	-0.086715
H217	H	0.636220	-0.534414	-0.016791
H218	H	0.807896	-0.538346	-0.156389
H219	H	0.754169	-0.484328	-0.086424
O220	O	0.820175	-0.390171	-0.000066
C221	C	0.657195	-0.373522	-0.000040
C222	C	0.748197	-0.352099	0.000011
H223	H	0.598978	-0.342752	0.000043
H224	H	0.652581	-0.396816	-0.069886
H225	H	0.652661	-0.396865	0.069764
H226	H	0.752793	-0.328735	-0.069746
H227	H	0.752772	-0.328833	0.069903
H228	H	0.908195	-0.776078	0.000009
H229	H	0.834986	-0.295725	-0.000015
H230	H	0.921590	-0.069502	0.000067
H231	H	0.832126	-0.446987	-0.000006
H232	H	1.294846	-0.479069	0.000041
