data_functionalizedCrystal
_audit_creation_method	'MofGen! by Chris Wilmer'
_symmetry_space_group_name_H-M	'P1'
_symmetry_Int_Tables_number	1
_symmetry_cell_setting	triclinic
loop_
_symmetry_equiv_pos_as_xyz
  x,y,z
_cell_length_a	14.519709
_cell_length_b	9.616153
_cell_length_c	14.519709
_cell_angle_alpha	90.003203
_cell_angle_beta	83.680145
_cell_angle_gamma	90.001254
loop_
_atom_site_label
_atom_site_type_symbol
_atom_site_fract_x
_atom_site_fract_y
_atom_site_fract_z
O1	O	1.223871	0.115468	0.120887
O2	O	1.723871	0.615468	0.620887
O3	O	0.955394	0.115510	0.135124
O4	O	1.455394	0.615510	0.635124
O5	O	1.096751	0.115475	-0.006233
O6	O	1.596751	0.615475	0.493767
O7	O	1.082514	0.115503	0.262244
O8	O	1.582514	0.615503	0.762244
O9	O	1.096732	-0.115816	-0.006230
O10	O	1.596732	0.384184	0.493770
O11	O	0.955375	-0.115781	0.135127
O12	O	1.455375	0.384219	0.635127
O13	O	1.223852	-0.115824	0.120891
O14	O	1.723852	0.384176	0.620891
Zn15	Zn	1.089610	-0.152525	0.128009
Zn16	Zn	1.589610	0.347475	0.628009
Zn17	Zn	1.089636	0.152212	0.128005
Zn18	Zn	1.589636	0.652212	0.628005
O19	O	1.082495	-0.115789	0.262247
O20	O	1.582495	0.384211	0.762247
C21	C	0.921025	-0.000130	0.134462
C22	C	1.421025	0.499870	0.634462
C23	C	0.818643	-0.000114	0.132474
C24	C	1.318643	0.499886	0.632474
N25	N	1.089599	-0.360499	0.128011
N26	N	1.589599	0.139501	0.628011
C27	C	0.443748	-0.000178	0.125154
C28	C	0.943748	0.499822	0.625154
C29	C	0.548056	-0.000160	0.127187
C30	C	1.048056	0.499840	0.627187
C31	C	0.631192	-0.000145	0.128814
C32	C	1.131192	0.499855	0.628814
C33	C	0.735507	-0.000129	0.130847
C34	C	1.235507	0.499871	0.630847
C35	C	1.013756	-0.580851	0.203378
C36	C	1.513756	-0.080851	0.703378
C37	C	1.013919	-0.419683	0.203657
C38	C	1.513919	0.080317	0.703657
C39	C	1.185863	-0.418962	0.149189
C40	C	1.685863	0.081038	0.649189
C41	C	1.185449	-0.580180	0.149722
C42	C	1.685449	-0.080180	0.649722
C43	C	1.070141	-0.580417	0.031215
C44	C	1.570141	-0.080417	0.531215
C45	C	1.067923	-0.419190	0.031860
C46	C	1.567923	0.080810	0.531860
C47	C	1.258221	-0.000180	0.121553
C48	C	1.758221	0.499820	0.621553
C49	C	1.360602	-0.000187	0.123541
C50	C	1.860602	0.499813	0.623541
C51	C	1.096078	-0.000170	-0.040591
C52	C	1.596078	0.499830	0.459409
C53	C	1.094090	-0.000171	-0.142972
C54	C	1.594090	0.499829	0.357028
N55	N	1.089654	0.360186	0.127996
N56	N	1.589654	0.860186	0.627996
C57	C	1.086770	-0.000134	-0.517868
C58	C	1.586770	0.499866	-0.017868
C59	C	1.088803	-0.000144	-0.413560
C60	C	1.588803	0.499856	0.086440
C61	C	1.090430	-0.000154	-0.330423
C62	C	1.590430	0.499846	0.169577
C63	C	1.092463	-0.000162	-0.226109
C64	C	1.592463	0.499838	0.273891
C65	C	1.083168	-0.000140	0.296606
C66	C	1.583168	0.499860	0.796606
C67	C	1.085156	-0.000130	0.398987
C68	C	1.585156	0.499870	0.898987
H69	H	0.941981	-0.619652	0.190940
H70	H	1.441981	-0.119652	0.690940
C71	C	1.289199	-0.711970	0.233655
C72	C	1.789199	-0.211970	0.733655
C73	C	1.208633	-0.630918	0.245009
C74	C	1.708633	-0.130918	0.745009
H75	H	1.303515	-0.743277	0.292484
H76	H	1.803515	-0.243277	0.792484
H77	H	1.279605	-0.789851	0.195620
H78	H	1.779605	-0.289851	0.695620
H79	H	1.339121	-0.657738	0.205173
H80	H	1.839121	-0.157738	0.705173
H81	H	1.158710	-0.685153	0.273485
H82	H	1.658710	-0.185153	0.773485
H83	H	1.218222	-0.553025	0.283059
H84	H	1.718222	-0.053025	0.783059
H85	H	1.001468	-0.621145	0.010889
H86	H	1.501468	-0.121145	0.510889
H87	H	0.942370	-0.380158	0.191015
H88	H	1.442370	0.119842	0.691015
C89	C	0.953599	-0.420454	-0.075694
C90	C	1.453599	0.079546	0.424306
C91	C	0.972330	-0.367610	0.010158
C92	C	1.472330	0.132390	0.510158
H93	H	0.894582	-0.388609	-0.089086
H94	H	1.394582	0.111391	0.410914
H95	H	0.999787	-0.389407	-0.122598
H96	H	1.499787	0.110593	0.377402
H97	H	0.953710	-0.519190	-0.073616
H98	H	1.453710	-0.019190	0.426384
H99	H	0.972226	-0.268874	0.008078
H100	H	1.472226	0.231126	0.508078
H101	H	0.926130	-0.398650	0.057074
H102	H	1.426130	0.101350	0.557074
C103	C	0.960193	-0.416582	0.366059
C104	C	1.460193	0.083418	0.866059
C105	C	1.030762	-0.367589	0.300606
C106	C	1.530762	0.132411	0.800606
H107	H	0.970600	-0.384429	0.425914
H108	H	1.470600	0.115571	0.925914
H109	H	0.902091	-0.383183	0.351126
H110	H	1.402091	0.116817	0.851126
H111	H	0.960042	-0.515365	0.365537
H112	H	1.460042	-0.015365	0.865537
H113	H	1.030908	-0.268805	0.301124
H114	H	1.530908	0.231195	0.801124
H115	H	1.088879	-0.400981	0.315544
H116	H	1.588879	0.099019	0.815544
H117	H	1.119595	-0.378908	-0.026875
H118	H	1.619595	0.121092	0.473125
C119	C	1.191491	-0.517601	-0.087351
C120	C	1.691491	-0.017601	0.412649
C121	C	1.144849	-0.631896	-0.044521
C122	C	1.644849	-0.131896	0.455479
H123	H	1.237616	-0.549391	-0.134098
H124	H	1.737616	-0.049391	0.365902
H125	H	1.148588	-0.460201	-0.114496
H126	H	1.648588	0.039799	0.385504
H127	H	1.219914	-0.465711	-0.042506
H128	H	1.719914	0.034289	0.457494
H129	H	1.116420	-0.683780	-0.089365
H130	H	1.616420	-0.183780	0.410635
H131	H	1.187759	-0.689320	-0.017376
H132	H	1.687759	-0.189320	0.482624
C133	C	0.952824	-0.711154	0.337481
C134	C	1.452824	-0.211154	0.837481
C135	C	1.030365	-0.635509	0.299783
C136	C	1.530365	-0.135509	0.799783
H137	H	0.963086	-0.744905	0.396994
H138	H	1.463086	-0.244905	0.896994
H139	H	0.899851	-0.652541	0.342941
H140	H	1.399851	-0.152541	0.842941
H141	H	0.942959	-0.787331	0.298080
H142	H	1.442959	-0.287331	0.798080
H143	H	1.040226	-0.559325	0.339180
H144	H	1.540226	-0.059325	0.839180
H145	H	1.083354	-0.694125	0.294328
H146	H	1.583354	-0.194125	0.794328
C147	C	1.311196	-0.519163	0.035423
C148	C	1.811196	-0.019163	0.535423
C149	C	1.263979	-0.632843	0.078424
C150	C	1.763979	-0.132843	0.578424
H151	H	1.359677	-0.551674	-0.008590
H152	H	1.859677	-0.051674	0.491410
H153	H	1.269316	-0.464458	0.004908
H154	H	1.769316	0.035542	0.504908
H155	H	1.336631	-0.464272	0.080789
H156	H	1.836631	0.035728	0.580789
H157	H	1.238538	-0.687729	0.033058
H158	H	1.738538	-0.187729	0.533058
H159	H	1.305866	-0.687571	0.108939
H160	H	1.805866	-0.187571	0.608939
C161	C	1.295636	-0.417453	0.261368
C162	C	1.795636	0.082547	0.761368
C163	C	1.209589	-0.364445	0.243396
C164	C	1.709589	0.135555	0.743396
H165	H	1.310279	-0.383789	0.319527
H166	H	1.810279	0.116211	0.819527
H167	H	1.293010	-0.516133	0.262784
H168	H	1.793010	-0.016133	0.762784
H169	H	1.341976	-0.388362	0.213985
H170	H	1.841976	0.111638	0.713985
H171	H	1.163247	-0.393543	0.290776
H172	H	1.663247	0.106457	0.790776
H173	H	1.212208	-0.265743	0.241988
H174	H	1.712208	0.234257	0.741988
H175	H	1.243691	-0.380623	0.095754
H176	H	1.743691	0.119377	0.595754
