data_functionalizedCrystal
_audit_creation_method	'MofGen! by Chris Wilmer'
_symmetry_space_group_name_H-M	'P1'
_symmetry_Int_Tables_number	1
_symmetry_cell_setting	triclinic
loop_
_symmetry_equiv_pos_as_xyz
  x,y,z
_cell_length_a	10.654550
_cell_length_b	15.995350
_cell_length_c	9.130313
_cell_angle_alpha	89.997713
_cell_angle_beta	89.999724
_cell_angle_gamma	83.988653
loop_
_atom_site_label
_atom_site_type_symbol
_atom_site_fract_x
_atom_site_fract_y
_atom_site_fract_z
O1	O	1.666303	0.117603	-0.121682
O2	O	2.166303	0.617603	0.378318
O3	O	1.300678	0.128807	-0.121708
O4	O	1.800678	0.628807	0.378292
O5	O	1.493485	0.001375	-0.121693
O6	O	1.993485	0.501375	0.378307
O7	O	1.473496	0.245034	-0.121697
O8	O	1.973496	0.745034	0.378303
O9	O	1.493472	0.001371	0.121906
O10	O	1.993472	0.501371	0.621906
O11	O	1.300665	0.128803	0.121891
O12	O	1.800665	0.628803	0.621891
O13	O	1.666290	0.117599	0.121917
O14	O	2.166290	0.617599	0.621917
Cu15	Cu	1.483476	0.123201	0.144146
Cu16	Cu	1.983476	0.623201	0.644146
Cu17	Cu	1.483492	0.123205	-0.143938
Cu18	Cu	1.983492	0.623205	0.356062
O19	O	1.473483	0.245031	0.121902
O20	O	1.973483	0.745031	0.621902
C21	C	1.253884	0.127982	0.000088
C22	C	1.753884	0.627982	0.500088
C23	C	1.114473	0.125521	0.000078
C24	C	1.614473	0.625521	0.500078
C25	C	1.492652	-0.029826	0.000103
C26	C	1.992652	0.470174	0.500103
C27	C	1.490175	-0.122791	0.000095
C28	C	1.990175	0.377209	0.500095
C29	C	1.034008	0.200551	0.000080
C30	C	1.534008	0.700551	0.500080
C31	C	0.903017	0.198233	0.000106
C32	C	1.403017	0.698233	0.500106
C33	C	0.932971	0.045849	0.000120
C34	C	1.432971	0.545849	0.500120
C35	C	1.063959	0.048168	0.000105
C36	C	1.563959	0.548168	0.500105
C37	C	1.481277	-0.460590	0.000099
C38	C	1.981277	0.039410	0.500099
C39	C	1.343964	-0.413954	-0.000457
C40	C	1.843964	0.086046	0.499543
C41	C	1.346442	-0.317249	0.000092
C42	C	1.846442	0.182751	0.500092
C43	C	1.485691	-0.293004	0.000096
C44	C	1.985691	0.206996	0.500096
C45	C	1.553411	-0.333690	0.139205
C46	C	2.053411	0.166310	0.639205
C47	C	1.549962	-0.430346	0.139322
C48	C	2.049962	0.069654	0.639322
C49	C	1.552813	-0.430684	-0.137696
C50	C	2.052813	0.069316	0.362304
C51	C	1.552781	-0.333738	-0.139534
C52	C	2.052781	0.166262	0.360466
C53	C	1.488192	-0.198292	0.000100
C54	C	1.988192	0.301708	0.500100
C55	C	1.478780	-0.555303	0.000106
C56	C	1.978780	-0.055303	0.500106
C57	C	1.713084	0.118423	0.000118
C58	C	2.213084	0.618423	0.500118
C59	C	1.852495	0.120885	0.000118
C60	C	2.352495	0.620885	0.500118
C61	C	1.474316	0.276232	0.000102
C62	C	1.974316	0.776232	0.500102
C63	C	1.476793	0.369197	0.000101
C64	C	1.976793	0.869197	0.500101
N65	N	1.483475	0.123197	0.346769
N66	N	1.983475	0.623197	0.846769
N67	N	1.483504	0.123202	-0.346560
N68	N	1.983504	0.623202	0.153440
C69	C	1.568878	0.066794	0.423427
C70	C	2.068878	0.566794	0.923427
C71	C	1.568890	0.066794	0.576764
C72	C	2.068890	0.566794	1.076764
C73	C	1.398091	0.179608	0.576770
C74	C	1.898091	0.679608	1.076770
C75	C	1.398074	0.179603	0.423436
C76	C	1.898074	0.679603	0.923436
H77	H	1.075132	0.263537	0.000069
H78	H	1.575132	0.763537	0.500069
Cl79	Cl	0.801865	0.292561	0.000111
Cl80	Cl	1.301865	0.792561	0.500111
H81	H	1.328522	0.225533	0.361017
H82	H	1.828522	0.725533	0.861017
H83	H	1.506365	-0.305584	0.242723
H84	H	2.006365	0.194416	0.742723
H85	H	1.289319	-0.433866	0.098738
H86	H	1.789319	0.066134	0.598738
Cl87	Cl	1.290740	0.250518	0.673159
Cl88	Cl	1.790740	0.750518	1.173159
Cl89	Cl	0.869457	-0.051390	0.000144
Cl90	Cl	1.369457	0.448610	0.500144
Cl91	Cl	1.709562	-0.309107	-0.152508
Cl92	Cl	2.209562	0.190893	0.347492
H93	H	1.293209	-0.289135	-0.099627
H94	H	1.793209	0.210865	0.400373
Cl95	Cl	1.165124	-0.046163	0.000113
Cl96	Cl	1.665124	0.453837	0.500113
H97	H	1.289086	-0.432803	-0.100215
H98	H	1.789086	0.067197	0.399785
H99	H	1.292840	-0.289697	0.099974
H100	H	1.792840	0.210303	0.599974
Cl101	Cl	1.473696	-0.459051	0.299858
Cl102	Cl	1.973696	0.040949	0.799858
H103	H	1.655713	-0.318971	0.144382
H104	H	2.155713	0.181029	0.644382
Cl105	Cl	1.705604	-0.479235	0.149092
Cl106	Cl	2.205604	0.020765	0.649092
Cl107	Cl	1.483496	-0.462782	-0.300483
Cl108	Cl	1.983496	0.037218	0.199517
H109	H	1.503268	-0.306776	-0.242443
H110	H	2.003268	0.193224	0.257557
Cl111	Cl	1.709119	-0.478813	-0.139140
Cl112	Cl	2.209119	0.021187	0.360860
H113	H	1.638415	0.020864	0.361008
H114	H	2.138415	0.520864	0.861008
H115	H	1.638432	0.020865	0.639175
H116	H	2.138432	0.520865	1.139175
