data_functionalizedCrystal
_audit_creation_method	'MofGen! by Chris Wilmer'
_symmetry_space_group_name_H-M	'P1'
_symmetry_Int_Tables_number	1
_symmetry_cell_setting	triclinic
loop_
_symmetry_equiv_pos_as_xyz
  x,y,z
_cell_length_a	19.188930
_cell_length_b	14.519709
_cell_length_c	12.996460
_cell_angle_alpha	90.007090
_cell_angle_beta	90.019467
_cell_angle_gamma	83.412462
loop_
_atom_site_label
_atom_site_type_symbol
_atom_site_fract_x
_atom_site_fract_y
_atom_site_fract_z
O1	O	-0.926556	-0.115137	-0.085900
O2	O	-0.723300	-0.130636	-0.085830
O3	O	-0.830317	0.011385	-0.085857
O4	O	-0.819539	-0.257159	-0.085872
O5	O	-0.830306	0.011393	0.085276
O6	O	-0.723288	-0.130629	0.085304
O7	O	-0.926545	-0.115129	0.085234
Cu8	Cu	-0.824915	-0.122878	0.100895
Cu9	Cu	-0.824929	-0.122887	-0.101491
O10	O	-0.819527	-0.257151	0.085262
C11	C	-0.697281	-0.130131	-0.000254
C12	C	-0.619771	-0.128624	-0.000227
C13	C	-0.829809	0.045746	-0.000290
C14	C	-0.828304	0.148118	-0.000289
C15	C	-0.952563	-0.115635	-0.000344
C16	C	-1.030073	-0.117142	-0.000378
C17	C	-0.575144	-0.211957	-0.000247
C18	C	-0.502315	-0.210542	-0.000259
C19	C	-0.474117	-0.125788	-0.000270
C20	C	-0.518754	-0.042444	-0.000243
C21	C	-0.591581	-0.043861	-0.000222
N22	N	-0.365910	-0.061007	-0.058552
N23	N	-0.296727	-0.059666	-0.058575
C24	C	-0.254693	-0.121511	-0.000332
N25	N	-0.284455	-0.184762	0.057920
N26	N	-0.353645	-0.186106	0.057938
C27	C	-0.395149	-0.124241	-0.000292
C28	C	-0.131096	-0.203315	-0.000364
C29	C	-0.058266	-0.201896	-0.000369
C30	C	-0.074706	-0.033796	-0.000364
C31	C	-0.147535	-0.035217	-0.000348
C32	C	-0.175725	-0.119980	-0.000353
C33	C	-0.820035	-0.291511	-0.000308
C34	C	-0.821541	-0.393883	-0.000316
N35	N	-0.824911	-0.122871	0.243242
C36	C	-0.822762	0.522979	-0.000314
C37	C	-0.824301	0.418681	-0.000307
C38	C	-0.825533	0.335552	-0.000300
C39	C	-0.827072	0.231247	-0.000295
N40	N	-0.824938	-0.122887	-0.243838
C41	C	-0.824928	-0.122888	0.663056
C42	C	-0.824921	-0.122887	0.546251
C43	C	-0.824920	-0.122880	0.453153
C44	C	-0.824913	-0.122877	0.336340
H45	H	-0.598091	-0.280978	-0.000253
C46	C	-0.493373	-0.376845	-0.000299
C47	C	-0.453249	-0.302148	-0.000296
H48	H	-0.463081	-0.433397	-0.000331
H49	H	-0.522092	-0.373912	0.059389
H50	H	-0.522148	-0.373889	-0.059968
H51	H	-0.424477	-0.305100	0.059378
H52	H	-0.424518	-0.305082	-0.059989
C53	C	-0.414413	0.034367	-0.000293
C54	C	-0.487761	0.050720	-0.000261
H55	H	-0.395282	0.091886	-0.000307
H56	H	-0.399082	0.000076	0.059377
H57	H	-0.399132	0.000062	-0.059980
H58	H	-0.503043	0.085020	0.059431
H59	H	-0.503099	0.085026	-0.059937
C60	C	-0.628046	0.098972	-0.088187
C61	C	-0.640642	0.047745	-0.000210
H62	H	-0.658339	0.155523	-0.088184
H63	H	-0.580644	0.111947	-0.088188
H64	H	-0.636624	0.064192	-0.147857
H65	H	-0.632058	0.082522	0.059459
H66	H	-0.688055	0.034772	-0.000200
H67	H	-0.183871	0.032642	-0.000337
H68	H	-0.051748	0.035213	-0.000437
H69	H	-0.021931	-0.269760	-0.000380
C70	C	-0.107533	-0.369332	-0.000359
C71	C	-0.162089	-0.296483	-0.000353
H72	H	-0.126667	-0.426849	-0.000346
H73	H	-0.079491	-0.365289	-0.060040
H74	H	-0.079450	-0.365270	0.059317
H75	H	-0.190169	-0.300541	-0.060034
H76	H	-0.190143	-0.300528	0.059334
