data_functionalizedCrystal
_audit_creation_method	'MofGen! by Chris Wilmer'
_symmetry_space_group_name_H-M	'P1'
_symmetry_Int_Tables_number	1
_symmetry_cell_setting	triclinic
loop_
_symmetry_equiv_pos_as_xyz
  x,y,z
_cell_length_a	23.532355
_cell_length_b	17.038272
_cell_length_c	15.500361
_cell_angle_alpha	86.957697
_cell_angle_beta	87.184305
_cell_angle_gamma	93.030473
loop_
_atom_site_label
_atom_site_type_symbol
_atom_site_fract_x
_atom_site_fract_y
_atom_site_fract_z
O1	O	0.757794	-0.098322	0.071826
O2	O	0.592649	-0.112093	0.071854
O3	O	0.674240	0.008600	0.071833
O4	O	0.676203	-0.219016	0.071847
O5	O	0.679165	0.015900	-0.072054
O6	O	0.597574	-0.104794	-0.072033
O7	O	0.762719	-0.091022	-0.072061
Cu8	Cu	0.680596	-0.097242	-0.085185
Cu9	Cu	0.674772	-0.105874	0.084978
O10	O	0.681128	-0.211716	-0.072040
C11	C	0.573877	-0.108100	-0.000086
C12	C	0.510604	-0.107065	-0.000076
C13	C	0.120934	-0.096582	-0.078545
C14	C	0.061483	-0.095597	-0.078549
O15	O	0.033019	-0.091678	-0.145252
N16	N	0.029064	-0.099088	-0.000116
C17	C	0.056100	-0.103556	0.078325
O18	O	0.023066	-0.106434	0.145037
C19	C	0.115550	-0.104535	0.078327
C20	C	0.147965	-0.101052	-0.000110
C21	C	0.153349	-0.093098	-0.156976
C22	C	0.212796	-0.094084	-0.156973
C23	C	0.239828	-0.098554	-0.078538
C24	C	0.207412	-0.102038	-0.000107
C25	C	0.142585	-0.108998	0.156767
C26	C	0.202039	-0.109976	0.156763
C27	C	0.234455	-0.106493	0.078325
C28	C	0.293891	-0.107494	0.078332
N29	N	0.326309	-0.104003	-0.000100
C30	C	0.299278	-0.099533	-0.078535
C31	C	-0.068750	-0.101499	0.078313
C32	C	-0.128199	-0.100525	0.078312
C33	C	-0.122812	-0.092565	-0.078562
C34	C	-0.063361	-0.093544	-0.078559
C35	C	-0.036331	-0.098008	-0.000119
C36	C	0.424120	-0.101605	-0.078522
C37	C	0.483572	-0.102595	-0.078511
C38	C	0.478180	-0.110551	0.078362
C39	C	0.418733	-0.109566	0.078352
C40	C	0.391705	-0.105090	-0.000097
O41	O	0.322393	-0.111410	0.145001
O42	O	0.332319	-0.096646	-0.145237
C43	C	0.674918	0.041365	-0.000110
C44	C	0.669591	0.128117	-0.000109
C45	C	0.781491	-0.095016	-0.000119
C46	C	0.844764	-0.096051	-0.000124
C47	C	0.680451	-0.244481	-0.000095
C48	C	0.685777	-0.331233	-0.000091
N49	N	0.684697	-0.091169	-0.204868
C50	C	0.718496	0.178606	-0.000118
C51	C	0.713488	0.260118	-0.000109
C52	C	0.659573	0.291139	-0.000097
C53	C	0.610664	0.240643	-0.000085
C54	C	0.615673	0.159133	-0.000088
C55	C	0.641877	0.536761	-0.000082
C56	C	0.636872	0.618278	-0.000082
C57	C	0.739696	0.637747	-0.000104
C58	C	0.744701	0.556234	-0.000112
C59	C	0.695791	0.505745	-0.000096
C60	C	0.654452	0.374457	-0.000090
C61	C	0.700912	0.422428	-0.000096
C62	C	0.650117	-0.142292	-0.250158
C63	C	0.653234	-0.137696	-0.340729
C64	C	0.690929	-0.081974	-0.386010
C65	C	0.725514	-0.030849	-0.340715
C66	C	0.722399	-0.035449	-0.250145
C67	C	0.702145	-0.065415	-0.659473
C68	C	0.705256	-0.060818	-0.750049
C69	C	0.632976	-0.167667	-0.750058
C70	C	0.629862	-0.172259	-0.659486
C71	C	0.664449	-0.121137	-0.614198
C72	C	0.694116	-0.077273	-0.478589
C73	C	0.661265	-0.125841	-0.521621
N74	N	0.670675	-0.111940	0.204661
H75	H	0.116202	-0.111833	0.220640
H76	H	0.604818	-0.209289	-0.786939
H77	H	0.575848	0.118024	-0.000080
H78	H	0.744809	0.397167	-0.000086
H79	H	0.753312	0.301224	-0.000118
H80	H	-0.046746	-0.105141	0.142193
H81	H	0.619418	-0.187664	-0.213296
H82	H	0.500199	-0.114194	0.142222
H83	H	0.610555	0.399724	-0.000083
H84	H	0.599168	-0.217632	-0.622620
H85	H	0.509963	-0.099761	-0.142387
H86	H	0.625076	-0.179325	-0.377603
H87	H	0.750559	0.006180	-0.213271
H88	H	0.239184	-0.091243	-0.220845
H89	H	0.131347	-0.089457	-0.220851
H90	H	0.630576	-0.171214	-0.484751
H91	H	0.788603	0.530983	-0.000122
H92	H	0.735954	-0.015438	-0.786913
H93	H	0.756209	0.014519	-0.377588
H94	H	0.724807	-0.031901	-0.515464
H95	H	-0.144831	-0.088924	-0.142428
H96	H	0.592966	0.643532	-0.000086
H97	H	0.402121	-0.097968	-0.142402
H98	H	0.762400	0.153356	-0.000133
H99	H	0.730306	-0.023788	-0.622607
H100	H	0.779515	0.678863	-0.000115
H101	H	-0.154588	-0.103374	0.142184
H102	H	-0.036972	-0.090708	-0.142430
H103	H	0.224044	-0.113611	0.220640
H104	H	0.566765	0.265906	-0.000070
H105	H	0.392338	-0.112415	0.142222
H106	H	0.602051	0.495662	-0.000069
