data_functionalizedCrystal
_audit_creation_method	'MofGen! by Chris Wilmer'
_symmetry_space_group_name_H-M	'P1'
_symmetry_Int_Tables_number	1
_symmetry_cell_setting	triclinic
loop_
_symmetry_equiv_pos_as_xyz
  x,y,z
_cell_length_a	17.699083
_cell_length_b	17.699083
_cell_length_c	16.176319
_cell_angle_alpha	89.994467
_cell_angle_beta	90.002042
_cell_angle_gamma	83.283015
loop_
_atom_site_label
_atom_site_type_symbol
_atom_site_fract_x
_atom_site_fract_y
_atom_site_fract_z
O1	O	1.004076	0.095699	0.068716
O2	O	0.783698	0.108151	0.068725
O3	O	0.900113	-0.008264	0.068713
O4	O	0.887661	0.212114	0.068728
O5	O	0.900102	-0.008243	-0.068781
O6	O	0.783687	0.108172	-0.068768
O7	O	1.004065	0.095720	-0.068777
Cu8	Cu	0.893875	0.101948	-0.081327
Cu9	Cu	0.893888	0.101923	0.081274
O10	O	0.887650	0.212135	-0.068765
C11	C	0.899662	-0.036451	-0.000034
C12	C	0.898323	-0.120469	-0.000034
C13	C	0.755495	0.107716	-0.000021
C14	C	0.671477	0.106377	-0.000018
C15	C	0.966656	-0.169090	-0.000038
C16	C	0.965394	-0.248033	-0.000031
C17	C	0.895798	-0.278354	-0.000025
C18	C	0.827459	-0.229727	-0.000019
C19	C	0.828722	-0.150785	-0.000020
C20	C	0.822364	-0.548090	-0.000012
C21	C	0.821106	-0.627038	-0.000013
C22	C	0.959036	-0.645338	-0.000023
C23	C	0.960299	-0.566396	-0.000024
C24	C	0.891961	-0.517776	-0.000013
C25	C	0.893330	-0.432177	-0.000020
C26	C	0.894427	-0.363951	-0.000025
C27	C	1.032268	0.096156	-0.000030
C28	C	1.116286	0.097494	-0.000028
C29	C	1.164907	0.029161	-0.000030
C30	C	1.243850	0.030423	-0.000032
C31	C	1.274171	0.100020	-0.000027
C32	C	1.225544	0.168358	-0.000028
C33	C	1.146602	0.167095	-0.000031
C34	C	1.543907	0.173453	-0.000016
C35	C	1.622855	0.174711	-0.000010
C36	C	1.641155	0.036781	-0.000017
C37	C	1.562213	0.035518	-0.000020
C38	C	1.513593	0.103857	-0.000025
C39	C	1.427994	0.102487	-0.000024
C40	C	1.359769	0.101390	-0.000023
C41	C	0.888102	0.240322	-0.000017
C42	C	0.889440	0.324340	-0.000011
N43	N	0.893871	0.101965	-0.195692
C44	C	0.848080	0.056059	-0.761084
C45	C	0.848079	0.056065	-0.674537
C46	C	0.893891	0.101917	-0.631268
C47	C	0.939714	0.147759	-0.674550
C48	C	0.939719	0.147749	-0.761096
C49	C	0.939696	0.147802	-0.325522
C50	C	0.939685	0.147811	-0.238971
C51	C	0.848055	0.056118	-0.238963
C52	C	0.848060	0.056108	-0.325508
C53	C	0.893886	0.101947	-0.368783
C54	C	0.893888	0.101939	-0.462628
C55	C	0.893886	0.101929	-0.537425
N56	N	0.893898	0.101900	0.195640
H57	H	1.023330	-0.144409	-0.000048
C58	C	0.797672	0.005640	-0.626936
N59	N	0.759703	-0.032343	-0.591084
H60	H	1.647538	0.231388	-0.000010
C61	C	0.750902	-0.263082	-0.000020
N62	N	0.693238	-0.288205	-0.000027
H63	H	1.680751	-0.018863	-0.000016
C64	C	0.797681	0.005618	-0.808671
N65	N	0.759722	-0.032378	-0.844512
H66	H	0.810744	0.018791	-0.203718
H67	H	1.014680	-0.684934	-0.000027
H68	H	1.107015	0.222739	-0.000033
C69	C	0.990091	0.198248	-0.191377
N70	N	1.028055	0.236234	-0.155529
H71	H	0.977029	0.185077	-0.796331
H72	H	0.810752	0.018774	-0.360734
H73	H	1.504329	0.229099	-0.000016
C74	C	0.990070	0.198262	-0.373114
N75	N	1.028002	0.236283	-0.408963
C76	C	1.131562	-0.047402	-0.000037
N77	N	1.106449	-0.105072	-0.000047
H78	H	0.773078	-0.111198	-0.000017
C79	C	1.528865	-0.041043	-0.000032
N80	N	1.503749	-0.098711	-0.000048
H81	H	1.021038	-0.287618	-0.000036
C82	C	1.258899	0.244915	-0.000025
N83	N	1.284022	0.302580	-0.000020
H84	H	0.977019	0.185089	-0.639314
H85	H	0.764429	-0.651721	-0.000010
C86	C	1.036860	-0.533048	-0.000030
N87	N	1.094528	-0.507932	-0.000031
C88	C	0.747189	-0.494617	0.000004
N89	N	0.690564	-0.454339	0.000019
C90	C	1.297330	-0.044749	-0.000034
N91	N	1.337612	-0.101373	-0.000035
