data_functionalizedCrystal
_audit_creation_method	'MofGen! by Chris Wilmer'
_symmetry_space_group_name_H-M	'P1'
_symmetry_Int_Tables_number	1
_symmetry_cell_setting	triclinic
loop_
_symmetry_equiv_pos_as_xyz
  x,y,z
_cell_length_a	14.908783
_cell_length_b	12.759399
_cell_length_c	14.908308
_cell_angle_alpha	86.731299
_cell_angle_beta	89.788727
_cell_angle_gamma	86.693869
loop_
_atom_site_label
_atom_site_type_symbol
_atom_site_fract_x
_atom_site_fract_y
_atom_site_fract_z
Zn1	Zn	1.345343	0.367466	-0.587842
Zn2	Zn	1.353936	0.532490	-0.437488
Zn3	Zn	1.203656	0.366329	-0.428814
Zn4	Zn	1.194964	0.552608	-0.579110
O5	O	1.274475	0.454723	-0.508314
O6	O	1.472310	0.381413	-0.575182
O7	O	1.341236	0.501554	-0.310514
O8	O	1.222493	0.219457	-0.449933
O9	O	1.478624	0.502656	-0.464717
O10	O	1.326590	0.220293	-0.566771
O11	O	1.230826	0.379475	-0.304141
O12	O	1.076676	0.398983	-0.441466
O13	O	1.207677	0.536944	-0.706092
O14	O	1.070290	0.535842	-0.551889
O15	O	1.318161	0.400920	-0.712507
O16	O	1.332807	0.682181	-0.456250
O17	O	1.216010	0.696962	-0.560300
C18	C	1.040857	0.469473	-0.494789
C19	C	0.940913	0.475809	-0.489024
C20	C	0.746522	0.361663	-0.593395
C21	C	0.652615	0.367613	-0.587982
C22	C	0.659193	0.493654	-0.472781
C23	C	0.753099	0.487704	-0.478194
C24	C	0.796760	0.421707	-0.538504
C25	C	0.890668	0.415763	-0.543921
C26	C	0.897244	0.541798	-0.428716
C27	C	0.803337	0.547748	-0.423303
C28	C	1.274421	0.727693	-0.508290
C29	C	1.274478	0.844467	-0.508315
C30	C	1.260991	0.471303	-0.742837
C31	C	1.255245	0.478369	-0.842776
C32	C	1.509005	0.439917	-0.521891
C33	C	1.608947	0.433608	-0.527677
C34	C	1.274552	0.180688	-0.508358
C35	C	1.274585	0.063910	-0.508377
C36	C	1.335356	0.891598	-0.454205
C37	C	1.335412	1.001321	-0.454239
C38	C	1.213705	1.016772	-0.562493
C39	C	1.213654	0.907051	-0.562464
C40	C	1.359491	0.349979	-1.037256
C41	C	1.354095	0.356614	-1.131158
C42	C	1.239052	0.498267	-1.124485
C43	C	1.244449	0.491632	-1.030583
C44	C	1.304671	0.417487	-0.986972
C45	C	1.310071	0.410858	-0.893068
C46	C	1.195025	0.552505	-0.886396
C47	C	1.189628	0.559140	-0.980299
C48	C	1.287958	0.438129	-0.274706
C49	C	1.293878	0.430757	-0.174777
H50	H	0.782071	0.307930	-0.642506
O51	O	1.154476	0.861140	-0.614901
C52	C	1.099344	0.797820	-0.560286
H53	H	1.135018	0.774569	-0.494004
H54	H	1.033305	0.843681	-0.546511
C55	C	1.036325	0.726669	-0.690179
C56	C	1.080143	0.698104	-0.608773
H57	H	1.024476	0.665162	-0.720088
H58	H	1.073465	0.769332	-0.726975
H59	H	0.981297	0.764888	-0.678688
H60	H	1.135174	0.659898	-0.620265
H61	H	1.043012	0.655433	-0.571980
H62	H	1.140596	0.619505	-1.015820
H63	H	0.926215	0.362026	-0.593030
H64	H	1.384885	0.840645	-0.410115
O65	O	1.394561	1.047274	-0.401812
C66	C	1.381581	1.157537	-0.413460
H67	H	1.348032	1.179266	-0.481094
H68	H	1.336895	1.188048	-0.357294
C69	C	1.514293	1.180726	-0.327626
C70	C	1.473094	1.207414	-0.410698
H71	H	1.570741	1.211494	-0.325918
H72	H	1.523037	1.106440	-0.319775
H73	H	1.477045	1.206153	-0.280830
H74	H	1.510337	1.181976	-0.457491
H75	H	1.464359	1.281698	-0.418557
H76	H	1.164182	1.067741	-0.606578
H77	H	0.623628	0.547373	-0.423669
H78	H	1.359108	0.350487	-0.857561
O79	O	1.180424	0.570176	-1.166804
C80	C	1.092137	0.551267	-1.138649
H81	H	1.089108	0.465798	-1.112580
H82	H	1.071754	0.605231	-1.082776
C83	C	1.031043	0.678145	-1.250605
C84	C	1.027321	0.573168	-1.218593
H85	H	0.991060	0.691658	-1.299916
H86	H	1.090524	0.690887	-1.269571
H87	H	1.014060	0.723102	-1.204036
H88	H	1.044315	0.528212	-1.265158
H89	H	0.967841	0.560418	-1.199636
O90	O	0.603947	0.309254	-0.641398
C91	C	0.662626	0.249710	-0.695770
H92	H	0.729386	0.288722	-0.702679
H93	H	0.674501	0.166907	-0.663533
C94	C	0.538505	0.195908	-0.780891
C95	C	0.620498	0.243828	-0.789383
H96	H	0.512518	0.192275	-0.838635
H97	H	0.498971	0.236020	-0.744258
H98	H	0.548412	0.126910	-0.754024
H99	H	0.610589	0.312829	-0.816239
H100	H	0.660030	0.203727	-0.826023
O101	O	1.418011	0.277873	-0.995027
C102	C	1.465262	0.219733	-1.059548
H103	H	1.424589	0.223146	-1.124355
H104	H	1.532967	0.254603	-1.073480
C105	C	1.530318	0.100315	-0.944065
C106	C	1.480359	0.104500	-1.023660
H107	H	1.539635	0.029235	-0.921927
H108	H	1.498487	0.139487	-0.900595
H109	H	1.586733	0.129379	-0.955686
H110	H	1.423941	0.075448	-1.012036
H111	H	1.512181	0.065321	-1.067127
H112	H	0.767776	0.601477	-0.374198
H113	H	0.938158	0.590699	-0.384027
H114	H	1.398733	0.301640	-1.172096
H115	H	1.150388	0.607478	-0.845445
