data_functionalizedCrystal
_audit_creation_method	'MofGen! by Chris Wilmer'
_symmetry_space_group_name_H-M	'P1'
_symmetry_Int_Tables_number	1
_symmetry_cell_setting	triclinic
loop_
_symmetry_equiv_pos_as_xyz
  x,y,z
_cell_length_a	10.654550
_cell_length_b	14.519709
_cell_length_c	9.130313
_cell_angle_alpha	89.997798
_cell_angle_beta	89.996220
_cell_angle_gamma	84.082524
loop_
_atom_site_label
_atom_site_type_symbol
_atom_site_fract_x
_atom_site_fract_y
_atom_site_fract_z
O1	O	1.666589	0.129528	-0.121923
O2	O	1.300991	0.141869	-0.121900
O3	O	1.493483	0.001510	-0.121899
O4	O	1.474097	0.269887	-0.121924
O5	O	1.493481	0.001514	0.121700
O6	O	1.300989	0.141873	0.121699
O7	O	1.666586	0.129532	0.121676
Cu8	Cu	1.483787	0.135703	0.143930
Cu9	Cu	1.483790	0.135698	-0.144154
O10	O	1.474094	0.269891	0.121675
C11	C	1.254201	0.140965	-0.000098
C12	C	1.114784	0.138254	-0.000088
C13	C	1.034504	0.220895	-0.000117
C14	C	0.903507	0.218342	-0.000143
C15	C	0.933085	0.050500	-0.000116
C16	C	1.064078	0.053054	-0.000080
C17	C	1.017426	0.317797	-0.000139
C18	C	0.886430	0.315244	-0.000164
C19	C	1.492579	-0.032852	-0.000099
C20	C	1.489871	-0.135247	-0.000098
C21	C	1.479904	-0.510195	-0.000136
C22	C	1.482672	-0.405873	-0.000125
C23	C	1.484887	-0.322725	-0.000116
C24	C	1.487656	-0.218396	-0.000108
C25	C	1.713377	0.130436	-0.000130
C26	C	1.852794	0.133147	-0.000149
C27	C	1.474999	0.304253	-0.000128
C28	C	1.477707	0.406648	-0.000139
N29	N	1.483795	0.135705	0.346552
N30	N	1.483793	0.135688	-0.346777
C31	C	1.569052	0.073576	0.423205
C32	C	1.569048	0.073565	0.576542
C33	C	1.398527	0.197821	0.576560
C34	C	1.398525	0.197827	0.423226
C35	C	1.667505	0.001840	0.423195
C36	C	1.667502	0.001829	0.576532
H37	H	1.046392	0.355697	0.101809
H38	H	1.329091	0.248409	0.360817
N39	N	1.788371	0.021646	0.628769
N40	N	1.808830	0.024982	0.763372
H41	H	1.894193	0.038973	0.800267
H42	H	1.637633	-0.065157	0.624088
H43	H	1.052786	0.348651	-0.105314
N44	N	1.146065	-0.031370	-0.000023
N45	N	1.100772	-0.107431	-0.000014
H46	H	1.158675	-0.167061	0.000028
N47	N	0.881266	-0.036518	-0.000098
N48	N	0.764307	-0.038788	-0.000117
H49	H	0.727710	-0.100246	-0.000104
N50	N	1.311416	0.261274	0.654862
N51	N	1.195344	0.259211	0.637736
H52	H	1.133817	0.304026	0.693033
N53	N	0.828791	0.351975	0.131773
N54	N	0.895167	0.381619	0.230598
H55	H	0.854460	0.407556	0.323781
N56	N	0.833651	0.361021	-0.128092
N57	N	0.903891	0.395360	-0.218206
H58	H	0.866619	0.427678	-0.308562
N59	N	1.641417	-0.087076	0.371004
N60	N	1.623030	-0.149726	0.459977
H61	H	1.604587	-0.212518	0.423118
H62	H	1.758473	0.024302	0.375629
