data_functionalizedCrystal
_audit_creation_method	'MofGen! by Chris Wilmer'
_symmetry_space_group_name_H-M	'P1'
_symmetry_Int_Tables_number	1
_symmetry_cell_setting	triclinic
loop_
_symmetry_equiv_pos_as_xyz
  x,y,z
_cell_length_a	10.723022
_cell_length_b	10.723024
_cell_length_c	16.176319
_cell_angle_alpha	89.994397
_cell_angle_beta	89.992908
_cell_angle_gamma	84.467548
loop_
_atom_site_label
_atom_site_type_symbol
_atom_site_fract_x
_atom_site_fract_y
_atom_site_fract_z
O1	O	1.657195	0.175021	-0.068739
O2	O	1.294042	0.191776	-0.068742
O3	O	1.483995	0.001823	-0.068737
O4	O	1.467242	0.364975	-0.068743
O5	O	1.483968	0.001810	0.068756
O6	O	1.294015	0.191764	0.068752
O7	O	1.657168	0.175009	0.068754
Cu8	Cu	1.475589	0.183385	0.081307
Cu9	Cu	1.475621	0.183400	-0.081294
O10	O	1.467215	0.364963	0.068750
C11	C	1.247529	0.190551	0.000005
C12	C	1.108975	0.186904	0.000004
C13	C	1.060414	0.077365	0.000005
C14	C	0.917211	0.073593	0.000004
C15	C	1.482763	-0.044683	0.000009
C16	C	1.479115	-0.183238	0.000006
C17	C	1.585403	-0.258221	0.000005
C18	C	1.581635	-0.401424	0.000002
C19	C	1.703681	0.176234	0.000006
C20	C	1.842235	0.179881	0.000002
C21	C	1.468448	0.411468	0.000002
C22	C	1.472095	0.550023	-0.000000
N23	N	1.475576	0.183374	0.195672
N24	N	1.475643	0.183401	-0.195660
C25	C	1.559713	0.099297	0.238939
C26	C	1.559720	0.099296	0.325486
C27	C	1.475594	0.183379	0.368765
C28	C	1.391448	0.267459	0.325493
C29	C	1.391437	0.267453	0.238947
C30	C	1.391491	0.267483	0.674521
C31	C	1.391511	0.267485	0.761073
C32	C	1.559774	0.099326	0.761059
C33	C	1.559763	0.099320	0.674514
C34	C	1.475613	0.183396	0.631249
C35	C	1.475605	0.183394	0.537405
C36	C	1.475607	0.183387	0.462608
H37	H	1.044532	0.277893	-0.000002
C38	C	1.349159	-0.362950	0.000000
C39	C	1.320411	-0.269591	-0.071394
C40	C	1.197475	-0.182553	-0.071394
C41	C	1.103287	-0.188876	0.000001
C42	C	1.132032	-0.282239	0.071401
C43	C	1.254968	-0.369277	0.071401
H44	H	1.390137	-0.264907	-0.124250
H45	H	1.176197	-0.113439	-0.124249
H46	H	1.012282	-0.124445	0.000002
H47	H	1.062305	-0.286923	0.124257
H48	H	1.276246	-0.438390	0.124256
H49	H	1.385329	-0.225059	-0.000001
H50	H	1.628223	0.030833	0.203706
H51	H	1.124856	-0.013624	0.000003
H52	H	1.628230	0.030834	0.360713
H53	H	1.628270	0.030857	0.639279
H54	H	1.628290	0.030863	0.796295
C55	C	1.298906	0.359954	0.373096
C56	C	1.298972	0.360030	0.468292
C57	C	1.206431	0.452531	0.515892
C58	C	1.113824	0.544955	0.468295
C59	C	1.113755	0.544881	0.373093
C60	C	1.206296	0.452381	0.325493
H61	H	1.367528	0.291610	0.503531
H62	H	1.206482	0.452585	0.586367
H63	H	1.045319	0.613429	0.503531
H64	H	1.045198	0.613302	0.337854
H65	H	1.206245	0.452327	0.255018
H66	H	0.875399	-0.020195	-0.000015
H67	H	0.884039	0.273673	0.000005
H68	H	1.322922	0.335916	0.203721
C69	C	1.298960	0.359974	0.808682
C70	C	1.206393	0.452451	0.761096
C71	C	1.113849	0.544935	0.808706
C72	C	1.113871	0.544942	0.903903
C73	C	1.206442	0.452461	0.951495
C74	C	1.298986	0.359977	0.903884
H75	H	1.206373	0.452449	0.690621
H76	H	1.045322	0.613395	0.773475
H77	H	1.045364	0.613404	0.939147
H78	H	1.206462	0.452463	1.021970
H79	H	1.367513	0.291517	0.939115
H80	H	1.679188	-0.216399	0.000011
H81	H	1.672625	-0.465857	0.000006
H82	H	1.322976	0.335942	0.639302
