data_functionalizedCrystal
_audit_creation_method	'MofGen! by Chris Wilmer'
_symmetry_space_group_name_H-M	'P1'
_symmetry_Int_Tables_number	1
_symmetry_cell_setting	triclinic
loop_
_symmetry_equiv_pos_as_xyz
  x,y,z
_cell_length_a	10.686220
_cell_length_b	12.827892
_cell_length_c	10.686551
_cell_angle_alpha	85.594922
_cell_angle_beta	90.308082
_cell_angle_gamma	94.396976
loop_
_atom_site_label
_atom_site_type_symbol
_atom_site_fract_x
_atom_site_fract_y
_atom_site_fract_z
Zn1	Zn	1.972286	-0.254771	-0.562389
Zn2	Zn	2.305619	0.078563	-0.229056
Zn3	Zn	2.638952	0.411896	0.104277
Zn4	Zn	1.956055	-0.443915	-0.352633
Zn5	Zn	2.289388	-0.110582	-0.019300
Zn6	Zn	2.622721	0.222752	0.314034
Zn7	Zn	1.746404	-0.281503	-0.368707
Zn8	Zn	2.079737	0.051830	-0.035374
Zn9	Zn	2.413070	0.385164	0.297960
Zn10	Zn	1.762485	-0.441797	-0.578411
Zn11	Zn	2.095818	-0.108464	-0.245077
Zn12	Zn	2.429152	0.224869	0.088256
O13	O	1.859307	-0.355496	-0.465535
O14	O	2.192641	-0.022163	-0.132202
O15	O	2.525974	0.311170	0.201132
O16	O	2.145674	-0.269560	-0.521133
O17	O	2.479008	0.063774	-0.187799
O18	O	2.812341	0.397107	0.145534
O19	O	1.914721	-0.434445	-0.179220
O20	O	2.248055	-0.101111	0.154113
O21	O	2.581388	0.232222	0.487447
O22	O	1.776430	-0.131715	-0.394421
O23	O	2.109763	0.201618	-0.061088
O24	O	2.443097	0.534951	0.272245
O25	O	2.133750	-0.408523	-0.367026
O26	O	2.467083	-0.075190	-0.033692
O27	O	2.800416	0.258143	0.299641
O28	O	1.942384	-0.112075	-0.536719
O29	O	2.275718	0.221258	-0.203386
O30	O	2.609051	0.554591	0.129948
O31	O	1.760692	-0.315121	-0.191029
O32	O	2.094025	0.018212	0.142304
O33	O	2.427358	0.351546	0.475637
O34	O	1.572995	-0.313068	-0.409957
O35	O	1.906328	0.020266	-0.076623
O36	O	2.239662	0.353599	0.256710
O37	O	1.803838	-0.404914	-0.751831
O38	O	2.137171	-0.071581	-0.418497
O39	O	2.470505	0.261753	-0.085164
O40	O	1.584810	-0.430835	-0.564025
O41	O	1.918143	-0.097502	-0.230692
O42	O	2.251476	0.235831	0.102642
O43	O	1.957978	-0.267506	-0.740060
O44	O	2.291311	0.065827	-0.406727
O45	O	2.624644	0.399161	-0.073393
O46	O	1.930315	-0.589876	-0.382561
O47	O	2.263648	-0.256542	-0.049228
O48	O	2.596981	0.076791	0.284106
O49	O	1.788100	-0.588320	-0.548439
O50	O	2.121433	-0.254986	-0.215105
O51	O	2.454766	0.078347	0.118228
C52	C	1.533386	-0.374623	-0.490474
C53	C	1.866720	-0.041290	-0.157141
C54	C	2.200053	0.292043	0.176192
C55	C	1.393958	-0.382829	-0.501173
C56	C	1.727292	-0.049496	-0.167840
C57	C	2.060625	0.283838	0.165493
C58	C	1.859227	-0.627013	-0.465519
C59	C	2.192560	-0.293679	-0.132186
C60	C	2.525894	0.039654	0.201148
C61	C	1.859311	-0.743159	-0.465545
C62	C	2.192644	-0.409825	-0.132212
C63	C	2.525977	-0.076492	0.201122
C64	C	1.929780	-0.795668	-0.383541
C65	C	2.263114	-0.462334	-0.050208
C66	C	2.596447	-0.129001	0.283125
C67	C	1.929868	-0.915711	-0.383567
C68	C	2.263202	-0.582377	-0.050233
C69	C	2.596535	-0.249044	0.283100
C70	C	2.186501	-0.336296	-0.440499
C71	C	2.519834	-0.002962	-0.107166
C72	C	2.853167	0.330371	0.226168
C73	C	2.325931	-0.328114	-0.429830
C74	C	2.659265	0.005220	-0.096497
C75	C	2.992598	0.338553	0.236837
C76	C	1.884512	-0.332992	-0.792735
C77	C	2.217845	0.000341	-0.459402
C78	C	2.551179	0.333675	-0.126068
C79	C	1.895253	-0.323402	-0.932168
C80	C	2.228586	0.009932	-0.598835
C81	C	2.561920	0.343265	-0.265501
C82	C	1.859424	-0.082916	-0.465576
C83	C	2.192757	0.250417	-0.132243
C84	C	2.526091	0.583750	0.201091
C85	C	1.859474	0.033241	-0.465594
C86	C	2.192807	0.366574	-0.132260
C87	C	2.526140	0.699908	0.201073
C88	C	1.834273	-0.377834	-0.139602
C89	C	2.167606	-0.044501	0.193731
C90	C	2.500939	0.288833	0.527064
C91	C	1.823775	-0.387115	-0.000151
C92	C	2.157108	-0.053782	0.333182
C93	C	2.490441	0.279551	0.666515
H94	H	1.345526	-0.435960	-0.570436
H95	H	1.678859	-0.102627	-0.237103
H96	H	2.012193	0.230706	0.096230
F97	F	1.733050	-0.468009	-0.936804
F98	F	2.066383	-0.134676	-0.603471
F99	F	2.399716	0.198658	-0.270137
F100	F	2.008563	-0.738270	-0.291755
F101	F	2.341897	-0.404937	0.041578
F102	F	2.675230	-0.071603	0.374912
F103	F	1.389224	-0.258680	-0.339291
F104	F	1.722558	0.074654	-0.005958
F105	F	2.055891	0.407987	0.327376
F106	F	2.008722	-0.974727	-0.291792
F107	F	2.342056	-0.641393	0.041541
F108	F	2.675389	-0.308060	0.374875
F109	F	1.985996	-0.242513	-0.995520
F110	F	2.319329	0.090820	-0.662186
F111	F	2.652662	0.424153	-0.328853
F112	F	1.780603	-0.907751	-0.557360
F113	F	2.113936	-0.574418	-0.224026
F114	F	2.447269	-0.241084	0.109307
F115	F	1.780542	-0.800554	-0.557344
F116	F	2.113876	-0.467221	-0.224011
F117	F	2.447209	-0.133888	0.109323
