data_functionalizedCrystal
_audit_creation_method	'MofGen! by Chris Wilmer'
_symmetry_space_group_name_H-M	'P1'
_symmetry_Int_Tables_number	1
_symmetry_cell_setting	triclinic
loop_
_symmetry_equiv_pos_as_xyz
  x,y,z
_cell_length_a	12.594517
_cell_length_b	12.594516
_cell_length_c	15.296720
_cell_angle_alpha	99.649603
_cell_angle_beta	99.667897
_cell_angle_gamma	90.011773
loop_
_atom_site_label
_atom_site_type_symbol
_atom_site_fract_x
_atom_site_fract_y
_atom_site_fract_z
Zn1	Zn	1.523114	-0.527843	-0.509944
Zn2	Zn	1.553837	-0.675050	-0.359098
Zn3	Zn	1.375932	-0.497091	-0.359121
Zn4	Zn	1.345118	-0.705775	-0.509922
O5	O	1.449500	-0.601440	-0.434521
O6	O	1.676135	-0.547382	-0.489933
O7	O	1.555991	-0.625715	-0.232861
O8	O	1.395494	-0.352228	-0.379147
O9	O	1.698707	-0.655534	-0.379107
O10	O	1.503628	-0.374822	-0.489956
O11	O	1.425284	-0.494969	-0.232878
O12	O	1.222898	-0.524762	-0.379126
O13	O	1.342976	-0.707901	-0.636165
O14	O	1.200259	-0.678081	-0.489919
O15	O	1.473749	-0.577175	-0.636181
O16	O	1.526111	-0.828068	-0.379086
O17	O	1.372767	-0.850641	-0.489896
C18	C	1.172959	-0.601420	-0.434523
C19	C	1.054649	-0.601441	-0.434546
C20	C	1.449454	-0.877978	-0.434505
C21	C	1.449525	-0.996288	-0.434529
C22	C	0.902372	-0.684938	-0.494694
C23	C	0.989966	-0.694033	-0.412361
C24	C	0.968629	-0.592391	-0.516869
C25	C	0.931471	-0.610607	-0.352142
C26	C	0.910116	-0.508931	-0.456706
C27	C	0.997689	-0.517978	-0.374317
C28	C	1.532999	-1.053237	-0.374324
C29	C	1.542188	-1.140747	-0.456661
C30	C	1.440459	-1.119587	-0.352244
C31	C	1.458755	-1.082248	-0.516909
C32	C	1.356993	-1.061071	-0.412437
C33	C	1.366133	-1.148560	-0.494831
C34	C	1.727121	-0.601461	-0.434519
C35	C	1.845427	-0.601470	-0.434519
C36	C	1.401498	-0.649395	-0.669821
C37	C	1.381043	-0.669831	-0.770091
C38	C	1.449571	-0.323826	-0.434557
C39	C	1.449602	-0.205524	-0.434572
C40	C	1.595738	-0.455196	-1.052771
C41	C	1.614963	-0.435997	-0.958562
C42	C	1.556485	-0.494454	-0.911439
C43	C	1.478778	-0.572113	-0.958536
C44	C	1.459556	-0.591319	-1.052754
C45	C	1.420303	-0.630577	-0.911423
C46	C	1.342596	-0.708236	-0.958519
C47	C	1.323377	-0.727438	-1.052728
C48	C	1.381856	-0.668982	-1.099850
C49	C	1.439525	-0.611370	-0.817204
C50	C	1.303343	-0.747494	-0.817187
C51	C	1.284117	-0.766692	-0.911397
C52	C	1.497376	-0.553594	-0.200137
C53	C	1.518038	-0.532859	-0.099867
H54	H	0.860938	-0.755569	-0.545507
H55	H	1.024893	-0.772276	-0.393599
H56	H	1.603590	-1.011799	-0.323456
O57	O	1.200309	-0.850451	-0.962203
H58	H	1.162863	-0.887871	-0.913615
O59	O	0.990979	-0.582212	-0.609101
H60	H	0.952461	-0.651597	-0.658911
H61	H	1.366207	-0.684609	-1.176563
O62	O	1.698767	-0.352239	-0.907768
H63	H	1.761666	-0.391140	-0.864846
H64	H	1.295562	-1.189827	-0.545822
O65	O	1.240250	-0.810518	-0.766359
H66	H	1.153034	-0.795926	-0.784455
O67	O	1.430129	-1.142043	-0.260071
H68	H	1.501281	-1.186384	-0.233698
H69	H	1.572143	-0.478817	-0.834730
H70	H	0.875160	-0.430716	-0.475491
H71	H	1.278737	-1.026188	-0.393703
O72	O	1.645876	-1.186923	-0.481454
H73	H	1.715017	-1.148380	-0.431368
H74	H	1.502794	-0.548139	-0.778867
H75	H	1.643349	-0.407615	-1.091146
O76	O	0.909308	-0.620888	-0.259877
H77	H	0.821036	-0.620861	-0.260600
O78	O	1.239566	-0.811196	-1.103530
H79	H	1.202121	-0.848611	-1.054939
H80	H	1.038953	-0.447368	-0.323381
O81	O	1.469074	-1.060004	-0.609146
H82	H	1.543047	-1.009931	-0.604279
