data_functionalizedCrystal
_audit_creation_method	'MofGen! by Chris Wilmer'
_symmetry_space_group_name_H-M	'P1'
_symmetry_Int_Tables_number	1
_symmetry_cell_setting	triclinic
loop_
_symmetry_equiv_pos_as_xyz
  x,y,z
_cell_length_a	12.837943
_cell_length_b	13.262415
_cell_length_c	11.295483
_cell_angle_alpha	78.250776
_cell_angle_beta	85.461227
_cell_angle_gamma	89.432875
loop_
_atom_site_label
_atom_site_type_symbol
_atom_site_fract_x
_atom_site_fract_y
_atom_site_fract_z
O1	O	1.389533	0.261165	-0.183582
O2	O	1.087369	0.247955	-0.179311
O3	O	1.242653	0.105630	-0.133208
O4	O	1.234250	0.403490	-0.229685
O5	O	1.229013	0.118110	0.060801
O6	O	1.073730	0.260435	0.014697
O7	O	1.375894	0.273644	0.010426
Cu8	Cu	1.223566	0.268179	0.030276
Cu9	Cu	1.239697	0.253421	-0.199161
O10	O	1.220610	0.415969	-0.035677
C11	C	1.041808	0.249732	-0.080862
C12	C	0.926369	0.236423	-0.076555
C13	C	0.689759	0.396421	-0.128361
C14	C	0.581293	0.383921	-0.124315
C15	C	0.600970	0.198924	-0.064407
C16	C	0.709435	0.211425	-0.068453
C17	C	0.753826	0.310176	-0.100433
C18	C	0.862294	0.322675	-0.104488
C19	C	0.881968	0.137680	-0.044572
C20	C	0.773502	0.125179	-0.040525
C21	C	1.234108	0.073480	-0.023772
C22	C	1.228954	-0.040910	0.013272
C23	C	1.244170	-0.390554	-0.305331
C24	C	1.249021	-0.283079	-0.340141
C25	C	1.244004	-0.222531	-0.251791
C26	C	1.234136	-0.269469	-0.128624
C27	C	1.229293	-0.376954	-0.093810
C28	C	1.229127	-0.208932	-0.040270
C29	C	1.219259	-0.255870	0.082896
C30	C	1.214416	-0.363344	0.117704
C31	C	1.219433	-0.423892	0.029354
C32	C	1.233970	-0.101447	-0.075084
C33	C	1.219093	-0.087847	0.136436
C34	C	1.214242	-0.195322	0.171246
C35	C	1.421456	0.271867	-0.088025
C36	C	1.536895	0.285176	-0.092340
C37	C	1.229156	0.448119	-0.145115
C38	C	1.234310	0.562509	-0.182167
N39	N	1.212229	0.278559	0.191650
N40	N	1.251042	0.243033	-0.360532
C41	C	1.332655	0.168253	0.476671
C42	C	1.324095	0.176105	0.598791
C43	C	1.186543	0.302111	0.558015
C44	C	1.195104	0.294258	0.435895
C45	C	1.268163	0.227328	0.395228
C46	C	1.276728	0.219482	0.273103
C47	C	1.139172	0.345481	0.232331
C48	C	1.130611	0.353334	0.354451
H49	H	1.242005	-0.063241	-0.175368
O50	O	0.725622	0.018673	-0.006027
H51	H	0.682238	0.003466	-0.081827
O52	O	0.553079	0.092422	-0.029908
H53	H	0.573054	0.055559	0.062758
O54	O	0.951066	0.044647	-0.014440
H55	H	1.033947	0.069926	-0.022618
H56	H	1.392150	0.113763	0.443558
O57	O	1.249277	-0.106607	-0.289225
H58	H	1.317906	-0.077675	-0.251948
H59	H	1.257058	-0.244870	-0.440423
O60	O	1.249579	-0.455853	-0.400616
H61	H	1.244547	-0.538474	-0.355713
H62	H	1.127053	0.356596	0.591145
H63	H	1.206394	-0.401558	0.217995
O64	O	1.051825	0.425532	0.398311
H65	H	0.996229	0.380856	0.469598
O66	O	1.214254	-0.539819	0.066871
H67	H	1.145658	-0.568871	0.029655
O68	O	1.393664	0.112402	0.686636
H69	H	1.445910	0.064553	0.637833
O70	O	1.203624	-0.245950	0.304089
H71	H	1.201113	-0.330858	0.313447
O72	O	1.213677	-0.022558	0.231743
H73	H	1.218690	0.060064	0.186844
O74	O	1.069611	0.409204	0.144480
H75	H	1.017380	0.457068	0.193278
O76	O	0.910179	0.429180	-0.138964
H77	H	0.847401	0.487051	-0.157687
O78	O	0.512195	0.476946	-0.154433
H79	H	0.429312	0.451668	-0.146235
O80	O	1.355516	0.147290	0.229233
H81	H	1.398914	0.107522	0.306391
H82	H	0.725902	0.476828	-0.154403
