data_functionalizedCrystal
_audit_creation_method	'MofGen! by Chris Wilmer'
_symmetry_space_group_name_H-M	'P1'
_symmetry_Int_Tables_number	1
_symmetry_cell_setting	triclinic
loop_
_symmetry_equiv_pos_as_xyz
  x,y,z
_cell_length_a	11.792241
_cell_length_b	13.339070
_cell_length_c	12.376897
_cell_angle_alpha	99.011576
_cell_angle_beta	77.409811
_cell_angle_gamma	80.088645
loop_
_atom_site_label
_atom_site_type_symbol
_atom_site_fract_x
_atom_site_fract_y
_atom_site_fract_z
O1	O	1.524817	-0.121463	0.093884
O2	O	1.198879	-0.135773	0.093909
O3	O	1.324442	0.018851	0.093896
O4	O	1.399254	-0.276086	0.093897
O5	O	1.374234	-0.016052	-0.094105
O6	O	1.248671	-0.170676	-0.094092
O7	O	1.574610	-0.156366	-0.094118
Zn8	Zn	1.419546	-0.169063	-0.123954
Zn9	Zn	1.353942	-0.123076	0.123746
O10	O	1.449047	-0.310990	-0.094105
C11	C	1.181206	-0.152325	-0.000088
C12	C	1.054361	-0.149631	-0.000078
C13	C	1.336700	0.039158	-0.000102
C14	C	1.299029	0.151668	-0.000095
N15	N	1.464327	-0.200447	-0.293003
C16	C	0.822133	-0.144688	-0.000111
C17	C	0.951360	-0.147435	-0.000093
C18	C	1.592282	-0.139814	-0.000118
C19	C	1.719125	-0.142506	-0.000121
C20	C	1.436788	-0.331297	-0.000104
C21	C	1.474457	-0.443805	-0.000104
C22	C	1.591929	0.514850	-0.000118
C23	C	1.627328	0.409141	-0.000132
C24	C	1.545256	0.344768	-0.000122
C25	C	1.427779	0.386114	-0.000100
C26	C	1.392379	0.491832	-0.000095
C27	C	1.345706	0.321749	-0.000099
C28	C	1.228230	0.363095	-0.000077
C29	C	1.192835	0.468804	-0.000071
C30	C	1.274907	0.533177	-0.000081
C31	C	1.381107	0.216031	-0.000103
C32	C	1.181557	0.193013	-0.000080
C33	C	1.146158	0.298722	-0.000067
C34	C	1.205172	-0.018823	-0.648043
C35	C	1.173810	0.003146	-0.529710
C36	C	1.246437	-0.047751	-0.470527
C37	C	1.350430	-0.120619	-0.529690
C38	C	1.381800	-0.142584	-0.648034
C39	C	1.423065	-0.171512	-0.470519
C40	C	1.527058	-0.244380	-0.529681
C41	C	1.558422	-0.266341	-0.648014
C42	C	1.485796	-0.215445	-0.707197
C43	C	1.391695	-0.149547	-0.352174
C44	C	1.568323	-0.273308	-0.352166
C45	C	1.599685	-0.295276	-0.470499
N46	N	1.309168	-0.091684	0.292795
H47	H	1.476757	0.182378	-0.000122
C48	C	1.235977	0.649463	-0.000080
N49	N	1.206660	0.737050	-0.000084
H50	H	1.722978	0.375484	-0.000151
C51	C	1.672802	-0.346517	-0.713090
N52	N	1.758945	-0.406917	-0.762103
C53	C	1.063611	0.514279	-0.000058
N54	N	0.966278	0.548529	-0.000047
C55	C	1.091270	0.122207	-0.000067
N56	N	1.023273	0.068870	-0.000057
C57	C	1.277300	-0.069400	-0.287109
N58	N	1.191129	-0.009032	-0.238103
C59	C	1.059417	0.083293	-0.464640
N60	N	0.973249	0.143662	-0.415629
H61	H	1.627463	-0.314752	-0.303980
H62	H	1.511321	-0.233332	-0.803554
H63	H	1.574085	0.258695	-0.000133
C64	C	1.682196	0.585664	-0.000137
N65	N	1.750191	0.639004	-0.000152
C66	C	1.016939	0.344215	-0.000058
N67	N	0.919613	0.378480	-0.000056
C68	C	1.125296	0.037155	-0.713151
N69	N	1.065127	0.079320	-0.762192
C70	C	1.714081	-0.375424	-0.535593
N71	N	1.800245	-0.435790	-0.584623
H72	H	1.220895	-0.029860	-0.374175
