data_functionalizedCrystal
_audit_creation_method	'MofGen! by Chris Wilmer'
_symmetry_space_group_name_H-M	'P1'
_symmetry_Int_Tables_number	1
_symmetry_cell_setting	triclinic
loop_
_symmetry_equiv_pos_as_xyz
  x,y,z
_cell_length_a	17.638686
_cell_length_b	17.640280
_cell_length_c	17.640968
_cell_angle_alpha	65.682561
_cell_angle_beta	65.692372
_cell_angle_gamma	65.687361
loop_
_atom_site_label
_atom_site_type_symbol
_atom_site_fract_x
_atom_site_fract_y
_atom_site_fract_z
Zn1	Zn	1.434158	-0.475596	-0.640339
Zn2	Zn	1.434088	-0.641253	-0.474689
Zn3	Zn	1.268478	-0.475556	-0.474741
Zn4	Zn	1.316157	-0.593471	-0.592680
O5	O	1.363220	-0.546469	-0.545612
O6	O	1.552841	-0.517584	-0.638289
O7	O	1.392137	-0.639253	-0.356012
O8	O	1.270531	-0.356885	-0.516675
O9	O	1.552790	-0.639292	-0.516587
O10	O	1.392255	-0.356915	-0.638339
O11	O	1.270464	-0.517516	-0.356050
O12	O	1.156111	-0.471184	-0.470462
O13	O	1.351793	-0.557855	-0.717686
O14	O	1.191141	-0.557816	-0.557112
O15	O	1.438488	-0.471252	-0.752701
O16	O	1.438369	-0.753591	-0.470374
O17	O	1.351726	-0.718486	-0.557061
C18	C	1.142850	-0.509311	-0.508621
C19	C	1.048582	-0.493432	-0.492813
C20	C	0.829849	-0.667251	-0.665889
C21	C	0.741265	-0.652326	-0.651014
C22	C	0.704755	-0.561919	-0.560982
C23	C	0.793338	-0.576840	-0.575846
C24	C	0.855879	-0.629505	-0.628301
C25	C	0.819367	-0.539095	-0.538257
C26	C	0.907943	-0.554011	-0.553124
C27	C	0.970488	-0.606672	-0.605578
C28	C	0.944454	-0.644421	-0.643167
C29	C	0.756825	-0.486425	-0.485808
C30	C	0.782854	-0.448679	-0.448220
C31	C	0.871431	-0.463600	-0.463080
C32	C	0.933977	-0.516261	-0.515535
C33	C	0.897465	-0.425851	-0.425492
C34	C	0.986041	-0.440767	-0.440358
C35	C	1.022552	-0.531177	-0.530401
C36	C	1.400240	-0.766810	-0.508563
C37	C	1.416160	-0.861081	-0.492754
C38	C	1.242681	-1.079893	-0.666076
C39	C	1.257637	-1.168480	-0.651194
C40	C	1.347944	-1.204962	-0.561047
C41	C	1.332999	-1.116377	-0.575924
C42	C	1.280366	-1.053848	-0.628439
C43	C	1.370684	-1.090332	-0.538287
C44	C	1.355737	-1.001754	-0.553160
C45	C	1.303104	-0.939221	-0.605670
C46	C	1.265418	-0.965270	-0.643311
C47	C	1.423312	-1.152862	-0.485769
C48	C	1.460998	-1.126817	-0.448132
C49	C	1.446055	-1.038237	-0.463009
C50	C	1.393422	-0.975704	-0.515518
C51	C	1.483741	-1.012188	-0.425367
C52	C	1.468793	-0.923610	-0.440240
C53	C	1.378475	-0.887126	-0.530391
C54	C	1.584451	-0.583772	-0.582748
C55	C	1.678726	-0.599669	-0.598574
C56	C	1.400467	-0.509228	-0.766827
C57	C	1.416339	-0.493358	-0.861095
C58	C	1.326082	-0.325268	-0.582829
C59	C	1.310256	-0.231006	-0.598689
C60	C	1.242889	-0.666624	-1.079985
C61	C	1.257819	-0.651704	-1.168569
C62	C	1.348086	-0.561532	-1.205017
C63	C	1.333160	-0.576441	-1.116434
C64	C	1.280561	-0.628989	-1.053924
C65	C	1.370833	-0.538806	-1.090373
C66	C	1.355911	-0.553718	-1.001798
C67	C	1.303317	-0.606265	-0.939283
C68	C	1.265640	-0.643900	-0.965349
C69	C	1.423436	-0.486264	-1.152884
C70	C	1.461109	-0.448629	-1.126823
C71	C	1.446182	-0.463535	-1.038246
C72	C	1.393588	-0.516082	-0.975732
C73	C	1.483859	-0.425900	-1.012181
C74	C	1.468938	-0.440811	-0.923605
C75	C	1.378666	-0.530994	-0.887156
C76	C	1.326157	-0.583512	-0.325277
C77	C	1.310409	-0.599171	-0.231076
H78	H	0.684702	-0.474277	-0.473711
H79	H	1.335622	-0.836212	-0.573161
F80	F	0.896415	-0.723313	-0.721708
F81	F	1.287373	-0.844947	-0.621677
H82	H	1.499480	-0.902406	-0.409591
F83	F	1.217513	-1.196193	-0.691248
H84	H	1.291173	-0.618408	-0.867160
H85	H	1.007233	-0.410023	-0.409757
F86	F	1.209650	-0.699819	-0.898816
H87	H	1.390795	-1.255884	-0.518287
F88	F	1.011020	-0.700483	-0.698986
H89	H	1.073478	-0.574068	-0.573110
H90	H	1.222566	-0.914356	-0.686081
H91	H	1.042611	-0.618810	-0.617686
H92	H	0.731922	-0.405797	-0.405514
H93	H	0.846532	-0.382964	-0.382790
F94	F	1.539749	-1.078744	-0.369474
F95	F	0.713567	-0.692501	-0.691028
F96	F	1.509036	-0.400758	-0.895867
F97	F	1.186671	-1.013340	-0.721976
H98	H	1.200034	-0.709389	-1.029085
H99	H	1.435484	-1.224986	-0.473664
H100	H	0.653822	-0.519036	-0.518276
H101	H	1.503849	-1.177739	-0.405372
F102	F	1.322677	-0.586913	-0.820623
F103	F	1.517089	-0.392709	-1.193358
F104	F	1.217716	-0.691763	-1.196300
H105	H	1.390915	-0.518751	-1.255924
F106	F	1.439319	-0.470398	-1.247155
F107	F	1.539846	-0.369987	-1.078717
