data_functionalizedCrystal
_audit_creation_method	'MofGen! by Chris Wilmer'
_symmetry_space_group_name_H-M	'P1'
_symmetry_Int_Tables_number	1
_symmetry_cell_setting	triclinic
loop_
_symmetry_equiv_pos_as_xyz
  x,y,z
_cell_length_a	6.817900
_cell_length_b	10.992421
_cell_length_c	16.306216
_cell_angle_alpha	93.809562
_cell_angle_beta	103.467292
_cell_angle_gamma	108.764763
loop_
_atom_site_label
_atom_site_type_symbol
_atom_site_fract_x
_atom_site_fract_y
_atom_site_fract_z
V1	V	-4.053512	-0.178766	-0.263014
O2	O	-4.012793	0.007556	-0.258019
O3	O	-4.031509	-0.353468	-0.261204
O4	O	-4.004614	-0.176470	-0.377729
O5	O	-4.039875	-0.170667	-0.140688
V6	V	-4.533784	-0.156426	-0.248384
O7	O	-4.321902	-0.227770	-0.295106
O8	O	-4.715592	-0.107421	-0.216293
O9	O	-4.332581	0.018276	-0.250195
O10	O	-4.691900	-0.342748	-0.253379
O11	O	-4.664819	-0.164524	-0.370711
O12	O	-4.359476	-0.158722	-0.133669
C13	C	-3.882948	-0.396042	-0.257051
C14	C	-3.946241	-0.538866	-0.256336
C15	C	-3.848639	-0.170262	-0.405690
C16	C	-3.890118	-0.169541	-0.499470
C17	C	-3.815237	-0.734131	-0.250567
C18	C	-3.749061	-0.585488	-0.250977
C19	C	-4.035017	-0.577201	-0.177666
C20	C	-4.099445	-0.725741	-0.176833
C21	C	-4.193710	-0.764939	-0.338102
C22	C	-4.124262	-0.616432	-0.339809
C23	C	-4.040683	-0.166952	-0.840222
C24	C	-4.246393	-0.175475	-0.809773
C25	C	-4.203162	-0.175732	-0.712182
C26	C	-3.965987	-0.168237	-0.671171
C27	C	-3.810978	-0.040806	-0.691386
C28	C	-3.855486	-0.040014	-0.788984
C29	C	-3.972038	-0.285407	-0.814097
C30	C	-3.933853	-0.287922	-0.716780
C31	C	-3.923759	-0.168959	-0.575630
C32	C	-4.082901	-0.166222	-0.935762
C33	C	-4.144485	0.060844	-0.254345
C34	C	-4.060430	0.203667	-0.255066
C35	C	-4.178794	-0.164934	-0.105704
C36	C	-4.116553	-0.165648	-0.011923
H37	H	-3.678956	-0.559939	-0.307190
H38	H	-3.635717	-0.030686	-0.663897
H39	H	-4.235945	-0.090413	-0.681822
F40	F	-3.713497	-0.290498	-0.680953
F41	F	-4.427538	-0.818687	-0.343487
F42	F	-4.167470	-0.829964	-0.415909
F43	F	-4.329801	-0.779182	-0.176672
F44	F	-3.772890	-0.278799	-0.839388
F45	F	-3.572810	-0.516637	-0.172641
H46	H	-4.061821	-0.592758	-0.398012
F47	F	-3.837468	0.075393	-0.649522
F48	F	-4.358977	-0.295449	-0.695352
H49	H	-4.300298	-0.090391	-0.827330
F50	F	-3.653347	-0.025004	-0.814117
F51	F	-3.911310	0.077106	-0.808810
H52	H	-4.003068	-0.743017	-0.114370
F53	F	-4.317393	-0.576998	-0.351294
F54	F	-4.139031	-0.410570	-0.860939
F55	F	-4.225093	-0.537685	-0.178848
H56	H	-4.387208	-0.266767	-0.844329
H57	H	-3.713273	-0.754462	-0.190684
F58	F	-3.764611	-0.795090	-0.323582
F59	F	-3.869914	-0.506002	-0.096891
H60	H	-4.048710	-0.382130	-0.704851
