data_functionalizedCrystal
_audit_creation_method	'MofGen! by Chris Wilmer'
_symmetry_space_group_name_H-M	'P1'
_symmetry_Int_Tables_number	1
_symmetry_cell_setting	triclinic
loop_
_symmetry_equiv_pos_as_xyz
  x,y,z
_cell_length_a	26.210047
_cell_length_b	27.732048
_cell_length_c	27.732048
_cell_angle_alpha	82.642654
_cell_angle_beta	90.000479
_cell_angle_gamma	90.011447
loop_
_atom_site_label
_atom_site_type_symbol
_atom_site_fract_x
_atom_site_fract_y
_atom_site_fract_z
O1	O	0.042463	0.640931	0.057510
O2	O	0.042459	0.500138	0.066255
O3	O	0.042451	0.574907	-0.008514
O4	O	0.042470	0.566162	0.132279
O5	O	-0.042407	0.574893	-0.008502
O6	O	-0.042399	0.500123	0.066267
O7	O	-0.042395	0.640917	0.057522
Cu8	Cu	-0.050145	0.570519	0.061895
Cu9	Cu	0.050209	0.570536	0.061882
O10	O	-0.042388	0.566147	0.132291
C11	C	0.000029	0.482124	0.066078
C12	C	0.000027	0.428469	0.065525
N13	N	-0.120729	0.570510	0.061905
C14	C	0.000021	0.574716	-0.026515
C15	C	0.000017	0.574164	-0.080170
C16	C	-0.473247	0.603640	0.028781
C17	C	-0.686905	0.603651	0.028774
O18	O	-0.714530	0.631801	0.000614
N19	N	-0.713623	0.570538	0.061871
C20	C	-0.686923	0.537419	0.094970
O21	O	-0.714551	0.509251	0.123117
C22	C	-0.473266	0.537406	0.094974
C23	C	-0.446550	0.570524	0.061878
C24	C	-0.446531	0.636755	-0.004312
C25	C	-0.393120	0.636754	-0.004308
C26	C	-0.366424	0.603638	0.028789
C27	C	-0.393139	0.570523	0.061882
C28	C	-0.446567	0.504284	0.128070
C29	C	-0.393149	0.504283	0.128067
C30	C	-0.366434	0.537401	0.094971
C31	C	-0.313031	0.537405	0.094983
N32	N	-0.286313	0.570518	0.061886
C33	C	-0.313010	0.603634	0.028789
C34	C	-0.799097	0.537428	0.094966
C35	C	-0.852511	0.537432	0.094965
C36	C	-0.852489	0.603664	0.028769
C37	C	-0.799074	0.603662	0.028773
C38	C	-0.772379	0.570541	0.061869
C39	C	-0.200842	0.603629	0.028800
C40	C	-0.147425	0.603626	0.028808
C41	C	-0.147452	0.537393	0.095002
C42	C	-0.200863	0.537397	0.094996
C43	C	-0.227557	0.570517	0.061891
O44	O	-0.285374	0.509267	0.123125
O45	O	-0.285372	0.631790	0.000639
C46	C	-0.526658	0.603642	0.028777
C47	C	-0.553373	0.570527	0.061871
C48	C	-0.526677	0.537410	0.094968
C49	C	-0.606788	0.570530	0.061870
C50	C	-0.633484	0.603646	0.028773
C51	C	-0.606766	0.636759	-0.004323
C52	C	-0.553354	0.636758	-0.004320
C53	C	-0.553395	0.504298	0.128064
C54	C	-0.606807	0.504302	0.128058
C55	C	-0.633503	0.537418	0.094961
N56	N	0.120793	0.570548	0.061868
C57	C	0.000036	0.658931	0.057699
C58	C	0.000041	0.712586	0.058252
C59	C	0.000018	1.051401	0.017548
C60	C	0.000017	1.253060	0.019599
O61	O	-0.000010	1.284316	-0.017621
N62	N	0.000025	1.272184	0.063935
C63	C	0.000029	1.240890	0.107760
O64	O	0.000030	1.261783	0.145517
C65	C	0.000027	1.039231	0.105709
C66	C	0.000024	1.020110	0.061371
C67	C	0.000015	1.032280	-0.026786
C68	C	0.000019	0.981868	-0.027298
C69	C	0.000025	0.950577	0.016524
C70	C	0.000028	0.969698	0.060858
C71	C	0.000028	1.007937	0.149534
C72	C	0.000026	0.957520	0.149017
C73	C	0.000023	0.938399	0.104679
C74	C	0.000037	0.887996	0.104168
N75	N	0.000029	0.868872	0.059833
C76	C	0.000023	0.900163	0.016011
C77	C	0.000031	1.346764	0.108834
C78	C	0.000033	1.397178	0.109347
C79	C	0.000020	1.409345	0.021186
C80	C	0.000022	1.358930	0.020674
C81	C	0.000024	1.327640	0.064499
C82	C	0.000030	0.794293	0.014938
C83	C	0.000035	0.743876	0.014430
C84	C	0.000046	0.731713	0.102591
C85	C	0.000043	0.782126	0.103099
C86	C	0.000034	0.813415	0.059269
O87	O	0.000058	0.856712	0.141369
O88	O	0.000011	0.879260	-0.021740
C89	C	0.000015	1.101813	0.018061
C90	C	0.000018	1.120934	0.062395
C91	C	0.000024	1.089643	0.106217
C92	C	0.000020	1.171348	0.062908
C93	C	0.000014	1.202639	0.019086
C94	C	0.000006	1.183515	-0.025249
C95	C	0.000009	1.133103	-0.025761
C96	C	0.000032	1.108767	0.150553
C97	C	0.000029	1.159180	0.151061
C98	C	0.000023	1.190470	0.107239
C99	C	0.000044	0.614867	-0.418985
C100	C	0.000051	0.612816	-0.620645
O101	O	0.000075	0.650037	-0.651900
N102	N	0.000049	0.568481	-0.639768
C103	C	0.000049	0.524656	-0.608474
O104	O	0.000053	0.486899	-0.629367
C105	C	0.000046	0.526707	-0.406815
C106	C	0.000042	0.571045	-0.387694
C107	C	0.000041	0.659202	-0.399864
C108	C	0.000037	0.659714	-0.349452
C109	C	0.000035	0.615892	-0.318161
C110	C	0.000038	0.571557	-0.337282
C111	C	0.000049	0.482882	-0.375521
C112	C	0.000049	0.483399	-0.325104
C113	C	0.000046	0.527737	-0.305983
C114	C	0.000031	0.528248	-0.255580
N115	N	0.000033	0.572583	-0.236456
C116	C	0.000035	0.616405	-0.267747
C117	C	0.000050	0.523582	-0.714348
C118	C	0.000050	0.523069	-0.764762
C119	C	0.000053	0.611230	-0.776930
C120	C	0.000049	0.611742	-0.726514
C121	C	0.000052	0.567917	-0.695224
C122	C	0.000025	0.617477	-0.161878
C123	C	0.000019	0.617986	-0.111461
C124	C	0.000018	0.529825	-0.099298
C125	C	0.000022	0.529316	-0.149710
C126	C	0.000027	0.573147	-0.180999
O127	O	0.000014	0.491047	-0.224296
O128	O	0.000043	0.654156	-0.246844
C129	C	0.000049	0.614355	-0.469397
C130	C	0.000051	0.570021	-0.488518
C131	C	0.000050	0.526198	-0.457228
C132	C	0.000051	0.569508	-0.538933
C133	C	0.000053	0.613330	-0.570223
C134	C	0.000055	0.657665	-0.551100
C135	C	0.000051	0.658177	-0.500688
C136	C	0.000048	0.481863	-0.476351
C137	C	0.000052	0.481355	-0.526764
C138	C	0.000053	0.525177	-0.558054
C139	C	0.000044	0.566338	0.150292
C140	C	0.000052	0.566891	0.203947
H141	H	-0.125675	0.630597	0.001858
H142	H	0.000015	0.494146	-0.073812
Cl143	Cl	0.000052	0.468481	-0.675018
Cl144	Cl	0.000026	0.918186	0.204115
H145	H	0.000047	0.647846	-0.710950
H146	H	0.000033	1.321291	0.144524
H147	H	0.000048	0.694282	-0.485125
H148	H	0.000055	0.446777	-0.391080
H149	H	0.000054	0.693347	-0.576585
Cl150	Cl	0.000012	1.448691	-0.033904
H151	H	-0.222569	0.630598	0.001842
H152	H	0.000015	0.966305	-0.063403
H153	H	-0.531606	0.663725	-0.031269
Cl154	Cl	0.000058	0.666320	-0.816276
Cl155	Cl	0.000053	0.425609	-0.550794
H156	H	0.000035	0.728311	-0.021677
Cl157	Cl	0.000016	0.473577	-0.173748
Cl158	Cl	-0.640337	0.678392	-0.045929
H159	H	-0.371371	0.663720	-0.031259
Cl160	Cl	0.000053	0.428300	-0.285770
Cl161	Cl	0.000046	0.426766	-0.437021
Cl162	Cl	0.000042	1.069437	0.205649
H163	H	-0.468263	0.663722	-0.031266
H164	H	-0.777325	0.630629	0.001823
Cl165	Cl	0.000036	1.183210	0.206807
H166	H	0.000043	0.486964	-0.780325
H167	H	0.000009	1.057752	-0.062473
Cl168	Cl	-0.640386	0.462666	0.169670
Cl169	Cl	-0.886060	0.645294	-0.012838
Cl170	Cl	-0.886090	0.495803	0.136579
Cl171	Cl	0.000008	1.109074	-0.081504
H172	H	-0.222615	0.510434	0.121950
Cl173	Cl	-0.765543	0.495788	0.136578
H174	H	-0.468311	0.477317	0.155019
H175	H	-0.531663	0.477330	0.155015
Cl176	Cl	0.000020	0.833621	-0.040163
Cl177	Cl	0.000046	1.421209	0.165089
Cl178	Cl	-0.359593	0.462642	0.169676
Cl179	Cl	-0.113883	0.495763	0.136608
H180	H	0.000020	1.343366	-0.015430
H181	H	0.000032	1.023496	0.185639
H182	H	0.000046	0.797695	0.139203
H183	H	0.000004	1.209001	-0.060931
Cl184	Cl	0.000015	0.673729	-0.087427
Cl185	Cl	0.000031	0.672579	-0.201205
Cl186	Cl	0.000047	0.715457	-0.325422
H187	H	0.000053	0.706228	0.138270
H188	H	0.000045	0.694889	-0.425336
