data_functionalizedCrystal
_audit_creation_method	'MofGen! by Chris Wilmer'
_symmetry_space_group_name_H-M	'P1'
_symmetry_Int_Tables_number	1
_symmetry_cell_setting	triclinic
loop_
_symmetry_equiv_pos_as_xyz
  x,y,z
_cell_length_a	19.188930
_cell_length_b	16.109301
_cell_length_c	15.186229
_cell_angle_alpha	90.003114
_cell_angle_beta	89.995250
_cell_angle_gamma	96.696869
loop_
_atom_site_label
_atom_site_type_symbol
_atom_site_fract_x
_atom_site_fract_y
_atom_site_fract_z
O1	O	0.089739	-1.102837	-0.073183
O2	O	0.589739	-0.602837	0.426817
O3	O	0.100908	-0.860738	-0.073198
O4	O	0.600908	-0.360738	0.426802
O5	O	-0.006316	-0.988774	-0.073173
O6	O	0.493684	-0.488774	0.426827
O7	O	0.196963	-0.974801	-0.073208
O8	O	0.696963	-0.474801	0.426792
O9	O	-0.006308	-0.988758	0.073284
O10	O	0.493692	-0.488758	0.573284
O11	O	0.100915	-0.860722	0.073259
O12	O	0.600915	-0.360722	0.573259
O13	O	0.089747	-1.102821	0.073274
O14	O	0.589747	-0.602821	0.573274
Zn15	Zn	0.095332	-0.981769	0.096520
Zn16	Zn	0.595332	-0.481769	0.596520
Zn17	Zn	0.095322	-0.981790	-0.096444
Zn18	Zn	0.595322	-0.481790	0.403556
O19	O	0.196970	-0.974785	0.073249
O20	O	0.696970	-0.474785	0.573249
C21	C	0.100459	-0.829757	0.000029
C22	C	0.600459	-0.329757	0.500029
C23	C	0.099103	-0.737466	0.000024
C24	C	0.599103	-0.237466	0.500024
C25	C	-0.032324	-0.988313	0.000058
C26	C	0.467676	-0.488313	0.500058
C27	C	-0.109832	-0.986955	0.000066
C28	C	0.390168	-0.486955	0.500066
C29	C	0.090196	-1.133802	0.000045
C30	C	0.590196	-0.633802	0.500045
C31	C	0.091552	-1.226093	0.000045
C32	C	0.591552	-0.726093	0.500045
C33	C	-0.154580	-1.062082	0.000075
C34	C	0.345420	-0.562082	0.500075
C35	C	-0.227407	-1.060806	0.000060
C36	C	0.272593	-0.560806	0.500060
C37	C	-0.255482	-0.984399	0.000055
C38	C	0.244518	-0.484399	0.500055
C39	C	-0.210724	-0.909261	0.000041
C40	C	0.289276	-0.409261	0.500041
C41	C	-0.137899	-0.910540	0.000046
C42	C	0.362101	-0.410540	0.500046
N43	N	-0.363621	-0.925989	0.049893
N44	N	0.136379	-0.425989	0.549893
N45	N	-0.432802	-0.924780	0.049890
N46	N	0.067198	-0.424780	0.549890
C47	C	-0.474900	-0.980543	0.000037
C48	C	0.025100	-0.480543	0.500037
N49	N	-0.445203	-1.037573	-0.049802
N50	N	0.054797	-0.537573	0.450198
N51	N	-0.376016	-1.038785	-0.049795
N52	N	0.123984	-0.538785	0.450205
C53	C	-0.334448	-0.983004	0.000049
C54	C	0.165552	-0.483004	0.500049
C55	C	-0.598616	-1.054292	0.000029
C56	C	-0.098616	-0.554292	0.500029
C57	C	-0.671443	-1.053012	0.000010
C58	C	-0.171443	-0.553012	0.500010
C59	C	-0.654759	-0.901465	-0.000001
C60	C	-0.154759	-0.401465	0.499999
C61	C	-0.581933	-0.902747	0.000010
C62	C	-0.081933	-0.402747	0.500010
C63	C	-0.553866	-0.979162	0.000029
C64	C	-0.053866	-0.479162	0.500029
C65	C	0.222979	-0.975246	0.000016
C66	C	0.722979	-0.475246	0.500016
C67	C	0.300486	-0.976604	0.000003
C68	C	0.800486	-0.476604	0.500003
N69	N	0.095339	-0.981761	0.228213
N70	N	0.595339	-0.481761	0.728213
C71	C	0.159573	-0.514993	0.000023
C72	C	0.659573	-0.014993	0.500023
C73	C	0.158294	-0.428277	0.000029
C74	C	0.658294	0.071723	0.500029
C75	C	0.031076	-0.448573	0.000048
C76	C	0.531076	0.051427	0.500048
C77	C	0.032357	-0.535287	0.000048
C78	C	0.532357	-0.035287	0.500048
C79	C	0.096608	-0.568495	0.000031
C80	C	0.596608	-0.068495	0.500031
C81	C	0.094047	-0.395064	0.000037
C82	C	0.594047	0.104936	0.500037
C83	C	0.092659	-0.301043	0.000043
C84	C	0.592659	0.198957	0.500043
C85	C	0.097996	-0.662522	0.000027
C86	C	0.597996	-0.162522	0.500027
C87	C	0.137689	-1.032043	0.453931
C88	C	0.637689	-0.532043	0.953931
C89	C	0.137685	-1.032052	0.546121
C90	C	0.637685	-0.532052	1.046121
C91	C	0.052965	-0.931515	0.546139
C92	C	0.552965	-0.431515	1.046139
C93	C	0.052966	-0.931512	0.453951
C94	C	0.552966	-0.431512	0.953951
C95	C	0.095332	-0.981774	0.407849
C96	C	0.595332	-0.481774	0.907849
C97	C	0.095327	-0.981786	0.592227
C98	C	0.595327	-0.481786	1.092227
C99	C	0.095322	-0.981795	0.692183
C100	C	0.595322	-0.481795	1.192183
C101	C	0.095336	-0.981767	0.307887
C102	C	0.595336	-0.481767	0.807887
N103	N	0.095320	-0.981800	0.771863
N104	N	0.595320	-0.481800	1.271863
H105	H	-0.263848	-1.121986	0.000064
H106	H	0.236152	-0.621986	0.500064
H107	H	-0.018920	-0.578851	0.000057
H108	H	0.481080	-0.078851	0.500057
O109	O	-0.685031	-0.819052	-0.000009
O110	O	-0.185031	-0.319052	0.499991
H111	H	-0.667056	-0.782957	0.059681
H112	H	-0.167056	-0.282957	0.559681
O113	O	0.183369	-1.086270	0.595829
O114	O	0.683369	-0.586270	1.095829
H115	H	0.239171	-1.067969	0.578142
H116	H	0.739171	-0.567969	1.078142
O117	O	-0.038219	-0.412753	0.000065
O118	O	0.461781	0.087247	0.500065
H119	H	-0.068480	-0.434271	-0.059620
H120	H	0.431520	0.065729	0.440380
H121	H	0.209567	-0.384719	0.000024
H122	H	0.709567	0.115281	0.500024
O123	O	-0.089627	-0.829507	0.000052
O124	O	0.410373	-0.329507	0.500052
H125	H	-0.121381	-0.776159	0.000052
H126	H	0.378619	-0.276159	0.500052
H127	H	0.211890	-0.542027	0.000016
H128	H	0.711890	-0.042027	0.500016
O129	O	0.007270	-0.877311	0.595868
O130	O	0.507270	-0.377311	1.095868
H131	H	-0.022192	-0.842364	0.548334
H132	H	0.477808	-0.342364	1.048334
O133	O	0.007281	-0.877287	0.404238
O134	O	0.507281	-0.377287	0.904238
H135	H	-0.022170	-0.842326	0.451781
H136	H	0.477830	-0.342326	0.951781
O137	O	-0.533661	-0.821716	0.000022
O138	O	-0.033661	-0.321716	0.500022
H139	H	-0.565415	-0.768369	0.000026
H140	H	-0.065415	-0.268369	0.500026
O141	O	0.183376	-1.086258	0.404203
O142	O	0.683376	-0.586258	0.904203
H143	H	0.212824	-1.121221	0.451738
H144	H	0.712824	-0.621221	0.951738
H145	H	-0.575763	-1.116514	0.000041
H146	H	-0.075763	-0.616514	0.500041
O147	O	-0.124306	-1.144498	0.000071
O148	O	0.375694	-0.644498	0.500071
H149	H	-0.167662	-1.196525	0.000062
H150	H	0.332338	-0.696525	0.500062
H151	H	-0.233587	-0.847050	0.000035
H152	H	0.266413	-0.347050	0.500035
H153	H	-0.707878	-1.114193	0.000012
H154	H	-0.207878	-0.614193	0.500012
