data_functionalizedCrystal
_audit_creation_method	'MofGen! by Chris Wilmer'
_symmetry_space_group_name_H-M	'P1'
_symmetry_Int_Tables_number	1
_symmetry_cell_setting	triclinic
loop_
_symmetry_equiv_pos_as_xyz
  x,y,z
_cell_length_a	19.121102
_cell_length_b	19.121725
_cell_length_c	19.076919
_cell_angle_alpha	94.805082
_cell_angle_beta	89.940198
_cell_angle_gamma	85.251956
loop_
_atom_site_label
_atom_site_type_symbol
_atom_site_fract_x
_atom_site_fract_y
_atom_site_fract_z
Zn1	Zn	1.069969	-0.343698	-0.458327
Zn2	Zn	1.569969	0.156302	0.041673
Zn3	Zn	1.079223	-0.457030	-0.345873
Zn4	Zn	1.579223	0.042970	0.154127
Zn5	Zn	0.957038	-0.333965	-0.335408
Zn6	Zn	1.457038	0.166035	0.164592
Zn7	Zn	0.957283	-0.456288	-0.458291
Zn8	Zn	1.457283	0.043712	0.041709
O9	O	1.015878	-0.397745	-0.399475
O10	O	1.515878	0.102255	0.100525
O11	O	1.169492	-0.363115	-0.447805
O12	O	1.669492	0.136885	0.052195
O13	O	1.066785	-0.436942	-0.245996
O14	O	1.566785	0.063058	0.254004
O15	O	0.968043	-0.236634	-0.347350
O16	O	1.468043	0.263366	0.152650
O17	O	1.176290	-0.446379	-0.365186
O18	O	1.676290	0.053621	0.134814
O19	O	1.051014	-0.243785	-0.437658
O20	O	1.551014	0.256215	0.062342
O21	O	0.977016	-0.346527	-0.238308
O22	O	1.477016	0.153473	0.261692
O23	O	0.858776	-0.345808	-0.347314
O24	O	1.358776	0.154192	0.152686
O25	O	0.968461	-0.445116	-0.556784
O26	O	1.468461	0.054884	-0.056784
O27	O	0.858956	-0.435678	-0.437595
O28	O	1.358956	0.064322	0.062405
O29	O	1.051251	-0.362397	-0.556811
O30	O	1.551251	0.137603	-0.056811
O31	O	1.067023	-0.555553	-0.365150
O32	O	1.567023	-0.055553	0.134850
O33	O	0.977434	-0.555009	-0.447742
O34	O	1.477434	-0.055009	0.052258
C35	C	0.833379	-0.389607	-0.391315
C36	C	1.333379	0.110393	0.108685
C37	C	0.755305	-0.386143	-0.387842
C38	C	1.255305	0.113857	0.112158
C39	C	0.718743	-0.431372	-0.433147
C40	C	1.218743	0.068628	0.066853
C41	C	0.645384	-0.428108	-0.429886
C42	C	1.145384	0.071892	0.070114
C43	C	0.608588	-0.379618	-0.381317
C44	C	1.108588	0.120382	0.118683
C45	C	0.645155	-0.334385	-0.336010
C46	C	1.145155	0.165615	0.163990
C47	C	0.718512	-0.337646	-0.339274
C48	C	1.218512	0.162354	0.160726
C49	C	0.387089	-0.367425	-0.369115
C50	C	0.887089	0.132575	0.130885
C51	C	0.313726	-0.364169	-0.365853
C52	C	0.813726	0.135831	0.134147
C53	C	0.313960	-0.457891	-0.459731
C54	C	0.813960	0.042109	0.040269
C55	C	0.387320	-0.461151	-0.462988
C56	C	0.887320	0.038849	0.037012
C57	C	0.423880	-0.415915	-0.417683
C58	C	0.923880	0.084085	0.082317
C59	C	0.533603	-0.376283	-0.377982
C60	C	1.033603	0.123717	0.122018
C61	C	0.498863	-0.419248	-0.421023
C62	C	0.998863	0.080752	0.078977
C63	C	1.023277	-0.580854	-0.407594
C64	C	1.523277	-0.080854	0.092406
C65	C	1.026506	-0.659193	-0.411094
C66	C	1.526506	-0.159193	0.088906
C67	C	0.984867	-0.692336	-0.365692
C68	C	1.484867	-0.192336	0.134308
C69	C	0.987907	-0.765944	-0.368984
C70	C	1.487907	-0.265944	0.131016
C71	C	1.032584	-0.806407	-0.417681
C72	C	1.532584	-0.306407	0.082319
C73	C	1.074228	-0.773258	-0.463085
C74	C	1.574228	-0.273258	0.036915
C75	C	1.071191	-0.699652	-0.459789
C76	C	1.571191	-0.199652	0.040211
C77	C	1.043918	-1.028834	-0.429982
C78	C	1.543918	-0.528834	0.070018
C79	C	1.046951	-1.102445	-0.433276
C80	C	1.546951	-0.602445	0.066724
C81	C	0.960630	-1.095126	-0.339174
C82	C	1.460630	-0.595126	0.160826
C83	C	0.957594	-1.021519	-0.335885
C84	C	1.457594	-0.521519	0.164115
C85	C	0.999241	-0.988376	-0.381286
C86	C	1.499241	-0.488376	0.118714
C87	C	1.035692	-0.881646	-0.421048
C88	C	1.535692	-0.381646	0.078952
C89	C	0.996136	-0.913139	-0.377915
C90	C	1.496136	-0.413139	0.122085
C91	C	1.199090	-0.405916	-0.407667
C92	C	1.699090	0.094084	0.092333
C93	C	1.277164	-0.409398	-0.411158
C94	C	1.777164	0.090602	0.088842
C95	C	1.008851	-0.404760	-0.583049
C96	C	1.508851	0.095240	-0.083049
C97	C	1.005857	-0.407749	-0.661277
C98	C	1.505857	0.092251	-0.161277
C99	C	1.008469	-0.213923	-0.391341
C100	C	1.508469	0.286077	0.108659
C101	C	1.005311	-0.135589	-0.387874
C102	C	1.505311	0.364411	0.112126
C103	C	1.047552	-0.366087	-0.698044
C104	C	1.547552	0.133913	-0.198044
C105	C	1.044730	-0.368893	-0.771548
C106	C	1.544730	0.131107	-0.271548
C107	C	1.000215	-0.413364	-0.808283
C108	C	1.500215	0.086636	-0.308283
C109	C	0.958515	-0.455027	-0.771511
C110	C	1.458515	0.044973	-0.271511
C111	C	0.961334	-0.452217	-0.698008
C112	C	1.461334	0.047783	-0.198008
C113	C	0.987158	-0.426381	-1.028109
C114	C	1.487158	0.073619	-0.528109
C115	C	0.984344	-0.429189	-1.101617
C116	C	1.484344	0.070811	-0.601617
C117	C	1.070558	-0.343054	-1.101649
C118	C	1.570558	0.156946	-0.601649
C119	C	1.073376	-0.340251	-1.028145
C120	C	1.573376	0.159749	-0.528145
C121	C	1.031673	-0.381912	-0.991379
C122	C	1.531673	0.118088	-0.491379
N123	N	0.997331	-0.416234	-0.883415
N124	N	1.497331	0.083766	-0.383415
N125	N	1.034554	-0.379037	-0.916248
N126	N	1.534554	0.120963	-0.416248
C127	C	1.022916	-0.390709	-0.216615
C128	C	1.522916	0.109291	0.283385
C129	C	1.026039	-0.387528	-0.138384
C130	C	1.526039	0.112472	0.361616
H131	H	0.528825	-0.458725	-0.460571
H132	H	1.028825	0.041275	0.039429
H133	H	1.077827	-1.001855	-0.466951
H134	H	1.577827	-0.501855	0.033049
F135	F	0.425989	-0.319279	-0.320900
F136	F	0.925989	0.180721	0.179100
H137	H	0.927374	-0.486135	-0.668073
H138	H	1.427374	0.013865	-0.168073
F139	F	0.916310	-1.130404	-0.290858
F140	F	1.416310	-0.630404	0.209142
H141	H	1.110608	-0.806209	-0.502732
H142	H	1.610608	-0.306209	-0.002732
F143	F	0.943588	-0.801215	-0.320661
F144	F	1.443588	-0.301215	0.179339
H145	H	1.078684	-0.334969	-0.801480
H146	H	1.578684	0.165031	-0.301480
H147	H	1.105099	-0.672667	-0.496759
H148	H	1.605099	-0.172667	0.003241
F149	F	1.094935	-0.318758	-0.658955
F150	F	1.594935	0.181242	-0.158955
F151	F	1.120755	-0.292920	-0.989054
F152	F	1.620755	0.207080	-0.489054
F153	F	1.114936	-0.298718	-1.140783
F154	F	1.614936	0.201282	-0.640783
H155	H	0.959763	-0.880192	-0.338263
H156	H	1.459763	-0.380192	0.161737
H157	H	0.284185	-0.494719	-0.496616
H158	H	0.784185	0.005281	0.003384
F159	F	0.426476	-0.512762	-0.514681
F160	F	0.926476	-0.012762	-0.014681
H161	H	0.948092	-0.465405	-1.131525
H162	H	1.448092	0.034595	-0.631525
H163	H	0.953211	-0.460315	-0.998184
H164	H	1.453211	0.039685	-0.498184
F165	F	0.605991	-0.282774	-0.284323
F166	F	1.105991	0.217226	0.215677
F167	F	0.274567	-0.312562	-0.314152
F168	F	0.774567	0.187438	0.185848
H169	H	0.921214	-0.988575	-0.296232
H170	H	1.421214	-0.488575	0.203768
H171	H	0.922267	-0.491233	-0.801426
H172	H	1.422267	0.008767	-0.301426
F173	F	0.757424	-0.289506	-0.291056
F174	F	1.257424	0.210494	0.208944
H175	H	0.748697	-0.470860	-0.472695
H176	H	1.248697	0.029140	0.027305
H177	H	1.083322	-1.135388	-0.472944
H178	H	1.583322	-0.635388	0.027056
F179	F	1.083237	-0.924715	-0.472876
F180	F	1.583237	-0.424715	0.027124
F181	F	0.937312	-0.649279	-0.313864
F182	F	1.437312	-0.149279	0.186136
F183	F	0.606475	-0.476247	-0.478107
F184	F	1.106475	0.023753	0.021893
H185	H	0.503636	-0.336804	-0.338435
H186	H	1.003636	0.163196	0.161565
