data_functionalizedCrystal
_audit_creation_method	'MofGen! by Chris Wilmer'
_symmetry_space_group_name_H-M	'P1'
_symmetry_Int_Tables_number	1
_symmetry_cell_setting	triclinic
loop_
_symmetry_equiv_pos_as_xyz
  x,y,z
_cell_length_a	10.540510
_cell_length_b	10.540539
_cell_length_c	13.596369
_cell_angle_alpha	89.996161
_cell_angle_beta	89.994444
_cell_angle_gamma	84.519401
loop_
_atom_site_label
_atom_site_type_symbol
_atom_site_fract_x
_atom_site_fract_y
_atom_site_fract_z
O1	O	1.685911	0.178723	-0.081793
O2	O	2.185911	0.678723	0.418207
O3	O	1.316493	0.195618	-0.081793
O4	O	1.816493	0.695618	0.418207
O5	O	1.509630	0.002463	-0.081791
O6	O	2.009630	0.502463	0.418209
O7	O	1.492774	0.371878	-0.081794
O8	O	1.992774	0.871878	0.418206
O9	O	1.509610	0.002452	0.081792
O10	O	2.009610	0.502452	0.581792
O11	O	1.316473	0.195607	0.081790
O12	O	1.816473	0.695607	0.581790
O13	O	1.685891	0.178712	0.081790
O14	O	2.185891	0.678712	0.581790
Zn15	Zn	1.501179	0.187158	0.107763
Zn16	Zn	2.001179	0.687158	0.607763
Zn17	Zn	1.501205	0.187172	-0.107765
Zn18	Zn	2.001205	0.687172	0.392235
O19	O	1.492754	0.371867	0.081789
O20	O	1.992754	0.871867	0.581789
C21	C	1.269179	0.194354	-0.000001
C22	C	1.769179	0.694354	0.499999
C23	C	1.128229	0.190587	-0.000001
C24	C	1.628229	0.690587	0.499999
C25	C	1.508356	-0.044845	-0.000002
C26	C	2.008356	0.455155	0.499998
C27	C	1.504574	-0.185793	-0.000007
C28	C	2.004574	0.314207	0.499993
C29	C	0.910774	0.324771	-0.000378
C30	C	1.410774	0.824771	0.499622
C31	C	1.057370	0.328789	-0.000004
C32	C	1.557370	0.828789	0.499996
C33	C	1.083459	0.119835	0.093411
C34	C	1.583459	0.619835	0.593411
C35	C	0.936697	0.116796	0.093483
C36	C	1.436697	0.616796	0.593483
C37	C	0.936914	0.113929	-0.092541
C38	C	1.436914	0.613929	0.407459
C39	C	1.083255	0.120485	-0.093770
C40	C	1.583255	0.620485	0.406230
C41	C	1.359655	-0.369204	-0.000374
C42	C	1.859655	0.130796	0.499626
C43	C	1.363489	-0.222587	-0.000006
C44	C	1.863489	0.277413	0.499994
C45	C	1.572459	-0.247464	0.093407
C46	C	2.072459	0.252536	0.593407
C47	C	1.567644	-0.394008	0.093486
C48	C	2.067644	0.105992	0.593486
C49	C	1.570536	-0.394514	-0.092539
C50	C	2.070536	0.105486	0.407461
C51	C	1.571835	-0.247533	-0.093774
C52	C	2.071835	0.252467	0.406226
C53	C	1.733204	0.179976	-0.000003
C54	C	2.233204	0.679976	0.499997
C55	C	1.874154	0.183743	-0.000009
C56	C	2.374154	0.683743	0.499991
C57	C	1.494028	0.419175	-0.000003
C58	C	1.994028	0.919175	0.499997
C59	C	1.497810	0.560123	-0.000004
C60	C	1.997810	1.060123	0.499996
N61	N	1.501171	0.187148	0.254854
N62	N	2.001171	0.687148	0.754854
N63	N	1.501223	0.187172	-0.254857
N64	N	2.001223	0.687172	0.245143
C65	C	1.501203	0.187173	0.656145
C66	C	2.001203	0.687173	1.156145
C67	C	1.501190	0.187170	0.544494
C68	C	2.001190	0.687170	1.044494
C69	C	1.501188	0.187162	0.455503
C70	C	2.001188	0.687162	0.955503
C71	C	1.501174	0.187157	0.343845
C72	C	2.001174	0.687157	0.843845
H73	H	1.086723	0.384139	-0.066968
H74	H	1.586723	0.884139	0.433032
H75	H	0.896473	0.165139	0.163309
H76	H	1.396473	0.665139	0.663309
H77	H	1.525286	-0.204864	0.162922
H78	H	2.025286	0.295136	0.662922
H79	H	0.913702	0.013429	0.097727
H80	H	1.413702	0.513429	0.597727
H81	H	1.304142	-0.399410	0.066239
H82	H	1.804142	0.100590	0.566239
H83	H	1.309682	-0.180829	0.067068
H84	H	1.809682	0.319171	0.567068
H85	H	1.130848	0.018093	0.096885
H86	H	1.630848	0.518093	0.596885
H87	H	1.132323	0.019587	-0.099411
H88	H	1.632323	0.519587	0.400589
H89	H	1.111881	0.171963	-0.162876
H90	H	1.611881	0.671963	0.337124
H91	H	0.914760	0.010167	-0.093172
H92	H	1.414760	0.510167	0.406828
H93	H	1.310072	-0.179973	-0.066969
H94	H	1.810072	0.320027	0.433031
H95	H	1.524882	-0.426058	-0.163340
H96	H	2.024882	0.073942	0.336660
H97	H	1.522164	-0.206665	-0.162879
H98	H	2.022164	0.293335	0.337121
H99	H	1.674698	-0.223322	-0.099415
H100	H	2.174698	0.276678	0.400585
H101	H	1.303931	-0.397794	-0.067363
H102	H	1.803931	0.102206	0.432637
H103	H	1.517457	-0.422206	0.163314
H104	H	2.017457	0.077794	0.663314
H105	H	0.868829	0.378617	-0.067370
H106	H	1.368829	0.878617	0.432630
H107	H	1.672441	-0.441751	-0.093167
H108	H	2.172441	0.058249	0.406833
H109	H	1.669110	-0.441987	0.097724
H110	H	2.169110	0.058013	0.597724
H111	H	1.676068	-0.225121	0.096880
H112	H	2.176068	0.274879	0.596880
H113	H	0.867259	0.378299	0.066232
H114	H	1.367259	0.878299	0.566232
H115	H	1.085765	0.384467	0.067070
H116	H	1.585765	0.884467	0.567070
H117	H	1.114305	0.168962	0.162927
H118	H	1.614305	0.668962	0.662927
H119	H	0.894374	0.157517	-0.163343
H120	H	1.394374	0.657517	0.336657
