data_functionalizedCrystal
_audit_creation_method	'MofGen! by Chris Wilmer'
_symmetry_space_group_name_H-M	'P1'
_symmetry_Int_Tables_number	1
_symmetry_cell_setting	triclinic
loop_
_symmetry_equiv_pos_as_xyz
  x,y,z
_cell_length_a	12.759395
_cell_length_b	16.625539
_cell_length_c	12.759394
_cell_angle_alpha	90.026497
_cell_angle_beta	89.985318
_cell_angle_gamma	89.982878
loop_
_atom_site_label
_atom_site_type_symbol
_atom_site_fract_x
_atom_site_fract_y
_atom_site_fract_z
Zn1	Zn	1.606244	-0.455845	0.418269
Zn2	Zn	1.606141	-0.321017	0.593970
Zn3	Zn	1.430549	-0.321034	0.418305
Zn4	Zn	1.430534	-0.455815	0.593906
O5	O	1.518367	-0.388428	0.506113
O6	O	1.753251	-0.437966	0.441588
O7	O	1.582812	-0.208187	0.570710
O8	O	1.453905	-0.338937	0.271279
O9	O	1.753176	-0.338908	0.570675
O10	O	1.582987	-0.437982	0.271253
O11	O	1.453805	-0.208199	0.441650
O12	O	1.283526	-0.338907	0.441587
O13	O	1.453879	-0.568651	0.570565
O14	O	1.283515	-0.437930	0.570601
O15	O	1.582972	-0.568674	0.441526
O16	O	1.582797	-0.338878	0.740983
O17	O	1.453779	-0.437914	0.740936
C18	C	1.245399	-0.388418	0.506092
C19	C	1.128623	-0.388433	0.506108
C20	C	1.128682	-0.491748	0.371907
C21	C	1.073851	-0.543413	0.304820
C22	C	0.964129	-0.543423	0.304838
C23	C	0.909236	-0.491761	0.371950
C24	C	0.964067	-0.440097	0.439037
C25	C	1.073792	-0.440094	0.439014
C26	C	0.964008	-0.336778	0.573231
C27	C	1.073730	-0.336771	0.573220
C28	C	0.909115	-0.285117	0.640343
C29	C	0.963946	-0.233455	0.707437
C30	C	1.073675	-0.233448	0.707417
C31	C	1.128561	-0.285107	0.640307
C32	C	1.518435	-0.598737	0.506034
C33	C	1.518464	-0.688358	0.506001
C34	C	1.518513	-1.016534	0.505883
C35	C	1.518496	-0.925225	0.505919
C36	C	1.518489	-0.852449	0.505943
C37	C	1.518472	-0.761134	0.505977
C38	C	1.792400	-0.388438	0.506134
C39	C	1.909177	-0.388443	0.506144
C40	C	1.518304	-0.388408	0.779080
C41	C	1.518373	-0.388427	0.895857
C42	C	1.518359	-0.178937	0.506115
C43	C	1.518534	-0.089316	0.505852
C44	C	1.518459	-0.388465	0.232079
C45	C	1.518498	-0.388481	0.115302
C46	C	1.652820	-0.285378	0.895852
C47	C	1.720071	-0.233864	0.950711
C48	C	1.720133	-0.233886	1.060433
C49	C	1.652938	-0.285430	1.115298
C50	C	1.585687	-0.336944	1.060440
C51	C	1.585631	-0.336915	0.950715
C52	C	1.451247	-0.439995	1.060444
C53	C	1.451179	-0.439971	0.950722
C54	C	1.384053	-0.491539	1.115309
C55	C	1.316795	-0.543051	1.060451
C56	C	1.316735	-0.543027	0.950722
C57	C	1.383928	-0.491485	0.895864
H58	H	0.819774	-0.285126	0.640350
H59	H	1.118312	-0.191374	0.762044
C60	C	1.793985	-0.177169	0.890359
C61	C	1.793925	-0.177139	0.769669
C62	C	1.867843	-0.120448	0.709321
C63	C	1.941821	-0.063787	0.769663
C64	C	1.941884	-0.063816	0.890360
C65	C	1.867966	-0.120507	0.950708
H66	H	1.739160	-0.219084	0.724994
H67	H	1.867796	-0.120427	0.619973
H68	H	1.996540	-0.021821	0.724991
H69	H	1.996649	-0.021870	0.935035
H70	H	1.868013	-0.120527	1.040056
H71	H	0.919244	-0.191393	0.762069
C72	C	1.794105	-0.177220	1.120785
C73	C	1.785577	-0.085548	1.105803
C74	C	1.859547	-0.028883	1.166157
C75	C	1.942046	-0.063888	1.241492
C76	C	1.950578	-0.155564	1.256478
C77	C	1.876607	-0.212229	1.196125
H78	H	1.724503	-0.059631	1.050032
H79	H	1.853231	0.038982	1.155063
H80	H	1.996804	-0.021940	1.286170
H81	H	2.011651	-0.181481	1.312249
H82	H	1.882923	-0.280094	1.207218
C83	C	1.242756	-0.599694	0.890381
C84	C	1.123333	-0.593050	0.905575
C85	C	1.049352	-0.649718	0.845238
C86	C	1.094795	-0.713032	0.769707
C87	C	1.214225	-0.719679	0.754510
C88	C	1.288205	-0.663011	0.814847
H89	H	1.089688	-0.546179	0.961490
H90	H	0.960943	-0.644797	0.856488
H91	H	1.040030	-0.754981	0.725042
H92	H	1.247870	-0.766550	0.698595
H93	H	1.376615	-0.667932	0.803597
C94	C	1.242892	-0.599746	1.120802
C95	C	1.242967	-0.599779	1.241492
C96	C	1.169062	-0.656475	1.301847
C97	C	1.095082	-0.713139	1.241512
C98	C	1.095004	-0.713109	1.120816
C99	C	1.168909	-0.656412	1.060460
H100	H	1.297734	-0.557831	1.286161
H101	H	1.169121	-0.656497	1.391195
H102	H	1.040374	-0.755109	1.286191
H103	H	1.040237	-0.755057	1.076146
H104	H	1.168851	-0.656390	0.971112
H105	H	1.218023	-0.491742	0.371881
H106	H	1.384112	-0.491557	1.204650
H107	H	1.653003	-0.285450	1.204639
H108	H	1.383879	-0.491455	0.806523
H109	H	1.652763	-0.285345	0.806511
C110	C	0.903808	-0.600253	0.231043
C111	C	0.964177	-0.657076	0.157222
C112	C	0.903856	-0.713906	0.083428
C113	C	0.783166	-0.713912	0.083455
C114	C	0.722790	-0.657086	0.157279
C115	C	0.783111	-0.600256	0.231073
H116	H	1.053525	-0.657074	0.157200
H117	H	0.948551	-0.755972	0.028779
H118	H	0.738513	-0.755980	0.028828
H119	H	0.633442	-0.657088	0.157302
H120	H	0.738417	-0.558190	0.285722
H121	H	1.118557	-0.585473	0.250177
H122	H	1.217902	-0.285102	0.640279
H123	H	0.819895	-0.491767	0.371950
