data_functionalizedCrystal
_audit_creation_method	'MofGen! by Chris Wilmer'
_symmetry_space_group_name_H-M	'P1'
_symmetry_Int_Tables_number	1
_symmetry_cell_setting	triclinic
loop_
_symmetry_equiv_pos_as_xyz
  x,y,z
_cell_length_a	19.077399
_cell_length_b	12.759394
_cell_length_c	19.076919
_cell_angle_alpha	87.725879
_cell_angle_beta	85.520477
_cell_angle_gamma	92.314249
loop_
_atom_site_label
_atom_site_type_symbol
_atom_site_fract_x
_atom_site_fract_y
_atom_site_fract_z
Zn1	Zn	1.061718	-0.375939	0.355402
Zn2	Zn	1.066392	-0.544283	0.237526
Zn3	Zn	0.948573	-0.375967	0.242257
Zn4	Zn	0.943822	-0.558927	0.360095
O5	O	1.005126	-0.463779	0.298820
O6	O	1.160986	-0.392130	0.335822
O7	O	1.054707	-0.515839	0.139506
O8	O	0.963614	-0.228942	0.257282
O9	O	1.164420	-0.515812	0.249219
O10	O	1.046742	-0.228921	0.340409
O11	O	0.968146	-0.392178	0.142982
O12	O	0.849295	-0.406378	0.261832
O13	O	0.955517	-0.540770	0.458119
O14	O	0.845805	-0.540798	0.348407
O15	O	1.042135	-0.406329	0.454672
O16	O	1.050100	-0.693248	0.253769
O17	O	0.960049	-0.704007	0.343819
C18	C	0.821972	-0.475181	0.306142
C19	C	0.743617	-0.480085	0.309291
C20	C	0.708599	-0.412307	0.265770
C21	C	0.634976	-0.416924	0.268729
C22	C	0.596372	-0.489314	0.315213
C23	C	0.631395	-0.557100	0.358736
C24	C	0.705017	-0.552487	0.355774
C25	C	0.375995	-0.510629	0.328897
C26	C	0.302368	-0.515235	0.331858
C27	C	0.305954	-0.375060	0.241849
C28	C	0.379577	-0.370449	0.238894
C29	C	0.414594	-0.438238	0.282414
N30	N	0.521118	-0.494033	0.318240
N31	N	0.489847	-0.433524	0.279383
C32	C	1.005085	-0.736748	0.298804
C33	C	1.005130	-0.853523	0.298819
C34	C	1.098966	-0.842267	0.205114
C35	C	1.145902	-0.891498	0.158269
C36	C	1.145942	-1.001219	0.158286
C37	C	1.099044	-1.061710	0.205155
C38	C	1.052108	-1.012478	0.252000
C39	C	1.052071	-0.902755	0.251976
C40	C	0.958277	-1.023735	0.345708
C41	C	0.958232	-0.914015	0.345688
C42	C	0.911378	-1.084226	0.392577
C43	C	0.864437	-1.034994	0.439419
C44	C	0.864398	-0.925267	0.439399
C45	C	0.911296	-0.864783	0.392533
C46	C	1.188996	-0.452334	0.291469
C47	C	1.267350	-0.447457	0.288337
C48	C	0.997775	-0.475180	0.482689
C49	C	0.994642	-0.480038	0.561043
C50	C	1.005187	-0.189744	0.298850
C51	C	1.005212	-0.072967	0.298863
C52	C	1.012490	-0.452344	0.115664
C53	C	1.015759	-0.447182	0.037305
C54	C	1.038265	-0.412328	0.596060
C55	C	1.035313	-0.416889	0.669683
C56	C	0.988740	-0.489167	0.708286
C57	C	0.945112	-0.556881	0.673264
C58	C	0.948062	-0.552313	0.599643
C59	C	0.975081	-0.510328	0.928662
C60	C	0.972136	-0.514892	1.002288
C61	C	1.062336	-0.374899	0.998701
C62	C	1.065284	-0.370342	0.925079
C63	C	1.021654	-0.438052	0.890063
N64	N	0.985723	-0.493834	0.783540
N65	N	1.024668	-0.433380	0.814811
H66	H	0.733527	-0.607679	0.391213
Cl67	Cl	0.893216	-0.637436	0.555622
H68	H	0.599958	-0.616046	0.396582
Cl69	Cl	0.428102	-0.279431	0.180460
Cl70	Cl	0.420006	-0.595848	0.383611
H71	H	0.277436	-0.319871	0.206417
H72	H	1.184088	-0.842237	0.120110
Cl73	Cl	1.099109	-0.704332	0.205278
H74	H	0.911417	-1.173566	0.392590
Cl75	Cl	1.204951	-1.063113	0.099399
H76	H	0.907190	-0.615727	0.704701
H77	H	0.826259	-1.084255	0.477579
H78	H	1.099087	-1.151050	0.205171
H79	H	0.740025	-0.353351	0.227923
H80	H	0.826180	-0.885189	0.477549
H81	H	0.911264	-0.775442	0.392508
Cl82	Cl	1.096820	-0.321465	0.547537
Cl83	Cl	1.090187	-0.331808	0.713700
Cl84	Cl	1.123835	-0.279476	0.876554
Cl85	Cl	1.117179	-0.289780	1.042725
H86	H	0.934209	-0.573752	1.033717
Cl87	Cl	0.590957	-0.331707	0.214017
H88	H	0.939564	-0.565477	0.900161
H89	H	0.270938	-0.574183	0.369716
