data_functionalizedCrystal
_audit_creation_method	'MofGen! by Chris Wilmer'
_symmetry_space_group_name_H-M	'P1'
_symmetry_Int_Tables_number	1
_symmetry_cell_setting	triclinic
loop_
_symmetry_equiv_pos_as_xyz
  x,y,z
_cell_length_a	9.065218
_cell_length_b	9.065218
_cell_length_c	7.540329
_cell_angle_alpha	90.001757
_cell_angle_beta	89.996962
_cell_angle_gamma	94.984115
loop_
_atom_site_label
_atom_site_type_symbol
_atom_site_fract_x
_atom_site_fract_y
_atom_site_fract_z
O1	O	1.960398	-0.216355	-0.147479
O2	O	2.460398	0.283645	0.352521
O3	O	1.531114	-0.234101	-0.147481
O4	O	2.031114	0.265899	0.352519
O5	O	1.754629	-0.010585	-0.147476
O6	O	2.254629	0.489415	0.352524
O7	O	1.736883	-0.439870	-0.147484
O8	O	2.236883	0.060130	0.352516
O9	O	1.754616	-0.010583	0.147489
O10	O	2.254616	0.489417	0.647489
O11	O	1.531100	-0.234098	0.147484
O12	O	2.031100	0.265902	0.647484
O13	O	1.960385	-0.216352	0.147486
O14	O	2.460385	0.283648	0.647486
Cu15	Cu	1.745741	-0.225225	0.174418
Cu16	Cu	2.245741	0.274775	0.674418
Cu17	Cu	1.745757	-0.225228	-0.174413
Cu18	Cu	2.245757	0.274772	0.325587
O19	O	1.736869	-0.439867	0.147481
O20	O	2.236869	0.060133	0.647481
C21	C	1.476120	-0.232394	0.000001
C22	C	1.976120	0.267606	0.500001
C23	C	1.312277	-0.227294	0.000000
C24	C	1.812277	0.272706	0.500000
C25	C	1.752917	0.044403	0.000003
C26	C	2.252917	0.544403	0.500003
C27	C	1.747817	0.208245	-0.000005
C28	C	2.247817	0.708245	0.499995
C29	C	2.015378	-0.218059	-0.000000
C30	C	2.515378	0.281941	0.500000
C31	C	2.179221	-0.223158	-0.000011
C32	C	2.679221	0.276842	0.499989
N33	N	1.745741	-0.225222	0.419766
N34	N	2.245741	0.274778	0.919766
C35	C	1.738582	-0.494855	-0.000002
C36	C	2.238582	0.005145	0.499998
C37	C	1.743681	-0.658698	-0.000005
C38	C	2.243681	-0.158698	0.499995
N39	N	1.745769	-0.225220	-0.419761
N40	N	2.245769	0.274780	0.080239
