data_functionalizedCrystal
_audit_creation_method	'MofGen! by Chris Wilmer'
_symmetry_space_group_name_H-M	'P1'
_symmetry_Int_Tables_number	1
_symmetry_cell_setting	triclinic
loop_
_symmetry_equiv_pos_as_xyz
  x,y,z
_cell_length_a	17.666332
_cell_length_b	10.654550
_cell_length_c	10.654550
_cell_angle_alpha	84.484931
_cell_angle_beta	90.001463
_cell_angle_gamma	90.003361
loop_
_atom_site_label
_atom_site_type_symbol
_atom_site_fract_x
_atom_site_fract_y
_atom_site_fract_z
O1	O	-0.062892	-1.667846	-0.176393
O2	O	-0.062905	-1.302367	-0.193199
O3	O	-0.062893	-1.493509	-0.002057
O4	O	-0.062904	-1.476703	-0.367535
O5	O	0.063003	-1.493484	-0.002063
O6	O	0.062991	-1.302342	-0.193205
O7	O	0.063005	-1.667820	-0.176399
Cu8	Cu	0.074494	-1.485078	-0.184803
Cu9	Cu	-0.074394	-1.485109	-0.184795
O10	O	0.062993	-1.476678	-0.367541
C11	C	0.000041	-1.255556	-0.191968
C12	C	0.000036	-1.116113	-0.188276
N13	N	0.179213	-1.485066	-0.184807
N14	N	-0.179113	-1.485131	-0.184781
C15	C	0.781263	-1.561962	-0.261650
C16	C	0.702016	-1.561949	-0.261662
C17	C	0.662394	-1.485120	-0.184783
C18	C	0.702028	-1.408274	-0.107909
C19	C	0.781274	-1.408279	-0.107908
N20	N	0.537973	-1.480785	-0.074728
N21	N	0.462692	-1.480787	-0.074732
C22	C	0.423630	-1.485098	-0.184782
N23	N	0.462693	-1.489431	-0.294829
N24	N	0.537981	-1.489435	-0.294824
C25	C	0.576465	-1.485105	-0.184775
C26	C	0.298078	-1.561919	-0.261671
C27	C	0.218829	-1.561898	-0.261686
C28	C	0.218842	-1.408230	-0.107921
C29	C	0.298090	-1.408244	-0.107918
C30	C	0.337703	-1.485095	-0.184791
C31	C	0.000054	-1.492263	0.044738
C32	C	0.000053	-1.488571	0.184181
C33	C	0.000057	-1.714631	-0.177630
C34	C	0.000057	-1.854074	-0.181322
C35	C	0.000035	-1.036628	-0.300818
C36	C	0.000048	-0.905607	-0.297341
C37	C	0.000060	-0.933570	-0.068772
C38	C	0.000052	-1.064588	-0.072250
C39	C	0.000044	-1.477925	-0.414336
C40	C	0.000040	-1.481616	-0.553779
C41	C	0.000057	-1.601112	0.263667
C42	C	0.000048	-1.597636	0.394688
C43	C	0.000034	-1.369066	0.366725
C44	C	0.000038	-1.372544	0.235706
H45	H	0.813511	-1.624538	-0.324248
H46	H	0.000068	-1.695588	0.221720
O47	O	0.176126	-1.325354	-0.024996
H48	H	0.191345	-1.351809	0.075129
O49	O	0.659270	-1.644821	-0.344579
H50	H	0.597510	-1.631897	-0.331670
H51	H	0.669763	-1.345717	-0.045316
H52	H	0.000049	-1.689279	0.459401
H53	H	0.813535	-1.345712	-0.045311
O54	O	0.000033	-1.243926	0.422296
H55	H	0.000042	-1.260412	0.526756
O56	O	0.000034	-1.092200	-0.425958
H57	H	-0.051274	-1.060337	-0.480099
O58	O	0.000043	-1.251150	0.149967
H59	H	-0.051270	-1.195685	0.168408
O60	O	0.340817	-1.644792	-0.344582
H61	H	0.325619	-1.618329	-0.444716
O62	O	0.176085	-1.644762	-0.344605
H63	H	0.216948	-1.698205	-0.398049
H64	H	0.000055	-1.129309	0.019401
O65	O	0.000073	-0.877999	0.056369
H66	H	0.000071	-0.773539	0.039883
O67	O	0.340835	-1.325431	-0.024954
H68	H	0.299973	-1.272025	0.028527
H69	H	0.000049	-0.840894	-0.388984
