data_functionalizedCrystal
_audit_creation_method	'MofGen! by Chris Wilmer'
_symmetry_space_group_name_H-M	'P1'
_symmetry_Int_Tables_number	1
_symmetry_cell_setting	triclinic
loop_
_symmetry_equiv_pos_as_xyz
  x,y,z
_cell_length_a	16.120256
_cell_length_b	13.897449
_cell_length_c	13.897447
_cell_angle_alpha	89.979190
_cell_angle_beta	92.876392
_cell_angle_gamma	87.120616
loop_
_atom_site_label
_atom_site_type_symbol
_atom_site_fract_x
_atom_site_fract_y
_atom_site_fract_z
Zn1	Zn	-0.471376	-1.447017	-0.411678
Zn2	Zn	-0.331970	-1.455090	-0.564800
Zn3	Zn	-0.331982	-1.293889	-0.403525
Zn4	Zn	-0.471340	-1.285684	-0.572934
O5	O	-0.401667	-1.370420	-0.488234
O6	O	-0.452894	-1.583069	-0.431998
O7	O	-0.215308	-1.440519	-0.536590
O8	O	-0.350493	-1.314257	-0.269626
O9	O	-0.350473	-1.589000	-0.544496
O10	O	-0.452905	-1.426759	-0.275616
O11	O	-0.215317	-1.322085	-0.418102
O12	O	-0.350457	-1.157820	-0.425989
O13	O	-0.588008	-1.300273	-0.558360
O14	O	-0.452843	-1.151792	-0.550454
O15	O	-0.588035	-1.418803	-0.439886
O16	O	-0.350438	-1.432563	-0.700859
O17	O	-0.452832	-1.308101	-0.706836
C18	C	-0.401648	-1.119807	-0.488220
C19	C	-0.401660	-1.012592	-0.488239
C20	C	-0.401648	-1.370343	-0.738847
C21	C	-0.401667	-1.370396	-0.846062
C22	C	-0.619117	-1.357722	-0.500940
C23	C	-0.711781	-1.352311	-0.506354
C24	C	-0.922740	-1.398636	-0.459975
C25	C	-0.881435	-1.342400	-0.516199
C26	C	-0.787031	-1.347916	-0.510720
C27	C	-1.017153	-1.393121	-0.465453
C28	C	-0.185063	-1.383124	-0.475509
C29	C	-0.092399	-1.388722	-0.469823
C30	C	-0.401686	-1.622012	-0.488249
C31	C	-0.401695	-1.729225	-0.488255
C32	C	-0.401681	-0.816296	-0.488243
C33	C	-0.401667	-0.925529	-0.488238
C34	C	-0.401686	-1.370442	-0.933133
C35	C	-0.401708	-1.370508	-1.042367
C36	C	-0.401705	-1.370523	-0.236643
C37	C	-0.401721	-1.370567	-0.129430
H38	H	-0.916971	-1.290107	-0.568444
H39	H	-0.887206	-1.450920	-0.407729
