data_functionalizedCrystal
_audit_creation_method	'MofGen! by Chris Wilmer'
_symmetry_space_group_name_H-M	'P1'
_symmetry_Int_Tables_number	1
_symmetry_cell_setting	triclinic
loop_
_symmetry_equiv_pos_as_xyz
  x,y,z
_cell_length_a	23.096457
_cell_length_b	14.809374
_cell_length_c	14.809374
_cell_angle_alpha	73.428020
_cell_angle_beta	89.998298
_cell_angle_gamma	65.411016
loop_
_atom_site_label
_atom_site_type_symbol
_atom_site_fract_x
_atom_site_fract_y
_atom_site_fract_z
Zr1	Zr	0.643245	0.867300	0.014961
O2	O	0.572935	1.010686	-0.096043
O3	O	0.654255	0.705894	0.032343
O4	O	0.678519	0.841316	-0.120055
O5	O	0.541525	0.902046	0.195506
O6	O	0.773799	0.841317	-0.120060
O7	O	0.548671	0.875265	0.056355
O8	O	0.730396	0.599073	0.152552
O9	O	0.584929	1.144290	-0.077106
O10	O	0.742796	0.778958	0.059865
O11	O	0.666357	0.798943	0.163715
O12	O	0.694925	0.958385	-0.015714
O13	O	0.618485	0.978370	0.088136
Zr14	Zr	0.783811	0.910015	0.236883
Zr15	Zr	0.795207	0.867302	0.014954
Zr16	Zr	0.631849	0.910013	0.236891
Zr17	Zr	0.662375	1.080383	0.045163
Zr18	Zr	0.764681	0.696932	0.206681
O19	O	0.772801	1.071421	0.219501
O20	O	0.789005	1.010689	-0.096053
O21	O	0.556731	1.071418	0.219512
O22	O	0.854121	0.766629	0.347887
O23	O	0.870325	0.705897	0.032332
O24	O	0.638051	0.766626	0.347898
O25	O	0.885531	0.875269	0.056338
O26	O	0.748538	0.936000	0.371899
O27	O	0.653257	0.935998	0.371904
O28	O	0.878385	0.902050	0.195489
O29	O	0.705719	1.144292	-0.077112
O30	O	0.721337	0.633023	0.328957
O31	O	0.842127	0.633025	0.328950
O32	O	0.851185	0.599074	0.152546
O33	O	0.575871	1.178241	0.099298
O34	O	0.696660	1.178243	0.099292
O35	O	0.732132	0.818931	0.267558
O36	O	0.808571	0.798945	0.163708
O37	O	0.760699	0.978372	0.088129
O38	O	0.684260	0.998357	0.191979
C39	C	0.689600	0.622124	0.088145
C40	C	0.681478	0.531664	0.075323
C41	C	0.523447	0.888655	0.125932
C42	C	0.458935	0.888654	0.125935
C43	C	0.717722	0.435408	0.132543
C44	C	0.709329	0.341912	0.119293
C45	C	0.453619	0.794997	0.165377
C46	C	0.393003	0.794996	0.165381
C47	C	0.337705	0.888655	0.125924
C48	C	0.343025	0.982326	0.086482
C49	C	0.403640	0.982326	0.086487
N50	N	0.226396	0.949156	0.048681
N51	N	0.168816	0.949150	0.048677
C52	C	0.155074	0.888661	0.125907
N53	N	0.201092	0.828162	0.203138
N54	N	0.258679	0.828165	0.203140
C55	C	0.271976	0.888666	0.125914
C56	C	0.084033	0.794997	0.165358
C57	C	0.023415	0.795001	0.165365
C58	C	-0.026562	0.982332	0.086456
C59	C	0.034056	0.982327	0.086458
C60	C	0.089350	0.888655	0.125906
C61	C	0.903609	0.888660	0.125913
C62	C	0.968121	0.888661	0.125909
C63	C	0.727783	0.835231	-0.151677
C64	C	0.732621	0.817098	-0.245892
C65	C	0.737457	1.155192	0.163700
C66	C	0.745578	1.245651	0.176521
C67	C	0.711030	0.898022	-0.325388
C68	C	0.716029	0.879283	-0.422765
C69	C	0.699273	0.942085	0.403522
C70	C	0.694436	0.960217	0.497737
C71	C	0.879681	0.622126	0.088135
C72	C	0.936072	0.531668	0.075310
C73	C	0.675345	0.675551	0.365744
C74	C	0.662386	0.603224	0.447138
C75	C	0.865426	0.675553	0.365735
C76	C	0.916979	0.603227	0.447125
C77	C	0.561630	1.101762	-0.113890
C78	C	0.510077	1.174088	-0.195280
C79	C	0.547375	1.155189	0.163709
C80	C	0.490985	1.245648	0.176534
C81	C	0.751711	1.101765	-0.113900
C82	C	0.764670	1.174091	-0.195293
C83	C	0.928220	0.478752	0.015074
C84	C	0.981201	0.393765	0.003004
C85	C	1.042033	0.361690	0.051178
C86	C	1.049884	0.414614	0.111418
C87	C	0.996904	0.499604	0.123481
C88	C	0.690633	0.579694	0.539575
C89	C	0.678455	0.511749	0.616063
C90	C	0.638033	0.467329	0.600111
C91	C	0.609782	0.490866	0.507664
C92	C	0.621957	0.558816	0.431179
C93	C	0.981096	0.558830	0.431138
C94	C	1.029543	0.490883	0.507606
C95	C	1.013871	0.467328	0.600059
C96	C	0.949748	0.511733	0.616045
C97	C	0.901303	0.579685	0.539579
C98	C	0.445961	1.218495	-0.179292
C99	C	0.397517	1.286469	-0.255756
C100	C	0.413189	1.310028	-0.348209
C101	C	0.477312	1.265618	-0.364196
C102	C	0.525755	1.197651	-0.287732
C103	C	0.498837	1.298570	0.236763
C104	C	0.445859	1.383576	0.248811
C105	C	0.385028	1.415654	0.200634
C106	C	0.377177	1.362727	0.140398
C107	C	0.430155	1.277727	0.128346
C108	C	0.805096	1.218490	-0.179311
C109	C	0.817284	1.286439	-0.255782
C110	C	0.789043	1.309993	-0.348233
C111	C	0.748616	1.265587	-0.364214
C112	C	0.736431	1.197633	-0.287745
H113	H	0.754962	0.422217	0.191344
N114	N	0.493301	1.289687	-0.458645
N115	N	0.470046	1.268370	-0.521469
H116	H	0.481335	1.285368	-0.588178
H117	H	0.576869	0.454690	0.494689
N118	N	1.095041	0.445522	0.491281
N119	N	1.136089	0.462197	0.529905
H120	H	1.182347	0.430160	0.518375
N121	N	0.858581	1.331796	-0.239461
N122	N	0.908527	1.315116	-0.278089
H123	H	0.937693	1.347147	-0.266561
H124	H	1.053324	0.411995	0.662314
H125	H	0.297998	1.058584	0.054356
H126	H	0.701465	0.492594	0.691330
H127	H	0.936996	0.492545	0.691331
H128	H	0.644234	0.544856	0.016528
H129	H	0.754809	0.733943	-0.249924
H130	H	0.628124	0.412002	0.662398
N131	N	0.835812	0.625022	0.555934
N132	N	0.821835	0.603973	0.638489
H133	H	0.775583	0.635990	0.650048
H134	H	0.598955	0.577963	0.355914
N135	N	1.112025	0.381848	0.160615
N136	N	1.157406	0.382249	0.114769
H137	H	1.201294	0.359102	0.149518
H138	H	0.577960	1.161493	-0.300762
N139	N	0.662600	0.358463	0.045539
N140	N	0.655845	0.282491	0.034885
H141	H	0.622843	0.294177	-0.017202
N142	N	0.866081	0.511518	-0.034128
N143	N	0.820699	0.511106	0.011711
H144	H	0.776813	0.534246	-0.023043
H145	H	0.548364	1.272461	0.276002
N146	N	0.429931	1.194447	-0.084866
N147	N	0.372678	1.234118	-0.070620
H148	H	0.361351	1.217142	-0.003933
H149	H	0.993868	0.577997	0.355864
N150	N	1.096148	0.274806	0.038951
N151	N	1.096273	0.186727	0.060652
H152	H	1.134493	0.125341	0.052052
H153	H	0.498638	0.718721	0.197492
N154	N	0.332025	1.331816	-0.239396
N155	N	0.318046	1.310758	-0.156843
H156	H	0.271793	1.342782	-0.145286
N157	N	1.004940	0.553639	0.185019
N158	N	1.059260	0.524979	0.228023
H159	H	1.064941	0.563138	0.271486
H160	H	0.373737	1.365373	-0.410463
H161	H	0.452264	1.426657	0.297863
N162	N	0.387576	0.699314	0.205678
N163	N	0.436950	0.615690	0.240898
H164	H	0.433120	0.548113	0.269358
N165	N	0.330923	1.502485	0.212958
N166	N	0.337950	1.549721	0.266742
H167	H	0.299740	1.611046	0.275451
H168	H	0.327641	1.388858	0.101176
N169	N	0.973182	0.339689	-0.058509
N170	N	1.020484	0.263804	-0.069279
H171	H	1.014820	0.225612	-0.112721
N172	N	0.422114	1.223670	0.066834
N173	N	0.385041	1.180690	0.083115
H174	H	0.379356	1.142515	0.039670
H175	H	0.723548	0.615854	0.552582
N176	N	0.833953	1.194450	-0.084887
N177	N	0.870049	1.234103	-0.070648
H178	H	0.890435	1.217126	-0.003963
N179	N	0.801502	1.379406	-0.426330
N180	N	0.837598	1.419037	-0.412036
H181	H	0.846399	1.468063	-0.467188
H182	H	0.782820	0.232452	0.235328
H183	H	0.725625	1.284776	-0.439498
H184	H	0.703511	1.161490	-0.300771
N185	N	0.140512	0.699309	0.205650
N186	N	0.135753	0.615690	0.240869
H187	H	0.175640	0.548109	0.269325
H188	H	0.407965	1.058596	0.054372
N189	N	-0.083047	1.077996	0.046162
N190	N	-0.137164	1.077986	0.046165
H191	H	-0.177060	1.145552	0.017709
N192	N	0.017973	0.699332	0.205636
N193	N	-0.036149	0.699343	0.205623
H194	H	-0.039994	0.631775	0.234060
H195	H	0.688847	0.981176	-0.321357
N196	N	0.039478	1.078006	0.046164
N197	N	-0.009898	1.161627	0.010942
H198	H	-0.006071	1.229207	-0.017515
H199	H	0.738219	0.796122	-0.426790
H200	H	0.672250	1.043379	-0.498240
