data_functionalizedCrystal
_audit_creation_method	'MofGen! by Chris Wilmer'
_symmetry_space_group_name_H-M	'P1'
_symmetry_Int_Tables_number	1
_symmetry_cell_setting	triclinic
loop_
_symmetry_equiv_pos_as_xyz
  x,y,z
_cell_length_a	17.917559
_cell_length_b	14.560432
_cell_length_c	14.560432
_cell_angle_alpha	59.999999
_cell_angle_beta	89.999174
_cell_angle_gamma	57.011355
loop_
_atom_site_label
_atom_site_type_symbol
_atom_site_fract_x
_atom_site_fract_y
_atom_site_fract_z
Zr1	Zr	0.754941	0.920685	-0.078229
O2	O	0.629821	1.126302	-0.231882
O3	O	0.793294	0.724789	-0.031127
O4	O	0.793301	0.916386	-0.222727
O5	O	0.629812	0.934706	0.110856
O6	O	0.922260	0.901938	-0.215504
O7	O	0.629814	0.934705	-0.040282
O8	O	0.922248	0.559206	0.127233
O9	O	0.629824	1.277438	-0.231881
O10	O	0.905896	0.790981	-0.005647
O11	O	0.809654	0.801765	0.101756
O12	O	0.809661	1.027346	-0.123828
O13	O	0.713419	1.038130	-0.016426
Zr14	Zr	0.960613	0.897645	0.174341
Zr15	Zr	0.960616	0.897642	-0.066708
Zr16	Zr	0.754938	0.920688	0.162820
Zr17	Zr	0.754946	1.161731	-0.078226
Zr18	Zr	0.960608	0.656599	0.174338
O19	O	0.922260	1.093541	0.127239
O20	O	0.922264	1.093537	-0.215502
O21	O	0.629817	1.126305	0.110858
O22	O	1.085733	0.692028	0.327994
O23	O	1.085738	0.692025	-0.014747
O24	O	0.793290	0.724793	0.311613
O25	O	1.085742	0.883624	-0.014745
O26	O	0.922253	0.901944	0.318839
O27	O	0.793294	0.916392	0.311615
O28	O	1.085740	0.883625	0.136394
O29	O	0.793308	1.259122	-0.222723
O30	O	0.922246	0.559208	0.318835
O31	O	1.085730	0.540892	0.327992
O32	O	1.085732	0.540890	0.136391
O33	O	0.629822	1.277440	-0.040279
O34	O	0.793306	1.259124	-0.031122
O35	O	0.905893	0.790984	0.219940
O36	O	1.002135	0.780200	0.112537
O37	O	0.905901	1.016565	-0.005644
O38	O	0.809659	1.027348	0.101758
C39	C	0.857771	0.607654	0.048053
C40	C	0.857768	0.505324	0.048052
C41	C	0.715672	0.687758	-0.126432
C42	C	0.644625	0.730897	-0.213669
C43	C	0.644628	0.634744	-0.213665
C44	C	0.715688	0.495438	-0.126417
C45	C	0.786735	0.452299	-0.039180
C46	C	0.786723	0.548465	-0.039192
C47	C	0.928834	0.269867	0.135297
C48	C	0.928828	0.366019	0.135300
C49	C	0.999894	0.130561	0.222545
C50	C	1.070939	0.087420	0.309789
C51	C	1.070933	0.183584	0.309782
C52	C	0.999876	0.322879	0.222537
C53	C	0.600509	0.937989	0.033646
C54	C	0.513195	0.947771	0.028755
C55	C	0.362200	0.852706	0.076285
C56	C	0.353362	0.965618	0.019830
C57	C	0.442302	0.955685	0.024797
C58	C	0.273253	0.862637	0.071319
C59	C	1.115045	0.880341	0.062466
C60	C	1.202360	0.870559	0.067357
C61	C	0.857781	0.909162	-0.253460
C62	C	0.857782	0.909161	-0.355791
C63	C	0.857784	1.210676	0.048059
C64	C	0.857786	1.313006	0.048060
C65	C	0.715684	0.925072	-0.556038
C66	C	0.644638	0.933030	-0.511936
C67	C	0.644637	0.933033	-0.415788
C68	C	0.715692	0.925074	-0.363737
C69	C	0.786737	0.917116	-0.407838
C70	C	0.786729	0.917118	-0.503991
C71	C	0.928828	0.901203	-0.399893
C72	C	0.928826	0.901209	-0.496046
C73	C	0.999882	0.893243	-0.347841
C74	C	1.070926	0.885294	-0.391947
C75	C	1.070923	0.885293	-0.488102
C76	C	0.999872	0.893251	-0.540147
C77	C	0.857773	0.909168	0.349571
C78	C	0.857772	0.909169	0.451903
C79	C	1.115039	0.578830	0.062463
C80	C	1.202351	0.466718	0.067353
C81	C	0.857767	0.607657	0.349568
C82	C	0.857763	0.505328	0.451899
C83	C	1.115035	0.578833	0.363979
C84	C	1.202346	0.466722	0.471200
C85	C	0.600520	1.239496	-0.267867
C86	C	0.513209	1.351608	-0.375088
C87	C	0.600516	1.239500	0.033649
C88	C	0.513204	1.351612	0.028759
C89	C	0.857788	1.210673	-0.253456
C90	C	0.857791	1.313002	-0.355787
C91	C	1.193118	0.419696	0.007948
C92	C	1.275149	0.314369	0.012520
C93	C	1.366412	0.256058	0.076503
C94	C	1.375644	0.303089	0.135909
C95	C	1.293613	0.408421	0.131330
C96	C	1.293594	0.408443	0.465490
C97	C	1.375640	0.303115	0.566227
C98	C	1.366435	0.256061	0.672673
C99	C	1.275177	0.314350	0.678380
C100	C	1.193134	0.419683	0.577644
C101	C	0.421960	1.409898	-0.369378
C102	C	0.339915	1.515256	-0.470115
C103	C	0.349119	1.562316	-0.576561
C104	C	0.440377	1.504020	-0.582268
C105	C	0.522421	1.398671	-0.481533
C106	C	0.522437	1.398644	0.088154
C107	C	0.440406	1.503998	0.083556
C108	C	0.349142	1.562312	0.019569
C109	C	0.339911	1.515276	-0.039833
C110	C	0.421941	1.409931	-0.035241
C111	C	0.958248	0.494043	0.575302
C112	C	1.008488	0.440324	0.685075
C113	C	1.008480	0.344179	0.781219
C114	C	0.958224	0.301754	0.767585
C115	C	0.907984	0.355473	0.657812
C116	C	0.907999	0.451616	0.561673
C117	C	0.807495	0.366765	0.534410
C118	C	0.807507	0.462903	0.438265
C119	C	0.757239	0.324340	0.520777
C120	C	0.707003	0.378052	0.411002
C121	C	0.707014	0.474201	0.314855
C122	C	0.757267	0.516622	0.328492
H123	H	0.715654	0.766061	-0.126434
C124	C	1.063771	0.486993	0.700062
N125	N	1.105411	0.522142	0.711353
H126	H	0.586789	0.939506	-0.379877
H127	H	0.715693	0.925060	-0.285439
C128	C	1.149087	0.876513	-0.334672
N129	N	1.207962	0.869894	-0.291526
H130	H	0.999882	0.893237	-0.269548
C131	C	0.622792	1.334546	-0.487833
N132	N	0.698391	1.286251	-0.492587
H133	H	1.118814	0.467171	-0.044168
H134	H	0.715690	0.417153	-0.126429
H135	H	1.267697	0.276023	0.765062
C136	C	0.566467	0.884135	-0.309643
N137	N	0.507601	0.999551	-0.381933
C138	C	0.258915	1.678189	0.014535
N139	N	0.190959	1.765463	0.010752
H140	H	0.757284	0.594902	0.250215
C141	C	0.411768	1.358193	-0.100570
N142	N	0.404099	1.319228	-0.149777
C143	C	1.149084	0.876531	-0.536602
N144	N	1.207956	0.869930	-0.573128
H145	H	0.586778	0.669875	-0.284705
C146	C	0.462655	0.712042	0.146602
N147	N	0.538326	0.606096	0.199557
C148	C	1.149093	0.136113	0.405751
N149	N	1.207964	0.100353	0.478038
H150	H	0.282306	1.648098	-0.658578
H151	H	0.999893	0.052274	0.222539
C152	C	0.999863	0.893248	-0.645913
N153	N	0.999856	0.893240	-0.725574
H154	H	1.128794	-0.026002	0.380815
H155	H	0.596741	1.351172	0.140266
C156	C	0.450582	1.555707	0.148916
N157	N	0.458249	1.594648	0.198149
H158	H	0.999859	0.401185	0.222528
C159	C	0.252902	1.106292	-0.050516
N160	N	0.177234	1.212243	-0.103503
H161	H	1.118838	0.467121	0.582309
H162	H	1.433199	0.170289	0.080222
H163	H	0.586788	0.939508	-0.554323
C164	C	0.715673	0.925083	-0.661810
N165	N	0.715663	0.925089	-0.741479
C166	C	1.264973	0.262643	-0.052824
N167	N	1.257305	0.223683	-0.102038
C168	C	1.476043	0.238923	0.206296
N169	N	1.551666	0.190582	0.259319
H170	H	0.666083	0.343508	0.399914
H171	H	1.049386	0.300447	0.870601
H172	H	1.301145	0.446692	0.179712
H173	H	1.301107	0.446738	0.378825
H174	H	1.449938	0.255666	0.561559
C175	C	0.239511	1.579419	-0.110196
N176	N	0.163888	1.627724	-0.163183
C177	C	1.456696	0.140181	0.783475
N178	N	1.524683	0.052894	0.866928
H179	H	0.414448	1.371590	-0.282714
C180	C	0.239540	1.579360	-0.463811
N181	N	0.163941	1.627641	-0.459059
C182	C	0.958267	0.599797	0.469547
N183	N	0.958281	0.679453	0.389893
C184	C	0.958216	0.195994	0.873350
N185	N	0.958213	0.116331	0.953012
H186	H	0.757231	0.246060	0.599066
C187	C	0.651744	0.533285	0.194106
N188	N	0.610115	0.577781	0.103160
H189	H	0.447860	1.542349	-0.668949
