data_functionalizedCrystal
_audit_creation_method	'MofGen! by Chris Wilmer'
_symmetry_space_group_name_H-M	'P1'
_symmetry_Int_Tables_number	1
_symmetry_cell_setting	triclinic
loop_
_symmetry_equiv_pos_as_xyz
  x,y,z
_cell_length_a	14.044220
_cell_length_b	14.044220
_cell_length_c	22.610064
_cell_angle_alpha	89.990485
_cell_angle_beta	89.998097
_cell_angle_gamma	93.188878
loop_
_atom_site_label
_atom_site_type_symbol
_atom_site_fract_x
_atom_site_fract_y
_atom_site_fract_z
O1	O	-1.277165	-0.230146	-0.049124
O2	O	-0.943831	0.103187	0.284209
O3	O	-0.610498	0.436520	0.617543
O4	O	-1.000493	-0.221841	-0.049139
O5	O	-0.667160	0.111493	0.284194
O6	O	-0.333827	0.444826	0.617528
O7	O	-1.134676	-0.087658	-0.049126
O8	O	-0.801343	0.245676	0.284208
O9	O	-0.468010	0.579009	0.617541
O10	O	-1.142982	-0.364329	-0.049137
O11	O	-0.809649	-0.030996	0.284196
O12	O	-0.476315	0.302337	0.617530
O13	O	-1.134670	-0.087695	0.049243
O14	O	-0.801336	0.245639	0.382577
O15	O	-0.468003	0.578972	0.715910
O16	O	-1.000487	-0.221877	0.049230
O17	O	-0.667153	0.111456	0.382564
O18	O	-0.333820	0.444789	0.715897
O19	O	-1.277158	-0.230183	0.049245
O20	O	-0.943825	0.103150	0.382579
O21	O	-0.610491	0.436484	0.715912
Zn22	Zn	-1.138821	-0.226036	0.064856
Zn23	Zn	-0.805488	0.107297	0.398189
Zn24	Zn	-0.472155	0.440631	0.731523
Zn25	Zn	-1.138830	-0.225988	-0.064750
Zn26	Zn	-0.805497	0.107346	0.268584
Zn27	Zn	-0.472163	0.440679	0.601917
O28	O	-1.142975	-0.364366	0.049232
O29	O	-0.809642	-0.031033	0.382565
O30	O	-0.476309	0.302301	0.715899
C31	C	-0.964868	-0.218223	0.000044
C32	C	-0.631535	0.115110	0.333377
C33	C	-0.298201	0.448443	0.666711
C34	C	-0.858725	-0.207379	0.000038
C35	C	-0.525392	0.125955	0.333372
C36	C	-0.192059	0.459288	0.666705
N37	N	-1.138836	-0.225948	-0.153202
N38	N	-0.805503	0.107386	0.180131
N39	N	-0.472170	0.440719	0.513465
C40	C	-1.131037	-0.052054	0.000059
C41	C	-0.797704	0.281279	0.333392
C42	C	-0.464371	0.614612	0.666725
C43	C	-1.120193	0.054088	0.000059
C44	C	-0.786859	0.387422	0.333392
C45	C	-0.453526	0.720755	0.666726
C46	C	-1.312783	-0.233800	0.000061
C47	C	-0.979450	0.099533	0.333394
C48	C	-0.646117	0.432866	0.666728
C49	C	-1.418926	-0.244645	0.000063
C50	C	-1.085593	0.088688	0.333396
C51	C	-0.752259	0.422022	0.666729
C52	C	-0.664388	-0.187553	0.000051
C53	C	-0.331054	0.145781	0.333384
C54	C	0.002279	0.479114	0.666718
C55	C	-0.613258	-0.264467	0.000050
C56	C	-0.279924	0.068866	0.333384
C57	C	0.053409	0.402200	0.666717
C58	C	-0.505122	-0.253435	0.000057
C59	C	-0.171788	0.079898	0.333391
C60	C	0.161545	0.413231	0.666724
C61	C	-0.772534	-0.198583	0.000044
C62	C	-0.439200	0.134751	0.333377
C63	C	-0.105867	0.468084	0.666711
C64	C	-1.146614	-0.399969	0.000046
C65	C	-0.813281	-0.066636	0.333380
C66	C	-0.479948	0.266697	0.666713
C67	C	-1.157459	-0.506112	0.000042
C68	C	-0.824125	-0.172779	0.333375
C69	C	-0.490792	0.160554	0.666709
C70	C	-1.100366	0.248426	0.000049
C71	C	-0.767033	0.581759	0.333383
C72	C	-0.433700	0.915093	0.666716
C73	C	-1.177281	0.299556	0.000052
C74	C	-0.843947	0.632889	0.333385
C75	C	-0.510614	0.966223	0.666718
C76	C	-1.166249	0.407692	0.000046
C77	C	-0.832916	0.741026	0.333380
C78	C	-0.499583	1.074359	0.666713
C79	C	-1.111397	0.140280	0.000055
C80	C	-0.778063	0.473613	0.333388
C81	C	-0.444730	0.806947	0.666721
N82	N	-1.138822	-0.226069	0.153308
N83	N	-0.805489	0.107264	0.486642
N84	N	-0.472155	0.440598	0.819975
C85	C	-1.079378	-0.285404	0.438151
C86	C	-0.746044	0.047929	0.771484
C87	C	-0.412711	0.381262	1.104817
C88	C	-1.079376	-0.285413	0.376231
C89	C	-0.746043	0.047920	0.709564
C90	C	-0.412709	0.381253	1.042897
O91	O	-1.028809	-0.335902	0.344207
O92	O	-0.695475	-0.002569	0.677541
O93	O	-0.362142	0.330765	1.010874
N94	N	-1.138812	-0.226030	0.345261
N95	N	-0.805479	0.107303	0.678594
N96	N	-0.472145	0.440636	1.011927
C97	C	-1.198247	-0.166627	0.376214
C98	C	-0.864913	0.166706	0.709547
C99	C	-0.531580	0.500040	1.042880
O100	O	-1.248801	-0.116117	0.344186
O101	O	-0.915467	0.217216	0.677519
O102	O	-0.582134	0.550550	1.010852
C103	C	-1.198243	-0.166614	0.438133
C104	C	-0.864909	0.166720	0.771466
C105	C	-0.531576	0.500053	1.104799
C106	C	-1.138810	-0.226008	0.469099
C107	C	-0.805476	0.107325	0.802433
C108	C	-0.472143	0.440659	1.135766
C109	C	-1.019949	-0.344793	0.469118
C110	C	-0.686615	-0.011460	0.802451
C111	C	-0.353282	0.321874	1.135784
C112	C	-1.019952	-0.344785	0.531033
C113	C	-0.686619	-0.011452	0.864367
C114	C	-0.353285	0.321882	1.197700
C115	C	-1.079384	-0.285389	0.561982
C116	C	-0.746051	0.047945	0.895315
C117	C	-0.412718	0.381278	1.228649
C118	C	-1.138813	-0.226000	0.531015
C119	C	-0.805480	0.107333	0.864348
C120	C	-0.472146	0.440667	1.197682
C121	C	-1.257672	-0.107206	0.469084
C122	C	-0.924338	0.226127	0.802418
C123	C	-0.591005	0.559460	1.135751
C124	C	-1.257662	-0.107198	0.531007
C125	C	-0.924329	0.226136	0.864341
C126	C	-0.590996	0.559469	1.197674
C127	C	-1.198229	-0.166592	0.561974
C128	C	-0.864896	0.166742	0.895308
C129	C	-0.531563	0.500075	1.228641
C130	C	-1.198249	-0.166595	0.623879
C131	C	-0.864915	0.166738	0.957213
C132	C	-0.531582	0.500071	1.290546
N133	N	-1.138813	-0.225979	0.654849
N134	N	-0.805479	0.107355	0.988183
N135	N	-0.472146	0.440688	1.321516
C136	C	-1.079380	-0.285375	0.623901
C137	C	-0.746047	0.047958	0.957234
C138	C	-0.412714	0.381291	1.290567
C139	C	-1.198249	-0.166658	0.246180
C140	C	-0.864916	0.166675	0.579513
C141	C	-0.531582	0.500008	0.912847
C142	C	-1.198258	-0.166676	0.184262
C143	C	-0.864925	0.166658	0.517596
C144	C	-0.531592	0.499991	0.850929
C145	C	-1.079386	-0.285461	0.184284
C146	C	-0.746053	0.047872	0.517617
C147	C	-0.412719	0.381205	0.850951
C148	C	-1.079382	-0.285448	0.246203
C149	C	-0.746049	0.047885	0.579536
C150	C	-0.412716	0.381219	0.912869
C151	C	-1.138813	-0.226041	0.277150
C152	C	-0.805480	0.107292	0.610484
C153	C	-0.472146	0.440625	0.943817
C154	C	-1.079393	-0.285355	0.753928
C155	C	-0.746059	0.047979	1.087261
C156	C	-0.412726	0.381312	1.420595
C157	C	-1.079404	-0.285344	0.815849
C158	C	-0.746071	0.047989	1.149183
C159	C	-0.412737	0.381322	1.482516
C160	C	-1.198272	-0.166556	0.815822
C161	C	-0.864939	0.166778	1.149156
C162	C	-0.531606	0.500111	1.482489
C163	C	-1.198265	-0.166569	0.753907
C164	C	-0.864931	0.166764	1.087240
C165	C	-0.531598	0.500097	1.420573
C166	C	-1.138817	-0.225972	0.722961
C167	C	-0.805484	0.107362	1.056294
C168	C	-0.472151	0.440695	1.389628
O169	O	-1.248787	-0.116130	0.655942
O170	O	-0.915454	0.217204	0.989276
O171	O	-0.582120	0.550537	1.322609
O172	O	-1.028826	-0.335868	0.655937
O173	O	-0.695492	-0.002534	0.989270
O174	O	-0.362159	0.330799	1.322603
H175	H	-0.650697	-0.338600	0.000044
H176	H	-0.317364	-0.005267	0.333378
H177	H	0.015970	0.328066	0.666711
F178	F	-1.274179	0.250623	0.000062
F179	F	-0.940846	0.583956	0.333395
F180	F	-0.607513	0.917290	0.666728
F181	F	-1.003475	0.297359	0.000041
F182	F	-0.670141	0.630692	0.333374
F183	F	-0.336808	0.964025	0.666708
F184	F	-0.615455	-0.090661	0.000057
F185	F	-0.282122	0.242673	0.333390
F186	F	0.051212	0.576006	0.666723
F187	F	-1.016147	-0.348564	0.848804
F188	F	-0.682814	-0.015231	1.182137
F189	F	-0.349480	0.318103	1.515470
F190	F	-1.016122	-0.348578	0.721002
F191	F	-0.682788	-0.015244	1.054336
F192	F	-0.349455	0.318089	1.387669
F193	F	-0.956691	-0.407995	0.563985
F194	F	-0.623358	-0.074662	0.897318
F195	F	-0.290025	0.258672	1.230652
H196	H	-0.971548	-0.393160	0.443925
H197	H	-0.638214	-0.059827	0.777258
H198	H	-0.304881	0.273506	1.110591
F199	F	-1.320916	-0.043965	0.563940
F200	F	-0.987583	0.289369	0.897273
F201	F	-0.654250	0.622702	1.230607
H202	H	-1.246670	-0.118215	0.728693
H203	H	-0.913337	0.215118	1.062026
H204	H	-0.580004	0.548451	1.395360
F205	F	-1.016125	-0.348662	0.279154
F206	F	-0.682792	-0.015328	0.612488
F207	F	-0.349458	0.318005	0.945821
H208	H	-1.030992	-0.333824	0.159074
H209	H	-0.697658	-0.000490	0.492408
H210	H	-0.364325	0.332843	0.825741
F211	F	-1.261527	-0.103474	0.151311
F212	F	-0.928194	0.229860	0.484645
F213	F	-0.594861	0.563193	0.817978
F214	F	-1.261514	-0.103433	0.279112
F215	F	-0.928181	0.229901	0.612445
F216	F	-0.594847	0.563234	0.945779
H217	H	-1.306067	-0.058842	0.443880
H218	H	-0.972733	0.274492	0.777213
H219	H	-0.639400	0.607825	1.110546
F220	F	-1.261524	-0.103346	0.848770
F221	F	-0.928191	0.229987	1.182103
F222	F	-0.594857	0.563321	1.515436
