data_functionalizedCrystal
_audit_creation_method	'MofGen! by Chris Wilmer'
_symmetry_space_group_name_H-M	'P1'
_symmetry_Int_Tables_number	1
_symmetry_cell_setting	triclinic
loop_
_symmetry_equiv_pos_as_xyz
  x,y,z
_cell_length_a	18.215407
_cell_length_b	13.897448
_cell_length_c	18.215399
_cell_angle_alpha	90.023741
_cell_angle_beta	89.983101
_cell_angle_gamma	89.982972
loop_
_atom_site_label
_atom_site_type_symbol
_atom_site_fract_x
_atom_site_fract_y
_atom_site_fract_z
Zn1	Zn	1.125099	0.384090	-0.416080
Zn2	Zn	1.625099	0.884090	0.083920
Zn3	Zn	1.125019	0.545400	-0.293023
Zn4	Zn	1.625019	1.045400	0.206977
Zn5	Zn	1.002032	0.384113	-0.293033
Zn6	Zn	1.502032	0.884113	0.206967
Zn7	Zn	1.002009	0.545338	-0.416054
Zn8	Zn	1.502009	1.045338	0.083946
O9	O	1.063540	0.464735	-0.354547
O10	O	1.563540	0.964735	0.145453
O11	O	1.228073	0.405505	-0.399762
O12	O	1.728073	0.905505	0.100238
O13	O	1.108680	0.524041	-0.190040
O14	O	1.608680	1.024041	0.309960
O15	O	1.018400	0.249129	-0.309371
O16	O	1.518400	0.749129	0.190629
O17	O	1.228014	0.524018	-0.309353
O18	O	1.728014	1.024018	0.190647
O19	O	1.108817	0.249112	-0.399773
O20	O	1.608817	0.749112	0.100227
O21	O	1.018322	0.405544	-0.190048
O22	O	1.518322	0.905544	0.309952
O23	O	0.899044	0.405484	-0.309346
O24	O	1.399044	0.905484	0.190654
O25	O	1.018361	0.523912	-0.519041
O26	O	1.518361	1.023912	-0.019041
O27	O	0.899028	0.523935	-0.399728
O28	O	1.399028	1.023935	0.100272
O29	O	1.108795	0.405444	-0.519061
O30	O	1.608795	0.905444	-0.019061
O31	O	1.108658	0.680373	-0.309327
O32	O	1.608658	1.180373	0.190673
O33	O	1.018283	0.680328	-0.399718
O34	O	1.518283	1.180328	0.100282
C35	C	0.872333	0.464706	-0.354536
C36	C	1.372333	0.964706	0.145464
C37	C	0.790535	0.464716	-0.354549
C38	C	1.290535	0.964716	0.145451
C39	C	1.063480	0.715350	-0.354535
C40	C	1.563480	1.215350	0.145465
C41	C	1.063521	0.822564	-0.354554
C42	C	1.563521	1.322564	0.145446
C43	C	0.525488	0.526514	-0.401545
C44	C	1.025488	1.026514	0.098455
C45	C	0.602346	0.526506	-0.401541
C46	C	1.102346	1.026506	0.098459
C47	C	0.602333	0.402978	-0.307563
C48	C	1.102333	0.902978	0.192437
C49	C	0.525476	0.402992	-0.307563
C50	C	1.025476	0.902992	0.192437
C51	C	0.487055	0.464758	-0.354558
C52	C	0.987055	0.964758	0.145442
C53	C	0.640771	0.464736	-0.354554
C54	C	1.140771	0.964736	0.145446
C55	C	0.724105	0.464727	-0.354550
C56	C	1.224105	0.964727	0.145450
C57	C	0.403716	0.464769	-0.354562
C58	C	0.903716	0.964769	0.145438
C59	C	1.063594	1.018859	-0.354607
C60	C	1.563594	1.518859	0.145393
C61	C	1.063551	0.909626	-0.354580
C62	C	1.563551	1.409626	0.145420
C63	C	1.255493	0.464766	-0.354559
C64	C	1.755493	0.964766	0.145441
C65	C	1.337291	0.464779	-0.354564
C66	C	1.837291	0.964779	0.145436
C67	C	1.063614	1.213142	-0.354585
C68	C	1.563614	1.713142	0.145415
C69	C	1.063629	1.105928	-0.354623
C70	C	1.563629	1.605928	0.145377
C71	C	1.063585	0.464669	-0.546500
C72	C	1.563585	0.964669	-0.046500
C73	C	1.063604	0.464640	-0.628299
C74	C	1.563604	0.964640	-0.128299
C75	C	1.110709	0.402897	-0.816504
C76	C	1.610709	0.902897	-0.316504
C77	C	1.110718	0.402868	-0.893363
C78	C	1.610718	0.902868	-0.393363
C79	C	1.016550	0.526235	-0.893332
C80	C	1.516550	1.026235	-0.393332
C81	C	1.016538	0.526258	-0.816475
C82	C	1.516538	1.026258	-0.316475
C83	C	1.063622	0.464590	-0.778063
C84	C	1.563622	0.964590	-0.278063
C85	C	1.063643	0.464539	-0.931779
C86	C	1.563643	0.964539	-0.431779
C87	C	1.063652	0.464509	-1.015113
C88	C	1.563652	0.964509	-0.515113
C89	C	1.063612	0.464618	-0.694724
C90	C	1.563612	0.964618	-0.194724
C91	C	1.063537	0.464732	-0.163341
C92	C	1.563537	0.964732	0.336659
C93	C	1.063661	0.464489	-0.081543
C94	C	1.563661	0.964489	0.418457
H95	H	0.494208	0.576809	-0.439811
H96	H	0.994208	1.076809	0.060189
H97	H	1.149060	0.352630	-0.924659
H98	H	1.649060	0.852630	-0.424659
H99	H	0.633635	0.576794	-0.439802
H100	H	1.133635	1.076794	0.060198
H101	H	0.978188	0.576495	-0.785175
H102	H	1.478188	1.076495	-0.285175
Br103	Br	0.654480	0.319153	-0.243789
Br104	Br	1.154480	0.819153	0.256211
Br105	Br	0.473312	0.319181	-0.243786
Br106	Br	0.973312	0.819181	0.256214
Br107	Br	0.952656	0.609927	-0.945467
Br108	Br	1.452656	1.109927	-0.445467
Br109	Br	1.174607	0.319203	-0.764376
Br110	Br	1.674607	0.819203	-0.264376
