data_functionalizedCrystal
_audit_creation_method	'MofGen! by Chris Wilmer'
_symmetry_space_group_name_H-M	'P1'
_symmetry_Int_Tables_number	1
_symmetry_cell_setting	triclinic
loop_
_symmetry_equiv_pos_as_xyz
  x,y,z
_cell_length_a	19.805407
_cell_length_b	19.805405
_cell_length_c	19.805398
_cell_angle_alpha	89.970920
_cell_angle_beta	90.011351
_cell_angle_gamma	89.969510
loop_
_atom_site_label
_atom_site_type_symbol
_atom_site_fract_x
_atom_site_fract_y
_atom_site_fract_z
Zn1	Zn	1.034661	0.269521	0.382685
Zn2	Zn	1.034575	0.382711	0.269496
Zn3	Zn	0.921488	0.269536	0.269514
Zn4	Zn	0.921426	0.382668	0.382646
O5	O	0.978037	0.326109	0.326085
O6	O	1.129366	0.284547	0.367680
O7	O	1.019564	0.367723	0.174782
O8	O	0.936563	0.174817	0.284550
O9	O	1.129303	0.367708	0.284520
O10	O	1.019710	0.174806	0.367696
O11	O	0.936480	0.284573	0.174795
O12	O	0.826763	0.284531	0.284512
O13	O	0.936456	0.367634	0.477368
O14	O	0.826717	0.367649	0.367630
O15	O	1.019650	0.284505	0.477397
O16	O	1.019503	0.477422	0.284482
O17	O	0.936373	0.477390	0.367613
C18	C	0.802181	0.326088	0.326069
C19	C	0.726949	0.326095	0.326078
C20	C	0.691639	0.282870	0.369445
C21	C	0.620950	0.282873	0.369448
C22	C	0.585574	0.326106	0.326086
C23	C	0.620889	0.369333	0.282714
C24	C	0.691577	0.369325	0.282709
C25	C	0.335816	0.369363	0.282735
C26	C	0.265124	0.369369	0.282745
C27	C	0.265190	0.282911	0.369474
C28	C	0.335877	0.282904	0.369468
C29	C	0.371186	0.326128	0.326094
C30	C	0.447835	0.326123	0.326091
C31	C	0.508927	0.326115	0.326092
C32	C	0.977940	0.501965	0.326056
C33	C	0.977961	0.577197	0.326067
C34	C	1.021226	0.612477	0.369394
C35	C	1.021243	0.683165	0.369405
C36	C	0.977997	0.718572	0.326084
C37	C	0.934727	0.683287	0.282755
C38	C	0.934707	0.612600	0.282748
C39	C	0.934803	0.968361	0.282782
C40	C	0.934827	1.039053	0.282791
C41	C	1.021339	1.038926	0.369440
C42	C	1.021319	0.968239	0.369433
C43	C	0.978047	0.932960	0.326106
C44	C	0.978029	0.856311	0.326096
C45	C	0.978018	0.795219	0.326091
C46	C	1.154580	0.326131	0.326102
C47	C	1.229812	0.326140	0.326110
C48	C	0.978055	0.326063	0.502628
C49	C	0.978063	0.326043	0.577860
C50	C	0.978125	1.149566	0.326123
C51	C	0.978090	1.074334	0.326123
C52	C	0.978058	0.326106	0.150229
C53	C	0.978182	0.325934	0.074998
C54	C	1.021432	0.369232	1.039642
C55	C	1.021413	0.369250	0.968954
C56	C	0.978147	0.325967	0.933622
C57	C	0.934892	0.282668	0.968982
C58	C	0.934908	0.282654	1.039670
C59	C	0.934827	0.282726	0.683909
C60	C	0.934816	0.282742	0.613217
C61	C	1.021332	0.369322	0.613193
C62	C	1.021348	0.369308	0.683880
C63	C	0.978091	0.326012	0.719235
C64	C	0.978111	0.325993	0.795883
C65	C	0.978130	0.325982	0.856975
H66	H	0.236322	0.404576	0.247433
H67	H	0.364557	0.404560	0.247418
N68	N	1.067964	0.930049	0.416155
H69	H	1.095375	0.963126	0.443607
H70	H	1.040379	0.900725	0.447449
N71	N	1.067995	1.076979	0.416188
H72	H	1.095387	1.043821	0.443630
H73	H	1.099348	1.106305	0.388677
N74	N	0.888180	1.077240	0.236063
H75	H	0.839808	1.064976	0.246534
H76	H	0.894820	1.127361	0.242662
H77	H	0.899690	0.247396	1.068455
H78	H	0.592080	0.404530	0.247405
N79	N	1.068098	0.415922	1.077740
H80	H	1.040576	0.447278	1.107059
H81	H	1.099484	0.388371	1.107038
N82	N	1.068059	0.415950	0.930818
H83	H	1.095473	0.443365	0.963925
H84	H	1.099390	0.388407	0.901495
H85	H	1.056582	0.404551	0.712644
H86	H	0.899512	0.712121	0.247485
N87	N	0.374028	0.236272	0.416238
H88	H	0.403362	0.204869	0.388785
H89	H	0.403313	0.263864	0.447544
H90	H	0.899571	0.939642	0.247503
H91	H	0.899603	0.247472	0.712686
N92	N	0.888041	0.574545	0.236019
H93	H	0.860648	0.607700	0.208575
H94	H	0.915605	0.545211	0.204717
N95	N	1.067988	0.416024	0.575061
H96	H	1.061349	0.409533	0.524919
H97	H	1.057489	0.464356	0.587473
N98	N	0.729665	0.415943	0.235931
H99	H	0.696530	0.443332	0.208463
H100	H	0.758990	0.447299	0.263421
N101	N	0.888152	0.236053	0.575106
H102	H	0.860751	0.208622	0.608229
H103	H	0.856809	0.263606	0.545766
H104	H	0.236432	0.247714	0.404789
N105	N	1.067874	0.574290	0.416116
H106	H	1.095283	0.607369	0.443566
H107	H	1.040292	0.544964	0.447411
H108	H	1.056479	0.711887	0.404682
N109	N	0.888224	0.235982	0.930882
H110	H	0.856833	0.263490	0.901544
H111	H	0.915792	0.204632	0.901604
N112	N	0.729792	0.236244	0.416218
H113	H	0.696694	0.208861	0.443691
H114	H	0.759128	0.204882	0.388722
H115	H	0.592203	0.247676	0.404763
