data_functionalizedCrystal
_audit_creation_method	'MofGen! by Chris Wilmer'
_symmetry_space_group_name_H-M	'P1'
_symmetry_Int_Tables_number	1
_symmetry_cell_setting	triclinic
loop_
_symmetry_equiv_pos_as_xyz
  x,y,z
_cell_length_a	10.654550
_cell_length_b	11.026607
_cell_length_c	9.730223
_cell_angle_alpha	89.999947
_cell_angle_beta	89.996251
_cell_angle_gamma	96.535460
loop_
_atom_site_label
_atom_site_type_symbol
_atom_site_fract_x
_atom_site_fract_y
_atom_site_fract_z
O1	O	1.704901	0.170762	-0.114401
O2	O	1.342954	0.187032	-0.114379
O3	O	1.493930	0.001991	-0.114383
O4	O	1.553926	0.355802	-0.114397
O5	O	1.493929	0.001996	0.114196
O6	O	1.342953	0.187036	0.114201
O7	O	1.704900	0.170767	0.114179
Zn8	Zn	1.523926	0.178902	0.150482
Zn9	Zn	1.523928	0.178896	-0.150682
O10	O	1.553924	0.355807	0.114183
C11	C	1.295897	0.185839	-0.000086
C12	C	1.155677	0.182265	-0.000078
C13	C	1.099841	0.291214	-0.000102
C14	C	0.968090	0.287849	-0.000126
C15	C	0.948022	0.066576	-0.000107
C16	C	1.079771	0.069943	-0.000073
C17	C	1.111426	0.418964	-0.000119
C18	C	0.979675	0.415599	-0.000143
C19	C	1.482861	-0.043310	-0.000094
C20	C	1.449867	-0.178302	-0.000097
C21	C	1.540970	-0.251341	-0.000105
C22	C	1.506871	-0.390862	-0.000108
C23	C	1.751958	0.171959	-0.000117
C24	C	1.892177	0.175533	-0.000135
C25	C	1.564993	0.401109	-0.000109
C26	C	1.597988	0.536100	-0.000115
N27	N	1.523934	0.178906	0.356018
N28	N	1.523928	0.178883	-0.356219
C29	C	1.590814	0.096998	0.427942
C30	C	1.590808	0.096983	0.571825
C31	C	1.457040	0.260795	0.571847
C32	C	1.457040	0.260803	0.427967
C33	C	1.668049	0.002426	0.427931
C34	C	1.668043	0.002411	0.571814
H35	H	1.151603	0.468929	0.095545
H36	H	1.402575	0.327472	0.630443
O37	O	1.801863	0.030013	0.623553
H38	H	1.867382	0.043550	0.534776
H39	H	0.886203	-0.024874	-0.000124
O40	O	1.612826	-0.121359	0.376160
H41	H	1.528031	-0.111266	0.312773
O42	O	1.140001	-0.047564	-0.000023
H43	H	1.065081	-0.126230	-0.000034
O44	O	1.797344	0.041648	0.368800
H45	H	1.792013	0.040048	0.254882
H46	H	1.155912	0.459640	-0.098808
O47	O	1.370106	-0.444841	-0.000093
H48	H	1.322613	-0.414082	-0.093258
H49	H	1.618360	-0.085899	0.616435
O50	O	0.930258	0.466736	0.130565
H51	H	0.971227	0.563271	0.142787
O52	O	0.938217	0.479358	-0.126855
H53	H	1.022406	0.513227	-0.188880
H54	H	1.644212	-0.210581	-0.000103
O55	O	1.734757	-0.409936	-0.000116
H56	H	1.740082	-0.308820	-0.000103
O57	O	1.313105	-0.232274	-0.000080
H58	H	1.307784	-0.333390	-0.000070
H59	H	1.402568	0.327488	0.369407
