data_functionalizedCrystal
_audit_creation_method	'MofGen! by Chris Wilmer'
_symmetry_space_group_name_H-M	'P1'
_symmetry_Int_Tables_number	1
_symmetry_cell_setting	triclinic
loop_
_symmetry_equiv_pos_as_xyz
  x,y,z
_cell_length_a	11.026607
_cell_length_b	10.540539
_cell_length_c	9.482900
_cell_angle_alpha	99.430988
_cell_angle_beta	78.636152
_cell_angle_gamma	96.555754
loop_
_atom_site_label
_atom_site_type_symbol
_atom_site_fract_x
_atom_site_fract_y
_atom_site_fract_z
O1	O	1.633556	0.517017	-0.120883
O2	O	1.279725	0.456370	-0.120886
O3	O	1.464712	0.303756	-0.120883
O4	O	1.448568	0.669632	-0.120886
O5	O	1.427139	0.334914	0.120909
O6	O	1.242151	0.487529	0.120905
O7	O	1.595982	0.548176	0.120909
Cu8	Cu	1.415636	0.520697	0.142985
Cu9	Cu	1.460071	0.483849	-0.142962
O10	O	1.410994	0.700790	0.120905
C11	C	1.215630	0.460761	0.000009
C12	C	1.080627	0.427408	0.000008
C13	C	1.007620	0.519500	0.000006
C14	C	0.868087	0.485031	0.000004
C15	C	1.444715	0.271766	0.000011
C16	C	1.441094	0.130024	0.000003
C17	C	1.302374	-0.083877	-0.000541
C18	C	1.305961	0.063616	0.000003
C19	C	1.484669	0.100404	0.138078
C20	C	1.480039	-0.047136	0.138195
C21	C	1.525516	-0.082485	-0.136768
C22	C	1.527044	0.064534	-0.138593
C23	C	1.660077	0.543785	0.000010
C24	C	1.795082	0.577136	0.000002
C25	C	1.430992	0.732779	0.000009
C26	C	1.434615	0.874520	0.000007
N27	N	1.384391	0.546616	0.344104
N28	N	1.491325	0.457922	-0.344082
C29	C	1.450847	0.491485	0.416305
C30	C	1.424860	0.513061	0.583722
H31	H	1.270172	0.082256	-0.098975
C32	C	1.402063	0.162462	0.276893
N33	N	1.339837	0.209199	0.381444
C34	C	0.850180	0.718136	-0.000000
N35	N	0.891683	0.824335	-0.000005
C36	C	1.617646	0.160888	0.145039
N37	N	1.717801	0.206457	0.150285
C38	C	1.488397	-0.156267	-0.278150
N39	N	1.460424	-0.211840	-0.384631
H40	H	1.567460	0.394739	0.593795
C41	C	1.025520	0.286416	0.000009
N42	N	0.984016	0.180217	0.000008
C43	C	1.251033	-0.155562	-0.134298
N44	N	1.212361	-0.209569	-0.235044
C45	C	1.321994	0.598407	0.667644
N46	N	1.244517	0.662687	0.730857
C47	C	1.553682	0.406112	0.332377
N48	N	1.631134	0.341800	0.269164
C49	C	1.281530	0.631957	0.428032
N50	N	1.204053	0.696238	0.491245
H51	H	1.048415	0.623863	0.000013
C52	C	0.812986	0.344031	0.000006
N53	N	0.771481	0.237833	0.000004
H54	H	1.233910	-0.113041	0.097919
C55	C	1.484268	0.087955	-0.276592
N56	N	1.452036	0.105589	-0.380530
H57	H	1.239026	0.106861	0.099145
H58	H	1.415939	-0.072562	0.241408
H59	H	1.576251	-0.073010	0.144459
C60	C	1.661899	0.124949	-0.149852
N61	N	1.763475	0.170452	-0.158319
C62	C	1.657570	-0.117573	-0.138028
N63	N	1.757026	-0.144009	-0.138968
