data_functionalizedCrystal
_audit_creation_method	'MofGen! by Chris Wilmer'
_symmetry_space_group_name_H-M	'P1'
_symmetry_Int_Tables_number	1
_symmetry_cell_setting	triclinic
loop_
_symmetry_equiv_pos_as_xyz
  x,y,z
_cell_length_a	14.519731
_cell_length_b	14.519709
_cell_length_c	7.540329
_cell_angle_alpha	89.995860
_cell_angle_beta	89.998301
_cell_angle_gamma	83.684499
loop_
_atom_site_label
_atom_site_type_symbol
_atom_site_fract_x
_atom_site_fract_y
_atom_site_fract_z
O1	O	1.223852	0.120983	-0.147490
O2	O	1.473852	0.370983	0.102510
O3	O	1.723852	0.620983	0.352510
O4	O	1.973852	0.870983	0.602510
O5	O	0.955377	0.135199	-0.147493
O6	O	1.205377	0.385199	0.102507
O7	O	1.455377	0.635199	0.352507
O8	O	1.705377	0.885199	0.602507
O9	O	1.096733	-0.006147	-0.147476
O10	O	1.346733	0.243853	0.102524
O11	O	1.596733	0.493853	0.352524
O12	O	1.846733	0.743853	0.602524
O13	O	1.082496	0.262329	-0.147508
O14	O	1.332496	0.512329	0.102492
O15	O	1.582496	0.762329	0.352492
O16	O	1.832496	1.012329	0.602492
O17	O	1.096728	-0.006148	0.147489
O18	O	1.346728	0.243852	0.397489
O19	O	1.596728	0.493852	0.647489
O20	O	1.846728	0.743852	0.897489
O21	O	0.955373	0.135198	0.147472
O22	O	1.205373	0.385198	0.397472
O23	O	1.455373	0.635198	0.647472
O24	O	1.705373	0.885198	0.897472
O25	O	1.223847	0.120982	0.147475
O26	O	1.473847	0.370982	0.397475
O27	O	1.723847	0.620982	0.647475
O28	O	1.973847	0.870982	0.897475
Cu29	Cu	1.089609	0.128090	0.174406
Cu30	Cu	1.339609	0.378090	0.424406
Cu31	Cu	1.589609	0.628090	0.674406
Cu32	Cu	1.839609	0.878090	0.924406
Cu33	Cu	1.089615	0.128091	-0.174424
Cu34	Cu	1.339615	0.378091	0.075576
Cu35	Cu	1.589615	0.628091	0.325576
Cu36	Cu	1.839615	0.878091	0.575576
O37	O	1.082492	0.262328	0.147457
O38	O	1.332492	0.512328	0.397457
O39	O	1.582492	0.762328	0.647457
O40	O	1.832492	1.012328	0.897457
C41	C	0.921016	0.134532	-0.000011
C42	C	1.171016	0.384532	0.249989
C43	C	1.421016	0.634532	0.499989
C44	C	1.671016	0.884532	0.749989
C45	C	0.818635	0.132536	-0.000012
C46	C	1.068635	0.382536	0.249988
C47	C	1.318635	0.632536	0.499988
C48	C	1.568635	0.882536	0.749988
C49	C	0.735491	0.130915	-0.000019
C50	C	0.985491	0.380915	0.249981
C51	C	1.235491	0.630915	0.499981
C52	C	1.485491	0.880915	0.749981
C53	C	0.631182	0.128888	-0.000019
C54	C	0.881182	0.378888	0.249981
C55	C	1.131182	0.628888	0.499981
C56	C	1.381182	0.878888	0.749981
C57	C	0.548043	0.127280	-0.000019
C58	C	0.798043	0.377280	0.249981
C59	C	1.048043	0.627280	0.499981
C60	C	1.298043	0.877280	0.749981
C61	C	0.443728	0.125253	-0.000023
C62	C	0.693728	0.375253	0.249977
C63	C	0.943728	0.625253	0.499977
C64	C	1.193728	0.875253	0.749977
C65	C	1.096067	-0.040507	0.000007
C66	C	1.346067	0.209493	0.250007
C67	C	1.596067	0.459493	0.500007
C68	C	1.846067	0.709493	0.750007
C69	C	1.094079	-0.142889	0.000008
C70	C	1.344079	0.107111	0.250008
C71	C	1.594079	0.357111	0.500008
C72	C	1.844079	0.607111	0.750008
C73	C	1.086759	-0.517785	-0.000038
C74	C	1.336759	-0.267785	0.249962
C75	C	1.586759	-0.017785	0.499962
C76	C	1.836759	0.232215	0.749962
C77	C	1.088792	-0.413477	-0.000025
C78	C	1.338792	-0.163477	0.249975
C79	C	1.588792	0.086523	0.499975
C80	C	1.838792	0.336523	0.749975
C81	C	1.090419	-0.330340	-0.000013
C82	C	1.340419	-0.080340	0.249987
C83	C	1.590419	0.169660	0.499987
C84	C	1.840419	0.419660	0.749987
C85	C	1.092452	-0.226025	-0.000003
C86	C	1.342452	0.023975	0.249997
C87	C	1.592452	0.273975	0.499997
C88	C	1.842452	0.523975	0.749997
C89	C	1.258209	0.121649	-0.000011
C90	C	1.508209	0.371649	0.249989
C91	C	1.758209	0.621649	0.499989
C92	C	2.008209	0.871649	0.749989
C93	C	1.360589	0.123645	-0.000022
C94	C	1.610589	0.373645	0.249978
C95	C	1.860589	0.623645	0.499978
C96	C	2.110589	0.873645	0.749978
C97	C	1.083157	0.296688	-0.000029
C98	C	1.333157	0.546688	0.249971
C99	C	1.583157	0.796688	0.499971
C100	C	1.833157	1.046688	0.749971
C101	C	1.085146	0.399070	-0.000042
C102	C	1.335146	0.649070	0.249958
C103	C	1.585146	0.899070	0.499958
C104	C	1.835146	1.149070	0.749958
N105	N	1.089612	0.128089	0.419754
N106	N	1.339612	0.378089	0.669754
N107	N	1.589612	0.628089	0.919754
N108	N	1.839612	0.878089	1.169754
N109	N	1.089620	0.128085	-0.419773
N110	N	1.339620	0.378085	-0.169773
N111	N	1.589620	0.628085	0.080227
N112	N	1.839620	0.878085	0.330227
