data_functionalizedCrystal
_audit_creation_method	'MofGen! by Chris Wilmer'
_symmetry_space_group_name_H-M	'P1'
_symmetry_Int_Tables_number	1
_symmetry_cell_setting	triclinic
loop_
_symmetry_equiv_pos_as_xyz
  x,y,z
_cell_length_a	12.645330
_cell_length_b	12.759401
_cell_length_c	12.759393
_cell_angle_alpha	90.020938
_cell_angle_beta	89.971026
_cell_angle_gamma	89.980783
loop_
_atom_site_label
_atom_site_type_symbol
_atom_site_fract_x
_atom_site_fract_y
_atom_site_fract_z
Zn1	Zn	-0.421945	-1.606245	-0.594031
Zn2	Zn	-0.599246	-1.606126	-0.418356
Zn3	Zn	-0.422001	-1.430543	-0.418366
Zn4	Zn	-0.599172	-1.430526	-0.593993
O5	O	-0.510591	-1.518360	-0.506187
O6	O	-0.445472	-1.753250	-0.570739
O7	O	-0.575788	-1.582793	-0.271336
O8	O	-0.273647	-1.453907	-0.441689
O9	O	-0.575734	-1.753163	-0.441671
O10	O	-0.273605	-1.582994	-0.570749
O11	O	-0.445568	-1.453793	-0.271344
O12	O	-0.445496	-1.283520	-0.441652
O13	O	-0.575607	-1.453878	-0.741019
O14	O	-0.575662	-1.283507	-0.570684
O15	O	-0.445400	-1.582977	-0.741047
O16	O	-0.747583	-1.582776	-0.441634
O17	O	-0.747529	-1.453763	-0.570674
C18	C	-0.510578	-1.245393	-0.506166
C19	C	-0.510598	-1.128616	-0.506182
C20	C	-0.786021	-1.518283	-0.506172
C21	C	-0.903851	-1.518347	-0.506201
C22	C	-0.510489	-1.518439	-0.780220
C23	C	-0.510446	-1.518472	-0.896997
C24	C	-1.071424	-1.437519	-0.587630
C25	C	-0.948865	-1.437106	-0.587368
C26	C	-0.948453	-1.488371	-0.395479
C27	C	-1.071052	-1.487878	-0.395973
C28	C	-1.070935	-1.629644	-0.534596
C29	C	-0.948328	-1.628962	-0.537017
C30	C	-0.234086	-1.518466	-0.506224
C31	C	-0.116255	-1.518511	-0.506241
C32	C	-0.510605	-1.792393	-0.506208
C33	C	-0.510610	-1.909170	-0.506217
C34	C	-0.578479	-1.073775	-0.573263
C35	C	-0.578483	-0.964051	-0.573284
C36	C	-0.442722	-0.964019	-0.439133
C37	C	-0.442714	-1.073741	-0.439118
C38	C	-0.616521	-0.814153	-0.697146
C39	C	-0.684418	-0.759308	-0.764218
C40	C	-0.787874	-0.794901	-0.780168
C41	C	-0.823454	-0.885336	-0.729031
C42	C	-0.755562	-0.940175	-0.661951
C43	C	-0.652092	-0.904584	-0.646021
C44	C	-0.404686	-1.223641	-0.315255
C45	C	-0.336799	-1.278482	-0.248169
C46	C	-0.233342	-1.242892	-0.232208
C47	C	-0.197766	-1.152453	-0.283327
C48	C	-0.265653	-1.097612	-0.350413
C49	C	-0.369109	-1.133209	-0.366376
C50	C	-0.442636	-1.585699	-0.951875
C51	C	-0.442590	-1.585717	-1.061599
C52	C	-0.578173	-1.451278	-1.061557
C53	C	-0.578213	-1.451255	-0.951835
C54	C	-0.317515	-1.623336	-1.211574
C55	C	-0.249715	-1.690579	-1.266456
C56	C	-0.233459	-1.793093	-1.230864
C57	C	-0.285019	-1.828384	-1.140392
C58	C	-0.352827	-1.761146	-1.085516
C59	C	-0.369063	-1.658618	-1.121106
C60	C	-0.703289	-1.413648	-0.801858
C61	C	-0.771104	-1.346414	-0.746980
C62	C	-0.787370	-1.243899	-0.782570
C63	C	-0.735829	-1.208612	-0.873045
C64	C	-0.668014	-1.275845	-0.927924
C65	C	-0.651746	-1.378359	-0.892326
C66	C	-0.510616	-1.518342	-0.233219
C67	C	-0.510360	-1.518512	-0.116443
H68	H	-0.918705	-1.455861	-0.669468
H69	H	-0.271785	-1.911865	-1.111426
Br70	Br	-0.803838	-1.062898	-0.592550
H71	H	-1.101772	-1.656988	-0.613962
H72	H	-0.919298	-1.545491	-0.333180
Br73	Br	-0.350665	-1.676919	-0.877455
H74	H	-0.907702	-0.914302	-0.742015
H75	H	-1.102329	-1.355645	-0.569085
H76	H	-0.532276	-0.785172	-0.684175
H77	H	-1.099926	-1.689984	-0.475316
H78	H	-0.633349	-1.396554	-1.106220
H79	H	-0.749078	-1.125136	-0.902026
Br80	Br	-0.422803	-1.809030	-0.962742
H81	H	-0.843156	-0.750239	-0.834781
H82	H	-1.100830	-1.456102	-0.669999
Br83	Br	-0.636133	-0.636581	-0.833618
Br84	Br	-0.598063	-1.227956	-1.050714
Br85	Br	-0.897448	-1.354376	-0.354714
Br86	Br	-0.350599	-0.889539	-0.348123
Br87	Br	-0.057360	-1.104136	-0.261655
Br88	Br	-0.900134	-1.299783	-0.556067
Br89	Br	-0.681176	-1.552767	-0.753524
H90	H	-0.365774	-1.352122	-0.206545
H91	H	-0.842600	-1.189162	-0.737883
H92	H	-0.633752	-1.118451	-0.627873
H93	H	-1.099747	-1.406639	-0.371952
Br94	Br	-0.217375	-0.974864	-0.419781
Br95	Br	-1.120494	-1.581919	-0.291448
H96	H	-0.919171	-1.651567	-0.618502
Br97	Br	-0.141216	-1.317308	-0.141143
H98	H	-0.488927	-1.252634	-0.328255
Br99	Br	-0.141448	-1.884352	-1.305352
Br100	Br	-0.897237	-1.734842	-0.445417
H101	H	-0.207734	-1.661836	-1.340119
Br102	Br	-0.339555	-1.484197	-1.259872
Br103	Br	-0.841069	-1.394310	-0.624200
