data_functionalizedCrystal
_audit_creation_method	'MofGen! by Chris Wilmer'
_symmetry_space_group_name_H-M	'P1'
_symmetry_Int_Tables_number	1
_symmetry_cell_setting	triclinic
loop_
_symmetry_equiv_pos_as_xyz
  x,y,z
_cell_length_a	11.792241
_cell_length_b	8.559649
_cell_length_c	7.681481
_cell_angle_alpha	94.930900
_cell_angle_beta	84.232897
_cell_angle_gamma	76.986040
loop_
_atom_site_label
_atom_site_type_symbol
_atom_site_fract_x
_atom_site_fract_y
_atom_site_fract_z
O1	O	-1.474850	-0.233845	-0.146253
O2	O	-1.142441	-0.256403	-0.146293
O3	O	-1.337931	-0.012775	-0.146267
O4	O	-1.279360	-0.477473	-0.146278
O5	O	-1.361999	0.017279	0.146594
O6	O	-1.166509	-0.226348	0.146568
O7	O	-1.498918	-0.203790	0.146608
Zn8	Zn	-1.336535	-0.210298	0.193086
Zn9	Zn	-1.304825	-0.249896	-0.192771
O10	O	-1.303428	-0.447418	0.146583
C11	C	-1.354404	0.061743	0.000160
C12	C	-1.367615	0.239008	0.000152
C13	C	-1.112313	-0.239960	0.000132
C14	C	-0.986687	-0.235721	0.000117
C15	C	-1.529045	-0.220234	0.000179
C16	C	-1.654671	-0.224474	0.000183
C17	C	-0.756692	-0.227918	0.000168
C18	C	-0.884679	-0.232253	0.000140
C19	C	-1.286955	-0.521937	0.000151
C20	C	-1.273743	-0.699203	0.000148
N21	N	-1.358184	-0.183272	0.456423
N22	N	-1.283185	-0.276909	-0.456108
H23	H	-1.458099	0.321733	0.000177
O24	O	-1.165720	0.202366	0.000202
C25	C	-1.081091	0.295395	0.000151
H26	H	-1.125165	0.425163	0.055613
H27	H	-1.038570	0.293063	-0.140353
C28	C	-0.932413	0.065488	0.046858
C29	C	-0.986545	0.224868	0.114991
H30	H	-0.874089	0.021982	0.117689
H31	H	-0.989428	0.002810	0.046886
H32	H	-0.896989	0.063566	-0.070227
H33	H	-1.021980	0.226786	0.232066
H34	H	-0.929533	0.287545	0.114986
O35	O	-1.449619	-0.069210	0.545868
C36	C	-1.516086	0.013837	0.425154
H37	H	-1.501000	-0.065006	0.293688
H38	H	-1.487875	0.130714	0.405618
C39	C	-1.665709	0.150014	0.658740
C40	C	-1.647187	0.053172	0.497275
H41	H	-1.746578	0.174285	0.703228
H42	H	-1.620927	0.094069	0.740069
H43	H	-1.642192	0.247400	0.642438
H44	H	-1.670690	-0.044219	0.513583
H45	H	-1.691976	0.109102	0.415950
O46	O	-1.191712	-0.390841	0.454375
C47	C	-1.085323	-0.359451	0.499276
H48	H	-1.101692	-0.284288	0.633180
H49	H	-1.048633	-0.290277	0.395559
C50	C	-0.976456	-0.612454	0.343082
C51	C	-0.996559	-0.520149	0.507552
H52	H	-0.921699	-0.711578	0.348180
H53	H	-1.048131	-0.633600	0.312825
H54	H	-0.945886	-0.554791	0.256669
H55	H	-1.027141	-0.577803	0.593957
H56	H	-0.924886	-0.499016	0.537824
