data_functionalizedCrystal
_audit_creation_method	'MofGen! by Chris Wilmer'
_symmetry_space_group_name_H-M	'P1'
_symmetry_Int_Tables_number	1
_symmetry_cell_setting	triclinic
loop_
_symmetry_equiv_pos_as_xyz
  x,y,z
_cell_length_a	11.792241
_cell_length_b	13.339070
_cell_length_c	11.804365
_cell_angle_alpha	105.112168
_cell_angle_beta	78.073685
_cell_angle_gamma	99.911355
loop_
_atom_site_label
_atom_site_type_symbol
_atom_site_fract_x
_atom_site_fract_y
_atom_site_fract_z
O1	O	1.566196	0.118585	-0.098903
O2	O	1.240268	0.132895	-0.098930
O3	O	1.365825	-0.021729	-0.098916
O4	O	1.440639	0.273209	-0.098917
O5	O	1.332758	0.018936	0.099136
O6	O	1.207201	0.173560	0.099122
O7	O	1.533128	0.159251	0.099149
Cu8	Cu	1.367145	0.170118	0.117220
Cu9	Cu	1.406251	0.122027	-0.117000
O10	O	1.407571	0.313874	0.099136
C11	C	1.336655	-0.039155	0.000108
C12	C	1.298987	-0.151665	0.000100
C13	C	1.181167	0.152327	0.000093
C14	C	1.054326	0.149634	0.000082
C15	C	1.591877	-0.514847	0.000125
C16	C	1.627270	-0.409137	0.000139
C17	C	1.545202	-0.344764	0.000128
C18	C	1.427736	-0.386111	0.000105
C19	C	1.392337	-0.491829	0.000100
C20	C	1.345663	-0.321746	0.000104
C21	C	1.228196	-0.363093	0.000081
C22	C	1.192804	-0.468801	0.000075
C23	C	1.274871	-0.533174	0.000085
C24	C	1.381061	-0.216028	0.000109
C25	C	1.181521	-0.193010	0.000085
C26	C	1.146128	-0.298720	0.000070
C27	C	0.822084	0.144692	0.000116
C28	C	0.951319	0.147438	0.000098
C29	C	1.592230	0.139817	0.000124
C30	C	1.719072	0.142509	0.000127
C31	C	1.436742	0.331300	0.000109
C32	C	1.474411	0.443808	0.000110
N33	N	1.339648	0.203942	0.281957
N34	N	1.433755	0.088195	-0.281738
C35	C	1.499779	0.006951	0.655924
C36	C	1.520578	-0.018641	0.531264
C37	C	1.475347	0.037002	0.468931
C38	C	1.409314	0.118243	0.531270
C39	C	1.388521	0.143843	0.655942
C40	C	1.364089	0.173894	0.468949
C41	C	1.298056	0.255135	0.531288
C42	C	1.277266	0.280730	0.655948
C43	C	1.322497	0.225087	0.718280
C44	C	1.384882	0.148294	0.344278
C45	C	1.273624	0.285186	0.344296
C46	C	1.252825	0.310778	0.468955
H47	H	1.476703	-0.182374	0.000129
H48	H	1.658682	-0.567265	0.000143
C49	C	1.180204	0.400145	0.537536
H50	H	1.174309	0.407422	0.620707
H51	H	1.104256	0.384494	0.517118
H52	H	1.217262	0.463662	0.517105
C53	C	1.223873	0.346402	0.275743
H54	H	1.245706	0.319516	0.192570
H55	H	1.254111	0.418303	0.296171
H56	H	1.141106	0.339135	0.296179
H57	H	1.097153	-0.502460	0.000065
H58	H	1.574027	-0.258691	0.000140
C59	C	1.756469	-0.363655	0.000169
H60	H	1.765794	-0.291475	0.000185
H61	H	1.803205	-0.399884	-0.068888
H62	H	1.780114	-0.371532	0.069251
C63	C	1.235940	-0.649455	0.000077
H64	H	1.301642	-0.681866	0.000089
H65	H	1.202616	-0.683298	-0.068991
H66	H	1.179557	-0.654937	0.069148
H67	H	1.492284	0.016161	0.367428
H68	H	1.050484	-0.332400	0.000052
C69	C	1.457518	0.058943	0.275714
H70	H	1.463438	0.051671	0.192541
H71	H	1.420481	-0.004573	0.296145
H72	H	1.533467	0.074620	0.296144
H73	H	1.114694	-0.140596	0.000082
H74	H	1.574342	-0.084785	0.480513
C75	C	1.549525	-0.054250	0.724484
H76	H	1.591831	-0.106300	0.669507
H77	H	1.487228	-0.086690	0.773125
H78	H	1.600231	-0.007518	0.773106
H79	H	1.305559	0.245921	0.819788
C80	C	1.204643	0.370097	0.724523
H81	H	1.198747	0.377379	0.807695
H82	H	1.128696	0.354443	0.704104
H83	H	1.241701	0.433613	0.704088
