data_functionalizedCrystal
_audit_creation_method	'MofGen! by Chris Wilmer'
_symmetry_space_group_name_H-M	'P1'
_symmetry_Int_Tables_number	1
_symmetry_cell_setting	triclinic
loop_
_symmetry_equiv_pos_as_xyz
  x,y,z
_cell_length_a	31.640172
_cell_length_b	16.704486
_cell_length_c	16.704493
_cell_angle_alpha	60.347015
_cell_angle_beta	94.167279
_cell_angle_gamma	57.656541
loop_
_atom_site_label
_atom_site_type_symbol
_atom_site_fract_x
_atom_site_fract_y
_atom_site_fract_z
Zr1	Zr	0.364189	0.947457	-0.174219
O2	O	0.284359	1.128078	-0.315553
O3	O	0.393811	0.766851	-0.121774
O4	O	0.379966	0.947455	-0.302379
O5	O	0.303268	0.947471	-0.002856
O6	O	0.449524	0.947437	-0.302360
O7	O	0.298204	0.947474	-0.134948
O8	O	0.474291	0.624369	0.020710
O9	O	0.278501	1.270539	-0.325926
O10	O	0.452134	0.841118	-0.110410
O11	O	0.404002	0.841129	-0.011845
O12	O	0.387701	1.053768	-0.224484
O13	O	0.339569	1.053779	-0.125920
Zr14	Zr	0.483203	0.947424	0.036482
Zr15	Zr	0.475127	0.947429	-0.174189
Zr16	Zr	0.372265	0.947452	0.036452
Zr17	Zr	0.354847	1.174666	-0.190763
Zr18	Zr	0.492546	0.720215	0.053025
O19	O	0.453581	1.128031	-0.015963
O20	O	0.442098	1.128038	-0.315510
O21	O	0.295842	1.128071	-0.016006
O22	O	0.563034	0.766803	0.177816
O23	O	0.551550	0.766810	-0.121731
O24	O	0.405295	0.766843	0.177773
O25	O	0.544124	0.947410	-0.134881
O26	O	0.467427	0.947426	0.164642
O27	O	0.397868	0.947444	0.164623
O28	O	0.549188	0.947407	-0.002789
O29	O	0.366682	1.270517	-0.325902
O30	O	0.480711	0.624365	0.188164
O31	O	0.568891	0.624342	0.188188
O32	O	0.562472	0.624346	0.020733
O33	O	0.284921	1.270535	-0.158471
O34	O	0.373101	1.270513	-0.158447
O35	O	0.459692	0.841113	0.086747
O36	O	0.507823	0.841102	-0.011817
O37	O	0.443390	1.053752	-0.125892
O38	O	0.395259	1.053763	-0.027328
C39	C	0.435382	0.663237	-0.048175
C40	C	0.439349	0.566781	-0.041152
C41	C	0.358121	0.542540	-0.184977
C42	C	0.361845	0.451916	-0.178384
C43	C	0.450522	0.294908	-0.021377
C44	C	0.446798	0.385532	-0.027970
C45	C	0.400596	0.509348	-0.109772
C46	C	0.396870	0.599973	-0.116361
C47	C	0.485549	0.442965	0.040642
C48	C	0.489273	0.352341	0.047235
C49	C	0.284930	0.947476	-0.068906
C50	C	0.237834	0.947489	-0.068919
C51	C	-0.020533	0.836428	-0.009302
C52	C	-0.197517	0.836407	-0.009281
O53	O	-0.191797	0.742004	0.041397
N54	N	-0.253280	0.947407	-0.068828
C55	C	-0.264797	1.058420	-0.128380
O56	O	-0.316287	1.152832	-0.179019
C57	C	-0.087814	1.058440	-0.128394
C58	C	-0.032051	0.947433	-0.068851
C59	C	0.035227	0.725430	0.050237
C60	C	0.079469	0.725436	0.050227
C61	C	0.067952	0.836441	-0.009322
C62	C	0.012192	0.947439	-0.068861
C63	C	-0.099330	1.169452	-0.187939
C64	C	-0.055079	1.169447	-0.187935
C65	C	0.000684	1.058440	-0.128392
C66	C	0.044917	1.058450	-0.128421
N67	N	0.100680	0.947450	-0.068874
C68	C	0.112198	0.836446	-0.009324
C69	C	-0.357713	1.058402	-0.128369
C70	C	-0.401959	1.058397	-0.128367
C71	C	-0.334676	0.836383	-0.009267
C72	C	-0.290430	0.836389	-0.009275
C73	C	-0.301950	0.947402	-0.068822
C74	C	0.205108	0.836468	-0.009351
C75	C	0.249352	0.836484	-0.009370
C76	C	0.182065	1.058497	-0.128466
C77	C	0.137825	1.058481	-0.128451
C78	C	0.149351	0.947457	-0.068886
O79	O	0.039240	1.152804	-0.179063
O80	O	0.163692	0.742048	0.041326
C81	C	-0.064776	0.836422	-0.009292
C82	C	-0.120536	0.947420	-0.068831
C83	C	-0.132054	1.058425	-0.128380
C84	C	-0.164782	0.947415	-0.068829
C85	C	-0.153265	0.836411	-0.009280
C86	C	-0.097502	0.725411	0.050268
C87	C	-0.053259	0.725417	0.050257
C88	C	-0.187817	1.169425	-0.187927
C89	C	-0.232057	1.169409	-0.187913
C90	C	-0.220539	1.058405	-0.128364
C91	C	0.562462	0.947405	-0.068831
C92	C	0.609558	0.947393	-0.068818
C93	C	0.413594	0.947447	-0.332385
C94	C	0.410166	0.947449	-0.421821
C95	C	0.412010	1.231644	-0.089562
C96	C	0.408044	1.328100	-0.096585
C97	C	0.480380	0.947411	-0.589847
C98	C	0.477161	0.947413	-0.673879
C99	C	0.400511	0.947446	-0.673914
C100	C	0.403730	0.947444	-0.589882
C101	C	0.443665	0.947428	-0.547852
C102	C	0.446882	0.947435	-0.463823
C103	C	0.370235	0.947460	-0.463855
C104	C	0.367016	0.947462	-0.547887
C105	C	0.433798	0.947434	0.194648
C106	C	0.437227	0.947432	0.284083
C107	C	0.574149	0.663201	-0.048137
C108	C	0.625211	0.566733	-0.041101
C109	C	0.445484	0.663231	0.215342
C110	C	0.452879	0.566773	0.311800
C111	C	0.584251	0.663195	0.215379
C112	C	0.638741	0.566725	0.311851
C113	C	0.263142	1.231686	-0.353117
C114	C	0.208651	1.328156	-0.449588
C115	C	0.273244	1.231680	-0.089600
C116	C	0.222182	1.328148	-0.096636
C117	C	0.401908	1.231650	-0.353079
C118	C	0.394513	1.328108	-0.449537
C119	C	0.620120	0.521439	-0.089270
C120	C	0.668093	0.430809	-0.082680
C121	C	0.721156	0.385470	-0.027914
C122	C	0.726245	0.430773	0.020256
C123	C	0.678273	0.521407	0.013659
C124	C	0.485422	0.521467	0.408571
C125	C	0.492368	0.430847	0.499211
C126	C	0.466774	0.385528	0.493078
C127	C	0.434227	0.430843	0.396297
C128	C	0.427279	0.521468	0.305659
C129	C	0.689460	0.521416	0.305705
C130	C	0.740663	0.430784	0.396341
C131	C	0.741147	0.385457	0.493122
C132	C	0.690423	0.430775	0.499265
C133	C	0.639221	0.521411	0.408630
C134	C	0.157933	1.373477	-0.443443
C135	C	0.106728	1.464136	-0.534081
C136	C	0.106244	1.509468	-0.630862
C137	C	0.156968	1.464144	-0.637005
C138	C	0.208171	1.373492	-0.546368
C139	C	0.227272	1.373452	-0.048477
C140	C	0.179297	1.464106	-0.055092
C141	C	0.126233	1.509449	-0.109861
C142	C	0.121145	1.464142	-0.158027
C143	C	0.169118	1.373495	-0.151417
C144	C	0.420115	1.373398	-0.443371
C145	C	0.413178	1.464019	-0.533995
C146	C	0.380635	1.509354	-0.630785
C147	C	0.355034	1.464055	-0.636948
C148	C	0.361974	1.373430	-0.546325
H149	H	0.526891	0.251521	0.113833
H150	H	0.158316	1.336573	-0.364647
O151	O	0.057513	1.507972	-0.527912
C152	C	0.068926	1.448525	-0.423053
H153	H	0.113910	1.356656	-0.371560
H154	H	0.038284	1.432904	-0.410205
H155	H	0.063811	1.507942	-0.402603
H156	H	0.520133	0.415943	0.101883
O157	O	0.216233	0.728698	0.048357
C158	C	0.190013	0.722033	-0.017216
H159	H	0.153286	0.818410	-0.091963
H160	H	0.173742	0.675029	0.023550
H161	H	0.221805	0.667271	-0.036258
H162	H	0.446613	1.336500	-0.364569
H163	H	0.597926	0.558291	0.413648
O164	O	0.257389	1.329558	-0.552527
C165	C	0.245974	1.389035	-0.657389
H166	H	0.203226	1.426404	-0.704919
H167	H	0.280046	1.321052	-0.664163
H168	H	0.245418	1.467742	-0.687877
H169	H	0.294757	0.746084	0.039120
O170	O	0.352056	0.720285	-0.195849
C171	C	0.371124	0.777383	-0.253252
H172	H	0.417020	0.722799	-0.202372
H173	H	0.344369	0.874339	-0.280125
H174	H	0.367400	0.781184	-0.323674
H175	H	0.689076	0.558307	0.226910
O176	O	0.361798	0.947289	-0.714749
C177	C	0.389606	0.841804	-0.706749
H178	H	0.433052	0.806633	-0.700448
H179	H	0.363944	0.865521	-0.778573
H180	H	0.394306	0.767964	-0.634758
O181	O	0.323495	1.508088	-0.731026
C182	C	0.357216	1.485913	-0.781079
H183	H	0.394584	1.474586	-0.748134
H184	H	0.331154	1.566439	-0.867812
H185	H	0.373179	1.398785	-0.767767
H186	H	0.781959	0.393895	0.391321
H187	H	0.479398	0.947427	-0.429606
H188	H	0.124871	0.635043	0.098709
H189	H	-0.197203	1.259820	-0.236422
O190	O	0.473607	0.297452	0.581234
C191	C	0.507809	0.267211	0.667955
H192	H	0.534690	0.292187	0.646837
H193	H	0.536359	0.164772	0.734774
H194	H	0.480036	0.320216	0.692380
H195	H	0.064547	1.583282	-0.704656
O196	O	0.777818	0.386520	0.073602
C197	C	0.813019	0.259512	0.155042
H198	H	0.786050	0.234738	0.175956
H199	H	0.841206	0.233408	0.225677
H200	H	0.840265	0.207688	0.129349
O201	O	-0.066237	1.277257	-0.245624
C202	C	-0.039990	1.283889	-0.180055
H203	H	-0.032375	1.220887	-0.097933
H204	H	-0.068351	1.382064	-0.209510
H205	H	0.001978	1.254079	-0.179700
H206	H	0.690825	0.393857	0.578076
H207	H	0.270475	1.336540	-0.003871
O208	O	0.495340	0.174615	0.058155
C209	C	0.476270	0.117500	0.115520
H210	H	0.433303	0.189361	0.103158
H211	H	0.507515	0.047028	0.201433
H212	H	0.472572	0.069924	0.088359
H213	H	0.512893	0.947410	-0.555633
O214	O	0.437974	1.508136	-0.527953
C215	C	0.417881	1.560538	-0.479919
H216	H	0.375187	1.587763	-0.488944
H217	H	0.413251	1.645165	-0.517989
H218	H	0.448956	1.491063	-0.393985
O219	O	0.069599	1.508297	-0.211383
C220	C	0.057911	1.560703	-0.315648
H221	H	0.084111	1.587903	-0.335860
H222	H	0.011253	1.645347	-0.368355
H223	H	0.068916	1.491241	-0.327042
H224	H	0.400781	0.558344	0.226868
O225	O	0.328282	0.947258	-0.588566
C226	C	0.337697	0.841821	-0.511460
H227	H	0.383339	0.768099	-0.448802
H228	H	0.328924	0.806426	-0.547738
H229	H	0.308443	0.865679	-0.475489
O230	O	0.156394	1.508275	-0.731102
C231	C	0.100322	1.598018	-0.809772
H232	H	0.072865	1.583135	-0.775925
H233	H	0.098614	1.590672	-0.874042
H234	H	0.084144	1.692815	-0.842964
H235	H	0.183451	1.500980	-0.015865
O236	O	0.046399	0.617621	0.108212
C237	C	0.025466	0.610960	0.180913
H238	H	0.021558	0.673956	0.195449
H239	H	0.055616	0.512778	0.256784
H240	H	-0.017699	0.640757	0.149295
H241	H	0.782843	0.311655	0.566915
H242	H	0.327259	0.478951	-0.239625
O243	O	0.512851	0.947449	-0.714578
C244	C	0.548798	0.947398	-0.659439
H245	H	0.528176	0.985958	-0.620227
H246	H	0.556763	1.006502	-0.715418
H247	H	0.590522	0.849697	-0.598086
O248	O	0.767701	0.297383	-0.021567
C249	C	0.751820	0.267156	-0.075849
H250	H	0.709798	0.292152	-0.081539
H251	H	0.785349	0.164715	-0.032760
H252	H	0.747474	0.320154	-0.157140
H253	H	0.087175	1.583260	-0.115235
H254	H	0.164967	1.336611	-0.190632
O255	O	0.334546	0.947646	-0.423066
C256	C	0.302150	1.053134	-0.431071
H257	H	0.325258	1.088272	-0.437322
H258	H	0.295373	1.029436	-0.359271
H259	H	0.259626	1.126994	-0.503090
O260	O	0.373792	1.597508	-0.718892
C261	C	0.316052	1.702394	-0.782834
H262	H	0.289914	1.675047	-0.762493
H263	H	0.305995	1.746273	-0.867546
H264	H	0.305558	1.770675	-0.770170
H265	H	0.341123	1.336565	-0.551360
O266	O	-0.236295	0.728449	0.048666
C267	C	-0.235626	0.630481	0.101198
H268	H	-0.276062	0.663031	0.109006
H269	H	-0.197831	0.552842	0.181608
H270	H	-0.232445	0.596350	0.055461
H271	H	0.320494	0.643354	-0.251568
H272	H	-0.325305	0.745999	0.039214
H273	H	-0.447361	1.148791	-0.176866
O274	O	0.568577	0.565362	-0.142312
C275	C	0.544793	0.543246	-0.074657
H276	H	0.579742	0.463799	0.008662
H277	H	0.520456	0.519258	-0.095232
H278	H	0.514950	0.628794	-0.082695
H279	H	-0.367103	1.148807	-0.176866
H280	H	0.092419	1.148873	-0.176949
O281	O	-0.153458	1.277396	-0.245791
C282	C	-0.154122	1.375356	-0.298352
H283	H	-0.111742	1.342787	-0.255622
H284	H	-0.188934	1.452982	-0.301219
H285	H	-0.162227	1.409513	-0.380717
O286	O	0.170818	1.166399	-0.186240
C287	C	0.142214	1.233904	-0.153296
H288	H	0.120533	1.202347	-0.113320
H289	H	0.109334	1.335457	-0.223315
H290	H	0.173643	1.218495	-0.096617
O291	O	0.000875	0.617474	0.108198
C292	C	0.001541	0.519511	0.160732
H293	H	-0.038894	0.552066	0.168543
H294	H	0.039336	0.441870	0.241141
H295	H	0.004718	0.485380	0.114996
H296	H	-0.277461	1.259812	-0.236410
O297	O	0.663046	0.386901	-0.129489
C298	C	0.605922	0.446370	-0.179246
H299	H	0.582346	0.483710	-0.141595
H300	H	0.602652	0.378389	-0.171524
H301	H	0.586577	0.525096	-0.264852
O302	O	-0.086340	0.617611	0.108242
C303	C	-0.107283	0.610997	0.180924
H304	H	-0.111179	0.673988	0.195453
H305	H	-0.077148	0.512821	0.256803
H306	H	-0.150457	0.640830	0.149293
H307	H	0.682426	0.558274	0.052891
H308	H	0.506264	0.558355	0.413584
O309	O	0.524026	0.386927	0.593135
C310	C	0.545118	0.446376	0.579100
H311	H	0.546068	0.483710	0.501391
H312	H	0.589588	0.378382	0.644321
H313	H	0.516755	0.525104	0.580240
H314	H	0.413391	0.393931	0.391319
