data_functionalizedCrystal
_audit_creation_method	'MofGen! by Chris Wilmer'
_symmetry_space_group_name_H-M	'P1'
_symmetry_Int_Tables_number	1
_symmetry_cell_setting	triclinic
loop_
_symmetry_equiv_pos_as_xyz
  x,y,z
_cell_length_a	8.597340
_cell_length_b	17.666332
_cell_length_c	19.188924
_cell_angle_alpha	90.007291
_cell_angle_beta	84.245364
_cell_angle_gamma	82.307139
loop_
_atom_site_label
_atom_site_type_symbol
_atom_site_fract_x
_atom_site_fract_y
_atom_site_fract_z
O1	O	2.081666	-0.072818	0.104204
O2	O	1.624691	-0.043011	0.112198
O3	O	1.866372	-0.058784	0.006653
O4	O	1.839986	-0.057045	0.209749
O5	O	1.866329	-0.184678	0.006649
O6	O	1.624648	-0.168905	0.112195
O7	O	2.081624	-0.198712	0.104200
Cu8	Cu	1.853132	-0.195303	0.108197
Cu9	Cu	1.853182	-0.046419	0.108201
O10	O	1.839943	-0.182939	0.209745
C11	C	1.566206	-0.102145	0.111338
C12	C	1.392002	-0.090783	0.108772
N13	N	1.853108	-0.300021	0.108194
C14	C	1.947978	-0.345809	0.151216
C15	C	1.948003	-0.425058	0.151214
C16	C	1.853129	-0.458515	0.108198
C17	C	1.758254	-0.412718	0.065167
C18	C	1.758244	-0.333471	0.065165
N19	N	1.715689	-0.573990	0.105353
N20	N	1.715703	-0.649271	0.105359
C21	C	1.853158	-0.697281	0.108201
N22	N	1.990600	-0.667165	0.111050
N23	N	1.990584	-0.591876	0.111047
C24	C	1.853131	-0.544444	0.108195
C25	C	1.948063	-0.829000	0.151223
C26	C	1.948091	-0.908251	0.151216
C27	C	1.758328	-0.895908	0.065174
C28	C	1.758314	-0.816659	0.065176
C29	C	1.853179	-0.783210	0.108205
C30	C	2.140109	-0.139576	0.105060
C31	C	2.314313	-0.150934	0.107627
C32	C	1.865498	-0.121676	-0.019367
C33	C	1.862938	-0.121511	-0.096893
N34	N	1.853219	0.058298	0.108199
C35	C	1.861767	-0.052808	-0.133299
C36	C	1.859339	-0.052644	-0.206142
C37	C	1.858115	-0.121189	-0.242577
C38	C	1.859278	-0.189900	-0.206161
C39	C	1.861689	-0.190061	-0.133319
N40	N	1.943616	-0.177841	-0.361541
N41	N	1.941329	-0.177684	-0.430738
C42	C	1.850846	-0.120707	-0.462045
N43	N	1.762757	-0.063884	-0.421542
N44	N	1.765051	-0.064040	-0.352339
C45	C	1.855499	-0.121022	-0.321562
C46	C	1.847040	-0.051822	-0.577436
C47	C	1.844603	-0.051660	-0.650280
C48	C	1.844558	-0.188919	-0.650298
C49	C	1.846979	-0.189078	-0.577455
C50	C	1.848228	-0.120528	-0.541029
C51	C	1.840817	-0.120045	0.235765
C52	C	1.843377	-0.120205	0.313291
H53	H	1.381073	-0.211127	0.108605
H54	H	1.848048	0.003997	-0.547776
H55	H	1.862779	0.003011	-0.103646
H56	H	1.681082	-0.923148	0.030148
H57	H	1.325235	-0.030585	0.107788
H58	H	2.025230	-0.318580	0.186250
H59	H	2.025308	-0.801764	0.186259
H60	H	1.858376	0.003305	-0.235790
H61	H	1.681010	-0.439963	0.030143
H62	H	1.858277	-0.245710	-0.235830
H63	H	2.025257	-0.462345	0.186250
H64	H	1.680987	-0.296190	0.030131
H65	H	1.862637	-0.246009	-0.103676
H66	H	2.025356	-0.945531	0.186248
H67	H	1.843642	0.004289	-0.679920
H68	H	1.681055	-0.779378	0.030146
H69	H	1.843549	-0.244729	-0.679961
H70	H	1.847946	-0.245024	-0.547813
