data_functionalizedCrystal
_audit_creation_method	'MofGen! by Chris Wilmer'
_symmetry_space_group_name_H-M	'P1'
_symmetry_Int_Tables_number	1
_symmetry_cell_setting	triclinic
loop_
_symmetry_equiv_pos_as_xyz
  x,y,z
_cell_length_a	18.215407
_cell_length_b	19.076915
_cell_length_c	18.215399
_cell_angle_alpha	87.671555
_cell_angle_beta	90.019833
_cell_angle_gamma	87.667968
loop_
_atom_site_label
_atom_site_type_symbol
_atom_site_fract_x
_atom_site_fract_y
_atom_site_fract_z
Zn1	Zn	1.113256	0.280216	0.404332
Zn2	Zn	1.613256	0.780216	0.904332
Zn3	Zn	1.108201	0.397924	0.276315
Zn4	Zn	1.608201	0.897924	0.776315
Zn5	Zn	0.990188	0.280239	0.281278
Zn6	Zn	1.490188	0.780239	0.781278
Zn7	Zn	0.985193	0.397885	0.399342
Zn8	Zn	1.485193	0.897885	0.899342
O9	O	1.049209	0.339066	0.340317
O10	O	1.549209	0.839066	0.840317
O11	O	1.215569	0.295837	0.387361
O12	O	1.715569	0.795837	0.887361
O13	O	1.092521	0.382339	0.173988
O14	O	1.592521	0.882339	0.673988
O15	O	1.010719	0.181739	0.301767
O16	O	1.510719	0.681739	0.801767
O17	O	1.211856	0.382316	0.293308
O18	O	1.711856	0.882316	0.793308
O19	O	1.101137	0.181722	0.392174
O20	O	1.601137	0.681722	0.892174
O21	O	1.005817	0.295876	0.177634
O22	O	1.505817	0.795876	0.677634
O23	O	0.886541	0.295838	0.296928
O24	O	1.386541	0.795838	0.796928
O25	O	1.002206	0.382250	0.502989
O26	O	1.502206	0.882250	1.002989
O27	O	0.882871	0.382272	0.383669
O28	O	1.382871	0.882272	0.883669
O29	O	1.096293	0.295799	0.506655
O30	O	1.596293	0.795799	1.006655
O31	O	1.087678	0.496415	0.288470
O32	O	1.587678	0.996415	0.788470
O33	O	0.997304	0.496386	0.378857
O34	O	1.497304	0.996386	0.878857
C35	C	0.858004	0.339054	0.340296
C36	C	1.358004	0.839054	0.840296
C37	C	0.776204	0.339065	0.340304
C38	C	1.276204	0.839065	0.840304
C39	C	1.041420	0.521940	0.332599
C40	C	1.541420	1.021940	0.832599
C41	C	1.038156	0.600174	0.329323
C42	C	1.538156	1.100174	0.829323
C43	C	0.586116	0.384142	0.385408
C44	C	1.086116	0.884142	0.885408
C45	C	0.509257	0.384145	0.385417
C46	C	1.009257	0.884145	0.885417
C47	C	0.513054	0.294002	0.295241
C48	C	1.013054	0.794002	0.795241
C49	C	0.589912	0.293997	0.295236
C50	C	1.089912	0.793997	0.795236
C51	C	0.626441	0.339071	0.340319
C52	C	1.126441	0.839071	0.840319
C53	C	0.472724	0.339078	0.340332
C54	C	0.972724	0.839078	0.840332
C55	C	0.389390	0.339080	0.340342
C56	C	0.889390	0.839080	0.840342
C57	C	0.709780	0.339068	0.340310
C58	C	1.209780	0.839068	0.840310
C59	C	1.014709	1.040558	0.305844
C60	C	1.514709	1.540558	0.805844
C61	C	1.017778	0.967049	0.308923
C62	C	1.517778	1.467049	0.808923
C63	C	1.066356	0.930226	0.357569
C64	C	1.566356	1.430226	0.857569
C65	C	1.111863	0.966916	0.403145
C66	C	1.611863	1.466916	0.903145
C67	C	1.108789	1.040424	0.400069
C68	C	1.608789	1.540424	0.900069
C69	C	1.080589	0.710373	0.371823
C70	C	1.580589	1.210373	0.871823
C71	C	1.083660	0.636859	0.374893
C72	C	1.583660	1.136859	0.874893
C73	C	0.989574	0.636997	0.280672
C74	C	1.489574	1.136997	0.780672
C75	C	0.986508	0.710507	0.277597
C76	C	1.486508	1.210507	0.777597
C77	C	1.032012	0.747190	0.323176
C78	C	1.532012	1.247190	0.823176
N79	N	1.069496	0.855087	0.360716
N80	N	1.569496	1.355087	0.860716
N81	N	1.028868	0.822328	0.320032
N82	N	1.528868	1.322328	0.820032
C83	C	1.241162	0.339078	0.340338
C84	C	1.741162	0.839078	0.840338
C85	C	1.322960	0.339084	0.340347
C86	C	1.822960	0.839084	0.840347
C87	C	1.049256	0.339017	0.532272
C88	C	1.549256	0.839017	1.032272
C89	C	1.049276	0.338997	0.614072
C90	C	1.549276	0.838997	1.114072
C91	C	1.057005	1.155478	0.348087
C92	C	1.557005	1.655478	0.848087
C93	C	1.060213	1.077243	0.351415
C94	C	1.560213	1.577243	0.851415
C95	C	1.049207	0.339063	0.149111
C96	C	1.549207	0.839063	0.649111
C97	C	1.049338	0.338886	0.067320
C98	C	1.549338	0.838886	0.567320
C99	C	1.098286	0.293939	0.804177
C100	C	1.598286	0.793939	1.304177
C101	C	1.098296	0.293919	0.881037
C102	C	1.598296	0.793919	1.381037
C103	C	1.000323	0.383945	0.877208
C104	C	1.500323	0.883945	1.377208
C105	C	1.000310	0.383961	0.800350
C106	C	1.500310	0.883961	1.300350
C107	C	1.049296	0.338960	0.763837
C108	C	1.549296	0.838960	1.263837
C109	C	1.049318	0.338923	0.917554
C110	C	1.549318	0.838923	1.417554
C111	C	1.049328	0.338901	1.000889
C112	C	1.549328	0.838901	1.500889
C113	C	1.049285	0.338980	0.680497
C114	C	1.549285	0.838980	1.180497
H115	H	0.476428	0.420845	0.422135
H116	H	0.976428	0.920845	0.922135
O117	O	0.952643	0.427587	0.912648
O118	O	1.452643	0.927587	1.412648
C119	C	0.879948	0.412219	0.894491
C120	C	1.379948	0.912219	1.394491
H121	H	0.878625	0.355993	0.875746
H122	H	1.378625	0.855993	1.375746
H123	H	0.843340	0.418274	0.944773
H124	H	1.343340	0.918274	1.444773
H125	H	0.859095	0.449964	0.848276
H126	H	1.359095	0.949964	1.348276
H127	H	1.138172	0.257294	0.774451
H128	H	1.638172	0.757294	1.274451
O129	O	0.477453	0.250286	0.251470
O130	O	0.977453	0.750286	0.751470
C131	C	0.400969	0.259942	0.261155
C132	C	0.900969	0.759942	0.761155
H133	H	0.388168	0.314292	0.282870
H134	H	0.888168	0.814292	0.782870
H135	H	0.371942	0.255099	0.206246
H136	H	0.871942	0.755099	0.706246
H137	H	0.380950	0.218243	0.302180
H138	H	0.880950	0.718243	0.802180
O139	O	0.952794	0.427799	0.761186
O140	O	1.452794	0.927799	1.261186
C141	C	0.965874	0.497947	0.777011
C142	C	1.465874	0.997947	1.277011
H143	H	1.024517	0.501499	0.798002
H144	H	1.524517	1.001499	1.298002
H145	H	0.958045	0.532728	0.724990
H146	H	1.458045	1.032728	1.224990
H147	H	0.925639	0.516337	0.820834
H148	H	1.425639	1.016337	1.320834
H149	H	0.622746	0.257290	0.258519
H150	H	1.122746	0.757290	0.758519
O151	O	0.621486	0.427943	0.429273
O152	O	1.121486	0.927943	0.929273
C153	C	0.569408	0.467735	0.469059
C154	C	1.069408	0.967735	0.969059
H155	H	0.515850	0.438911	0.472873
H156	H	1.015850	0.938911	0.972873
H157	H	0.591315	0.475308	0.526710
H158	H	1.091315	0.975308	1.026710
H159	H	0.558950	0.521162	0.439769
H160	H	1.058950	1.021162	0.939769
O161	O	0.967454	1.076216	0.258569
O162	O	1.467454	1.576216	0.758569
C163	C	0.927961	1.028070	0.218996
C164	C	1.427961	1.528070	0.718996
H165	H	0.927591	0.975653	0.251332
H166	H	1.427591	1.475653	0.751332
H167	H	0.869091	1.049356	0.210206
H168	H	1.369091	1.549356	0.710206
H169	H	0.955265	1.020269	0.163453
H170	H	1.455265	1.520269	0.663453
H171	H	0.952526	0.607122	0.243565
H172	H	1.452526	1.107122	0.743565
O173	O	1.153027	1.076137	0.444233
O174	O	1.653027	1.576137	0.944233
C175	C	1.198820	1.118638	0.400603
C176	C	1.698820	1.618638	0.900603
H177	H	1.172435	1.129712	0.344345
H178	H	1.672435	1.629712	0.844345
H179	H	1.206506	1.170299	0.428433
H180	H	1.706506	1.670299	0.928433
H181	H	1.254548	1.090273	0.393753
H182	H	1.754548	1.590273	0.893753
O183	O	0.939371	0.746383	0.230374
O184	O	1.439371	1.246383	0.730374
C185	C	0.946399	0.819130	0.237449
C186	C	1.446399	1.319130	0.737449
H187	H	1.002768	0.829112	0.261170
H188	H	1.502768	1.329112	0.761170
H189	H	0.940250	0.847113	0.181154
H190	H	1.440250	1.347113	0.681154
H191	H	0.901862	0.839989	0.275743
H192	H	1.401862	1.339989	0.775743
O193	O	0.973498	0.931384	0.264758
O194	O	1.473498	1.431384	0.764758
C195	C	0.927727	0.888861	0.308388
C196	C	1.427727	1.388861	0.808388
H197	H	0.922223	0.910977	0.365421
H198	H	1.422223	1.410977	0.865421
H199	H	0.871139	0.888094	0.281749
H200	H	1.371139	1.388094	0.781749
H201	H	0.952804	0.833130	0.313274
H202	H	1.452804	1.333130	0.813274
H203	H	1.123222	0.606881	0.414509
H204	H	1.623222	1.106881	0.914509
O205	O	1.145957	0.250166	0.920111
O206	O	1.645957	0.750166	1.420111
C207	C	1.189174	0.210439	0.871399
C208	C	1.689174	0.710439	1.371399
H209	H	1.190483	0.239284	0.815394
H210	H	1.690483	0.739284	1.315394
H211	H	1.247481	0.202929	0.893935
H212	H	1.747481	0.702929	1.393935
H213	H	1.164505	0.156982	0.865480
H214	H	1.664505	0.656982	1.365480
H215	H	1.117650	0.740232	0.408927
H216	H	1.617650	1.240232	0.908927
H217	H	1.151414	0.936931	0.442757
H218	H	1.651414	1.436931	0.942757
