data_functionalizedCrystal
_audit_creation_method	'MofGen! by Chris Wilmer'
_symmetry_space_group_name_H-M	'P1'
_symmetry_Int_Tables_number	1
_symmetry_cell_setting	triclinic
loop_
_symmetry_equiv_pos_as_xyz
  x,y,z
_cell_length_a	12.759401
_cell_length_b	14.908520
_cell_length_c	14.908308
_cell_angle_alpha	83.639235
_cell_angle_beta	93.281184
_cell_angle_gamma	86.679304
loop_
_atom_site_label
_atom_site_type_symbol
_atom_site_fract_x
_atom_site_fract_y
_atom_site_fract_z
Zn1	Zn	1.544174	0.389868	-0.532499
Zn2	Zn	2.044174	0.889868	-0.032499
Zn3	Zn	1.544055	0.532513	-0.389870
Zn4	Zn	2.044055	1.032513	0.110130
Zn5	Zn	1.379242	0.381171	-0.381165
Zn6	Zn	1.879242	0.881171	0.118835
Zn7	Zn	1.357688	0.541187	-0.541187
Zn8	Zn	1.857688	1.041187	-0.041187
O9	O	1.456290	0.461185	-0.461180
O10	O	1.956290	0.961185	0.038820
O11	O	1.691178	0.408800	-0.513587
O12	O	2.191178	0.908800	-0.013587
O13	O	1.531163	0.505168	-0.262054
O14	O	2.031163	1.005168	0.237946
O15	O	1.410191	0.255660	-0.393961
O16	O	1.910191	0.755660	0.106039
O17	O	1.691090	0.513601	-0.408797
O18	O	2.191090	1.013601	0.091203
O19	O	1.531366	0.262050	-0.505146
O20	O	2.031366	0.762050	-0.005146
O21	O	1.410075	0.393977	-0.255658
O22	O	1.910075	0.893977	0.244342
O23	O	1.229363	0.402388	-0.402384
O24	O	1.729363	0.902388	0.097616
O25	O	1.373455	0.528384	-0.666696
O26	O	1.873455	1.028384	-0.166696
O27	O	1.213527	0.519951	-0.519952
O28	O	1.713527	1.019951	-0.019952
O29	O	1.510466	0.417211	-0.660313
O30	O	2.010466	0.917211	-0.160313
O31	O	1.510262	0.660329	-0.417221
O32	O	2.010262	1.160329	0.082779
O33	O	1.373339	0.666701	-0.528393
O34	O	1.873339	1.166701	-0.028393
C35	C	1.183324	0.461168	-0.461167
C36	C	1.683324	0.961168	0.038833
C37	C	1.066546	0.461183	-0.461184
C38	C	1.566546	0.961183	0.038816
C39	C	1.439476	0.696359	-0.474714
C40	C	1.939476	1.196359	0.025286
C41	C	1.432377	0.796969	-0.480535
C42	C	1.932377	1.296969	0.019465
C43	C	1.439569	0.474735	-0.697264
C44	C	1.939569	0.974735	-0.197264
C45	C	1.432444	0.480509	-0.797869
C46	C	1.932444	0.980509	-0.297869
C47	C	1.003466	0.522485	-0.522311
C48	C	1.503466	1.022485	-0.022311
C49	C	0.893740	0.522497	-0.522322
C50	C	1.393740	1.022497	-0.022322
C51	C	0.910185	0.399902	-0.400070
C52	C	1.410185	0.899902	0.099930
C53	C	1.019908	0.399887	-0.400064
C54	C	1.519908	0.899887	0.099936
C55	C	1.050103	0.583782	-0.583431
C56	C	1.550103	1.083782	-0.083431
C57	C	0.987022	0.645090	-0.644562
C58	C	1.487022	1.145090	-0.144562
C59	C	0.877296	0.645102	-0.644573
C60	C	1.377296	1.145102	-0.144573
C61	C	0.830652	0.583806	-0.583452
C62	C	1.330652	1.083806	-0.083452
C63	C	1.730321	0.461203	-0.461194
C64	C	2.230321	0.961203	0.038806
C65	C	1.847097	0.461211	-0.461200
C66	C	2.347097	0.961211	0.038800
C67	C	1.473196	0.225094	-0.447613
C68	C	1.973196	0.725094	0.052387
C69	C	1.480401	0.124486	-0.441831
C70	C	1.980401	0.624486	0.058169
C71	C	1.561747	0.979335	-0.375801
C72	C	2.061747	1.479335	0.124199
C73	C	1.555081	1.073867	-0.381267
C74	C	2.055081	1.573867	0.118733
C75	C	1.412384	1.080567	-0.496936
C76	C	1.912384	1.580567	0.003064
C77	C	1.419050	0.986035	-0.491470
C78	C	1.919050	1.486035	0.008530
C79	C	1.493733	0.935422	-0.430900
C80	C	1.993733	1.435422	0.069100
C81	C	1.500394	0.840888	-0.425430
C82	C	2.000394	1.340888	0.074570
C83	C	1.357703	0.847590	-0.541103
C84	C	1.857703	1.347590	-0.041103
C85	C	1.351037	0.942122	-0.546569
C86	C	1.851037	1.442122	-0.046569
C87	C	1.561723	0.375574	-0.980271
C88	C	2.061723	0.875574	-0.480271
C89	C	1.555032	0.380996	-1.074798
C90	C	2.055032	0.880996	-0.574798
C91	C	1.412366	0.496771	-1.081452
C92	C	1.912366	0.996771	-0.581452
C93	C	1.419057	0.491348	-0.986925
C94	C	1.919057	0.991348	-0.486925
C95	C	1.493739	0.430749	-0.936337
C96	C	1.993739	0.930749	-0.436337
C97	C	1.500435	0.425332	-0.841809
C98	C	2.000435	0.925332	-0.341809
C99	C	1.357765	0.541101	-0.848464
C100	C	1.857765	1.041101	-0.348464
C101	C	1.351074	0.546524	-0.942992
C102	C	1.851074	1.046524	-0.442992
C103	C	1.473010	0.447622	-0.226011
C104	C	1.973010	0.947622	0.273989
C105	C	1.480357	0.441593	-0.125392
C106	C	1.980357	0.941593	0.374608
H107	H	1.139446	0.583781	-0.583428
H108	H	1.639446	1.083781	-0.083428
H109	H	1.302410	0.586032	-0.812684
H110	H	1.802410	1.086032	-0.312684
Cl111	Cl	1.045660	0.722138	-0.721400
Cl112	Cl	1.545660	1.222138	-0.221400
H113	H	1.610388	0.336064	-1.110564
H114	H	2.110388	0.836064	-0.610564
H115	H	0.825939	0.695015	-0.694355
H116	H	1.325939	1.195015	-0.194355
Cl117	Cl	1.318518	1.144210	-0.573086
Cl118	Cl	1.818518	1.644210	-0.073086
Cl119	Cl	1.655616	0.299404	-0.916673
Cl120	Cl	2.155616	0.799404	-0.416673
H121	H	0.741305	0.583814	-0.583472
H122	H	1.241305	1.083814	-0.083472
Cl123	Cl	1.640590	1.129069	-0.311999
Cl124	Cl	2.140590	1.629069	0.188001
H125	H	1.622550	0.938124	-0.326477
H126	H	2.122550	1.438124	0.173523
Cl127	Cl	1.318482	0.572940	-1.145062
Cl128	Cl	1.818482	1.072940	-0.645062
H129	H	0.872197	0.349999	-0.350308
H130	H	1.372197	0.849999	0.149692
H131	H	1.071270	0.349963	-0.350296
H132	H	1.571270	0.849963	0.149704
H133	H	1.561246	0.375990	-0.800622
H134	H	2.061246	0.875990	-0.300622
H135	H	1.290268	0.595860	-0.984192
H136	H	1.790268	1.095860	-0.484192
H137	H	1.290235	0.983344	-0.595885
H138	H	1.790235	1.483344	-0.095885
H139	H	1.561202	0.799679	-0.376109
H140	H	2.061202	1.299679	0.123891
H141	H	1.302318	0.811826	-0.585965
H142	H	1.802318	1.311826	-0.085965
