data_functionalizedCrystal
_audit_creation_method	'MofGen! by Chris Wilmer'
_symmetry_space_group_name_H-M	'P1'
_symmetry_Int_Tables_number	1
_symmetry_cell_setting	triclinic
loop_
_symmetry_equiv_pos_as_xyz
  x,y,z
_cell_length_a	13.897449
_cell_length_b	13.897447
_cell_length_c	19.077174
_cell_angle_alpha	92.274996
_cell_angle_beta	87.685608
_cell_angle_gamma	90.020810
loop_
_atom_site_label
_atom_site_type_symbol
_atom_site_fract_x
_atom_site_fract_y
_atom_site_fract_z
Zn1	Zn	1.496545	-0.405907	-0.397947
Zn2	Zn	1.489970	-0.560735	-0.280257
Zn3	Zn	1.328771	-0.399460	-0.280267
Zn4	Zn	1.335209	-0.567163	-0.397916
O5	O	1.412624	-0.483316	-0.339096
O6	O	1.630655	-0.426453	-0.382344
O7	O	1.463141	-0.533954	-0.181768
O8	O	1.351084	-0.265335	-0.295894
O9	O	1.625824	-0.540205	-0.295877
O10	O	1.474346	-0.270071	-0.382353
O11	O	1.344709	-0.415465	-0.181775
O12	O	1.194643	-0.421699	-0.295864
O13	O	1.362056	-0.551161	-0.496410
O14	O	1.199373	-0.544909	-0.382300
O15	O	1.480589	-0.432686	-0.496433
O16	O	1.469383	-0.696569	-0.295847
O17	O	1.355681	-0.701291	-0.382291
C18	C	1.162008	-0.483303	-0.339080
C19	C	1.054795	-0.483321	-0.339090
C20	C	1.412544	-0.733930	-0.339080
C21	C	1.412600	-0.841145	-0.339097
C22	C	1.412647	-0.928215	-0.339113
C23	C	1.412716	-1.037449	-0.339131
C24	C	0.858501	-0.483325	-0.339109
C25	C	0.967733	-0.483320	-0.339096
C26	C	1.664218	-0.483331	-0.339113
C27	C	1.771432	-0.483337	-0.339120
C28	C	1.422774	-0.493359	-0.522673
C29	C	1.427099	-0.497639	-0.600902
C30	C	1.412730	-0.231725	-0.339128
C31	C	1.412776	-0.124512	-0.339142
C32	C	1.367472	-0.437961	-0.637657
C33	C	1.371533	-0.441990	-0.711162
C34	C	1.435225	-0.505694	-0.747910
C35	C	1.494855	-0.565379	-0.711149
C36	C	1.490789	-0.561354	-0.637646
C37	C	1.453993	-0.524351	-0.967741
C38	C	1.458057	-0.528370	-1.041250
C39	C	1.334733	-0.404982	-1.041258
C40	C	1.330677	-0.400958	-0.967753
C41	C	1.390302	-0.460647	-0.930999
N42	N	1.439380	-0.509812	-0.823044
N43	N	1.386143	-0.456533	-0.855866
C44	C	1.402569	-0.473243	-0.156234
C45	C	1.398430	-0.468691	-0.078005
H46	H	1.315612	-0.386081	-0.607743
H47	H	1.546709	-0.617253	-0.741075
C48	C	1.502518	-0.572984	-0.855069
C49	C	1.519536	-0.589956	-0.927346
H50	H	1.542980	-0.613493	-0.830131
H51	H	1.516000	-0.507525	-0.843034
H52	H	1.437033	-0.586440	-0.843025
H53	H	1.585020	-0.576494	-0.939391
H54	H	1.506061	-0.655430	-0.939387
H55	H	1.278809	-0.349087	-0.937838
H56	H	1.286189	-0.356388	-1.071191
H57	H	1.509927	-0.580246	-1.071168
C58	C	1.536448	-0.723450	-0.614996
C59	C	1.556331	-0.626955	-0.597241
H60	H	1.576914	-0.763951	-0.590054
H61	H	1.470972	-0.736891	-0.602943
H62	H	1.547991	-0.734950	-0.664032
H63	H	1.544781	-0.615453	-0.548206
H64	H	1.621822	-0.613509	-0.609289
C65	C	1.249241	-0.319610	-0.703787
C66	C	1.305996	-0.376383	-0.751564
H67	H	1.208784	-0.279102	-0.728730
H68	H	1.210739	-0.360060	-0.675111
H69	H	1.289714	-0.281154	-0.675125
H70	H	1.265523	-0.414845	-0.780222
H71	H	1.344502	-0.335928	-0.780252
