data_functionalizedCrystal
_audit_creation_method	'MofGen! by Chris Wilmer'
_symmetry_space_group_name_H-M	'P1'
_symmetry_Int_Tables_number	1
_symmetry_cell_setting	triclinic
loop_
_symmetry_equiv_pos_as_xyz
  x,y,z
_cell_length_a	11.792241
_cell_length_b	16.109295
_cell_length_c	14.586319
_cell_angle_alpha	90.000576
_cell_angle_beta	89.998811
_cell_angle_gamma	83.826301
loop_
_atom_site_label
_atom_site_type_symbol
_atom_site_fract_x
_atom_site_fract_y
_atom_site_fract_z
O1	O	-0.145855	-1.103820	-0.076168
O2	O	0.354145	-0.603820	0.423832
O3	O	-0.164017	-0.861843	-0.076182
O4	O	0.335983	-0.361843	0.423818
O5	O	0.010286	-0.988704	-0.076180
O6	O	0.510286	-0.488704	0.423820
O7	O	-0.320158	-0.976959	-0.076170
O8	O	0.179842	-0.476959	0.423830
O9	O	0.010289	-0.988695	0.076301
O10	O	0.510289	-0.488695	0.576301
O11	O	-0.164014	-0.861834	0.076299
O12	O	0.335986	-0.361834	0.576299
O13	O	-0.145852	-1.103811	0.076313
O14	O	0.354148	-0.603811	0.576313
Cu15	Cu	-0.154933	-0.982822	0.090229
Cu16	Cu	0.345067	-0.482822	0.590229
Cu17	Cu	-0.154936	-0.982832	-0.090098
Cu18	Cu	0.345064	-0.482832	0.409902
O19	O	-0.320155	-0.976951	0.076311
O20	O	0.179845	-0.476951	0.576311
C21	C	-0.163281	-0.830860	0.000056
C22	C	0.336719	-0.330860	0.500056
C23	C	-0.161079	-0.738554	0.000051
C24	C	0.338921	-0.238554	0.500051
C25	C	-0.259384	-0.516744	0.000063
C26	C	0.240616	-0.016744	0.500063
C27	C	-0.257306	-0.430013	0.000069
C28	C	0.242694	0.069987	0.500069
C29	C	-0.050505	-0.448915	0.000059
C30	C	0.449495	0.051085	0.500059
C31	C	-0.052584	-0.535643	0.000060
C32	C	0.447416	-0.035643	0.500060
C33	C	-0.157027	-0.569555	0.000057
C34	C	0.342973	-0.069555	0.500057
C35	C	-0.152870	-0.396096	0.000062
C36	C	0.347130	0.103904	0.500062
C37	C	-0.150616	-0.302059	0.000068
C38	C	0.349384	0.197941	0.500068
C39	C	-0.159282	-0.663598	0.000053
C40	C	0.340718	-0.163598	0.500053
C41	C	-0.362441	-0.977693	0.000072
C42	C	0.137559	-0.477693	0.500072
C43	C	-0.488435	-0.979901	0.000076
C44	C	0.011565	-0.479901	0.500076
C45	C	-0.719112	-0.983961	0.000053
C46	C	-0.219112	-0.483961	0.500053
C47	C	-0.590747	-0.981705	0.000066
C48	C	-0.090747	-0.481705	0.500066
C49	C	0.052572	-0.987962	0.000057
C50	C	0.552572	-0.487962	0.500057
C51	C	0.178566	-0.985753	0.000047
C52	C	0.678566	-0.485753	0.500047
C53	C	-0.146595	-0.134793	0.000072
C54	C	0.353405	0.365207	0.500072
C55	C	-0.148818	-0.227098	0.000069
C56	C	0.351182	0.272902	0.500069
N57	N	-0.154930	-0.982821	0.217060
N58	N	0.345070	-0.482821	0.717060
N59	N	-0.154930	-0.982840	-0.216929
N60	N	0.345070	-0.482840	0.283071
C61	C	-0.077775	-1.039013	0.452068
C62	C	0.422225	-0.539013	0.952068
C63	C	-0.077772	-1.039016	0.548049
C64	C	0.422228	-0.539016	1.048049
C65	C	-0.232089	-0.926642	0.548057
C66	C	0.267911	-0.426642	1.048057
C67	C	-0.232086	-0.926636	0.452077
C68	C	0.267914	-0.426636	0.952077
C69	C	-0.154930	-0.982826	0.404085
C70	C	0.345070	-0.482826	0.904085
C71	C	-0.154930	-0.982834	0.596046
C72	C	0.345070	-0.482834	1.096046
C73	C	-0.154928	-0.982837	0.700113
C74	C	0.345072	-0.482837	1.200113
C75	C	-0.154930	-0.982823	0.300011
C76	C	0.345070	-0.482823	0.800011
H77	H	-0.344428	-0.544352	0.000068
H78	H	0.155572	-0.044352	0.500068
C79	C	-0.300600	-0.876733	0.304948
C80	C	0.199400	-0.376733	0.804948
C81	C	-0.316904	-0.864873	0.399326
C82	C	0.183096	-0.364873	0.899326
H83	H	-0.352956	-0.838600	0.272383
H84	H	0.147044	-0.338600	0.772383
H85	H	-0.312946	-0.932267	0.289221
H86	H	0.187054	-0.432267	0.789221
H87	H	-0.224844	-0.867360	0.289232
H88	H	0.275156	-0.367360	0.789232
H89	H	-0.392658	-0.874252	0.415043
H90	H	0.107342	-0.374252	0.915043
H91	H	-0.304567	-0.809326	0.415059
H92	H	0.195433	-0.309326	0.915059
H93	H	-0.294909	-0.880893	0.587141
H94	H	0.205091	-0.380893	1.087141
C95	C	-0.461925	-0.420048	0.000065
C96	C	0.038075	0.079952	0.500065
C97	C	-0.369820	-0.371963	0.000069
C98	C	0.130180	0.128037	0.500069
H99	H	-0.531389	-0.384208	0.000060
H100	H	-0.031389	0.115792	0.500060
H101	H	-0.458435	-0.454267	0.053234
H102	H	0.041565	0.045733	0.553234
H103	H	-0.458424	-0.454271	-0.053113
H104	H	0.041576	0.045729	0.446887
H105	H	-0.373317	-0.337744	0.053250
H106	H	0.126683	0.162256	0.553250
H107	H	-0.373312	-0.337730	-0.053106
H108	H	0.126688	0.162270	0.446894
H109	H	-0.014948	-1.084766	0.412995
H110	H	0.485052	-0.584766	0.912995
H111	H	0.034529	-0.421293	0.000066
H112	H	0.534529	0.078707	0.500066
H113	H	0.030773	-0.578645	0.000057
H114	H	0.530773	-0.078645	0.500057
H115	H	-0.014944	-1.084767	0.587114
H116	H	0.485056	-0.584767	1.087114
