data_functionalizedCrystal
_audit_creation_method	'MofGen! by Chris Wilmer'
_symmetry_space_group_name_H-M	'P1'
_symmetry_Int_Tables_number	1
_symmetry_cell_setting	triclinic
loop_
_symmetry_equiv_pos_as_xyz
  x,y,z
_cell_length_a	12.837943
_cell_length_b	14.044220
_cell_length_c	11.892095
_cell_angle_alpha	94.243827
_cell_angle_beta	85.689438
_cell_angle_gamma	94.008909
loop_
_atom_site_label
_atom_site_type_symbol
_atom_site_fract_x
_atom_site_fract_y
_atom_site_fract_z
O1	O	1.404549	0.242985	-0.093990
O2	O	1.101609	0.230709	-0.093996
O3	O	1.248531	0.098452	-0.093982
O4	O	1.257627	0.375241	-0.094004
O5	O	1.236280	0.109461	0.094025
O6	O	1.089357	0.241718	0.094010
O7	O	1.392297	0.253993	0.094017
Zn8	Zn	1.238882	0.249603	0.123864
Zn9	Zn	1.255024	0.235099	-0.123843
O10	O	1.245375	0.386250	0.094002
C11	C	1.056479	0.232067	0.000007
C12	C	0.940259	0.219699	0.000005
C13	C	0.713048	0.368378	0.000009
C14	C	0.603848	0.356763	0.000008
C15	C	0.612657	0.184853	0.000009
C16	C	0.721856	0.196469	0.000011
C17	C	0.772048	0.288234	0.000008
C18	C	0.881251	0.299849	0.000001
C19	C	0.890056	0.127940	0.000011
C20	C	0.780857	0.116324	0.000010
C21	C	1.238425	0.068282	0.000022
C22	C	1.226550	-0.038016	0.000023
C23	C	1.204843	-0.232639	0.000006
C24	C	1.289060	-0.282665	0.000005
C25	C	1.276982	-0.390960	-0.000005
C26	C	1.216919	-0.124334	0.000016
C27	C	1.437428	0.252635	0.000012
C28	C	1.553649	0.265002	0.000006
C29	C	1.255482	0.416420	-0.000004
C30	C	1.267357	0.522717	-0.000012
N31	N	1.227873	0.259502	0.292917
N32	N	1.266041	0.225193	-0.292896
C33	C	1.342643	0.156258	0.529576
C34	C	1.334956	0.163185	0.647917
C35	C	1.204807	0.280277	0.647942
C36	C	1.212494	0.273350	0.529601
C37	C	1.281415	0.211340	0.470422
C38	C	1.289107	0.204418	0.352079
C39	C	1.158954	0.321505	0.352106
C40	C	1.151267	0.328432	0.470447
H41	H	0.555814	0.422025	0.000011
H42	H	1.384812	0.118331	0.696076
H43	H	1.123677	-0.271140	0.000002
O44	O	0.726719	0.017352	0.000018
H45	H	0.682175	0.003460	-0.076612
O46	O	1.130475	0.347156	0.711778
H47	H	1.135423	0.342718	0.804005
H48	H	1.095149	0.378917	0.518645
O49	O	1.363422	0.137528	0.288233
H50	H	1.444571	0.158416	0.310922
O51	O	0.935393	0.398820	0.000014
H52	H	0.876015	0.452597	0.000030
O53	O	0.767195	0.467347	0.000009
H54	H	0.707821	0.521127	0.000014
O55	O	0.558513	0.085883	0.000029
H56	H	0.472668	0.091275	0.000030
O57	O	0.953689	0.041489	0.000017
H58	H	1.038056	0.064980	0.000024
O59	O	1.396587	-0.231676	0.000009
H60	H	1.434650	-0.247651	0.076633
O61	O	1.416974	0.089381	0.465734
H62	H	1.458257	0.052239	0.526751
O63	O	1.092901	0.380915	0.288308
H64	H	1.109817	0.365678	0.196075
