data_functionalizedCrystal
_audit_creation_method	'MofGen! by Chris Wilmer'
_symmetry_space_group_name_H-M	'P1'
_symmetry_Int_Tables_number	1
_symmetry_cell_setting	triclinic
loop_
_symmetry_equiv_pos_as_xyz
  x,y,z
_cell_length_a	14.971486
_cell_length_b	19.188930
_cell_length_c	14.048226
_cell_angle_alpha	89.988446
_cell_angle_beta	89.998499
_cell_angle_gamma	83.379455
loop_
_atom_site_label
_atom_site_type_symbol
_atom_site_fract_x
_atom_site_fract_y
_atom_site_fract_z
O1	O	1.186466	0.090988	-0.079062
O2	O	0.926009	0.101884	-0.079090
O3	O	1.063754	-0.005196	-0.079057
O4	O	1.048721	0.198067	-0.079095
O5	O	1.063737	-0.005202	0.079265
O6	O	0.925992	0.101878	0.079232
O7	O	1.186450	0.090982	0.079259
Zn8	Zn	1.056218	0.096429	0.104382
Zn9	Zn	1.056240	0.096437	-0.104213
O10	O	1.048705	0.198061	0.079226
C11	C	0.892678	0.101393	0.000068
C12	C	0.793389	0.099933	0.000058
C13	C	0.735831	0.162839	0.000048
C14	C	0.642539	0.161463	0.000062
C15	C	0.606806	0.097180	0.000080
C16	C	0.664371	0.034269	0.000094
C17	C	0.757662	0.035646	0.000086
C18	C	0.469924	0.031403	0.000108
C19	C	0.376627	0.030026	0.000113
C20	C	0.354801	0.157221	0.000083
C21	C	0.448092	0.158598	0.000076
C22	C	0.505650	0.095686	0.000088
C23	C	1.063259	-0.031211	0.000107
C24	C	1.061797	-0.108721	0.000115
C25	C	1.142622	-0.153384	0.000128
C26	C	1.141249	-0.226213	0.000112
C27	C	1.059047	-0.254374	0.000103
C28	C	0.978212	-0.209700	0.000085
C29	C	0.979587	-0.136874	0.000091
N30	N	0.996208	-0.362583	0.053976
N31	N	0.994907	-0.431766	0.053973
C32	C	1.054899	-0.473796	0.000084
N33	N	1.116254	-0.444031	-0.053790
N34	N	1.117558	-0.374842	-0.053782
C35	C	1.057547	-0.333341	0.000096
C36	C	1.134240	-0.597429	0.000078
C37	C	1.132864	-0.670258	0.000057
C38	C	0.969825	-0.653744	0.000039
C39	C	0.971203	-0.580916	0.000051
C40	C	1.053413	-0.552763	0.000075
C41	C	1.219780	0.091472	0.000100
C42	C	1.319070	0.092932	0.000103
C43	C	1.049200	0.224077	0.000061
C44	C	1.050661	0.301586	0.000046
N45	N	1.056210	0.096422	0.246743
N46	N	1.056256	0.096437	-0.246573
C47	C	1.117223	0.049027	0.296576
C48	C	1.117229	0.049027	0.396233
C49	C	1.056226	0.096426	0.446057
C50	C	0.995207	0.143823	0.396217
C51	C	0.995197	0.143819	0.296561
C52	C	0.995233	0.143828	0.603931
C53	C	0.995243	0.143833	0.703594
C54	C	1.117264	0.049035	0.703603
C55	C	1.117255	0.049032	0.603948
C56	C	1.056236	0.096430	0.554115
H57	H	0.516786	-0.019826	0.000119
H58	H	0.307932	0.208445	0.000078
N59	N	0.929426	0.194952	0.550177
H60	H	0.889926	0.168219	0.508846
H61	H	0.890845	0.224970	0.596918
N62	N	0.929408	0.194941	0.449957
H63	H	0.963467	0.225902	0.491287
H64	H	0.890767	0.224918	0.403207
H65	H	0.945513	0.182413	0.255988
H66	H	0.477182	0.210943	0.000052
H67	H	0.804525	-0.015579	0.000094
N68	N	0.774368	0.232174	0.000017
H69	H	0.723746	0.271816	0.000013
H70	H	0.812604	0.235516	0.058703
H71	H	0.595679	0.212688	0.000052
H72	H	0.913768	-0.100507	0.000080
N73	N	1.231283	-0.123013	0.000131
H74	H	1.235485	-0.093173	0.058820
H75	H	1.282230	-0.162398	0.000096
N76	N	0.929456	0.194952	0.757347
H77	H	0.939552	0.244520	0.739986
H78	H	0.866033	0.186767	0.740010
N79	N	1.228426	-0.274398	0.000125
H80	H	1.280713	-0.245512	0.000139
H81	H	1.231392	-0.304983	0.058816
N82	N	0.889550	-0.240069	0.000070
H83	H	0.900943	-0.292982	0.000071
H84	H	0.854186	-0.223743	0.058756
H85	H	0.635271	-0.018072	0.000122
N86	N	0.338083	-0.039306	0.000131
H87	H	0.388700	-0.078951	0.000144
H88	H	0.299850	-0.042644	0.058824
N89	N	1.183046	-0.002090	0.550204
H90	H	1.222534	0.024644	0.508842
H91	H	1.221640	-0.032106	0.596951
H92	H	1.198683	-0.706623	0.000063
N93	N	1.222903	-0.567057	0.000101
H94	H	1.273899	-0.606405	0.000099
H95	H	1.227031	-0.537186	-0.058585
H96	H	0.902894	-0.676672	0.000027
H97	H	0.905387	-0.544550	0.000046
N98	N	1.183025	-0.002092	0.242841
H99	H	1.221675	-0.032117	0.289536
H100	H	1.148904	-0.033005	0.201508
H101	H	1.166947	0.010442	0.744183
N102	N	1.183067	-0.002076	0.449969
H103	H	1.172992	-0.051650	0.432645
H104	H	1.246467	0.006136	0.432568
