data_functionalizedCrystal
_audit_creation_method	'MofGen! by Chris Wilmer'
_symmetry_space_group_name_H-M	'P1'
_symmetry_Int_Tables_number	1
_symmetry_cell_setting	triclinic
loop_
_symmetry_equiv_pos_as_xyz
  x,y,z
_cell_length_a	19.188905
_cell_length_b	11.792241
_cell_length_c	10.268362
_cell_angle_alpha	89.994090
_cell_angle_beta	90.007862
_cell_angle_gamma	96.336014
loop_
_atom_site_label
_atom_site_type_symbol
_atom_site_fract_x
_atom_site_fract_y
_atom_site_fract_z
O1	O	0.926954	-0.141561	0.108516
O2	O	0.723748	-0.160665	0.108471
O3	O	0.830282	0.014132	0.108485
O4	O	0.820420	-0.316358	0.108501
O5	O	0.830281	0.014143	-0.108115
O6	O	0.723747	-0.160655	-0.108130
O7	O	0.926952	-0.141550	-0.108085
Cu8	Cu	0.825350	-0.151102	-0.127885
Cu9	Cu	0.825351	-0.151114	0.128271
O10	O	0.820418	-0.316348	-0.108099
C11	C	0.697733	-0.160046	0.000165
C12	C	0.620217	-0.158203	0.000148
N13	N	0.825353	-0.151114	0.308437
C14	C	0.829662	0.056419	0.000185
C15	C	0.827808	0.182405	0.000186
C16	C	0.583821	-0.157323	0.118220
C17	C	0.510987	-0.155579	0.118236
C18	C	0.474554	-0.154691	0.000173
C19	C	0.510959	-0.155578	-0.117915
C20	C	0.583790	-0.157333	-0.117927
N21	N	0.365152	-0.087344	-0.087693
N22	N	0.295966	-0.085674	-0.087673
C23	C	0.255118	-0.149404	0.000205
N24	N	0.286071	-0.214854	0.088081
N25	N	0.355264	-0.216519	0.088064
C26	C	0.395581	-0.152788	0.000174
C27	C	0.139747	-0.146635	0.118303
C28	C	0.066912	-0.144898	0.118314
C29	C	0.066886	-0.144885	-0.117841
C30	C	0.139719	-0.146634	-0.117848
C31	C	0.176146	-0.147503	0.000227
C32	C	0.952968	-0.142169	0.000224
C33	C	1.030484	-0.144012	0.000250
C34	C	0.821039	-0.358634	0.000204
C35	C	0.822893	-0.484620	0.000211
C36	C	0.824398	0.413065	0.000207
C37	C	0.826293	0.284709	0.000196
N38	N	0.825354	-0.151092	-0.308051
C39	C	0.825351	-0.151107	0.574107
C40	C	0.825350	-0.151114	0.426269
H41	H	0.613475	-0.158031	0.214366
H42	H	0.481348	-0.154864	0.214388
Cl43	Cl	0.185543	-0.147739	0.266736
Cl44	Cl	0.185477	-0.147733	-0.266291
H45	H	0.037222	-0.144170	-0.213970
Cl46	Cl	0.465158	-0.154470	-0.266337
H47	H	0.037279	-0.144188	0.214466
H48	H	0.613423	-0.158051	-0.214079
