data_functionalizedCrystal
_audit_creation_method	'MofGen! by Chris Wilmer'
_symmetry_space_group_name_H-M	'P1'
_symmetry_Int_Tables_number	1
_symmetry_cell_setting	triclinic
loop_
_symmetry_equiv_pos_as_xyz
  x,y,z
_cell_length_a	11.169416
_cell_length_b	12.759401
_cell_length_c	12.759393
_cell_angle_alpha	90.020057
_cell_angle_beta	89.971305
_cell_angle_gamma	89.994057
loop_
_atom_site_label
_atom_site_type_symbol
_atom_site_fract_x
_atom_site_fract_y
_atom_site_fract_z
Zn1	Zn	-0.477877	-1.606287	-0.594048
Zn2	Zn	-0.678609	-1.606195	-0.418377
Zn3	Zn	-0.477924	-1.430589	-0.418382
Zn4	Zn	-0.678501	-1.430591	-0.594013
O5	O	-0.578228	-1.518415	-0.506205
O6	O	-0.504530	-1.753296	-0.570757
O7	O	-0.652053	-1.582861	-0.271356
O8	O	-0.309968	-1.453933	-0.441701
O9	O	-0.652008	-1.753228	-0.441692
O10	O	-0.309933	-1.583018	-0.570762
O11	O	-0.504610	-1.453844	-0.271360
O12	O	-0.504505	-1.283568	-0.441668
O13	O	-0.651823	-1.453937	-0.741039
O14	O	-0.651868	-1.283569	-0.570703
O15	O	-0.504425	-1.583020	-0.741064
O16	O	-0.846545	-1.582863	-0.441659
O17	O	-0.846465	-1.453847	-0.570698
C18	C	-0.578181	-1.245448	-0.506183
C19	C	-0.578190	-1.128671	-0.506199
C20	C	-0.501553	-0.964108	-0.573510
C21	C	-0.501537	-1.073832	-0.573505
C22	C	-0.654872	-1.073781	-0.438899
C23	C	-0.654893	-0.964059	-0.438910
C24	C	-0.890052	-1.518374	-0.506197
C25	C	-1.023452	-1.518452	-0.506229
C26	C	-0.265185	-1.518486	-0.506236
C27	C	-0.131785	-1.518516	-0.506249
C28	C	-0.578106	-1.518489	-0.780238
C29	C	-0.578055	-1.518520	-0.897015
C30	C	-0.578258	-0.792448	-0.506222
C31	C	-0.578227	-0.909225	-0.506213
C32	C	-0.501267	-1.451365	-0.951879
C33	C	-0.501230	-1.451389	-1.061603
C34	C	-0.654772	-1.585733	-1.061590
C35	C	-0.654814	-1.585702	-0.951868
C36	C	-0.578262	-1.518403	-0.233237
C37	C	-0.577976	-1.518575	-0.116461
H38	H	-0.439126	-0.919466	-0.628312
O39	O	-0.729576	-1.650890	-0.898682
C40	C	-0.849180	-1.627889	-0.925454
H41	H	-0.851631	-1.587528	-1.005118
H42	H	-0.889614	-1.573842	-0.863693
C43	C	-0.918892	-1.779866	-0.832667
C44	C	-0.921902	-1.730302	-0.930517
H45	H	-0.963753	-1.843038	-0.835786
H46	H	-0.838313	-1.795361	-0.814627
H47	H	-0.952584	-1.734817	-0.781210
H48	H	-0.888197	-1.775346	-0.981969
H49	H	-1.002478	-1.714817	-0.948566
H50	H	-0.438765	-1.396661	-0.907221
H51	H	-0.717265	-1.640431	-1.106265
O52	O	-0.426522	-1.386124	-1.114734
C53	C	-0.358810	-1.326805	-1.042787
H54	H	-0.354694	-1.369821	-0.964579
H55	H	-0.402745	-1.246997	-1.031101
C56	C	-0.236111	-1.258874	-1.181683
C57	C	-0.231047	-1.311712	-1.085629
H58	H	-0.157303	-1.249559	-1.208111
H59	H	-0.281733	-1.298835	-1.230157
H60	H	-0.272729	-1.192374	-1.171932
H61	H	-0.194444	-1.378216	-1.095384
H62	H	-0.185417	-1.271762	-1.037158
H63	H	-0.717288	-1.118439	-0.384101
O64	O	-0.426941	-1.126983	-0.638908
C65	C	-0.359306	-1.055052	-0.698330
H66	H	-0.355108	-0.976821	-0.655306
H67	H	-0.403362	-1.043416	-0.778060
C68	C	-0.236739	-1.193959	-0.766496
C69	C	-0.231575	-1.097877	-0.713649
H70	H	-0.157950	-1.220376	-0.775951
H71	H	-0.282308	-1.242421	-0.726466
H72	H	-0.273458	-1.184250	-0.832932
H73	H	-0.194871	-1.107590	-0.647210
H74	H	-0.185997	-1.049417	-0.753669
H75	H	-0.717336	-0.919372	-0.384108
