data_functionalizedCrystal
_audit_creation_method	'MofGen! by Chris Wilmer'
_symmetry_space_group_name_H-M	'P1'
_symmetry_Int_Tables_number	1
_symmetry_cell_setting	triclinic
loop_
_symmetry_equiv_pos_as_xyz
  x,y,z
_cell_length_a	13.897448
_cell_length_b	21.395364
_cell_length_c	21.395355
_cell_angle_alpha	90.024552
_cell_angle_beta	90.015629
_cell_angle_gamma	90.032644
loop_
_atom_site_label
_atom_site_type_symbol
_atom_site_fract_x
_atom_site_fract_y
_atom_site_fract_z
Zn1	Zn	-0.383742	0.957916	0.354274
Zn2	Zn	-0.545021	0.957842	0.249502
Zn3	Zn	-0.383784	0.853131	0.249511
Zn4	Zn	-0.545039	0.853124	0.354242
O5	O	-0.464396	0.905503	0.301882
O6	O	-0.405111	1.045584	0.340385
O7	O	-0.523643	0.943924	0.161825
O8	O	-0.248797	0.867065	0.263425
O9	O	-0.523602	1.045530	0.263410
O10	O	-0.248766	0.944050	0.340394
O11	O	-0.405183	0.866993	0.161832
O12	O	-0.405200	0.765452	0.263394
O13	O	-0.523632	0.867053	0.441924
O14	O	-0.523673	0.765447	0.340340
O15	O	-0.405128	0.944043	0.441948
O16	O	-0.680005	0.943917	0.263379
O17	O	-0.680018	0.866981	0.340331
C18	C	-0.464443	0.742716	0.301865
C19	C	-0.464487	0.673074	0.301872
C20	C	-0.402889	0.640412	0.342015
C21	C	-0.402864	0.574976	0.342018
C22	C	-0.464453	0.542206	0.301883
C23	C	-0.526054	0.574876	0.261732
C24	C	-0.526071	0.640311	0.261727
C25	C	-0.551319	0.438494	0.296849
C26	C	-0.551304	0.373061	0.296859
C27	C	-0.464400	0.340385	0.301897
C28	C	-0.377508	0.373150	0.306939
C29	C	-0.377525	0.438584	0.306933
C30	C	-0.464441	0.471254	0.301885
C31	C	-0.402769	0.236770	0.342045
C32	C	-0.402742	0.171334	0.342043
C33	C	-0.525941	0.171235	0.261761
C34	C	-0.525960	0.236670	0.261760
C35	C	-0.464375	0.269434	0.301905
C36	C	-0.715011	0.905457	0.301864
C37	C	-0.822225	0.905495	0.301877
C38	C	-1.018520	0.905561	0.301917
C39	C	-0.909287	0.905523	0.301897
C40	C	-0.212803	0.905566	0.301914
C41	C	-0.105590	0.905593	0.301928
C42	C	-0.464377	0.905555	0.465306
C43	C	-0.464369	0.905577	0.534947
C44	C	-0.464350	1.068926	0.301900
C45	C	-0.464330	1.138568	0.301908
C46	C	-0.464346	0.905487	0.139095
C47	C	-0.464083	0.905587	0.069454
C48	C	-0.402661	0.945664	0.567673
C49	C	-0.402619	0.945664	0.633109
C50	C	-0.464303	0.905582	0.665815
C51	C	-0.526015	0.865487	0.633081
C52	C	-0.526048	0.865485	0.567647
C53	C	-0.551157	0.900619	0.769484
C54	C	-0.551126	0.900626	0.834917
C55	C	-0.464201	0.905586	0.867636
C56	C	-0.377304	0.910553	0.834915
C57	C	-0.377337	0.910550	0.769480
C58	C	-0.464274	0.905580	0.736768
C59	C	-0.402443	0.945674	0.971315
C60	C	-0.402400	0.945669	1.036752
C61	C	-0.525804	0.865496	1.036723
C62	C	-0.525838	0.865498	0.971287
C63	C	-0.464159	0.905591	0.938587
H64	H	-0.622056	0.346389	0.292756
C65	C	-0.646921	0.474432	0.291311
H66	H	-0.698667	0.445549	0.288320
H67	H	-0.645600	0.499942	0.254993
H68	H	-0.655480	0.499969	0.327214
C69	C	-0.593805	0.538832	0.217589
H70	H	-0.584980	0.495183	0.223346
H71	H	-0.579598	0.549538	0.175505
H72	H	-0.658640	0.549531	0.226689
H73	H	-0.576088	0.144554	0.229083
C74	C	-0.335115	0.539040	0.386184
H75	H	-0.298446	0.567925	0.410095
H76	H	-0.293022	0.513517	0.362274
H77	H	-0.372089	0.513515	0.413441
C78	C	-0.281955	0.474626	0.312473
H79	H	-0.294417	0.518275	0.311753
H80	H	-0.241299	0.463906	0.278438
H81	H	-0.251197	0.463939	0.350657
C82	C	-0.593840	0.676241	0.217573
H83	H	-0.630522	0.647355	0.193672
H84	H	-0.556891	0.701775	0.190314
H85	H	-0.635933	0.701754	0.241498
H86	H	-0.352576	0.144741	0.374732
H87	H	-0.576235	0.832851	0.659715
C88	C	-0.335148	0.676451	0.386170
H89	H	-0.343984	0.720100	0.380423
H90	H	-0.270313	0.665754	0.377080
H91	H	-0.349371	0.665741	0.428254
H92	H	-0.352617	0.263448	0.374730
C93	C	-0.281908	0.337215	0.312484
H94	H	-0.294338	0.293553	0.311759
H95	H	-0.251157	0.347973	0.350662
H96	H	-0.241258	0.347943	0.278443
H97	H	-0.352436	0.978310	0.541053
H98	H	-0.306583	0.914592	0.742841
C99	C	-0.334746	0.989766	0.669115
H100	H	-0.298023	1.013646	0.640269
H101	H	-0.292710	0.965816	0.694634
H102	H	-0.371642	1.017056	0.694649
C103	C	-0.593943	0.821396	0.531646
H104	H	-0.630680	0.797527	0.560494
H105	H	-0.557075	0.794105	0.506102
H106	H	-0.635979	0.845363	0.506138
H107	H	-0.306522	0.914593	0.861553
C108	C	-0.593728	0.272601	0.217609
H109	H	-0.630412	0.243714	0.193709
H110	H	-0.556778	0.298132	0.190349
H111	H	-0.635821	0.298117	0.241532
H112	H	-0.352215	0.978317	0.944689
H113	H	-0.352145	0.978312	1.063396
C114	C	-0.593661	0.821411	1.072692
H115	H	-0.584810	0.827157	1.116350
H116	H	-0.579570	0.779316	1.061953
H117	H	-0.658475	0.830573	1.061973
H118	H	-0.576093	0.832859	0.944641
H119	H	-0.621882	0.896586	0.861553
C120	C	-0.646762	0.895026	0.733498
H121	H	-0.698503	0.892036	0.762356
H122	H	-0.645394	0.858674	0.708009
H123	H	-0.655371	0.930887	0.707937
