data_functionalizedCrystal
_audit_creation_method	'MofGen! by Chris Wilmer'
_symmetry_space_group_name_H-M	'P1'
_symmetry_Int_Tables_number	1
_symmetry_cell_setting	triclinic
loop_
_symmetry_equiv_pos_as_xyz
  x,y,z
_cell_length_a	10.654550
_cell_length_b	10.489741
_cell_length_c	9.730223
_cell_angle_alpha	89.998920
_cell_angle_beta	89.996251
_cell_angle_gamma	84.512038
loop_
_atom_site_label
_atom_site_type_symbol
_atom_site_fract_x
_atom_site_fract_y
_atom_site_fract_z
O1	O	1.667918	0.179156	-0.114402
O2	O	1.302447	0.196226	-0.114380
O3	O	1.493499	0.002089	-0.114383
O4	O	1.476867	0.373293	-0.114399
O5	O	1.493497	0.002094	0.114196
O6	O	1.302445	0.196231	0.114200
O7	O	1.667916	0.179161	0.114178
Zn8	Zn	1.485180	0.187697	0.150481
Zn9	Zn	1.485183	0.187690	-0.150683
O10	O	1.476864	0.373298	0.114181
C11	C	1.255648	0.194975	-0.000087
C12	C	1.116203	0.191225	-0.000079
C13	C	1.036771	0.305530	-0.000103
C14	C	0.905748	0.301999	-0.000127
C15	C	0.933603	0.069849	-0.000107
C16	C	1.064623	0.073381	-0.000073
C17	C	1.020688	0.439560	-0.000121
C18	C	0.889665	0.436029	-0.000145
C19	C	1.492241	-0.045439	-0.000094
C20	C	1.488483	-0.187067	-0.000096
C21	C	1.366923	-0.255148	-0.000099
C22	C	1.424346	-0.347296	0.112599
C23	C	1.424377	-0.347276	-0.112763
C24	C	1.545956	-0.277350	0.112695
C25	C	1.545970	-0.277319	-0.112768
C26	C	1.603481	-0.369440	-0.000043
C27	C	1.714715	0.180412	-0.000118
C28	C	1.854160	0.184162	-0.000136
C29	C	1.478122	0.420826	-0.000111
C30	C	1.481880	0.562454	-0.000118
N31	N	1.485187	0.187700	0.356017
N32	N	1.485186	0.187677	-0.356220
C33	C	1.569807	0.101766	0.427942
C34	C	1.569803	0.101751	0.571825
C35	C	1.400557	0.273615	0.571846
C36	C	1.400555	0.273623	0.427966
C37	C	1.667524	0.002545	0.427931
C38	C	1.667520	0.002530	0.571814
H39	H	0.844012	0.476536	0.098538
C40	C	0.833309	0.504226	-0.129393
C41	C	0.920256	0.562765	-0.233569
C42	C	0.863901	0.630954	-0.362815
C43	C	0.720600	0.640603	-0.387885
C44	C	0.633645	0.582063	-0.283706
C45	C	0.689999	0.513874	-0.154460
H46	H	1.026344	0.555624	-0.215013
H47	H	0.928272	0.674289	-0.439934
H48	H	0.678883	0.691080	-0.483560
H49	H	0.527557	0.589204	-0.302262
H50	H	0.625629	0.470538	-0.077340
H51	H	1.266977	-0.205449	0.000020
C52	C	1.797901	0.032062	0.624587
C53	C	1.916265	-0.056718	0.586355
C54	C	2.046636	-0.027182	0.639134
C55	C	2.058644	0.091135	0.730146
C56	C	1.940276	0.179924	0.768383
C57	C	1.809905	0.150387	0.715603
H58	H	1.907379	-0.144311	0.518978
H59	H	2.134259	-0.092910	0.610828
H60	H	2.155152	0.113000	0.769216
H61	H	1.949162	0.267516	0.835759
H62	H	1.722282	0.216115	0.743909
H63	H	1.372910	-0.378281	0.207883
H64	H	1.597345	-0.246540	0.208079
H65	H	1.331651	0.343570	0.630442
C66	C	1.354874	-0.389098	-0.241478
C67	C	1.216277	-0.338366	-0.266195
C68	C	1.146764	-0.380183	-0.394902
C69	C	1.215849	-0.472732	-0.498893
C70	C	1.354454	-0.523470	-0.474180
C71	C	1.423967	-0.481653	-0.345472
H72	H	1.165129	-0.269851	-0.189212
H73	H	1.044159	-0.342624	-0.413196
H74	H	1.164392	-0.503688	-0.594170
H75	H	1.405602	-0.591985	-0.551163
H76	H	1.526572	-0.519212	-0.327179
H77	H	1.703518	-0.418912	0.000014
C78	C	1.790725	0.044510	0.367625
C79	C	1.873612	-0.047228	0.274103
C80	C	1.996813	-0.005259	0.213798
C81	C	2.037127	0.128449	0.247015
C82	C	1.954239	0.220195	0.340541
C83	C	1.831038	0.178226	0.400846
H84	H	1.843770	-0.146214	0.249510
H85	H	2.058172	-0.073177	0.144564
H86	H	2.128328	0.159517	0.202374
H87	H	1.984080	0.319181	0.365135
H88	H	1.769679	0.246143	0.470081
H89	H	1.331641	0.343587	0.369406
H90	H	1.129293	-0.019697	-0.000034
H91	H	1.597362	-0.246302	-0.208058
H92	H	1.636964	-0.090122	0.616435
H93	H	0.891590	-0.026096	-0.000124
H94	H	1.050043	0.491981	0.095543
H95	H	1.646035	-0.095499	0.388882
H96	H	1.056364	0.482235	-0.098810
