data_functionalizedCrystal
_audit_creation_method	'MofGen! by Chris Wilmer'
_symmetry_space_group_name_H-M	'P1'
_symmetry_Int_Tables_number	1
_symmetry_cell_setting	triclinic
loop_
_symmetry_equiv_pos_as_xyz
  x,y,z
_cell_length_a	16.992694
_cell_length_b	16.974885
_cell_length_c	16.176319
_cell_angle_alpha	93.647026
_cell_angle_beta	90.001613
_cell_angle_gamma	92.975758
loop_
_atom_site_label
_atom_site_type_symbol
_atom_site_fract_x
_atom_site_fract_y
_atom_site_fract_z
O1	O	-1.040213	0.167649	-0.057432
O2	O	-0.811929	0.165809	-0.057579
O3	O	-0.932436	0.052030	-0.065170
O4	O	-0.919706	0.281428	-0.049841
O5	O	-0.932419	0.052021	0.072323
O6	O	-0.811913	0.165801	0.079913
O7	O	-1.040196	0.167640	0.080061
Cu8	Cu	-0.926053	0.166719	0.092541
Cu9	Cu	-0.926073	0.166730	-0.070060
O10	O	-0.919690	0.281420	0.087651
C11	C	-0.782711	0.163439	0.011006
C12	C	-0.695675	0.156379	0.010525
C13	C	-0.931943	0.022537	0.001604
C14	C	-0.930492	-0.065330	-0.004273
C15	C	-1.069414	0.170010	0.011474
C16	C	-1.156451	0.177070	0.011950
C17	C	-0.645360	0.224494	0.015077
C18	C	-0.563581	0.217856	0.014645
C19	C	-0.532117	0.143103	0.009654
C20	C	-0.582438	0.074983	0.005104
C21	C	-0.664216	0.081622	0.005542
C22	C	-0.288549	0.115589	0.007838
C23	C	-0.206765	0.108955	0.007398
C24	C	-0.187914	0.251829	0.016939
C25	C	-0.269694	0.258461	0.017372
C26	C	-0.320007	0.190341	0.012827
N27	N	-0.448526	0.136316	0.009210
N28	N	-0.403597	0.197128	0.013277
N29	N	-0.926045	0.166712	0.206906
C30	C	-0.929799	-0.106622	0.067909
C31	C	-0.928440	-0.189183	0.062380
C32	C	-0.927768	-0.230450	-0.015333
C33	C	-0.928464	-0.189152	-0.087521
C34	C	-0.929828	-0.106594	-0.081991
C35	C	-0.923694	-0.477364	-0.039910
C36	C	-0.922327	-0.559928	-0.045435
C37	C	-0.922305	-0.559954	0.104466
C38	C	-0.923664	-0.477393	0.109990
C39	C	-0.924364	-0.436103	0.037802
N40	N	-0.926377	-0.314840	-0.020987
N41	N	-0.925761	-0.351714	0.043457
C42	C	-0.920182	0.310912	0.020876
C43	C	-0.921634	0.398780	0.026748
N44	N	-0.926087	0.166731	-0.184425
C45	C	-0.979421	0.116353	0.246811
C46	C	-0.979425	0.116353	0.333358
C47	C	-0.926056	0.166715	0.379999
C48	C	-0.872674	0.217076	0.340088
C49	C	-0.872667	0.217072	0.253543
C50	C	-0.872701	0.217093	0.689118
C51	C	-0.872714	0.217095	0.775669
C52	C	-0.979459	0.116373	0.768933
C53	C	-0.979452	0.116369	0.682387
C54	C	-0.926068	0.166727	0.642484
C55	C	-0.926063	0.166726	0.548640
C56	C	-0.926064	0.166721	0.473842
H57	H	-0.670971	0.285366	0.019140
H58	H	-0.927922	-0.222759	-0.150796
H59	H	-0.556814	0.014118	0.001053
H60	H	-0.930333	-0.073028	0.131191
H61	H	-1.022888	0.075346	0.365847
H62	H	-0.924228	-0.443800	0.173272
H63	H	-0.829251	0.258107	0.813644
H64	H	-1.022913	0.075362	0.644414
H65	H	-0.930393	-0.072975	-0.140769
H66	H	-0.921772	-0.593525	-0.108721
H67	H	-0.295305	0.319332	0.021426
H68	H	-1.022884	0.075346	0.208841
H69	H	-0.924262	-0.443755	-0.098690
H70	H	-0.927879	-0.222800	0.121158
H71	H	-0.146940	0.307287	0.020642
H72	H	-0.829202	0.258078	0.221053
H73	H	-0.181151	0.048079	0.003333
H74	H	-1.022925	0.075367	0.801431
H75	H	-0.829235	0.258097	0.656635
H76	H	-0.522618	0.273322	0.018350
H77	H	-0.329506	0.060121	0.004137
H78	H	-0.829216	0.258080	0.378068
H79	H	-0.705182	0.026156	0.001835
H80	H	-0.921736	-0.593581	0.163238
