data_functionalizedCrystal
_audit_creation_method	'MofGen! by Chris Wilmer'
_symmetry_space_group_name_H-M	'P1'
_symmetry_Int_Tables_number	1
_symmetry_cell_setting	triclinic
loop_
_symmetry_equiv_pos_as_xyz
  x,y,z
_cell_length_a	14.421503
_cell_length_b	19.288864
_cell_length_c	19.288865
_cell_angle_alpha	96.863755
_cell_angle_beta	90.000948
_cell_angle_gamma	89.978553
loop_
_atom_site_label
_atom_site_type_symbol
_atom_site_fract_x
_atom_site_fract_y
_atom_site_fract_z
O1	O	0.077420	-0.921353	0.086638
O2	O	0.327420	-0.671353	0.336638
O3	O	0.577420	-0.421353	0.586638
O4	O	0.827420	-0.171353	0.836638
O5	O	0.077358	-0.719092	0.098327
O6	O	0.327358	-0.469092	0.348327
O7	O	0.577358	-0.219092	0.598327
O8	O	0.827358	0.030908	0.848327
O9	O	0.077372	-0.826067	-0.008648
O10	O	0.327372	-0.576067	0.241352
O11	O	0.577372	-0.326067	0.491352
O12	O	0.827372	-0.076067	0.741352
O13	O	0.077405	-0.814378	0.193613
O14	O	0.327405	-0.564378	0.443613
O15	O	0.577405	-0.314378	0.693613
O16	O	0.827405	-0.064378	0.943613
O17	O	-0.076851	-0.826049	-0.008632
O18	O	0.173149	-0.576049	0.241368
O19	O	0.423149	-0.326049	0.491368
O20	O	0.673149	-0.076049	0.741368
O21	O	-0.076866	-0.719074	0.098343
O22	O	0.173134	-0.469074	0.348343
O23	O	0.423134	-0.219074	0.598343
O24	O	0.673134	0.030926	0.848343
O25	O	-0.076804	-0.921335	0.086654
O26	O	0.173196	-0.671335	0.336654
O27	O	0.423196	-0.421335	0.586654
O28	O	0.673196	-0.171335	0.836654
Cu29	Cu	-0.090917	-0.820203	0.092500
Cu30	Cu	0.159083	-0.570203	0.342500
Cu31	Cu	0.409083	-0.320203	0.592500
Cu32	Cu	0.659083	-0.070203	0.842500
Cu33	Cu	0.091470	-0.820224	0.092481
Cu34	Cu	0.341470	-0.570224	0.342481
Cu35	Cu	0.591470	-0.320224	0.592481
Cu36	Cu	0.841470	-0.070224	0.842481
O37	O	-0.076818	-0.814360	0.193629
O38	O	0.173182	-0.564360	0.443629
O39	O	0.423182	-0.314360	0.693629
O40	O	0.673182	-0.064360	0.943629
C41	C	0.000238	-0.693207	0.097959
C42	C	0.250238	-0.443207	0.347959
C43	C	0.500238	-0.193207	0.597959
C44	C	0.750238	0.056793	0.847959
C45	C	0.000213	-0.616103	0.096830
C46	C	0.250213	-0.366103	0.346830
C47	C	0.500213	-0.116103	0.596830
C48	C	0.750213	0.133897	0.846830
N49	N	-0.219198	-0.820193	0.092513
N50	N	0.030802	-0.570193	0.342513
N51	N	0.280802	-0.320193	0.592513
N52	N	0.530802	-0.070193	0.842513
C53	C	0.000257	-0.825682	-0.034516
C54	C	0.250257	-0.575682	0.215484
C55	C	0.500257	-0.325682	0.465484
C56	C	0.750257	-0.075682	0.715484
C57	C	0.000249	-0.824553	-0.111620
C58	C	0.250249	-0.574553	0.138380
C59	C	0.500249	-0.324553	0.388380
C60	C	0.750249	-0.074553	0.638380
C61	C	-0.468858	-0.770720	0.141956
C62	C	-0.218858	-0.520720	0.391956
C63	C	0.031142	-0.270720	0.641956
C64	C	0.281142	-0.020720	0.891956
C65	C	-0.530639	-0.833441	0.155241
C66	C	-0.280639	-0.583441	0.405241
C67	C	-0.030639	-0.333441	0.655241
C68	C	0.219361	-0.083441	0.905241
C69	C	-0.408359	-0.820210	0.092496
C70	C	-0.158359	-0.570210	0.342496
C71	C	0.091641	-0.320210	0.592496
C72	C	0.341641	-0.070210	0.842496
C73	C	-0.530673	-0.757505	0.079227
C74	C	-0.280673	-0.507505	0.329227
C75	C	-0.030673	-0.257505	0.579227
C76	C	0.219327	-0.007505	0.829227
C77	C	-0.591081	-0.820221	0.092481
C78	C	-0.341081	-0.570221	0.342481
C79	C	-0.091081	-0.320221	0.592481
C80	C	0.158919	-0.070221	0.842481
C81	C	-0.468779	-0.882963	0.105812
C82	C	-0.218779	-0.632963	0.355812
C83	C	0.031221	-0.382963	0.605812
C84	C	0.281221	-0.132963	0.855812
C85	C	-0.468808	-0.806986	0.029771
C86	C	-0.218808	-0.556986	0.279771
C87	C	0.031192	-0.306986	0.529771
C88	C	0.281192	-0.056986	0.779771
C89	C	-0.530560	-0.869753	0.043030
C90	C	-0.280560	-0.619753	0.293030
C91	C	-0.030560	-0.369753	0.543030
C92	C	0.219440	-0.119753	0.793030
C93	C	-0.303098	-0.820203	0.092506
C94	C	-0.053098	-0.570203	0.342506
C95	C	0.196902	-0.320203	0.592506
C96	C	0.446902	-0.070203	0.842506
C97	C	-0.696340	-0.820235	0.092471
C98	C	-0.446340	-0.570235	0.342471
C99	C	-0.196340	-0.320235	0.592471
C100	C	0.053660	-0.070235	0.842471
N101	N	0.219752	-0.820239	0.092463
N102	N	0.469752	-0.570239	0.342463
N103	N	0.719752	-0.320239	0.592463
N104	N	0.969752	-0.070239	0.842463
C105	C	0.000318	-0.947220	0.087022
C106	C	0.250318	-0.697220	0.337022
C107	C	0.500318	-0.447220	0.587022
C108	C	0.750318	-0.197220	0.837022
C109	C	0.000349	-1.024324	0.088151
C110	C	0.250349	-0.774324	0.338151
C111	C	0.500349	-0.524324	0.588151
C112	C	0.750349	-0.274324	0.838151
C113	C	0.000238	-0.571407	0.159598
C114	C	0.250238	-0.321407	0.409598
C115	C	0.500238	-0.071407	0.659598
C116	C	0.750238	0.178593	0.909598
C117	C	0.000248	-0.498960	0.158537
C118	C	0.250248	-0.248960	0.408537
C119	C	0.500248	0.001040	0.658537
C120	C	0.750248	0.251040	0.908537
C121	C	0.000252	-0.471212	0.094705
C122	C	0.250252	-0.221212	0.344705
C123	C	0.500252	0.028788	0.594705
C124	C	0.750252	0.278788	0.844705
C125	C	0.000222	-0.515918	0.031929
C126	C	0.250222	-0.265918	0.281929
C127	C	0.500222	-0.015918	0.531929
C128	C	0.750222	0.234082	0.781929
C129	C	0.000202	-0.588364	0.032991
C130	C	0.250202	-0.338364	0.282991
C131	C	0.500202	-0.088364	0.532991
C132	C	0.750202	0.161636	0.782991
C133	C	0.054306	-0.362956	0.044520
C134	C	0.304306	-0.112956	0.294520
C135	C	0.554306	0.137044	0.544520
C136	C	0.804306	0.387044	0.794520
C137	C	0.054331	-0.290512	0.043460
C138	C	0.304331	-0.040512	0.293460
C139	C	0.554331	0.209488	0.543460
C140	C	0.804331	0.459488	0.793460
C141	C	0.000308	-0.247767	0.091425
C142	C	0.250308	0.002233	0.341425
C143	C	0.500308	0.252233	0.591425
C144	C	0.750308	0.502233	0.841425
C145	C	-0.053729	-0.277473	0.140462
C146	C	0.196271	-0.027473	0.390462
C147	C	0.446271	0.222527	0.640462
C148	C	0.696271	0.472527	0.890462
C149	C	-0.053749	-0.349919	0.141524
C150	C	0.196251	-0.099919	0.391524
C151	C	0.446251	0.150081	0.641524
C152	C	0.696251	0.400081	0.891524
C153	C	0.000272	-0.392658	0.093546
C154	C	0.250272	-0.142658	0.343546
C155	C	0.500272	0.107342	0.593546
C156	C	0.750272	0.357342	0.843546
C157	C	0.000342	-0.124514	0.153047
C158	C	0.250342	0.125486	0.403047
C159	C	0.500342	0.375486	0.653047
C160	C	0.750342	0.625486	0.903047
C161	C	0.000346	-0.052066	0.151984
C162	C	0.250346	0.197934	0.401984
C163	C	0.500346	0.447934	0.651984
C164	C	0.750346	0.697934	0.901984
C165	C	0.000329	-0.069026	0.025374
C166	C	0.250329	0.180974	0.275374
C167	C	0.500329	0.430974	0.525374
C168	C	0.750329	0.680974	0.775374
C169	C	0.000316	-0.141473	0.026439
C170	C	0.250316	0.108527	0.276439
C171	C	0.500316	0.358527	0.526439
C172	C	0.750316	0.608527	0.776439
C173	C	0.000326	-0.169212	0.090277
C174	C	0.250326	0.080788	0.340277
C175	C	0.500326	0.330788	0.590277
C176	C	0.750326	0.580788	0.840277
C177	C	0.000264	-0.887321	-0.156316
C178	C	0.250264	-0.637321	0.093684
C179	C	0.500264	-0.387321	0.343684
C180	C	0.750264	-0.137321	0.593684
C181	C	0.000278	-0.886260	-0.228763
C182	C	0.250278	-0.636260	0.021237
C183	C	0.500278	-0.386260	0.271237
C184	C	0.750278	-0.136260	0.521237
C185	C	0.000259	-0.822428	-0.256511
C186	C	0.250259	-0.572428	-0.006511
C187	C	0.500259	-0.322428	0.243489
C188	C	0.750259	-0.072428	0.493489
C189	C	0.000250	-0.759652	-0.211805
C190	C	0.250250	-0.509652	0.038195
C191	C	0.500250	-0.259652	0.288195
C192	C	0.750250	-0.009652	0.538195
C193	C	0.000244	-0.760714	-0.139359
C194	C	0.250244	-0.510714	0.110641
C195	C	0.500244	-0.260714	0.360641
C196	C	0.750244	-0.010714	0.610641
C197	C	-0.053778	-0.772242	-0.364793
C198	C	0.196222	-0.522242	-0.114793
C199	C	0.446222	-0.272242	0.135207
C200	C	0.696222	-0.022242	0.385207
C201	C	-0.053778	-0.771182	-0.437237
C202	C	0.196222	-0.521182	-0.187237
C203	C	0.446222	-0.271182	0.062763
C204	C	0.696222	-0.021182	0.312763
C205	C	0.000279	-0.819148	-0.479956
C206	C	0.250279	-0.569148	-0.229956
C207	C	0.500279	-0.319148	0.020044
C208	C	0.750279	-0.069148	0.270044
C209	C	0.054324	-0.868186	-0.450224
C210	C	0.304324	-0.618186	-0.200224
C211	C	0.554324	-0.368186	0.049776
C212	C	0.804324	-0.118186	0.299776
C213	C	0.054319	-0.869248	-0.377778
C214	C	0.304319	-0.619248	-0.127778
C215	C	0.554319	-0.369248	0.122222
C216	C	0.804319	-0.119248	0.372222
C217	C	0.000265	-0.821269	-0.335065
C218	C	0.250265	-0.571269	-0.085065
C219	C	0.500265	-0.321269	0.164935
C220	C	0.750265	-0.071269	0.414935
C221	C	0.000310	-0.880770	-0.603209
C222	C	0.250310	-0.630770	-0.353209
C223	C	0.500310	-0.380770	-0.103209
C224	C	0.750310	-0.130770	0.146791
C225	C	0.000330	-0.879707	-0.675657
C226	C	0.250330	-0.629707	-0.425657
C227	C	0.500330	-0.379707	-0.175657
C228	C	0.750330	-0.129707	0.074343
C229	C	0.000293	-0.753097	-0.658697
C230	C	0.250293	-0.503097	-0.408697
C231	C	0.500293	-0.253097	-0.158697
C232	C	0.750293	-0.003097	0.091303
C233	C	0.000282	-0.754162	-0.586250
C234	C	0.250282	-0.504162	-0.336250
C235	C	0.500282	-0.254162	-0.086250
C236	C	0.750282	-0.004162	0.163750
C237	C	0.000286	-0.818001	-0.558511
C238	C	0.250286	-0.568001	-0.308511
C239	C	0.500286	-0.318001	-0.058511
C240	C	0.750286	-0.068001	0.191489
C241	C	0.000298	-0.814745	0.219497
C242	C	0.250298	-0.564745	0.469497
C243	C	0.500298	-0.314745	0.719497
C244	C	0.750298	-0.064745	0.969497
C245	C	0.000313	-0.815874	0.296601
C246	C	0.250313	-0.565874	0.546601
C247	C	0.500313	-0.315874	0.796601
C248	C	0.750313	-0.065874	1.046601
H249	H	-0.441766	-0.728909	0.183815
H250	H	-0.191766	-0.478909	0.433815
H251	H	0.058234	-0.228909	0.683815
H252	H	0.308234	0.021091	0.933815
Cl253	Cl	-0.572572	-0.850726	0.237126
Cl254	Cl	-0.322572	-0.600726	0.487126
Cl255	Cl	-0.072572	-0.350726	0.737126
Cl256	Cl	0.177428	-0.100726	0.987126
Cl257	Cl	0.122265	-0.930888	-0.340402
Cl258	Cl	0.372265	-0.680888	-0.090402
Cl259	Cl	0.622265	-0.430888	0.159598
Cl260	Cl	0.872265	-0.180888	0.409598
H261	H	0.000270	-0.939303	-0.133736
H262	H	0.250270	-0.689303	0.116264
H263	H	0.500270	-0.439303	0.366264
H264	H	0.750270	-0.189303	0.616264
H265	H	0.000390	-0.046435	-0.026600
H266	H	0.250390	0.203565	0.223400
H267	H	0.500390	0.453565	0.473400
H268	H	0.750390	0.703565	0.723400
H269	H	-0.097780	-0.731250	-0.461439
H270	H	0.152220	-0.481250	-0.211439
H271	H	0.402220	-0.231250	0.038561
H272	H	0.652220	0.018750	0.288561
Cl273	Cl	-0.426987	-0.964861	0.123226
Cl274	Cl	-0.176987	-0.714861	0.373226
Cl275	Cl	0.073013	-0.464861	0.623226
Cl276	Cl	0.323013	-0.214861	0.873226
H277	H	0.000266	-0.462561	0.209652
H278	H	0.250266	-0.212561	0.459652
H279	H	0.500266	0.037439	0.709652
H280	H	0.750266	0.287439	0.959652
Cl281	Cl	0.000172	-0.644557	-0.045924
Cl282	Cl	0.250172	-0.394557	0.204076
Cl283	Cl	0.500172	-0.144557	0.454076
Cl284	Cl	0.750172	0.105443	0.704076
H285	H	-0.557862	-0.704472	0.068011
H286	H	-0.307862	-0.454472	0.318011
H287	H	-0.057862	-0.204472	0.568011
H288	H	0.192138	0.045528	0.818011
H289	H	0.000301	-0.177866	-0.024674
H290	H	0.250301	0.072134	0.225326
H291	H	0.500301	0.322134	0.475326
H292	H	0.750301	0.572134	0.725326
Cl293	Cl	0.122272	-0.253173	-0.018179
Cl294	Cl	0.372272	-0.003173	0.231821
Cl295	Cl	0.622272	0.246827	0.481821
Cl296	Cl	0.872272	0.496827	0.731821
H297	H	0.000232	-0.709599	-0.102967
H298	H	0.250232	-0.459599	0.147033
H299	H	0.500232	-0.209599	0.397033
H300	H	0.750232	0.040401	0.647033
Cl301	Cl	0.000297	-0.965174	-0.284963
Cl302	Cl	0.250297	-0.715174	-0.034963
Cl303	Cl	0.500297	-0.465174	0.215037
Cl304	Cl	0.750297	-0.215174	0.465037
H305	H	0.098343	-0.907244	-0.485005
H306	H	0.348343	-0.657244	-0.235005
H307	H	0.598343	-0.407244	0.014995
H308	H	0.848343	-0.157244	0.264995
Cl309	Cl	-0.572134	-0.934445	-0.021560
Cl310	Cl	-0.322134	-0.684445	0.228440
Cl311	Cl	-0.072134	-0.434445	0.478440
Cl312	Cl	0.177866	-0.184445	0.728440
Cl313	Cl	-0.121649	-0.223744	0.200765
Cl314	Cl	0.128351	0.026256	0.450765
Cl315	Cl	0.378351	0.276256	0.700765
Cl316	Cl	0.628351	0.526256	0.950765
Cl317	Cl	-0.426838	-0.789672	-0.052090
Cl318	Cl	-0.176838	-0.539672	0.197910
Cl319	Cl	0.073162	-0.289672	0.447910
Cl320	Cl	0.323162	-0.039672	0.697910
Cl321	Cl	0.000247	-0.606275	0.239852
Cl322	Cl	0.250247	-0.356275	0.489852
Cl323	Cl	0.500247	-0.106275	0.739852
Cl324	Cl	0.750247	0.143725	0.989852
Cl325	Cl	-0.121682	-0.387262	0.203164
Cl326	Cl	0.128318	-0.137262	0.453164
Cl327	Cl	0.378318	0.112738	0.703164
Cl328	Cl	0.628318	0.362738	0.953164
Cl329	Cl	0.000346	-0.159390	0.233300
Cl330	Cl	0.250346	0.090610	0.483300
Cl331	Cl	0.500346	0.340610	0.733300
Cl332	Cl	0.750346	0.590610	0.983300
Cl333	Cl	0.000373	0.004125	0.230900
Cl334	Cl	0.250373	0.254125	0.480900
Cl335	Cl	0.500373	0.504125	0.730900
Cl336	Cl	0.750373	0.754125	0.980900
H337	H	0.098304	-0.397755	0.005460
H338	H	0.348304	-0.147755	0.255460
H339	H	0.598304	0.102245	0.505460
H340	H	0.848304	0.352245	0.755460
Cl341	Cl	0.000311	-0.961023	-0.568333
Cl342	Cl	0.250311	-0.711023	-0.318333
Cl343	Cl	0.500311	-0.461023	-0.068333
Cl344	Cl	0.750311	-0.211023	0.181667
H345	H	0.000347	-0.930822	-0.712049
H346	H	0.250347	-0.680822	-0.462049
H347	H	0.500347	-0.430822	-0.212049
H348	H	0.750347	-0.180822	0.037951
H349	H	-0.097802	-0.733180	-0.330016
H350	H	0.152198	-0.483180	-0.080016
H351	H	0.402198	-0.233180	0.169984
H352	H	0.652198	0.016820	0.419984
Cl353	Cl	0.000221	-0.481037	-0.048318
Cl354	Cl	0.250221	-0.231037	0.201682
Cl355	Cl	0.500221	0.018963	0.451682
Cl356	Cl	0.750221	0.268963	0.701682
H357	H	0.000282	-0.701123	-0.681288
H358	H	0.250282	-0.451123	-0.431288
H359	H	0.500282	-0.201123	-0.181288
H360	H	0.750282	0.048877	0.068712
H361	H	0.000265	-0.703049	-0.549857
H362	H	0.250265	-0.453049	-0.299857
H363	H	0.500265	-0.203049	-0.049857
H364	H	0.750265	0.046951	0.200143
Cl365	Cl	0.000233	-0.679405	-0.246686
Cl366	Cl	0.250233	-0.429405	0.003314
Cl367	Cl	0.500233	-0.179405	0.253314
Cl368	Cl	0.750233	0.070595	0.503314
