data_functionalizedCrystal
_audit_creation_method	'MofGen! by Chris Wilmer'
_symmetry_space_group_name_H-M	'P1'
_symmetry_Int_Tables_number	1
_symmetry_cell_setting	triclinic
loop_
_symmetry_equiv_pos_as_xyz
  x,y,z
_cell_length_a	19.188905
_cell_length_b	19.188930
_cell_length_c	10.868271
_cell_angle_alpha	89.989749
_cell_angle_beta	89.988558
_cell_angle_gamma	83.139668
loop_
_atom_site_label
_atom_site_type_symbol
_atom_site_fract_x
_atom_site_fract_y
_atom_site_fract_z
O1	O	0.926156	0.087085	-0.102539
O2	O	1.426156	0.587085	0.397461
O3	O	0.722842	0.098837	-0.102499
O4	O	1.222842	0.598837	0.397501
O5	O	0.830366	-0.008695	-0.102496
O6	O	1.330366	0.491305	0.397504
O7	O	0.818632	0.194617	-0.102541
O8	O	1.318632	0.694617	0.397459
O9	O	0.830357	-0.008699	0.102149
O10	O	1.330357	0.491301	0.602149
O11	O	0.722833	0.098833	0.102146
O12	O	1.222833	0.598833	0.602146
O13	O	0.926147	0.087081	0.102106
O14	O	1.426147	0.587081	0.602106
Zn15	Zn	0.824489	0.092956	0.134618
Zn16	Zn	1.324489	0.592956	0.634618
Zn17	Zn	0.824500	0.092962	-0.135010
Zn18	Zn	1.324500	0.592962	0.364990
O19	O	0.818623	0.194613	0.102103
O20	O	1.318623	0.694613	0.602103
C21	C	0.696826	0.098458	-0.000171
C22	C	1.196826	0.598458	0.499829
C23	C	0.619321	0.097324	-0.000154
C24	C	1.119321	0.597324	0.499846
C25	C	0.582934	0.096782	-0.111709
C26	C	1.082934	0.596782	0.388291
C27	C	0.510110	0.095709	-0.111724
C28	C	1.010110	0.595709	0.388276
C29	C	0.473678	0.095164	-0.000178
C30	C	0.973678	0.595164	0.499822
C31	C	0.510073	0.095710	0.111392
C32	C	1.010073	0.595710	0.611392
C33	C	0.582895	0.096790	0.111403
C34	C	1.082895	0.596790	0.611403
N35	N	0.364654	0.053734	0.082844
N36	N	0.864654	0.553734	0.582844
N37	N	0.295477	0.052706	0.082825
N38	N	0.795477	0.552706	0.582825
C39	C	0.254272	0.091911	-0.000207
C40	C	0.754272	0.591911	0.499793
N41	N	0.284857	0.132174	-0.083239
N42	N	0.784857	0.632174	0.416761
N43	N	0.354041	0.133198	-0.083223
N44	N	0.854041	0.633198	0.416777
C45	C	0.394716	0.093993	-0.000178
C46	C	0.894716	0.593993	0.499822
C47	C	0.138921	0.090206	-0.111786
C48	C	0.638921	0.590206	0.388214
C49	C	0.066095	0.089138	-0.111796
C50	C	0.566095	0.589138	0.388204
C51	C	0.066061	0.089132	0.111323
C52	C	0.566061	0.589132	0.611323
C53	C	0.138884	0.090208	0.111330
C54	C	0.638884	0.590208	0.611330
C55	C	0.175310	0.090742	-0.000228
C56	C	0.675310	0.590742	0.499772
C57	C	0.829982	-0.034708	-0.000170
C58	C	1.329982	0.465292	0.499830
C59	C	0.828841	-0.112213	-0.000159
C60	C	1.328841	0.387787	0.499841
C61	C	0.891933	-0.157142	-0.000166
C62	C	1.391933	0.342858	0.499834
C63	C	0.890861	-0.229966	-0.000185
C64	C	1.390861	0.270034	0.499815
C65	C	0.826694	-0.257857	-0.000173
C66	C	1.326694	0.242143	0.499827
C67	C	0.763594	-0.212917	-0.000174
C68	C	1.263594	0.287083	0.499826
C69	C	0.764668	-0.140095	-0.000166
C70	C	1.264668	0.359905	0.499834
N71	N	0.777643	-0.365859	0.069481
N72	N	1.277643	0.134141	0.569481
N73	N	0.776628	-0.435037	0.069477
N74	N	1.276628	0.064963	0.569477
C75	C	0.823456	-0.477265	-0.000198
C76	C	1.323456	0.022735	0.499802
N77	N	0.871348	-0.447702	-0.069852
N78	N	1.371348	0.052298	0.430148
N79	N	0.872366	-0.378518	-0.069842
N80	N	1.372366	0.121482	0.430158
C81	C	0.825523	-0.336819	-0.000182
C82	C	1.325523	0.163181	0.499818
C83	C	0.885390	-0.601159	-0.000227
C84	C	1.385390	-0.101159	0.499773
C85	C	0.884315	-0.673984	-0.000254
C86	C	1.384315	-0.173984	0.499746
C87	C	0.757047	-0.656933	-0.000230
C88	C	1.257047	-0.156933	0.499770
C89	C	0.758123	-0.584110	-0.000216
C90	C	1.258123	-0.084110	0.499784
C91	C	0.822296	-0.556228	-0.000208
C92	C	1.322296	-0.056228	0.499792
C93	C	0.952163	0.087460	-0.000225
C94	C	1.452163	0.587460	0.499775
C95	C	1.029668	0.088594	-0.000249
C96	C	1.529668	0.588594	0.499751
C97	C	0.819007	0.220626	-0.000225
C98	C	1.319007	0.720626	0.499775
C99	C	0.820148	0.298131	-0.000244
C100	C	1.320148	0.798131	0.499756
N101	N	0.824486	0.092952	0.318632
N102	N	1.324486	0.592952	0.818632
N103	N	0.824509	0.092960	-0.319024
N104	N	1.324509	0.592960	0.180976
C105	C	0.824497	0.092960	0.569638
C106	C	1.324497	0.592960	1.069638
C107	C	0.824488	0.092958	0.429960
C108	C	1.324488	0.592958	0.929960
H109	H	0.612521	0.097232	0.202248
H110	H	1.112521	0.597232	0.702248
H111	H	0.168511	0.090645	0.202170
H112	H	0.668511	0.590645	0.702170
Br113	Br	0.979024	-0.119304	-0.000190
Br114	Br	1.479024	0.380696	0.499810
H115	H	0.706747	-0.547527	-0.000203
H116	H	1.206747	-0.047527	0.499797
Br117	Br	0.188360	0.090936	-0.263181
Br118	Br	0.688360	0.590936	0.236819
Br119	Br	0.976491	-0.290954	-0.000199
Br120	Br	1.476491	0.209046	0.499801
H121	H	0.036470	0.088700	-0.202642
H122	H	0.536470	0.588700	0.297358
H123	H	0.612587	0.097216	-0.202548
H124	H	1.112587	0.597216	0.297452
Br125	Br	0.669961	-0.694777	-0.000227
Br126	Br	1.169961	-0.194777	0.499773
Br127	Br	0.972480	-0.563314	-0.000204
Br128	Br	1.472480	-0.063314	0.499796
Br129	Br	0.676510	-0.250767	-0.000173
Br130	Br	1.176510	0.249233	0.499827
H131	H	0.713289	-0.103513	-0.000161
H132	H	1.213289	0.396487	0.499839
Br133	Br	0.460631	0.094979	0.262777
Br134	Br	0.960631	0.594979	0.762777
Br135	Br	0.969948	-0.734962	-0.000276
Br136	Br	1.469948	-0.234962	0.499724
H137	H	0.480478	0.095268	-0.202569
H138	H	0.980478	0.595268	0.297431
Br139	Br	0.016624	0.088403	0.262710
Br140	Br	0.516624	0.588403	0.762710
