data_functionalizedCrystal
_audit_creation_method	'MofGen! by Chris Wilmer'
_symmetry_space_group_name_H-M	'P1'
_symmetry_Int_Tables_number	1
_symmetry_cell_setting	triclinic
loop_
_symmetry_equiv_pos_as_xyz
  x,y,z
_cell_length_a	19.288859
_cell_length_b	16.109304
_cell_length_c	18.366186
_cell_angle_alpha	89.996570
_cell_angle_beta	89.990083
_cell_angle_gamma	83.298182
loop_
_atom_site_label
_atom_site_type_symbol
_atom_site_fract_x
_atom_site_fract_y
_atom_site_fract_z
O1	O	0.921604	0.103691	-0.060560
O2	O	0.719376	0.117688	-0.060557
O3	O	0.826044	-0.010360	-0.060559
O4	O	0.814936	0.231739	-0.060558
O5	O	0.826026	-0.010367	0.060541
O6	O	0.719358	0.117681	0.060542
O7	O	0.921586	0.103685	0.060540
Zn8	Zn	0.820469	0.110682	0.079768
Zn9	Zn	0.820493	0.110690	-0.079786
O10	O	0.814918	0.231733	0.060541
C11	C	0.693489	0.117235	-0.000007
C12	C	0.616382	0.115886	-0.000007
C13	C	0.052500	0.181891	-0.000007
C14	C	0.124949	0.183166	-0.000011
C15	C	0.169476	0.108033	-0.000010
C16	C	0.141548	0.031619	-0.000024
C17	C	0.069100	0.030346	-0.000027
C18	C	0.290606	0.051997	0.042419
C19	C	0.363053	0.053273	0.042427
C20	C	0.392931	0.111956	-0.000003
C21	C	0.350353	0.169377	-0.042431
C22	C	0.277905	0.168104	-0.042434
C23	C	0.248035	0.109405	-0.000007
C24	C	0.499409	0.189747	0.000002
C25	C	0.571861	0.191019	-0.000007
C26	C	0.588458	0.039471	-0.000012
C27	C	0.516008	0.038201	-0.000011
C28	C	0.471488	0.113342	-0.000001
C29	C	0.825585	-0.041337	-0.000011
C30	C	0.824235	-0.133627	-0.000016
C31	C	0.821126	-0.345951	-0.066024
C32	C	0.819851	-0.432666	-0.066024
C33	C	0.819834	-0.432670	0.066006
C34	C	0.821104	-0.345955	0.066004
C35	C	0.821753	-0.302598	-0.000013
C36	C	0.819208	-0.476029	-0.000011
C37	C	0.817826	-0.570050	-0.000010
C38	C	0.823135	-0.208571	-0.000014
C39	C	0.947472	0.104138	-0.000012
C40	C	1.024579	0.105487	-0.000017
C41	C	0.815377	0.262710	-0.000008
C42	C	0.816727	0.355000	-0.000008
N43	N	0.820458	0.110676	0.188659
N44	N	0.820510	0.110690	-0.188677
C45	C	0.867706	0.054004	0.226759
C46	C	0.867710	0.054000	0.302987
C47	C	0.820473	0.110683	0.341112
C48	C	0.773216	0.167359	0.303003
C49	C	0.773208	0.167356	0.226777
C50	C	0.811356	0.186437	0.461873
C51	C	0.811369	0.186441	0.538098
C52	C	0.820493	0.110693	0.576220
C53	C	0.829619	0.034938	0.538107
C54	C	0.829611	0.034934	0.461881
C55	C	0.820476	0.110693	0.423767
C56	C	0.867748	0.054013	0.696974
C57	C	0.867748	0.054008	0.773203
C58	C	0.773257	0.167374	0.773218
C59	C	0.773254	0.167372	0.696990
C60	C	0.820504	0.110692	0.658873
H61	H	0.243241	0.214856	-0.076982
H62	H	0.374678	0.217164	-0.076979
C63	C	0.450432	0.272398	-0.000000
C64	C	0.481147	0.356445	-0.000005
C65	C	0.432172	0.439096	-0.000009
C66	C	0.352481	0.437700	-0.000009
C67	C	0.321761	0.353650	-0.000005
C68	C	0.370737	0.270999	-0.000000
H69	H	0.540143	0.357481	-0.000005
H70	H	0.454913	0.501315	-0.000012
H71	H	0.316227	0.498883	-0.000012
H72	H	0.262766	0.352614	-0.000005
H73	H	0.347996	0.208780	0.000003
H74	H	0.016255	0.243076	-0.000003
C75	C	0.819163	-0.480353	-0.138638
C76	C	0.879627	-0.478099	-0.193098
C77	C	0.878938	-0.525785	-0.265716
C78	C	0.817787	-0.575725	-0.283875
C79	C	0.757320	-0.577980	-0.229414
C80	C	0.758008	-0.530295	-0.156796
H81	H	0.924898	-0.441130	-0.179657
H82	H	0.923701	-0.524115	-0.306031
H83	H	0.817278	-0.611024	-0.337631
H84	H	0.712048	-0.614950	-0.242855
H85	H	0.713245	-0.531965	-0.116480
H86	H	0.819307	-0.467982	0.119754
C87	C	0.409885	-0.009891	0.089092
C88	C	0.377025	-0.074455	0.135749
C89	C	0.423856	-0.137622	0.182413
C90	C	0.503547	-0.136225	0.182421
C91	C	0.536411	-0.071658	0.135762
C92	C	0.489580	-0.008491	0.089097
H93	H	0.318030	-0.075491	0.135745
H94	H	0.399528	-0.185419	0.216953
H95	H	0.538214	-0.182985	0.216964
H96	H	0.595407	-0.070622	0.135765
H97	H	0.513908	0.039306	0.054557
H98	H	0.177806	-0.029554	-0.000025
H99	H	0.803915	0.248124	0.430840
H100	H	0.734793	0.213523	0.804259
C101	C	0.637430	-0.043177	-0.000013
C102	C	0.634327	-0.105855	-0.062901
C103	C	0.683304	-0.188505	-0.062907
C104	C	0.735382	-0.208478	-0.000023
C105	C	0.738487	-0.145799	0.062870
C106	C	0.689511	-0.063149	0.062875
H107	H	0.595774	-0.091071	-0.109455
H108	H	0.681005	-0.234904	-0.109464
H109	H	0.771638	-0.269660	-0.000027
H110	H	0.777041	-0.160582	0.109424
H111	H	0.691809	-0.016750	0.109433
H112	H	0.734783	0.213522	0.665968
C113	C	0.821798	-0.298261	0.138622
C114	C	0.821094	-0.345950	0.211238
C115	C	0.821785	-0.298255	0.283851
C116	C	0.823180	-0.202872	0.283848
C117	C	0.823884	-0.155178	0.211229
C118	C	0.823193	-0.202873	0.138616
H119	H	0.820061	-0.416563	0.211243
H120	H	0.821264	-0.333562	0.337609
H121	H	0.823692	-0.167565	0.337601
H122	H	0.824917	-0.084565	0.211225
H123	H	0.823714	-0.167566	0.084858
C124	C	0.602572	0.275071	0.000005
C125	C	0.585754	0.337391	0.062899
C126	C	0.616465	0.421445	0.062912
C127	C	0.663995	0.443180	0.000030
C128	C	0.680816	0.380859	-0.062868
C129	C	0.650105	0.296805	-0.062881
H130	H	0.550567	0.321302	0.109452
H131	H	0.604012	0.467578	0.109474
H132	H	0.686729	0.505402	0.000040
H133	H	0.716002	0.396948	-0.109421
H134	H	0.662557	0.250672	-0.109443
H135	H	0.493276	-0.024015	-0.000014
H136	H	0.046368	-0.031873	-0.000036
H137	H	0.266286	0.004206	0.076971
H138	H	0.147687	0.245385	0.000003
H139	H	0.803942	0.248126	0.569123
C140	C	0.919672	-0.008348	0.184828
C141	C	0.971644	-0.070694	0.226739
C142	C	1.023607	-0.133047	0.184805
C143	C	1.023599	-0.133054	0.100959
C144	C	0.971625	-0.070706	0.059043
C145	C	0.919661	-0.008353	0.100977
H146	H	0.971652	-0.070691	0.288811
H147	H	1.062082	-0.179201	0.215835
H148	H	1.062066	-0.179212	0.069917
H149	H	0.971617	-0.070709	-0.003029
H150	H	0.881187	0.037802	0.069947
C151	C	0.839708	-0.048392	0.580030
C152	C	0.839750	-0.048394	0.663876
C153	C	0.849868	-0.131719	0.705803
C154	C	0.859944	-0.215041	0.663883
C155	C	0.859902	-0.215042	0.580032
C156	C	0.849785	-0.131717	0.538106
H157	H	0.832291	0.013289	0.694912
H158	H	0.849898	-0.131718	0.767875
H159	H	0.867433	-0.276723	0.694920
H160	H	0.867361	-0.276725	0.548997
H161	H	0.849754	-0.131719	0.476034
C162	C	0.919715	-0.008341	0.655041
C163	C	0.971681	-0.070690	0.696957
C164	C	1.023647	-0.133044	0.655026
C165	C	1.023647	-0.133049	0.571180
C166	C	0.971679	-0.070698	0.529260
C167	C	0.919713	-0.008343	0.571190
H168	H	0.971682	-0.070688	0.759029
H169	H	1.062117	-0.179201	0.686059
H170	H	1.062116	-0.179208	0.540141
H171	H	0.971678	-0.070699	0.467188
H172	H	0.881243	0.037813	0.540157
C173	C	0.721255	0.229713	0.344937
C174	C	0.721294	0.229761	0.428783
C175	C	0.669328	0.292113	0.470715
C176	C	0.617324	0.354418	0.428801
C177	C	0.617283	0.354373	0.344950
C178	C	0.669249	0.292020	0.303018
H179	H	0.759793	0.183637	0.459814
H180	H	0.669359	0.292147	0.532787
H181	H	0.578856	0.400576	0.459842
H182	H	0.578784	0.400497	0.313919
H183	H	0.669218	0.291987	0.240946
H184	H	0.821652	-0.310652	-0.119780
H185	H	0.906187	0.007849	0.334013
H186	H	0.837040	-0.026749	0.430853
H187	H	0.906221	0.007854	0.804225
H188	H	0.734732	0.213506	0.195755
