data_functionalizedCrystal
_audit_creation_method	'MofGen! by Chris Wilmer'
_symmetry_space_group_name_H-M	'P1'
_symmetry_Int_Tables_number	1
_symmetry_cell_setting	triclinic
loop_
_symmetry_equiv_pos_as_xyz
  x,y,z
_cell_length_a	27.732064
_cell_length_b	27.732048
_cell_length_c	26.210046
_cell_angle_alpha	90.035371
_cell_angle_beta	89.996567
_cell_angle_gamma	82.646040
loop_
_atom_site_label
_atom_site_type_symbol
_atom_site_fract_x
_atom_site_fract_y
_atom_site_fract_z
O1	O	0.640919	0.057573	0.042343
O2	O	0.974253	0.390907	0.375677
O3	O	1.307586	0.724240	0.709010
O4	O	0.500127	0.066311	0.042365
O5	O	0.833460	0.399644	0.375699
O6	O	1.166794	0.732977	0.709032
O7	O	0.574896	-0.008455	0.042344
O8	O	0.908229	0.324879	0.375677
O9	O	1.241563	0.658212	0.709011
O10	O	0.566150	0.132338	0.042365
O11	O	0.899484	0.465672	0.375698
O12	O	1.232817	0.799005	0.709031
O13	O	0.574895	-0.008493	-0.042514
O14	O	0.908228	0.324840	0.290819
O15	O	1.241561	0.658173	0.624152
O16	O	0.500126	0.066272	-0.042493
O17	O	0.833459	0.399605	0.290840
O18	O	1.166792	0.732938	0.624174
O19	O	0.640918	0.057535	-0.042515
O20	O	0.974251	0.390868	0.290819
O21	O	1.307585	0.724201	0.624152
Cu22	Cu	0.570522	0.061900	-0.050252
Cu23	Cu	0.903855	0.395233	0.283081
Cu24	Cu	1.237188	0.728566	0.616415
Cu25	Cu	0.570523	0.061946	0.050103
Cu26	Cu	0.903857	0.395279	0.383436
Cu27	Cu	1.237190	0.728612	0.716769
O28	O	0.566149	0.132300	-0.042493
O29	O	0.899483	0.465633	0.290840
O30	O	1.232816	0.798966	0.624173
C31	C	0.482120	0.066106	-0.000061
C32	C	0.815453	0.399440	0.333272
C33	C	1.148786	0.732773	0.666605
C34	C	0.428465	0.065550	-0.000053
C35	C	0.761799	0.398884	0.333280
C36	C	1.095132	0.732217	0.666613
C37	C	0.051392	0.017583	-0.000089
C38	C	0.384726	0.350917	0.333244
C39	C	0.718059	0.684250	0.666577
C40	C	0.253053	0.019630	-0.000076
C41	C	0.586386	0.352963	0.333257
C42	C	0.919719	0.686296	0.666591
O43	O	0.284305	-0.017592	-0.000100
O44	O	0.617639	0.315742	0.333233
O45	O	0.950972	0.649075	0.666566
N46	N	0.272180	0.063964	-0.000067
N47	N	0.605513	0.397297	0.333266
N48	N	0.938847	0.730631	0.666600
C49	C	0.240889	0.107790	-0.000065
C50	C	0.574222	0.441123	0.333268
C51	C	0.907556	0.774456	0.666602
O52	O	0.261785	0.145546	-0.000062
O53	O	0.595119	0.478879	0.333271
O54	O	0.928452	0.812212	0.666604
C55	C	0.039230	0.105743	-0.000082
C56	C	0.372563	0.439076	0.333251
C57	C	0.705896	0.772410	0.666584
C58	C	0.020105	0.061406	-0.000086
C59	C	0.353439	0.394739	0.333247
C60	C	0.686772	0.728072	0.666581
C61	C	0.032267	-0.026750	-0.000094
C62	C	0.365601	0.306583	0.333240
C63	C	0.698934	0.639916	0.666573
C64	C	-0.018145	-0.027261	-0.000094
C65	C	0.315189	0.306072	0.333239
C66	C	0.648522	0.639405	0.666572
C67	C	-0.049432	0.016561	-0.000091
C68	C	0.283902	0.349894	0.333243
C69	C	0.617235	0.683228	0.666576
C70	C	-0.030307	0.060895	-0.000086
C71	C	0.303027	0.394228	0.333247
C72	C	0.636360	0.727561	0.666580
C73	C	0.007940	0.149568	-0.000084
C74	C	0.341273	0.482902	0.333250
C75	C	0.674606	0.816235	0.666583
C76	C	-0.042478	0.149053	-0.000089
C77	C	0.290856	0.482386	0.333244
C78	C	0.624189	0.815719	0.666577
C79	C	-0.061602	0.104715	-0.000093
C80	C	0.271731	0.438049	0.333240
C81	C	0.605064	0.771382	0.666574
C82	C	-0.112006	0.104206	-0.000084
C83	C	0.221327	0.437539	0.333250
C84	C	0.554661	0.770873	0.666583
N85	N	-0.131133	0.059872	-0.000092
N86	N	0.202200	0.393205	0.333241
N87	N	0.535533	0.726538	0.666574
C88	C	-0.099846	0.016049	-0.000096
C89	C	0.233487	0.349383	0.333237
C90	C	0.566820	0.682716	0.666571
C91	C	0.346763	0.108861	-0.000055
C92	C	0.680097	0.442194	0.333278
C93	C	1.013430	0.775528	0.666612
C94	C	0.397178	0.109373	-0.000050
C95	C	0.730511	0.442706	0.333284
C96	C	1.063845	0.776040	0.666617
C97	C	0.409338	0.021213	-0.000062
C98	C	0.742672	0.354546	0.333272
C99	C	1.076005	0.687879	0.666605
C100	C	0.358923	0.020701	-0.000063
C101	C	0.692256	0.354035	0.333270
C102	C	1.025589	0.687368	0.666604
C103	C	0.327636	0.064527	-0.000064
C104	C	0.660969	0.397860	0.333270
C105	C	0.994303	0.731194	0.666603
C106	C	-0.205716	0.014979	-0.000097
C107	C	0.127617	0.348313	0.333237
C108	C	0.460951	0.681646	0.666570
C109	C	-0.256133	0.014472	-0.000095
C110	C	0.077200	0.347805	0.333238
C111	C	0.410534	0.681139	0.666571
C112	C	-0.268289	0.102632	-0.000086
C113	C	0.065045	0.435966	0.333247
C114	C	0.398378	0.769299	0.666581
C115	C	-0.217876	0.103140	-0.000085
C116	C	0.115457	0.436473	0.333248
C117	C	0.448791	0.769806	0.666582
C118	C	-0.186590	0.059309	-0.000092
C119	C	0.146743	0.392643	0.333241
C120	C	0.480076	0.725976	0.666575
O121	O	-0.143287	0.141407	-0.000065
O122	O	0.190046	0.474741	0.333269
O123	O	0.523380	0.808074	0.666602
O124	O	-0.120752	-0.021701	-0.000110
O125	O	0.212581	0.311632	0.333224
O126	O	0.545915	0.644966	0.666557
C127	C	0.101805	0.018094	-0.000089
C128	C	0.435138	0.351428	0.333244
C129	C	0.768471	0.684761	0.666578
C130	C	0.120930	0.062428	-0.000085
C131	C	0.454263	0.395761	0.333249
C132	C	0.787596	0.729095	0.666582
C133	C	0.089642	0.106250	-0.000081
C134	C	0.422976	0.439584	0.333252
C135	C	0.756309	0.772917	0.666586
C136	C	0.171344	0.062940	-0.000079
C137	C	0.504677	0.396273	0.333254
C138	C	0.838011	0.729606	0.666587
C139	C	0.202631	0.019117	-0.000083
C140	C	0.535965	0.352451	0.333250
C141	C	0.869298	0.685784	0.666584
C142	C	0.183504	-0.025217	-0.000092
C143	C	0.516837	0.308116	0.333241
C144	C	0.850170	0.641450	0.666575
C145	C	0.133092	-0.025728	-0.000092
C146	C	0.466425	0.307605	0.333241
C147	C	0.799758	0.640939	0.666574
C148	C	0.108770	0.150585	-0.000072
C149	C	0.442103	0.483918	0.333261
C150	C	0.775437	0.817251	0.666594
C151	C	0.159183	0.151092	-0.000071
C152	C	0.492516	0.484426	0.333262
C153	C	0.825849	0.817759	0.666596
C154	C	0.190470	0.107270	-0.000075
C155	C	0.523803	0.440603	0.333259
C156	C	0.857136	0.773936	0.666592
C157	C	0.574712	-0.026481	-0.000087
C158	C	0.908045	0.306852	0.333247
C159	C	1.241378	0.640186	0.666580
C160	C	0.574159	-0.080136	-0.000091
C161	C	0.907492	0.253198	0.333243
C162	C	1.240826	0.586531	0.666576
C163	C	0.614862	-0.418948	-0.000071
C164	C	0.948196	-0.085615	0.333263
C165	C	1.281529	0.247718	0.666596
C166	C	0.612811	-0.620608	-0.000063
C167	C	0.946145	-0.287275	0.333270
C168	C	1.279478	0.046059	0.666603
O169	O	0.650032	-0.651862	-0.000047
O170	O	0.983365	-0.318528	0.333287
O171	O	1.316698	0.014805	0.666620
N172	N	0.568476	-0.639735	-0.000057
N173	N	0.901810	-0.306401	0.333276
N174	N	1.235143	0.026932	0.666610
C175	C	0.524651	-0.608442	-0.000049
C176	C	0.857985	-0.275109	0.333284
C177	C	1.191318	0.058224	0.666618
O178	O	0.486895	-0.629338	-0.000038
O179	O	0.820228	-0.296004	0.333295
O180	O	1.153561	0.037329	0.666628
C181	C	0.526703	-0.406784	-0.000053
C182	C	0.860036	-0.073450	0.333281
C183	C	1.193369	0.259883	0.666614
C184	C	0.571040	-0.387660	-0.000064
C185	C	0.904374	-0.054327	0.333269
C186	C	1.237707	0.279006	0.666602
C187	C	0.659196	-0.399825	-0.000082
C188	C	0.992530	-0.066491	0.333252
C189	C	1.325863	0.266842	0.666585
C190	C	0.659709	-0.349413	-0.000086
C191	C	0.993042	-0.016079	0.333247
C192	C	1.326375	0.317254	0.666580
C193	C	0.615887	-0.318124	-0.000080
C194	C	0.949220	0.015209	0.333253
C195	C	1.282554	0.348542	0.666587
C196	C	0.571553	-0.337248	-0.000069
C197	C	0.904886	-0.003915	0.333264
C198	C	1.238219	0.329418	0.666598
C199	C	0.482878	-0.375493	-0.000041
C200	C	0.816211	-0.042159	0.333292
C201	C	1.149545	0.291174	0.666625
C202	C	0.483395	-0.325075	-0.000041
C203	C	0.816728	0.008258	0.333292
C204	C	1.150062	0.341591	0.666626
C205	C	0.527733	-0.305952	-0.000053
C206	C	0.861066	0.027381	0.333281
C207	C	1.194399	0.360715	0.666614
C208	C	0.528243	-0.255548	-0.000067
C209	C	0.861576	0.077785	0.333266
C210	C	1.194910	0.411118	0.666599
N211	N	0.572578	-0.236422	-0.000074
N212	N	0.905911	0.096911	0.333260
N213	N	1.239245	0.430245	0.666593
C214	C	0.616400	-0.267710	-0.000080
C215	C	0.949733	0.065623	0.333253
C216	C	1.283067	0.398957	0.666587
C217	C	0.523577	-0.714317	-0.000048
C218	C	0.856911	-0.380983	0.333285
C219	C	1.190244	-0.047650	0.666619
C220	C	0.523064	-0.764731	-0.000048
C221	C	0.856398	-0.431398	0.333285
C222	C	1.189731	-0.098064	0.666619
C223	C	0.611225	-0.776893	-0.000061
C224	C	0.944558	-0.443560	0.333272
C225	C	1.277891	-0.110227	0.666605
C226	C	0.611737	-0.726478	-0.000065
C227	C	0.945070	-0.393145	0.333268
C228	C	1.278404	-0.059811	0.666602
C229	C	0.567912	-0.695190	-0.000054
C230	C	0.901245	-0.361857	0.333279
C231	C	1.234579	-0.028524	0.666612
C232	C	0.617472	-0.161841	-0.000090
C233	C	0.950806	0.171493	0.333243
C234	C	1.284139	0.504826	0.666576
C235	C	0.617981	-0.111424	-0.000097
C236	C	0.951314	0.221910	0.333236
C237	C	1.284647	0.555243	0.666570
C238	C	0.529821	-0.099266	-0.000081
C239	C	0.863154	0.234067	0.333252
C240	C	1.196487	0.567401	0.666586
C241	C	0.529312	-0.149679	-0.000077
C242	C	0.862645	0.183655	0.333256
C243	C	1.195979	0.516988	0.666590
C244	C	0.573142	-0.180965	-0.000080
C245	C	0.906475	0.152368	0.333254
C246	C	1.239808	0.485701	0.666587
O247	O	0.491043	-0.224267	-0.000078
O248	O	0.824376	0.109067	0.333255
O249	O	1.157709	0.442400	0.666589
O250	O	0.654151	-0.246805	-0.000080
O251	O	0.987484	0.086528	0.333254
O252	O	1.320818	0.419861	0.666587
C253	C	0.614350	-0.469360	-0.000066
C254	C	0.947683	-0.136027	0.333267
C255	C	1.281017	0.197306	0.666601
C256	C	0.570016	-0.488484	-0.000055
C257	C	0.903349	-0.155151	0.333278
C258	C	1.236683	0.178182	0.666612
C259	C	0.526194	-0.457196	-0.000049
C260	C	0.859527	-0.123863	0.333285
C261	C	1.192861	0.209470	0.666618
C262	C	0.569503	-0.538899	-0.000055
C263	C	0.902836	-0.205565	0.333278
C264	C	1.236170	0.127768	0.666612
C265	C	0.613325	-0.570187	-0.000061
C266	C	0.946658	-0.236853	0.333272
C267	C	1.279991	0.096480	0.666605
C268	C	0.657660	-0.551060	-0.000068
C269	C	0.990993	-0.217727	0.333266
C270	C	1.324326	0.115606	0.666599
C271	C	0.658172	-0.500648	-0.000072
C272	C	0.991505	-0.167315	0.333261
C273	C	1.324839	0.166018	0.666594
C274	C	0.481859	-0.476323	-0.000042
C275	C	0.815193	-0.142989	0.333291
C276	C	1.148526	0.190344	0.666624
C277	C	0.481351	-0.526735	-0.000038
C278	C	0.814684	-0.193402	0.333295
C279	C	1.148017	0.139932	0.666628
C280	C	0.525172	-0.558023	-0.000045
C281	C	0.858506	-0.224690	0.333289
C282	C	1.191839	0.108643	0.666622
C283	C	0.658925	0.057739	-0.000087
C284	C	0.992259	0.391072	0.333246
C285	C	1.325592	0.724405	0.666580
C286	C	0.712580	0.058295	-0.000092
C287	C	1.045913	0.391628	0.333242
C288	C	1.379247	0.724961	0.666575
C289	C	0.566333	0.150326	-0.000062
C290	C	0.899667	0.483659	0.333271
C291	C	1.233000	0.816993	0.666605
C292	C	0.566886	0.203981	-0.000054
C293	C	0.900219	0.537314	0.333279
C294	C	1.233553	0.870648	0.666612
N295	N	0.570524	0.061867	-0.120836
N296	N	0.903858	0.395200	0.212497
N297	N	1.237191	0.728534	0.545831
N298	N	0.570525	0.061974	0.120686
N299	N	0.903858	0.395308	0.454020
N300	N	1.237191	0.728641	0.787353
C301	C	0.599567	0.091095	0.526659
C302	C	0.932900	0.424428	0.859993
C303	C	1.266233	0.757761	1.193326
C304	C	0.599563	0.091125	0.313001
C305	C	0.932897	0.424459	0.646334
C306	C	1.266230	0.757792	0.979667
O307	O	0.624268	0.115931	0.285387
O308	O	0.957601	0.449264	0.618720
O309	O	1.290935	0.782597	0.952054
N310	N	0.570530	0.061949	0.286270
N311	N	0.903863	0.395282	0.619604
N312	N	1.237197	0.728615	0.952937
C313	C	0.541498	0.032760	0.312957
C314	C	0.874831	0.366093	0.646291
C315	C	1.208165	0.699427	0.979624
O316	O	0.516807	0.007941	0.285319
O317	O	0.850141	0.341274	0.618652
O318	O	1.183474	0.674607	0.951986
C319	C	0.541504	0.032727	0.526615
C320	C	0.874838	0.366060	0.859948
C321	C	1.208171	0.699394	1.193282
C322	C	0.570536	0.061909	0.553343
C323	C	0.903869	0.395243	0.886676
C324	C	1.237203	0.728576	1.220010
C325	C	0.628596	0.120274	0.553387
C326	C	0.961930	0.453607	0.886721
C327	C	1.295263	0.786940	1.220054
C328	C	0.628595	0.120268	0.606799
C329	C	0.961928	0.453601	0.940132
C330	C	1.295261	0.786934	1.273465
C331	C	0.599564	0.091083	0.633482
C332	C	0.932897	0.424416	0.966816
C333	C	1.266231	0.757749	1.300149
C334	C	0.570534	0.061903	0.606754
C335	C	0.903868	0.395237	0.940088
C336	C	1.237201	0.728570	1.273421
C337	C	0.512475	0.003536	0.553301
C338	C	0.845809	0.336870	0.886635
C339	C	1.179142	0.670203	1.219968
C340	C	0.512480	0.003530	0.606719
C341	C	0.845814	0.336863	0.940053
C342	C	1.179147	0.670196	1.273386
C343	C	0.541512	0.032712	0.633447
C344	C	0.874845	0.366045	0.966780
C345	C	1.208179	0.699378	1.300114
C346	C	0.541502	0.032712	0.686849
C347	C	0.874835	0.366045	1.020183
C348	C	1.208169	0.699379	1.353516
N349	N	0.570535	0.061888	0.713580
N350	N	0.903869	0.395222	1.046913
N351	N	1.237202	0.728555	1.380247
C352	C	0.599566	0.091074	0.686896
C353	C	0.932900	0.424407	1.020230
C354	C	1.266233	0.757740	1.353563
C355	C	0.541496	0.032780	0.200784
C356	C	0.874829	0.366114	0.534117
C357	C	1.208163	0.699447	0.867451
C358	C	0.541494	0.032789	0.147370
C359	C	0.874827	0.366122	0.480703
C360	C	1.208160	0.699456	0.814037
C361	C	0.599560	0.091154	0.147417
C362	C	0.932893	0.424487	0.480750
C363	C	1.266227	0.757820	0.814084
C364	C	0.599559	0.091147	0.200832
C365	C	0.932893	0.424480	0.534165
C366	C	1.266226	0.757814	0.867499
C367	C	0.570529	0.061957	0.227515
C368	C	0.903863	0.395290	0.560848
C369	C	1.237196	0.728623	0.894181
C370	C	0.599561	0.091059	0.799064
C371	C	0.932894	0.424393	1.132398
C372	C	1.266227	0.757726	1.465731
C373	C	0.599555	0.091052	0.852481
C374	C	0.932888	0.424386	1.185814
C375	C	1.266222	0.757719	1.519147
C376	C	0.541491	0.032686	0.852429
C377	C	0.874824	0.366019	1.185762
C378	C	1.208158	0.699353	1.519095
C379	C	0.541495	0.032695	0.799017
C380	C	0.874828	0.366028	1.132351
C381	C	1.208161	0.699361	1.465684
C382	C	0.570533	0.061883	0.772336
C383	C	0.903866	0.395216	1.105670
C384	C	1.237200	0.728549	1.439003
O385	O	0.516815	0.007916	0.714496
O386	O	0.850148	0.341249	1.047830
O387	O	1.183481	0.674582	1.381163
O388	O	0.624262	0.115881	0.714544
O389	O	0.957595	0.449215	1.047878
O390	O	1.290928	0.782548	1.381211
C391	C	0.599568	0.091100	0.473248
C392	C	0.932902	0.424434	0.806581
C393	C	1.266235	0.757767	1.139915
C394	C	0.570539	0.061921	0.446520
C395	C	0.903872	0.395255	0.779853
C396	C	1.237205	0.728588	1.113187
C397	C	0.541508	0.032736	0.473204
C398	C	0.874841	0.366069	0.806537
C399	C	1.208174	0.699403	1.139870
C400	C	0.570536	0.061930	0.393106
C401	C	0.903870	0.395263	0.726439
C402	C	1.237203	0.728597	1.059773
C403	C	0.599567	0.091115	0.366422
C404	C	0.932901	0.424449	0.699756
C405	C	1.266234	0.757782	1.033089
C406	C	0.628601	0.120292	0.393153
C407	C	0.961934	0.453625	0.726486
C408	C	1.295267	0.786958	1.059820
C409	C	0.628599	0.120286	0.446564
C410	C	0.961932	0.453619	0.779898
C411	C	1.295266	0.786952	1.113231
C412	C	0.512475	0.003559	0.446473
C413	C	0.845808	0.336893	0.779806
C414	C	1.179141	0.670226	1.113140
C415	C	0.512478	0.003568	0.393061
C416	C	0.845811	0.336902	0.726395
C417	C	1.179145	0.670235	1.059728
C418	C	0.541509	0.032753	0.366378
C419	C	0.874842	0.366087	0.699711
C420	C	1.208176	0.699420	1.033045
H421	H	-0.293772	0.138311	-0.000081
H422	H	0.039562	0.471645	0.333253
H423	H	0.372895	0.804978	0.666586
C424	C	0.656954	0.148837	0.195501
C425	C	0.990287	0.482171	0.528834
C426	C	1.323620	0.815504	0.862168
C427	C	0.631475	0.123221	0.230209
C428	C	0.964809	0.456554	0.563542
C429	C	1.298142	0.789887	0.896875
H430	H	0.676661	0.168636	0.213636
H431	H	1.009994	0.501969	0.546969
H432	H	1.343327	0.835302	0.880303
H433	H	0.634524	0.168761	0.174689
H434	H	0.967858	0.502094	0.508023
H435	H	1.301191	0.835427	0.841356
H436	H	0.676962	0.126486	0.174645
H437	H	1.010295	0.459819	0.507978
H438	H	1.343628	0.793153	0.841312
H439	H	0.611464	0.145572	0.251063
H440	H	0.944798	0.478905	0.584396
H441	H	1.278131	0.812238	0.917729
H442	H	0.653907	0.103295	0.251029
H443	H	0.987241	0.436629	0.584363
H444	H	1.320574	0.769962	0.917696
H445	H	0.321293	0.144551	-0.000055
H446	H	0.654627	0.477885	0.333279
H447	H	0.987960	0.811218	0.666612
H448	H	0.446774	-0.391054	-0.000029
H449	H	0.780107	-0.057720	0.333305
H450	H	1.113440	0.275613	0.666638
C451	C	0.231059	0.191034	-0.000054
C452	C	0.564392	0.524367	0.333279
C453	C	0.897725	0.857701	0.666612
C454	C	0.180201	0.199832	-0.000057
C455	C	0.513534	0.533165	0.333276
C456	C	0.846867	0.866499	0.666609
H457	H	0.244032	0.221124	-0.000044
H458	H	0.577366	0.554457	0.333290
H459	H	0.910699	0.887790	0.666623
H460	H	0.241823	0.172999	-0.029648
H461	H	0.575157	0.506332	0.303686
H462	H	0.908490	0.839666	0.637019
H463	H	0.241812	0.173019	0.029536
H464	H	0.575145	0.506353	0.362870
H465	H	0.908478	0.839686	0.696203
H466	H	0.169448	0.217844	-0.029650
H467	H	0.502781	0.551177	0.303683
H468	H	0.836114	0.884511	0.637016
H469	H	0.169432	0.217875	0.029539
H470	H	0.502765	0.551208	0.362872
H471	H	0.836098	0.884542	0.696206
H472	H	0.646906	-0.802377	-0.000067
H473	H	0.980239	-0.469044	0.333267
H474	H	1.313573	-0.135710	0.666600
H475	H	0.447706	-0.299603	-0.000032
H476	H	0.781040	0.033731	0.333302
H477	H	1.114373	0.367064	0.666635
C478	C	0.744858	-0.558033	-0.000083
C479	C	1.078192	-0.224699	0.333251
C480	C	1.411525	0.108634	0.666584
C481	C	0.705830	-0.585459	-0.000074
C482	C	1.039163	-0.252125	0.333259
C483	C	1.372497	0.081208	0.666593
H484	H	0.774594	-0.579271	-0.000087
H485	H	1.107927	-0.245938	0.333246
H486	H	1.441261	0.087396	0.666579
H487	H	0.743227	-0.538098	0.029506
H488	H	1.076560	-0.204764	0.362839
H489	H	1.409894	0.128569	0.696173
H490	H	0.743226	-0.538134	-0.029678
H491	H	1.076559	-0.204801	0.303655
H492	H	1.409892	0.128532	0.636988
H493	H	0.707461	-0.605354	0.029524
H494	H	1.040794	-0.272021	0.362857
H495	H	1.374127	0.061312	0.696190
H496	H	0.707462	-0.605402	-0.029666
H497	H	1.040795	-0.272068	0.303668
H498	H	1.374129	0.061265	0.637001
C499	C	0.656952	0.148755	0.804491
C500	C	0.990285	0.482088	1.137824
C501	C	1.323618	0.815422	1.471157
C502	C	0.631477	0.123146	0.769742
C503	C	0.964810	0.456479	1.103075
C504	C	1.298144	0.789813	1.436409
H505	H	0.676651	0.168567	0.786387
H506	H	1.009984	0.501901	1.119721
H507	H	1.343317	0.835234	1.453054
H508	H	0.676962	0.126403	0.825303
H509	H	1.010296	0.459736	1.158637
H510	H	1.343629	0.793070	1.491970
H511	H	0.634516	0.168669	0.825342
H512	H	0.967850	0.502002	1.158676
H513	H	1.301183	0.835335	1.492009
H514	H	0.653912	0.103229	0.748893
H515	H	0.987246	0.436563	1.082226
H516	H	1.320579	0.769896	1.415560
H517	H	0.611464	0.145501	0.748921
H518	H	0.944798	0.478834	1.082254
H519	H	1.278131	0.812168	1.415587
C520	C	0.709374	0.138883	0.376713
C521	C	1.042708	0.472216	0.710046
C522	C	1.376041	0.805550	1.043380
C523	C	0.660514	0.152372	0.363817
C524	C	0.993847	0.485706	0.697150
C525	C	1.327181	0.819039	1.030483
H526	H	0.729076	0.158688	0.358602
H527	H	1.062409	0.492021	0.691936
H528	H	1.395742	0.825355	1.025269
H529	H	0.718659	0.105761	0.367934
H530	H	1.051992	0.439094	0.701267
H531	H	1.385326	0.772428	1.034600
H532	H	0.713526	0.143060	0.412350
H533	H	1.046859	0.476394	0.745683
H534	H	1.380192	0.809727	1.079017
H535	H	0.656362	0.148191	0.328180
H536	H	0.989695	0.481525	0.661514
H537	H	1.323029	0.814858	0.994847
H538	H	0.651226	0.185502	0.372593
H539	H	0.984560	0.518836	0.705926
H540	H	1.317893	0.852169	1.039259
H541	H	0.694884	-0.425295	-0.000085
H542	H	1.028217	-0.091962	0.333248
H543	H	1.361550	0.241372	0.666582
H544	H	-0.202304	0.139243	-0.000081
H545	H	0.131029	0.472576	0.333252
H546	H	0.464362	0.805909	0.666585
C547	C	0.435975	-0.747633	-0.000031
C548	C	0.769308	-0.414300	0.333303
C549	C	1.102642	-0.080966	0.666636
C550	C	0.474327	-0.785748	-0.000039
C551	C	0.807660	-0.452415	0.333294
C552	C	1.140994	-0.119081	0.666627
H553	H	0.405886	-0.760608	-0.000020
H554	H	0.739219	-0.427274	0.333313
H555	H	1.072553	-0.093941	0.666647
H556	H	0.438009	-0.728242	-0.029622
H557	H	0.771342	-0.394909	0.303711
H558	H	1.104675	-0.061576	0.637045
H559	H	0.438017	-0.728204	0.029562
H560	H	0.771350	-0.394871	0.362895
H561	H	1.104683	-0.061538	0.696229
H562	H	0.472287	-0.805174	-0.029634
H563	H	0.805621	-0.471841	0.303699
H564	H	1.138954	-0.138508	0.637032
H565	H	0.472292	-0.805147	0.029555
H566	H	0.805626	-0.471813	0.362888
H567	H	1.138959	-0.138480	0.696222
C568	C	0.484096	-0.024905	0.195361
C569	C	0.817429	0.308428	0.528694
C570	C	1.150762	0.641762	0.862027
C571	C	0.509579	0.000696	0.230109
C572	C	0.842912	0.334029	0.563443
C573	C	1.176245	0.667362	0.896776
H574	H	0.464388	-0.044709	0.213464
H575	H	0.797721	0.288625	0.546798
H576	H	1.131055	0.621958	0.880131
H577	H	0.506523	-0.044822	0.174512
H578	H	0.839856	0.288511	0.507845
H579	H	1.173189	0.621844	0.841178
H580	H	0.464088	-0.002545	0.174546
H581	H	0.797422	0.330789	0.507879
H582	H	1.130755	0.664122	0.841213
H583	H	0.529589	-0.021665	0.250922
H584	H	0.862922	0.311668	0.584255
H585	H	1.196256	0.645002	0.917588
H586	H	0.487149	0.020615	0.250967
H587	H	0.820482	0.353948	0.584301
H588	H	1.153816	0.687281	0.917634
C589	C	0.698826	-0.743575	-0.000075
C590	C	1.032159	-0.410242	0.333259
C591	C	1.365493	-0.076908	0.666592
C592	C	0.660474	-0.705460	-0.000070
C593	C	0.993807	-0.372127	0.333264
C594	C	1.327141	-0.038793	0.666597
H595	H	0.728915	-0.730600	-0.000073
H596	H	1.062248	-0.397267	0.333260
H597	H	1.395581	-0.063934	0.666594
H598	H	0.696791	-0.762999	-0.029666
H599	H	1.030125	-0.429665	0.303667
H600	H	1.363458	-0.096332	0.637000
H601	H	0.696785	-0.762970	0.029518
H602	H	1.030118	-0.429637	0.362851
H603	H	1.363452	-0.096304	0.696185
H604	H	0.662513	-0.686067	-0.029664
H605	H	0.995846	-0.352734	0.303669
H606	H	1.329180	-0.019400	0.637002
H607	H	0.662509	-0.686028	0.029525
H608	H	0.995843	-0.352695	0.362858
H609	H	1.329176	-0.019361	0.696191
C610	C	0.668058	-0.225556	0.043528
C611	C	1.001391	0.107777	0.376862
C612	C	1.334724	0.441110	0.710195
C613	C	0.665650	-0.196226	-0.000096
C614	C	0.998984	0.137108	0.333238
C615	C	1.332317	0.470441	0.666571
H616	H	0.697802	-0.246781	0.043523
H617	H	1.031135	0.086552	0.376857
H618	H	1.364469	0.419885	0.710190
H619	H	0.641588	-0.244165	0.043532
H620	H	0.974921	0.089168	0.376865
H621	H	1.308254	0.422501	0.710199
H622	H	0.666423	-0.205612	0.073116
H623	H	0.999757	0.127721	0.406449
H624	H	1.333090	0.461054	0.739783
H625	H	0.667281	-0.216170	-0.029683
H626	H	1.000614	0.117164	0.303650
H627	H	1.333948	0.450497	0.636983
H628	H	0.692128	-0.177615	-0.000104
H629	H	1.025461	0.155718	0.333230
H630	H	1.358794	0.489052	0.666563
H631	H	0.487888	-0.688846	-0.000040
H632	H	0.821221	-0.355513	0.333294
H633	H	1.154554	-0.022179	0.666627
H634	H	0.117526	-0.061832	-0.000096
H635	H	0.450859	0.271501	0.333238
H636	H	0.784192	0.604835	0.666571
C637	C	0.266188	-0.063569	-0.000098
C638	C	0.599522	0.269764	0.333236
C639	C	0.932855	0.603098	0.666569
C640	C	0.217902	-0.073388	-0.000098
C641	C	0.551235	0.259946	0.333235
C642	C	0.884568	0.593279	0.666569
H643	H	0.287425	-0.093306	-0.000107
H644	H	0.620758	0.240027	0.333227
H645	H	0.954091	0.573360	0.666560
H646	H	0.271943	-0.045364	0.029496
H647	H	0.605276	0.287970	0.362829
H648	H	0.938609	0.621303	0.696163
H649	H	0.271947	-0.045385	-0.029688
H650	H	0.605280	0.287949	0.303645
H651	H	0.938614	0.621282	0.636979
H652	H	0.212142	-0.091569	0.029494
H653	H	0.545475	0.241764	0.362828
H654	H	0.878809	0.575097	0.696161
H655	H	0.212145	-0.091601	-0.029695
H656	H	0.545478	0.241732	0.303639
H657	H	0.878812	0.575066	0.636972
H658	H	-0.067950	0.184742	-0.000092
H659	H	0.265384	0.518075	0.333241
H660	H	0.598717	0.851408	0.666574
H661	H	0.493209	-0.165249	-0.000082
H662	H	0.826542	0.168084	0.333252
H663	H	1.159875	0.501417	0.666585
H664	H	0.494142	-0.073782	-0.000078
H665	H	0.827476	0.259551	0.333256
H666	H	1.160809	0.592884	0.666589
H667	H	0.694276	-0.485083	-0.000082
H668	H	1.027610	-0.151750	0.333252
H669	H	1.360943	0.181583	0.666585
H670	H	0.023502	0.185672	-0.000079
H671	H	0.356835	0.519006	0.333255
H672	H	0.690168	0.852339	0.666588
C673	C	0.101825	0.237775	-0.000054
C674	C	0.435158	0.571109	0.333279
C675	C	0.768491	0.904442	0.666612
C676	C	0.074383	0.198759	-0.000064
C677	C	0.407717	0.532092	0.333270
C678	C	0.741050	0.865425	0.666603
H679	H	0.080596	0.267517	-0.000043
H680	H	0.413929	0.600851	0.333290
H681	H	0.747263	0.934184	0.666623
H682	H	0.121742	0.236126	-0.029645
H683	H	0.455075	0.569460	0.303688
H684	H	0.788409	0.902793	0.637021
H685	H	0.121741	0.236146	0.029539
H686	H	0.455074	0.569479	0.362872
H687	H	0.788407	0.902812	0.696205
H688	H	0.054470	0.200386	-0.029659
H689	H	0.387803	0.533719	0.303675
H690	H	0.721136	0.867053	0.637008
H691	H	0.054457	0.200408	0.029531
H692	H	0.387791	0.533742	0.362864
H693	H	0.721124	0.867075	0.696197
H694	H	0.654087	-0.095857	-0.000108
H695	H	0.987421	0.237477	0.333226
H696	H	1.320754	0.570810	0.666559
C697	C	0.455067	-0.054139	0.558637
C698	C	0.788400	0.279194	0.891971
C699	C	1.121733	0.612528	1.225304
C700	C	0.480568	-0.028546	0.523929
C701	C	0.813901	0.304788	0.857262
C702	C	1.147234	0.638121	1.190596
H703	H	0.435371	-0.073949	0.540503
H704	H	0.768704	0.259384	0.873836
H705	H	1.102037	0.592718	1.207169
H706	H	0.435050	-0.031778	0.579467
H707	H	0.768384	0.301555	0.912800
H708	H	1.101717	0.634889	1.246133
H709	H	0.477486	-0.074054	0.579476
H710	H	0.810820	0.259279	0.912809
H711	H	1.144153	0.592612	1.246142
H712	H	0.458148	-0.008628	0.503093
H713	H	0.791481	0.324705	0.836426
H714	H	1.124815	0.658039	1.169760
H715	H	0.500586	-0.050910	0.503091
H716	H	0.833919	0.282424	0.836424
H717	H	1.167252	0.615757	1.169757
C718	C	0.394258	-0.509636	-0.000016
C719	C	0.727591	-0.176303	0.333317
C720	C	1.060924	0.157030	0.666651
C721	C	0.432610	-0.547751	-0.000024
C722	C	0.765943	-0.214418	0.333309
C723	C	1.099276	0.118915	0.666643
H724	H	0.364169	-0.522611	-0.000000
H725	H	0.697502	-0.189278	0.333333
H726	H	1.030835	0.144056	0.666666
H727	H	0.396289	-0.490249	-0.029610
H728	H	0.729622	-0.156916	0.303723
H729	H	1.062956	0.176418	0.637057
H730	H	0.396302	-0.490205	0.029574
H731	H	0.729635	-0.156872	0.362907
H732	H	1.062968	0.176462	0.696241
H733	H	0.430568	-0.567181	-0.029616
H734	H	0.763901	-0.233848	0.303717
H735	H	1.097234	0.099486	0.637051
H736	H	0.430577	-0.567147	0.029573
H737	H	0.763911	-0.233814	0.362906
H738	H	1.097244	0.099520	0.696240
C739	C	0.486711	-0.022369	0.311165
C740	C	0.820044	0.310964	0.644499
C741	C	1.153378	0.644298	0.977832
C742	C	0.480563	-0.028511	0.363685
C743	C	0.813896	0.304822	0.697019
C744	C	1.147229	0.638156	1.030352
H745	H	0.467008	-0.042173	0.293032
H746	H	0.800342	0.291160	0.626366
H747	H	1.133675	0.624494	0.959699
H748	H	0.519858	-0.031525	0.302421
H749	H	0.853192	0.301809	0.635754
H750	H	1.186525	0.635142	0.969088
H751	H	0.477428	0.010757	0.302424
H752	H	0.810761	0.344090	0.635757
H753	H	1.144094	0.677423	0.969091
H754	H	0.489849	-0.061636	0.372427
H755	H	0.823183	0.271697	0.705761
H756	H	1.156516	0.605031	1.039094
H757	H	0.447408	-0.019358	0.372433
H758	H	0.780741	0.313975	0.705766
H759	H	1.114075	0.647309	1.039100
H760	H	-0.271701	-0.021634	-0.000097
H761	H	0.061632	0.311699	0.333236
H762	H	0.394966	0.645033	0.666570
H763	H	0.057737	-0.062438	-0.000098
H764	H	0.391070	0.270895	0.333235
H765	H	0.724404	0.604229	0.666568
H766	H	0.446173	-0.450852	-0.000036
H767	H	0.779507	-0.117519	0.333297
H768	H	1.112840	0.215815	0.666631
H769	H	0.623196	0.114818	0.874240
H770	H	0.956529	0.448151	1.207573
H771	H	1.289863	0.781485	1.540907
C772	C	0.746797	-0.366514	-0.000094
C773	C	1.080130	-0.033180	0.333239
C774	C	1.413463	0.300153	0.666573
C775	C	0.708447	-0.328397	-0.000092
C776	C	1.041780	0.004937	0.333241
C777	C	1.375113	0.338270	0.666574
H778	H	0.776886	-0.353541	-0.000093
H779	H	1.110220	-0.020207	0.333240
H780	H	1.443553	0.313126	0.666573
H781	H	0.744761	-0.385939	-0.029684
H782	H	1.078095	-0.052606	0.303649
H783	H	1.411428	0.280727	0.636983
H784	H	0.744754	-0.385906	0.029500
H785	H	1.078088	-0.052573	0.362834
H786	H	1.411421	0.280760	0.696167
H787	H	0.710487	-0.309006	-0.029688
H788	H	1.043820	0.024327	0.303645
H789	H	1.377154	0.357661	0.636978
H790	H	0.710483	-0.308963	0.029501
H791	H	1.043816	0.024371	0.362834
H792	H	1.377150	0.357704	0.696167
C793	C	0.685995	0.177951	0.601463
C794	C	1.019329	0.511284	0.934797
C795	C	1.352662	0.844618	1.268130
C796	C	0.660514	0.152339	0.636173
C797	C	0.993848	0.485673	0.969507
C798	C	1.327181	0.819006	1.302840
H799	H	0.705705	0.197748	0.619597
H800	H	1.039039	0.531081	0.952930
H801	H	1.372372	0.864414	1.286263
H802	H	0.663567	0.197876	0.580651
H803	H	0.996901	0.531209	0.913985
H804	H	1.330234	0.864543	1.247318
H805	H	0.706000	0.155597	0.580608
H806	H	1.039334	0.488930	0.913941
H807	H	1.372667	0.822263	1.247274
H808	H	0.640506	0.174694	0.657027
H809	H	0.973840	0.508027	0.990360
H810	H	1.307173	0.841360	1.323693
H811	H	0.682945	0.132413	0.656994
H812	H	1.016278	0.465746	0.990328
H813	H	1.349612	0.799079	1.323661
C814	C	0.447511	0.000813	0.666785
C815	C	0.780845	0.334147	1.000119
C816	C	1.114178	0.667480	1.333452
C817	C	0.480567	-0.028556	0.636049
C818	C	0.813900	0.304778	0.969382
C819	C	1.147234	0.638111	1.302715
H820	H	0.427811	-0.018995	0.684893
H821	H	0.761145	0.314338	1.018226
H822	H	1.094478	0.647672	1.351560
H823	H	0.427501	0.023159	0.645965
H824	H	0.760835	0.356493	0.979299
H825	H	1.094168	0.689826	1.312632
H826	H	0.464805	0.018187	0.690349
H827	H	0.798138	0.351520	1.023682
H828	H	1.131471	0.684854	1.357015
H829	H	0.463273	-0.045927	0.612483
H830	H	0.796607	0.287406	0.945816
H831	H	1.129940	0.620740	1.279149
H832	H	0.500579	-0.050910	0.656871
H833	H	0.833912	0.282423	0.990204
H834	H	1.167246	0.615756	1.323537
H835	H	0.652239	0.144040	0.531667
H836	H	0.985573	0.477373	0.865001
H837	H	1.318906	0.810707	1.198334
H838	H	0.488834	-0.020208	0.468193
H839	H	0.822168	0.313125	0.801527
H840	H	1.155501	0.646459	1.134860
H841	H	0.623196	0.114919	0.125682
H842	H	0.956529	0.448253	0.459016
H843	H	1.289863	0.781586	0.792349
H844	H	0.517848	0.009032	0.125613
H845	H	0.851181	0.342365	0.458946
H846	H	1.184514	0.675698	0.792279
H847	H	0.517849	0.008938	0.777254
H848	H	0.851182	0.342272	1.110588
H849	H	1.184515	0.675605	1.443921
H850	H	0.652240	0.144049	0.468322
H851	H	0.985573	0.477382	0.801655
H852	H	1.318906	0.810716	1.134988
C853	C	-0.198774	-0.072215	-0.000098
C854	C	0.134559	0.261118	0.333236
C855	C	0.467893	0.594451	0.666569
C856	C	-0.171332	-0.033199	-0.000098
C857	C	0.162002	0.300134	0.333236
C858	C	0.495335	0.633467	0.666569
H859	H	-0.177546	-0.101958	-0.000092
H860	H	0.155788	0.231376	0.333241
H861	H	0.489121	0.564709	0.666575
H862	H	-0.218683	-0.070596	-0.029690
H863	H	0.114651	0.262737	0.303644
H864	H	0.447984	0.596070	0.636977
H865	H	-0.218699	-0.070555	0.029494
H866	H	0.114635	0.262778	0.362828
H867	H	0.447968	0.596111	0.696161
H868	H	-0.151409	-0.034857	-0.029692
H869	H	0.181924	0.298476	0.303642
H870	H	0.515257	0.631809	0.636975
H871	H	-0.151415	-0.034819	0.029497
H872	H	0.181919	0.298514	0.362831
H873	H	0.515252	0.631848	0.696164
C874	C	-0.001046	-0.114350	-0.000116
C875	C	0.332288	0.218984	0.333218
C876	C	0.665621	0.552317	0.666551
C877	C	-0.039162	-0.075999	-0.000108
C878	C	0.294172	0.257335	0.333225
C879	C	0.627505	0.590668	0.666558
H880	H	-0.014019	-0.144439	-0.000129
H881	H	0.319314	0.188894	0.333204
H882	H	0.652647	0.522228	0.666537
H883	H	0.018356	-0.112303	0.029478
H884	H	0.351689	0.221031	0.362811
H885	H	0.685023	0.554364	0.696145
H886	H	0.018371	-0.112320	-0.029706
H887	H	0.351705	0.221014	0.303627
H888	H	0.685038	0.554347	0.636961
H889	H	-0.058577	-0.078026	0.029484
H890	H	0.274757	0.255307	0.362818
H891	H	0.608090	0.588640	0.696151
H892	H	-0.058572	-0.078047	-0.029705
H893	H	0.274762	0.255287	0.303629
H894	H	0.608095	0.588620	0.636962
H895	H	0.517854	0.008925	0.874164
H896	H	0.851187	0.342259	1.207498
H897	H	1.184520	0.675592	1.540831
H898	H	0.434821	-0.014469	-0.000063
H899	H	0.768154	0.318864	0.333271
H900	H	1.101488	0.652197	0.666604
C901	C	0.376018	-0.066388	-0.000074
C902	C	0.709351	0.266946	0.333259
C903	C	1.042684	0.600279	0.666593
C904	C	0.337904	-0.028035	-0.000072
C905	C	0.671237	0.305298	0.333261
C906	C	1.004570	0.638632	0.666594
H907	H	0.363042	-0.096476	-0.000084
H908	H	0.696376	0.236857	0.333250
H909	H	1.029709	0.570190	0.666583
H910	H	0.395419	-0.064338	0.029519
H911	H	0.728752	0.268995	0.362853
H912	H	1.062086	0.602329	0.696186
H913	H	0.395436	-0.064363	-0.029665
H914	H	0.728769	0.268970	0.303669
H915	H	1.062102	0.602304	0.637002
H916	H	0.318488	-0.030058	0.029520
H917	H	0.651821	0.303276	0.362854
H918	H	0.985154	0.636609	0.696187
H919	H	0.318494	-0.030086	-0.029669
H920	H	0.651828	0.303248	0.303665
H921	H	0.985161	0.636581	0.636998
H922	H	0.412744	0.145477	-0.000040
H923	H	0.746078	0.478810	0.333294
H924	H	1.079411	0.812143	0.666627
