data_functionalizedCrystal
_audit_creation_method	'MofGen! by Chris Wilmer'
_symmetry_space_group_name_H-M	'P1'
_symmetry_Int_Tables_number	1
_symmetry_cell_setting	triclinic
loop_
_symmetry_equiv_pos_as_xyz
  x,y,z
_cell_length_a	19.805407
_cell_length_b	19.805405
_cell_length_c	19.805399
_cell_angle_alpha	90.028893
_cell_angle_beta	89.983114
_cell_angle_gamma	89.972273
loop_
_atom_site_label
_atom_site_type_symbol
_atom_site_fract_x
_atom_site_fract_y
_atom_site_fract_z
Zn1	Zn	1.034712	0.269469	-0.382720
Zn2	Zn	1.368045	0.602803	-0.049387
Zn3	Zn	1.701378	0.936136	0.283947
Zn4	Zn	1.034629	0.382661	-0.269532
Zn5	Zn	1.367962	0.715994	0.063801
Zn6	Zn	1.701296	1.049327	0.397135
Zn7	Zn	0.921531	0.269491	-0.269545
Zn8	Zn	1.254865	0.602824	0.063789
Zn9	Zn	1.588198	0.936158	0.397122
Zn10	Zn	0.921487	0.382622	-0.382679
Zn11	Zn	1.254820	0.715955	-0.049345
Zn12	Zn	1.588154	1.049289	0.283988
O13	O	0.978090	0.326061	-0.326119
O14	O	1.311423	0.659394	0.007214
O15	O	1.644756	0.992727	0.340548
O16	O	1.129417	0.284492	-0.367717
O17	O	1.462750	0.617825	-0.034384
O18	O	1.796084	0.951158	0.298949
O19	O	1.019611	0.367674	-0.174817
O20	O	1.352944	0.701007	0.158516
O21	O	1.686277	1.034340	0.491850
O22	O	0.936598	0.174771	-0.284580
O23	O	1.269931	0.508105	0.048753
O24	O	1.603265	0.841438	0.382086
O25	O	1.129357	0.367653	-0.284559
O26	O	1.462690	0.700986	0.048775
O27	O	1.796023	1.034319	0.382108
O28	O	1.019751	0.174756	-0.367730
O29	O	1.353084	0.508089	-0.034396
O30	O	1.686418	0.841422	0.298937
O31	O	0.936518	0.284528	-0.174826
O32	O	1.269852	0.617862	0.158507
O33	O	1.603185	0.951195	0.491840
O34	O	0.826809	0.284491	-0.284540
O35	O	1.160142	0.617824	0.048793
O36	O	1.493476	0.951157	0.382127
O37	O	0.936522	0.367587	-0.477401
O38	O	1.269856	0.700920	-0.144068
O39	O	1.603189	1.034253	0.189266
O40	O	0.826776	0.367608	-0.367659
O41	O	1.160110	0.700941	-0.034326
O42	O	1.493443	1.034274	0.299007
O43	O	1.019708	0.284454	-0.477431
O44	O	1.353041	0.617788	-0.144098
O45	O	1.686375	0.951121	0.189235
O46	O	1.019567	0.477372	-0.284519
O47	O	1.352901	0.810705	0.048815
O48	O	1.686234	1.144039	0.382148
O49	O	0.936443	0.477344	-0.367647
O50	O	1.269776	0.810677	-0.034314
O51	O	1.603109	1.144010	0.299020
C52	C	0.978010	0.501917	-0.326092
C53	C	1.311343	0.835250	0.007242
C54	C	1.644676	1.168583	0.340575
C55	C	0.978037	0.577149	-0.326103
C56	C	1.311371	0.910482	0.007231
C57	C	1.644704	1.243815	0.340564
C58	C	0.802234	0.326048	-0.326097
C59	C	1.135567	0.659381	0.007236
C60	C	1.468900	0.992714	0.340570
C61	C	0.727002	0.326059	-0.326104
C62	C	1.060335	0.659392	0.007230
C63	C	1.393668	0.992725	0.340563
C64	C	1.021362	0.612485	-0.282864
C65	C	1.354695	0.945819	0.050469
C66	C	1.688028	1.279152	0.383802
C67	C	1.021389	0.683174	-0.282881
C68	C	1.354722	1.016507	0.050452
C69	C	1.688055	1.349840	0.383785
C70	C	0.978088	0.718524	-0.326134
C71	C	1.311421	1.051858	0.007199
C72	C	1.644754	1.385191	0.340532
C73	C	0.934761	0.683183	-0.369378
C74	C	1.268095	1.016516	-0.036044
C75	C	1.601428	1.349850	0.297289
C76	C	0.934738	0.612496	-0.369363
C77	C	1.268071	0.945829	-0.036030
C78	C	1.601405	1.279162	0.297303
C79	C	0.934855	0.968256	-0.369437
C80	C	1.268188	1.301589	-0.036103
C81	C	1.601521	1.634923	0.297230
C82	C	0.934880	1.038948	-0.369446
C83	C	1.268213	1.372282	-0.036113
C84	C	1.601546	1.705615	0.297220
C85	C	1.021505	1.038934	-0.282955
C86	C	1.354839	1.372267	0.050378
C87	C	1.688172	1.705601	0.383712
C88	C	1.021482	0.968247	-0.282941
C89	C	1.354815	1.301580	0.050393
C90	C	1.688149	1.634914	0.383726
C91	C	0.978159	0.932912	-0.326186
C92	C	1.311492	1.266245	0.007147
C93	C	1.644825	1.599578	0.340481
C94	C	0.978131	0.856263	-0.326168
C95	C	1.311464	1.189597	0.007166
C96	C	1.644797	1.522930	0.340499
C97	C	0.978112	0.795171	-0.326150
C98	C	1.311445	1.128505	0.007184
C99	C	1.644778	1.461838	0.340517
C100	C	0.691658	0.369403	-0.369314
C101	C	1.024992	0.702736	-0.035980
C102	C	1.358325	1.036069	0.297353
C103	C	0.620970	0.369404	-0.369323
C104	C	0.954303	0.702737	-0.035990
C105	C	1.287637	1.036070	0.297343
C106	C	0.585626	0.326064	-0.326119
C107	C	0.918960	0.659397	0.007214
C108	C	1.252293	0.992730	0.340548
C109	C	0.620975	0.282715	-0.282907
C110	C	0.954308	0.616048	0.050426
C111	C	1.287641	0.949382	0.383760
C112	C	0.691662	0.282711	-0.282901
C113	C	1.024995	0.616044	0.050432
C114	C	1.358328	0.949378	0.383765
C115	C	0.335901	0.282730	-0.282929
C116	C	0.669235	0.616063	0.050404
C117	C	1.002568	0.949397	0.383737
C118	C	0.265209	0.282739	-0.282937
C119	C	0.598543	0.616072	0.050397
C120	C	0.931876	0.949405	0.383730
C121	C	0.265209	0.369423	-0.369351
C122	C	0.598543	0.702756	-0.036018
C123	C	0.931876	1.036090	0.297315
C124	C	0.335897	0.369419	-0.369346
C125	C	0.669230	0.702752	-0.036012
C126	C	1.002563	1.036085	0.297321
C127	C	0.371239	0.326068	-0.326137
C128	C	0.704572	0.659401	0.007197
C129	C	1.037906	0.992734	0.340530
C130	C	0.447887	0.326066	-0.326128
C131	C	0.781221	0.659399	0.007206
C132	C	1.114554	0.992733	0.340539
C133	C	0.508979	0.326068	-0.326124
C134	C	0.842312	0.659402	0.007209
C135	C	1.175646	0.992735	0.340543
C136	C	1.154632	0.326074	-0.326141
C137	C	1.487966	0.659408	0.007192
C138	C	1.821299	0.992741	0.340525
C139	C	1.229864	0.326080	-0.326151
C140	C	1.563198	0.659413	0.007183
C141	C	1.896531	0.992747	0.340516
C142	C	0.978119	0.326014	-0.502662
C143	C	1.311453	0.659347	-0.169328
C144	C	1.644786	0.992680	0.164005
C145	C	0.978132	0.325994	-0.577894
C146	C	1.311465	0.659327	-0.244560
C147	C	1.644799	0.992660	0.088773
C148	C	0.978183	1.149518	-0.326169
C149	C	1.311516	1.482851	0.007164
C150	C	1.644850	1.816185	0.340498
C151	C	0.978208	1.074286	-0.326211
C152	C	1.311541	1.407619	0.007123
C153	C	1.644875	1.740953	0.340456
C154	C	0.934878	0.282696	-0.613242
C155	C	1.268212	0.616029	-0.279909
C156	C	1.601545	0.949363	0.053424
C157	C	0.934888	0.282683	-0.683931
C158	C	1.268221	0.616016	-0.350597
C159	C	1.601554	0.949349	-0.017264
C160	C	0.978155	0.325964	-0.719269
C161	C	1.311488	0.659298	-0.385936
C162	C	1.644821	0.992631	-0.052603
C163	C	1.021410	0.369267	-0.683916
C164	C	1.354744	0.702600	-0.350583
C165	C	1.688077	1.035934	-0.017249
C166	C	1.021397	0.369283	-0.613229
C167	C	1.354731	0.702617	-0.279895
C168	C	1.688064	1.035950	0.053438
C169	C	1.021464	0.369204	-0.968989
C170	C	1.354797	0.702537	-0.635656
C171	C	1.688131	1.035870	-0.302323
C172	C	1.021475	0.369183	-1.039682
C173	C	1.354809	0.702516	-0.706348
C174	C	1.688142	1.035850	-0.373015
C175	C	0.934955	0.282603	-1.039691
C176	C	1.268288	0.615937	-0.706358
C177	C	1.601621	0.949270	-0.373025
C178	C	0.934941	0.282619	-0.969004
C179	C	1.268275	0.615953	-0.635671
C180	C	1.601608	0.949286	-0.302337
C181	C	0.978194	0.325924	-0.933657
C182	C	1.311528	0.659258	-0.600324
C183	C	1.644861	0.992591	-0.266990
C184	C	0.978183	0.325939	-0.857008
C185	C	1.311516	0.659272	-0.523675
C186	C	1.644849	0.992606	-0.190342
C187	C	0.978170	0.325947	-0.795917
C188	C	1.311503	0.659280	-0.462583
C189	C	1.644837	0.992614	-0.129250
C190	C	0.978099	0.326059	-0.150263
C191	C	1.311433	0.659392	0.183070
C192	C	1.644766	0.992725	0.516404
C193	C	0.978218	0.325888	-0.075031
C194	C	1.311551	0.659221	0.258302
C195	C	1.644884	0.992555	0.591635
H196	H	1.056619	0.583707	-0.247640
H197	H	1.389953	0.917041	0.085693
H198	H	1.723286	1.250374	0.419027
H199	H	0.236434	0.247442	-0.247754
H200	H	0.569768	0.580775	0.085579
H201	H	0.903101	0.914109	0.418912
H202	H	1.056667	0.711942	-0.247672
H203	H	1.390001	1.045275	0.085662
H204	H	1.723334	1.378608	0.418995
C205	C	0.887127	0.722071	-0.416954
C206	C	1.220461	1.055404	-0.083621
C207	C	1.553794	1.388738	0.249713
N208	N	0.851245	0.751361	-0.452787
N209	N	1.184579	1.084694	-0.119453
N210	N	1.517912	1.418028	0.213880
C211	C	0.374769	0.235047	-0.235394
C212	C	0.708102	0.568380	0.097940
C213	C	1.041435	0.901713	0.431273
N214	N	0.404046	0.199130	-0.199586
N215	N	0.737379	0.532464	0.133747
N216	N	1.070712	0.865797	0.467080
C217	C	0.887280	0.235082	-0.574376
C218	C	1.220613	0.568415	-0.241043
C219	C	1.553947	0.901749	0.092291
N220	N	0.851425	0.199220	-0.545104
N221	N	1.184759	0.532553	-0.211771
N222	N	1.518092	0.865886	0.121563
H223	H	0.899578	0.939492	-0.404647
H224	H	1.232911	1.272825	-0.071314
H225	H	1.566245	1.606158	0.262019
H226	H	0.592196	0.404700	-0.404509
H227	H	0.925530	0.738033	-0.071175
H228	H	1.258863	1.071366	0.262158
H229	H	0.364670	0.404713	-0.404525
H230	H	0.698003	0.738046	-0.071192
H231	H	1.031337	1.071380	0.262142
H232	H	0.720437	0.247412	-0.247719
H233	H	1.053771	0.580745	0.085615
H234	H	1.387104	0.914079	0.418948
C235	C	0.582094	0.235039	-0.235383
C236	C	0.915427	0.568372	0.097950
C237	C	1.248761	0.901705	0.431284
N238	N	0.552810	0.199129	-0.199586
N239	N	0.886143	0.532463	0.133748
N240	N	1.219476	0.865796	0.467081
C241	C	0.887312	0.235045	-0.722811
C242	C	1.220645	0.568378	-0.389477
C243	C	1.553978	0.901711	-0.056144
N244	N	0.851478	0.199159	-0.752095
N245	N	1.184811	0.532493	-0.418762
N246	N	1.518144	0.865826	-0.085428
C247	C	0.887370	0.234972	-1.078580
C248	C	1.220703	0.568305	-0.745246
C249	C	1.554037	0.901638	-0.411913
N250	N	0.851531	0.199096	-1.107869
N251	N	1.184864	0.532429	-0.774536
N252	N	1.518198	0.865762	-0.441202
H253	H	1.056739	0.939467	-0.247718
H254	H	1.390073	1.272800	0.085615
H255	H	1.723406	1.606133	0.418949
C256	C	0.226327	0.417105	-0.416888
C257	C	0.559660	0.750438	-0.083555
C258	C	0.892993	1.083772	0.249778
N259	N	0.197041	0.453019	-0.452692
N260	N	0.530375	0.786352	-0.119358
N261	N	0.863708	1.119685	0.213975
C262	C	0.887078	0.573626	-0.416929
C263	C	1.220412	0.906959	-0.083596
C264	C	1.553745	1.240293	0.249737
N265	N	0.851181	0.544350	-0.452760
N266	N	1.184514	0.877683	-0.119426
N267	N	1.517848	1.211017	0.213907
C268	C	1.069166	1.077809	-0.235387
C269	C	1.402499	1.411142	0.097947
C270	C	1.735832	1.744476	0.431280
N271	N	1.105061	1.107089	-0.199558
N272	N	1.438394	1.440422	0.133776
N273	N	1.771728	1.773755	0.467109
C274	C	1.069071	0.416803	-1.078553
C275	C	1.402404	0.750136	-0.745219
C276	C	1.735737	1.083470	-0.411886
N277	N	1.104917	0.452669	-1.107830
N278	N	1.438250	0.786002	-0.774497
N279	N	1.771583	1.119336	-0.441164
C280	C	1.069082	0.416803	-0.930117
C281	C	1.402415	0.750136	-0.596783
C282	C	1.735748	1.083469	-0.263450
N283	N	1.104963	0.452643	-0.900835
N284	N	1.438296	0.785977	-0.567502
N285	N	1.771629	1.119310	-0.234169
C286	C	0.887246	1.077832	-0.417034
C287	C	1.220580	1.411166	-0.083700
C288	C	1.553913	1.744499	0.249633
N289	N	0.851371	1.107120	-0.452875
N290	N	1.184704	1.440453	-0.119541
N291	N	1.518037	1.773787	0.213792
H292	H	0.720430	0.404697	-0.404494
H293	H	1.053763	0.738031	-0.071160
H294	H	1.387097	1.071364	0.262173
C295	C	1.068851	0.417031	-0.722791
C296	C	1.402184	0.750364	-0.389457
C297	C	1.735518	1.083697	-0.056124
N298	N	1.104531	0.453061	-0.752071
N299	N	1.437864	0.786394	-0.418737
N300	N	1.771197	1.119727	-0.085404
H301	H	0.899711	0.247373	-0.940235
H302	H	1.233045	0.580706	-0.606902
H303	H	1.566378	0.914039	-0.273568
H304	H	1.056624	0.404536	-0.584449
H305	H	1.389957	0.737869	-0.251116
H306	H	1.723291	1.071202	0.082218
