data_functionalizedCrystal
_audit_creation_method	'MofGen! by Chris Wilmer'
_symmetry_space_group_name_H-M	'P1'
_symmetry_Int_Tables_number	1
_symmetry_cell_setting	triclinic
loop_
_symmetry_equiv_pos_as_xyz
  x,y,z
_cell_length_a	14.908520
_cell_length_b	14.908750
_cell_length_c	14.908768
_cell_angle_alpha	90.188171
_cell_angle_beta	83.235728
_cell_angle_gamma	90.164565
loop_
_atom_site_label
_atom_site_type_symbol
_atom_site_fract_x
_atom_site_fract_y
_atom_site_fract_z
Zn1	Zn	-0.465242	-1.378562	0.457234
Zn2	Zn	0.034758	-0.878562	0.957234
Zn3	Zn	-0.606941	-1.362136	0.315498
Zn4	Zn	-0.106941	-0.862136	0.815498
Zn5	Zn	-0.447871	-1.220508	0.314526
Zn6	Zn	0.052129	-0.720508	0.814526
Zn7	Zn	-0.607939	-1.220430	0.474557
Zn8	Zn	-0.107939	-0.720430	0.974557
O9	O	-0.531998	-1.295409	0.390454
O10	O	-0.031998	-0.795409	0.890454
O11	O	-0.490890	-1.501833	0.431590
O12	O	0.009110	-1.001833	0.931590
O13	O	-0.578152	-1.336507	0.189078
O14	O	-0.078152	-0.836507	0.689078
O15	O	-0.323885	-1.248380	0.325800
O16	O	0.176115	-0.748380	0.825800
O17	O	-0.594996	-1.489765	0.327456
O18	O	-0.094996	-0.989765	0.827456
O19	O	-0.336647	-1.364502	0.430648
O20	O	0.163353	-0.864502	0.930648
O21	O	-0.461284	-1.232453	0.188364
O22	O	0.038716	-0.732453	0.688364
O23	O	-0.462253	-1.095047	0.342598
O24	O	0.037747	-0.595047	0.842598
O25	O	-0.596698	-1.248249	0.598551
O26	O	-0.096698	-0.748249	1.098551
O27	O	-0.579854	-1.094990	0.460172
O28	O	-0.079854	-0.594990	0.960172
O29	O	-0.491859	-1.364427	0.585823
O30	O	0.008141	-0.864427	1.085823
O31	O	-0.733364	-1.336432	0.344254
O32	O	-0.233364	-0.836432	0.844254
O33	O	-0.734098	-1.232321	0.461114
O34	O	-0.234098	-0.732321	0.961114
C35	C	-0.519278	-1.062491	0.403160
C36	C	-0.019278	-0.562491	0.903160
C37	C	-0.513859	-0.962847	0.408618
C38	C	-0.013859	-0.462847	0.908618
C39	C	-0.452127	-0.828683	0.470618
C40	C	0.047873	-0.328683	0.970618
C41	C	-0.457210	-0.922307	0.465493
C42	C	0.042790	-0.422307	0.965493
C43	C	-0.565429	-0.909756	0.356866
C44	C	-0.065429	-0.409756	0.856866
C45	C	-0.560345	-0.816131	0.361991
C46	C	-0.060345	-0.316131	0.861991
C47	C	-0.503691	-0.775598	0.418867
C48	C	-0.003691	-0.275598	0.918867
C49	C	-0.498603	-0.681972	0.423987
C50	C	0.001397	-0.181972	0.923987
C51	C	-0.606826	-0.669423	0.315365
C52	C	-0.106826	-0.169423	0.815365
C53	C	-0.611910	-0.763047	0.310241
C54	C	-0.111910	-0.263047	0.810241
C55	C	-0.766479	-1.282611	0.404687
C56	C	-0.266479	-0.782611	0.904687
C57	C	-0.866797	-1.277220	0.410802
C58	C	-0.366797	-0.777220	0.910802
C59	C	-1.054492	-1.375622	0.300692
C60	C	-0.554492	-0.875622	0.800692
C61	C	-1.148750	-1.370560	0.306435
C62	C	-0.648750	-0.870560	0.806435
C63	C	-1.149573	-1.262037	0.428033
C64	C	-0.649573	-0.762037	0.928033
C65	C	-1.055315	-1.267100	0.422291
C66	C	-0.555315	-0.767100	0.922291
C67	C	-1.007778	-1.323893	0.358617
C68	C	-0.507778	-0.823893	0.858617
C69	C	-0.913518	-1.328951	0.352871
C70	C	-0.413518	-0.828951	0.852871
C71	C	-0.914343	-1.220434	0.474473
C72	C	-0.414343	-0.720434	0.974473
C73	C	-1.008600	-1.215371	0.480216
C74	C	-0.508600	-0.715371	0.980216
C75	C	-0.296604	-1.308282	0.376183
C76	C	0.203396	-0.808282	0.876183
C77	C	-0.196294	-1.313768	0.370102
C78	C	0.303706	-0.813768	0.870102
C79	C	-0.546327	-1.308161	0.625848
C80	C	-0.046327	-0.808161	1.125848
C81	C	-0.552433	-1.313596	0.726160
C82	C	-0.052433	-0.813596	1.226160
C83	C	-0.544759	-0.529237	0.377692
C84	C	-0.044759	-0.029237	0.877692
C85	C	-0.550173	-0.628880	0.372235
C86	C	-0.050173	-0.128880	0.872235
C87	C	-0.621879	-1.375420	0.867918
C88	C	-0.121879	-0.875420	1.367918
C89	C	-0.616147	-1.370320	0.773667
C90	C	-0.116147	-0.870320	1.273667
C91	C	-0.494450	-1.261965	0.772910
C92	C	0.005550	-0.761965	1.272910
C93	C	-0.500182	-1.267065	0.867161
C94	C	-0.000182	-0.767065	1.367161
C95	C	-0.563898	-1.323795	0.914662
C96	C	-0.063898	-0.823795	1.414662
C97	C	-0.569625	-1.328899	1.008915
C98	C	-0.069625	-0.828899	1.508915
C99	C	-0.447932	-1.220540	1.008157
C100	C	0.052068	-0.720540	1.508157
C101	C	-0.442200	-1.215441	0.913905
C102	C	0.057800	-0.715441	1.413905
C103	C	-0.517745	-1.282699	1.155977
C104	C	-0.017745	-0.782699	1.655977
C105	C	-0.511641	-1.277269	1.055665
C106	C	-0.011641	-0.777269	1.555665
H107	H	-0.415221	-0.965525	0.507634
H108	H	0.084779	-0.465525	1.007634
H109	H	-0.648816	-0.626191	0.273228
H110	H	-0.148816	-0.126191	0.773228
N111	N	-1.199127	-1.426349	0.243948
N112	N	-0.699127	-0.926349	0.743948
H113	H	-1.233747	-1.385581	0.206465
H114	H	-0.733747	-0.885581	0.706465
H115	H	-1.242636	-1.467751	0.280831
H116	H	-0.742636	-0.967751	0.780831
N117	N	-0.638341	-1.390086	1.060151
N118	N	-0.138341	-0.890086	1.560151
H119	H	-0.674203	-1.422014	1.016234
H120	H	-0.174203	-0.922014	1.516234
H121	H	-0.680490	-1.353426	1.103780
H122	H	-0.180490	-0.853426	1.603780
N123	N	-0.678676	-1.426004	0.723243
N124	N	-0.178676	-0.926004	1.223243
H125	H	-0.716129	-1.385168	0.688661
H126	H	-0.216129	-0.885168	1.188661
H127	H	-0.719851	-1.462709	0.767690
H128	H	-0.219851	-0.962709	1.267690
N129	N	-0.425740	-1.200774	0.721671
N130	N	0.074260	-0.700774	1.221671
H131	H	-0.430913	-1.205377	0.654871
H132	H	0.069087	-0.705377	1.154871
H133	H	-0.363047	-1.219141	0.733467
H134	H	0.136953	-0.719141	1.233467
N135	N	-0.385396	-1.164859	1.058583
N136	N	0.114604	-0.664859	1.558583
H137	H	-0.394914	-1.099150	1.046526
H138	H	0.105086	-0.599150	1.546526
H139	H	-0.320705	-1.181495	1.037487
H140	H	0.179295	-0.681495	1.537487
H141	H	-0.874814	-1.375192	0.301023
H142	H	-0.374814	-0.875192	0.801023
H143	H	-1.188294	-1.215805	0.479878
H144	H	-0.688294	-0.715805	0.979878
H145	H	-0.876297	-1.178309	0.521637
H146	H	-0.376297	-0.678309	1.021637
H147	H	-1.015786	-1.421859	0.248841
H148	H	-0.515786	-0.921859	0.748841
H149	H	-0.390327	-1.169250	0.875218
H150	H	0.109673	-0.669250	1.375218
N151	N	-0.690587	-1.436613	0.919158
N152	N	-0.190587	-0.936613	1.419158
H153	H	-0.726446	-1.468548	0.875242
H154	H	-0.226446	-0.968548	1.375242
H155	H	-0.732741	-1.399958	0.962786
H156	H	-0.232741	-0.899958	1.462786
N157	N	-0.437493	-0.638250	0.485321
N158	N	0.062507	-0.138250	0.985321
H159	H	-0.405600	-0.686089	0.517327
H160	H	0.094400	-0.186089	1.017327
H161	H	-0.474721	-0.599666	0.531386
H162	H	0.025279	-0.099666	1.031386
H163	H	-0.405987	-0.795680	0.516920
H164	H	0.094013	-0.295680	1.016920
H165	H	-0.658038	-0.796062	0.263936
H166	H	-0.158038	-0.296062	0.763936
N167	N	-0.626532	-0.953482	0.295528
N168	N	-0.126532	-0.453482	0.795528
H169	H	-0.621927	-1.020847	0.300138
H170	H	-0.121927	-0.520847	0.800138
H171	H	-0.607571	-0.934389	0.231133
H172	H	-0.107571	-0.434389	0.731133
N173	N	-1.059874	-1.154119	0.548889
N174	N	-0.559874	-0.654119	1.048889
H175	H	-1.126676	-1.158760	0.543739
H176	H	-0.626676	-0.658760	1.043739
H177	H	-1.039111	-1.090224	0.537273
H178	H	-0.539111	-0.590224	1.037273
