data_functionalizedCrystal
_audit_creation_method	'MofGen! by Chris Wilmer'
_symmetry_space_group_name_H-M	'P1'
_symmetry_Int_Tables_number	1
_symmetry_cell_setting	triclinic
loop_
_symmetry_equiv_pos_as_xyz
  x,y,z
_cell_length_a	19.077105
_cell_length_b	19.077068
_cell_length_c	19.076929
_cell_angle_alpha	94.467801
_cell_angle_beta	90.078300
_cell_angle_gamma	90.115316
loop_
_atom_site_label
_atom_site_type_symbol
_atom_site_fract_x
_atom_site_fract_y
_atom_site_fract_z
Zn1	Zn	1.044032	-0.340427	-0.453497
Zn2	Zn	1.544032	0.159573	0.046503
Zn3	Zn	1.043949	-0.453583	-0.340339
Zn4	Zn	1.543949	0.046417	0.159661
Zn5	Zn	0.931648	-0.331006	-0.330929
Zn6	Zn	1.431648	0.168994	0.169071
Zn7	Zn	0.921785	-0.453152	-0.453075
Zn8	Zn	1.421785	0.046848	0.046925
O9	O	0.985354	-0.394542	-0.394460
O10	O	1.485354	0.105458	0.105540
O11	O	1.142180	-0.359560	-0.442602
O12	O	1.642180	0.140440	0.057398
O13	O	1.033146	-0.433560	-0.240615
O14	O	1.533146	0.066440	0.259385
O15	O	0.950719	-0.233781	-0.343427
O16	O	1.450719	0.266219	0.156573
O17	O	1.142120	-0.442695	-0.359465
O18	O	1.642120	0.057305	0.140535
O19	O	1.033287	-0.240703	-0.433477
O20	O	1.533287	0.259297	0.066523
O21	O	0.950638	-0.343504	-0.233702
O22	O	1.450638	0.156496	0.266298
O23	O	0.832180	-0.343086	-0.343017
O24	O	1.332180	0.156914	0.156983
O25	O	0.933908	-0.441962	-0.551606
O26	O	1.433908	0.058038	-0.051606
O27	O	0.824934	-0.432827	-0.432757
O28	O	1.324934	0.067173	0.067243
O29	O	1.023722	-0.359143	-0.551917
O30	O	1.523722	0.140857	-0.051917
O31	O	1.023581	-0.552000	-0.359055
O32	O	1.523581	-0.052000	0.140945
O33	O	0.933828	-0.551684	-0.441881
O34	O	1.433828	-0.051684	0.058119
C35	C	0.803105	-0.386888	-0.386820
C36	C	1.303105	0.113112	0.113180
C37	C	0.725137	-0.383631	-0.383570
C38	C	1.225137	0.116369	0.116430
C39	C	0.684753	-0.428889	-0.428697
C40	C	1.184753	0.071111	0.071303
C41	C	0.611494	-0.425820	-0.425645
C42	C	1.111494	0.074180	0.074355
C43	C	0.578621	-0.377496	-0.377463
C44	C	1.078621	0.122504	0.122537
C45	C	0.619010	-0.332233	-0.332333
C46	C	1.119010	0.167767	0.167667
C47	C	0.692268	-0.335299	-0.335389
C48	C	1.192268	0.164701	0.164611
C49	C	0.359927	-0.363304	-0.363325
C50	C	0.859927	0.136696	0.136675
C51	C	0.286664	-0.360243	-0.360271
C52	C	0.786664	0.139757	0.139729
C53	C	0.279153	-0.453830	-0.453584
C54	C	0.779153	0.046170	0.046416
C55	C	0.352413	-0.456895	-0.456633
C56	C	0.852413	0.043105	0.043367
C57	C	0.392795	-0.411629	-0.411506
C58	C	0.892795	0.088371	0.088494
N59	N	0.503738	-0.374359	-0.374341
N60	N	1.003738	0.125641	0.125659
N61	N	0.467676	-0.414763	-0.414632
N62	N	0.967676	0.085237	0.085368
C63	C	0.977644	-0.577377	-0.401459
C64	C	1.477644	-0.077377	0.098541
C65	C	0.974409	-0.655598	-0.404480
C66	C	1.474409	-0.155598	0.095520
C67	C	1.019652	-0.692490	-0.362814
C68	C	1.519652	-0.192490	0.137186
C69	C	1.016613	-0.765988	-0.365660
C70	C	1.516613	-0.265988	0.134340
C71	C	0.968327	-0.802591	-0.410167
C72	C	1.468327	-0.302591	0.089833
C73	C	0.923082	-0.765693	-0.451837
C74	C	1.423082	-0.265693	0.048163
C75	C	0.926124	-0.692198	-0.448995
C76	C	1.426124	-0.192198	0.051005
C77	C	0.954215	-1.022385	-0.423291
C78	C	1.454215	-0.522385	0.076709
C79	C	0.951175	-1.095885	-0.426128
C80	C	1.451175	-0.595885	0.073872
C81	C	1.044708	-1.096175	-0.339951
C82	C	1.544708	-0.596175	0.160049
C83	C	1.047743	-1.022677	-0.337110
C84	C	1.547743	-0.522677	0.162890
C85	C	1.002500	-0.985786	-0.378782
C86	C	1.502500	-0.485786	0.121218
N87	N	0.965218	-0.877717	-0.413075
N88	N	1.465218	-0.377717	0.086925
N89	N	1.005613	-0.910662	-0.375878
N90	N	1.505613	-0.410662	0.124122
C91	C	1.168313	-0.402226	-0.402130
C92	C	1.668313	0.097774	0.097870
C93	C	1.246280	-0.405501	-0.405398
C94	C	1.746280	0.094499	0.094602
C95	C	0.977724	-0.401555	-0.578009
C96	C	1.477724	0.098445	-0.078009
C97	C	0.974473	-0.404544	-0.656227
C98	C	1.474473	0.095456	-0.156227
C99	C	0.993112	-0.210995	-0.387450
C100	C	1.493112	0.289005	0.112550
C101	C	0.996418	-0.132778	-0.384462
C102	C	1.496418	0.367222	0.115538
C103	C	0.951156	-0.426035	-1.096494
C104	C	1.451156	0.073965	-0.596494
C105	C	0.954209	-0.423217	-1.023000
C106	C	1.454209	0.076783	-0.523000
C107	C	1.002500	-0.378692	-0.986418
C108	C	1.502500	0.121308	-0.486418
C109	C	1.047737	-0.336978	-1.023334
C110	C	1.547737	0.163022	-0.523334
C111	C	1.044681	-0.339794	-1.096827
C112	C	1.544681	0.160206	-0.596827
C113	C	1.016653	-0.365645	-0.766636
C114	C	1.516653	0.134355	-0.266636
C115	C	1.019708	-0.362835	-0.693138
C116	C	1.519708	0.137165	-0.193138
C117	C	0.926178	-0.449072	-0.692809
C118	C	1.426178	0.050928	-0.192809
C119	C	0.923129	-0.451887	-0.766303
C120	C	1.423129	0.048113	-0.266303
C121	C	0.968363	-0.410170	-0.803213
C122	C	1.468363	0.089830	-0.303213
N123	N	1.005623	-0.375812	-0.911295
N124	N	1.505623	0.124188	-0.411295
N125	N	0.965236	-0.413048	-0.878334
N126	N	1.465236	0.086952	-0.378334
C127	C	0.992996	-0.387507	-0.211625
C128	C	1.492996	0.112493	0.288375
C129	C	0.996391	-0.384326	-0.133405
C130	C	1.496391	0.115674	0.366595
H131	H	0.259901	-0.320883	-0.321039
H132	H	0.759901	0.179117	0.178961
O133	O	0.882245	-0.656251	-0.489443
O134	O	1.382245	-0.156251	0.010557
C135	C	0.845453	-0.542894	-0.523228
C136	C	1.345453	-0.042894	-0.023228
C137	C	0.895197	-0.583515	-0.477391
C138	C	1.395197	-0.083515	0.022609
H139	H	0.855897	-0.484079	-0.513490
H140	H	1.355897	0.015921	-0.013490
H141	H	0.854773	-0.559942	-0.581067
H142	H	1.354773	-0.059942	-0.081067
H143	H	0.788822	-0.554593	-0.509026
H144	H	1.288822	-0.054593	-0.009026
H145	H	0.951846	-0.571837	-0.491532
H146	H	1.451846	-0.071837	0.008468
H147	H	0.885816	-0.566462	-0.419565
H148	H	1.385816	-0.066462	0.080435
H149	H	0.379173	-0.496247	-0.495867
H150	H	0.879173	0.003753	0.004133
H151	H	1.059032	-0.326573	-0.663355
H152	H	1.559032	0.173427	-0.163355
H153	H	1.087061	-0.992876	-0.300868
H154	H	1.587061	-0.492876	0.199132
H155	H	1.058969	-0.662693	-0.326568
H156	H	1.558969	-0.162693	0.173432
O157	O	1.094668	-0.293666	-0.987908
O158	O	1.594668	0.206334	-0.487908
C159	C	1.187144	-0.208461	-0.996000
C160	C	1.687144	0.291539	-0.496000
C161	C	1.134014	-0.257468	-1.036204
C162	C	1.634014	0.242532	-0.536204
H163	H	1.218979	-0.179193	-1.035031
H164	H	1.718979	0.320807	-0.535031
H165	H	1.157964	-0.168948	-0.958858
H166	H	1.657964	0.331052	-0.458858
H167	H	1.223856	-0.241004	-0.964344
H168	H	1.723856	0.258996	-0.464344
H169	H	1.097288	-0.224982	-1.067901
H170	H	1.597288	0.275018	-0.567901
H171	H	1.163240	-0.296982	-1.073304
H172	H	1.663240	0.203018	-0.573304
H173	H	0.917376	-0.992354	-0.457221
H174	H	1.417376	-0.492354	0.042779
O175	O	0.904184	-0.469303	-1.131916
O176	O	1.404184	0.030697	-0.631916
C177	C	0.811764	-0.554569	-1.123826
C178	C	1.311764	-0.054569	-0.623826
C179	C	0.864919	-0.505588	-1.083626
C180	C	1.364919	-0.005588	-0.583626
H181	H	0.780015	-0.583930	-1.084802
H182	H	1.280015	-0.083930	-0.584802
H183	H	0.774975	-0.522068	-1.155445
H184	H	1.274975	-0.022068	-0.655445
H185	H	0.840992	-0.594009	-1.161004
H186	H	1.340992	-0.094009	-0.661004
H187	H	0.835750	-0.466139	-1.046412
H188	H	1.335750	0.033861	-0.546412
H189	H	0.901707	-0.538135	-1.052053
H190	H	1.401707	-0.038135	-0.552053
H191	H	1.081543	-1.126219	-0.306024
H192	H	1.581543	-0.626219	0.193976
O193	O	0.882214	-0.489666	-0.657065
O194	O	1.382214	0.010334	-0.157065
C195	C	0.789107	-0.575481	-0.664494
C196	C	1.289107	-0.075481	-0.164494
C197	C	0.838867	-0.529553	-0.705061
C198	C	1.338867	-0.029553	-0.205061
H199	H	0.754038	-0.607730	-0.703280
H200	H	1.254038	-0.107730	-0.203280
H201	H	0.821157	-0.612358	-0.632865
H202	H	1.321157	-0.112358	-0.132865
H203	H	0.755256	-0.540311	-0.627294
H204	H	1.255256	-0.040311	-0.127294
H205	H	0.872729	-0.564669	-0.742297
H206	H	1.372729	-0.064669	-0.242297
H207	H	0.806776	-0.492671	-0.736644
H208	H	1.306776	0.007329	-0.236644
H209	H	0.883769	-0.795502	-0.488079
H210	H	1.383769	-0.295502	0.011921
H211	H	1.053455	-0.796022	-0.331731
H212	H	1.553455	-0.296022	0.168269
H213	H	0.883806	-0.488144	-0.796083
H214	H	1.383806	0.011856	-0.296083
O215	O	1.088524	-0.299200	-1.132709
O216	O	1.588524	0.200800	-0.632709
C217	C	1.098525	-0.207795	-1.212493
C218	C	1.598525	0.292205	-0.712493
C219	C	1.048795	-0.253714	-1.171884
C220	C	1.548795	0.246286	-0.671884
H221	H	1.066424	-0.171019	-1.244187
H222	H	1.566424	0.328981	-0.744187
H223	H	1.133555	-0.175438	-1.173753
H224	H	1.633555	0.324562	-0.673753
H225	H	1.132419	-0.242976	-1.249641
H226	H	1.632419	0.257024	-0.749641
H227	H	1.014856	-0.218586	-1.134735
H228	H	1.514856	0.281414	-0.634735
H229	H	1.013813	-0.286077	-1.210663
H230	H	1.513813	0.213923	-0.710663
H231	H	0.911862	-1.125686	-0.462384
H232	H	1.411862	-0.625686	0.037616
O233	O	0.399044	-0.319306	-0.319419
O234	O	0.899044	0.180694	0.180581
C235	C	0.398756	-0.226122	-0.226578
C236	C	0.898756	0.273878	0.273422
C237	C	0.354368	-0.275926	-0.276249
C238	C	0.854368	0.224074	0.223751
H239	H	0.362654	-0.191027	-0.191673
H240	H	0.862654	0.308973	0.308327
H241	H	0.433207	-0.258356	-0.192342
H242	H	0.933207	0.241644	0.307658
H243	H	0.433275	-0.192080	-0.258988
H244	H	0.933275	0.307920	0.241012
H245	H	0.319808	-0.309979	-0.243895
H246	H	0.819808	0.190021	0.256105
H247	H	0.319962	-0.243650	-0.310488
H248	H	0.819962	0.256350	0.189512
H249	H	0.725148	-0.298442	-0.298645
H250	H	1.225148	0.201558	0.201355
H251	H	0.578617	-0.462675	-0.462392
H252	H	1.078617	0.037325	0.037608
O253	O	0.239820	-0.497722	-0.497392
O254	O	0.739820	0.002278	0.002608
C255	C	0.123634	-0.534504	-0.534018
C256	C	0.623634	-0.034504	-0.034018
C257	C	0.168093	-0.484745	-0.484372
C258	C	0.668093	0.015255	0.015628
H259	H	0.065635	-0.524040	-0.523499
H260	H	0.565635	-0.024040	-0.023499
H261	H	0.136156	-0.525002	-0.590926
H262	H	0.636156	-0.025002	-0.090926
H263	H	0.136206	-0.591350	-0.524351
H264	H	0.636206	-0.091350	-0.024351
H265	H	0.155547	-0.427881	-0.493976
H266	H	0.655547	0.072119	0.006024
H267	H	0.155565	-0.494308	-0.427481
H268	H	0.655565	0.005692	0.072519
O269	O	0.587045	-0.285385	-0.285459
O270	O	1.087045	0.214615	0.214541
C271	C	0.508632	-0.268671	-0.186677
C272	C	1.008632	0.231329	0.313323
C273	C	0.544799	-0.321803	-0.239709
C274	C	1.044799	0.178197	0.260291
H275	H	0.474457	-0.298094	-0.149684
H276	H	0.974457	0.201906	0.350316
H277	H	0.550050	-0.236856	-0.154896
H278	H	1.050050	0.263144	0.345104
H279	H	0.474575	-0.231718	-0.216228
H280	H	0.974575	0.268282	0.283772
H281	H	0.578853	-0.358801	-0.210214
H282	H	1.078853	0.141199	0.289786
H283	H	0.503346	-0.353568	-0.271489
H284	H	1.003346	0.146432	0.228511
O285	O	0.910364	-0.463771	-0.987079
O286	O	1.410364	0.036229	-0.487079
C287	C	0.900341	-0.555240	-0.907371
C288	C	1.400341	-0.055240	-0.407371
C289	C	0.950081	-0.509345	-0.947994
C290	C	1.450081	-0.009345	-0.447994
H291	H	0.932432	-0.592108	-0.875771
H292	H	1.432432	-0.092108	-0.375771
H293	H	0.866465	-0.520112	-0.870153
H294	H	1.366465	-0.020112	-0.370153
H295	H	0.865293	-0.587512	-0.946160
H296	H	1.365293	-0.087512	-0.446160
H297	H	0.985173	-0.477067	-0.909257
H298	H	1.485173	0.022933	-0.409257
H299	H	0.983908	-0.544512	-0.985222
H300	H	1.483908	-0.044512	-0.485222
O301	O	1.060668	-0.325105	-0.802377
O302	O	1.560668	0.174895	-0.302377
C303	C	1.153737	-0.239249	-0.794939
C304	C	1.653737	0.260751	-0.294939
C305	C	1.103937	-0.285135	-0.754373
C306	C	1.603937	0.214865	-0.254373
H307	H	1.188722	-0.206910	-0.756145
H308	H	1.688722	0.293090	-0.256145
H309	H	1.187665	-0.274384	-0.832098
H310	H	1.687665	0.225616	-0.332098
H311	H	1.121649	-0.202443	-0.826614
H312	H	1.621649	0.297557	-0.326614
H313	H	1.135970	-0.321946	-0.722658
H314	H	1.635970	0.178054	-0.222658
H315	H	1.070007	-0.249957	-0.717257
H316	H	1.570007	0.250043	-0.217257
H317	H	0.711513	-0.468243	-0.467930
H318	H	1.211513	0.031757	0.032070
