data_functionalizedCrystal
_audit_creation_method	'MofGen! by Chris Wilmer'
_symmetry_space_group_name_H-M	'P1'
_symmetry_Int_Tables_number	1
_symmetry_cell_setting	triclinic
loop_
_symmetry_equiv_pos_as_xyz
  x,y,z
_cell_length_a	21.295417
_cell_length_b	12.645331
_cell_length_c	12.645323
_cell_angle_alpha	89.984262
_cell_angle_beta	89.966008
_cell_angle_gamma	90.029742
loop_
_atom_site_label
_atom_site_type_symbol
_atom_site_fract_x
_atom_site_fract_y
_atom_site_fract_z
Zn1	Zn	-0.250617	1.620637	-0.599183
Zn2	Zn	-0.355892	1.620479	-0.421895
Zn3	Zn	-0.250639	1.443351	-0.421949
Zn4	Zn	-0.355851	1.443293	-0.599132
O5	O	-0.303250	1.531940	-0.510539
O6	O	-0.264590	1.768963	-0.575664
O7	O	-0.341956	1.596941	-0.273554
O8	O	-0.162547	1.466959	-0.445503
O9	O	-0.341935	1.768847	-0.445411
O10	O	-0.162531	1.597210	-0.575716
O11	O	-0.264627	1.466806	-0.273594
O12	O	-0.264588	1.294996	-0.445453
O13	O	-0.341865	1.466860	-0.747486
O14	O	-0.341886	1.294954	-0.575629
O15	O	-0.264551	1.597154	-0.747523
O16	O	-0.443976	1.596884	-0.445361
O17	O	-0.443946	1.466707	-0.575577
C18	C	-0.303235	1.256510	-0.510542
C19	C	-0.303244	1.138680	-0.510568
C20	C	-0.352140	0.971125	-0.592035
C21	C	-0.351982	1.093685	-0.592375
C22	C	-0.236943	1.094227	-0.541108
C23	C	-0.237242	0.971629	-0.541681
C24	C	-0.320116	0.971428	-0.398305
C25	C	-0.321566	1.094034	-0.398910
C26	C	-0.466801	1.531801	-0.510481
C27	C	-0.536769	1.531839	-0.510491
C28	C	-0.569631	1.599682	-0.442757
C29	C	-0.635373	1.599732	-0.442781
C30	C	-0.668252	1.531919	-0.510528
C31	C	-0.635383	1.464071	-0.578274
C32	C	-0.569641	1.464031	-0.578256
N33	N	-0.771517	1.439183	-0.518610
N34	N	-0.833968	1.439224	-0.518621
C35	C	-0.866327	1.532038	-0.510588
N36	N	-0.833874	1.624811	-0.502523
N37	N	-0.771417	1.624768	-0.502506
C38	C	-0.739537	1.531956	-0.510555
C39	C	-0.970473	1.599941	-0.442877
C40	C	-1.036217	1.599992	-0.442908
C41	C	-1.036225	1.464322	-0.578396
C42	C	-0.970483	1.464280	-0.578370
C43	C	-0.937611	1.532088	-0.510605
C44	C	-0.139059	1.532108	-0.510622
C45	C	-0.069091	1.532180	-0.510657
C46	C	-0.303201	1.532018	-0.787045
C47	C	-0.303180	1.532051	-0.904875
C48	C	-0.303264	1.808445	-0.510537
C49	C	-0.303271	1.926275	-0.510536
C50	C	-0.351590	1.449831	-1.072415
C51	C	-0.351830	1.450046	-0.949855
C52	C	-0.321184	1.643744	-0.949376
C53	C	-0.321488	1.643293	-1.071975
C54	C	-0.236496	1.503635	-1.072094
C55	C	-0.236895	1.501143	-0.949488
C56	C	-0.303253	1.531923	-0.235110
C57	C	-0.303096	1.532095	-0.117280
H58	H	-0.341136	0.940338	-0.674710
C59	C	-0.187687	1.584583	-1.111290
N60	N	-0.150929	1.645557	-1.140815
H61	H	-0.198855	1.556685	-0.918870
C62	C	-0.275855	1.728918	-1.112074
N63	N	-0.241488	1.793417	-1.142272
C64	C	-0.533493	1.389407	-0.652785
N65	N	-0.506265	1.333204	-0.708926
C66	C	-0.418534	1.475407	-0.910228
N67	N	-0.468782	1.494488	-0.880381
H68	H	-0.288554	1.124663	-0.334928
H69	H	-0.340563	1.367222	-0.919767
H70	H	-0.662157	1.408859	-0.633436
C71	C	-1.072364	1.674629	-0.368391
N72	N	-1.099591	1.730845	-0.312261
C73	C	-0.418405	1.134289	-0.566522
N74	N	-0.468437	1.164866	-0.547054
C75	C	-0.386270	1.676896	-0.907904
N76	N	-0.435295	1.701860	-0.876670
C77	C	-0.217289	1.135734	-0.650753
N78	N	-0.202489	1.166994	-0.733341
C79	C	-0.384314	0.929621	-0.360804
N80	N	-0.432671	0.898133	-0.332571
C81	C	-0.272032	0.932237	-0.316267
N82	N	-0.235814	0.902711	-0.254485
C83	C	-0.214328	1.395515	-1.113852
N84	N	-0.197639	1.314074	-1.145302
H85	H	-0.340834	1.123038	-0.675535
C86	C	-0.218537	1.390122	-0.910151
N87	N	-0.204706	1.306507	-0.880501
H88	H	-0.542868	1.654898	-0.387582
H89	H	-0.943725	1.409031	-0.633521
H90	H	-0.286981	1.706680	-0.920243
H91	H	-1.062994	1.409112	-0.633561
C92	C	-0.336513	1.337601	-1.112240
N93	N	-0.325156	1.253067	-1.142244
C94	C	-0.417878	1.474971	-1.114013
N95	N	-0.467806	1.493915	-1.145340
C96	C	-0.387262	1.675878	-1.110608
N97	N	-0.436806	1.700418	-1.139701
H98	H	-0.943708	1.655158	-0.387702
C99	C	-0.671528	1.674362	-0.368261
N100	N	-0.698758	1.730572	-0.312129
H101	H	-0.222953	0.943060	-0.623728
C102	C	-0.418782	0.931250	-0.566469
N103	N	-0.468979	0.901207	-0.547212
H104	H	-0.199543	1.123374	-0.483603
C105	C	-0.186380	0.931547	-0.464998
N106	N	-0.148069	0.901362	-0.407246
C107	C	-0.387470	1.133321	-0.367778
N108	N	-0.437105	1.162934	-0.344324
