data_functionalizedCrystal
_audit_creation_method	'MofGen! by Chris Wilmer'
_symmetry_space_group_name_H-M	'P1'
_symmetry_Int_Tables_number	1
_symmetry_cell_setting	triclinic
loop_
_symmetry_equiv_pos_as_xyz
  x,y,z
_cell_length_a	16.109301
_cell_length_b	10.654541
_cell_length_c	15.186229
_cell_angle_alpha	89.996481
_cell_angle_beta	89.999362
_cell_angle_gamma	83.972705
loop_
_atom_site_label
_atom_site_type_symbol
_atom_site_fract_x
_atom_site_fract_y
_atom_site_fract_z
O1	O	1.104089	0.161419	-0.073172
O2	O	0.862147	0.181508	-0.073186
O3	O	0.988682	-0.011352	-0.073174
O4	O	0.977554	0.354278	-0.073185
O5	O	0.988673	-0.011354	0.073284
O6	O	0.862138	0.181505	0.073271
O7	O	1.104081	0.161416	0.073285
Zn8	Zn	0.983108	0.171460	0.096531
Zn9	Zn	0.983119	0.171464	-0.096433
O10	O	0.977546	0.354276	0.073272
C11	C	0.831163	0.180692	0.000040
C12	C	0.738853	0.178253	0.000035
C13	C	0.517227	0.287019	0.000042
C14	C	0.430493	0.284717	0.000048
C15	C	0.449008	0.055896	0.000051
C16	C	0.535740	0.058200	0.000052
C17	C	0.569847	0.173765	0.000043
C18	C	0.396381	0.169159	0.000048
C19	C	0.302340	0.166662	0.000054
C20	C	0.663894	0.176262	0.000038
C21	C	0.987861	-0.058140	0.000054
C22	C	0.985418	-0.197550	0.000053
C23	C	1.136725	-0.227574	0.000073
C24	C	1.211227	-0.308079	0.000084
C25	C	1.208926	-0.439066	0.000081
C26	C	1.132115	-0.489549	0.000064
C27	C	1.057613	-0.409044	0.000053
C28	C	1.059922	-0.278056	0.000058
C29	C	0.906308	-0.379021	0.000026
C30	C	0.908607	-0.248034	0.000036
C31	C	0.829496	-0.429504	0.000009
C32	C	0.754992	-0.348998	0.000004
C33	C	0.757296	-0.218004	0.000008
C34	C	0.834104	-0.167529	0.000024
C35	C	1.135065	0.162231	0.000056
C36	C	1.227375	0.164671	0.000055
C37	C	0.978367	0.401064	0.000042
C38	C	0.980810	0.540474	0.000038
N39	N	0.983107	0.171457	0.228224
N40	N	0.983128	0.171457	-0.228125
C41	C	1.039156	0.086088	0.453952
C42	C	1.039158	0.086085	0.546142
C43	C	0.927072	0.256830	0.546140
C44	C	0.927066	0.256826	0.453952
C45	C	0.983113	0.171456	0.407860
C46	C	0.983121	0.171458	0.592238
C47	C	0.983124	0.171455	0.692194
C48	C	0.983110	0.171457	0.307898
H49	H	0.387652	0.376940	0.000049
H50	H	0.881426	0.326344	0.416421
C51	C	0.644018	-0.071965	0.075342
C52	C	0.593588	-0.066300	0.000052
H53	H	0.679726	-0.148826	0.075345
H54	H	0.676739	-0.002819	0.075336
H55	H	0.609787	-0.068114	0.126408
H56	H	0.627818	-0.070142	-0.051014
H57	H	0.560864	-0.135465	0.000050
C58	C	0.796225	0.028292	-0.075263
C59	C	0.836635	-0.023546	0.000030
H60	H	0.797786	0.117182	-0.075256
H61	H	0.823658	-0.006875	-0.126321
H62	H	0.739821	0.009741	-0.075267
H63	H	0.893041	-0.005003	0.000030
H64	H	0.809203	0.011634	0.051102
C65	C	0.490210	0.512965	0.000050
C66	C	0.554718	0.414046	0.000044
H67	H	0.513356	0.591387	0.000059
H68	H	0.456770	0.507315	-0.051020
H69	H	0.456765	0.507289	0.051126
H70	H	0.588159	0.419717	-0.051035
H71	H	0.588173	0.419699	0.051120
H72	H	0.421227	-0.038193	0.000064
C73	C	0.814098	0.284039	0.649831
C74	C	0.865476	0.350672	0.596811
H75	H	0.776076	0.341978	0.681116
H76	H	0.783889	0.231764	0.613874
H77	H	0.847488	0.233200	0.690471
H78	H	0.832087	0.401504	0.556166
H79	H	0.895687	0.402969	0.632771
C80	C	1.222404	-0.056281	0.000102
C81	C	1.139256	-0.083592	0.000083
H82	H	1.223965	0.032608	0.000103
H83	H	1.249805	-0.091462	0.051176
H84	H	1.249827	-0.091453	-0.050971
H85	H	1.111834	-0.048428	0.051159
H86	H	1.111843	-0.048395	-0.050996
H87	H	1.084791	0.016573	0.416427
C88	C	1.340915	-0.293317	-0.075185
C89	C	1.295654	-0.252580	0.000099
H90	H	1.393033	-0.259048	-0.075180
H91	H	1.350206	-0.382837	-0.075178
H92	H	1.310204	-0.265671	-0.126255
H93	H	1.326362	-0.280234	0.051169
H94	H	1.286365	-0.163040	0.000100
H95	H	0.827628	-0.536161	0.000001
H96	H	1.269593	-0.504614	0.000084
C97	C	0.684283	-0.536462	-0.000020
C98	C	0.670569	-0.404491	-0.000014
H99	H	0.632162	-0.570721	-0.000025
H100	H	0.714991	-0.564073	-0.051088
H101	H	0.714987	-0.564094	0.051058
H102	H	0.639871	-0.376860	-0.051096
H103	H	0.639848	-0.376870	0.051060
C104	C	1.170023	-0.685340	-0.075233
C105	C	1.129589	-0.633532	0.000052
H106	H	1.168467	-0.774230	-0.075237
H107	H	1.142605	-0.650156	-0.126297
H108	H	1.226426	-0.666783	-0.075215
H109	H	1.073184	-0.652081	0.000030
H110	H	1.157006	-0.668728	0.051129
C111	C	1.152148	0.058885	0.649812
C112	C	1.100763	-0.007752	0.596809
H113	H	1.190176	0.000948	0.681094
H114	H	1.182349	0.111162	0.613844
H115	H	1.118763	0.109722	0.690454
H116	H	1.134147	-0.058582	0.556162
H117	H	1.070559	-0.060051	0.632780
H118	H	0.696627	-0.152463	-0.000006
