data_functionalizedCrystal
_audit_creation_method	'MofGen! by Chris Wilmer'
_symmetry_space_group_name_H-M	'P1'
_symmetry_Int_Tables_number	1
_symmetry_cell_setting	triclinic
loop_
_symmetry_equiv_pos_as_xyz
  x,y,z
_cell_length_a	20.016444
_cell_length_b	14.560438
_cell_length_c	14.560438
_cell_angle_alpha	60.000069
_cell_angle_beta	90.000869
_cell_angle_gamma	60.002114
loop_
_atom_site_label
_atom_site_type_symbol
_atom_site_fract_x
_atom_site_fract_y
_atom_site_fract_z
Zr1	Zr	0.643582	1.005319	-0.120508
O2	O	0.536909	1.196915	-0.267153
O3	O	0.676282	0.813720	-0.075556
O4	O	0.676282	1.005324	-0.267157
O5	O	0.536909	1.005309	0.075588
O6	O	0.786222	1.005331	-0.267157
O7	O	0.536909	1.005311	-0.075553
O8	O	0.786222	0.662586	0.075581
O9	O	0.536910	1.348053	-0.267150
O10	O	0.772276	0.892534	-0.056382
O11	O	0.690229	0.892527	0.056413
O12	O	0.690229	1.118116	-0.169172
O13	O	0.608182	1.118108	-0.056377
Zr14	Zr	0.818923	1.005326	0.120544
Zr15	Zr	0.818923	1.005331	-0.120509
Zr16	Zr	0.643582	1.005315	0.120544
Zr17	Zr	0.643582	1.246367	-0.120504
Zr18	Zr	0.818923	0.764279	0.120539
O19	O	0.786223	1.196926	0.075591
O20	O	0.786222	1.196932	-0.267154
O21	O	0.536910	1.196909	0.075592
O22	O	0.925595	0.813730	0.267188
O23	O	0.925595	0.813736	-0.075557
O24	O	0.676282	0.813714	0.267189
O25	O	0.925595	1.005337	-0.075553
O26	O	0.786223	1.005322	0.267192
O27	O	0.676283	1.005314	0.267192
O28	O	0.925595	1.005334	0.075588
O29	O	0.676283	1.348063	-0.267151
O30	O	0.786222	0.662583	0.267186
O31	O	0.925595	0.662592	0.267186
O32	O	0.925595	0.662596	0.075581
O33	O	0.536910	1.348050	-0.075546
O34	O	0.676283	1.348059	-0.075546
O35	O	0.772276	0.892530	0.169207
O36	O	0.854323	0.892537	0.056413
O37	O	0.772276	1.118119	-0.056378
O38	O	0.690229	1.118112	0.056417
C39	C	0.731252	0.703809	0.000012
C40	C	0.731252	0.601478	0.000010
C41	C	0.774078	0.553406	-0.058868
C42	C	0.774081	0.457246	-0.058857
C43	C	0.688426	0.457244	0.058910
C44	C	0.688428	0.553395	0.058906
C45	C	0.511927	1.005308	0.000018
C46	C	0.437490	1.005304	0.000018
C47	C	0.309050	0.887567	0.058896
C48	C	0.239105	0.887573	0.058899
C49	C	0.153456	1.123088	-0.058863
C50	C	0.223400	1.123081	-0.058858
C51	C	0.301197	1.005317	0.000018
C52	C	0.161308	1.005329	0.000017
C53	C	0.085470	1.005336	0.000019
C54	C	0.377040	1.005309	0.000018
C55	C	0.950578	1.005337	0.000017
C56	C	1.025015	1.005342	0.000017
C57	C	0.731252	1.005328	-0.301502
C58	C	0.731252	1.005330	-0.403835
C59	C	0.731253	1.306837	0.000023
C60	C	0.731253	1.409168	0.000025
C61	C	0.791818	1.005335	-0.451911
C62	C	0.791821	1.005323	-0.548057
C63	C	0.670683	1.005307	-0.548045
C64	C	0.670685	1.005309	-0.451896
C65	C	0.731253	1.005317	0.301537
C66	C	0.731253	1.005316	0.403870
C67	C	0.950577	0.703823	0.000012
C68	C	1.025014	0.601497	0.000009
C69	C	0.731252	0.703804	0.301532
C70	C	0.731252	0.601471	0.403863
C71	C	0.950578	0.703818	0.301531
C72	C	1.025015	0.601490	0.403862
C73	C	0.511927	1.306828	-0.301496
C74	C	0.437490	1.409156	-0.403827
C75	C	0.511927	1.306822	0.000024
C76	C	0.437491	1.409148	0.000026
C77	C	0.731252	1.306842	-0.301496
C78	C	0.731253	1.409175	-0.403827
C79	C	1.017143	0.553442	-0.058879
C80	C	1.087077	0.457309	-0.058904
C81	C	1.164883	0.409227	-0.000032
C82	C	1.172752	0.457291	0.058858
C83	C	1.102819	0.553429	0.058875
C84	C	1.102806	0.553440	0.393040
C85	C	1.172754	0.457305	0.489182
C86	C	1.164909	0.409216	0.596144
C87	C	1.087110	0.457276	0.606964
C88	C	1.017163	0.553415	0.510823
C89	C	0.359699	1.457218	-0.393005
C90	C	0.289751	1.553382	-0.489146
C91	C	0.297596	1.601476	-0.596109
C92	C	0.375395	1.553410	-0.606929
C93	C	0.445342	1.457254	-0.510788
C94	C	0.445362	1.457214	0.058904
C95	C	0.375427	1.553373	0.058902
C96	C	0.297622	1.601459	0.000027
C97	C	0.289752	1.553390	-0.058859
C98	C	0.359686	1.457239	-0.058862
C99	C	0.774079	0.553394	0.510816
C100	C	0.774070	0.457251	0.606963
C101	C	0.688405	0.457265	0.489190
C102	C	0.688411	0.553413	0.393045
H103	H	0.808955	0.418107	-0.106799
H104	H	0.841137	1.005349	-0.412781
C105	C	0.858455	1.005313	-0.600929
N106	N	0.908649	1.005299	-0.640747
H107	H	1.236095	0.418184	0.480352
C108	C	0.821199	0.606264	0.522719
N109	N	0.856689	0.646086	0.531690
C110	C	0.641288	0.404384	0.477304
N111	N	0.605801	0.364552	0.468348
C112	C	0.204179	1.606235	-0.477219
N113	N	0.139729	1.646041	-0.468232
C114	C	1.111455	0.606327	0.275390
N115	N	1.117977	0.646162	0.186778
H116	H	0.245507	0.791689	0.106844
C117	C	0.214758	1.252621	-0.123636
N118	N	0.208251	1.350187	-0.172425
C119	C	0.604022	1.005390	-0.399053
N120	N	0.553803	1.005479	-0.359265
C121	C	1.078494	0.404354	0.724634
N122	N	1.072007	0.364481	0.813266
C123	C	1.258346	0.404377	0.123622
N124	N	1.322817	0.364511	0.172409
C125	C	0.384011	1.606316	-0.724599
N126	N	0.390498	1.646159	-0.813231
H127	H	0.508709	1.418069	0.106855
H128	H	0.653532	0.592561	0.305953
H129	H	0.653559	0.418084	0.106860
H130	H	0.953796	0.592590	-0.106833
C131	C	0.351049	1.404341	-0.275355
N132	N	0.344528	1.364527	-0.186743
H133	H	0.621369	1.005292	-0.587188
H134	H	0.808949	0.592551	-0.106823
H135	H	0.653553	0.592534	0.106856
H136	H	0.226394	1.592556	-0.106793
H137	H	0.372393	0.791676	0.106850
H138	H	0.090107	1.218967	-0.106799
H139	H	0.353266	1.418107	-0.106805
C140	C	1.241805	0.303463	-0.000054
N141	N	1.299739	0.223797	-0.000069
H142	H	1.080654	0.418187	-0.106859
C143	C	1.241861	0.303450	0.701891
N144	N	1.299824	0.223782	0.781536
H145	H	1.109239	0.592543	0.106836
H146	H	0.953825	0.592526	0.519651
C147	C	0.220644	1.707241	-0.701856
N148	N	0.162681	1.786898	-0.781501
H149	H	0.508681	1.418122	-0.519613
H150	H	0.381851	1.592495	0.106858
H151	H	0.240684	1.679752	0.000040
H152	H	0.808942	0.418113	0.694045
