data_functionalizedCrystal
_audit_creation_method	'MofGen! by Chris Wilmer'
_symmetry_space_group_name_H-M	'P1'
_symmetry_Int_Tables_number	1
_symmetry_cell_setting	triclinic
loop_
_symmetry_equiv_pos_as_xyz
  x,y,z
_cell_length_a	15.298068
_cell_length_b	21.295417
_cell_length_c	15.296720
_cell_angle_alpha	80.361834
_cell_angle_beta	91.645182
_cell_angle_gamma	99.689184
loop_
_atom_site_label
_atom_site_type_symbol
_atom_site_fract_x
_atom_site_fract_y
_atom_site_fract_z
Zn1	Zn	1.253346	-0.187264	0.727332
Zn2	Zn	1.753346	0.312736	1.227332
Zn3	Zn	1.278593	-0.271807	0.580848
Zn4	Zn	1.778593	0.228193	1.080848
Zn5	Zn	1.132227	-0.181147	0.555499
Zn6	Zn	1.632227	0.318853	1.055499
Zn7	Zn	1.106816	-0.307096	0.701865
Zn8	Zn	1.606816	0.192904	1.201865
O9	O	1.192745	-0.236829	0.641386
O10	O	1.692745	0.263171	1.141386
O11	O	1.379273	-0.186270	0.729166
O12	O	1.879273	0.313730	1.229166
O13	O	1.280378	-0.242452	0.454927
O14	O	1.780378	0.257548	0.954927
O15	O	1.148362	-0.093867	0.578343
O16	O	1.648362	0.406133	1.078343
O17	O	1.397822	-0.248383	0.621545
O18	O	1.897822	0.251617	1.121545
O19	O	1.237347	-0.098361	0.704587
O20	O	1.737347	0.401639	1.204587
O21	O	1.172843	-0.175845	0.436303
O22	O	1.672843	0.324155	0.936303
O23	O	1.006278	-0.210064	0.553649
O24	O	1.506278	0.289936	1.053649
O25	O	1.105053	-0.308529	0.827802
O26	O	1.605053	0.191471	1.327802
O27	O	0.987609	-0.302598	0.661183
O28	O	1.487609	0.197402	1.161183
O29	O	1.212708	-0.220489	0.846512
O30	O	1.712708	0.279511	1.346512
O31	O	1.255738	-0.364580	0.596852
O32	O	1.755738	0.135420	1.096852
O33	O	1.129534	-0.390507	0.685763
O34	O	1.629534	0.109493	1.185763
C35	C	0.965160	-0.259497	0.601902
C36	C	1.465160	0.240503	1.101902
C37	C	0.867795	-0.269213	0.585032
C38	C	1.367795	0.230787	1.085032
C39	C	0.554648	-0.167546	0.761963
C40	C	1.054648	0.332454	1.261963
C41	C	0.646127	-0.158420	0.777819
C42	C	1.146127	0.341580	1.277819
C43	C	0.701549	-0.186117	0.729623
C44	C	1.201549	0.313883	1.229623
C45	C	0.665482	-0.222943	0.665570
C46	C	1.165482	0.277057	1.165570
C47	C	0.573993	-0.232074	0.649718
C48	C	1.073993	0.267926	1.149718
C49	C	0.720894	-0.250645	0.617378
C50	C	1.220894	0.249355	1.117378
C51	C	0.684827	-0.287470	0.553324
C52	C	1.184827	0.212530	1.053324
C53	C	0.593347	-0.296599	0.537474
C54	C	1.093347	0.203401	1.037474
C55	C	0.537926	-0.268902	0.585670
C56	C	1.037926	0.231098	1.085670
C57	C	0.812382	-0.241514	0.633230
C58	C	1.312382	0.258486	1.133230
C59	C	0.831727	-0.306041	0.520984
C60	C	1.331727	0.193959	1.020984
C61	C	0.740248	-0.315167	0.505129
C62	C	1.240248	0.184833	1.005129
C63	C	1.192639	-0.400385	0.641318
C64	C	1.692639	0.099615	1.141318
C65	C	1.192669	-0.470351	0.641331
C66	C	1.692669	0.029649	1.141331
C67	C	1.258423	-0.489700	0.595102
C68	C	1.758423	0.010300	1.095102
C69	C	1.258460	-0.555441	0.595128
C70	C	1.758460	-0.055441	1.095128
C71	C	1.192730	-0.601831	0.641373
C72	C	1.692730	-0.101831	1.141373
C73	C	1.126970	-0.582477	0.687613
C74	C	1.626970	-0.082477	1.187613
C75	C	1.126939	-0.516736	0.687592
C76	C	1.626939	-0.016736	1.187592
N77	N	1.114946	-0.713679	0.634756
N78	N	1.614946	-0.213679	1.134756
N79	N	1.114978	-0.776128	0.634771
N80	N	1.614978	-0.276128	1.134771
C81	C	1.192819	-0.799903	0.641440
C82	C	1.692819	-0.299903	1.141440
N83	N	1.270631	-0.758867	0.648077
N84	N	1.770631	-0.258867	1.148077
N85	N	1.270598	-0.696411	0.648058
N86	N	1.770598	-0.196411	1.148058
C87	C	1.192756	-0.673117	0.641401
C88	C	1.692756	-0.173117	1.141401
C89	C	1.258619	-0.890535	0.595237
C90	C	1.758619	-0.390535	1.095237
C91	C	1.258657	-0.956278	0.595271
C92	C	1.758657	-0.456278	1.095271
C93	C	1.127160	-0.983313	0.687750
C94	C	1.627160	-0.483313	1.187750
C95	C	1.127129	-0.917571	0.687722
C96	C	1.627129	-0.417571	1.187722
C97	C	1.192858	-0.871185	0.641461
C98	C	1.692858	-0.371185	1.141461
C99	C	1.421219	-0.214072	0.681024
C100	C	1.921219	0.285928	1.181024
C101	C	1.518581	-0.204375	0.697916
C102	C	2.018581	0.295625	1.197916
C103	C	1.153230	-0.269128	0.869824
C104	C	1.653230	0.230872	1.369824
C105	C	1.136390	-0.282892	0.967170
C106	C	1.636390	0.217108	1.467170
C107	C	1.192873	-0.072634	0.641478
C108	C	1.692873	0.427366	1.141478
C109	C	1.192927	-0.002664	0.641517
C110	C	1.692927	0.497336	1.141517
C111	C	1.232158	-0.204605	0.413846
C112	C	1.732158	0.295395	0.913846
C113	C	1.249167	-0.190647	0.316529
C114	C	1.749167	0.309353	0.816529
C115	C	1.313131	-0.138342	1.280540
C116	C	1.813131	0.361658	1.780540
C117	C	1.328958	-0.125411	1.189079
C118	C	1.828958	0.374589	1.689079
C119	C	1.280817	-0.164779	1.133598
C120	C	1.780817	0.335221	1.633598
C121	C	1.216847	-0.217082	1.169586
C122	C	1.716847	0.282918	1.669586
C123	C	1.201024	-0.230018	1.261056
C124	C	1.701024	0.269982	1.761056
C125	C	1.168710	-0.256456	1.114114
C126	C	1.668710	0.243544	1.614114
C127	C	1.104740	-0.308759	1.150102
C128	C	1.604740	0.191241	1.650102
C129	C	1.088919	-0.321692	1.241564
C130	C	1.588919	0.178308	1.741564
C131	C	1.137060	-0.282323	1.297045
C132	C	1.637060	0.217677	1.797045
C133	C	1.184534	-0.243520	1.022643
C134	C	1.684534	0.256480	1.522643
C135	C	1.072426	-0.335196	1.003159
C136	C	1.572426	0.164804	1.503159
C137	C	1.056600	-0.348128	1.094620
C138	C	1.556600	0.151872	1.594620
H139	H	0.463435	-0.276335	0.572769
H140	H	0.963435	0.223665	1.072769
H141	H	1.312208	-0.972029	0.557627
H142	H	1.812208	-0.472029	1.057627
Br143	Br	0.691291	-0.365141	0.418200
Br144	Br	1.191291	0.134859	0.918200
Br145	Br	1.271348	-0.172540	0.973813
Br146	Br	1.771348	0.327460	1.473813
Br147	Br	1.115586	-0.299873	1.421178
Br148	Br	1.615586	0.200127	1.921178
Br149	Br	0.861319	-0.191539	0.720158
Br150	Br	1.361319	0.308461	1.220158
H151	H	1.381044	-0.082827	1.159785
H152	H	1.881044	0.417173	1.659785
H153	H	0.876851	-0.328598	0.481744
H154	H	1.376851	0.171402	0.981744
Br155	Br	1.347636	-0.426751	0.532333
Br156	Br	1.847636	0.073249	1.032333
Br157	Br	0.695068	-0.108451	0.864750
Br158	Br	1.195068	0.391549	1.364750
Br159	Br	1.037960	-1.046265	0.750522
Br160	Br	1.537960	-0.546265	1.250522
Br161	Br	1.347705	-0.581708	0.532384
Br162	Br	1.847705	-0.081708	1.032384
H163	H	1.073453	-0.620252	0.725268
H164	H	1.573453	-0.120252	1.225268
Br165	Br	0.969785	-0.419108	1.143471
Br166	Br	1.469785	0.080892	1.643471
H167	H	1.033228	-0.367255	0.957986
H168	H	1.533228	0.132745	1.457986
H169	H	1.073583	-0.901816	0.725363
H170	H	1.573583	-0.401816	1.225363
Br171	Br	0.479430	-0.129974	0.827377
Br172	Br	0.979430	0.370026	1.327377
H173	H	1.293707	-0.154248	1.059127
H174	H	1.793707	0.345752	1.559127
H175	H	1.073393	-0.500984	0.725239
H176	H	1.573393	-0.000984	1.225239
H177	H	0.563984	-0.326590	0.485324
H178	H	1.063984	0.173410	0.985324
H179	H	1.312143	-0.852766	0.557572
H180	H	1.812143	-0.352766	1.057572
Br181	Br	1.378468	-0.084926	1.355840
Br182	Br	1.878468	0.415074	1.855840
H183	H	0.776035	-0.178682	0.742534
H184	H	1.276035	0.321318	1.242534
Br185	Br	1.002121	-0.392685	1.290406
Br186	Br	1.502121	0.107315	1.790406
