data_functionalizedCrystal
_audit_creation_method	'MofGen! by Chris Wilmer'
_symmetry_space_group_name_H-M	'P1'
_symmetry_Int_Tables_number	1
_symmetry_cell_setting	triclinic
loop_
_symmetry_equiv_pos_as_xyz
  x,y,z
_cell_length_a	16.974800
_cell_length_b	15.944493
_cell_length_c	15.455313
_cell_angle_alpha	92.670512
_cell_angle_beta	90.973911
_cell_angle_gamma	83.432052
loop_
_atom_site_label
_atom_site_type_symbol
_atom_site_fract_x
_atom_site_fract_y
_atom_site_fract_z
O1	O	1.049059	0.107079	0.001549
O2	O	0.819624	0.119907	-0.014563
O3	O	0.940631	-0.008771	-0.006073
O4	O	0.928052	0.235757	-0.006942
O5	O	0.933711	-0.001443	0.137704
O6	O	0.812704	0.127235	0.129214
O7	O	1.042139	0.114407	0.145326
Cu8	Cu	0.926790	0.121490	0.150397
Cu9	Cu	0.934973	0.112824	-0.019635
O10	O	0.921132	0.243085	0.136835
C11	C	0.786805	0.122949	0.055263
C12	C	0.699324	0.121085	0.049119
C13	C	0.654458	0.124201	0.124607
C14	C	0.572261	0.122437	0.118837
C15	C	0.534932	0.117561	0.037578
C16	C	0.579804	0.114442	-0.037916
C17	C	0.662000	0.116200	-0.032145
C18	C	0.289508	0.111867	0.011913
C19	C	0.207306	0.110112	0.006147
C20	C	0.199769	0.118105	0.162901
C21	C	0.281966	0.119869	0.168665
C22	C	0.326832	0.116744	0.093172
N23	N	0.450913	0.115760	0.031677
N24	N	0.410849	0.118540	0.099073
C25	C	0.936657	-0.036404	0.065776
C26	C	0.935116	-0.129656	0.065657
C27	C	1.006343	-0.365251	0.070675
C28	C	0.971344	-0.419521	-0.002911
C29	C	0.932260	-0.300383	0.065467
C30	C	0.964505	-0.412272	0.138840
C31	C	0.929506	-0.465299	0.065287
C32	C	0.897284	-0.353428	-0.008177
C33	C	0.890453	-0.346172	0.133639
C34	C	0.855401	-0.400410	0.060032
C35	C	0.933849	-0.205380	0.065569
C36	C	0.927912	-0.560299	0.065178
C37	C	1.074958	0.111365	0.075497
C38	C	1.162440	0.113228	0.081636
C39	C	0.925106	0.270717	0.064985
C40	C	0.926647	0.363969	0.065098
N41	N	0.921040	0.127585	0.269990
N42	N	0.940729	0.106722	-0.139227
C43	C	0.972466	0.072938	0.318992
C44	C	0.968124	0.077555	0.409495
C45	C	0.912361	0.136823	0.450995
C46	C	0.860930	0.191472	0.401986
C47	C	0.865268	0.186851	0.311484
C48	C	0.893636	0.156750	0.721262
C49	C	0.889304	0.161369	0.811771
C50	C	0.996498	0.047450	0.819274
C51	C	1.000834	0.042837	0.728771
C52	C	0.949401	0.097483	0.679769
N53	N	0.907924	0.141546	0.543504
N54	N	0.953834	0.092756	0.587262
H55	H	0.312354	0.123835	0.234836
H56	H	0.791540	-0.416025	0.055508
H57	H	1.038373	0.002958	0.859179
H58	H	0.549405	0.110466	-0.104079
O59	O	0.863379	-0.322924	-0.082407
C60	C	0.838197	-0.390061	-0.134433
H61	H	0.829022	-0.444660	-0.092015
H62	H	0.885199	-0.412180	-0.184868
C63	C	0.770862	-0.292705	-0.232530
C64	C	0.759587	-0.359762	-0.180431
H65	H	0.722374	-0.274016	-0.260907
H66	H	0.787830	-0.247473	-0.197482
H67	H	0.810033	-0.311147	-0.274552
H68	H	0.720424	-0.341317	-0.138403
H69	H	0.742611	-0.404990	-0.215473
H70	H	0.843892	0.209636	0.845555
H71	H	1.009999	0.033057	0.449393
H72	H	1.017878	0.024679	0.285210
H73	H	0.856309	-0.314229	0.191378
H74	H	0.176915	0.106144	-0.060027
O75	O	1.012039	-0.457508	-0.071884
C76	C	0.977242	-0.426347	-0.149203
H77	H	0.942882	-0.361596	-0.135036
H78	H	0.935063	-0.471719	-0.177005
C79	C	1.084825	-0.498018	-0.232640
C80	C	1.042630	-0.418485	-0.215242
H81	H	1.125158	-0.493171	-0.273379
H82	H	1.108268	-0.519014	-0.180550
H83	H	1.049668	-0.535819	-0.255805
H84	H	1.077785	-0.380688	-0.192068
H85	H	1.019195	-0.397482	-0.267330
O86	O	0.998511	-0.442969	0.212942
C87	C	1.078046	-0.425447	0.218240
H88	H	1.085774	-0.369474	0.177143
H89	H	1.118558	-0.483178	0.193321
C90	C	1.090271	-0.472677	0.363683
C91	C	1.099761	-0.403926	0.313212
H92	H	1.103668	-0.459406	0.422265
H93	H	1.036688	-0.484486	0.360113
H94	H	1.124032	-0.520780	0.342907
H95	H	1.065994	-0.355828	0.333981
H96	H	1.153340	-0.392109	0.316787
O97	O	0.705462	0.113209	-0.105560
C98	C	0.654893	0.108511	-0.178520
H99	H	0.591927	0.134996	-0.159885
H100	H	0.655593	0.039769	-0.202657
C101	C	0.761101	0.127930	-0.273674
C102	C	0.683766	0.160467	-0.250788
H103	H	0.778912	0.159975	-0.318254
H104	H	0.795171	0.131093	-0.224520
H105	H	0.761674	0.070646	-0.293782
H106	H	0.683195	0.217746	-0.230670
H107	H	0.649696	0.157315	-0.299940
O108	O	1.055024	-0.014814	0.688597
C109	C	1.099498	-0.062044	0.751257
H110	H	1.064100	-0.059797	0.813509
H111	H	1.157569	-0.034103	0.764975
C112	C	1.160928	-0.157176	0.640617
C113	C	1.117448	-0.154422	0.717075
H114	H	1.172004	-0.214158	0.619533
H115	H	1.130968	-0.125355	0.598402
H116	H	1.209316	-0.133887	0.652060
H117	H	1.069057	-0.177701	0.705629
H118	H	1.147400	-0.186249	0.759289
O119	O	0.843643	0.209923	0.673802
C120	C	0.793486	0.263212	0.729840
H121	H	0.822706	0.267549	0.796612
H122	H	0.734492	0.236254	0.735376
C123	C	0.743029	0.346651	0.611369
C124	C	0.778920	0.351984	0.693377
H125	H	0.734040	0.401409	0.588876
H126	H	0.776818	0.310748	0.573614
H127	H	0.693871	0.324183	0.615993
H128	H	0.828081	0.374441	0.688751
H129	H	0.745139	0.387893	0.731131
H130	H	0.815521	0.239727	0.435779
O131	O	0.815391	0.240055	0.263924
C132	C	0.827109	0.324377	0.286941
H133	H	0.889007	0.326248	0.316235
H134	H	0.780909	0.351601	0.336415
C135	C	0.742682	0.374883	0.169705
C136	C	0.818708	0.377182	0.205676
H137	H	0.737496	0.407458	0.119578
H138	H	0.734784	0.318074	0.154199
H139	H	0.704190	0.397569	0.210941
H140	H	0.857197	0.354487	0.164444
H141	H	0.826612	0.433988	0.221173
O142	O	0.690595	0.128901	0.203613
C143	C	0.633363	0.131292	0.269002
H144	H	0.579145	0.102300	0.242137
H145	H	0.615180	0.199659	0.291912
C146	C	0.735239	0.116322	0.378769
C147	C	0.668650	0.080707	0.345775
H148	H	0.757005	0.085123	0.426128
H149	H	0.773798	0.114715	0.334716
H150	H	0.720077	0.173294	0.397854
H151	H	0.683814	0.023741	0.326681
H152	H	0.630094	0.082304	0.389827
H153	H	0.326028	0.109321	-0.049559
O154	O	0.528669	0.125308	0.192147
C155	C	0.489833	0.051851	0.194115
H156	H	0.522991	-0.000680	0.151806
H157	H	0.426525	0.065871	0.168555
C158	C	0.447410	0.088153	0.339908
C159	C	0.488140	0.023631	0.287950
H160	H	0.446362	0.070747	0.397790
H161	H	0.473572	0.137644	0.338582
H162	H	0.394658	0.099830	0.318598
H163	H	0.540894	0.011963	0.309254
H164	H	0.461987	-0.025863	0.289282
H165	H	0.163231	0.120647	0.224364
H166	H	1.070159	-0.349479	0.075085
