data_functionalizedCrystal
_audit_creation_method	'MofGen! by Chris Wilmer'
_symmetry_space_group_name_H-M	'P1'
_symmetry_Int_Tables_number	1
_symmetry_cell_setting	triclinic
loop_
_symmetry_equiv_pos_as_xyz
  x,y,z
_cell_length_a	16.109317
_cell_length_b	16.109301
_cell_length_c	14.586319
_cell_angle_alpha	90.005214
_cell_angle_beta	89.998916
_cell_angle_gamma	83.464848
loop_
_atom_site_label
_atom_site_type_symbol
_atom_site_fract_x
_atom_site_fract_y
_atom_site_fract_z
O1	O	-1.103122	-0.106931	-0.076146
O2	O	-0.861062	-0.120216	-0.076169
O3	O	-0.988742	0.007457	-0.076147
O4	O	-0.975443	-0.234604	-0.076167
O5	O	-0.988733	0.007459	0.076333
O6	O	-0.861053	-0.120214	0.076312
O7	O	-1.103113	-0.106929	0.076335
Cu8	Cu	-0.982083	-0.113572	0.090246
Cu9	Cu	-0.982093	-0.113574	-0.090080
O10	O	-0.975434	-0.234603	0.076313
C11	C	-0.830083	-0.119675	0.000068
C12	C	-0.737788	-0.118054	0.000060
C13	C	-0.438719	-0.112821	-0.083047
C14	C	-0.525441	-0.114338	-0.083051
C15	C	-0.525450	-0.114325	0.083192
C16	C	-0.438731	-0.112802	0.083195
C17	C	-0.395367	-0.112054	0.000073
C18	C	-0.568808	-0.115095	0.000066
C19	C	-0.662835	-0.116740	0.000062
C20	C	-0.301335	-0.110408	0.000076
C21	C	-0.988199	0.038433	0.000093
C22	C	-0.986584	0.130728	0.000095
N23	N	-0.982081	-0.113570	0.217078
C24	C	-0.134092	-0.107472	0.000091
C25	C	-0.226387	-0.109095	0.000079
C26	C	-0.975977	-0.265578	0.000071
C27	C	-0.977592	-0.357874	0.000063
C28	C	-1.058591	0.352996	0.000087
C29	C	-1.057067	0.439717	0.000079
C30	C	-0.905579	0.419851	0.000068
C31	C	-0.907104	0.333132	0.000069
C32	C	-0.983612	0.299707	0.000083
C33	C	-0.980563	0.473147	0.000075
C34	C	-0.978910	0.567173	0.000066
C35	C	-0.985266	0.205675	0.000090
N36	N	-0.982101	-0.113570	-0.216912
C37	C	-1.038636	-0.057055	0.452094
C38	C	-1.038639	-0.057053	0.548075
C39	C	-0.925540	-0.170087	0.548065
C40	C	-0.925534	-0.170084	0.452086
C41	C	-0.982087	-0.113569	0.404103
C42	C	-0.982095	-0.113570	0.596063
C43	C	-0.982097	-0.113568	0.700131
C44	C	-0.982084	-0.113570	0.300029
H45	H	-0.403416	-0.112211	-0.150730
C46	C	-1.100837	0.005116	0.399312
C47	C	-1.164409	-0.027385	0.333323
C48	C	-1.226609	0.034790	0.280544
C49	C	-1.225237	0.129467	0.293755
C50	C	-1.161663	0.161973	0.359747
C51	C	-1.099463	0.099797	0.412526
H52	H	-1.165426	-0.097475	0.323541
H53	H	-1.273671	0.010726	0.231692
H54	H	-1.271282	0.175492	0.254685
H55	H	-1.160646	0.232062	0.369529
H56	H	-1.052401	0.123861	0.461377
C57	C	-1.142747	0.316227	0.000093
C58	C	-1.225222	0.374848	0.000092
C59	C	-1.309381	0.338082	0.000096
C60	C	-1.311065	0.242696	0.000100
C61	C	-1.228588	0.184070	0.000101
C62	C	-1.144429	0.220835	0.000098
H63	H	-1.223978	0.445464	0.000089
H64	H	-1.370436	0.381482	0.000095
H65	H	-1.373365	0.215480	0.000103
H66	H	-1.229832	0.113454	0.000105
H67	H	-1.083373	0.177436	0.000099
H68	H	-0.403433	-0.112177	0.150885
H69	H	-0.560767	-0.114935	0.150867
H70	H	-1.084685	-0.011033	0.587147
H71	H	-0.879496	-0.216101	0.587143
H72	H	-0.560734	-0.114962	-0.150736
C73	C	-0.821423	0.456621	0.000064
C74	C	-0.738947	0.398002	0.000058
C75	C	-0.654789	0.434770	0.000057
C76	C	-0.653107	0.530156	0.000062
C77	C	-0.735586	0.588781	0.000068
C78	C	-0.819744	0.552014	0.000069
H79	H	-0.740190	0.327386	0.000054
H80	H	-0.593733	0.391371	0.000053
H81	H	-0.590808	0.557374	0.000062
H82	H	-0.734343	0.659397	0.000072
H83	H	-0.880800	0.595412	0.000073
H84	H	-0.846044	0.289742	0.000064
C85	C	-0.863326	-0.232255	0.399287
C86	C	-0.801150	-0.294451	0.452060
C87	C	-0.738944	-0.356615	0.399260
C88	C	-0.738913	-0.356583	0.293687
C89	C	-0.801092	-0.294384	0.240907
C90	C	-0.863298	-0.232220	0.293707
H91	H	-0.801171	-0.294476	0.530218
H92	H	-0.692915	-0.402658	0.438332
H93	H	-0.692864	-0.402600	0.254601
H94	H	-0.801071	-0.294358	0.162750
H95	H	-0.909327	-0.186177	0.254636
H96	H	-1.118122	0.483101	0.000080
