data_functionalizedCrystal
_audit_creation_method	'MofGen! by Chris Wilmer'
_symmetry_space_group_name_H-M	'P1'
_symmetry_Int_Tables_number	1
_symmetry_cell_setting	triclinic
loop_
_symmetry_equiv_pos_as_xyz
  x,y,z
_cell_length_a	29.839134
_cell_length_b	12.759400
_cell_length_c	12.759393
_cell_angle_alpha	89.968436
_cell_angle_beta	89.964519
_cell_angle_gamma	90.007052
loop_
_atom_site_label
_atom_site_type_symbol
_atom_site_fract_x
_atom_site_fract_y
_atom_site_fract_z
Zn1	Zn	-0.686845	0.418418	0.594457
Zn2	Zn	-0.686800	0.594137	0.418777
Zn3	Zn	-0.611715	0.418449	0.418745
Zn4	Zn	-0.611711	0.594032	0.594367
O5	O	-0.649268	0.506259	0.506587
O6	O	-0.749706	0.441758	0.571205
O7	O	-0.676823	0.570888	0.271752
O8	O	-0.621702	0.271424	0.442078
O9	O	-0.749673	0.570858	0.442133
O10	O	-0.676900	0.271401	0.571173
O11	O	-0.621659	0.441811	0.271728
O12	O	-0.548848	0.441710	0.441990
O13	O	-0.621694	0.570680	0.741400
O14	O	-0.548844	0.570710	0.571019
O15	O	-0.676895	0.441657	0.741467
O16	O	-0.676818	0.741144	0.442046
O17	O	-0.621650	0.741067	0.571050
C18	C	-0.532545	0.506203	0.506491
C19	C	-0.482611	0.506204	0.506476
C20	C	-0.126013	0.438981	0.439502
C21	C	-0.313686	0.438955	0.439451
O22	O	-0.337941	0.381716	0.382432
N23	N	-0.337166	0.506219	0.506518
C24	C	-0.313724	0.573489	0.573608
O25	O	-0.338001	0.630693	0.630659
C26	C	-0.126052	0.573510	0.573663
C27	C	-0.102575	0.506249	0.506584
C28	C	-0.102536	0.371725	0.372429
C29	C	-0.055620	0.371737	0.372438
C30	C	-0.032182	0.439004	0.439520
C31	C	-0.055659	0.506260	0.506593
C32	C	-0.102611	0.640774	0.640757
C33	C	-0.055690	0.640772	0.640767
C34	C	-0.032213	0.573511	0.573687
C35	C	0.014694	0.573539	0.573684
N36	N	0.038174	0.506275	0.506617
C37	C	0.014736	0.439008	0.439535
C38	C	-0.412255	0.573475	0.573573
C39	C	-0.459172	0.573471	0.573558
C40	C	-0.459131	0.438935	0.439402
C41	C	-0.412212	0.438945	0.439412
C42	C	-0.388775	0.506211	0.506505
C43	C	0.113262	0.439037	0.439559
C44	C	0.160181	0.439058	0.439571
C45	C	0.160136	0.573590	0.573730
C46	C	0.113220	0.573574	0.573714
C47	C	0.089784	0.506289	0.506625
O48	O	0.038979	0.630740	0.630681
O49	O	0.039021	0.381796	0.382509
C50	C	-0.172928	0.438970	0.439492
C51	C	-0.196406	0.506226	0.506565
C52	C	-0.172967	0.573494	0.573647
C53	C	-0.243323	0.506223	0.506550
C54	C	-0.266762	0.438955	0.439468
C55	C	-0.243282	0.371691	0.372401
C56	C	-0.196367	0.371702	0.372410
C57	C	-0.196447	0.640758	0.640715
C58	C	-0.243362	0.640742	0.640699
C59	C	-0.266801	0.573474	0.573617
C60	C	-0.649241	0.779226	0.506565
C61	C	-0.649271	0.896003	0.506590
C62	C	-0.649299	0.506153	0.780620
C63	C	-0.649313	0.506108	0.897397
C64	C	0.233554	0.506313	0.506665
C65	C	0.183620	0.506326	0.506653
C66	C	-0.649307	0.232226	0.506632
C67	C	-0.649323	0.115449	0.506651
C68	C	-0.678028	0.950870	0.439492
C69	C	-0.678056	1.060594	0.439524
C70	C	-0.620564	1.060574	0.573757
C71	C	-0.620539	0.950852	0.573729
C72	C	-0.711220	0.950883	0.361991
C73	C	-0.711247	1.060607	0.362023
C74	C	-0.649262	0.506289	0.233619
C75	C	-0.649336	0.506038	0.116843
C76	C	-0.678060	0.438919	0.952295
C77	C	-0.678070	0.438881	1.062019
C78	C	-0.620586	0.573230	1.061937
C79	C	-0.620573	0.573262	0.952215
C80	C	-0.711249	0.361357	0.952344
C81	C	-0.711260	0.361319	1.062068
H82	H	0.179294	0.384284	0.384944
Cl83	Cl	-0.762263	0.406401	0.899821
Cl84	Cl	-0.691981	0.898456	0.242604
H85	H	-0.746002	0.921036	0.383866
Cl86	Cl	-0.584425	0.657714	0.883203
Cl87	Cl	-0.584458	0.657647	1.130859
Cl88	Cl	0.189610	0.658163	0.658044
Cl89	Cl	-0.691975	0.242016	1.114631
Cl90	Cl	-0.696878	0.235738	0.906384
Cl91	Cl	-0.584447	1.129535	0.658155
Cl92	Cl	-0.762277	1.113040	0.407177
Cl93	Cl	-0.488681	0.658047	0.657875
Cl94	Cl	-0.764980	0.394967	1.108089
H95	H	-0.701952	1.090466	0.280636
Cl96	Cl	-0.026113	0.287163	0.288117
H97	H	-0.393176	0.628255	0.628210
Cl98	Cl	-0.131992	0.287147	0.288086
Cl99	Cl	-0.382703	0.354384	0.355083
Cl100	Cl	0.083807	0.354452	0.355214
H101	H	-0.121718	0.695546	0.695380
Cl102	Cl	-0.488605	0.354370	0.355071
Cl103	Cl	0.083705	0.658142	0.658033
Cl104	Cl	-0.026229	0.725338	0.725120
H105	H	-0.262374	0.316923	0.317776
Cl106	Cl	-0.166859	0.287138	0.288080
H107	H	-0.262474	0.695524	0.695321
H108	H	-0.177368	0.695535	0.695343
Cl109	Cl	-0.584392	0.881879	0.658101
