data_functionalizedCrystal
_audit_creation_method	'MofGen! by Chris Wilmer'
_symmetry_space_group_name_H-M	'P1'
_symmetry_Int_Tables_number	1
_symmetry_cell_setting	triclinic
loop_
_symmetry_equiv_pos_as_xyz
  x,y,z
_cell_length_a	19.805407
_cell_length_b	18.101395
_cell_length_c	19.805399
_cell_angle_alpha	89.973474
_cell_angle_beta	89.983114
_cell_angle_gamma	90.031104
loop_
_atom_site_label
_atom_site_type_symbol
_atom_site_fract_x
_atom_site_fract_y
_atom_site_fract_z
Zn1	Zn	1.034696	-0.294836	-0.382731
Zn2	Zn	1.368029	0.038497	-0.049398
Zn3	Zn	1.701362	0.371830	0.283935
Zn4	Zn	1.034607	-0.418683	-0.269548
Zn5	Zn	1.367940	-0.085350	0.063786
Zn6	Zn	1.701273	0.247984	0.397119
Zn7	Zn	0.921516	-0.294860	-0.269556
Zn8	Zn	1.254849	0.038473	0.063778
Zn9	Zn	1.588182	0.371807	0.397111
Zn10	Zn	0.921465	-0.418641	-0.382695
Zn11	Zn	1.254798	-0.085307	-0.049361
Zn12	Zn	1.588131	0.248026	0.283972
O13	O	0.978071	-0.356755	-0.326132
O14	O	1.311404	-0.023422	0.007201
O15	O	1.644737	0.309912	0.340534
O16	O	1.129400	-0.311273	-0.367729
O17	O	1.462734	0.022060	-0.034396
O18	O	1.796067	0.355394	0.298937
O19	O	1.019589	-0.402285	-0.174832
O20	O	1.352922	-0.068952	0.158501
O21	O	1.686256	0.264381	0.491834
O22	O	0.936588	-0.191224	-0.284587
O23	O	1.269921	0.142109	0.048746
O24	O	1.603255	0.475443	0.382079
O25	O	1.129335	-0.402263	-0.284574
O26	O	1.462668	-0.068929	0.048759
O27	O	1.796002	0.264404	0.382093
O28	O	1.019741	-0.191207	-0.367737
O29	O	1.353074	0.142127	-0.034404
O30	O	1.686407	0.475460	0.298930
O31	O	0.936501	-0.311313	-0.174838
O32	O	1.269835	0.022020	0.158495
O33	O	1.603168	0.355354	0.491829
O34	O	0.826792	-0.311272	-0.284552
O35	O	1.160126	0.022062	0.048781
O36	O	1.493459	0.355395	0.382115
O37	O	0.936501	-0.402190	-0.477416
O38	O	1.269834	-0.068857	-0.144083
O39	O	1.603167	0.264476	0.189251
O40	O	0.826755	-0.402213	-0.367674
O41	O	1.160088	-0.068880	-0.034341
O42	O	1.493421	0.264454	0.298992
O43	O	1.019691	-0.311232	-0.477443
O44	O	1.353025	0.022102	-0.144110
O45	O	1.686358	0.355435	0.189224
O46	O	1.019539	-0.522310	-0.284538
O47	O	1.352873	-0.188977	0.048795
O48	O	1.686206	0.144356	0.382128
O49	O	0.936414	-0.522279	-0.367667
O50	O	1.269748	-0.188946	-0.034333
O51	O	1.603081	0.144387	0.299000
C52	C	0.802215	-0.356741	-0.326110
C53	C	1.135548	-0.023408	0.007223
C54	C	1.468881	0.309926	0.340556
C55	C	0.726983	-0.356753	-0.326117
C56	C	1.060316	-0.023419	0.007216
C57	C	1.393649	0.309914	0.340549
C58	C	0.691637	-0.404177	-0.369329
C59	C	1.024970	-0.070844	-0.035996
C60	C	1.358303	0.262490	0.297338
C61	C	0.620948	-0.404178	-0.369339
C62	C	0.954281	-0.070845	-0.036005
C63	C	1.287615	0.262488	0.297328
C64	C	0.585607	-0.356758	-0.326132
C65	C	0.918940	-0.023425	0.007201
C66	C	1.252274	0.309908	0.340534
C67	C	0.620958	-0.309329	-0.282919
C68	C	0.954291	0.024004	0.050415
C69	C	1.287625	0.357338	0.383748
C70	C	0.691645	-0.309324	-0.282913
C71	C	1.024978	0.024009	0.050420
C72	C	1.358312	0.357342	0.383754
C73	C	0.335885	-0.309345	-0.282941
C74	C	0.669218	0.023988	0.050392
C75	C	1.002551	0.357321	0.383726
C76	C	0.265193	-0.309355	-0.282948
C77	C	0.598526	0.023978	0.050385
C78	C	0.931859	0.357312	0.383718
C79	C	0.265188	-0.404199	-0.369367
C80	C	0.598521	-0.070866	-0.036033
C81	C	0.931854	0.262467	0.297300
C82	C	0.335875	-0.404195	-0.369361
C83	C	0.669208	-0.070861	-0.036028
C84	C	1.002542	0.262472	0.297306
C85	C	0.371220	-0.356763	-0.326150
C86	C	0.704553	-0.023429	0.007183
C87	C	1.037886	0.309904	0.340517
C88	C	0.447868	-0.356761	-0.326141
C89	C	0.781201	-0.023428	0.007192
C90	C	1.114535	0.309906	0.340526
C91	C	0.508960	-0.356763	-0.326137
C92	C	0.842293	-0.023430	0.007196
C93	C	1.175627	0.309903	0.340529
C94	C	0.977980	-0.549166	-0.326112
C95	C	1.311313	-0.215832	0.007221
C96	C	1.644647	0.117501	0.340554
C97	C	0.978003	-0.631480	-0.326127
C98	C	1.311337	-0.298146	0.007207
C99	C	1.644670	0.035187	0.340540
C100	C	0.978152	-0.930571	-0.326163
C101	C	1.311485	-0.597237	0.007170
C102	C	1.644818	-0.263904	0.340504
C103	C	0.925973	-0.899257	-0.378595
C104	C	1.259306	-0.565923	-0.045262
C105	C	1.592640	-0.232590	0.288072
C106	C	0.925725	-0.813639	-0.378431
C107	C	1.259058	-0.480305	-0.045098
C108	C	1.592392	-0.146972	0.288236
C109	C	0.978078	-0.782188	-0.326146
C110	C	1.311411	-0.448855	0.007188
C111	C	1.644745	-0.115521	0.340521
C112	C	0.958771	-0.813338	-0.254811
C113	C	1.292104	-0.480005	0.078522
C114	C	1.625437	-0.146672	0.411856
C115	C	0.958434	-0.898984	-0.255125
C116	C	1.291768	-0.565650	0.078209
C117	C	1.625101	-0.232317	0.411542
C118	C	1.049752	-0.898915	-0.344438
C119	C	1.383085	-0.565581	-0.011104
C120	C	1.716419	-0.232248	0.322229
C121	C	1.049331	-0.813264	-0.346002
C122	C	1.382664	-0.479930	-0.012669
C123	C	1.715998	-0.146597	0.320665
C124	C	0.978038	-0.698329	-0.326131
C125	C	1.311371	-0.364995	0.007202
C126	C	1.644704	-0.031662	0.340535
C127	C	0.978191	-1.014430	-0.326173
C128	C	1.311524	-0.681097	0.007161
C129	C	1.644857	-0.347763	0.340494
C130	C	1.154613	-0.356770	-0.326155
C131	C	1.487947	-0.023437	0.007179
C132	C	1.821280	0.309897	0.340512
C133	C	1.229845	-0.356776	-0.326164
C134	C	1.563179	-0.023443	0.007169
C135	C	1.896512	0.309891	0.340502
C136	C	0.978100	-0.356704	-0.502675
C137	C	1.311434	-0.023370	-0.169342
C138	C	1.644767	0.309963	0.163992
C139	C	0.978113	-0.356682	-0.577907
C140	C	1.311446	-0.023348	-0.244574
C141	C	1.644780	0.309985	0.088759
C142	C	0.978180	-0.163593	-0.326167
C143	C	1.311513	0.169740	0.007166
C144	C	1.644847	0.503074	0.340500
C145	C	0.978227	-0.081279	-0.326182
C146	C	1.311560	0.252054	0.007151
C147	C	1.644893	0.585388	0.340485
C148	C	0.934862	-0.309308	-0.613254
C149	C	1.268195	0.024025	-0.279921
C150	C	1.601528	0.357359	0.053413
C151	C	0.934871	-0.309294	-0.683942
C152	C	1.268204	0.024040	-0.350609
C153	C	1.601538	0.357373	-0.017276
C154	C	0.978135	-0.356650	-0.719283
C155	C	1.311469	-0.023316	-0.385950
C156	C	1.644802	0.310017	-0.052616
C157	C	1.021389	-0.404029	-0.683931
C158	C	1.354722	-0.070695	-0.350598
C159	C	1.688055	0.262638	-0.017265
C160	C	1.021375	-0.404046	-0.613244
C161	C	1.354709	-0.070713	-0.279911
C162	C	1.688042	0.262620	0.053423
C163	C	1.021442	-0.403959	-0.969005
C164	C	1.354776	-0.070626	-0.635671
C165	C	1.688109	0.262707	-0.302338
C166	C	1.021454	-0.403937	-1.039697
C167	C	1.354787	-0.070603	-0.706363
C168	C	1.688120	0.262730	-0.373030
C169	C	0.934938	-0.309207	-1.039703
C170	C	1.268271	0.024127	-0.706370
C171	C	1.601605	0.357460	-0.373036
C172	C	0.934925	-0.309224	-0.969016
C173	C	1.268258	0.024109	-0.635682
C174	C	1.601591	0.357442	-0.302349
C175	C	0.978175	-0.356606	-0.933670
C176	C	1.311508	-0.023272	-0.600337
C177	C	1.644842	0.310061	-0.267004
C178	C	0.978163	-0.356622	-0.857022
C179	C	1.311497	-0.023288	-0.523689
C180	C	1.644830	0.310045	-0.190355
C181	C	0.978151	-0.356631	-0.795930
C182	C	1.311484	-0.023297	-0.462597
C183	C	1.644818	0.310036	-0.129263
C184	C	0.978080	-0.356753	-0.150276
C185	C	1.311413	-0.023419	0.183057
C186	C	1.644747	0.309914	0.516390
C187	C	0.978198	-0.356566	-0.075045
C188	C	1.311532	-0.023233	0.258289
C189	C	1.644865	0.310101	0.591622
H190	H	0.592178	-0.270716	-0.247742
H191	H	0.925511	0.062618	0.085591
H192	H	1.258844	0.395951	0.418924
Br193	Br	0.876133	-0.245038	-0.731911
Br194	Br	1.209467	0.088295	-0.398577
Br195	Br	1.542800	0.421629	-0.065244
H196	H	0.720423	-0.270703	-0.247729
H197	H	1.053756	0.062631	0.085604
H198	H	1.387090	0.395964	0.418938
Br199	Br	1.080100	-0.468306	-0.731892
Br200	Br	1.413433	-0.134972	-0.398559
Br201	Br	1.746766	0.198361	-0.065226
Br202	Br	0.217216	-0.468574	-0.428010
Br203	Br	0.550550	-0.135241	-0.094677
Br204	Br	0.883883	0.198093	0.238657
H205	H	1.088627	-0.919164	-0.306250
H206	H	1.421960	-0.585831	0.027084
H207	H	1.755294	-0.252497	0.360417
H208	H	1.056600	-0.442617	-0.584466
H209	H	1.389934	-0.109284	-0.251132
H210	H	1.723267	0.224049	0.082201
Br211	Br	0.876238	-0.244903	-1.087675
Br212	Br	1.209572	0.088430	-0.754342
Br213	Br	1.542905	0.421764	-0.421009
Br214	Br	0.945856	-0.778527	-0.466591
Br215	Br	1.279189	-0.445194	-0.133258
Br216	Br	1.612523	-0.111861	0.200075
Br217	Br	0.383835	-0.468557	-0.427996
Br218	Br	0.717168	-0.135224	-0.094663
Br219	Br	1.050501	0.198110	0.238671
Br220	Br	1.117559	-0.777568	-0.286998
Br221	Br	1.450893	-0.444234	0.046336
Br222	Br	1.784226	-0.110901	0.379669
Br223	Br	0.945901	-0.933506	-0.467045
Br224	Br	1.279234	-0.600173	-0.133711
Br225	Br	1.612568	-0.266840	0.199622
H226	H	0.364654	-0.270729	-0.247751
H227	H	0.697987	0.062605	0.085583
H228	H	1.031321	0.395938	0.418916
Br229	Br	0.739593	-0.468542	-0.427964
Br230	Br	1.072926	-0.135209	-0.094631
Br231	Br	1.406259	0.198125	0.238702
Br232	Br	0.871199	-0.932394	-0.229322
Br233	Br	1.204533	-0.599061	0.104011
Br234	Br	1.537866	-0.265727	0.437344
Br235	Br	0.876147	-0.245030	-0.565299
Br236	Br	1.209481	0.088304	-0.231965
Br237	Br	1.542814	0.421637	0.101368
H238	H	1.056652	-0.442548	-0.940235
H239	H	1.389985	-0.109215	-0.606902
H240	H	1.723319	0.224118	-0.273568
H241	H	0.592173	-0.442797	-0.404525
H242	H	0.925506	-0.109463	-0.071192
H243	H	1.258839	0.223870	0.262141
H244	H	1.056687	-0.442503	-1.068469
H245	H	1.390020	-0.109169	-0.735136
H246	H	1.723353	0.224164	-0.401802
Br247	Br	0.217229	-0.244995	-0.224307
Br248	Br	0.550563	0.088338	0.109026
Br249	Br	0.883896	0.421671	0.442360
Br250	Br	0.838056	-0.935254	-0.358692
Br251	Br	1.171389	-0.601921	-0.025358
Br252	Br	1.504722	-0.268587	0.307975
Br253	Br	0.876210	-0.244949	-0.921057
Br254	Br	1.209544	0.088385	-0.587724
Br255	Br	1.542877	0.421718	-0.254390
H256	H	0.994790	-0.919700	-0.214727
H257	H	1.328124	-0.586367	0.118607
H258	H	1.661457	-0.253034	0.451940
Br259	Br	1.020120	-0.779391	-0.187919
Br260	Br	1.353453	-0.446057	0.145414
Br261	Br	1.686787	-0.112724	0.478748
H262	H	1.067356	-0.920463	-0.395569
H263	H	1.400689	-0.587130	-0.062235
H264	H	1.734022	-0.253797	0.271098
Br265	Br	0.872457	-0.777701	-0.228544
Br266	Br	1.205791	-0.444368	0.104789
Br267	Br	1.539124	-0.111034	0.438123
Br268	Br	0.837267	-0.779591	-0.358260
Br269	Br	1.170600	-0.446258	-0.024927
Br270	Br	1.503933	-0.112925	0.308406
Br271	Br	1.073602	-0.779328	-0.433504
Br272	Br	1.406935	-0.445995	-0.100171
Br273	Br	1.740268	-0.112662	0.233162
