data_functionalizedCrystal
_audit_creation_method	'MofGen! by Chris Wilmer'
_symmetry_space_group_name_H-M	'P1'
_symmetry_Int_Tables_number	1
_symmetry_cell_setting	triclinic
loop_
_symmetry_equiv_pos_as_xyz
  x,y,z
_cell_length_a	19.288864
_cell_length_b	10.489716
_cell_length_c	18.366186
_cell_angle_alpha	90.002154
_cell_angle_beta	90.022894
_cell_angle_gamma	83.832692
loop_
_atom_site_label
_atom_site_type_symbol
_atom_site_fract_x
_atom_site_fract_y
_atom_site_fract_z
O1	O	0.922412	0.159112	0.060777
O2	O	0.720294	0.180575	0.060726
O3	O	0.825961	-0.015861	0.060756
O4	O	0.816745	0.355548	0.060748
O5	O	0.825943	-0.015870	-0.060344
O6	O	0.720276	0.180566	-0.060373
O7	O	0.922394	0.159102	-0.060322
Zn8	Zn	0.821332	0.169832	-0.079575
Zn9	Zn	0.821356	0.169845	0.079979
O10	O	0.816727	0.355538	-0.060351
C11	C	0.694404	0.179880	0.000170
C12	C	0.617287	0.177807	0.000151
C13	C	0.573358	0.293067	0.000160
C14	C	0.500898	0.291119	0.000169
C15	C	0.472370	0.173905	0.000182
C16	C	0.516309	0.058630	0.000169
C17	C	0.588767	0.060581	0.000154
C18	C	0.363501	0.081765	0.042635
C19	C	0.291043	0.079819	0.042655
C20	C	0.248884	0.167882	0.000226
C21	C	0.279190	0.257914	-0.042213
C22	C	0.351649	0.259865	-0.042228
C23	C	0.393802	0.171776	0.000198
C24	C	0.126385	0.281038	0.000243
C25	C	0.053924	0.279086	0.000247
C26	C	0.069337	0.046593	0.000254
C27	C	0.141796	0.048549	0.000244
C28	C	0.170316	0.165775	0.000241
C29	C	0.825260	-0.063382	0.000208
C30	C	0.823188	-0.204966	0.000214
C31	C	0.887986	-0.304105	0.000224
C32	C	0.853754	-0.380687	0.059921
C33	C	0.853721	-0.380660	-0.059473
C34	C	0.788983	-0.279683	0.059961
C35	C	0.788960	-0.279651	-0.059487
C36	C	0.754680	-0.356182	0.000225
C37	C	0.948284	0.159797	0.000235
C38	C	1.025401	0.161871	0.000259
C39	C	0.817429	0.403059	0.000198
C40	C	0.819500	0.544643	0.000197
N41	N	0.821321	0.169823	-0.188466
C42	C	0.868126	0.082884	-0.226553
C43	C	0.868130	0.082878	-0.302781
C44	C	0.821336	0.169833	-0.340919
C45	C	0.774523	0.256779	-0.302822
C46	C	0.774515	0.256774	-0.226596
C47	C	0.812812	0.286048	-0.461683
C48	C	0.812824	0.286055	-0.537908
C49	C	0.821356	0.169849	-0.576026
C50	C	0.829890	0.053632	-0.537910
C51	C	0.829882	0.053627	-0.461684
C52	C	0.821339	0.169848	-0.423573
C53	C	0.868168	0.082897	-0.696769
C54	C	0.868168	0.082889	-0.772998
C55	C	0.774564	0.256802	-0.773037
C56	C	0.774561	0.256798	-0.696809
C57	C	0.821367	0.169847	-0.658680
N58	N	0.821373	0.169844	0.188870
H59	H	0.177564	-0.045308	0.000240
H60	H	0.944350	-0.280703	0.000298
O61	O	0.408973	-0.013232	0.088393
H62	H	0.438594	0.039265	0.128220
H63	H	0.881081	-0.424755	-0.109942
H64	H	0.736461	0.327598	-0.804088
H65	H	0.698274	-0.379337	0.000243
H66	H	0.761622	-0.235519	-0.109974
H67	H	0.906236	0.012080	-0.195510
H68	H	0.736450	0.327597	-0.665796
H69	H	0.906246	0.012079	-0.333798
H70	H	0.596574	0.388521	0.000160
O71	O	0.839074	-0.071709	-0.420570
H72	H	0.845002	-0.152520	-0.459876
O73	O	0.006543	0.403413	0.000255
H74	H	-0.026858	0.408092	-0.049102
H75	H	0.836837	-0.040994	-0.568945
H76	H	0.906279	0.012092	-0.665722
H77	H	0.465124	0.384980	0.000174
H78	H	0.906280	0.012086	-0.804009
H79	H	0.805880	0.380686	-0.568936
O80	O	0.038582	-0.079838	0.000264
H81	H	0.005969	-0.086297	0.049631
O82	O	0.485546	-0.067798	0.000180
H83	H	0.452937	-0.074257	0.049548
O84	O	0.803614	0.411391	-0.420570
H85	H	0.797695	0.492202	-0.459878
O86	O	0.384343	0.356914	-0.088028
H87	H	0.342860	0.417809	-0.117544
O88	O	0.724054	0.350577	-0.343949
H89	H	0.731928	0.335987	-0.403354
O90	O	0.636155	-0.063739	0.000147
H91	H	0.604148	-0.145577	0.000160
H92	H	0.761652	-0.235757	0.110487
O93	O	0.233732	0.352902	-0.087985
H94	H	0.178256	0.336413	-0.080855
O95	O	0.157155	0.407465	0.000226
H96	H	0.114432	0.487289	0.000220
O97	O	0.724036	0.350557	-0.185508
H98	H	0.691499	0.411029	-0.224830
O99	O	0.258365	-0.017298	0.088419
H100	H	0.271441	-0.003782	0.146575
O101	O	0.889994	-0.439146	0.126789
H102	H	0.945283	-0.418774	0.126680
