data_functionalizedCrystal
_audit_creation_method	'MofGen! by Chris Wilmer'
_symmetry_space_group_name_H-M	'P1'
_symmetry_Int_Tables_number	1
_symmetry_cell_setting	triclinic
loop_
_symmetry_equiv_pos_as_xyz
  x,y,z
_cell_length_a	19.121102
_cell_length_b	29.839131
_cell_length_c	19.120904
_cell_angle_alpha	92.409150
_cell_angle_beta	90.088173
_cell_angle_gamma	87.595578
loop_
_atom_site_label
_atom_site_type_symbol
_atom_site_fract_x
_atom_site_fract_y
_atom_site_fract_z
Zn1	Zn	1.054749	-0.219753	-0.442036
Zn2	Zn	1.059636	-0.291816	-0.324791
Zn3	Zn	0.942520	-0.213364	-0.319821
Zn4	Zn	0.937448	-0.291514	-0.436994
O5	O	0.998588	-0.254112	-0.380911
O6	O	1.153501	-0.232113	-0.430674
O7	O	1.048269	-0.278861	-0.226027
O8	O	0.957485	-0.151347	-0.336063
O9	O	1.157092	-0.285057	-0.344535
O10	O	1.039939	-0.156042	-0.425855
O11	O	0.962224	-0.221223	-0.222376
O12	O	0.843743	-0.220930	-0.331174
O13	O	0.948840	-0.284542	-0.535767
O14	O	0.840017	-0.278346	-0.417260
O15	O	1.035020	-0.231820	-0.539472
O16	O	1.043351	-0.354640	-0.339645
O17	O	0.953579	-0.354418	-0.422080
C18	C	0.816443	-0.248912	-0.373131
C19	C	0.738519	-0.246699	-0.369819
C20	C	0.998463	-0.370830	-0.380870
C21	C	0.998473	-0.420765	-0.380879
C22	C	0.699992	-0.275595	-0.413013
C23	C	0.626774	-0.273510	-0.409905
C24	C	0.592086	-0.242531	-0.363599
C25	C	0.630619	-0.213632	-0.320403
C26	C	0.703835	-0.215716	-0.323515
C27	C	0.371117	-0.234741	-0.351966
C28	C	0.297896	-0.232660	-0.348855
C29	C	0.294056	-0.292537	-0.438359
C30	C	0.367274	-0.294620	-0.441464
C31	C	0.405800	-0.265720	-0.398271
C32	C	0.517246	-0.240400	-0.360419
C33	C	0.480639	-0.267849	-0.401455
C34	C	1.045411	-0.730519	-0.338056
C35	C	1.045496	-0.918195	-0.338087
O36	O	1.085306	-0.942551	-0.301646
N37	N	0.998731	-0.941559	-0.380970
C38	C	0.951945	-0.918001	-0.423851
O39	O	0.912175	-0.942181	-0.460332
C40	C	0.951864	-0.730326	-0.423824
C41	C	0.998627	-0.706964	-0.380933
C42	C	1.092171	-0.707157	-0.295169
C43	C	1.092146	-0.660241	-0.295159
C44	C	1.045362	-0.636686	-0.338036
C45	C	0.998602	-0.660048	-0.380923
C46	C	0.905081	-0.706770	-0.466708
C47	C	0.905066	-0.659848	-0.466699
C48	C	0.951829	-0.636486	-0.423808
C49	C	0.951794	-0.589577	-0.423789
N50	N	0.998559	-0.566213	-0.380906
C51	C	1.045343	-0.589768	-0.338030
C52	C	0.951990	-1.016534	-0.423862
C53	C	0.952010	-1.063452	-0.423868
C54	C	1.045562	-1.063642	-0.338104
C55	C	1.045539	-1.016723	-0.338095
C56	C	0.998755	-0.993169	-0.380979
C57	C	1.045288	-0.491240	-0.338011
C58	C	1.045257	-0.444319	-0.338003
C59	C	0.951708	-0.444133	-0.423769
C60	C	0.951735	-0.491049	-0.423775
C61	C	0.998531	-0.514602	-0.380894
O62	O	0.912011	-0.565193	-0.460217
O63	O	1.085117	-0.565581	-0.301566
C64	C	1.045435	-0.777435	-0.338066
C65	C	0.998676	-0.800797	-0.380953
C66	C	0.951891	-0.777243	-0.423830
C67	C	0.998695	-0.847716	-0.380959
C68	C	1.045479	-0.871270	-0.338082
C69	C	1.092244	-0.847906	-0.295199
C70	C	1.092220	-0.800990	-0.295189
C71	C	0.905126	-0.800607	-0.466712
C72	C	0.905154	-0.847523	-0.466718
C73	C	0.951938	-0.871078	-0.423842
C74	C	1.181445	-0.259331	-0.388721
C75	C	1.259368	-0.261556	-0.392050
C76	C	0.990819	-0.258860	-0.563768
C77	C	0.987508	-0.260884	-0.641691
C78	C	0.998732	-0.136939	-0.380967
C79	C	0.998794	-0.087007	-0.380991
C80	C	1.030820	-0.234387	-0.680230
C81	C	1.027700	-0.236286	-0.753446
C82	C	0.981272	-0.264686	-0.788123
C83	C	0.937956	-0.291184	-0.749580
C84	C	0.941072	-0.289282	-0.676364
C85	C	0.969615	-0.271800	-1.009090
C86	C	0.966503	-0.273701	-1.082311
C87	C	1.056247	-0.218802	-1.086172
C88	C	1.059362	-0.216905	-1.012955
C89	C	1.016043	-0.243401	-0.974418
C90	C	0.978084	-0.266629	-0.862963
C91	C	1.019228	-0.241455	-0.899580
C92	C	1.006368	-0.249350	-0.198766
C93	C	1.009815	-0.247204	-0.120849
H94	H	0.728230	-0.300822	-0.450719
Cl95	Cl	0.473631	-0.201456	-0.302207
H96	H	1.057027	-0.218330	-0.871343
Cl97	Cl	0.578343	-0.309837	-0.464209
Cl98	Cl	1.150994	-0.736760	-0.241259
Cl99	Cl	1.089193	-0.198685	-0.636643
H100	H	0.900150	-0.314306	-0.777819
H101	H	0.866998	-0.725783	-0.501631
H102	H	0.940285	-0.289754	-0.891205
Cl103	Cl	0.752269	-0.179387	-0.269213
H104	H	0.269654	-0.207429	-0.311151
H105	H	0.395512	-0.319847	-0.479171
H106	H	0.508885	-0.293070	-0.439160
Cl107	Cl	0.245619	-0.328867	-0.492655
Cl108	Cl	0.892900	-0.414513	-0.477672
Cl109	Cl	0.893168	-0.986930	-0.477777
Cl110	Cl	0.908128	-0.309404	-1.125904
Cl111	Cl	0.587010	-0.174684	-0.262193
H112	H	1.083618	-0.997704	-0.303170
Cl113	Cl	0.915156	-0.305111	-0.960653
H114	H	1.091514	-0.197230	-1.117557
Cl115	Cl	0.419540	-0.198408	-0.297667
H116	H	1.062971	-0.214710	-0.784821
Cl117	Cl	0.892933	-0.520419	-0.477680
Cl118	Cl	1.104050	-0.414953	-0.284079
Cl119	Cl	1.117732	-0.181201	-0.969367
Cl120	Cl	0.846249	-0.630241	-0.520615
H121	H	1.083395	-0.510411	-0.303095
Cl122	Cl	1.150948	-0.630879	-0.241247
Cl123	Cl	1.104375	-1.093262	-0.284201
Cl124	Cl	0.886619	-0.322593	-0.627916
Cl125	Cl	1.151057	-0.877526	-0.241296
Cl126	Cl	0.893211	-1.092815	-0.477782
Cl127	Cl	1.151014	-0.771628	-0.241269
H128	H	0.867068	-0.866540	-0.501645
Cl129	Cl	0.846305	-0.771003	-0.520620
