data_functionalizedCrystal
_audit_creation_method	'MofGen! by Chris Wilmer'
_symmetry_space_group_name_H-M	'P1'
_symmetry_Int_Tables_number	1
_symmetry_cell_setting	triclinic
loop_
_symmetry_equiv_pos_as_xyz
  x,y,z
_cell_length_a	18.215407
_cell_length_b	25.639239
_cell_length_c	18.215399
_cell_angle_alpha	90.030035
_cell_angle_beta	90.019833
_cell_angle_gamma	90.039134
loop_
_atom_site_label
_atom_site_type_symbol
_atom_site_fract_x
_atom_site_fract_y
_atom_site_fract_z
Zn1	Zn	1.125001	-0.208150	0.416105
Zn2	Zn	1.625001	0.291850	0.916105
Zn3	Zn	1.124880	-0.295586	0.293034
Zn4	Zn	1.624880	0.204414	0.793034
Zn5	Zn	1.001934	-0.208167	0.293053
Zn6	Zn	1.501934	0.291833	0.793053
Zn7	Zn	1.001870	-0.295557	0.416059
Zn8	Zn	1.501870	0.204443	0.916059
O9	O	1.063421	-0.251865	0.354563
O10	O	1.563421	0.248135	0.854563
O11	O	1.227970	-0.219754	0.399791
O12	O	1.727970	0.280246	0.899791
O13	O	1.108547	-0.284009	0.190052
O14	O	1.608547	0.215991	0.690052
O15	O	1.018337	-0.135000	0.309403
O16	O	1.518337	0.365000	0.809403
O17	O	1.227880	-0.283992	0.309372
O18	O	1.727880	0.216008	0.809372
O19	O	1.108754	-0.134987	0.399809
O20	O	1.608754	0.365013	0.899809
O21	O	1.018219	-0.219783	0.190066
O22	O	1.518219	0.280217	0.690066
O23	O	0.898941	-0.219754	0.309358
O24	O	1.398941	0.280246	0.809358
O25	O	1.018228	-0.283943	0.519050
O26	O	1.518228	0.216057	1.019050
O27	O	0.898894	-0.283959	0.399731
O28	O	1.398894	0.216041	0.899731
O29	O	1.108692	-0.219725	0.519083
O30	O	1.608692	0.280275	1.019083
O31	O	1.108485	-0.368747	0.309327
O32	O	1.608485	0.131253	0.809327
O33	O	1.018110	-0.368726	0.399713
O34	O	1.518110	0.131274	0.899713
C35	C	0.872215	-0.251856	0.354542
C36	C	1.372215	0.248144	0.854542
C37	C	0.790416	-0.251865	0.354550
C38	C	1.290416	0.248135	0.854550
C39	C	0.602217	-0.285349	0.401548
C40	C	1.102217	0.214651	0.901548
C41	C	0.525358	-0.285350	0.401557
C42	C	1.025358	0.214650	0.901557
C43	C	0.525378	-0.218391	0.307594
C44	C	1.025378	0.281609	0.807594
C45	C	0.602235	-0.218387	0.307589
C46	C	1.102235	0.281613	0.807589
C47	C	0.640653	-0.251869	0.354565
C48	C	1.140653	0.248131	0.854565
C49	C	0.486937	-0.251874	0.354579
C50	C	0.986937	0.248126	0.854579
C51	C	0.403603	-0.251876	0.354589
C52	C	0.903603	0.248124	0.854589
C53	C	0.723992	-0.251867	0.354556
C54	C	1.223992	0.248133	0.854556
C55	C	1.063298	-0.387708	0.354529
C56	C	1.563298	0.112292	0.854529
C57	C	1.063312	-0.445822	0.354539
C58	C	1.563312	0.054178	0.854539
C59	C	1.110602	-0.806183	0.307579
C60	C	1.610602	-0.306183	0.807579
C61	C	1.110631	-0.860787	0.307589
C62	C	1.610631	-0.360787	0.807589
O63	O	1.150711	-0.889023	0.267625
O64	O	1.650711	-0.389023	0.767625
N65	N	1.063551	-0.888104	0.354612
N66	N	1.563551	-0.388104	0.854612
C67	C	1.016444	-0.860813	0.401633
C68	C	1.516444	-0.360813	0.901633
O69	O	0.976402	-0.889062	0.441631
O70	O	1.476402	-0.389062	0.941631
C71	C	1.016420	-0.806210	0.401626
C72	C	1.516420	-0.306210	0.901626
C73	C	1.063498	-0.778896	0.354595
C74	C	1.563498	-0.278896	0.854595
C75	C	1.157677	-0.778869	0.260553
C76	C	1.657677	-0.278869	0.760553
C77	C	1.157647	-0.724269	0.260542
C78	C	1.657647	-0.224269	0.760542
C79	C	1.110543	-0.696982	0.307558
C80	C	1.610543	-0.196982	0.807558
C81	C	1.063468	-0.724296	0.354584
C82	C	1.563468	-0.224296	0.854584
C83	C	0.969318	-0.778920	0.448650
C84	C	1.469318	-0.278920	0.948650
C85	C	0.969298	-0.724313	0.448640
C86	C	1.469298	-0.224313	0.948640
C87	C	1.016376	-0.697000	0.401609
C88	C	1.516376	-0.197000	0.901609
C89	C	1.016334	-0.642408	0.401590
C90	C	1.516334	-0.142408	0.901590
N91	N	1.063414	-0.615092	0.354567
N92	N	1.563414	-0.115092	0.854567
C93	C	1.110519	-0.642379	0.307551
C94	C	1.610519	-0.142379	0.807551
C95	C	1.016500	-0.975484	0.401644
C96	C	1.516500	-0.475484	0.901644
C97	C	1.016520	-1.030086	0.401648
C98	C	1.516520	-0.530086	0.901648
C99	C	1.110708	-1.030057	0.307605
C100	C	1.610708	-0.530057	0.807605
C101	C	1.110683	-0.975453	0.307598
C102	C	1.610683	-0.475453	0.807598
C103	C	1.063580	-0.948167	0.354621
C104	C	1.563580	-0.448167	0.854621
C105	C	1.110452	-0.527714	0.307532
C106	C	1.610452	-0.027714	0.807532
C107	C	1.110416	-0.473108	0.307523
C108	C	1.610416	0.026892	0.807523
C109	C	1.016232	-0.473143	0.401569
C110	C	1.516232	0.026857	0.901569
C111	C	1.016265	-0.527743	0.401575
C112	C	1.516265	-0.027743	0.901575
C113	C	1.063381	-0.555027	0.354554
C114	C	1.563381	-0.055027	0.854554
O115	O	0.976277	-0.614138	0.441536
O116	O	1.476277	-0.114138	0.941536
O117	O	1.150561	-0.614123	0.267567
O118	O	1.650561	-0.114123	0.767567
C119	C	1.255374	-0.251874	0.354584
C120	C	1.755374	0.248126	0.854584
C121	C	1.337173	-0.251878	0.354594
C122	C	1.837173	0.248122	0.854594
C123	C	1.063466	-0.251829	0.546516
C124	C	1.563466	0.248171	1.046516
C125	C	1.063485	-0.251814	0.628315
C126	C	1.563485	0.248186	1.128315
C127	C	1.063566	-0.115492	0.354613
C128	C	1.563566	0.384508	0.854613
C129	C	1.063627	-0.057378	0.354634
C130	C	1.563627	0.442622	0.854634
C131	C	1.063419	-0.251863	0.163357
C132	C	1.563419	0.248137	0.663357
C133	C	1.063543	-0.251731	0.081558
C134	C	1.563543	0.248269	0.581558
C135	C	1.110607	-0.218344	0.816528
C136	C	1.610607	0.281656	1.316528
C137	C	1.110616	-0.218329	0.893386
C138	C	1.610616	0.281671	1.393386
C139	C	1.016416	-0.285202	0.893340
C140	C	1.516416	0.214798	1.393340
C141	C	1.016404	-0.285214	0.816483
C142	C	1.516404	0.214786	1.316483
C143	C	1.063504	-0.251786	0.778078
C144	C	1.563504	0.248214	1.278078
C145	C	1.063524	-0.251759	0.931795
C146	C	1.563524	0.248241	1.431795
C147	C	1.063534	-0.251742	1.015128
C148	C	1.563534	0.248258	1.515128
C149	C	1.063494	-0.251801	0.694739
C150	C	1.563494	0.248199	1.194739
H151	H	1.148753	-0.450871	0.269223
H152	H	1.648753	0.049129	0.769223
H153	H	1.148956	-0.191123	0.785261
H154	H	1.648956	0.308877	1.285261
H155	H	0.633495	-0.312611	0.439801
H156	H	1.133495	0.187389	0.939801
H157	H	1.148821	-0.549922	0.269245
H158	H	1.648821	-0.049922	0.769245
Br159	Br	0.952467	-0.330598	0.764297
Br160	Br	1.452467	0.169402	1.264297
Br161	Br	0.952615	-1.067148	0.465467
Br162	Br	1.452615	-0.567148	0.965467
H163	H	0.930941	-0.702100	0.486935
H164	H	1.430941	-0.202100	0.986935
Br165	Br	0.952563	-0.938459	0.465463
Br166	Br	1.452563	-0.438459	0.965463
Br167	Br	1.174576	-0.938390	0.243768
Br168	Br	1.674576	-0.438390	0.743768
Br169	Br	0.952501	-0.330568	0.945465
Br170	Br	1.452501	0.169432	1.445465
Br171	Br	1.174550	-0.172945	0.945565
Br172	Br	1.674550	0.327055	1.445565
H173	H	0.930978	-0.801150	0.486945
H174	H	1.430978	-0.301150	0.986945
H175	H	1.195984	-0.702033	0.222248
H176	H	1.695984	-0.202033	0.722248
Br177	Br	0.473235	-0.172953	0.243843
Br178	Br	0.973235	0.327047	0.743843
H179	H	0.494068	-0.312613	0.439817
H180	H	0.994068	0.187387	0.939817
Br181	Br	0.952310	-0.436100	0.465376
Br182	Br	1.452310	0.063900	0.965376
H183	H	0.633530	-0.191120	0.269329
H184	H	1.133530	0.308880	0.769329
Br185	Br	1.221615	-0.815891	0.196738
Br186	Br	1.721615	-0.315891	0.696738
Br187	Br	1.174633	-1.067099	0.243793
Br188	Br	1.674633	-0.567099	0.743793
Br189	Br	0.952355	-0.564813	0.465385
Br190	Br	1.452355	-0.064813	0.965385
