data_functionalizedCrystal
_audit_creation_method	'MofGen! by Chris Wilmer'
_symmetry_space_group_name_H-M	'P1'
_symmetry_Int_Tables_number	1
_symmetry_cell_setting	triclinic
loop_
_symmetry_equiv_pos_as_xyz
  x,y,z
_cell_length_a	14.395555
_cell_length_b	23.096457
_cell_length_c	14.395555
_cell_angle_alpha	60.003914
_cell_angle_beta	90.003714
_cell_angle_gamma	60.003352
loop_
_atom_site_label
_atom_site_type_symbol
_atom_site_fract_x
_atom_site_fract_y
_atom_site_fract_z
Zr1	Zr	-0.121818	0.633678	0.895016
O2	O	-0.270141	0.754457	0.746705
O3	O	-0.076354	0.512896	0.940468
O4	O	-0.270138	0.633670	0.940487
O5	O	0.076509	0.633690	0.746686
O6	O	-0.270130	0.633666	1.093361
O7	O	-0.076357	0.633684	0.746686
O8	O	0.076515	0.417623	1.093327
O9	O	-0.270136	0.849732	0.746720
O10	O	-0.056952	0.562573	1.073957
O11	O	0.057124	0.562580	0.959869
O12	O	-0.171032	0.704776	0.959892
O13	O	-0.056956	0.704784	0.845804
Zr14	Zr	0.121998	0.633680	1.138833
Zr15	Zr	-0.121805	0.633671	1.138833
Zr16	Zr	0.121985	0.633687	0.895016
Zr17	Zr	-0.121809	0.785630	0.895040
Zr18	Zr	0.121989	0.481728	1.138809
O19	O	0.076534	0.754462	1.093381
O20	O	-0.270123	0.754448	1.093380
O21	O	0.076515	0.754471	0.746705
O22	O	0.270321	0.512900	1.287144
O23	O	-0.076335	0.512887	1.287144
O24	O	0.270303	0.512910	0.940469
O25	O	-0.076328	0.633668	1.287163
O26	O	0.270318	0.633688	1.093362
O27	O	0.270310	0.633692	0.940488
O28	O	0.076537	0.633674	1.287163
O29	O	-0.270126	0.849727	0.940522
O30	O	0.270306	0.417631	1.093327
O31	O	0.270316	0.417626	1.287129
O32	O	0.076525	0.417618	1.287129
O33	O	-0.076345	0.849740	0.746720
O34	O	-0.076335	0.849734	0.940522
O35	O	0.171212	0.562582	1.073958
O36	O	0.057136	0.562574	1.188046
O37	O	-0.056944	0.704778	1.073980
O38	O	0.057132	0.704785	0.959892
C39	C	0.000079	0.443610	1.016894
C40	C	0.000076	0.379102	1.016884
C41	C	-0.304871	0.633667	1.016924
C42	C	-0.408371	0.633663	1.016924
C43	C	-0.468681	0.556141	1.079122
C44	C	-0.437803	0.594880	1.124222
C45	C	-0.437858	0.594904	0.971876
C46	C	-0.561935	0.672435	1.062087
C47	C	-0.561986	0.672447	0.909682
C48	C	-0.531182	0.711243	0.954755
C49	C	0.084287	0.296318	1.101104
C50	C	0.084298	0.235696	1.101112
C51	C	0.000079	0.257864	1.016908
C52	C	-0.084140	0.340662	0.932672
C53	C	-0.084142	0.401282	0.932660
N54	N	-0.099787	0.201751	0.991431
N55	N	-0.099781	0.144161	0.991449
C56	C	0.000081	0.075225	1.016937
N57	N	0.099943	0.066045	1.042429
N58	N	0.099937	0.123637	1.042416
C59	C	0.000072	0.192138	1.016911
C60	C	0.084312	-0.073296	1.101172
C61	C	0.084323	-0.133917	1.101172
C62	C	-0.084124	-0.028948	0.932736
C63	C	-0.084126	0.031670	0.932732
C64	C	0.000091	0.009491	1.016955
C65	C	0.305051	0.633691	1.016925
C66	C	0.408552	0.633695	1.016925
C67	C	0.000074	0.633688	0.711947
C68	C	0.000068	0.633690	0.608441
C69	C	0.000101	0.823748	1.016955
C70	C	0.000104	0.888256	1.016966
C71	C	-0.062123	0.711226	0.485658
C72	C	-0.107200	0.672463	0.454816
C73	C	0.045136	0.672451	0.454859
C74	C	-0.045071	0.594927	0.578962
C75	C	0.107325	0.594926	0.579002
C76	C	0.062275	0.556106	0.548233
C77	C	0.000106	0.633670	1.321902
C78	C	0.000112	0.633667	1.425408
C79	C	0.000095	0.443601	1.321871
C80	C	0.000097	0.379091	1.425367
C81	C	0.305040	0.443622	1.016895
C82	C	0.408537	0.379119	1.016884
C83	C	0.305056	0.443614	1.321872
C84	C	0.408559	0.379107	1.425368
C85	C	-0.304876	0.823744	0.711977
C86	C	-0.408379	0.888251	0.608481
C87	C	0.000085	0.823757	0.711978
C88	C	0.000083	0.888267	0.608482
C89	C	-0.304860	0.823736	1.016954
C90	C	-0.408357	0.888239	1.016965
C91	C	-0.059465	0.348795	1.414417
C92	C	-0.059486	0.288189	1.511654
C93	C	0.000063	0.257875	1.619839
C94	C	0.059626	0.288177	1.630787
C95	C	0.059640	0.348786	1.533552
C96	C	0.516703	0.348828	1.076433
C97	C	0.613959	0.288228	1.076419
C98	C	0.603046	0.257917	1.016863
C99	C	0.494869	0.288214	0.957307
C100	C	0.397615	0.348816	0.957315
C101	C	0.397618	0.348810	1.533534
C102	C	0.494861	0.288208	1.630789
C103	C	0.603043	0.257900	1.619876
C104	C	0.613981	0.288203	1.511699
C105	C	0.516740	0.348808	1.414446
C106	C	-0.397438	0.918555	0.500315
C107	C	-0.494681	0.979176	0.403060
C108	C	-0.602863	1.009488	0.413973
C109	C	-0.613801	0.979181	0.522150
C110	C	-0.516559	0.918565	0.619403
C111	C	0.059635	0.918569	0.619432
C112	C	0.059629	0.979192	0.522196
C113	C	0.000077	1.009508	0.414010
C114	C	-0.059482	0.979203	0.403062
C115	C	-0.059482	0.918586	0.500297
C116	C	-0.397408	0.918532	1.076532
C117	C	-0.494645	0.979132	1.076564
C118	C	-0.602830	1.009442	1.017021
C119	C	-0.613778	0.979144	0.957451
C120	C	-0.516541	0.918541	0.957427
H121	H	-0.443280	0.490586	1.131783
F122	F	0.706564	0.193417	1.016865
H123	H	-0.682033	1.058845	0.334774
F124	F	-0.282277	0.886284	1.139911
F125	F	-0.122852	0.381048	1.299287
H126	H	-0.615278	0.705187	1.100290
H127	H	0.000087	1.058866	0.334844
H128	H	0.152892	-0.091356	1.169746
H129	H	-0.556797	0.776852	0.902169
H130	H	-0.681997	1.058789	1.017050
H131	H	0.197993	0.562187	0.632511
F132	F	-0.225733	0.715290	0.384869
F133	F	0.123027	1.011431	0.533871
F134	F	0.123045	0.381018	1.545223
H135	H	-0.525481	0.893892	0.707474
F136	F	0.094933	0.715305	0.384931
H137	H	-0.107968	1.003896	0.314965
F138	F	-0.728926	1.011416	0.894077
F139	F	-0.122863	0.886338	0.488626
F140	F	0.729125	0.255938	1.500102
F141	F	-0.367947	0.552046	0.922075
F142	F	-0.122881	0.255948	1.499978
H143	H	-0.485709	1.003794	1.125071
H144	H	0.152865	0.278252	1.169685
H145	H	0.309540	0.373478	1.542442
H146	H	-0.384292	0.562100	1.214916
F147	F	0.000039	0.193368	1.723316
F148	F	0.123001	0.255905	1.745935
H149	H	-0.701894	1.003868	0.531023
H150	H	-0.615495	0.705199	0.819008
H151	H	0.108137	0.893891	0.707513
H152	H	-0.152716	0.468692	0.864072
F153	F	0.173930	0.147579	1.190757
F154	F	-0.282312	0.886305	0.488674
F155	F	-0.173768	0.364254	0.843052
F156	F	0.483272	0.255945	0.893928
H157	H	0.525611	0.373501	1.124931
F158	F	-0.528212	0.886314	0.894013
H159	H	0.152905	-0.201327	1.169753
H160	H	0.525663	0.373468	1.326376
H161	H	-0.152707	0.099079	0.864155
F162	F	-0.173753	-0.005351	0.843114
F163	F	-0.130968	0.796921	0.452421
F164	F	0.282499	0.381044	0.893938
F165	F	-0.095028	0.552138	0.648682
F166	F	0.130973	0.470361	0.581671
F167	F	0.483196	0.255966	1.745908
F168	F	0.729079	0.255993	1.139812
F169	F	-0.483015	1.011418	0.287941
H170	H	0.682214	0.208551	1.699075
