data_functionalizedCrystal
_audit_creation_method	'MofGen! by Chris Wilmer'
_symmetry_space_group_name_H-M	'P1'
_symmetry_Int_Tables_number	1
_symmetry_cell_setting	triclinic
loop_
_symmetry_equiv_pos_as_xyz
  x,y,z
_cell_length_a	12.759401
_cell_length_b	13.032721
_cell_length_c	12.759393
_cell_angle_alpha	97.149226
_cell_angle_beta	89.979062
_cell_angle_gamma	97.205831
loop_
_atom_site_label
_atom_site_type_symbol
_atom_site_fract_x
_atom_site_fract_y
_atom_site_fract_z
Zn1	Zn	1.553113	-0.415945	-0.647098
Zn2	Zn	1.530669	-0.590725	-0.493722
Zn3	Zn	1.377404	-0.416001	-0.471441
Zn4	Zn	1.355078	-0.590652	-0.669350
O5	O	1.454066	-0.503331	-0.570403
O6	O	1.697156	-0.439137	-0.626765
O7	O	1.510289	-0.567601	-0.343752
O8	O	1.419449	-0.269756	-0.476105
O9	O	1.680666	-0.567547	-0.514080
O10	O	1.548541	-0.269715	-0.605160
O11	O	1.397686	-0.439232	-0.327382
O12	O	1.227423	-0.439161	-0.497681
O13	O	1.381397	-0.567423	-0.813412
O14	O	1.211019	-0.567477	-0.643084
O15	O	1.526892	-0.439067	-0.797064
O16	O	1.488640	-0.736953	-0.535656
O17	O	1.359634	-0.736899	-0.664689
C18	C	1.181100	-0.503318	-0.570380
C19	C	1.064321	-0.503338	-0.570399
C20	C	1.419307	-0.774844	-0.605028
C21	C	1.404533	-0.890999	-0.619876
C22	C	1.000932	-0.570253	-0.646017
C23	C	0.891208	-0.570257	-0.646038
C24	C	0.908271	-0.436427	-0.494813
C25	C	1.017994	-0.436419	-0.494797
C26	C	1.461832	-0.942776	-0.562700
C27	C	1.446564	-1.062828	-0.578045
C28	C	1.728097	-0.503344	-0.570426
C29	C	1.844873	-0.503350	-0.570436
C30	C	1.454157	-0.503230	-0.844423
C31	C	1.454196	-0.503188	-0.961194
C32	C	1.488989	-0.230757	-0.535665
C33	C	1.503872	-0.114602	-0.520862
C34	C	1.529962	-0.436342	-1.007544
C35	C	1.529986	-0.436297	-1.117263
C36	C	1.378473	-0.569952	-1.134273
C37	C	1.378446	-0.569991	-1.024556
C38	C	1.454045	-0.503355	-0.297438
C39	C	1.454247	-0.503104	-0.180630
H40	H	1.038649	-0.624740	-0.707579
H41	H	0.839601	-0.624745	-0.707616
H42	H	0.870537	-0.381946	-0.433260
H43	H	1.564240	-1.070058	-0.460551
O44	O	1.079674	-0.371560	-0.421302
C45	C	1.135485	-0.430972	-0.360899
H46	H	1.141794	-0.510212	-0.407924
H47	H	1.218088	-0.388385	-0.341454
H48	H	1.091706	-0.442362	-0.284477
O49	O	1.603626	-0.371592	-0.945964
C50	C	1.663830	-0.431107	-0.890068
H51	H	1.659791	-0.513401	-0.933620
H52	H	1.749523	-0.393308	-0.884018
H53	H	1.630862	-0.434735	-0.807370
H54	H	1.316802	-0.624344	-1.185875
O55	O	1.374667	-1.115914	-0.650147
C56	C	1.400928	-1.089199	-0.751487
H57	H	1.488664	-1.059047	-0.753040
H58	H	1.382786	-1.160996	-0.812497
H59	H	1.352570	-1.025956	-0.770872
O60	O	1.533698	-0.889591	-0.490630
C61	C	1.481879	-0.826535	-0.414738
H62	H	1.394964	-0.859573	-0.412368
H63	H	1.520086	-0.825212	-0.333750
H64	H	1.488685	-0.743835	-0.436727
O65	O	1.332640	-0.944089	-0.691974
C66	C	1.358901	-0.917374	-0.793314
H67	H	1.446637	-0.887221	-0.794867
H68	H	1.340759	-0.989171	-0.854324
H69	H	1.310543	-0.854130	-0.812699
H70	H	1.591680	-0.381863	-1.154995
O71	O	1.304798	-0.635030	-0.979700
C72	C	1.237935	-0.693973	-1.059147
H73	H	1.280520	-0.697571	-1.137828
H74	H	1.216170	-0.776318	-1.037932
H75	H	1.163050	-0.655694	-1.065925
