data_functionalizedCrystal
_audit_creation_method	'MofGen! by Chris Wilmer'
_symmetry_space_group_name_H-M	'P1'
_symmetry_Int_Tables_number	1
_symmetry_cell_setting	triclinic
loop_
_symmetry_equiv_pos_as_xyz
  x,y,z
_cell_length_a	13.897449
_cell_length_b	19.121063
_cell_length_c	13.897441
_cell_angle_alpha	87.594330
_cell_angle_beta	90.020733
_cell_angle_gamma	92.470221
loop_
_atom_site_label
_atom_site_type_symbol
_atom_site_fract_x
_atom_site_fract_y
_atom_site_fract_z
Zn1	Zn	1.458257	-0.279567	0.561726
Zn2	Zn	1.958257	0.220433	1.061726
Zn3	Zn	1.451242	-0.397031	0.407294
Zn4	Zn	1.951242	0.102969	0.907294
Zn5	Zn	1.296944	-0.279601	0.400446
Zn6	Zn	1.796944	0.220399	0.900446
Zn7	Zn	1.290021	-0.396984	0.568544
Zn8	Zn	1.790021	0.103016	1.068544
O9	O	1.374116	-0.338296	0.484503
O10	O	1.874116	0.161704	0.984503
O11	O	1.592308	-0.295154	0.541253
O12	O	2.092308	0.204846	1.041253
O13	O	1.430735	-0.381487	0.271406
O14	O	1.930735	0.118513	0.771406
O15	O	1.324176	-0.181312	0.416120
O16	O	1.824176	0.318688	0.916120
O17	O	1.587154	-0.381454	0.427793
O18	O	2.087154	0.118546	0.927793
O19	O	1.442692	-0.181287	0.534612
O20	O	1.942692	0.318713	1.034612
O21	O	1.317374	-0.295211	0.266375
O22	O	1.817374	0.204789	0.766375
O23	O	1.161045	-0.295166	0.422732
O24	O	1.661045	0.204834	0.922732
O25	O	1.312377	-0.381375	0.702620
O26	O	1.812377	0.118625	1.202620
O27	O	1.155958	-0.381408	0.546233
O28	O	1.655958	0.118592	1.046233
O29	O	1.435979	-0.295109	0.697610
O30	O	1.935979	0.204891	1.197610
O31	O	1.424022	-0.495309	0.434404
O32	O	1.924022	0.004691	0.934404
O33	O	1.305574	-0.495275	0.552874
O34	O	1.805574	0.004725	1.052874
C35	C	1.123502	-0.338286	0.484480
C36	C	1.623502	0.161714	0.984480
C37	C	1.016288	-0.338299	0.484494
C38	C	1.516288	0.161701	0.984494
C39	C	1.363311	-0.520776	0.495143
C40	C	1.863311	-0.020776	0.995143
C41	C	1.358777	-0.598842	0.499727
C42	C	1.858777	-0.098842	0.999727
C43	C	0.819992	-0.338302	0.484520
C44	C	1.319992	0.161698	0.984520
C45	C	0.929225	-0.338298	0.484503
C46	C	1.429225	0.161702	0.984503
C47	C	1.418365	-0.635512	0.440252
C48	C	1.918365	-0.135512	0.940252
C49	C	1.414106	-0.708863	0.444569
C50	C	1.914106	-0.208863	0.944569
C51	C	1.350255	-0.745543	0.508358
C52	C	1.850255	-0.245543	1.008358
C53	C	1.290665	-0.708868	0.567840
C54	C	1.790665	-0.208868	1.067840
C55	C	1.294929	-0.635518	0.563527
C56	C	1.794929	-0.135518	1.063527
C57	C	1.334297	-0.967012	0.524468
C58	C	1.834297	-0.467012	1.024468
C59	C	1.330035	-1.040367	0.528775
C60	C	1.830035	-0.540367	1.028775
C61	C	1.453478	-1.040357	0.405504
C62	C	1.953478	-0.540357	0.905504
C63	C	1.457733	-0.967006	0.401192
C64	C	1.957733	-0.467006	0.901192
C65	C	1.398147	-0.930337	0.460678
C66	C	1.898147	-0.430337	0.960678
C67	C	1.345898	-0.820519	0.512770
C68	C	1.845898	-0.320519	1.012770
C69	C	1.402509	-0.855362	0.456270
C70	C	1.902509	-0.355362	0.956270
C71	C	1.625708	-0.338306	0.484526
C72	C	2.125708	0.161694	0.984526
C73	C	1.732922	-0.338310	0.484536
C74	C	2.232922	0.161690	0.984536
C75	C	1.374188	-0.338234	0.736092
C76	C	1.874188	0.161766	1.236092
C77	C	1.374219	-0.338207	0.843305
C78	C	1.874219	0.161793	1.343305
C79	C	1.384989	-0.155103	0.473842
C80	C	1.884989	0.344897	0.973842
C81	C	1.389623	-0.077037	0.469299
C82	C	1.889623	0.422963	0.969299
C83	C	1.374103	-0.338307	0.233889
C84	C	1.874103	0.161693	0.733889
C85	C	1.374271	-0.338135	0.126665
C86	C	1.874271	0.161865	0.626665
C87	C	1.374248	-0.338160	1.039597
C88	C	1.874248	0.161840	1.539597
C89	C	1.374229	-0.338188	0.930366
C90	C	1.874229	0.161812	1.430366
H91	H	1.470355	-0.605652	0.388304
H92	H	1.970355	-0.105652	0.888304
H93	H	1.501991	-1.070220	0.357075
H94	H	2.001991	-0.570220	0.857075
N95	N	1.264796	-1.077825	0.593935
N96	N	1.764796	-0.577825	1.093935
N97	N	1.211595	-1.045078	0.647038
N98	N	1.711595	-0.545078	1.147038
H99	H	1.165518	-1.071533	0.693052
H100	H	1.665518	-0.571533	1.193052
N101	N	1.273427	-0.929557	0.585216
N102	N	1.773427	-0.429557	1.085216
N103	N	1.214356	-0.888678	0.548829
N104	N	1.714356	-0.388678	1.048829
H105	H	1.171367	-0.862220	0.591735
H106	H	1.671367	-0.362220	1.091735
H107	H	1.246408	-0.605662	0.611960
H108	H	1.746408	-0.105662	1.111960
H109	H	1.293908	-0.850392	0.564705
H110	H	1.793908	-0.350392	1.064705
H111	H	1.462628	-0.738716	0.396136
H112	H	1.962628	-0.238716	0.896136
H113	H	1.238680	-0.738738	0.619783
H114	H	1.738680	-0.238738	1.119783
N115	N	1.522936	-0.929525	0.336028
N116	N	2.022936	-0.429525	0.836028
N117	N	1.586759	-0.888519	0.367582
N118	N	2.086759	-0.388519	0.867582
H119	H	1.632794	-0.862042	0.321550
H120	H	2.132794	-0.362042	0.821550
N121	N	1.467714	-0.817887	0.391109
N122	N	1.967714	-0.317887	0.891109
N123	N	1.436171	-0.777011	0.327218
N124	N	1.936171	-0.277011	0.827218
H125	H	1.482219	-0.750538	0.281194
H126	H	1.982219	-0.250538	0.781194
