data_functionalizedCrystal
_audit_creation_method	'MofGen! by Chris Wilmer'
_symmetry_space_group_name_H-M	'P1'
_symmetry_Int_Tables_number	1
_symmetry_cell_setting	triclinic
loop_
_symmetry_equiv_pos_as_xyz
  x,y,z
_cell_length_a	10.489741
_cell_length_b	16.992695
_cell_length_c	15.455313
_cell_angle_alpha	87.152573
_cell_angle_beta	92.705853
_cell_angle_gamma	87.603698
loop_
_atom_site_label
_atom_site_type_symbol
_atom_site_fract_x
_atom_site_fract_y
_atom_site_fract_z
O1	O	-1.708924	-0.107291	-0.072078
O2	O	-1.208924	0.392709	0.427922
O3	O	-1.338633	-0.117680	-0.072091
O4	O	-0.838633	0.382320	0.427909
O5	O	-1.522293	0.001665	-0.072078
O6	O	-1.022293	0.501665	0.427922
O7	O	-1.525263	-0.226636	-0.072091
O8	O	-1.025263	0.273364	0.427909
O9	O	-1.511788	-0.005131	0.072184
O10	O	-1.011788	0.494869	0.572184
O11	O	-1.328127	-0.124476	0.072170
O12	O	-0.828127	0.375524	0.572170
O13	O	-1.698418	-0.114087	0.072184
O14	O	-1.198418	0.385913	0.572184
Cu15	Cu	-1.512313	-0.119902	0.085349
Cu16	Cu	-1.012313	0.380098	0.585349
Cu17	Cu	-1.524737	-0.111865	-0.085257
Cu18	Cu	-1.024737	0.388135	0.414743
O19	O	-1.514758	-0.233432	0.072170
O20	O	-1.014758	0.266568	0.572170
C21	C	-1.285780	-0.120293	0.000038
C22	C	-0.785780	0.379707	0.500038
C23	C	-1.143947	-0.117945	0.000033
C24	C	-0.643947	0.382055	0.500033
C25	C	-1.513221	0.027501	0.000053
C26	C	-1.013221	0.527501	0.500053
C27	C	-1.501826	0.114610	0.000052
C28	C	-1.001826	0.614610	0.500052
C29	C	-1.751271	-0.111474	0.000053
C30	C	-1.251271	0.388526	0.500053
C31	C	-1.893105	-0.113821	0.000052
C32	C	-1.393105	0.386179	0.500052
C33	C	-1.069200	-0.042010	0.000045
C34	C	-0.569200	0.457990	0.500045
C35	C	-0.985373	-0.074530	-0.071083
C36	C	-0.485373	0.425470	0.428917
C37	C	-0.975051	-0.081249	0.071147
C38	C	-0.475051	0.418751	0.571147
C39	C	-1.061993	-0.150494	-0.071155
C40	C	-0.561993	0.349506	0.428845
C41	C	-1.051675	-0.157206	0.071139
C42	C	-0.551675	0.342794	0.571139
C43	C	-0.967882	-0.189781	-0.000007
C44	C	-0.467882	0.310219	0.499993
C45	C	-1.523830	-0.259268	0.000038
C46	C	-1.023830	0.240732	0.500038
C47	C	-1.535225	-0.346377	0.000033
C48	C	-1.035225	0.153623	0.500033
N49	N	-1.503584	-0.125555	0.205344
N50	N	-1.003584	0.374445	0.705344
C51	C	-1.611775	0.164229	0.000057
C52	C	-1.111775	0.664229	0.500057
C53	C	-1.601061	0.246077	0.000048
C54	C	-1.101061	0.746077	0.500048
C55	C	-1.480396	0.278303	0.000041
C56	C	-0.980396	0.778303	0.500041
C57	C	-1.370439	0.228677	0.000033
C58	C	-0.870439	0.728677	0.500033
C59	C	-1.381155	0.146832	0.000036
C60	C	-0.881155	0.646832	0.500036
C61	C	-1.435984	0.522152	0.000027
C62	C	-0.935984	1.022152	0.500027
C63	C	-1.425276	0.604004	0.000028
C64	C	-0.925276	1.104004	0.500028
C65	C	-1.655899	0.621398	0.000041
C66	C	-1.155899	1.121398	0.500041
C67	C	-1.666604	0.539550	0.000049
C68	C	-1.166604	1.039550	0.500049
C69	C	-1.556647	0.489931	0.000036
C70	C	-1.056647	0.989931	0.500036
N71	N	-1.469442	0.361964	0.000035
N72	N	-0.969442	0.861964	0.500035
N73	N	-1.567604	0.406272	0.000036
N74	N	-1.067604	0.906272	0.500036
N75	N	-1.533476	-0.106206	-0.205252
N76	N	-1.033476	0.393794	0.294748
C77	C	-1.581641	-0.074872	0.250744
C78	C	-1.081641	0.425128	0.750744
C79	C	-1.575052	-0.079154	0.341551
C80	C	-1.075052	0.420846	0.841551
C81	C	-1.490412	-0.134124	0.386957
C82	C	-0.990412	0.365876	0.886957
C83	C	-1.412347	-0.184809	0.341551
C84	C	-0.912347	0.315191	0.841551
C85	C	-1.418931	-0.180522	0.250745
C86	C	-0.918931	0.319478	0.750745
C87	C	-1.461994	-0.152605	0.658536
C88	C	-0.961994	0.347395	1.158536
C89	C	-1.455420	-0.156889	0.749348
C90	C	-0.955420	0.343111	1.249348
C91	C	-1.618123	-0.051233	0.749343
C92	C	-1.118123	0.448767	1.249343
C93	C	-1.624704	-0.046954	0.658535
C94	C	-1.124704	0.453046	1.158535
C95	C	-1.546635	-0.097637	0.613137
C96	C	-1.046635	0.402363	1.113137
N97	N	-1.483678	-0.138504	0.479777
N98	N	-0.983678	0.361496	0.979777
N99	N	-1.553363	-0.093252	0.520319
N100	N	-1.053363	0.406748	1.020319
H101	H	-1.113465	0.020419	-0.000040
H102	H	-0.613465	0.520419	0.499960
N103	N	-0.909606	-0.272550	-0.000056
N104	N	-0.409606	0.227450	0.499944
H105	H	-0.941439	-0.298587	-0.053808
H106	H	-0.441439	0.201413	0.446192
H107	H	-0.813491	-0.270472	0.000489
H108	H	-0.313491	0.229528	0.500489
H109	H	-1.710033	0.137997	0.000068
H110	H	-1.210033	0.637997	0.500068
N111	N	-1.719652	0.299592	0.000061
N112	N	-1.219652	0.799592	0.500061
H113	H	-1.716442	0.331423	0.053537
H114	H	-1.216442	0.831423	0.553537
H115	H	-1.724184	0.336403	-0.053454
H116	H	-1.224184	0.836403	0.446546
H117	H	-0.955943	-0.039567	-0.131215
H118	H	-0.455943	0.460433	0.368785
N119	N	-1.334735	-0.235183	0.201773
N120	N	-0.834735	0.264817	0.701773
H121	H	-1.280117	-0.270657	0.244315
H122	H	-0.780117	0.229343	0.744315
H123	H	-1.389852	-0.268383	0.164082
H124	H	-0.889852	0.231617	0.664082
H125	H	-1.272192	0.254922	0.000022
H126	H	-0.772192	0.754922	0.500022
H127	H	-1.764862	0.513318	0.000055
H128	H	-1.264862	1.013318	0.500055
N129	N	-1.112319	-0.189265	-0.150902
N130	N	-0.612319	0.310735	0.349098
H131	H	-1.208455	-0.190590	-0.150430
H132	H	-0.708455	0.309410	0.349570
H133	H	-1.087588	-0.158245	-0.204513
H134	H	-0.587588	0.341755	0.295487
H135	H	-1.081135	-0.192143	0.131274
H136	H	-0.581135	0.307857	0.631274
N137	N	-1.262578	0.093301	0.000034
N138	N	-0.762578	0.593301	0.500034
H139	H	-1.214193	0.106254	-0.053445
H140	H	-0.714193	0.606254	0.446555
H141	H	-1.206501	0.101243	0.053546
H142	H	-0.706501	0.601243	0.553546
H143	H	-1.386492	-0.201655	0.786314
H144	H	-0.886492	0.298345	1.286314
H145	H	-1.650569	-0.030113	0.213780
H146	H	-1.150569	0.469887	0.713780
H147	H	-0.936898	-0.051938	0.131281
H148	H	-0.436898	0.448062	0.631281
N149	N	-1.295125	0.638765	0.000018
N150	N	-0.795125	1.138765	0.500018
H151	H	-1.227093	0.594913	0.000009
H152	H	-0.727093	1.094913	0.500009
H153	H	-1.289564	0.674863	-0.053461
H154	H	-0.789564	1.174863	0.446539
H155	H	-1.745420	0.661806	0.000049
H156	H	-1.245420	1.161806	0.500049
N157	N	-1.659287	-0.024516	0.390519
N158	N	-1.159287	0.475484	0.890519
H159	H	-1.713926	0.010944	0.347976
H160	H	-1.213926	0.510944	0.847976
H161	H	-1.716013	-0.056701	0.428166
H162	H	-1.216013	0.443299	0.928166
H163	H	-1.346449	0.481762	0.000018
H164	H	-0.846449	0.981762	0.500018
H165	H	-1.693624	-0.002194	0.621568
H166	H	-1.193624	0.497806	1.121568
N167	N	-1.702322	0.003430	0.798307
N168	N	-1.202322	0.503430	1.298307
H169	H	-1.685312	-0.007624	0.862722
H170	H	-1.185312	0.492376	1.362722
H171	H	-1.683060	0.059924	0.782446
H172	H	-1.183060	0.559924	1.282446
H173	H	-1.398429	-0.193874	0.621580
H174	H	-0.898429	0.306126	1.121580
H175	H	-1.343425	-0.229564	0.378525
H176	H	-0.843425	0.270436	0.878525
