data_functionalizedCrystal
_audit_creation_method	'MofGen! by Chris Wilmer'
_symmetry_space_group_name_H-M	'P1'
_symmetry_Int_Tables_number	1
_symmetry_cell_setting	triclinic
loop_
_symmetry_equiv_pos_as_xyz
  x,y,z
_cell_length_a	9.065215
_cell_length_b	9.798715
_cell_length_c	10.723023
_cell_angle_alpha	89.997308
_cell_angle_beta	95.258877
_cell_angle_gamma	90.003171
loop_
_atom_site_label
_atom_site_type_symbol
_atom_site_fract_x
_atom_site_fract_y
_atom_site_fract_z
O1	O	1.959363	0.113473	-0.182966
O2	O	1.529992	0.113479	-0.197979
O3	O	1.754582	0.113469	-0.008937
O4	O	1.734773	0.113483	-0.372009
O5	O	1.754566	-0.113513	-0.008935
O6	O	1.529976	-0.113503	-0.197978
O7	O	1.959346	-0.113509	-0.182965
Zn8	Zn	1.744658	-0.149545	-0.190471
Zn9	Zn	1.744680	0.149514	-0.190473
O10	O	1.734756	-0.113499	-0.372008
C11	C	1.475005	-0.000011	-0.196537
C12	C	1.311187	-0.000009	-0.192225
N13	N	1.744654	-0.353644	-0.190469
C14	C	1.830687	-0.421420	-0.263179
C15	C	1.830710	-0.578583	-0.263178
C16	C	2.014333	-0.000016	-0.184408
C17	C	2.178152	-0.000009	-0.188719
C18	C	1.753133	-0.000021	0.037569
C19	C	1.748820	-0.000017	0.176141
N20	N	1.744696	0.353614	-0.190465
C21	C	1.742450	0.117569	0.381128
C22	C	1.746907	0.117568	0.237907
C23	C	1.736206	-0.000010	0.581486
C24	C	1.740518	-0.000013	0.442914
H25	H	1.904331	-0.363094	-0.325425
Cl26	Cl	1.743071	-0.155444	0.360893
H27	H	1.748556	0.218234	0.184771
H28	H	1.747150	-0.100688	0.229267
H29	H	1.904358	-0.636869	-0.325434
Cl30	Cl	1.630964	-0.443684	-0.094347
Cl31	Cl	1.739930	0.272999	0.463153
Cl32	Cl	1.630958	-0.556414	-0.094355
