data_functionalizedCrystal
_audit_creation_method	'MofGen! by Chris Wilmer'
_symmetry_space_group_name_H-M	'P1'
_symmetry_Int_Tables_number	1
_symmetry_cell_setting	triclinic
loop_
_symmetry_equiv_pos_as_xyz
  x,y,z
_cell_length_a	16.625548
_cell_length_b	18.101395
_cell_length_c	16.625539
_cell_angle_alpha	89.972352
_cell_angle_beta	89.979432
_cell_angle_gamma	90.032172
loop_
_atom_site_label
_atom_site_type_symbol
_atom_site_fract_x
_atom_site_fract_y
_atom_site_fract_z
Zn1	Zn	1.232632	-0.294807	-0.455913
Zn2	Zn	1.732632	0.205193	0.044087
Zn3	Zn	1.232515	-0.418656	-0.321082
Zn4	Zn	1.732515	0.081344	0.178918
Zn5	Zn	1.097794	-0.294835	-0.321094
Zn6	Zn	1.597794	0.205165	0.178906
Zn7	Zn	1.097744	-0.418614	-0.455872
Zn8	Zn	1.597744	0.081386	0.044128
O9	O	1.165171	-0.356728	-0.388490
O10	O	1.665171	0.143272	0.111510
O11	O	1.345449	-0.311242	-0.438040
O12	O	1.845449	0.188758	0.061960
O13	O	1.214616	-0.402261	-0.208251
O14	O	1.714616	0.097739	0.291749
O15	O	1.115750	-0.191199	-0.339000
O16	O	1.615750	0.308801	0.161000
O17	O	1.345363	-0.402233	-0.338980
O18	O	1.845363	0.097767	0.161020
O19	O	1.214815	-0.191178	-0.438051
O20	O	1.714815	0.308822	0.061949
O21	O	1.115637	-0.311290	-0.208260
O22	O	1.615637	0.188710	0.291740
O23	O	0.984955	-0.311249	-0.338960
O24	O	1.484955	0.188751	0.161040
O25	O	1.115665	-0.402161	-0.568710
O26	O	1.615665	0.097839	-0.068710
O27	O	0.984918	-0.402188	-0.437981
O28	O	1.484918	0.097812	0.062019
O29	O	1.214767	-0.311201	-0.568740
O30	O	1.714767	0.188799	-0.068740
O31	O	1.214567	-0.522284	-0.338940
O32	O	1.714567	-0.022284	0.161060
O33	O	1.115552	-0.522252	-0.437969
O34	O	1.615552	-0.022252	0.062031
C35	C	0.955680	-0.356718	-0.388467
C36	C	1.455680	0.143282	0.111533
C37	C	0.866059	-0.356731	-0.388477
C38	C	1.366059	0.143269	0.111523
C39	C	0.537884	-0.356736	-0.388511
C40	C	1.037884	0.143264	0.111489
C41	C	0.629192	-0.356732	-0.388499
C42	C	1.129192	0.143268	0.111501
C43	C	0.701969	-0.356734	-0.388494
C44	C	1.201969	0.143266	0.111506
C45	C	0.793283	-0.356729	-0.388483
C46	C	1.293283	0.143271	0.111517
C47	C	1.165063	-0.549139	-0.388466
C48	C	1.665063	-0.049139	0.111534
C49	C	1.165091	-0.631453	-0.388483
C50	C	1.665091	-0.131453	0.111517
C51	C	1.165268	-0.930544	-0.388527
C52	C	1.665268	-0.430544	0.111473
C53	C	1.103114	-0.899230	-0.450988
C54	C	1.603114	-0.399230	0.049012
C55	C	1.102819	-0.813612	-0.450793
C56	C	1.602819	-0.313612	0.049207
C57	C	1.165180	-0.782161	-0.388506
C58	C	1.665180	-0.282161	0.111494
C59	C	1.142173	-0.813313	-0.303528
C60	C	1.642173	-0.313313	0.196472
C61	C	1.141772	-0.898959	-0.303901
C62	C	1.641772	-0.398959	0.196099
C63	C	1.250565	-0.898886	-0.410295
C64	C	1.750565	-0.398886	0.089705
C65	C	1.250063	-0.813235	-0.412159
C66	C	1.750063	-0.313235	0.087841
C67	C	1.165132	-0.698302	-0.388489
C68	C	1.665132	-0.198302	0.111511
C69	C	1.165314	-1.014403	-0.388538
C70	C	1.665314	-0.514403	0.111462
C71	C	1.375480	-0.356739	-0.388513
C72	C	1.875480	0.143261	0.111487
C73	C	1.465101	-0.356744	-0.388523
C74	C	1.965101	0.143256	0.111477
C75	C	1.165224	-0.356673	-0.598799
C76	C	1.665224	0.143327	-0.098799
C77	C	1.165246	-0.356649	-0.688420
C78	C	1.665246	0.143351	-0.188420
C79	C	1.165302	-0.163566	-0.388531
C80	C	1.665302	0.336434	0.111469
C81	C	1.165357	-0.081252	-0.388549
C82	C	1.665357	0.418748	0.111451
C83	C	1.165283	-0.356567	-1.016596
C84	C	1.665283	0.143433	-0.516596
C85	C	1.165271	-0.356592	-0.925287
C86	C	1.665271	0.143408	-0.425287
C87	C	1.165265	-0.356609	-0.852511
C88	C	1.665265	0.143391	-0.352511
C89	C	1.165252	-0.356633	-0.761197
C90	C	1.665252	0.143367	-0.261197
C91	C	1.165165	-0.356730	-0.178999
C92	C	1.665165	0.143270	0.321001
C93	C	1.165299	-0.356545	-0.089378
C94	C	1.665299	0.143455	0.410622
H95	H	1.117214	-0.792547	-0.513803
H96	H	1.617214	-0.292547	-0.013803
H97	H	1.080482	-0.791930	-0.284757
H98	H	1.580482	-0.291930	0.215243
H99	H	1.271540	-0.920433	-0.471205
H100	H	1.771540	-0.420433	0.028795
H101	H	1.117366	-0.919777	-0.514202
H102	H	1.617366	-0.419777	-0.014202
H103	H	1.267413	-0.792871	-0.474698
H104	H	1.767413	-0.292871	0.025302
O105	O	1.067335	-0.922839	-0.282041
O106	O	1.567335	-0.422839	0.217959
C107	C	1.009889	-0.895874	-0.337063
C108	C	1.509889	-0.395874	0.162937
H109	H	1.040616	-0.882566	-0.396647
H110	H	1.540616	-0.382566	0.103353
H111	H	0.981042	-0.843668	-0.311835
H112	H	1.481042	-0.343668	0.188165
C113	C	0.906861	-0.971260	-0.277576
C114	C	1.406861	-0.471260	0.222424
C115	C	0.944599	-0.954922	-0.350760
C116	C	1.444599	-0.454922	0.149240
H117	H	0.866585	-1.007682	-0.286022
H118	H	1.366585	-0.507682	0.213978
H119	H	0.945562	-0.989426	-0.240504
H120	H	1.445562	-0.489426	0.259496
H121	H	0.882829	-0.927750	-0.256560
H122	H	1.382829	-0.427750	0.243440
H123	H	0.968639	-0.998429	-0.371769
H124	H	1.468639	-0.498429	0.128231
H125	H	0.905901	-0.936765	-0.387835
H126	H	1.405901	-0.436765	0.112165
O127	O	1.308184	-0.787775	-0.361735
O128	O	1.808184	-0.287775	0.138265
C129	C	1.290556	-0.809945	-0.282351
C130	C	1.790556	-0.309945	0.217649
H131	H	1.249868	-0.860642	-0.283702
H132	H	1.749868	-0.360642	0.216298
H133	H	1.258715	-0.763066	-0.249482
H134	H	1.758715	-0.263066	0.250518
C135	C	1.419250	-0.766741	-0.236553
C136	C	1.919250	-0.266741	0.263447
C137	C	1.369282	-0.829012	-0.238212
C138	C	1.869282	-0.329012	0.261788
H139	H	1.467811	-0.778499	-0.209324
H140	H	1.967811	-0.278499	0.290676
H141	H	1.431126	-0.751802	-0.290035
H142	H	1.931126	-0.251802	0.209965
H143	H	1.392706	-0.727681	-0.209164
H144	H	1.892706	-0.227681	0.290836
H145	H	1.395822	-0.868067	-0.265609
H146	H	1.895822	-0.368067	0.234391
H147	H	1.357413	-0.843958	-0.184733
H148	H	1.857413	-0.343958	0.315267
O149	O	1.028098	-0.924939	-0.434142
O150	O	1.528098	-0.424939	0.065858
C151	C	0.973019	-0.896389	-0.490618
C152	C	1.473019	-0.396389	0.009382
H153	H	1.006455	-0.880179	-0.547846
H154	H	1.506455	-0.380179	-0.047846
H155	H	0.942035	-0.845681	-0.464326
H156	H	1.442035	-0.345681	0.035674
C157	C	0.868471	-0.975510	-0.440231
C158	C	1.368471	-0.475510	0.059769
C159	C	0.909537	-0.955606	-0.510522
C160	C	1.409537	-0.455606	-0.010522
H161	H	0.829310	-1.012035	-0.452507
H162	H	1.329310	-0.512035	0.047493
H163	H	0.905577	-0.994742	-0.402179
H164	H	1.405577	-0.494742	0.097821
H165	H	0.842658	-0.933248	-0.418327
H166	H	1.342658	-0.433248	0.081673
H167	H	0.935357	-0.997866	-0.532419
H168	H	1.435357	-0.497866	-0.032419
H169	H	0.872433	-0.936381	-0.548578
H170	H	1.372433	-0.436381	-0.048578
H171	H	1.185078	-0.919675	-0.255776
H172	H	1.685078	-0.419675	0.244224
O173	O	1.194443	-0.789132	-0.246399
O174	O	1.694443	-0.289132	0.253601
C175	C	1.172038	-0.818115	-0.170911
C176	C	1.672038	-0.318115	0.329089
H177	H	1.134814	-0.870355	-0.180004
H178	H	1.634814	-0.370355	0.319996
H179	H	1.134834	-0.775471	-0.136856
H180	H	1.634834	-0.275471	0.363144
C181	C	1.293820	-0.772651	-0.111000
C182	C	1.793820	-0.272651	0.389000
C183	C	1.248108	-0.836816	-0.122169
C184	C	1.748108	-0.336816	0.377831
H185	H	1.340743	-0.784183	-0.080932
H186	H	1.840743	-0.284183	0.419068
H187	H	1.308914	-0.753122	-0.161857
H188	H	1.808914	-0.253122	0.338143
H189	H	1.262808	-0.737120	-0.082624
H190	H	1.762808	-0.237120	0.417376
H191	H	1.279116	-0.872341	-0.150553
H192	H	1.779116	-0.372341	0.349447
H193	H	1.233021	-0.856351	-0.071315
H194	H	1.733021	-0.356351	0.428685
H195	H	1.296871	-0.919135	-0.364802
H196	H	1.796871	-0.419135	0.135198
H197	H	1.039595	-0.793190	-0.436373
H198	H	1.539595	-0.293190	0.063627
