data_functionalizedCrystal
_audit_creation_method	'MofGen! by Chris Wilmer'
_symmetry_space_group_name_H-M	'P1'
_symmetry_Int_Tables_number	1
_symmetry_cell_setting	triclinic
loop_
_symmetry_equiv_pos_as_xyz
  x,y,z
_cell_length_a	14.560438
_cell_length_b	19.851628
_cell_length_c	14.560438
_cell_angle_alpha	59.996493
_cell_angle_beta	90.001034
_cell_angle_gamma	60.004850
loop_
_atom_site_label
_atom_site_type_symbol
_atom_site_fract_x
_atom_site_fract_y
_atom_site_fract_z
Zr1	Zr	0.884820	0.737344	-0.120580
O2	O	0.738184	0.877876	-0.267237
O3	O	0.929763	0.596812	-0.075616
O4	O	0.929771	0.737346	-0.267229
O5	O	0.738179	0.737340	0.075517
O6	O	1.080909	0.737348	-0.267230
O7	O	0.738175	0.737341	-0.075624
O8	O	1.080894	0.485958	0.075531
O9	O	0.738194	0.988730	-0.267244
O10	O	1.061734	0.654616	-0.056448
O11	O	0.948944	0.654613	0.056348
O12	O	0.948954	0.820074	-0.169252
O13	O	0.836164	0.820071	-0.056457
Zr14	Zr	1.125874	0.737344	0.120470
Zr15	Zr	1.125868	0.737347	-0.120582
Zr16	Zr	0.884826	0.737341	0.120472
Zr17	Zr	0.884837	0.914143	-0.120592
Zr18	Zr	1.125857	0.560544	0.120482
O19	O	1.080932	0.877876	0.075506
O20	O	1.080923	0.877880	-0.267239
O21	O	0.738192	0.877871	0.075508
O22	O	1.272511	0.596812	0.267127
O23	O	1.272502	0.596816	-0.075618
O24	O	0.929771	0.596808	0.267129
O25	O	1.272515	0.737348	-0.075627
O26	O	1.080923	0.737341	0.267119
O27	O	0.929785	0.737340	0.267120
O28	O	1.272519	0.737346	0.075513
O29	O	0.929795	0.988732	-0.267246
O30	O	1.080899	0.485955	0.267135
O31	O	1.272500	0.485958	0.267134
O32	O	1.272495	0.485960	0.075530
O33	O	0.738199	0.988727	-0.075640
O34	O	0.929800	0.988730	-0.075641
O35	O	1.061740	0.654613	0.169142
O36	O	1.174530	0.654616	0.056346
O37	O	1.061750	0.820074	-0.056458
O38	O	0.948960	0.820071	0.056337
C39	C	0.703833	0.737340	-0.000053
C40	C	0.601501	0.737339	-0.000052
C41	C	1.005326	0.516195	-0.000041
C42	C	1.005319	0.441139	-0.000036
C43	C	0.612293	0.650973	0.058826
C44	C	0.516138	0.650977	0.058827
C45	C	0.398403	0.823721	-0.058938
C46	C	0.494557	0.823716	-0.058932
C47	C	0.943840	0.259778	0.061455
C48	C	0.899268	0.270117	-0.044608
C49	C	1.005337	0.303719	-0.000051
C50	C	1.049875	0.159664	0.105986
C51	C	1.005354	0.170974	-0.000058
C52	C	0.960703	0.315092	-0.106177
C53	C	1.111369	0.204593	0.044493
C54	C	1.066823	0.214966	-0.061634
C55	C	1.005325	0.380190	-0.000047
C56	C	1.005365	0.094509	-0.000074
C57	C	1.306862	0.737347	-0.000057
C58	C	1.409193	0.737349	-0.000058
C59	C	1.005339	0.737347	-0.301575
C60	C	1.005337	0.737349	-0.403908
C61	C	1.005368	0.958493	-0.000069
C62	C	1.005375	1.033549	-0.000074
C63	C	0.946468	0.823715	-0.510867
C64	C	0.946481	0.823710	-0.607015
C65	C	1.064233	0.650966	-0.489232
C66	C	1.064226	0.650972	-0.393086
C67	C	1.005355	0.737340	0.301464
C68	C	1.005357	0.737339	0.403797
C69	C	1.306840	0.516198	-0.000043
C70	C	1.409164	0.441144	-0.000039
C71	C	1.005334	0.516191	0.301479
C72	C	1.005329	0.441134	0.403816
C73	C	1.306848	0.516195	0.301476
C74	C	1.409175	0.441139	0.403814
C75	C	0.703846	0.958493	-0.301587
C76	C	0.601520	1.033549	-0.403924
C77	C	0.703854	0.958489	-0.000067
C78	C	0.601530	1.033544	-0.000071
C79	C	1.005361	0.958497	-0.301589
C80	C	1.005365	1.033554	-0.403927
C81	C	1.398339	0.405897	-0.058924
C82	C	1.494474	0.335385	-0.058943
C83	C	1.601434	0.300116	-0.000069
C84	C	1.612257	0.335369	0.058818
C85	C	1.516123	0.405885	0.058830
C86	C	1.064205	0.405886	0.510763
C87	C	1.064197	0.335372	0.606929
C88	C	1.005318	0.300101	0.596147
C89	C	0.946435	0.335356	0.489189
C90	C	0.946437	0.405874	0.393025
C91	C	1.516114	0.405893	0.392994
C92	C	1.612270	0.335380	0.489141
C93	C	1.601484	0.300109	0.596107
C94	C	1.494534	0.335361	0.606924
C95	C	1.398380	0.405878	0.510778
C96	C	0.494581	1.068803	-0.393104
C97	C	0.398425	1.139338	-0.489251
C98	C	0.409210	1.174613	-0.596217
C99	C	0.516160	1.139356	-0.607035
C100	C	0.612314	1.068827	-0.510888
C101	C	0.612355	1.068798	0.058804
C102	C	0.516220	1.139329	0.058796
C103	C	0.409261	1.174601	-0.000081
C104	C	0.398437	1.139344	-0.058964
C105	C	0.494571	1.068819	-0.058962
C106	C	1.064255	1.068802	-0.393108
C107	C	1.064282	1.139317	-0.489256
C108	C	1.005410	1.174587	-0.596222
C109	C	0.946518	1.139332	-0.607038
C110	C	0.946499	1.068814	-0.510891
H111	H	0.524935	0.580650	0.106774
N112	N	0.727647	1.030799	-0.522581
H113	H	0.770148	0.960011	-0.485323
H114	H	0.770104	1.043125	-0.485337
H115	H	1.201013	0.177642	0.082204
N116	N	1.705191	0.224046	0.699810
H117	H	1.751470	0.248592	0.699846
H118	H	1.751370	0.165559	0.699784
N119	N	1.705110	0.224054	-0.000085
H120	H	1.751387	0.165528	0.079656
H121	H	1.751308	0.248672	-0.033650
N122	N	1.005448	1.250637	-0.699918
H123	H	1.051693	1.267609	-0.676824
H124	H	0.925687	1.309115	-0.746169
H125	H	0.699368	0.580639	0.106783
H126	H	1.699357	0.306643	0.106751
N127	N	0.283059	0.916881	-0.122440
H128	H	0.223782	0.903781	-0.113512
H129	H	0.274157	0.954602	-0.204781
H130	H	1.524953	0.434574	0.106788
N131	N	1.127718	0.557817	-0.277710
H132	H	1.186962	0.553976	-0.235197
H133	H	1.164947	0.503150	-0.285534
H134	H	0.699439	1.040085	0.106757
N135	N	0.883024	1.177379	-0.722410
H136	H	0.891975	1.227402	-0.781668
H137	H	0.800686	1.206595	-0.731326
H138	H	1.311255	0.434613	-0.106880
H139	H	1.112151	0.434595	0.519563
N140	N	0.882971	1.030809	-0.522578
H141	H	0.800615	1.084627	-0.565065
H142	H	0.891968	0.980770	-0.445410
H143	H	0.525055	1.168023	0.106750
N144	N	1.127713	0.297353	0.722280
H145	H	1.165020	0.330393	0.714510
H146	H	1.186897	0.226559	0.764748
N147	N	1.482910	0.297314	0.722297
H148	H	1.560055	0.247291	0.781555
H149	H	1.440402	0.268095	0.731213
H150	H	0.485777	1.040086	-0.306016
H151	H	0.891767	0.279520	0.113389
N152	N	1.005322	0.224041	0.699872
H153	H	1.051561	0.207066	0.769254
H154	H	1.038803	0.165569	0.699827
N155	N	0.482915	0.916875	-0.122448
H156	H	0.520189	0.920720	-0.181693
H157	H	0.520172	0.920664	-0.068367
H158	H	1.311309	0.434566	0.519603
N159	N	0.882945	0.443909	0.277659
H160	H	0.823710	0.514701	0.235145
H161	H	0.845705	0.410813	0.285485
H162	H	1.112177	0.580641	-0.480435
H163	H	0.898546	0.894038	-0.694103
H164	H	0.330991	1.232027	-0.000074
H165	H	0.898497	0.306629	0.480427
N166	N	0.482882	1.030786	-0.122447
H167	H	0.560005	0.980753	-0.113517
H168	H	0.440363	1.084646	-0.204789
H169	H	0.311351	1.168033	-0.480422
H170	H	0.809604	0.297081	-0.082293
N171	N	1.099796	0.071675	0.224781
H172	H	1.053279	0.088044	0.271172
H173	H	1.179430	0.047070	0.258786
H174	H	1.524917	0.434601	0.305906
H175	H	0.330906	1.232042	-0.674497
N176	N	0.910689	0.403036	-0.225025
H177	H	0.910963	0.453540	-0.224287
H178	H	0.830852	0.427887	-0.258737
H179	H	1.112195	1.040095	-0.306021
N180	N	1.135711	0.189076	-0.130620
H181	H	1.101945	0.247248	-0.210676
H182	H	1.135862	0.137784	-0.129624
N183	N	1.127786	1.177343	-0.477571
H184	H	1.118876	1.227366	-0.554705
H185	H	1.210116	1.123479	-0.435032
H186	H	0.898517	0.894048	-0.519684
N187	N	1.482786	0.297372	-0.122461
H188	H	1.400438	0.330412	-0.159743
H189	H	1.520111	0.226577	-0.068403
H190	H	1.699344	0.306684	0.480314
N191	N	0.527784	1.177406	-0.722408
H192	H	0.450639	1.227431	-0.781665
H193	H	0.570283	1.123552	-0.731321
N194	N	0.283071	1.177376	-0.122443
H195	H	0.223822	1.227393	-0.113491
H196	H	0.274171	1.123508	-0.091501
