data_functionalizedCrystal
_audit_creation_method	'MofGen! by Chris Wilmer'
_symmetry_space_group_name_H-M	'P1'
_symmetry_Int_Tables_number	1
_symmetry_cell_setting	triclinic
loop_
_symmetry_equiv_pos_as_xyz
  x,y,z
_cell_length_a	19.077105
_cell_length_b	16.625545
_cell_length_c	19.076919
_cell_angle_alpha	92.272080
_cell_angle_beta	90.076224
_cell_angle_gamma	87.721938
loop_
_atom_site_label
_atom_site_type_symbol
_atom_site_fract_x
_atom_site_fract_y
_atom_site_fract_z
Zn1	Zn	1.058264	-0.390077	-0.440420
Zn2	Zn	1.558264	0.109923	0.059580
Zn3	Zn	1.062901	-0.519720	-0.322913
Zn4	Zn	1.562901	-0.019720	0.177087
Zn5	Zn	0.945482	-0.379275	-0.318213
Zn6	Zn	1.445482	0.120725	0.181787
Zn7	Zn	0.940723	-0.519233	-0.435666
Zn8	Zn	1.440723	-0.019233	0.064334
O9	O	1.001842	-0.452076	-0.379303
O10	O	1.501842	0.047924	0.120697
O11	O	1.157211	-0.411998	-0.428789
O12	O	1.657211	0.088002	0.071211
O13	O	1.051258	-0.496772	-0.223959
O14	O	1.551258	0.003228	0.276041
O15	O	0.960493	-0.267879	-0.334446
O16	O	1.460493	0.232121	0.165554
O17	O	1.160618	-0.507246	-0.342457
O18	O	1.660618	-0.007246	0.157543
O19	O	1.043354	-0.275815	-0.424231
O20	O	1.543354	0.224185	0.075769
O21	O	0.964990	-0.393588	-0.220505
O22	O	1.464990	0.106412	0.279495
O23	O	0.846519	-0.393117	-0.329837
O24	O	1.346519	0.106883	0.170163
O25	O	0.952383	-0.506417	-0.534628
O26	O	1.452383	-0.006417	-0.034628
O27	O	0.843023	-0.495944	-0.416129
O28	O	1.343023	0.004056	0.083871
O29	O	1.038739	-0.411526	-0.538120
O30	O	1.538739	0.088474	-0.038120
O31	O	1.046644	-0.632484	-0.337848
O32	O	1.546644	-0.132484	0.162152
O33	O	0.956880	-0.632127	-0.420687
O34	O	1.456880	-0.132127	0.079313
C35	C	0.819274	-0.443306	-0.371957
C36	C	1.319274	0.056694	0.128043
C37	C	0.741170	-0.439574	-0.368832
C38	C	1.241170	0.060426	0.131168
C39	C	0.702678	-0.491432	-0.412220
C40	C	1.202678	0.008568	0.087780
C41	C	0.629291	-0.487915	-0.409287
C42	C	1.129291	0.012085	0.090713
C43	C	0.594397	-0.432544	-0.362960
C44	C	1.094397	0.067456	0.137040
C45	C	0.632895	-0.380681	-0.319570
C46	C	1.132895	0.119319	0.180430
C47	C	0.706281	-0.384194	-0.322508
C48	C	1.206281	0.115806	0.177492
C49	C	0.375110	-0.416283	-0.349368
C50	C	0.875110	0.083717	0.150632
C51	C	0.301719	-0.412775	-0.346432
C52	C	0.801719	0.087225	0.153568
C53	C	0.298120	-0.520009	-0.436150
C54	C	0.798120	-0.020009	0.063850
C55	C	0.371507	-0.523521	-0.439080
C56	C	0.871507	-0.023521	0.060920
C57	C	0.409999	-0.471655	-0.395693
C58	C	0.909999	0.028345	0.104307
N59	N	0.519384	-0.428950	-0.359959
N60	N	1.019384	0.071050	0.140041
N61	N	0.485011	-0.475246	-0.398698
N62	N	0.985011	0.024754	0.101302
C63	C	1.001767	-0.661562	-0.379278
C64	C	1.501767	-0.161562	0.120722
C65	C	1.001798	-0.751186	-0.379293
C66	C	1.501798	-0.251186	0.120707
C67	C	1.001825	-0.823970	-0.379308
C68	C	1.501825	-0.323970	0.120692
C69	C	1.001865	-0.915281	-0.379325
C70	C	1.501865	-0.415281	0.120675
C71	C	1.001901	-0.988060	-0.379336
C72	C	1.501901	-0.488060	0.120664
C73	C	1.001941	-1.079376	-0.379352
C74	C	1.501941	-0.579376	0.120648
C75	C	1.185123	-0.460881	-0.386678
C76	C	1.685123	0.039119	0.113322
C77	C	1.263227	-0.464633	-0.389820
C78	C	1.763227	0.035367	0.110180
C79	C	0.994513	-0.460122	-0.562583
C80	C	1.494513	0.039878	-0.062583
C81	C	0.991389	-0.463551	-0.640686
C82	C	1.491389	0.036449	-0.140686
C83	C	1.001937	-0.241773	-0.379344
C84	C	1.501937	0.258227	0.120656
C85	C	1.001977	-0.152155	-0.379362
C86	C	1.501977	0.347845	0.120638
C87	C	1.034881	-0.415760	-0.679199
C88	C	1.534881	0.084240	-0.179199
C89	C	1.031938	-0.418978	-0.752584
C90	C	1.531938	0.081022	-0.252584
C91	C	0.985506	-0.469993	-0.787457
C92	C	1.485506	0.030007	-0.287457
C93	C	0.942010	-0.517786	-0.748939
C94	C	1.442010	-0.017786	-0.248939
C95	C	0.944950	-0.514563	-0.675554
C96	C	1.444950	-0.014563	-0.175554
C97	C	0.971888	-0.484926	-1.006738
C98	C	1.471888	0.015074	-0.506738
C99	C	0.968952	-0.488147	-1.080128
C100	C	1.468952	0.011853	-0.580128
C101	C	1.058880	-0.389338	-1.083768
C102	C	1.558880	0.110662	-0.583768
C103	C	1.061819	-0.386123	-1.010382
C104	C	1.561819	0.113877	-0.510382
C105	C	1.018320	-0.433913	-0.971871
C106	C	1.518320	0.066087	-0.471871
N107	N	0.982498	-0.473285	-0.862469
N108	N	1.482498	0.026715	-0.362469
N109	N	1.021325	-0.430615	-0.896860
N110	N	1.521325	0.069385	-0.396860
C111	C	1.009184	-0.444005	-0.196737
C112	C	1.509184	0.055995	0.303263
C113	C	1.012444	-0.440355	-0.118640
C114	C	1.512444	0.059645	0.381360
H115	H	0.406441	-0.374056	-0.314033
H116	H	0.906441	0.125944	0.185967
C117	C	0.450269	-0.542985	-0.536891
C118	C	0.950269	-0.042985	-0.036891
C119	C	0.409858	-0.584381	-0.490011
C120	C	0.909858	-0.084381	0.009989
H121	H	0.473947	-0.580560	-0.568330
H122	H	0.973947	-0.080560	-0.068330
H123	H	0.420579	-0.507721	-0.562672
H124	H	0.920579	-0.007721	-0.062672
H125	H	0.483698	-0.512609	-0.511462
H126	H	0.983698	-0.012609	-0.011462
H127	H	0.376426	-0.614753	-0.515439
H128	H	0.876426	-0.114753	-0.015439
H129	H	0.439550	-0.619660	-0.464227
H130	H	0.939550	-0.119660	0.035773
H131	H	0.904201	-0.559320	-0.777338
H132	H	1.404201	-0.059320	-0.277338
H133	H	0.737620	-0.341962	-0.287180
H134	H	1.237620	0.158038	0.212820
H135	H	0.909527	-0.553471	-0.644198
H136	H	1.409527	-0.053471	-0.144198
H137	H	0.597953	-0.530144	-0.444618
H138	H	1.097953	-0.030144	0.055382
H139	H	0.604479	-0.335593	-0.281853
H140	H	1.104479	0.164407	0.218147
H141	H	1.094293	-0.350428	-1.115132
H142	H	1.594293	0.149572	-0.615132
C143	C	0.784784	-0.604286	-0.425122
C144	C	1.284784	-0.104286	0.074878
C145	C	0.741028	-0.552300	-0.463144
C146	C	1.241028	-0.052300	0.036856
H147	H	0.808454	-0.641865	-0.456564
H148	H	1.308454	-0.141865	0.043436
H149	H	0.818211	-0.573907	-0.399709
H150	H	1.318211	-0.073907	0.100291
H151	H	0.757357	-0.632353	-0.393315
H152	H	1.257357	-0.132353	0.106685
H153	H	0.768456	-0.524228	-0.494948
H154	H	1.268456	-0.024228	0.005052
H155	H	0.707597	-0.582683	-0.488569
H156	H	1.207597	-0.082683	0.011431
C157	C	1.074894	-0.274480	-0.928302
C158	C	1.574894	0.225520	-0.428302
C159	C	1.112838	-0.330008	-0.972067
C160	C	1.612838	0.169992	-0.472067
H161	H	1.106389	-0.239832	-0.904650
H162	H	1.606389	0.260168	-0.404650
H163	H	1.043137	-0.243460	-0.955714
H164	H	1.543137	0.256540	-0.455714
H165	H	1.049431	-0.302492	-0.894853
H166	H	1.549431	0.197508	-0.394853
H167	H	1.138296	-0.301996	-1.005520
H168	H	1.638296	0.198004	-0.505520
H169	H	1.144606	-0.361031	-0.944653
H170	H	1.644606	0.138969	-0.444653
C171	C	0.184027	-0.562235	-0.471490
C172	C	0.684027	-0.062235	0.028510
C173	C	0.255809	-0.577011	-0.483846
C174	C	0.755809	-0.077011	0.016154
H175	H	0.157907	-0.597423	-0.500943
H176	H	0.657907	-0.097423	-0.000943
H177	H	0.173877	-0.571307	-0.423784
H178	H	0.673877	-0.071307	0.076216
H179	H	0.171613	-0.507956	-0.481375
H180	H	0.671613	-0.007956	0.018625
H181	H	0.268223	-0.631289	-0.473956
H182	H	0.768223	-0.131289	0.026044
H183	H	0.265963	-0.567945	-0.531563
H184	H	0.765963	-0.067945	-0.031563
C185	C	0.938479	-0.618812	-0.982749
C186	C	1.438479	-0.118812	-0.482749
C187	C	0.924066	-0.537454	-0.964419
C188	C	1.424066	-0.037454	-0.464419
H189	H	0.908953	-0.651239	-0.956619
H190	H	1.408953	-0.151239	-0.456619
H191	H	0.930093	-0.628023	-1.031441
H192	H	1.430093	-0.128023	-0.531441
H193	H	0.986165	-0.632353	-0.972605
H194	H	1.486165	-0.132353	-0.472605
H195	H	0.876381	-0.523911	-0.974567
H196	H	1.376381	-0.023911	-0.474567
H197	H	0.932446	-0.528239	-0.915716
H198	H	1.432446	-0.028239	-0.415716
H199	H	0.273311	-0.367676	-0.308711
H200	H	0.773311	0.132324	0.191289
H201	H	1.072693	-0.374221	-0.650811
H202	H	1.572693	0.125779	-0.150811
C203	C	1.121131	-0.321000	-0.748812
C204	C	1.621131	0.179000	-0.248812
C205	C	1.079750	-0.366450	-0.794917
C206	C	1.579750	0.133550	-0.294917
H207	H	1.150652	-0.288574	-0.774948
H208	H	1.650652	0.211426	-0.274948
H209	H	1.091679	-0.287429	-0.718963
H210	H	1.591679	0.212571	-0.218963
H211	H	1.149135	-0.356177	-0.721264
H212	H	1.649135	0.143823	-0.221264
H213	H	1.051742	-0.331273	-0.822462
H214	H	1.551742	0.168727	-0.322462
H215	H	1.109205	-0.400024	-0.824778
H216	H	1.609205	0.099976	-0.324778
C217	C	0.955821	-0.599754	-1.162245
C218	C	1.455821	-0.099754	-0.662245
C219	C	0.917905	-0.544217	-1.118464
C220	C	1.417905	-0.044217	-0.618464
H221	H	0.924308	-0.634368	-1.185909
H222	H	1.424308	-0.134368	-0.685909
H223	H	0.981304	-0.571752	-1.195676
H224	H	1.481304	-0.071752	-0.695676
H225	H	0.987560	-0.630815	-1.134835
H226	H	1.487560	-0.130815	-0.634835
H227	H	0.886170	-0.513151	-1.145874
H228	H	1.386170	-0.013151	-0.645874
H229	H	0.892411	-0.572221	-1.085029
H230	H	1.392411	-0.072221	-0.585029
