data_functionalizedCrystal
_audit_creation_method	'MofGen! by Chris Wilmer'
_symmetry_space_group_name_H-M	'P1'
_symmetry_Int_Tables_number	1
_symmetry_cell_setting	triclinic
loop_
_symmetry_equiv_pos_as_xyz
  x,y,z
_cell_length_a	19.288867
_cell_length_b	17.019294
_cell_length_c	18.366186
_cell_angle_alpha	86.114787
_cell_angle_beta	89.992441
_cell_angle_gamma	83.266056
loop_
_atom_site_label
_atom_site_type_symbol
_atom_site_fract_x
_atom_site_fract_y
_atom_site_fract_z
O1	O	0.921526	0.098414	-0.066694
O2	O	0.719289	0.111687	-0.067533
O3	O	0.826049	-0.009803	-0.059908
O4	O	0.814766	0.219903	-0.074318
O5	O	0.826030	-0.009808	0.061192
O6	O	0.719271	0.111681	0.053567
O7	O	0.921508	0.098408	0.054406
Zn8	Zn	0.820386	0.105044	0.073214
Zn9	Zn	0.820410	0.105051	-0.086340
O10	O	0.814748	0.219897	0.046782
C11	C	0.693403	0.111257	-0.006957
C12	C	0.616297	0.109974	-0.006879
C13	C	0.060725	0.100737	-0.072302
C14	C	0.133175	0.101937	-0.072380
C15	C	0.169395	0.102538	-0.006407
C16	C	0.133161	0.101918	0.059651
C17	C	0.060714	0.100709	0.059727
C18	C	0.278799	0.150652	0.041148
C19	C	0.351245	0.151866	0.041068
C20	C	0.392847	0.106262	-0.006640
C21	C	0.361993	0.059455	-0.054282
C22	C	0.289546	0.058247	-0.054206
C23	C	0.247952	0.103848	-0.006483
C24	C	0.507630	0.108179	-0.072778
C25	C	0.580082	0.109374	-0.072853
C26	C	0.580066	0.109363	0.059179
C27	C	0.507617	0.108159	0.059253
C28	C	0.471403	0.107571	-0.006728
C29	C	0.825611	-0.039193	0.002484
C30	C	0.824328	-0.126759	0.007972
C31	C	0.823736	-0.167890	-0.055461
C32	C	0.822525	-0.250167	-0.050302
C33	C	0.821911	-0.291312	0.018291
C34	C	0.822500	-0.250175	0.081728
C35	C	0.823706	-0.167899	0.076568
C36	C	0.818265	-0.539733	0.037173
C37	C	0.817061	-0.622015	0.042328
C38	C	0.817084	-0.622001	-0.089703
C39	C	0.818294	-0.539724	-0.094856
C40	C	0.818880	-0.498593	-0.031419
C41	C	0.820675	-0.375413	0.023566
C42	C	0.820111	-0.414494	-0.036695
C43	C	0.947394	0.098838	-0.006171
C44	C	1.024500	0.100121	-0.006254
C45	C	0.815185	0.249288	-0.015612
C46	C	0.816469	0.336854	-0.021105
N47	N	0.820375	0.105038	0.182105
N48	N	0.820427	0.105051	-0.195231
C49	C	0.867664	0.051268	0.223580
C50	C	0.867668	0.051265	0.299808
C51	C	0.820391	0.105044	0.334558
C52	C	0.773093	0.158818	0.293073
C53	C	0.773085	0.158814	0.216847
C54	C	0.811220	0.176920	0.450809
C55	C	0.811232	0.176924	0.527034
C56	C	0.820410	0.105054	0.569665
C57	C	0.829591	0.033177	0.536062
C58	C	0.829583	0.033173	0.459836
C59	C	0.820393	0.105053	0.417212
C60	C	0.867706	0.051277	0.693795
C61	C	0.867706	0.051272	0.770024
C62	C	0.773134	0.158831	0.763288
C63	C	0.773131	0.158829	0.687060
C64	C	0.820421	0.105053	0.652318
H65	H	0.395864	0.022323	-0.093133
H66	H	0.818756	-0.506256	0.088828
N67	N	0.839483	-0.044344	0.423591
H68	H	0.800910	-0.077123	0.438920
H69	H	0.838103	-0.033366	0.368844
N70	N	0.619116	0.110016	0.130340
H71	H	0.612184	0.060915	0.162280
H72	H	0.670494	0.110905	0.120212
H73	H	0.818795	-0.506229	-0.150711
H74	H	0.816557	-0.655513	0.098187
N75	N	0.801325	0.254444	0.563274
H76	H	0.839891	0.287231	0.547937
H77	H	0.754699	0.284433	0.548117
H78	H	0.478121	0.107661	0.113037
H79	H	0.816606	-0.655498	-0.141349
N80	N	0.821845	-0.294553	0.155710
H81	H	0.822402	-0.256009	0.195112
H82	H	0.778308	-0.322146	0.160316
H83	H	0.803734	0.235449	0.416104
H84	H	0.820606	-0.380989	-0.092543
N85	N	0.384519	0.202335	0.092462
H86	H	0.436726	0.196182	0.085174
H87	H	0.365163	0.259760	0.082104
H88	H	0.734598	0.202604	0.321370
H89	H	0.824178	-0.134410	0.128222
N90	N	0.722077	0.216808	0.172108
H91	H	0.692123	0.250875	0.205686
H92	H	0.748626	0.251607	0.138289
N93	N	0.172255	0.102611	-0.143623
H94	H	0.223645	0.103468	-0.133658
H95	H	0.165277	0.053515	-0.169378
H96	H	0.244933	0.187784	0.080006
H97	H	0.031219	0.100211	0.113513
H98	H	0.824240	-0.134396	-0.111316
N99	N	0.021667	0.100092	-0.143464
H100	H	0.055614	0.100661	-0.185317
H101	H	-0.002707	0.050696	-0.143239
N102	N	0.619159	0.110026	-0.144094
H103	H	0.585222	0.109469	-0.185878
H104	H	0.643543	0.159415	-0.150066
N105	N	0.172222	0.102563	0.130809
H106	H	0.223614	0.103426	0.120738
H107	H	0.153873	0.151240	0.156584
H108	H	0.822046	-0.283653	-0.101955
H109	H	0.820178	-0.408923	0.079414
H110	H	0.478144	0.107697	-0.126504
N111	N	0.722136	0.216837	0.642322
H112	H	0.729306	0.208676	0.588761
H113	H	0.672874	0.207869	0.656221
N114	N	0.256266	0.007763	-0.105582
H115	H	0.293609	-0.020946	-0.135819
H116	H	0.230791	-0.032204	-0.076417
N117	N	0.918663	-0.006734	0.186108
H118	H	0.967948	0.002212	0.198801
H119	H	0.910664	-0.062673	0.202909
N120	N	0.918674	-0.006727	0.344559
H121	H	0.910739	-0.062696	0.334817
H122	H	0.967934	0.002290	0.330701
N123	N	0.839495	-0.044348	0.582030
H124	H	0.838104	-0.033443	0.635418
H125	H	0.800914	-0.077090	0.570769
N126	N	0.918706	-0.006723	0.656316
H127	H	0.948662	-0.040792	0.694161
H128	H	0.892150	-0.041521	0.626879
N129	N	0.918724	-0.006712	0.814761
H130	H	0.948684	-0.040770	0.781182
H131	H	0.949390	0.023424	0.844480
N132	N	0.722135	0.216832	0.800756
H133	H	0.729313	0.208674	0.855340
H134	H	0.730097	0.272772	0.783917
