data_functionalizedCrystal
_audit_creation_method	'MofGen! by Chris Wilmer'
_symmetry_space_group_name_H-M	'P1'
_symmetry_Int_Tables_number	1
_symmetry_cell_setting	triclinic
loop_
_symmetry_equiv_pos_as_xyz
  x,y,z
_cell_length_a	10.540539
_cell_length_b	16.974885
_cell_length_c	16.053802
_cell_angle_alpha	91.069328
_cell_angle_beta	92.593658
_cell_angle_gamma	83.957898
loop_
_atom_site_label
_atom_site_type_symbol
_atom_site_fract_x
_atom_site_fract_y
_atom_site_fract_z
O1	O	0.161849	1.049979	0.001454
O2	O	0.181272	0.820628	-0.014030
O3	O	-0.013204	0.940536	-0.005934
O4	O	0.356326	0.930071	-0.006642
O5	O	-0.002544	0.933936	0.132479
O6	O	0.191933	0.814028	0.124383
O7	O	0.172509	1.043378	0.139867
Zn8	Zn	0.183914	0.927655	0.154101
Zn9	Zn	0.169868	0.936351	-0.028264
O10	O	0.366986	0.923471	0.131771
C11	C	0.185667	0.787960	0.053194
C12	C	0.182865	0.700452	0.047286
C13	C	0.166422	0.208270	0.005875
C14	C	0.169056	0.290492	0.011438
C15	C	0.176193	0.327997	0.089669
C16	C	0.180684	0.283275	0.162342
C17	C	0.178041	0.201055	0.156779
C18	C	0.184713	0.573511	0.114397
C19	C	0.187359	0.655737	0.119954
C20	C	0.175729	0.662948	-0.030951
C21	C	0.173094	0.580726	-0.036507
C22	C	0.177578	0.536012	0.036166
N23	N	0.178889	0.412040	0.095356
N24	N	0.174873	0.451971	0.030478
C25	C	-0.055169	0.936451	0.063218
C26	C	-0.196091	0.934103	0.063055
C27	C	-0.378534	0.844146	0.056671
C28	C	-0.231919	0.846511	0.057143
C29	C	-0.252133	0.972487	0.144942
C30	C	-0.398639	0.969495	0.144807
C31	C	-0.411300	0.978782	-0.012475
C32	C	-0.264407	0.979638	-0.013465
C33	C	0.408950	0.927556	0.062617
C34	C	0.549872	0.929904	0.062774
C35	C	0.168114	1.076047	0.072641
C36	C	0.170916	1.163554	0.078543
N37	N	0.193498	0.921726	0.278561
N38	N	0.160273	0.942287	-0.152724
C39	C	0.110778	0.972766	0.325701
C40	C	0.117495	0.968626	0.412828
C41	C	0.206939	0.913449	0.452814
C42	C	0.289663	0.862404	0.405668
C43	C	0.282940	0.866541	0.318542
C44	C	0.236274	0.895378	0.713004
C45	C	0.242994	0.891247	0.800136
C46	C	0.070823	0.997468	0.807291
C47	C	0.064112	1.001603	0.720163
C48	C	0.146832	0.950555	0.673024
N49	N	0.213810	0.909218	0.541872
N50	N	0.139954	0.954784	0.583967
H51	H	0.172076	0.699363	-0.090117
H52	H	-0.447149	0.953289	-0.074297
C53	C	0.026503	1.024767	0.464683
H54	H	0.043303	1.014395	0.522298
H55	H	0.039415	1.078121	0.453950
H56	H	-0.059358	1.016407	0.449799
H57	H	0.167280	0.550196	-0.100211
H58	H	-0.227707	0.951584	-0.074020
H59	H	0.315836	0.846313	0.832688
C60	C	-0.412954	0.793954	0.129662
H61	H	-0.369306	0.742231	0.125496
H62	H	-0.388351	0.818014	0.180948
H63	H	-0.502455	0.790640	0.127559
H64	H	-0.185418	0.810404	0.111642
C65	C	-0.020175	1.053610	0.859141
H66	H	-0.074402	1.087065	0.822848
H67	H	-0.070515	1.023349	0.891205
H68	H	0.028256	1.085065	0.895349
C69	C	0.158574	0.167018	-0.080177
H70	H	0.157655	0.111645	-0.073086
H71	H	0.082661	0.187571	-0.109887
H72	H	0.230583	0.176380	-0.110646
C73	C	0.327273	0.839234	0.661162
H74	H	0.381513	0.805789	0.697458
H75	H	0.278851	0.807782	0.624954
H76	H	0.377619	0.869499	0.629099
H77	H	0.181714	0.164648	0.215953
C78	C	0.388052	0.801712	0.449650
H79	H	0.380220	0.806563	0.508291
H80	H	0.372940	0.749713	0.431831
H81	H	0.471709	0.811430	0.435969
H82	H	-0.411112	0.812248	-0.002347
H83	H	-0.459275	1.042074	-0.008735
C84	C	0.164119	0.339675	-0.068497
H85	H	0.159507	0.305562	-0.115885
H86	H	0.090951	0.377495	-0.069089
H87	H	0.238874	0.366302	-0.069841
C88	C	0.195147	0.696996	0.206012
H89	H	0.197410	0.658593	0.248498
H90	H	0.270362	0.723335	0.210964
H91	H	0.122435	0.734507	0.211668
H92	H	-0.241268	1.043727	-0.013927
C93	C	-0.188039	0.929144	0.221736
H94	H	-0.222591	0.952809	0.270987
H95	H	-0.203284	0.874975	0.218791
H96	H	-0.098693	0.932920	0.222812
C97	C	-0.179749	0.805344	-0.022415
H98	H	-0.248176	0.787017	-0.055314
H99	H	-0.139316	0.841908	-0.053498
H100	H	-0.119584	0.761689	-0.007511
H101	H	-0.421939	0.935524	0.201788
C102	C	-0.034284	1.062293	0.676184
H103	H	-0.082597	1.092094	0.716738
H104	H	0.008896	1.096969	0.644415
H105	H	-0.089874	1.035253	0.640276
C106	C	-0.464025	1.054358	0.155412
H107	H	-0.401014	1.090507	0.159790
H108	H	-0.519990	1.067210	0.108467
H109	H	-0.511390	1.057712	0.204539
H110	H	0.037948	1.017700	0.293151
C111	C	0.373937	0.810400	0.266688
H112	H	0.428179	0.776951	0.302979
H113	H	0.325509	0.778952	0.230479
H114	H	0.424283	0.840666	0.234624
H115	H	0.188346	0.537117	0.173573
C116	C	-0.222597	1.059192	0.154788
H117	H	-0.175707	1.072784	0.108938
H118	H	-0.300290	1.092964	0.156334
H119	H	-0.173544	1.065314	0.205164
H120	H	0.186487	0.313819	0.226039
