data_functionalizedCrystal
_audit_creation_method	'MofGen! by Chris Wilmer'
_symmetry_space_group_name_H-M	'P1'
_symmetry_Int_Tables_number	1
_symmetry_cell_setting	triclinic
loop_
_symmetry_equiv_pos_as_xyz
  x,y,z
_cell_length_a	15.995343
_cell_length_b	23.532407
_cell_length_c	22.010155
_cell_angle_alpha	89.993714
_cell_angle_beta	89.997518
_cell_angle_gamma	83.168931
loop_
_atom_site_label
_atom_site_type_symbol
_atom_site_fract_x
_atom_site_fract_y
_atom_site_fract_z
O1	O	1.110378	0.073374	0.050471
O2	O	0.866527	0.082443	0.050486
O3	O	0.995806	-0.004995	0.050467
O4	O	0.981099	0.160812	0.050490
O5	O	0.995797	-0.004972	-0.050584
O6	O	0.866518	0.082466	-0.050564
O7	O	1.110369	0.073397	-0.050580
Cu8	Cu	0.988442	0.077933	-0.059799
Cu9	Cu	0.988453	0.077906	0.059705
O10	O	0.981090	0.160835	-0.050561
C11	C	0.835330	0.082080	-0.000037
C12	C	0.742389	0.080959	-0.000032
C13	C	0.572219	0.078923	-0.000040
C14	C	0.549399	0.015806	-0.000049
C15	C	0.452731	0.014618	-0.000282
C16	C	0.404676	0.076917	-0.000048
C17	C	0.433499	0.108667	-0.057634
C18	C	0.530285	0.109415	-0.057678
C19	C	0.530198	0.110313	0.057239
C20	C	0.433723	0.107983	0.057992
C21	C	0.309987	0.075787	-0.000054
C22	C	0.666908	0.080055	-0.000038
C23	C	0.995427	-0.026201	-0.000060
C24	C	0.994301	-0.089422	-0.000065
C25	C	1.063743	-0.488260	-0.000036
C26	C	1.062697	-0.547664	-0.000031
O27	O	1.127071	-0.584162	-0.000013
N28	N	0.985841	-0.570584	-0.000027
C29	C	0.910025	-0.534097	-0.000021
O30	O	0.844557	-0.559047	-0.000016
C31	C	0.911072	-0.474694	-0.000021
C32	C	0.987934	-0.451777	-0.000032
C33	C	1.140598	-0.465342	-0.000046
C34	C	1.141644	-0.405942	-0.000051
C35	C	1.065834	-0.369459	-0.000047
C36	C	0.988979	-0.392377	-0.000037
C37	C	0.835258	-0.438208	-0.000011
C38	C	0.836311	-0.378801	-0.000011
C39	C	0.913173	-0.355884	-0.000021
C40	C	0.914215	-0.296494	-0.000039
N41	N	0.991072	-0.273574	-0.000044
C42	C	1.066881	-0.310056	-0.000048
C43	C	0.907833	-0.658848	-0.000019
C44	C	0.906785	-0.718250	-0.000023
C45	C	1.059457	-0.731813	-0.000032
C46	C	1.060504	-0.672410	-0.000033
C47	C	0.984689	-0.635928	-0.000023
C48	C	1.069071	-0.185311	-0.000060
C49	C	1.070110	-0.125905	-0.000069
C50	C	0.917439	-0.112348	-0.000056
C51	C	0.916399	-0.171748	-0.000051
C52	C	0.992222	-0.208229	-0.000051
O53	O	0.849875	-0.259961	-0.000055
O54	O	1.132339	-0.285098	-0.000044
C55	C	1.141565	0.073759	-0.000055
C56	C	1.234507	0.074881	-0.000056
C57	C	0.981469	0.182041	-0.000032
C58	C	0.982595	0.245262	-0.000024
N59	N	0.988441	0.077952	-0.143851
C60	C	0.931177	0.116625	-0.436455
C61	C	0.931175	0.116630	-0.372847
O62	O	0.882462	0.149534	-0.339948
N63	N	0.988435	0.077931	-0.341035
C64	C	1.045695	0.039220	-0.372835
O65	O	1.094398	0.006304	-0.339936
C66	C	1.045692	0.039213	-0.436441
C67	C	0.988434	0.077918	-0.468250
C68	C	0.873923	0.155326	-0.468263
C69	C	0.873927	0.155322	-0.531866
C70	C	0.931184	0.116615	-0.563661
C71	C	0.988438	0.077914	-0.531853
C72	C	1.102947	0.000500	-0.468239
C73	C	1.102940	0.000495	-0.531850
C74	C	1.045682	0.039201	-0.563658
C75	C	1.045698	0.039202	-0.627251
N76	N	0.988439	0.077902	-0.659062
C77	C	0.931181	0.116608	-0.627268
C78	C	1.045694	0.039238	-0.239257
C79	C	1.045702	0.039247	-0.175652
C80	C	0.931181	0.116657	-0.175668
C81	C	0.931178	0.116649	-0.239275
C82	C	0.988435	0.077937	-0.271069
C83	C	0.931193	0.116596	-0.760839
C84	C	0.931204	0.116589	-0.824448
C85	C	1.045722	0.039179	-0.824425
C86	C	1.045714	0.039187	-0.760822
C87	C	0.988443	0.077898	-0.729030
O88	O	1.094384	0.006314	-0.660190
O89	O	0.882479	0.149514	-0.660174
N90	N	0.988461	0.077883	0.143757
H91	H	0.401271	0.154517	-0.059607
O92	O	0.823886	-0.742966	-0.000020
H93	H	0.771351	-0.707612	-0.000014
H94	H	0.772669	-0.456856	0.000001
O95	O	0.588045	-0.016061	-0.054678
H96	H	0.631589	-0.053545	-0.039273
H97	H	1.130814	-0.215008	-0.000058
O98	O	0.586819	-0.016614	0.054628
H99	H	0.561673	0.005081	0.096721
H100	H	1.132703	-0.107250	-0.000079
H101	H	0.853812	-0.190408	-0.000060
O102	O	0.548232	0.171855	0.057978
H103	H	0.518346	0.193728	0.098538
O104	O	0.428562	-0.018113	-0.055294
H105	H	0.485953	-0.033150	-0.081838
H106	H	1.204232	-0.387289	-0.000058
H107	H	1.092327	0.007715	-0.265140
H108	H	0.884553	0.148166	-0.265170
H109	H	0.557247	0.087703	-0.100894
H110	H	0.827300	0.186838	-0.557761
O111	O	1.143407	-0.647699	-0.000035
H112	H	1.147545	-0.620958	-0.041222
O113	O	0.407148	0.079831	-0.114629
H114	H	0.373531	0.042894	-0.102088
O115	O	1.141228	-0.771167	-0.000030
H116	H	1.127581	-0.816322	-0.000021
O117	O	0.826056	-0.619499	-0.000025
H118	H	0.772444	-0.645422	-0.000030
O119	O	0.754538	-0.339451	-0.000008
H120	H	0.700922	-0.365371	-0.000007
H121	H	1.092335	0.007736	-0.149758
H122	H	1.202335	-0.495041	-0.000047
H123	H	0.400388	0.153439	0.061654
H124	H	0.544473	0.155701	-0.060134
H125	H	1.149571	-0.031018	-0.442350
O126	O	1.164704	-0.041254	-0.566143
H127	H	1.204521	-0.068159	-0.533335
H128	H	0.433922	-0.010234	0.040989
O129	O	0.835674	-0.072994	-0.000051
H130	H	0.849321	-0.027839	-0.000050
O131	O	0.869463	0.158349	-0.858757
H132	H	0.829651	0.185265	-0.825958
O133	O	0.869431	0.158351	-0.726553
H134	H	0.829630	0.185263	-0.759366
H135	H	0.827293	0.186846	-0.442381
O136	O	1.107472	-0.002568	-0.858729
H137	H	1.172683	0.004714	-0.846534
H138	H	0.884557	0.148173	-0.149770
O139	O	1.107454	-0.002559	-0.726498
H140	H	1.172673	0.004708	-0.738696
O141	O	0.567852	0.083919	0.115078
H142	H	0.636419	0.087468	0.115923
O143	O	0.409394	0.077367	0.114430
H144	H	0.377220	0.039969	0.101199
