data_functionalizedCrystal
_audit_creation_method	'MofGen! by Chris Wilmer'
_symmetry_space_group_name_H-M	'P1'
_symmetry_Int_Tables_number	1
_symmetry_cell_setting	triclinic
loop_
_symmetry_equiv_pos_as_xyz
  x,y,z
_cell_length_a	12.811457
_cell_length_b	15.995350
_cell_length_c	11.892095
_cell_angle_alpha	93.891441
_cell_angle_beta	91.498327
_cell_angle_gamma	83.769027
loop_
_atom_site_label
_atom_site_type_symbol
_atom_site_fract_x
_atom_site_fract_y
_atom_site_fract_z
O1	O	1.389202	0.115514	0.048418
O2	O	1.085841	0.126016	0.017317
O3	O	1.245814	-0.001045	0.033719
O4	O	1.229229	0.242575	0.032017
O5	O	1.232476	0.009532	0.220359
O6	O	1.072503	0.136593	0.203957
O7	O	1.375863	0.126092	0.235058
Zn8	Zn	1.222066	0.133022	0.249141
Zn9	Zn	1.239639	0.119085	0.003235
O10	O	1.215891	0.253153	0.218657
C11	C	1.040353	0.130392	0.106657
C12	C	0.924683	0.127663	0.094799
C13	C	0.692785	0.134051	0.276012
C14	C	0.584102	0.131487	0.264875
C15	C	0.598634	0.119963	0.061389
C16	C	0.707317	0.122528	0.072526
C17	C	0.754388	0.129573	0.179841
C18	C	0.863071	0.132143	0.190977
C19	C	0.877602	0.120614	-0.012508
C20	C	0.768920	0.118050	-0.023645
C21	C	1.238459	-0.026958	0.126967
C22	C	1.236404	-0.119928	0.126750
C23	C	1.229022	-0.457744	0.125997
C24	C	1.115122	-0.411395	0.113898
C25	C	1.117148	-0.314662	0.114529
C26	C	1.232684	-0.290149	0.126369
C27	C	1.281261	-0.324663	0.238709
C28	C	1.278393	-0.421321	0.238505
C29	C	1.295914	-0.433685	0.026502
C30	C	1.295988	-0.336820	0.025090
C31	C	1.234759	-0.195432	0.126585
C32	C	1.226949	-0.552461	0.125789
C33	C	1.421352	0.121715	0.145716
C34	C	1.537023	0.124444	0.157567
C35	C	1.223246	0.279065	0.125407
C36	C	1.225301	0.372035	0.125616
N37	N	1.210080	0.142533	0.416966
N38	N	1.251633	0.109568	-0.164590
C39	C	1.335037	0.043339	0.666426
C40	C	1.326667	0.049994	0.783909
C41	C	1.184964	0.162491	0.769419
C42	C	1.193334	0.155836	0.651935
C43	C	1.268375	0.096260	0.600443
C44	C	1.276749	0.089610	0.482958
C45	C	1.135042	0.202103	0.468469
C46	C	1.126672	0.208757	0.585953
H47	H	0.927771	0.116973	-0.090818
O48	O	1.408204	-0.315921	0.027998
H49	H	1.462128	-0.374644	0.034579
H50	H	1.123861	0.210991	0.811359
H51	H	1.361693	-0.452516	0.251913
H52	H	1.264438	-0.459150	-0.058097
O53	O	1.065849	-0.283280	0.007347
H54	H	1.039364	-0.337218	-0.045405
O55	O	0.718142	0.110442	-0.139384
H56	H	0.779242	0.107752	-0.204387
H57	H	1.075048	-0.434682	0.032800
O58	O	0.913845	0.139742	0.306719
H59	H	0.953715	0.198138	0.315713
H60	H	1.064356	-0.427104	0.185254
O61	O	1.222055	-0.281600	0.338474
H62	H	1.257136	-0.306530	0.417407
H63	H	1.067210	-0.282874	0.186500
O64	O	1.063136	0.259181	0.397293
H65	H	1.074813	0.325860	0.421196
O66	O	1.216564	-0.440098	0.338463
H67	H	1.188986	-0.380192	0.386489
H68	H	1.260537	-0.314423	-0.057966
H69	H	1.365859	-0.309522	0.251372
O70	O	1.407249	-0.474777	0.036937
H71	H	1.414958	-0.512161	0.112576
H72	H	1.380949	0.006900	0.837630
O73	O	1.045748	0.273021	0.641492
H74	H	0.991291	0.240323	0.689847
O75	O	1.415947	-0.020935	0.610882
H76	H	1.410562	-0.016675	0.518102
O77	O	0.743565	0.141660	0.391750
H78	H	0.682468	0.144344	0.456755
H79	H	0.533948	0.135138	0.343188
O80	O	1.357657	0.025339	0.427405
H81	H	1.412125	0.058030	0.379055
O82	O	0.547858	0.112362	-0.054351
H83	H	0.461935	0.111333	-0.045932
