data_functionalizedCrystal
_audit_creation_method	'MofGen! by Chris Wilmer'
_symmetry_space_group_name_H-M	'P1'
_symmetry_Int_Tables_number	1
_symmetry_cell_setting	triclinic
loop_
_symmetry_equiv_pos_as_xyz
  x,y,z
_cell_length_a	19.288859
_cell_length_b	14.971486
_cell_length_c	13.448316
_cell_angle_alpha	90.006811
_cell_angle_beta	89.992367
_cell_angle_gamma	96.626073
loop_
_atom_site_label
_atom_site_type_symbol
_atom_site_fract_x
_atom_site_fract_y
_atom_site_fract_z
O1	O	0.921717	-0.111555	-0.082712
O2	O	0.719505	-0.126613	-0.082710
O3	O	0.826030	0.011145	-0.082704
O4	O	0.815191	-0.249314	-0.082718
O5	O	0.826017	0.011154	0.082680
O6	O	0.719491	-0.126605	0.082674
O7	O	0.921703	-0.111547	0.082672
Cu8	Cu	0.820596	-0.119075	0.097774
Cu9	Cu	0.820612	-0.119085	-0.097812
O10	O	0.815177	-0.249305	0.082666
C11	C	0.693620	-0.126125	-0.000017
C12	C	0.616511	-0.124674	-0.000016
C13	C	0.052702	-0.195684	-0.000022
C14	C	0.125153	-0.197056	-0.000027
C15	C	0.169596	-0.116225	-0.000021
C16	C	0.141583	-0.034017	-0.000035
C17	C	0.069133	-0.032647	-0.000039
C18	C	0.290665	-0.055939	0.057927
C19	C	0.363113	-0.057312	0.057938
C20	C	0.393056	-0.120446	-0.000011
C21	C	0.350540	-0.182222	-0.057958
C22	C	0.278090	-0.180852	-0.057963
C23	C	0.248157	-0.117701	-0.000016
C24	C	0.499620	-0.204136	-0.000010
C25	C	0.572073	-0.205505	-0.000021
C26	C	0.588502	-0.042464	-0.000019
C27	C	0.516051	-0.041098	-0.000017
C28	C	0.471614	-0.121937	-0.000008
C29	C	0.825539	0.044472	-0.000012
C30	C	0.824086	0.143761	-0.000013
C31	C	0.947588	-0.112035	-0.000023
C32	C	1.024697	-0.113486	-0.000030
C33	C	0.815669	-0.282632	-0.000028
C34	C	0.817122	-0.381921	-0.000033
N35	N	0.820590	-0.119067	0.235338
C36	C	0.886667	0.201326	-0.000013
C37	C	0.885298	0.294618	-0.000023
C38	C	0.821347	0.330343	-0.000026
C39	C	0.758761	0.272770	-0.000029
C40	C	0.760131	0.179480	-0.000026
C41	C	0.755911	0.467217	-0.000032
C42	C	0.754541	0.560514	-0.000033
C43	C	0.881078	0.582355	-0.000029
C44	C	0.882448	0.489065	-0.000027
C45	C	0.819861	0.431499	-0.000028
N46	N	0.820623	-0.119085	-0.235376
C47	C	0.867774	-0.058093	0.287381
C48	C	0.867779	-0.058092	0.391484
C49	C	0.820601	-0.119071	0.443543
C50	C	0.773412	-0.180048	0.391492
C51	C	0.773405	-0.180044	0.287391
C52	C	0.773431	-0.180054	0.608473
C53	C	0.773439	-0.180060	0.712581
C54	C	0.867805	-0.058102	0.712566
C55	C	0.867798	-0.058098	0.608464
C56	C	0.820609	-0.119077	0.556421
H57	H	0.016526	-0.261509	-0.000019
H58	H	0.735022	-0.229714	0.754962
Br59	Br	0.931830	0.024650	0.537810
Br60	Br	0.973463	0.152852	0.000005
Br61	Br	0.931849	0.024649	0.783198
Br62	Br	0.610081	-0.317069	-0.000025
Br63	Br	0.931809	0.024663	0.216741
H64	H	0.936258	0.341485	-0.000021
Br65	Br	0.670972	0.389092	-0.000038
H66	H	0.706691	0.301865	-0.000038
Br67	Br	0.709362	-0.262793	0.216761
Br68	Br	0.931813	0.024663	0.462118
Br69	Br	0.201897	0.075683	-0.000035
H70	H	0.493249	0.025836	-0.000018
H71	H	0.463438	-0.269960	-0.000004
H72	H	0.709171	0.132610	-0.000026
H73	H	0.932038	0.629231	-0.000032
H74	H	0.735003	-0.229707	0.566103
Br75	Br	0.709379	-0.262801	0.462139
H76	H	0.147960	-0.263993	-0.000011
Br77	Br	0.220392	-0.264682	-0.136605
H78	H	0.934522	0.459982	-0.000017
H79	H	0.702466	0.589597	-0.000020
H80	H	0.624687	0.023350	-0.000021
Br81	Br	0.391164	-0.267921	-0.136593
H82	H	0.397724	-0.007015	0.105128
H83	H	0.046333	0.034290	-0.000046
H84	H	0.266293	-0.004524	0.105118
