data_functionalizedCrystal
_audit_creation_method	'MofGen! by Chris Wilmer'
_symmetry_space_group_name_H-M	'P1'
_symmetry_Int_Tables_number	1
_symmetry_cell_setting	triclinic
loop_
_symmetry_equiv_pos_as_xyz
  x,y,z
_cell_length_a	6.817900
_cell_length_b	17.110486
_cell_length_c	11.353959
_cell_angle_alpha	106.781703
_cell_angle_beta	107.526623
_cell_angle_gamma	99.060439
loop_
_atom_site_label
_atom_site_type_symbol
_atom_site_fract_x
_atom_site_fract_y
_atom_site_fract_z
V1	V	-4.012141	-0.271586	-0.180476
O2	O	-3.963602	-0.240773	0.009073
O3	O	-3.998700	-0.294391	-0.358238
O4	O	-3.941422	-0.378783	-0.177524
O5	O	-4.021276	-0.155798	-0.172892
V6	V	-4.494131	-0.254741	-0.157824
O7	O	-4.276762	-0.308537	-0.230164
O8	O	-4.679707	-0.217790	-0.108136
O9	O	-4.284366	-0.231936	0.019938
O10	O	-4.660067	-0.285554	-0.347373
O11	O	-4.602393	-0.370529	-0.165408
O12	O	-4.341643	-0.147544	-0.160776
C13	C	-3.852927	-0.296470	-0.401579
C14	C	-3.923075	-0.315830	-0.546901
C15	C	-3.926575	-0.253166	-0.594058
C16	C	-3.999076	-0.273174	-0.744256
C17	C	-3.779863	-0.404119	-0.171058
C18	C	-3.803558	-0.491915	-0.169820
C19	C	-3.997259	-0.538091	-0.175763
C20	C	-4.019511	-0.620584	-0.174600
C21	C	-3.848063	-0.656901	-0.167503
C22	C	-3.654343	-0.610717	-0.161556
C23	C	-3.632090	-0.528224	-0.162710
C24	C	-3.906116	-0.905730	-0.163684
C25	C	-3.928387	-0.988231	-0.162534
C26	C	-4.293553	-0.998091	-0.175576
C27	C	-4.271286	-0.915597	-0.176738
C28	C	-4.077566	-0.869419	-0.170783
C29	C	-3.870805	-0.741223	-0.166318
C30	C	-4.054822	-0.785097	-0.171959
C31	C	-4.093482	-0.229856	0.063272
C32	C	-4.002571	-0.210501	0.208592
C33	C	-4.166546	-0.122205	-0.167247
C34	C	-4.122089	-0.034407	-0.168477
H35	H	-3.973760	-0.384292	-0.617723
H36	H	-4.194410	-0.755523	-0.177733
H37	H	-3.951901	-0.142034	-0.720591
F38	F	-4.179749	-0.499450	-0.183326
F39	F	-4.453770	-0.876953	-0.184295
F40	F	-4.225680	-0.669729	-0.180939
F41	F	-4.499710	-1.047242	-0.181909
H42	H	-4.049761	-0.341641	-0.815075
F43	F	-3.745898	-1.026880	-0.154981
H44	H	-3.748405	-0.868152	-0.158882
F45	F	-3.471875	-0.649370	-0.154001
F46	F	-3.688354	-0.779885	-0.158781
F47	F	-3.860401	-0.163681	-0.501497
F48	F	-3.425922	-0.479077	-0.156375
