data_functionalizedCrystal
_audit_creation_method	'MofGen! by Chris Wilmer'
_symmetry_space_group_name_H-M	'P1'
_symmetry_Int_Tables_number	1
_symmetry_cell_setting	triclinic
loop_
_symmetry_equiv_pos_as_xyz
  x,y,z
_cell_length_a	8.559649
_cell_length_b	13.596369
_cell_length_c	8.597249
_cell_angle_alpha	82.296473
_cell_angle_beta	77.625029
_cell_angle_gamma	90.005140
loop_
_atom_site_label
_atom_site_type_symbol
_atom_site_fract_x
_atom_site_fract_y
_atom_site_fract_z
O1	O	2.119303	0.086280	-0.053154
O2	O	2.452636	0.419614	0.280179
O3	O	2.785969	0.752947	0.613513
O4	O	1.655362	0.079428	0.027747
O5	O	1.988695	0.412762	0.361080
O6	O	2.322028	0.746095	0.694414
O7	O	1.896465	0.102307	-0.242273
O8	O	2.229799	0.435640	0.091060
O9	O	2.563132	0.768974	0.424394
O10	O	1.878199	0.063402	0.216866
O11	O	2.211533	0.396735	0.550199
O12	O	2.544866	0.730068	0.883533
O13	O	1.896435	-0.061277	-0.242256
O14	O	2.229769	0.272056	0.091077
O15	O	2.563102	0.605389	0.424411
O16	O	1.655332	-0.084156	0.027764
O17	O	1.988665	0.249177	0.361097
O18	O	2.321998	0.582511	0.694431
O19	O	2.119273	-0.077304	-0.053137
O20	O	2.452606	0.256029	0.280196
O21	O	2.785939	0.589363	0.613530
Zn22	Zn	1.887298	-0.106703	-0.012684
Zn23	Zn	2.220631	0.226631	0.320650
Zn24	Zn	2.553964	0.559964	0.653983
Zn25	Zn	1.887337	0.108827	-0.012706
Zn26	Zn	2.220670	0.442160	0.320627
Zn27	Zn	2.554004	0.775494	0.653960
O28	O	1.878169	-0.100183	0.216883
O29	O	2.211503	0.233151	0.550216
O30	O	2.544836	0.566484	0.883550
C31	C	1.595913	-0.002883	0.033886
C32	C	1.929246	0.330451	0.367220
C33	C	2.262579	0.663784	0.700553
C34	C	1.418817	-0.004428	0.052136
C35	C	1.752151	0.328906	0.385469
C36	C	2.085484	0.662239	0.718802
N37	N	1.887282	-0.253795	-0.012671
N38	N	2.220616	0.079538	0.320662
N39	N	2.553949	0.412871	0.653996
C40	C	1.887290	-0.342794	-0.012668
C41	C	2.220624	-0.009460	0.320665
C42	C	2.553957	0.323873	0.653998
C43	C	1.887306	-0.454444	-0.012681
C44	C	2.220639	-0.121110	0.320652
C45	C	2.553972	0.212223	0.653986
C46	C	1.887326	-0.543433	-0.012701
C47	C	2.220660	-0.210099	0.320632
C48	C	2.553993	0.123234	0.653965
C49	C	1.887344	-0.655090	-0.012713
C50	C	2.220677	-0.321757	0.320621
C51	C	2.554011	0.011577	0.653954
C52	C	2.178722	0.005009	-0.059276
C53	C	2.512055	0.338343	0.274057
C54	C	2.845389	0.671676	0.607390
C55	C	2.355817	0.006561	-0.077526
C56	C	2.689151	0.339894	0.255808
C57	C	3.022484	0.673227	0.589141
C58	C	1.894490	0.025452	-0.300500
C59	C	2.227823	0.358785	0.032833
C60	C	2.561157	0.692118	0.366167
C61	C	1.888629	0.040161	-0.474022
C62	C	2.221962	0.373495	-0.140688
C63	C	2.555296	0.706828	0.192645
N64	N	1.887365	0.255921	-0.012733
N65	N	2.220698	0.589254	0.320600
N66	N	2.554031	0.922588	0.653934
C67	C	1.880145	-0.023325	0.275110
C68	C	2.213478	0.310008	0.608443
C69	C	2.546811	0.643342	0.941777
C70	C	1.886006	-0.038028	0.448632
C71	C	2.219339	0.295305	0.781965
C72	C	2.552672	0.628638	1.115298
H73	H	1.337262	-0.015012	0.177114
H74	H	1.670596	0.318321	0.510448
H75	H	2.003929	0.651654	0.843781
F76	F	1.885726	0.142369	-0.560990
F77	F	2.219060	0.475702	-0.227656
F78	F	2.552393	0.809035	0.105677
H79	H	1.888243	-0.116217	-0.484839
H80	H	2.221577	0.217116	-0.151505
H81	H	2.554910	0.550449	0.181828
H82	H	1.437363	0.017155	-0.202496
H83	H	1.770697	0.350488	0.130837
H84	H	2.104030	0.683822	0.464170
