data_functionalizedCrystal
_audit_creation_method	'MofGen! by Chris Wilmer'
_symmetry_space_group_name_H-M	'P1'
_symmetry_Int_Tables_number	1
_symmetry_cell_setting	triclinic
loop_
_symmetry_equiv_pos_as_xyz
  x,y,z
_cell_length_a	23.532407
_cell_length_b	16.176319
_cell_length_c	17.699083
_cell_angle_alpha	90.007696
_cell_angle_beta	96.934154
_cell_angle_gamma	89.997915
loop_
_atom_site_label
_atom_site_type_symbol
_atom_site_fract_x
_atom_site_fract_y
_atom_site_fract_z
O1	O	0.755526	-0.068645	-0.091879
O2	O	1.255526	0.431355	0.408121
O3	O	0.589701	-0.068670	-0.105173
O4	O	1.089701	0.431330	0.394827
O5	O	0.677298	-0.068649	0.011687
O6	O	1.177298	0.431351	0.511687
O7	O	0.667928	-0.068665	-0.208739
O8	O	1.167928	0.431335	0.291261
O9	O	0.677286	0.068844	0.011694
O10	O	1.177286	0.568844	0.511694
O11	O	0.589689	0.068824	-0.105166
O12	O	1.089689	0.568824	0.394834
O13	O	0.755514	0.068848	-0.091872
O14	O	1.255514	0.568848	0.408128
Cu15	Cu	0.672600	0.081390	-0.098518
Cu16	Cu	1.172600	0.581390	0.401482
Cu17	Cu	0.672614	-0.081212	-0.098527
Cu18	Cu	1.172614	0.418788	0.401473
O19	O	0.667916	0.068828	-0.208732
O20	O	1.167916	0.568828	0.291268
C21	C	0.568478	0.000074	-0.104831
C22	C	1.068478	0.500074	0.395169
C23	C	0.505258	0.000065	-0.103813
C24	C	1.005258	0.500065	0.396187
N25	N	0.672594	0.195755	-0.098512
N26	N	1.172594	0.695755	0.401488
N27	N	0.672625	-0.195577	-0.098528
N28	N	1.172625	0.304423	0.401472
C29	C	0.106335	0.000098	-0.166585
C30	C	0.606335	0.500098	0.333415
C31	C	0.046932	0.000103	-0.165639
C32	C	0.546932	0.500103	0.334361
O33	O	0.010354	0.000129	-0.223829
O34	O	0.510354	0.500129	0.276171
N35	N	0.024106	0.000107	-0.096166
N36	N	0.524106	0.500107	0.403834
C37	C	0.060687	0.000113	-0.027634
C38	C	0.560687	0.500113	0.472366
O39	O	0.035817	0.000118	0.031545
O40	O	0.535817	0.500118	0.531545
C41	C	0.120089	0.000114	-0.028580
C42	C	0.620089	0.500114	0.471420
C43	C	0.142911	0.000102	-0.098058
C44	C	0.642911	0.500102	0.401942
C45	C	0.129158	0.000087	-0.236057
C46	C	0.629158	0.500087	0.263943
C47	C	0.188557	0.000080	-0.237002
C48	C	0.688557	0.500080	0.262998
C49	C	0.225133	0.000084	-0.168475
C50	C	0.725133	0.500084	0.331525
C51	C	0.202310	0.000096	-0.099003
C52	C	0.702310	0.500096	0.400997
C53	C	0.156668	0.000127	0.039951
C54	C	0.656668	0.500127	0.539951
C55	C	0.216073	0.000129	0.038999
C56	C	0.716073	0.500129	0.538999
C57	C	0.238896	0.000116	-0.030479
C58	C	0.738896	0.500116	0.469521
C59	C	0.298285	0.000093	-0.031421
C60	C	0.798285	0.500093	0.468579
N61	N	0.321110	0.000090	-0.100894
N62	N	0.821110	0.500090	0.399106
C63	C	0.284534	0.000085	-0.169421
C64	C	0.784534	0.500085	0.330579
C65	C	-0.064061	0.000113	-0.025652
C66	C	0.435939	0.500113	0.474348
C67	C	-0.123462	0.000107	-0.024705
C68	C	0.376538	0.500107	0.475295
C69	C	-0.137213	0.000097	-0.162710
C70	C	0.362787	0.500097	0.337290
C71	C	-0.077811	0.000098	-0.163657
C72	C	0.422189	0.500098	0.336343
C73	C	-0.041236	0.000110	-0.095125
C74	C	0.458764	0.500110	0.404875
C75	C	0.409277	0.000070	-0.171401
C76	C	0.909277	0.500070	0.328599
C77	C	0.468682	0.000060	-0.172340
C78	C	0.968682	0.500060	0.327660
C79	C	0.482427	0.000074	-0.034335
C80	C	0.982427	0.500074	0.465665
C81	C	0.423028	0.000080	-0.033395
C82	C	0.923028	0.500080	0.466605
C83	C	0.386453	0.000081	-0.101935
C84	C	0.886453	0.500081	0.398065
O85	O	0.334897	0.000071	0.026738
O86	O	0.834897	0.500071	0.526738
O87	O	0.309412	0.000092	-0.228591
O88	O	0.809412	0.500092	0.271409
C89	C	0.776737	0.000103	-0.092214
C90	C	1.276737	0.500103	0.407786
C91	C	0.839957	0.000106	-0.093232
C92	C	1.339957	0.500106	0.406768
C93	C	0.676956	0.000097	0.039886
C94	C	1.176956	0.500097	0.539886
C95	C	0.675949	0.000097	0.123899
C96	C	1.175949	0.500097	0.623899
C97	C	0.711394	0.239028	-0.046787
C98	C	1.211394	0.739028	0.453213
C99	C	0.711397	0.325576	-0.046786
C100	C	1.211397	0.825576	0.453214
C101	C	0.672602	0.368848	-0.098514
C102	C	1.172602	0.868848	0.401486
C103	C	0.633798	0.325569	-0.150241
C104	C	1.133798	0.825569	0.349759
C105	C	0.633793	0.239023	-0.150238
C106	C	1.133793	0.739023	0.349762
C107	C	0.633818	0.674597	-0.150255
C108	C	1.133818	1.174597	0.349745
C109	C	0.633827	0.761149	-0.150256
C110	C	1.133827	1.261149	0.349744
C111	C	0.711422	0.761149	-0.046804
C112	C	1.211422	1.261149	0.453196
C113	C	0.711416	0.674604	-0.046800
C114	C	1.211416	1.174604	0.453200
C115	C	0.672611	0.631332	-0.098524
C116	C	1.172611	1.131332	0.401476
C117	C	0.672607	0.537488	-0.098524
C118	C	1.172607	1.037488	0.401476
C119	C	0.672608	0.462690	-0.098519
C120	C	1.172608	0.962690	0.401481
C121	C	0.668258	0.000079	-0.236931
C122	C	1.168258	0.500079	0.263069
C123	C	0.669265	0.000074	-0.320944
C124	C	1.169265	0.500074	0.179056
C125	C	0.727367	0.000106	0.172781
C126	C	1.227367	0.500106	0.672781
C127	C	0.726417	0.000099	0.251719
C128	C	1.226417	0.500099	0.751719
C129	C	0.674049	0.000089	0.281774
C130	C	1.174049	0.500089	0.781774
C131	C	0.622627	0.000077	0.232886
C132	C	1.122627	0.500077	0.732886
C133	C	0.623577	0.000079	0.153949
C134	C	1.123577	0.500079	0.653949
C135	C	0.618793	0.000070	0.551230
C136	C	1.118793	0.500070	1.051230
C137	C	0.617847	0.000071	0.630173
C138	C	1.117847	0.500071	1.130173
C139	C	0.721633	0.000090	0.649000
C140	C	1.221633	0.500090	1.149000
C141	C	0.722583	0.000092	0.570063
C142	C	1.222583	0.500092	1.070063
C143	C	0.671162	0.000076	0.521181
C144	C	1.171162	0.500076	1.021181
C145	C	0.672192	0.000082	0.435587
C146	C	1.172192	0.500082	0.935587
C147	C	0.673018	0.000088	0.367366
C148	C	1.173018	0.500088	0.867366
H149	H	0.487260	0.000050	-0.228920
H150	H	0.987260	0.500050	0.271080
H151	H	0.581708	0.000071	0.114149
H152	H	1.081708	0.500071	0.614149
N153	N	0.751049	0.805363	0.006042
N154	N	1.251049	1.305363	0.506042
N155	N	0.733049	0.853664	0.052903
N156	N	1.233049	1.353664	0.552903
H157	H	0.761035	0.884889	0.090224
H158	H	1.261035	1.384889	0.590224
H159	H	0.768287	0.000108	0.291516
H160	H	1.268287	0.500108	0.791516
N161	N	0.371931	0.000076	-0.241418
N162	N	0.871931	0.500076	0.258582
N163	N	0.392326	0.000067	-0.303436
N164	N	0.892326	0.500067	0.196564
H165	H	0.365951	0.000067	-0.352887
H166	H	0.865951	0.500067	0.147113
H167	H	0.602234	0.796379	-0.192381
H168	H	1.102234	1.296379	0.307619
N169	N	0.594174	0.630416	-0.203090
N170	N	1.094174	1.130416	0.296910
N171	N	0.559540	0.669065	-0.249270
N172	N	1.059540	1.169065	0.250730
H173	H	0.531539	0.637861	-0.286587
H174	H	1.031539	1.137861	0.213413
N175	N	0.564350	0.000037	0.660873
N176	N	1.064350	0.500037	1.160873
N177	N	0.552253	-0.057925	0.702815
N178	N	1.052253	0.442075	1.202815
H179	H	0.514473	-0.057950	0.724497
H180	H	1.014473	0.442050	1.224497
N181	N	0.253425	0.000149	0.109012
N182	N	0.753425	0.500149	0.609012
N183	N	0.233035	0.000163	0.171034
N184	N	0.733035	0.500163	0.671034
H185	H	0.259414	0.000178	0.220481
H186	H	0.759414	0.500178	0.720481
H187	H	0.763503	0.000098	0.688809
H188	H	1.263503	0.500098	1.188809
H189	H	-0.059234	0.000093	-0.220231
H190	H	0.440766	0.500093	0.279769
H191	H	0.576922	0.000058	0.511439
H192	H	1.076922	0.500058	1.011439
H193	H	-0.142038	0.000103	0.031871
H194	H	0.357962	0.500103	0.531871
N195	N	-0.174579	0.000121	-0.232713
N196	N	0.325421	0.500121	0.267287
N197	N	-0.172549	0.058081	-0.279009
N198	N	0.327451	0.558081	0.220991
H199	H	-0.198939	0.058100	-0.328446
H200	H	0.301061	0.558100	0.171554
N201	N	0.569138	0.000057	0.263596
N202	N	1.069138	0.500057	0.763596
N203	N	0.568296	0.000055	0.334076
N204	N	1.068296	0.500055	0.834076
H205	H	0.530518	0.000042	0.355765
H206	H	1.030518	0.500042	0.855765
H207	H	0.207132	0.000070	-0.293578
H208	H	0.707132	0.500070	0.206422
N209	N	0.751043	0.630387	0.006027
N210	N	1.251043	1.130387	0.506027
N211	N	0.786351	0.582079	-0.017752
N212	N	1.286351	1.082079	0.482248
H213	H	0.814337	0.550849	0.019558
H214	H	1.314337	1.050849	0.519558
H215	H	-0.034284	0.000115	0.030159
H216	H	0.465716	0.500115	0.530159
H217	H	0.765227	0.000104	0.545597
H218	H	1.265227	0.500104	1.045597
H219	H	0.404445	0.000077	0.023179
H220	H	0.904445	0.500077	0.523179
H221	H	0.602208	0.360806	-0.192357
H222	H	1.102208	0.860806	0.307643
N223	N	0.091810	0.000087	-0.306069
N224	N	0.591810	0.500087	0.193931
N225	N	0.112207	0.000080	-0.368086
N226	N	0.612207	0.500080	0.131914
H227	H	0.085833	0.000076	-0.417537
H228	H	0.585833	0.500076	0.082463
H229	H	0.138097	0.000138	0.096527
H230	H	0.638097	0.500138	0.596527
N231	N	0.780866	0.000128	0.142096
N232	N	1.280866	0.500128	0.642096
N233	N	0.826771	0.000136	0.185754
N234	N	1.326771	0.500136	0.685754
H235	H	0.864557	0.000151	0.164086
H236	H	1.364557	0.500151	0.664086
N237	N	0.519796	0.000102	0.035659
N238	N	1.019796	0.500102	0.535659
N239	N	0.517770	0.058073	0.081959
N240	N	1.017770	0.558073	0.581959
H241	H	0.544164	0.058101	0.131393
H242	H	1.044164	0.558101	0.631393
N243	N	0.750996	0.194844	0.006098
N244	N	1.250996	0.694844	0.506098
N245	N	0.785612	0.233495	0.052308
N246	N	1.285612	0.733495	0.552308
H247	H	0.813569	0.202292	0.089678
H248	H	1.313569	0.702292	0.589678
H249	H	0.602198	0.203791	-0.192356
H250	H	1.102198	0.703791	0.307644
N251	N	0.751032	0.369765	0.006057
N252	N	1.251032	0.869765	0.506057
N253	N	0.785668	0.331119	0.052237
N254	N	1.285668	0.831119	0.552237
H255	H	0.813662	0.362327	0.089562
H256	H	1.313662	0.862327	0.589562
