data_functionalizedCrystal
_audit_creation_method	'MofGen! by Chris Wilmer'
_symmetry_space_group_name_H-M	'P1'
_symmetry_Int_Tables_number	1
_symmetry_cell_setting	triclinic
loop_
_symmetry_equiv_pos_as_xyz
  x,y,z
_cell_length_a	12.759401
_cell_length_b	25.639240
_cell_length_c	12.759401
_cell_angle_alpha	90.022218
_cell_angle_beta	90.003120
_cell_angle_gamma	90.032919
loop_
_atom_site_label
_atom_site_type_symbol
_atom_site_fract_x
_atom_site_fract_y
_atom_site_fract_z
Zn1	Zn	1.605964	-0.208231	0.593888
Zn2	Zn	1.605850	-0.295644	0.418170
Zn3	Zn	1.430313	-0.208225	0.418228
Zn4	Zn	1.430199	-0.295638	0.593811
O5	O	1.518082	-0.251935	0.506024
O6	O	1.752970	-0.219832	0.570587
O7	O	1.582565	-0.284048	0.271156
O8	O	1.453709	-0.135061	0.441586
O9	O	1.752886	-0.284054	0.441487
O10	O	1.582759	-0.135065	0.570643
O11	O	1.453599	-0.219822	0.271199
O12	O	1.283277	-0.219815	0.441511
O13	O	1.453515	-0.284043	0.740842
O14	O	1.283193	-0.284037	0.570512
O15	O	1.582648	-0.219826	0.740899
O16	O	1.582454	-0.368809	0.441412
O17	O	1.453404	-0.368804	0.570455
C18	C	1.245114	-0.251925	0.506010
C19	C	1.128338	-0.251934	0.506029
C20	C	1.517933	-0.387777	0.505942
C21	C	1.517966	-0.445891	0.505942
C22	C	1.073460	-0.285427	0.573088
C23	C	0.963736	-0.285434	0.573099
C24	C	0.963777	-0.218452	0.438983
C25	C	1.073499	-0.218443	0.438978
C26	C	1.128298	-0.318918	0.640139
C27	C	1.073420	-0.352415	0.707203
C28	C	0.963696	-0.352422	0.707214
C29	C	0.908850	-0.318931	0.640162
C30	C	1.585311	-0.806218	0.573345
C31	C	1.585342	-0.860823	0.573367
O32	O	1.642425	-0.889029	0.630591
N33	N	1.518227	-0.888174	0.506126
C34	C	1.451070	-0.860918	0.438867
O35	O	1.393985	-0.889196	0.381675
C36	C	1.451034	-0.806314	0.438851
C37	C	1.518161	-0.778966	0.506089
C38	C	1.652432	-0.778870	0.640579
C39	C	1.652402	-0.724269	0.640556
C40	C	1.585252	-0.697017	0.573299
C41	C	1.518131	-0.724366	0.506066
C42	C	1.383872	-0.779059	0.371598
C43	C	1.383842	-0.724452	0.371589
C44	C	1.450968	-0.697104	0.438827
C45	C	1.450951	-0.642513	0.438787
N46	N	1.518066	-0.615162	0.506028
C47	C	1.585216	-0.642414	0.573284
C48	C	1.451148	-0.975588	0.438905
C49	C	1.451188	-1.030191	0.438914
C50	C	1.585460	-1.030092	0.573416
C51	C	1.585424	-0.975488	0.573401
C52	C	1.518263	-0.948237	0.506146
C53	C	1.585149	-0.527749	0.573230
C54	C	1.585116	-0.473143	0.573198
C55	C	1.450841	-0.473247	0.438701
C56	C	1.450877	-0.527848	0.438728
C57	C	1.518035	-0.555097	0.506002
O58	O	1.393894	-0.614272	0.381595
O59	O	1.642281	-0.614129	0.630475
C60	C	1.792115	-0.251945	0.506039
C61	C	1.908892	-0.251949	0.506045
C62	C	1.518082	-0.251934	0.780057
C63	C	1.518082	-0.251934	0.896834
C64	C	1.518259	-0.115562	0.506130
C65	C	1.518335	-0.057448	0.506175
C66	C	1.585316	-0.218504	0.951727
C67	C	1.585312	-0.218506	1.061451
C68	C	1.450835	-0.285373	1.061379
C69	C	1.450835	-0.285368	0.951657
C70	C	1.652562	-0.185070	0.896904
C71	C	1.719803	-0.151637	0.951798
C72	C	1.719799	-0.151639	1.061522
C73	C	1.652553	-0.185074	1.116352
C74	C	1.518075	-0.251945	1.233057
C75	C	1.518077	-0.251941	1.116280
H76	H	1.217641	-0.318917	0.640135
H77	H	0.919113	-0.191186	0.384392
Cl78	Cl	1.804318	-0.109598	0.882870
Cl79	Cl	1.142367	-0.394511	0.791498
H80	H	1.396460	-0.953403	0.384129
Cl81	Cl	1.669580	-0.561997	0.657800
H82	H	1.652543	-0.185067	1.205697
H83	H	1.118182	-0.191165	0.384380
Cl84	Cl	1.669512	-0.438766	0.657731
H85	H	1.396071	-0.312582	0.906962
H86	H	1.652576	-0.185065	0.807561
Cl87	Cl	1.366811	-1.064565	0.354369
Cl88	Cl	1.804331	-0.109611	1.130528
Cl89	Cl	1.669813	-0.941113	0.657934
H90	H	1.640135	-1.052290	0.628182
Cl91	Cl	1.736786	-0.689897	0.725097
H92	H	1.396087	-0.312594	1.106031
H93	H	0.819505	-0.318935	0.640185
Cl94	Cl	1.299474	-0.813427	0.287069
H95	H	1.707114	-0.801053	0.695353
Cl96	Cl	0.894709	-0.394527	0.791529
H97	H	1.329147	-0.702267	0.316823
H98	H	1.396226	-0.550116	0.383969
H99	H	1.396171	-0.451050	0.383938
