data_functionalizedCrystal
_audit_creation_method	'MofGen! by Chris Wilmer'
_symmetry_space_group_name_H-M	'P1'
_symmetry_Int_Tables_number	1
_symmetry_cell_setting	triclinic
loop_
_symmetry_equiv_pos_as_xyz
  x,y,z
_cell_length_a	18.050590
_cell_length_b	16.625546
_cell_length_c	16.625539
_cell_angle_alpha	89.969603
_cell_angle_beta	90.004910
_cell_angle_gamma	89.988365
loop_
_atom_site_label
_atom_site_type_symbol
_atom_site_fract_x
_atom_site_fract_y
_atom_site_fract_z
Zn1	Zn	1.135364	0.321233	0.455561
Zn2	Zn	1.468697	0.654567	0.788894
Zn3	Zn	1.802030	0.987900	1.122227
Zn4	Zn	1.135275	0.456077	0.320723
Zn5	Zn	1.468608	0.789410	0.654056
Zn6	Zn	1.801941	1.122743	0.987390
Zn7	Zn	1.011171	0.321236	0.320778
Zn8	Zn	1.344504	0.654569	0.654111
Zn9	Zn	1.677837	0.987903	0.987445
Zn10	Zn	1.011143	0.456002	0.455550
Zn11	Zn	1.344477	0.789336	0.788883
Zn12	Zn	1.677810	1.122669	1.122216
O13	O	1.073238	0.388637	0.388153
O14	O	1.406571	0.721970	0.721486
O15	O	1.739905	1.055304	1.054819
O16	O	1.239276	0.339151	0.437656
O17	O	1.572610	0.672484	0.770989
O18	O	1.905943	1.005817	1.104322
O19	O	1.118786	0.438222	0.207898
O20	O	1.452119	0.771555	0.541231
O21	O	1.785453	1.104889	0.874564
O22	O	1.027694	0.208403	0.338685
O23	O	1.361027	0.541737	0.672018
O24	O	1.694360	0.875070	1.005352
O25	O	1.239211	0.438219	0.338591
O26	O	1.572544	0.771553	0.671924
O27	O	1.905878	1.104886	1.005258
O28	O	1.118938	0.208401	0.437709
O29	O	1.452271	0.541735	0.771042
O30	O	1.785605	0.875068	1.104376
O31	O	1.027607	0.339155	0.207938
O32	O	1.360941	0.672489	0.541272
O33	O	1.694274	1.005822	0.874605
O34	O	0.907242	0.339083	0.338674
O35	O	1.240576	0.672416	0.672008
O36	O	1.573909	1.005750	1.005341
O37	O	1.027647	0.438093	0.568384
O38	O	1.360981	0.771426	0.901717
O39	O	1.694314	1.104759	1.235050
O40	O	0.907222	0.438095	0.437690
O41	O	1.240556	0.771429	0.771024
O42	O	1.573889	1.104762	1.104357
O43	O	1.118912	0.339079	0.568392
O44	O	1.452245	0.672412	0.901725
O45	O	1.785578	1.005745	1.235058
O46	O	1.118760	0.568899	0.338580
O47	O	1.452093	0.902232	0.671914
O48	O	1.785426	1.235566	1.005247
O49	O	1.027561	0.568844	0.437637
O50	O	1.360894	0.902178	0.770970
O51	O	1.694228	1.235511	1.104304
C52	C	1.073168	0.598128	0.388119
C53	C	1.406501	0.931461	0.721452
C54	C	1.739834	1.264795	1.054786
C55	C	1.073206	0.687749	0.388132
C56	C	1.406539	1.021082	0.721465
C57	C	1.739872	1.354416	1.054798
C58	C	0.880286	0.388582	0.388188
C59	C	1.213619	0.721915	0.721521
C60	C	1.546953	1.055249	1.054854
C61	C	0.797740	0.388578	0.388222
C62	C	1.131074	0.721911	0.721555
C63	C	1.464407	1.055245	1.054888
C64	C	1.073286	0.388577	0.598462
C65	C	1.406620	0.721910	0.931795
C66	C	1.739953	1.055244	1.265128
C67	C	1.073307	0.388551	0.688083
C68	C	1.406640	0.721885	1.021416
C69	C	1.739974	1.055218	1.354750
C70	C	0.598300	0.442575	0.441939
C71	C	0.931634	0.775908	0.775272
C72	C	1.264967	1.109241	1.108605
C73	C	0.548902	0.369053	0.461782
C74	C	0.882235	0.702387	0.795115
C75	C	1.215569	1.035720	1.128448
C76	C	0.646610	0.388623	0.388182
C77	C	0.979943	0.721956	0.721515
C78	C	1.313276	1.055290	1.054849
C79	C	0.548926	0.462186	0.368338
C80	C	0.882260	0.795520	0.701672
C81	C	1.215593	1.128853	1.035005
C82	C	0.500625	0.388673	0.388146
C83	C	0.833958	0.722006	0.721479
C84	C	1.167291	1.055340	1.054812
C85	C	0.598299	0.315062	0.408064
C86	C	0.931632	0.648396	0.741397
C87	C	1.264966	0.981729	1.074730
C88	C	0.598327	0.408245	0.314586
C89	C	0.931661	0.741578	0.647919
C90	C	1.264994	1.074912	0.981253
C91	C	0.548952	0.334673	0.334401
C92	C	0.882285	0.668006	0.667735
C93	C	1.215618	1.001339	1.001068
C94	C	0.730708	0.388595	0.388205
C95	C	1.064041	0.721929	0.721539
C96	C	1.397375	1.055262	1.054872
C97	C	0.416528	0.388692	0.388122
C98	C	0.749862	0.722026	0.721456
C99	C	1.083195	1.055359	1.054789
C100	C	1.266944	0.388693	0.388118
C101	C	1.600277	0.722026	0.721452
C102	C	1.933610	1.055360	1.054785
C103	C	1.349489	0.388717	0.388104
C104	C	1.682823	0.722050	0.721437
C105	C	2.016156	1.055383	1.054770
C106	C	1.073329	0.178328	0.388204
C107	C	1.406662	0.511662	0.721538
C108	C	1.739996	0.844995	1.054871
C109	C	1.073368	0.088707	0.388226
C110	C	1.406701	0.422040	0.721560
C111	C	1.740034	0.755374	1.054893
C112	C	1.073335	1.015925	0.388216
C113	C	1.406669	1.349258	0.721549
C114	C	1.740002	1.682591	1.054882
C115	C	1.073297	0.924616	0.388194
C116	C	1.406630	1.257950	0.721528
C117	C	1.739963	1.591283	1.054861
C118	C	1.073270	0.851840	0.388173
C119	C	1.406603	1.185173	0.721506
C120	C	1.739937	1.518506	1.054840
C121	C	1.073233	0.760525	0.388153
C122	C	1.406566	1.093859	0.721486
C123	C	1.739899	1.427192	1.054820
C124	C	1.073233	0.388639	0.178662
C125	C	1.406566	0.721972	0.511995
C126	C	1.739899	1.055305	0.845329
C127	C	1.073356	0.388437	0.089041
C128	C	1.406689	0.721771	0.422375
C129	C	1.740023	1.055104	0.755708
C130	C	1.073341	0.388461	1.016259
C131	C	1.406675	0.721794	1.349592
C132	C	1.740008	1.055128	1.682925
C133	C	1.073330	0.388489	0.924950
C134	C	1.406663	0.721822	1.258284
C135	C	1.739996	1.055156	1.591617
C136	C	1.073324	0.388507	0.852174
C137	C	1.406658	0.721840	1.185507
C138	C	1.739991	1.055174	1.518840
C139	C	1.073312	0.388533	0.760859
C140	C	1.406645	0.721867	1.094193
C141	C	1.739979	1.055200	1.427526
H142	H	0.619970	0.488120	0.487450
H143	H	0.953304	0.821454	0.820783
H144	H	1.286637	1.154787	1.154116
H145	H	0.527192	0.352473	0.524005
H146	H	0.860525	0.685806	0.857338
H147	H	1.193859	1.019140	1.190672
Br148	Br	0.634289	0.211375	0.436130
Br149	Br	0.967622	0.544708	0.769463
Br150	Br	1.300956	0.878042	1.102797
Br151	Br	0.634512	0.435899	0.210887
Br152	Br	0.967845	0.769232	0.544221
Br153	Br	1.301178	1.102566	0.877554
H154	H	0.527420	0.289016	0.288926
H155	H	0.860754	0.622349	0.622259
H156	H	1.194087	0.955683	0.955592
Br157	Br	0.512775	0.565840	0.340388
Br158	Br	0.846108	0.899173	0.673722
Br159	Br	1.179442	1.232506	1.007055
