data_functionalizedCrystal
_audit_creation_method	'MofGen! by Chris Wilmer'
_symmetry_space_group_name_H-M	'P1'
_symmetry_Int_Tables_number	1
_symmetry_cell_setting	triclinic
loop_
_symmetry_equiv_pos_as_xyz
  x,y,z
_cell_length_a	16.625548
_cell_length_b	12.594516
_cell_length_c	12.594509
_cell_angle_alpha	90.025520
_cell_angle_beta	90.021290
_cell_angle_gamma	90.019240
loop_
_atom_site_label
_atom_site_type_symbol
_atom_site_fract_x
_atom_site_fract_y
_atom_site_fract_z
Zn1	Zn	1.232710	-0.423696	0.601859
Zn2	Zn	1.732710	0.076304	1.101859
Zn3	Zn	1.232622	-0.601701	0.423884
Zn4	Zn	1.732622	-0.101701	0.923884
Zn5	Zn	1.097870	-0.423741	0.423889
Zn6	Zn	1.597870	0.076259	0.923889
Zn7	Zn	1.097853	-0.601636	0.601815
Zn8	Zn	1.597853	-0.101636	1.101815
O9	O	1.165264	-0.512694	0.512862
O10	O	1.665264	-0.012694	1.012862
O11	O	1.345531	-0.447317	0.578267
O12	O	1.845531	0.052683	1.078267
O13	O	1.214717	-0.578141	0.274939
O14	O	1.714717	-0.078141	0.774939
O15	O	1.115802	-0.274789	0.447518
O16	O	1.615802	0.225211	0.947518
O17	O	1.345466	-0.578097	0.447509
O18	O	1.845466	-0.078097	0.947509
O19	O	1.214868	-0.274756	0.578272
O20	O	1.714868	0.225244	1.078272
O21	O	1.115716	-0.447393	0.274943
O22	O	1.615716	0.052607	0.774943
O23	O	0.985036	-0.447330	0.447475
O24	O	1.485036	0.052670	0.947475
O25	O	1.115771	-0.577986	0.750767
O26	O	1.615771	-0.077986	1.250767
O27	O	0.985023	-0.578029	0.578197
O28	O	1.485023	-0.078029	1.078197
O29	O	1.214851	-0.447254	0.750799
O30	O	1.714851	0.052746	1.250799
O31	O	1.214700	-0.750639	0.447467
O32	O	1.714700	-0.250639	0.947467
O33	O	1.115686	-0.750591	0.578192
O34	O	1.615686	-0.250591	1.078192
C35	C	0.955773	-0.512678	0.512832
C36	C	1.455773	-0.012678	1.012832
C37	C	0.866152	-0.512697	0.512845
C38	C	1.366152	-0.012697	1.012845
C39	C	1.165203	-0.789235	0.512847
C40	C	1.665203	-0.289235	1.012847
C41	C	1.165251	-0.907540	0.512877
C42	C	1.665251	-0.407540	1.012877
C43	C	0.537976	-0.512704	0.512890
C44	C	1.037976	-0.012704	1.012890
C45	C	0.629285	-0.512700	0.512874
C46	C	1.129285	-0.012700	1.012874
C47	C	0.702061	-0.512702	0.512867
C48	C	1.202061	-0.012702	1.012867
C49	C	0.793375	-0.512695	0.512852
C50	C	1.293375	-0.012695	1.012852
C51	C	1.111441	-1.047569	0.583942
C52	C	1.611441	-0.547569	1.083942
C53	C	1.184949	-0.976657	0.610056
C54	C	1.684949	-0.476657	1.110056
C55	C	1.091750	-0.976881	0.486810
C56	C	1.591750	-0.476881	0.986810
C57	C	1.238930	-1.047413	0.539081
C58	C	1.738930	-0.547413	1.039081
C59	C	1.145682	-1.047643	0.415790
C60	C	1.645682	-0.547643	0.915790
C61	C	1.219240	-0.976763	0.441867
C62	C	1.719240	-0.476763	0.941867
C63	C	1.375573	-0.512710	0.512893
C64	C	1.875573	-0.012710	1.012893
C65	C	1.465194	-0.512716	0.512906
C66	C	1.965194	-0.012716	1.012906
C67	C	1.165319	-0.512608	0.790483
C68	C	1.665319	-0.012608	1.290483
C69	C	1.165342	-0.512571	0.908789
C70	C	1.665342	-0.012571	1.408789
C71	C	1.165347	-0.235073	0.512900
C72	C	1.665347	0.264927	1.012900
C73	C	1.165382	-0.116767	0.512916
C74	C	1.665382	0.383233	1.012916
C75	C	1.165255	-0.512702	0.236321
C76	C	1.665255	-0.012702	0.736321
C77	C	1.165388	-0.512439	0.118016
C78	C	1.665388	-0.012439	0.618016
C79	C	1.111487	-0.583587	1.048788
C80	C	1.611487	-0.083587	1.548788
C81	C	1.091776	-0.486523	0.977984
C82	C	1.591776	0.013477	1.477984
C83	C	1.185017	-0.609626	0.978021
C84	C	1.685017	-0.109626	1.478021
C85	C	1.145640	-0.415322	1.048771
C86	C	1.645640	0.084678	1.548771
C87	C	1.238914	-0.538491	1.048813
C88	C	1.738914	-0.038491	1.548813
C89	C	1.219232	-0.441359	0.978042
C90	C	1.719232	0.058641	1.478042
H91	H	1.065937	-1.078656	0.644069
H92	H	1.565937	-0.578656	1.144069
O93	O	1.125747	-1.085006	0.317933
O94	O	1.625747	-0.585006	0.817933
C95	C	1.033459	-1.190428	0.214597
C96	C	1.533459	-0.690428	0.714597
C97	C	1.055967	-1.148205	0.325481
C98	C	1.555967	-0.648205	0.825481
H99	H	0.977030	-1.241515	0.220659
H100	H	1.477030	-0.741515	0.720659
H101	H	1.085089	-1.240235	0.181957
H102	H	1.585089	-0.740235	0.681957
H103	H	1.021566	-1.120717	0.159064
H104	H	1.521566	-0.620717	0.659064
H105	H	1.067846	-1.217851	0.381093
H106	H	1.567846	-0.717851	0.881093
H107	H	1.004323	-1.098367	0.358033
H108	H	1.504323	-0.598367	0.858033
H109	H	1.128948	-0.333164	1.079719
H110	H	1.628948	0.166836	1.579719
O111	O	1.204795	-0.939276	0.707944
O112	O	1.704795	-0.439276	1.207944
C113	C	1.227577	-0.785152	0.817343
C114	C	1.727577	-0.285152	1.317343
C115	C	1.205116	-0.827335	0.706427
C116	C	1.705116	-0.327335	1.206427
H117	H	1.227827	-0.694643	0.816159
H118	H	1.727827	-0.194643	1.316159
H119	H	1.289870	-0.815299	0.840189
H120	H	1.789870	-0.315299	1.340189
H121	H	1.181601	-0.814295	0.877821
H122	H	1.681601	-0.314295	1.377821
H123	H	1.251037	-0.798209	0.645875
H124	H	1.751037	-0.298209	1.145875
H125	H	1.142802	-0.797196	0.683670
H126	H	1.642802	-0.297196	1.183670
H127	H	1.264795	-0.381178	0.947175
H128	H	1.764795	0.118822	1.447175
O129	O	1.313179	-1.084085	0.565672
O130	O	1.813179	-0.584085	1.065672
C131	C	1.417996	-1.088781	0.697777
C132	C	1.917996	-0.588781	1.197777
C133	C	1.333914	-1.047157	0.667782
C134	C	1.833914	-0.547157	1.167782
H135	H	1.434780	-1.058960	0.780344
H136	H	1.934780	-0.558960	1.280344
H137	H	1.464002	-1.058978	0.637660
H138	H	1.964002	-0.558978	1.137660
H139	H	1.417428	-1.179295	0.697557
H140	H	1.917428	-0.679295	1.197557
H141	H	1.334403	-0.956646	0.668014
H142	H	1.834403	-0.456646	1.168014
H143	H	1.287944	-1.077041	0.727906
H144	H	1.787944	-0.577041	1.227906
O145	O	1.017593	-0.939789	0.460352
O146	O	1.517593	-0.439789	0.960352
C147	C	0.939027	-0.836432	0.337234
C148	C	1.439027	-0.336432	0.837234
C149	C	1.023058	-0.878342	0.367077
C150	C	1.523058	-0.378342	0.867077
H151	H	0.943414	-0.786762	0.261807
H152	H	1.443414	-0.286762	0.761807
H153	H	0.914704	-0.785284	0.404665
H154	H	1.414704	-0.285284	0.904665
H155	H	0.896738	-0.906299	0.323100
H156	H	1.396738	-0.406299	0.823100
H157	H	1.065407	-0.808541	0.381194
H158	H	1.565407	-0.308541	0.881194
H159	H	1.047314	-0.929522	0.299630
H160	H	1.547314	-0.429522	0.799630
O161	O	1.313032	-0.564873	1.086096
O162	O	1.813032	-0.064873	1.586096
C163	C	1.391228	-0.686784	1.191342
C164	C	1.891228	-0.186784	1.691342
C165	C	1.307244	-0.656995	1.149210
C166	C	1.807244	-0.156995	1.649210
H167	H	1.386580	-0.761280	1.242360
H168	H	1.886580	-0.261280	1.742360
H169	H	1.416041	-0.618659	1.241198
H170	H	1.916041	-0.118659	1.741198
H171	H	1.433255	-0.702504	1.121586
H172	H	1.933255	-0.202504	1.621586
H173	H	1.265156	-0.641293	1.218902
H174	H	1.765156	-0.141293	1.718902
H175	H	1.282497	-0.725137	1.099323
H176	H	1.782497	-0.225137	1.599323
H177	H	1.065889	-0.643623	1.079852
H178	H	1.565889	-0.143623	1.579852
H179	H	1.029577	-0.464538	0.946872
H180	H	1.529577	0.035462	1.446872
O181	O	1.273761	-0.939947	0.370311
O182	O	1.773761	-0.439947	0.870311
C183	C	1.412872	-0.934360	0.316959
C184	C	1.912872	-0.434360	0.816959
C185	C	1.351213	-0.976107	0.398078
C186	C	1.851213	-0.476107	0.898078
H187	H	1.475503	-0.963597	0.339367
H188	H	1.975503	-0.463597	0.839367
H189	H	1.412116	-0.843847	0.316974
H190	H	1.912116	-0.343847	0.816974
H191	H	1.396627	-0.964792	0.234428
H192	H	1.896627	-0.464792	0.734428
H193	H	1.367416	-0.945753	0.480649
H194	H	1.867416	-0.445753	0.980649
H195	H	1.351981	-1.066619	0.397970
H196	H	1.851981	-0.566619	0.897970
H197	H	1.201639	-0.691761	0.946944
H198	H	1.701639	-0.191761	1.446944
