data_functionalizedCrystal
_audit_creation_method	'MofGen! by Chris Wilmer'
_symmetry_space_group_name_H-M	'P1'
_symmetry_Int_Tables_number	1
_symmetry_cell_setting	triclinic
loop_
_symmetry_equiv_pos_as_xyz
  x,y,z
_cell_length_a	19.805407
_cell_length_b	25.639239
_cell_length_c	19.805399
_cell_angle_alpha	89.971274
_cell_angle_beta	89.980427
_cell_angle_gamma	90.038686
loop_
_atom_site_label
_atom_site_type_symbol
_atom_site_fract_x
_atom_site_fract_y
_atom_site_fract_z
Zn1	Zn	1.034678	-0.208163	-0.382714
Zn2	Zn	1.534678	0.291837	0.117286
Zn3	Zn	1.034569	-0.295597	-0.269524
Zn4	Zn	1.534569	0.204403	0.230476
Zn5	Zn	0.921493	-0.208177	-0.269539
Zn6	Zn	1.421493	0.291823	0.230461
Zn7	Zn	0.921432	-0.295569	-0.382670
Zn8	Zn	1.421432	0.204431	0.117330
O9	O	0.978043	-0.251877	-0.326112
O10	O	1.478043	0.248123	0.173888
O11	O	1.129380	-0.219767	-0.367711
O12	O	1.629380	0.280233	0.132289
O13	O	1.019548	-0.284018	-0.174809
O14	O	1.519548	0.215982	0.325191
O15	O	0.936578	-0.135010	-0.284576
O16	O	1.436578	0.364990	0.215424
O17	O	1.129300	-0.284004	-0.284551
O18	O	1.629300	0.215996	0.215449
O19	O	1.019735	-0.135000	-0.367726
O20	O	1.519735	0.365000	0.132274
O21	O	0.936472	-0.219791	-0.174820
O22	O	1.436472	0.280209	0.325180
O23	O	0.826768	-0.219764	-0.284534
O24	O	1.326768	0.280236	0.215466
O25	O	0.936475	-0.283957	-0.477393
O26	O	1.436475	0.216043	0.022607
O27	O	0.826723	-0.283971	-0.367651
O28	O	1.326723	0.216029	0.132349
O29	O	1.019676	-0.219740	-0.477425
O30	O	1.519676	0.280260	0.022575
O31	O	1.019489	-0.368758	-0.284508
O32	O	1.519489	0.131242	0.215492
O33	O	0.936368	-0.368738	-0.367637
O34	O	1.436368	0.131262	0.132363
C35	C	0.802187	-0.251867	-0.326090
C36	C	1.302187	0.248133	0.173910
C37	C	0.726955	-0.251875	-0.326097
C38	C	1.226955	0.248125	0.173903
C39	C	0.691605	-0.285357	-0.369306
C40	C	1.191605	0.214643	0.130694
C41	C	0.620917	-0.285358	-0.369315
C42	C	1.120917	0.214642	0.130685
C43	C	0.585579	-0.251879	-0.326112
C44	C	1.085579	0.248121	0.173888
C45	C	0.620934	-0.218393	-0.282901
C46	C	1.120934	0.281607	0.217099
C47	C	0.691621	-0.218390	-0.282895
C48	C	1.191621	0.281610	0.217105
C49	C	0.335860	-0.218404	-0.282923
C50	C	0.835860	0.281596	0.217077
C51	C	0.265168	-0.218411	-0.282931
C52	C	0.765168	0.281589	0.217069
C53	C	0.265156	-0.285373	-0.369343
C54	C	0.765156	0.214627	0.130657
C55	C	0.335843	-0.285370	-0.369338
C56	C	0.835843	0.214630	0.130662
C57	C	0.371192	-0.251882	-0.326129
C58	C	0.871192	0.248118	0.173871
C59	C	0.447840	-0.251881	-0.326121
C60	C	0.947840	0.248119	0.173879
C61	C	0.508932	-0.251883	-0.326117
C62	C	1.008932	0.248117	0.173883
C63	C	0.977929	-0.387719	-0.326081
C64	C	1.477929	0.112281	0.173919
C65	C	0.977942	-0.445833	-0.326090
C66	C	1.477942	0.054167	0.173910
C67	C	1.021437	-0.806194	-0.282901
C68	C	1.521437	-0.306194	0.217099
C69	C	1.021463	-0.860799	-0.282910
C70	C	1.521463	-0.360799	0.217090
O71	O	1.058326	-0.889034	-0.246154
O72	O	1.558326	-0.389034	0.253846
N73	N	0.978162	-0.888116	-0.326157
N74	N	1.478162	-0.388116	0.173843
C75	C	0.934836	-0.860825	-0.369402
C76	C	1.434836	-0.360825	0.130598
O77	O	0.898008	-0.889075	-0.406189
O78	O	1.398008	-0.389075	0.093811
C79	C	0.934814	-0.806222	-0.369396
C80	C	1.434814	-0.306222	0.130604
C81	C	0.978113	-0.778908	-0.326141
C82	C	1.478113	-0.278908	0.173859
C83	C	1.064733	-0.778880	-0.239650
C84	C	1.564733	-0.278880	0.260350
C85	C	1.064706	-0.724279	-0.239640
C86	C	1.564706	-0.224279	0.260360
C87	C	1.021382	-0.696993	-0.282881
C88	C	1.521382	-0.196993	0.217119
C89	C	0.978086	-0.724307	-0.326132
C90	C	1.478086	-0.224307	0.173868
C91	C	0.891492	-0.778933	-0.412645
C92	C	1.391492	-0.278933	0.087355
C93	C	0.891474	-0.724326	-0.412635
C94	C	1.391474	-0.224326	0.087365
C95	C	0.934773	-0.697012	-0.369381
C96	C	1.434773	-0.197012	0.130619
C97	C	0.934735	-0.642421	-0.369363
C98	C	1.434735	-0.142421	0.130637
N99	N	0.978036	-0.615104	-0.326116
N100	N	1.478036	-0.115104	0.173884
C101	C	1.021360	-0.642390	-0.282875
C102	C	1.521360	-0.142390	0.217125
C103	C	0.934887	-0.975496	-0.369413
C104	C	1.434887	-0.475496	0.130587
C105	C	0.934906	-1.030098	-0.369416
C106	C	1.434906	-0.530098	0.130584
C107	C	1.021533	-1.030068	-0.282924
C108	C	1.521533	-0.530068	0.217076
C109	C	1.021511	-0.975464	-0.282918
C110	C	1.521511	-0.475464	0.217082
C111	C	0.978188	-0.948179	-0.326166
C112	C	1.478188	-0.448179	0.173834
C113	C	1.021299	-0.527725	-0.282857
C114	C	1.521299	-0.027725	0.217143
C115	C	1.021266	-0.473119	-0.282849
C116	C	1.521266	0.026881	0.217151
C117	C	0.934641	-0.473155	-0.369343
C118	C	1.434641	0.026845	0.130657
C119	C	0.934671	-0.527756	-0.369349
C120	C	1.434671	-0.027756	0.130651
C121	C	0.978006	-0.555039	-0.326104
C122	C	1.478006	-0.055039	0.173896
O123	O	0.897893	-0.614151	-0.406101
O124	O	1.397893	-0.114151	0.093899
O125	O	1.058188	-0.614134	-0.246101
O126	O	1.558188	-0.114134	0.253899
C127	C	1.154585	-0.251887	-0.326134
C128	C	1.654585	0.248113	0.173866
C129	C	1.229817	-0.251891	-0.326144
C130	C	1.729817	0.248109	0.173856
C131	C	0.978081	-0.251844	-0.502655
C132	C	1.478081	0.248156	-0.002655
C133	C	0.978097	-0.251830	-0.577887
C134	C	1.478097	0.248170	-0.077887
C135	C	0.978175	-0.115504	-0.326158
C136	C	1.478175	0.384496	0.173842
C137	C	0.978232	-0.057389	-0.326177
C138	C	1.478232	0.442611	0.173823
C139	C	1.021421	-0.218390	-0.613249
C140	C	1.521421	0.281610	-0.113249
C141	C	1.021428	-0.218375	-0.683937
C142	C	1.521428	0.281625	-0.183937
C143	C	0.978114	-0.251802	-0.719262
C144	C	1.478114	0.248198	-0.219262
C145	C	0.934785	-0.285243	-0.683895
C146	C	1.434785	0.214757	-0.183895
C147	C	0.934775	-0.285255	-0.613208
C148	C	1.434775	0.214745	-0.113208
C149	C	0.934823	-0.285194	-0.968969
C150	C	1.434823	0.214806	-0.468969
C151	C	0.934838	-0.285181	-1.039661
C152	C	1.434838	0.214819	-0.539661
C153	C	1.021476	-0.218314	-1.039698
C154	C	1.521476	0.281686	-0.539698
C155	C	1.021466	-0.218326	-0.969011
C156	C	1.521466	0.281674	-0.469011
C157	C	0.978135	-0.251765	-0.933650
C158	C	1.478135	0.248235	-0.433650
C159	C	0.978127	-0.251780	-0.857001
C160	C	1.478127	0.248220	-0.357001
C161	C	0.978125	-0.251790	-0.795909
C162	C	1.478125	0.248210	-0.295909
C163	C	0.978044	-0.251872	-0.150256
C164	C	1.478044	0.248128	0.349744
C165	C	0.978159	-0.251738	-0.075024
C166	C	1.478159	0.248262	0.424976
H167	H	0.236399	-0.191145	-0.247749
H168	H	0.736399	0.308855	0.252251
H169	H	1.099966	-0.702043	-0.204421
H170	H	1.599966	-0.202043	0.295579
O171	O	0.725991	-0.185810	-0.241016
O172	O	1.225991	0.314190	0.258984
C173	C	0.766934	-0.152086	-0.279626
C174	C	1.266934	0.347914	0.220374
H175	H	0.745658	-0.148912	-0.332944
H176	H	1.245658	0.351088	0.167056
H177	H	0.767756	-0.111824	-0.255240
H178	H	1.267756	0.388176	0.244760
H179	H	0.820495	-0.168250	-0.281914
H180	H	1.320495	0.331750	0.218086
O181	O	0.892693	-0.317668	-1.073872
O182	O	1.392693	0.182332	-0.573872
C183	C	0.854456	-0.347194	-1.027505
C184	C	1.354456	0.152806	-0.527505
H185	H	0.852124	-0.325788	-0.977123
H186	H	1.352124	0.174212	-0.477123
H187	H	0.801126	-0.352759	-1.047921
H188	H	1.301126	0.147241	-0.547921
H189	H	0.879196	-0.386907	-1.019978
H190	H	1.379196	0.113093	-0.519978
H191	H	0.899489	-0.312480	-0.584417
H192	H	1.399489	0.187520	-0.084417
H193	H	1.056812	-1.052294	-0.247717
H194	H	1.556812	-0.552294	0.252283
O195	O	0.586682	-0.185896	-0.240840
O196	O	1.086682	0.314104	0.259160
C197	C	0.603904	-0.197260	-0.173351
C198	C	1.103904	0.302740	0.326649
H199	H	0.655212	-0.217353	-0.171895
H200	H	1.155212	0.282647	0.328105
H201	H	0.606337	-0.159494	-0.143090
H202	H	1.106337	0.340506	0.356910
H203	H	0.564090	-0.224120	-0.150494
H204	H	1.064090	0.275880	0.349506
H205	H	1.056525	-0.450882	-0.247624
H206	H	1.556525	0.049118	0.252376
H207	H	0.899515	-0.312458	-0.712663
H208	H	1.399515	0.187542	-0.212663
H209	H	1.056708	-0.191146	-0.712726
H210	H	1.556708	0.308854	-0.212726
O211	O	0.370087	-0.185858	-0.240889
O212	O	0.870087	0.314142	0.259111
C213	C	0.323737	-0.156302	-0.202772
C214	C	0.823737	0.343698	0.297228
H215	H	0.273334	-0.177722	-0.200378
H216	H	0.773334	0.322278	0.299622
H217	H	0.344143	-0.150663	-0.149456
H218	H	0.844143	0.349337	0.350544
H219	H	0.316255	-0.116621	-0.227657
H220	H	0.816255	0.383379	0.272343
O221	O	1.063412	-0.554142	-0.240783
O222	O	1.563412	-0.054142	0.259217
C223	C	1.101627	-0.518316	-0.202623
C224	C	1.601627	-0.018316	0.297377
H225	H	1.073881	-0.479419	-0.200256
H226	H	1.573881	0.020581	0.299744
H227	H	1.108885	-0.534106	-0.149301
H228	H	1.608885	-0.034106	0.350699
H229	H	1.153016	-0.512454	-0.227454
H230	H	1.653016	-0.012454	0.272546
H231	H	1.100016	-0.801091	-0.204438
H232	H	1.600016	-0.301091	0.295562
O233	O	0.892501	-0.446724	-0.411374
O234	O	1.392501	0.053276	0.088626
C235	C	0.854303	-0.482537	-0.449572
C236	C	1.354303	0.017463	0.050428
H237	H	0.851977	-0.521475	-0.421853
H238	H	1.351977	-0.021475	0.078147
H239	H	0.800969	-0.466792	-0.456754
H240	H	1.300969	0.033208	0.043246
H241	H	0.879074	-0.488303	-0.500995
H242	H	1.379074	0.011697	-0.000995
H243	H	1.056769	-0.953228	-0.247697
H244	H	1.556769	-0.453228	0.252303
H245	H	0.899415	-0.549996	-0.404573
H246	H	1.399415	-0.049996	0.095427
O247	O	0.725959	-0.317935	-0.411178
O248	O	1.225959	0.182065	0.088822
C249	C	0.766817	-0.351657	-0.372564
C250	C	1.266817	0.148343	0.127436
H251	H	0.745491	-0.354835	-0.319249
H252	H	1.245491	0.145165	0.180751
H253	H	0.767596	-0.391918	-0.396952
H254	H	1.267596	0.108082	0.103048
H255	H	0.820402	-0.335487	-0.370267
H256	H	1.320402	0.164513	0.129733
H257	H	0.899641	-1.052333	-0.404632
H258	H	1.399641	-0.552333	0.095368
O259	O	0.849505	-0.805433	-0.454764
O260	O	1.349505	-0.305433	0.045236
C261	C	0.864253	-0.792026	-0.522229
C262	C	1.364253	-0.292026	-0.022229
H263	H	0.918320	-0.776977	-0.525682
H264	H	1.418320	-0.276977	-0.025682
H265	H	0.858417	-0.827918	-0.555679
H266	H	1.358417	-0.327918	-0.055679
H267	H	0.827949	-0.760344	-0.539879
H268	H	1.327949	-0.260344	-0.039879
H269	H	0.899603	-0.953283	-0.404628
H270	H	1.399603	-0.453283	0.095372
O271	O	1.063660	-0.185882	-1.074019
O272	O	1.563660	0.314118	-0.574019
C273	C	1.131105	-0.197309	-1.056743
C274	C	1.631105	0.302691	-0.556743
H275	H	1.134477	-0.239082	-1.037301
H276	H	1.634477	0.260918	-0.537301
H277	H	1.164555	-0.192797	-1.103238
H278	H	1.664555	0.307203	-0.603238
H279	H	1.148819	-0.169288	-1.015724
H280	H	1.648819	0.330712	-0.515724
O281	O	0.849485	-0.697797	-0.454718
O282	O	1.349485	-0.197797	0.045282
C283	C	0.887980	-0.666150	-0.498453
C284	C	1.387980	-0.166150	0.001547
H285	H	0.941295	-0.682560	-0.502683
H286	H	1.441295	-0.182560	-0.002683
H287	H	0.863472	-0.665527	-0.550521
H288	H	1.363472	-0.165527	-0.050521
H289	H	0.890302	-0.624776	-0.477522
H290	H	1.390302	-0.124776	0.022478
H291	H	0.592138	-0.312624	-0.404500
H292	H	1.092138	0.187376	0.095500
H293	H	0.236367	-0.312639	-0.404528
H294	H	0.736367	0.187361	0.095472
O295	O	1.063567	-0.185992	-0.578905
O296	O	1.563567	0.314008	-0.078905
C297	C	1.107239	-0.215765	-0.538000
C298	C	1.607239	0.284235	-0.038000
H299	H	1.111388	-0.256940	-0.559287
H300	H	1.611388	0.243060	-0.059287
H301	H	1.159344	-0.196855	-0.537214
H302	H	1.659344	0.303145	-0.037214
H303	H	1.086301	-0.217574	-0.484423
H304	H	1.586301	0.282426	0.015577
H305	H	1.056739	-0.191108	-0.940252
H306	H	1.556739	0.308892	-0.440252
O307	O	0.892761	-0.317630	-0.934521
O308	O	1.392761	0.182370	-0.434521
C309	C	0.902046	-0.310485	-0.864555
C310	C	1.402046	0.189515	-0.364555
H311	H	0.924248	-0.270138	-0.854915
H312	H	1.424248	0.229862	-0.354915
H313	H	0.851338	-0.314037	-0.837682
H314	H	1.351338	0.185963	-0.337682
H315	H	0.938058	-0.341503	-0.844491
H316	H	1.438058	0.158497	-0.344491
O317	O	0.370065	-0.317908	-0.411370
O318	O	0.870065	0.182092	0.088630
C319	C	0.323705	-0.347471	-0.449499
C320	C	0.823705	0.152529	0.050501
H321	H	0.273334	-0.326061	-0.451897
H322	H	0.773334	0.173939	0.048103
H323	H	0.344148	-0.353099	-0.502813
H324	H	0.844148	0.146901	-0.002813
H325	H	0.316147	-0.387156	-0.424622
H326	H	0.816147	0.112844	0.075378
