data_functionalizedCrystal
_audit_creation_method	'MofGen! by Chris Wilmer'
_symmetry_space_group_name_H-M	'P1'
_symmetry_Int_Tables_number	1
_symmetry_cell_setting	triclinic
loop_
_symmetry_equiv_pos_as_xyz
  x,y,z
_cell_length_a	11.169416
_cell_length_b	13.032951
_cell_length_c	11.169409
_cell_angle_alpha	82.803040
_cell_angle_beta	90.031365
_cell_angle_gamma	97.187149
loop_
_atom_site_label
_atom_site_type_symbol
_atom_site_fract_x
_atom_site_fract_y
_atom_site_fract_z
Zn1	Zn	-0.711164	-1.597819	0.911362
Zn2	Zn	-0.911891	-1.597723	0.710668
Zn3	Zn	-0.685698	-1.423044	0.685231
Zn4	Zn	-0.886269	-1.423051	0.885862
O5	O	-0.798756	-1.510409	0.798281
O6	O	-0.759171	-1.744050	0.906057
O7	O	-0.881951	-1.574508	0.539338
O8	O	-0.521132	-1.446265	0.715253
O9	O	-0.906644	-1.743980	0.758608
O10	O	-0.539842	-1.574672	0.881391
O11	O	-0.715769	-1.446173	0.520649
O12	O	-0.690924	-1.276801	0.690528
O13	O	-0.862976	-1.446278	1.057201
O14	O	-0.838283	-1.276806	0.837931
O15	O	-0.734327	-1.574678	1.075935
O16	O	-1.076436	-1.574515	0.733882
O17	O	-1.057612	-1.446185	0.862597
C18	C	-0.759061	-1.238884	0.758703
C19	C	-0.742108	-1.122724	0.741799
C20	C	-0.807577	-1.070967	0.807086
C21	C	-0.790057	-0.950909	0.789618
C22	C	-1.110574	-1.510369	0.798263
C23	C	-1.243986	-1.510447	0.798310
C24	C	-0.485723	-1.510478	0.798329
C25	C	-0.352328	-1.510508	0.798349
C26	C	-0.798634	-1.510489	1.111335
C27	C	-0.798582	-1.510524	1.244740
C28	C	-0.838593	-0.782995	0.838006
C29	C	-0.855535	-0.899155	0.854914
C30	C	-0.798799	-1.510389	0.486453
C31	C	-0.798542	-1.510558	0.353078
H32	H	-0.924554	-0.943720	0.923753
Br33	Br	-0.674997	-0.876638	0.674901
Br34	Br	-0.922625	-1.145242	0.921805
Br35	Br	-0.627053	-1.048448	0.627088
