data_functionalizedCrystal
_audit_creation_method	'MofGen! by Chris Wilmer'
_symmetry_space_group_name_H-M	'P1'
_symmetry_Int_Tables_number	1
_symmetry_cell_setting	triclinic
loop_
_symmetry_equiv_pos_as_xyz
  x,y,z
_cell_length_a	9.065218
_cell_length_b	13.339070
_cell_length_c	8.140239
_cell_angle_alpha	89.998768
_cell_angle_beta	89.997198
_cell_angle_gamma	100.322590
loop_
_atom_site_label
_atom_site_type_symbol
_atom_site_fract_x
_atom_site_fract_y
_atom_site_fract_z
O1	O	2.018452	0.148888	-0.136612
O2	O	1.593929	0.161101	-0.136613
O3	O	1.757469	0.007285	-0.136608
O4	O	1.854912	0.302704	-0.136617
O5	O	1.757456	0.007283	0.136619
O6	O	1.593916	0.161099	0.136614
O7	O	2.018439	0.148886	0.136615
Zn8	Zn	1.806175	0.154992	0.179995
Zn9	Zn	1.806193	0.154995	-0.179993
O10	O	1.854899	0.302703	0.136610
C11	C	1.538478	0.159926	-0.000000
C12	C	1.373267	0.156417	-0.000001
C13	C	1.741002	-0.030556	0.000003
C14	C	1.691939	-0.143308	-0.000004
C15	C	2.073430	-0.504605	-0.000001
C16	C	2.119533	-0.398670	0.000015
C17	C	2.012638	-0.334824	0.000010
C18	C	1.859634	-0.376924	-0.000010
C19	C	1.813527	-0.482870	-0.000013
C20	C	1.752734	-0.313089	-0.000002
C21	C	1.599730	-0.355188	-0.000022
C22	C	1.553631	-0.461124	-0.000026
C23	C	1.660525	-0.524969	-0.000021
C24	C	1.798841	-0.207143	0.000000
C25	C	1.538938	-0.185408	-0.000011
C26	C	1.492836	-0.291343	-0.000027
C27	C	2.073890	0.150061	-0.000001
C28	C	2.239101	0.153570	-0.000011
C29	C	1.871366	0.340544	-0.000005
C30	C	1.920429	0.453295	-0.000009
N31	N	1.806174	0.154990	0.425678
N32	N	1.806203	0.154989	-0.425676
H33	H	1.923418	-0.172877	0.000017
H34	H	2.244108	-0.364400	0.000033
C35	C	2.062469	-0.219790	-0.000230
C36	C	2.006900	-0.178807	-0.140783
C37	C	2.052760	-0.072836	-0.141051
H38	H	2.168874	-0.203717	-0.000301
H39	H	2.024837	-0.191774	0.094998
H40	H	2.044539	-0.206813	-0.235986
H41	H	1.900499	-0.194852	-0.140741
H42	H	2.015129	-0.044820	-0.045823
H43	H	2.159166	-0.056773	-0.141118
H44	H	2.015053	-0.045015	-0.236406
C45	C	1.387562	-0.506970	-0.000295
C46	C	1.353524	-0.567171	-0.140846
C47	C	1.200561	-0.609428	-0.141140
H48	H	1.330333	-0.453881	-0.000385
H49	H	1.364125	-0.547905	0.094935
H50	H	1.376946	-0.526238	-0.236050
H51	H	1.410715	-0.620276	-0.140785
H52	H	1.177124	-0.650364	-0.045911
H53	H	1.143345	-0.556333	-0.141226
H54	H	1.177449	-0.650286	-0.236494
C55	C	1.422801	-0.116149	0.000316
C56	C	1.333201	-0.135341	0.140903
C57	C	1.226224	-0.071545	0.141276
H58	H	1.361706	-0.128984	-0.094854
H59	H	1.472117	-0.047012	0.000403
H60	H	1.283887	-0.204463	0.140801
H61	H	1.394253	-0.122501	0.236096
H62	H	1.275541	-0.002408	0.141363
H63	H	1.165140	-0.084385	0.046100
H64	H	1.165427	-0.084551	0.236670
H65	H	2.160447	-0.556597	0.000017
H66	H	1.368256	-0.325636	-0.000042
H67	H	1.622996	-0.611232	-0.000040
