data_functionalizedCrystal
_audit_creation_method	'MofGen! by Chris Wilmer'
_symmetry_space_group_name_H-M	'P1'
_symmetry_Int_Tables_number	1
_symmetry_cell_setting	triclinic
loop_
_symmetry_equiv_pos_as_xyz
  x,y,z
_cell_length_a	10.654550
_cell_length_b	10.654551
_cell_length_c	11.892095
_cell_angle_alpha	93.929772
_cell_angle_beta	86.059705
_cell_angle_gamma	84.485132
loop_
_atom_site_label
_atom_site_type_symbol
_atom_site_fract_x
_atom_site_fract_y
_atom_site_fract_z
O1	O	1.675809	0.168432	-0.094089
O2	O	1.310329	0.185240	-0.094071
O3	O	1.501472	-0.005903	-0.094081
O4	O	1.484667	0.359575	-0.094079
O5	O	1.485535	0.010009	0.093927
O6	O	1.294392	0.201152	0.093938
O7	O	1.659872	0.184344	0.093919
Zn8	Zn	1.474602	0.195275	0.123779
Zn9	Zn	1.495600	0.174310	-0.123930
O10	O	1.468730	0.375488	0.093929
C11	C	1.255563	0.191962	-0.000064
C12	C	1.116119	0.188271	-0.000057
C13	C	1.492269	-0.044745	-0.000079
C14	C	1.488577	-0.184189	-0.000087
C15	C	1.036635	0.300811	-0.000073
C16	C	0.905616	0.297333	-0.000093
C17	C	0.933578	0.068764	-0.000085
C18	C	1.064593	0.072244	-0.000057
C19	C	1.088160	0.416838	-0.000073
C20	C	1.008675	0.529387	-0.000090
C21	C	0.877656	0.525909	-0.000109
C22	C	0.826122	0.409881	-0.000112
C23	C	1.495532	-0.258375	-0.102568
C24	C	1.492052	-0.389395	-0.102563
C25	C	1.474666	-0.372032	0.102414
C26	C	1.478137	-0.241013	0.102408
C27	C	1.505972	-0.201551	-0.205063
C28	C	1.512930	-0.275737	-0.307552
C29	C	1.509449	-0.406757	-0.307547
C30	C	1.499011	-0.463591	-0.205052
C31	C	1.714639	0.177622	-0.000090
C32	C	1.854084	0.181313	-0.000104
C33	C	1.477933	0.414329	-0.000075
C34	C	1.481625	0.553773	-0.000075
N35	N	1.460280	0.209582	0.292834
N36	N	1.509931	0.159992	-0.292985
C37	C	1.609586	0.060362	0.529473
C38	C	1.599585	0.070372	0.647816
C39	C	1.430271	0.239606	0.647863
C40	C	1.440272	0.229596	0.529521
C41	C	1.529934	0.139972	0.470330
C42	C	1.539941	0.129969	0.351985
C43	C	1.370622	0.299196	0.352035
C44	C	1.360620	0.309206	0.470377
H45	H	1.194841	0.419682	-0.000062
H46	H	1.050642	0.623853	-0.000078
C47	C	1.687204	-0.017210	0.712869
N48	N	1.753201	-0.083183	0.761868
C49	C	1.524410	-0.213218	-0.420290
N50	N	1.533060	-0.166130	-0.505207
H51	H	1.515101	-0.467155	-0.390999
H52	H	1.305767	0.364024	0.303867
H53	H	0.812941	0.617553	-0.000112
C54	C	1.331620	0.338154	0.712993
N55	N	1.257308	0.412373	0.762051
C56	C	1.261988	0.407778	0.535500
N57	N	1.187696	0.482024	0.584550
H58	H	1.496159	-0.570274	-0.205056
C59	C	1.463192	-0.434555	0.215151
N60	N	1.454555	-0.481648	0.300066
H61	H	1.472447	-0.180606	0.185857
H62	H	1.682600	-0.012605	0.481279
C63	C	1.509682	-0.057413	-0.205078
N64	N	1.512435	0.051158	-0.205088
C65	C	0.876885	-0.058858	-0.000099
N66	N	0.834184	-0.154986	-0.000114
C67	C	1.152031	-0.051556	-0.000046
N68	N	1.217890	-0.144806	-0.000035
C69	C	1.638566	0.031378	0.286877
N70	N	1.712850	-0.042887	0.237841
C71	C	0.681995	0.406062	-0.000129
N72	N	0.573440	0.403187	-0.000148
