data_functionalizedCrystal
_audit_creation_method	'MofGen! by Chris Wilmer'
_symmetry_space_group_name_H-M	'P1'
_symmetry_Int_Tables_number	1
_symmetry_cell_setting	triclinic
loop_
_symmetry_equiv_pos_as_xyz
  x,y,z
_cell_length_a	17.699077
_cell_length_b	14.519709
_cell_length_c	16.776229
_cell_angle_alpha	89.992406
_cell_angle_beta	89.993415
_cell_angle_gamma	83.480361
loop_
_atom_site_label
_atom_site_type_symbol
_atom_site_fract_x
_atom_site_fract_y
_atom_site_fract_z
O1	O	1.004415	0.116598	-0.066279
O2	O	0.784080	0.131777	-0.066283
O3	O	0.900089	-0.010076	-0.066274
O4	O	0.888405	0.258451	-0.066289
O5	O	0.900074	-0.010085	0.066302
O6	O	0.784064	0.131768	0.066293
O7	O	1.004400	0.116589	0.066297
Zn8	Zn	0.894229	0.124177	0.087345
Zn9	Zn	0.894250	0.124189	-0.087331
O10	O	0.888390	0.258442	0.066288
C11	C	0.755873	0.131230	0.000004
C12	C	0.671850	0.129601	0.000003
C13	C	0.632372	0.128829	0.072271
C14	C	0.553425	0.127283	0.072272
C15	C	0.513957	0.126517	0.000004
C16	C	0.553441	0.127287	-0.072270
C17	C	0.632387	0.128825	-0.072270
C18	C	0.235060	0.121080	-0.072271
C19	C	0.156108	0.119544	-0.072265
C20	C	0.156098	0.119539	0.072271
C21	C	0.235044	0.121077	0.072271
C22	C	0.274522	0.121842	-0.000002
C23	C	0.360125	0.123515	-0.000002
C24	C	0.428354	0.124850	0.000003
C25	C	0.899537	-0.044438	0.000014
C26	C	0.897905	-0.146812	0.000015
C27	C	0.891898	-0.521682	-0.000006
C28	C	0.893566	-0.417381	-0.000000
C29	C	0.894902	-0.334250	0.000005
C30	C	0.896570	-0.229943	0.000010
C31	C	1.032606	0.117137	0.000008
C32	C	1.116629	0.118766	0.000004
C33	C	0.888942	0.292804	-0.000002
C34	C	0.890574	0.395178	-0.000008
N35	N	0.894221	0.124169	0.206556
N36	N	0.894264	0.124190	-0.206542
C37	C	0.945606	0.061382	0.248277
C38	C	0.945610	0.061382	0.331729
C39	C	0.894233	0.124173	0.373459
C40	C	0.842842	0.186962	0.331732
C41	C	0.842835	0.186958	0.248281
C42	C	0.842870	0.186980	0.668279
C43	C	0.842882	0.186982	0.751735
C44	C	0.945645	0.061404	0.751727
C45	C	0.945638	0.061400	0.668276
C46	C	0.894245	0.124186	0.626557
C47	C	0.894240	0.124185	0.536068
C48	C	0.894240	0.124179	0.463945
H49	H	0.123946	0.118912	0.131120
H50	H	0.664529	0.129456	-0.131118
H51	H	0.123975	0.118920	-0.131118
O52	O	0.273280	0.121863	-0.142546
C53	C	0.221515	0.120835	-0.206328
H54	H	0.162144	0.148930	-0.185140
H55	H	0.239583	0.166032	-0.256880
H56	H	0.220959	0.046714	-0.228540
O57	O	0.793028	0.248104	0.627799
C58	C	0.805447	0.339376	0.648196
H59	H	0.866046	0.339727	0.671115
H60	H	0.796792	0.385679	0.593316
H61	H	0.763545	0.366526	0.696649
O62	O	0.792962	0.248082	0.372175
C63	C	0.805390	0.339357	0.351779
H64	H	0.834559	0.339195	0.291183
H65	H	0.748559	0.384859	0.348926
H66	H	0.843100	0.367826	0.398734
H67	H	0.521300	0.126656	-0.131112
H68	H	0.801042	0.238116	0.785710
O69	O	0.995503	0.000271	0.372165
C70	C	0.983080	-0.091009	0.351803
H71	H	0.953896	-0.090856	0.291222
H72	H	1.039915	-0.136502	0.348934
H73	H	0.945386	-0.119482	0.398786
O74	O	0.995396	0.000311	0.207675
C75	C	0.954758	-0.056536	0.159462
H76	H	0.895599	-0.019679	0.146949
H77	H	0.986323	-0.071238	0.100783
H78	H	0.949492	-0.124657	0.191668
H79	H	0.987476	0.010272	0.634303
O80	O	0.995491	0.000439	0.792379
C81	C	0.984495	0.013915	0.874983
H82	H	0.924370	0.048473	0.886391
H83	H	0.992830	-0.055940	0.906704
H84	H	1.027393	0.060106	0.898649
H85	H	0.267175	0.121706	0.131119
O86	O	0.670596	0.129529	0.142545
C87	C	0.618816	0.128536	0.206331
H88	H	0.565638	0.098257	0.185143
H89	H	0.646367	0.084219	0.256877
H90	H	0.602573	0.202328	0.228550
O91	O	0.515066	0.126362	0.142456
C92	C	0.477863	0.045636	0.146779
H93	H	0.507577	-0.009694	0.105764
H94	H	0.479816	0.018810	0.210698
H95	H	0.416115	0.062514	0.127373
O96	O	0.793025	0.247989	0.207662
C97	C	0.833625	0.304836	0.159386
H98	H	0.892798	0.268014	0.146877
H99	H	0.802049	0.319469	0.100708
H100	H	0.838857	0.372991	0.191534
