data_functionalizedCrystal
_audit_creation_method	'MofGen! by Chris Wilmer'
_symmetry_space_group_name_H-M	'P1'
_symmetry_Int_Tables_number	1
_symmetry_cell_setting	triclinic
loop_
_symmetry_equiv_pos_as_xyz
  x,y,z
_cell_length_a	12.759400
_cell_length_b	12.759401
_cell_length_c	12.759393
_cell_angle_alpha	90.020938
_cell_angle_beta	89.976116
_cell_angle_gamma	89.995030
loop_
_atom_site_label
_atom_site_type_symbol
_atom_site_fract_x
_atom_site_fract_y
_atom_site_fract_z
Zn1	Zn	-0.418173	-1.606349	-0.594068
Zn2	Zn	-0.593888	-1.606274	-0.418409
Zn3	Zn	-0.418229	-1.430647	-0.418404
Zn4	Zn	-0.593815	-1.430674	-0.594046
O5	O	-0.506026	-1.518486	-0.506232
O6	O	-0.441489	-1.753360	-0.570778
O7	O	-0.570641	-1.582935	-0.271387
O8	O	-0.271200	-1.453975	-0.441713
O9	O	-0.570586	-1.753305	-0.441722
O10	O	-0.271159	-1.583061	-0.570773
O11	O	-0.441584	-1.453902	-0.271383
O12	O	-0.441513	-1.283630	-0.441691
O13	O	-0.570461	-1.454019	-0.741070
O14	O	-0.570516	-1.283649	-0.570735
O15	O	-0.441418	-1.583087	-0.741087
O16	O	-0.740899	-1.582960	-0.441700
O17	O	-0.740846	-1.453947	-0.570740
C18	C	-0.506013	-1.245519	-0.506211
C19	C	-0.506033	-1.128742	-0.506227
C20	C	-0.231993	-1.518523	-0.506245
C21	C	-0.115216	-1.518539	-0.506251
C22	C	-0.778993	-1.518477	-0.506241
C23	C	-0.895770	-1.518569	-0.506281
C24	C	-0.505925	-1.518564	-0.780265
C25	C	-0.505882	-1.518598	-0.897042
C26	C	-0.060374	-1.451342	-0.439062
C27	C	0.049350	-1.451354	-0.439079
C28	C	0.049380	-1.585770	-0.573477
C29	C	-0.060342	-1.585752	-0.573465
C30	C	0.199299	-1.327463	-0.401546
C31	C	0.254145	-1.260274	-0.334340
C32	C	0.218504	-1.244111	-0.231820
C33	C	0.128019	-1.295151	-0.196485
C34	C	0.073179	-1.362347	-0.263685
C35	C	0.108818	-1.378491	-0.366219
C36	C	-0.210292	-1.709644	-0.610987
C37	C	-0.265135	-1.776846	-0.678182
C38	C	-0.229496	-1.793021	-0.780704
C39	C	-0.139008	-1.741999	-0.816035
C40	C	-0.084166	-1.674797	-0.748840
C41	C	-0.119812	-1.658621	-0.646319
C42	C	-0.506040	-1.792519	-0.506253
C43	C	-0.506046	-1.909296	-0.506262
C44	C	-0.573307	-1.073918	-0.573314
C45	C	-0.573311	-0.964194	-0.573335
C46	C	-0.438764	-0.964128	-0.439172
C47	C	-0.438756	-1.073850	-0.439157
C48	C	-0.611009	-0.814305	-0.697200
C49	C	-0.678299	-0.759477	-0.764278
C50	C	-0.780830	-0.795095	-0.780238
C51	C	-0.816092	-0.885539	-0.729104
C52	C	-0.748807	-0.940361	-0.662018
C53	C	-0.646262	-0.904745	-0.646078
C54	C	-0.401068	-1.223740	-0.315291
C55	C	-0.333788	-1.278565	-0.248199
C56	C	-0.231255	-1.242949	-0.232229
C57	C	-0.195998	-1.152501	-0.283344
C58	C	-0.263278	-1.097677	-0.350436
C59	C	-0.365809	-1.133300	-0.366408
C60	C	-0.438678	-1.585808	-0.951914
C61	C	-0.438633	-1.585826	-1.061638
C62	C	-0.573004	-1.451420	-1.061608
C63	C	-0.573044	-1.451398	-0.951886
C64	C	-0.314677	-1.623414	-1.211602
C65	C	-0.247482	-1.690641	-1.266478
C66	C	-0.231372	-1.793150	-1.230885
C67	C	-0.282471	-1.828454	-1.140417
C68	C	-0.349673	-1.761233	-1.085547
C69	C	-0.365764	-1.658709	-1.121139
C70	C	-0.697002	-1.413821	-0.801920
C71	C	-0.764210	-1.346604	-0.747048
C72	C	-0.780331	-1.244093	-0.782639
C73	C	-0.729250	-1.208793	-0.873110
C74	C	-0.662042	-1.276010	-0.927982
C75	C	-0.645919	-1.378520	-0.892384
C76	C	-0.506051	-1.518468	-0.233264
C77	C	-0.505798	-1.518638	-0.116488
H78	H	-0.105049	-1.396610	-0.384334
H79	H	-0.010483	-1.633255	-0.777615
H80	H	0.094070	-1.640495	-0.628200
H81	H	-0.000490	-1.403905	-0.234915
H82	H	0.263169	-1.189405	-0.177100
H83	H	-0.205877	-1.661887	-1.340137
H84	H	-0.383991	-0.919421	-0.384565
H85	H	0.228318	-1.340605	-0.485030
H86	H	-0.649579	-0.685838	-0.805912
H87	H	-0.112514	-1.123490	-0.270324
H88	H	-0.338812	-1.818395	-0.649404
H89	H	-0.274154	-1.847752	-0.835410
H90	H	-0.109987	-1.755174	-0.899516
H91	H	-0.239328	-1.696467	-0.527509
H92	H	0.327818	-1.218718	-0.363120
H93	H	0.099015	-1.281994	-0.112998
H94	H	-0.628086	-1.118607	-0.627929
H95	H	-0.176659	-1.847887	-1.275572
H96	H	-0.777517	-1.013999	-0.620385
H97	H	-0.362504	-1.352212	-0.206578
H98	H	-0.899587	-0.914525	-0.742095
H99	H	-0.484556	-1.252754	-0.328298
H100	H	-0.835618	-0.750446	-0.834856
H101	H	-0.683873	-1.497292	-0.772928
H102	H	-0.327780	-1.539940	-1.240586
H103	H	-0.835067	-1.189369	-0.737957
H104	H	-0.383988	-1.640524	-0.907263
H105	H	-0.527517	-0.785303	-0.684222
H106	H	-0.176480	-1.287592	-0.177588
H107	H	-0.269355	-1.911932	-1.111450
H108	H	-0.234559	-1.024035	-0.392064
H109	H	-0.391281	-1.789978	-1.011893
H110	H	-0.627687	-1.396710	-1.106276
H111	H	-0.620450	-1.247260	-1.001649
H112	H	-0.742381	-1.125321	-0.902092
H113	H	-0.805812	-1.375358	-0.673389
