data_functionalizedCrystal
_audit_creation_method	'MofGen! by Chris Wilmer'
_symmetry_space_group_name_H-M	'P1'
_symmetry_Int_Tables_number	1
_symmetry_cell_setting	triclinic
loop_
_symmetry_equiv_pos_as_xyz
  x,y,z
_cell_length_a	16.120490
_cell_length_b	11.169416
_cell_length_c	11.169409
_cell_angle_alpha	89.969126
_cell_angle_beta	87.080796
_cell_angle_gamma	87.103007
loop_
_atom_site_label
_atom_site_type_symbol
_atom_site_fract_x
_atom_site_fract_y
_atom_site_fract_z
Zn1	Zn	1.274675	-0.570970	-0.771562
Zn2	Zn	1.774675	-0.070970	-0.271562
Zn3	Zn	1.274598	-0.771705	-0.570878
Zn4	Zn	1.774598	-0.271705	-0.070878
Zn5	Zn	1.135247	-0.560839	-0.560723
Zn6	Zn	1.635247	-0.060839	-0.060723
Zn7	Zn	1.135252	-0.761409	-0.761355
Zn8	Zn	1.635252	-0.261409	-0.261355
O9	O	1.204943	-0.666231	-0.666129
O10	O	1.704943	-0.166231	-0.166129
O11	O	1.391333	-0.606147	-0.753462
O12	O	1.891333	-0.106147	-0.253462
O13	O	1.256079	-0.743803	-0.401579
O14	O	1.756079	-0.243803	0.098421
O15	O	1.153773	-0.394236	-0.588712
O16	O	1.653773	0.105764	-0.088712
O17	O	1.391277	-0.753626	-0.606020
O18	O	1.891277	-0.253626	-0.106020
O19	O	1.256210	-0.401679	-0.743615
O20	O	1.756210	0.098321	-0.243615
O21	O	1.153698	-0.588880	-0.394117
O22	O	1.653698	-0.088880	0.105883
O23	O	1.018580	-0.578897	-0.578816
O24	O	1.518580	-0.078897	-0.078816
O25	O	1.153781	-0.736078	-0.930662
O26	O	1.653781	-0.236078	-0.430662
O27	O	1.018584	-0.726255	-0.726220
O28	O	1.518584	-0.226255	-0.226220
O29	O	1.256215	-0.596164	-0.938160
O30	O	1.756215	-0.096164	-0.438160
O31	O	1.256084	-0.938287	-0.596124
O32	O	1.756084	-0.438287	-0.096124
O33	O	1.153707	-0.930723	-0.736067
O34	O	1.653707	-0.430723	-0.236067
C35	C	1.204910	-0.978053	-0.666118
C36	C	1.704910	-0.478053	-0.166118
C37	C	1.204972	-1.111458	-0.666159
C38	C	1.704972	-0.611458	-0.166159
C39	C	0.988331	-0.650360	-0.650309
C40	C	1.488331	-0.150360	-0.150309
C41	C	0.895663	-0.643599	-0.643569
C42	C	1.395663	-0.143599	-0.143569
C43	C	0.684734	-0.701292	-0.701091
C44	C	1.184734	-0.201292	-0.201091
C45	C	0.726004	-0.631266	-0.631263
C46	C	1.226004	-0.131266	-0.131263
C47	C	0.820411	-0.638130	-0.638112
C48	C	1.320411	-0.138130	-0.138112
C49	C	0.590318	-0.694429	-0.694243
C50	C	1.090318	-0.194429	-0.194243
C51	C	1.422401	-0.682165	-0.682012
C52	C	1.922401	-0.182165	-0.182012
C53	C	1.515069	-0.688955	-0.688781
C54	C	2.015069	-0.188955	-0.188781
C55	C	1.205007	-0.666103	-0.979177
C56	C	1.705007	-0.166103	-0.479177
C57	C	1.205035	-0.666048	-1.112579
C58	C	1.705035	-0.166048	-0.612579
C59	C	1.204999	-0.353193	-0.666169
C60	C	1.704999	0.146807	-0.166169
C61	C	1.205023	-0.219795	-0.666186
C62	C	1.705023	0.280205	-0.166186
C63	C	1.204927	-0.666276	-0.354303
C64	C	1.704927	-0.166276	0.145697
C65	C	1.205062	-0.666005	-0.220914
C66	C	1.705062	-0.166005	0.279086
H67	H	0.720301	-0.766393	-0.766011
H68	H	1.220301	-0.266393	-0.266011
H69	H	0.690434	-0.566161	-0.566337
H70	H	1.190434	-0.066161	-0.066337
