data_functionalizedCrystal
_audit_creation_method	'MofGen! by Chris Wilmer'
_symmetry_space_group_name_H-M	'P1'
_symmetry_Int_Tables_number	1
_symmetry_cell_setting	triclinic
loop_
_symmetry_equiv_pos_as_xyz
  x,y,z
_cell_length_a	10.654550
_cell_length_b	19.188930
_cell_length_c	9.130313
_cell_angle_alpha	89.993647
_cell_angle_beta	89.996220
_cell_angle_gamma	83.814841
loop_
_atom_site_label
_atom_site_type_symbol
_atom_site_fract_x
_atom_site_fract_y
_atom_site_fract_z
O1	O	1.665759	0.098059	-0.121938
O2	O	1.300083	0.107401	-0.121916
O3	O	1.493474	0.001143	-0.121899
O4	O	1.472368	0.204317	-0.121955
O5	O	1.493471	0.001146	0.121700
O6	O	1.300081	0.107404	0.121682
O7	O	1.665757	0.098062	0.121661
Cu8	Cu	1.482918	0.102733	0.143914
Cu9	Cu	1.482921	0.102730	-0.144170
O10	O	1.472366	0.204320	0.121644
C11	C	1.253298	0.106717	-0.000114
C12	C	1.113898	0.104664	-0.000104
C13	C	1.033089	0.167227	-0.000143
C14	C	0.902109	0.165295	-0.000168
C15	C	0.932761	0.038231	-0.000121
C16	C	1.063738	0.040164	-0.000086
C17	C	1.015391	0.240587	-0.000176
C18	C	0.884411	0.238654	-0.000201
C19	C	1.492789	-0.024871	-0.000096
C20	C	1.490737	-0.102389	-0.000083
C21	C	1.604213	-0.146570	-0.000083
C22	C	1.602285	-0.219407	-0.000106
C23	C	1.486876	-0.248058	-0.000100
C24	C	1.373386	-0.203867	-0.000109
C25	C	1.375316	-0.131032	-0.000100
N26	N	1.398658	-0.356639	0.082806
N27	N	1.396832	-0.425830	0.082801
C28	C	1.481052	-0.467505	-0.000129
N29	N	1.567186	-0.437377	-0.083037
N30	N	1.569016	-0.368180	-0.083025
C31	C	1.484770	-0.327034	-0.000110
C32	C	1.592445	-0.590665	-0.000157
C33	C	1.590513	-0.663502	-0.000189
C34	C	1.361610	-0.647960	-0.000177
C35	C	1.363545	-0.575125	-0.000159
C36	C	1.478966	-0.546481	-0.000142
C37	C	1.712541	0.098746	-0.000145
C38	C	1.851941	0.100798	-0.000164
C39	C	1.473051	0.230334	-0.000163
C40	C	1.475102	0.307852	-0.000186
N41	N	1.482926	0.102735	0.346537
N42	N	1.482924	0.102722	-0.346792
C43	C	1.568581	0.055700	0.423196
C44	C	1.568577	0.055692	0.576533
C45	C	1.397260	0.149759	0.576537
C46	C	1.397258	0.149764	0.423203
C47	C	1.667493	0.001393	0.423195
C48	C	1.667490	0.001385	0.576532
H49	H	1.044114	0.269279	0.101768
C50	C	1.062906	0.272147	-0.142253
C51	C	0.968676	0.297197	-0.264034
C52	C	1.016192	0.328755	-0.406112
C53	C	1.157939	0.335263	-0.426409
C54	C	1.252178	0.310213	-0.304624
C55	C	1.204661	0.278654	-0.162546
H56	H	0.863738	0.292380	-0.249012
H57	H	0.946429	0.347299	-0.496265
H58	H	1.193114	0.358625	-0.531584
H59	H	1.357115	0.315030	-0.319646
H60	H	1.274424	0.260110	-0.072393
H61	H	1.271141	-0.539151	-0.000151
H62	H	1.129530	-0.010781	-0.000034
H63	H	1.686428	-0.567342	-0.000149
C64	C	1.727115	-0.268019	-0.000091
C65	C	1.854070	-0.236513	-0.000069
C66	C	1.978899	-0.285122	-0.000049
C67	C	1.976772	-0.365237	-0.000050
C68	C	1.849811	-0.396747	-0.000072
C69	C	1.724983	-0.348138	-0.000092
H70	H	1.855649	-0.177203	-0.000068
H71	H	2.072883	-0.261796	-0.000033
H72	H	2.069177	-0.401221	-0.000035
H73	H	1.848232	-0.456057	-0.000073
H74	H	1.630998	-0.371464	-0.000109
C75	C	1.640051	-0.071098	0.366976
C76	C	1.728949	-0.136884	0.407720
C77	C	1.701505	-0.209372	0.351501
C78	C	1.585162	-0.216074	0.254538
C79	C	1.496256	-0.150286	0.213788
C80	C	1.523700	-0.077798	0.270007
H81	H	1.815080	-0.131925	0.479503
H82	H	1.767320	-0.258073	0.381667
H83	H	1.564847	-0.269734	0.212921
H84	H	1.410125	-0.155245	0.142005
H85	H	1.457885	-0.029097	0.239841
H86	H	1.327511	0.188049	0.638976
H87	H	1.279418	-0.227199	-0.000107
H88	H	1.282908	-0.095058	-0.000100
C89	C	1.790186	0.024365	0.358922
C90	C	1.917966	-0.017651	0.394305
C91	C	2.040657	0.005325	0.330033
C92	C	2.035568	0.070319	0.230379
C93	C	1.907784	0.112339	0.194991
C94	C	1.785093	0.089363	0.259262
H95	H	1.921737	-0.065767	0.468080
H96	H	2.135252	-0.025782	0.356231
H97	H	2.126392	0.087327	0.182801
H98	H	1.904012	0.160455	0.121216
H99	H	1.690498	0.120469	0.233065
C100	C	1.627751	-0.067131	0.640784
C101	C	1.719139	-0.113195	0.740417
C102	C	1.679410	-0.181712	0.804664
C103	C	1.548293	-0.204165	0.769277
C104	C	1.456897	-0.158100	0.669638
C105	C	1.496626	-0.089583	0.605392
H106	H	1.816207	-0.096574	0.766618
H107	H	1.747068	-0.215812	0.878423
H108	H	1.518883	-0.254885	0.816835
H109	H	1.359830	-0.174720	0.643438
H110	H	1.428968	-0.055483	0.531633
H111	H	0.838270	0.260826	0.104961
H112	H	0.842095	0.266294	-0.102162
H113	H	1.763748	0.013347	0.618139
H114	H	0.891904	-0.014283	-0.000129
H115	H	1.698197	-0.123254	-0.000074
H116	H	1.327501	0.188057	0.360788
H117	H	1.682922	-0.699475	-0.000197
H118	H	1.267641	-0.671287	-0.000180
