data_functionalizedCrystal
_audit_creation_method	'MofGen! by Chris Wilmer'
_symmetry_space_group_name_H-M	'P1'
_symmetry_Int_Tables_number	1
_symmetry_cell_setting	triclinic
loop_
_symmetry_equiv_pos_as_xyz
  x,y,z
_cell_length_a	19.188933
_cell_length_b	19.188930
_cell_length_c	13.930277
_cell_angle_alpha	89.990320
_cell_angle_beta	89.994201
_cell_angle_gamma	83.145175
loop_
_atom_site_label
_atom_site_type_symbol
_atom_site_fract_x
_atom_site_fract_y
_atom_site_fract_z
O1	O	0.926147	0.087173	-0.079810
O2	O	0.722836	0.098906	-0.079820
O3	O	0.830358	-0.008616	-0.079796
O4	O	0.818624	0.194696	-0.079834
O5	O	0.830343	-0.008618	0.079866
O6	O	0.722821	0.098904	0.079842
O7	O	0.926132	0.087171	0.079852
Zn8	Zn	0.824474	0.093037	0.105197
Zn9	Zn	0.824494	0.093040	-0.105165
O10	O	0.818609	0.194693	0.079828
C11	C	0.696817	0.098525	0.000010
C12	C	0.619313	0.097384	0.000007
C13	C	0.066065	0.089240	-0.087013
C14	C	0.138890	0.090308	-0.087017
C15	C	0.175299	0.090844	0.000014
C16	C	0.138880	0.090294	0.087056
C17	C	0.066058	0.089219	0.087057
N18	N	0.284313	0.132262	0.064788
N19	N	0.353490	0.133284	0.064781
C20	C	0.394707	0.094082	0.000015
N21	N	0.364132	0.053827	-0.064757
N22	N	0.294948	0.052807	-0.064753
C23	C	0.254262	0.092009	0.000022
C24	C	0.510083	0.095785	-0.087025
C25	C	0.582909	0.096849	-0.087025
C26	C	0.582896	0.096842	0.087050
C27	C	0.510072	0.095771	0.087048
C28	C	0.473669	0.095246	0.000008
C29	C	0.829971	-0.034628	0.000038
C30	C	0.828830	-0.112132	0.000046
C31	C	0.891921	-0.157056	0.000054
C32	C	0.890849	-0.229880	0.000038
C33	C	0.826683	-0.257777	0.000035
C34	C	0.763584	-0.212843	0.000021
C35	C	0.764658	-0.140021	0.000027
N36	N	0.777631	-0.365783	0.054368
N37	N	0.776615	-0.434961	0.054365
C38	C	0.823445	-0.477185	0.000015
N39	N	0.871339	-0.447619	-0.054319
N40	N	0.872357	-0.378434	-0.054311
C41	C	0.825512	-0.336739	0.000028
C42	C	0.885378	-0.601073	0.000005
C43	C	0.884304	-0.673898	-0.000017
C44	C	0.757037	-0.656860	-0.000024
C45	C	0.758113	-0.584037	-0.000013
C46	C	0.822286	-0.556148	0.000006
C47	C	0.952150	0.087553	0.000020
C48	C	1.029655	0.088694	0.000017
C49	C	0.818997	0.220705	-0.000008
C50	C	0.820137	0.298210	-0.000022
N51	N	0.824466	0.093035	0.248763
N52	N	0.824507	0.093037	-0.248731
C53	C	0.776881	0.140632	0.701021
C54	C	0.872126	0.045443	0.701012
C55	C	0.872117	0.045440	0.600517
C56	C	0.824491	0.093036	0.550269
C57	C	0.776872	0.140633	0.600516
C58	C	0.919739	-0.002151	0.550261
C59	C	0.919734	-0.002155	0.449759
C60	C	0.872103	0.045438	0.399510
C61	C	0.824482	0.093036	0.449764
C62	C	0.776856	0.140632	0.399516
C63	C	0.729231	0.188228	0.449768
C64	C	0.729242	0.188226	0.550267
C65	C	0.872092	0.045440	0.299011
C66	C	0.776847	0.140632	0.299011
H67	H	0.480426	0.095329	0.157917
O68	O	0.701236	-0.239906	-0.000152
C69	C	0.592128	-0.247584	-0.082852
C70	C	0.662721	-0.216904	-0.082780
H71	H	0.560963	-0.228987	-0.149640
H72	H	0.602156	-0.307352	-0.082914
H73	H	0.560981	-0.229087	-0.016007
H74	H	0.693904	-0.235347	-0.149614
H75	H	0.652643	-0.157139	-0.082668
O76	O	0.694662	-0.683869	0.000098
C77	C	0.585571	-0.691641	0.082830
C78	C	0.656180	-0.660990	0.082806
H79	H	0.554444	-0.673168	0.149702
H80	H	0.554362	-0.673091	0.016056
H81	H	0.595659	-0.751405	0.082777
H82	H	0.646156	-0.601226	0.082892
H83	H	0.687366	-0.679595	0.149574
H84	H	0.942227	-0.266463	0.000041
O85	O	0.954213	-0.129885	-0.000067
C86	C	1.029316	-0.057586	-0.082808
C87	C	0.958739	-0.088297	-0.082775
H88	H	1.033005	-0.023967	-0.149681
H89	H	1.033009	-0.023881	-0.016035
H90	H	1.074212	-0.102221	-0.082761
H91	H	0.913803	-0.043706	-0.082857
H92	H	0.955108	-0.122020	-0.149543
H93	H	0.690468	0.226977	0.591188
O94	O	0.474828	0.095242	-0.171657
C95	C	0.482518	0.095412	-0.344313
C96	C	0.522530	0.096009	-0.248538
H97	H	0.521065	0.096047	-0.406496
H98	H	0.454980	0.046051	-0.348727
H99	H	0.441872	0.143753	-0.348613
H100	H	0.563209	0.047702	-0.244173
H101	H	0.550020	0.145402	-0.244164
O102	O	0.730647	0.186960	0.749722
C103	C	0.689379	0.308466	0.780493
C104	C	0.741768	0.256077	0.725264
H105	H	0.698362	0.364358	0.760755
H106	H	0.633474	0.299560	0.760723
H107	H	0.697549	0.300257	0.860950
H108	H	0.733663	0.264255	0.644795
H109	H	0.797654	0.264997	0.745114
H110	H	0.910905	0.006695	0.741927
O111	O	0.965962	-0.048482	0.598973
C112	C	1.007196	-0.169993	0.629802
C113	C	0.954827	-0.117595	0.574549
H114	H	0.998202	-0.225882	0.610092
H115	H	1.063108	-0.161102	0.610027
H116	H	0.999017	-0.161780	0.710256
H117	H	0.962942	-0.125777	0.494083
H118	H	0.898934	-0.126499	0.594404
H119	H	0.168529	0.090729	0.157917
O120	O	0.965828	-0.048548	0.400944
C121	C	0.980733	-0.144189	0.287872
C122	C	0.928500	-0.091591	0.343014
H123	H	0.950573	-0.179013	0.241038
H124	H	1.015611	-0.114365	0.240633
H125	H	1.014690	-0.178162	0.341185
H126	H	0.894496	-0.057605	0.289771
H127	H	0.893670	-0.121458	0.390267
H128	H	0.706738	-0.547459	-0.000013
H129	H	0.713280	-0.103444	0.000021
H130	H	0.612554	0.097288	-0.157899
O131	O	0.174222	0.090970	-0.171585
C132	C	0.188391	0.151783	-0.320376
C133	C	0.148336	0.151124	-0.224631
H134	H	0.167468	0.200404	-0.363300
H135	H	0.246693	0.152690	-0.305476
H136	H	0.180634	0.102705	-0.363265
H137	H	0.156036	0.200191	-0.181694
H138	H	0.090049	0.150179	-0.239599
H139	H	0.036431	0.088809	-0.157888
O140	O	0.947773	-0.574093	-0.000037
C141	C	1.073889	-0.598676	0.000008
C142	C	1.003277	-0.629322	0.000037
H143	H	1.118782	-0.643313	0.000088
H144	H	1.077621	-0.565023	-0.066823
H145	H	1.077534	-0.564995	0.066813
H146	H	0.999584	-0.663034	-0.066723
H147	H	0.999574	-0.662935	0.066912
H148	H	0.036412	0.088777	0.157930
H149	H	0.910871	0.006691	0.258100
O150	O	0.945576	-0.717567	-0.000183
C151	C	1.018219	-0.809682	-0.082875
C152	C	0.948809	-0.760256	-0.082816
H153	H	1.020849	-0.844218	-0.149666
H154	H	1.064291	-0.777269	-0.082922
H155	H	1.020881	-0.844183	-0.016033
H156	H	0.946079	-0.725744	-0.149647
H157	H	0.902769	-0.792710	-0.082719
H158	H	0.612540	0.097276	0.157913
O159	O	0.683064	0.234490	0.400847
C160	C	0.667908	0.329909	0.287400
C161	C	0.720265	0.277547	0.342730
H162	H	0.697964	0.364743	0.240415
H163	H	0.633136	0.299885	0.240295
H164	H	0.633856	0.363895	0.340591
H165	H	0.754364	0.243547	0.289609
H166	H	0.754989	0.307613	0.389851
H167	H	0.738061	0.179388	0.258105
