data_functionalizedCrystal
_audit_creation_method	'MofGen! by Chris Wilmer'
_symmetry_space_group_name_H-M	'P1'
_symmetry_Int_Tables_number	1
_symmetry_cell_setting	triclinic
loop_
_symmetry_equiv_pos_as_xyz
  x,y,z
_cell_length_a	9.616153
_cell_length_b	17.699083
_cell_length_c	17.699083
_cell_angle_alpha	96.716985
_cell_angle_beta	90.003155
_cell_angle_gamma	89.999170
loop_
_atom_site_label
_atom_site_type_symbol
_atom_site_fract_x
_atom_site_fract_y
_atom_site_fract_z
O1	O	0.115453	-1.004079	0.095708
O2	O	0.115499	-0.783700	0.108161
O3	O	0.115463	-0.900116	-0.008255
O4	O	0.115490	-0.887663	0.212124
O5	O	-0.115829	-0.900100	-0.008252
O6	O	-0.115792	-0.783684	0.108163
O7	O	-0.115838	-1.004063	0.095711
Zn8	Zn	-0.152538	-0.893871	0.101937
Zn9	Zn	0.152199	-0.893892	0.101934
O10	O	-0.115801	-0.887647	0.212126
C11	C	-0.000141	-0.755495	0.107716
C12	C	-0.000123	-0.671477	0.106377
N13	N	-0.360512	-0.893862	0.101939
C14	C	-0.000183	-0.899662	-0.036451
C15	C	-0.000183	-0.898323	-0.120469
C16	C	-0.580862	-0.831402	0.164009
C17	C	-0.419695	-0.831535	0.164238
C18	C	-0.418976	-0.972805	0.119044
C19	C	-0.580193	-0.972464	0.119482
C20	C	-0.580429	-0.878170	0.022555
C21	C	-0.419202	-0.876348	0.023090
N22	N	0.360173	-0.893907	0.101926
C23	C	-0.000195	-1.032268	0.096156
C24	C	-0.000203	-1.116286	0.097494
C25	C	-0.000115	-0.622856	0.174710
C26	C	-0.000134	-0.543913	0.173448
C27	C	-0.000150	-0.513592	0.103852
C28	C	-0.000162	-0.562219	0.035513
C29	C	-0.000154	-0.641161	0.036776
C30	C	-0.000197	-0.243856	0.030418
C31	C	-0.000201	-0.164908	0.029160
C32	C	-0.000177	-0.146608	0.167090
C33	C	-0.000169	-0.225550	0.168353
C34	C	-0.000188	-0.274170	0.100015
C35	C	-0.000171	-0.359769	0.101384
C36	C	-0.000157	-0.427995	0.102481
C37	C	-0.000199	-0.966656	-0.169090
C38	C	-0.000187	-0.965394	-0.248033
C39	C	-0.000168	-0.895798	-0.278354
C40	C	-0.000148	-0.827459	-0.229727
C41	C	-0.000150	-0.828722	-0.150785
C42	C	-0.000135	-0.822364	-0.548090
C43	C	-0.000137	-0.821106	-0.627038
C44	C	-0.000172	-0.959036	-0.645338
C45	C	-0.000175	-0.960299	-0.566396
C46	C	-0.000147	-0.891961	-0.517776
C47	C	-0.000158	-0.893330	-0.432177
C48	C	-0.000167	-0.894427	-0.363951
C49	C	-0.000153	-0.888102	0.240322
C50	C	-0.000143	-0.889440	0.324340
H51	H	-0.380169	-0.772851	0.154068
H52	H	-0.000187	-1.014680	-0.684934
H53	H	-0.380638	-1.020417	0.075024
O54	O	-0.000097	-0.655552	0.249779
H55	H	-0.000079	-0.718614	0.239180
O56	O	-0.000202	-1.039100	-0.300471
H57	H	-0.000176	-1.026532	-0.360459
O58	O	-0.000196	-1.035363	-0.533691
H59	H	0.094069	-1.039236	-0.498155
O60	O	-0.000245	-0.132205	-0.045910
H61	H	0.094005	-0.151747	-0.078753
O62	O	-0.365498	-0.991645	0.194844
H63	H	-0.297297	-0.944911	0.220451
H64	H	-0.619663	-0.772532	0.154007
H65	H	-0.621356	-0.841296	0.222581
H66	H	-0.000223	-1.023330	-0.144409
H67	H	-0.000126	-0.504328	0.229092
H68	H	-0.000168	-0.107012	0.222734
O69	O	-0.000172	-0.258256	0.243417
H70	H	-0.000189	-0.211183	0.290723
H71	H	-0.000214	-0.283434	-0.025228
O72	O	-0.000108	-0.746034	-0.659738
H73	H	-0.094387	-0.742149	-0.695260
O74	O	-0.368565	-0.844824	0.242259
H75	H	-0.458990	-0.851188	0.279972
O76	O	-0.000185	-0.529522	-0.039555
H77	H	-0.000176	-0.466461	-0.028955
O78	O	-0.629997	-0.990860	0.196149
H79	H	-0.538933	-0.999912	0.232564
H80	H	-0.000159	-0.680748	-0.018868
O81	O	-0.000141	-0.748660	-0.495653
H82	H	-0.000152	-0.700056	-0.530002
H83	H	-0.000124	-0.770792	-0.254420
O84	O	-0.631876	-1.035915	0.061863
H85	H	-0.541716	-1.066712	0.033814
H86	H	-0.618560	-0.923754	-0.023644
O87	O	-0.000148	-0.755021	-0.098338
H88	H	-0.000151	-0.706413	-0.132682
O89	O	-0.634336	-0.803577	0.000735
H90	H	-0.693005	-0.814076	-0.053486
H91	H	-0.380991	-0.818278	0.010106
O92	O	-0.365886	-0.932752	-0.040962
H93	H	-0.296419	-0.974337	-0.017492
