data_functionalizedCrystal
_audit_creation_method	'MofGen! by Chris Wilmer'
_symmetry_space_group_name_H-M	'P1'
_symmetry_Int_Tables_number	1
_symmetry_cell_setting	triclinic
loop_
_symmetry_equiv_pos_as_xyz
  x,y,z
_cell_length_a	25.639239
_cell_length_b	19.077367
_cell_length_c	19.076919
_cell_angle_alpha	94.478002
_cell_angle_beta	87.731593
_cell_angle_gamma	87.662623
loop_
_atom_site_label
_atom_site_type_symbol
_atom_site_fract_x
_atom_site_fract_y
_atom_site_fract_z
Zn1	Zn	-0.187102	-1.061613	0.355414
Zn2	Zn	0.312898	-0.561613	0.855414
Zn3	Zn	-0.270880	-1.066240	0.237531
Zn4	Zn	0.229120	-0.566240	0.737531
Zn5	Zn	-0.187115	-0.948468	0.242266
Zn6	Zn	0.312885	-0.448468	0.742266
Zn7	Zn	-0.278166	-0.943666	0.360095
Zn8	Zn	0.221834	-0.443666	0.860095
O9	O	-0.230816	-1.004997	0.298827
O10	O	0.269184	-0.504997	0.798827
O11	O	-0.195161	-1.160876	0.335836
O12	O	0.304839	-0.660876	0.835836
O13	O	-0.256725	-1.054563	0.139512
O14	O	0.243275	-0.554563	0.639512
O15	O	-0.113947	-0.963550	0.257298
O16	O	0.386053	-0.463550	0.757298
O17	O	-0.256712	-1.164275	0.249227
O18	O	0.243288	-0.664275	0.749227
O19	O	-0.113937	-1.046677	0.340428
O20	O	0.386063	-0.546677	0.840428
O21	O	-0.195183	-0.968037	0.142991
O22	O	0.304817	-0.468037	0.642991
O23	O	-0.202248	-0.849182	0.261837
O24	O	0.297752	-0.349182	0.761837
O25	O	-0.269131	-0.955366	0.458121
O26	O	0.230869	-0.455366	0.958121
O27	O	-0.269143	-0.845654	0.348406
O28	O	0.230857	-0.345654	0.848406
O29	O	-0.202226	-1.042021	0.454682
O30	O	0.297774	-0.542021	0.954682
O31	O	-0.345014	-1.049907	0.253766
O32	O	0.154986	-0.549907	0.753766
O33	O	-0.350367	-0.959853	0.343814
O34	O	0.149633	-0.459853	0.843814
C35	C	-0.236488	-0.821839	0.306143
C36	C	0.263512	-0.321839	0.806143
C37	C	-0.238927	-0.743483	0.309290
C38	C	0.261073	-0.243483	0.809290
C39	C	-0.205197	-0.708484	0.265771
C40	C	0.294803	-0.208484	0.765771
C41	C	-0.207493	-0.634860	0.268728
C42	C	0.292507	-0.134860	0.768728
C43	C	-0.243519	-0.596236	0.315208
C44	C	0.256481	-0.096236	0.815208
C45	C	-0.277253	-0.631240	0.358729
C46	C	0.222747	-0.131240	0.858729
C47	C	-0.274958	-0.704863	0.355768
C48	C	0.225042	-0.204863	0.855768
C49	C	-0.254123	-0.375853	0.328885
C50	C	0.245877	0.124147	0.828885
C51	C	-0.256414	-0.302225	0.331844
C52	C	0.243586	0.197775	0.831844
C53	C	-0.186655	-0.305850	0.241841
C54	C	0.313345	0.194150	0.741841
C55	C	-0.184362	-0.379474	0.238887
C56	C	0.315638	0.120526	0.738887
C57	C	-0.218098	-0.414472	0.282406
C58	C	0.281902	0.085528	0.782406
N59	N	-0.245866	-0.520980	0.318233
N60	N	0.254134	-0.020980	0.818233
N61	N	-0.215753	-0.489726	0.279377
N62	N	0.284247	0.010274	0.779377
C63	C	-0.366661	-1.004879	0.298799
C64	C	0.133339	-0.504879	0.798799
C65	C	-0.424775	-1.004893	0.298808
C66	C	0.075225	-0.504893	0.798808
C67	C	-0.782334	-1.052003	0.252011
C68	C	-0.282334	-0.552003	0.752011
C69	C	-0.836938	-1.052030	0.252019
C70	C	-0.336938	-0.552030	0.752019
O71	O	-0.862794	-1.091962	0.212200
O72	O	-0.362794	-0.591962	0.712200
N73	N	-0.867053	-1.005119	0.298868
N74	N	-0.367053	-0.505119	0.798868
C75	C	-0.842561	-0.958183	0.345717
C76	C	-0.342561	-0.458183	0.845717
O77	O	-0.873189	-0.918284	0.385567
O78	O	-0.373189	-0.418284	0.885567
C79	C	-0.787958	-0.958160	0.345712
C80	C	-0.287958	-0.458160	0.845712
C81	C	-0.757846	-1.005069	0.298855
C82	C	-0.257846	-0.505069	0.798855
C83	C	-0.752223	-1.098908	0.205158
C84	C	-0.252223	-0.598908	0.705158
C85	C	-0.697623	-1.098880	0.205149
C86	C	-0.197623	-0.598880	0.705149
C87	C	-0.673135	-1.051947	0.251993
C88	C	-0.173135	-0.551947	0.751993
C89	C	-0.703246	-1.005041	0.298845
C90	C	-0.203246	-0.505041	0.798845
C91	C	-0.763467	-0.911228	0.392563
C92	C	-0.263467	-0.411228	0.892563
C93	C	-0.708860	-0.911209	0.392554
C94	C	-0.208860	-0.411209	0.892554
C95	C	-0.678748	-0.958118	0.345697
C96	C	-0.178748	-0.458118	0.845697
C97	C	-0.624158	-0.958079	0.345680
C98	C	-0.124158	-0.458079	0.845680
N99	N	-0.594043	-1.004990	0.298831
N100	N	-0.094043	-0.504990	0.798831
C101	C	-0.618532	-1.051924	0.251987
C102	C	-0.118532	-0.551924	0.751987
C103	C	-0.957230	-0.958235	0.345726
C104	C	-0.457230	-0.458235	0.845726
C105	C	-1.011832	-0.958254	0.345728
C106	C	-0.511832	-0.458254	0.845728
C107	C	-1.006206	-1.052102	0.252031
C108	C	-0.506206	-0.552102	0.752031
C109	C	-0.951603	-1.052079	0.252026
C110	C	-0.451603	-0.552079	0.752026
C111	C	-0.927116	-1.005146	0.298877
C112	C	-0.427116	-0.505146	0.798877
C113	C	-0.503868	-1.051861	0.251971
C114	C	-0.003868	-0.551861	0.751971
C115	C	-0.449264	-1.051827	0.251965
C116	C	0.050736	-0.551827	0.751965
C117	C	-0.454895	-0.957982	0.345664
C118	C	0.045105	-0.457982	0.845664
C119	C	-0.509494	-0.958013	0.345669
C120	C	-0.009494	-0.458013	0.845669
C121	C	-0.533980	-1.004958	0.298820
C122	C	-0.033980	-0.504958	0.798820
O123	O	-0.598266	-0.918169	0.385481
O124	O	-0.098266	-0.418169	0.885481
O125	O	-0.587897	-1.091822	0.212150
O126	O	-0.087897	-0.591822	0.712150
C127	C	-0.094440	-1.005133	0.298869
C128	C	0.405560	-0.505133	0.798869
C129	C	-0.036325	-1.005191	0.298887
C130	C	0.463675	-0.505191	0.798887
C131	C	-0.236490	-0.997642	0.482695
C132	C	0.263510	-0.497642	0.982695
C133	C	-0.238907	-0.994508	0.561049
C134	C	0.261093	-0.494508	1.061049
C135	C	-0.225119	-0.188870	0.291475
C136	C	0.274881	0.311130	0.791475
C137	C	-0.222684	-0.267226	0.288324
C138	C	0.277316	0.232774	0.788324
C139	C	-0.225125	-1.012364	0.115672
C140	C	0.274875	-0.512364	0.615672
C141	C	-0.222556	-1.015634	0.037313
C142	C	0.277444	-0.515634	0.537313
C143	C	-0.205211	-1.038149	0.596070
C144	C	0.294789	-0.538149	1.096070
C145	C	-0.207481	-1.035196	0.669692
C146	C	0.292519	-0.535196	1.169692
C147	C	-0.243450	-0.988604	0.708292
C148	C	0.256550	-0.488604	1.208292
C149	C	-0.277148	-0.944957	0.673265
C150	C	0.222852	-0.444957	1.173265
C151	C	-0.274875	-0.947907	0.599645
C152	C	0.225125	-0.447907	1.099645
C153	C	-0.253981	-0.974938	0.928666
C154	C	0.246019	-0.474938	1.428666
C155	C	-0.256252	-0.971993	1.002291
C156	C	0.243748	-0.471993	1.502291
C157	C	-0.186585	-1.062231	0.998714
C158	C	0.313415	-0.562231	1.498714
C159	C	-0.184317	-1.065180	0.925092
C160	C	0.315683	-0.565180	1.425092
C161	C	-0.218013	-1.021531	0.890072
C162	C	0.281987	-0.521531	1.390072
N163	N	-0.245773	-0.985585	0.783545
N164	N	0.254227	-0.485585	1.283545
N165	N	-0.215688	-1.024547	0.814820
N166	N	0.284312	-0.524547	1.314820
H167	H	-0.281594	-0.404339	0.364320
H168	H	0.218406	0.095661	0.864320
N169	N	-0.147577	-1.112784	0.885676
N170	N	0.352423	-0.612784	1.385676
N171	N	-0.117495	-1.151750	0.916955
N172	N	0.382505	-0.651750	1.416955
H173	H	-0.091549	-1.185375	0.889118
H174	H	0.408451	-0.685375	1.389118
N175	N	-0.173062	-1.079768	0.705475
N176	N	0.326938	-0.579768	1.205475
N177	N	-0.141778	-1.053355	0.747553
N178	N	0.358222	-0.553355	1.247553
H179	H	-0.117467	-1.084835	0.772825
H180	H	0.382533	-0.584835	1.272825
N181	N	-0.932228	-0.910284	0.393589
N182	N	-0.432228	-0.410284	0.893589
N183	N	-0.959127	-0.868407	0.435412
N184	N	-0.459127	-0.368407	0.935412
H185	H	-0.941472	-0.834542	0.469217
H186	H	-0.441472	-0.334542	0.969217
N187	N	-0.292994	-0.924392	1.041719
N188	N	0.207006	-0.424392	1.541719
N189	N	-0.326820	-0.947499	1.081799
N190	N	0.173180	-0.447499	1.581799
H191	H	-0.352768	-0.913880	1.109642
H192	H	0.147232	-0.413880	1.609642
N193	N	-0.528865	-1.099817	0.204111
N194	N	-0.028865	-0.599817	0.704111
N195	N	-0.501965	-1.141688	0.162283
N196	N	-0.001965	-0.641688	0.662283
H197	H	-0.519619	-1.175554	0.128478
H198	H	-0.019619	-0.675554	0.628478
N199	N	-0.152172	-1.106811	1.034497
N200	N	0.347828	-0.606811	1.534497
N201	N	-0.154205	-1.104174	1.100229
N202	N	0.345795	-0.604174	1.600229
H203	H	-0.129899	-1.135659	1.125502
H204	H	0.370101	-0.635659	1.625502
H205	H	-0.281426	-0.939406	0.900161
H206	H	0.218574	-0.439406	1.400161
N207	N	-0.313878	-0.897352	0.712698
N208	N	0.186122	-0.397352	1.212698
N209	N	-0.298132	-0.850808	0.755576
N210	N	0.201868	-0.350808	1.255576
H211	H	-0.324072	-0.817186	0.783427
H212	H	0.175928	-0.317186	1.283427
N213	N	-0.794224	-0.863321	0.440429
N214	N	-0.294224	-0.363321	0.940429
N215	N	-0.842976	-0.863341	0.440442
N216	N	-0.342976	-0.363341	0.940442
H217	H	-0.864699	-0.829505	0.474251
H218	H	-0.364699	-0.329505	0.974251
N219	N	-0.309295	-0.903319	0.563880
N220	N	0.190705	-0.403319	1.063880
N221	N	-0.341407	-0.861719	0.598349
N222	N	0.158593	-0.361719	1.098349
H223	H	-0.365716	-0.830224	0.573092
H224	H	0.134284	-0.330224	1.073092
H225	H	-0.285750	-0.270779	0.369698
H226	H	0.214250	0.229221	0.869698
H227	H	-0.175857	-0.739927	0.227927
H228	H	0.324143	-0.239927	0.727927
N229	N	-0.666862	-1.146796	0.157292
N230	N	-0.166862	-0.646796	0.657292
N231	N	-0.635721	-1.190692	0.180322
N232	N	-0.135721	-0.690692	0.680322
H233	H	-0.613996	-1.224532	0.146519
H234	H	-0.113996	-0.724532	0.646519
H235	H	-0.306588	-0.599787	0.396571
H236	H	0.193412	-0.099787	0.896571
N237	N	-0.429866	-0.910041	0.393501
N238	N	0.070134	-0.410041	0.893501
N239	N	-0.381113	-0.910029	0.393481
N240	N	0.118887	-0.410029	0.893481
H241	H	-0.363435	-0.876173	0.427268
H242	H	0.136565	-0.376173	0.927268
H243	H	-0.180029	-0.606368	0.233285
H244	H	0.319971	-0.106368	0.733285
H245	H	-0.175923	-1.076092	0.564648
H246	H	0.324077	-0.576092	1.064648
H247	H	-0.534013	-0.919818	0.383826
H248	H	-0.034013	-0.419818	0.883826
N249	N	-0.147559	-0.418922	0.191411
N250	N	0.352441	0.081078	0.691411
N251	N	-0.099722	-0.410541	0.196532
N252	N	0.400278	0.089459	0.696532
H253	H	-0.073728	-0.438400	0.163002
H254	H	0.426272	0.061600	0.663002
N255	N	-0.152200	-0.270089	0.197397
N256	N	0.347800	0.229911	0.697397
N257	N	-0.154251	-0.204355	0.200045
N258	N	0.345749	0.295645	0.700045
H259	H	-0.129916	-0.179098	0.168653
H260	H	0.370084	0.320902	0.668653
H261	H	-0.424748	-1.090026	0.213805
H262	H	0.075252	-0.590026	0.713805
N263	N	-0.309421	-0.740605	0.400222
N264	N	0.190579	-0.240605	0.900222
N265	N	-0.341585	-0.706113	0.441718
N266	N	0.158415	-0.206113	0.941718
H267	H	-0.365928	-0.731355	0.473113
H268	H	0.134072	-0.231355	0.973113
N269	N	-0.777223	-1.146862	0.157303
N270	N	-0.277223	-0.646862	0.657303
N271	N	-0.750321	-1.188736	0.115480
N272	N	-0.250321	-0.688736	0.615480
H273	H	-0.767973	-1.222605	0.081676
H274	H	-0.267973	-0.722605	0.581676
H275	H	-1.036345	-0.920050	0.383878
H276	H	-0.536345	-0.420050	0.883878
N277	N	-0.920855	-1.099998	0.204157
N278	N	-0.420855	-0.599998	0.704157
N279	N	-0.942733	-1.141894	0.162334
N280	N	-0.442733	-0.641894	0.662334
H281	H	-0.921019	-1.175740	0.128525
H282	H	-0.421019	-0.675740	0.628525
H283	H	-1.026154	-1.090321	0.213891
H284	H	-0.526154	-0.590321	0.713891
H285	H	-0.688926	-0.872991	0.430708
H286	H	-0.188926	-0.372991	0.930708
