data_functionalizedCrystal
_audit_creation_method	'MofGen! by Chris Wilmer'
_symmetry_space_group_name_H-M	'P1'
_symmetry_Int_Tables_number	1
_symmetry_cell_setting	triclinic
loop_
_symmetry_equiv_pos_as_xyz
  x,y,z
_cell_length_a	10.654556
_cell_length_b	10.654550
_cell_length_c	9.130313
_cell_angle_alpha	89.996647
_cell_angle_beta	89.998135
_cell_angle_gamma	84.486220
loop_
_atom_site_label
_atom_site_type_symbol
_atom_site_fract_x
_atom_site_fract_y
_atom_site_fract_z
O1	O	1.667835	0.176437	-0.121740
O2	O	1.302357	0.193235	-0.121755
O3	O	1.493499	0.002097	-0.121742
O4	O	1.476693	0.367575	-0.121753
O5	O	1.493486	0.002091	0.121857
O6	O	1.302344	0.193229	0.121844
O7	O	1.667822	0.176431	0.121859
Cu8	Cu	1.485082	0.184830	0.144094
Cu9	Cu	1.485097	0.184836	-0.143990
O10	O	1.476680	0.367569	0.121846
C11	C	1.255553	0.191997	0.000043
C12	C	1.116110	0.188302	0.000037
C13	C	0.919572	0.183102	-0.132737
C14	C	1.050594	0.186566	-0.132746
C15	C	1.050598	0.186560	0.132839
C16	C	0.919580	0.183087	0.132846
C17	C	1.492259	-0.044704	0.000056
C18	C	1.488567	-0.184147	0.000051
C19	C	1.601108	-0.263631	0.000060
C20	C	1.597631	-0.394651	0.000049
C21	C	1.369062	-0.366693	0.000027
C22	C	1.372540	-0.235675	0.000027
C23	C	1.717134	-0.212103	0.000083
C24	C	1.829685	-0.291587	0.000094
C25	C	1.826208	-0.422608	0.000084
C26	C	1.710181	-0.474145	0.000063
C27	C	1.714626	0.177669	0.000058
C28	C	1.854069	0.181364	0.000054
C29	C	1.477920	0.414370	0.000045
C30	C	1.481612	0.553813	0.000041
N31	N	1.485080	0.184824	0.346717
N32	N	1.485109	0.184832	-0.346612
C33	C	1.569746	0.100224	0.423374
C34	C	1.569758	0.100225	0.576711
C35	C	1.400433	0.269436	0.576719
C36	C	1.400416	0.269428	0.423385
H37	H	0.866237	0.181698	-0.240865
H38	H	1.638700	0.031334	0.639122
H39	H	1.917852	-0.487322	0.000077
Br40	Br	1.285494	0.384241	0.319337
H41	H	1.638683	0.031333	0.360954
Br42	Br	1.139488	0.188915	-0.312971
Br43	Br	1.285540	0.384254	0.680774
Br44	Br	0.830675	0.180720	0.313076
H45	H	1.719978	-0.105421	0.000096
Br46	Br	1.987141	-0.221649	0.000096
Br47	Br	1.139512	0.188909	0.313048
H48	H	1.707359	-0.580832	0.000039
H49	H	1.274599	-0.408665	0.000012
Br50	Br	1.219804	-0.127796	0.000009
