data_functionalizedCrystal
_audit_creation_method	'MofGen! by Chris Wilmer'
_symmetry_space_group_name_H-M	'P1'
_symmetry_Int_Tables_number	1
_symmetry_cell_setting	triclinic
loop_
_symmetry_equiv_pos_as_xyz
  x,y,z
_cell_length_a	10.489741
_cell_length_b	14.044220
_cell_length_c	12.503572
_cell_angle_alpha	93.843168
_cell_angle_beta	86.448361
_cell_angle_gamma	88.864026
loop_
_atom_site_label
_atom_site_type_symbol
_atom_site_fract_x
_atom_site_fract_y
_atom_site_fract_z
O1	O	1.714360	0.128402	-0.089257
O2	O	1.344439	0.140964	-0.089274
O3	O	1.523846	-0.003339	-0.089255
O4	O	1.534953	0.272705	-0.089275
O5	O	1.510356	0.007531	0.089386
O6	O	1.330949	0.151834	0.089367
O7	O	1.700869	0.139273	0.089384
Cu8	Cu	1.514677	0.146546	0.105687
Cu9	Cu	1.530631	0.133690	-0.105576
O10	O	1.521462	0.283575	0.089365
C11	C	1.512240	-0.033251	0.000066
C12	C	1.497740	-0.138576	0.000066
C13	C	1.290066	0.145450	0.000045
C14	C	1.148150	0.142611	0.000038
C15	C	1.471233	-0.331419	0.000050
C16	C	1.574071	-0.388351	0.000051
C17	C	1.559322	-0.495655	0.000042
C18	C	1.485980	-0.224105	0.000059
C19	C	1.070696	0.050796	0.000055
C20	C	0.989620	0.088809	-0.088025
C21	C	0.976355	0.099548	0.088101
C22	C	1.068948	0.180657	-0.088114
C23	C	1.055686	0.191389	0.088090
C24	C	0.974646	0.229468	-0.000011
C25	C	1.755242	0.134786	0.000063
C26	C	1.897160	0.137625	0.000062
C27	C	1.533069	0.313487	0.000042
C28	C	1.547569	0.418812	0.000034
N29	N	1.503465	0.155587	0.254278
N30	N	1.541853	0.124641	-0.254168
C31	C	1.486973	0.168896	0.473391
C32	C	1.558341	0.111336	0.526726
C33	C	1.549164	0.118741	0.648648
C34	C	1.496148	0.161492	0.351458
H35	H	1.673195	-0.356507	-0.000016
O36	O	0.922657	0.054083	0.186750
H37	H	0.961320	-0.020074	0.186562
O38	O	1.122441	0.226032	-0.186891
H39	H	1.228127	0.227738	-0.186154
O40	O	1.094611	0.248805	0.186720
H41	H	1.057504	0.214989	0.259735
O42	O	1.339940	-0.373592	0.000060
H43	H	1.348813	-0.452477	0.000069
H44	H	1.112738	-0.024690	-0.000049
O45	O	1.648405	0.038693	0.465925
H46	H	1.747725	0.052658	0.487434
H47	H	0.960288	0.045428	-0.162486
O48	O	0.919339	0.329552	-0.000061
H49	H	0.956745	0.362973	-0.073243
H50	H	1.418987	0.223732	0.519292
