data_functionalizedCrystal
_audit_creation_method	'MofGen! by Chris Wilmer'
_symmetry_space_group_name_H-M	'P1'
_symmetry_Int_Tables_number	1
_symmetry_cell_setting	triclinic
loop_
_symmetry_equiv_pos_as_xyz
  x,y,z
_cell_length_a	19.805407
_cell_length_b	15.299816
_cell_length_c	19.805399
_cell_angle_alpha	80.341151
_cell_angle_beta	90.017803
_cell_angle_gamma	80.348074
loop_
_atom_site_label
_atom_site_type_symbol
_atom_site_fract_x
_atom_site_fract_y
_atom_site_fract_z
Zn1	Zn	1.081379	-0.359152	0.429382
Zn2	Zn	1.100882	-0.509978	0.335804
Zn3	Zn	0.968196	-0.359170	0.316213
Zn4	Zn	0.987738	-0.509923	0.448947
O5	O	1.034549	-0.434556	0.382586
O6	O	1.178685	-0.379175	0.416980
O7	O	1.083265	-0.490004	0.238492
O8	O	0.966870	-0.232955	0.314838
O9	O	1.193014	-0.489987	0.348228
O10	O	1.050025	-0.232942	0.397984
O11	O	0.985781	-0.379205	0.224099
O12	O	0.876070	-0.379152	0.333809
O13	O	1.000176	-0.489893	0.541064
O14	O	0.890427	-0.489910	0.431328
O15	O	1.068974	-0.379122	0.526690
O16	O	1.102214	-0.636183	0.367199
O17	O	1.019088	-0.636143	0.450325
C18	C	0.858689	-0.434528	0.382566
C19	C	0.783459	-0.434537	0.382577
C20	C	0.740667	-0.376940	0.418455
C21	C	0.669980	-0.376945	0.418458
C22	C	0.642085	-0.434552	0.382587
C23	C	0.684881	-0.492152	0.346704
C24	C	0.755567	-0.492142	0.346697
C25	C	0.399813	-0.492193	0.346730
C26	C	0.329122	-0.492200	0.346741
C27	C	0.314226	-0.376995	0.418491
C28	C	0.384911	-0.376985	0.418484
C29	C	0.427701	-0.434581	0.382599
C30	C	0.504349	-0.434574	0.382595
C31	C	0.565439	-0.434564	0.382594
C32	C	1.064906	-0.668889	0.413026
C33	C	1.077955	-0.769137	0.426070
C34	C	0.941731	-1.052047	0.289585
C35	C	0.929468	-0.957859	0.277330
C36	C	0.966589	-0.910674	0.314514
C37	C	1.015975	-0.957686	0.363955
C38	C	1.028236	-1.051884	0.376214
C39	C	1.053093	-0.910511	0.401143
C40	C	1.102479	-0.957523	0.450584
C41	C	1.114738	-1.051712	0.462841
C42	C	1.077617	-1.098897	0.425657
C43	C	1.040832	-0.816313	0.388884
C44	C	1.127336	-0.816150	0.475513
C45	C	1.139600	-0.910338	0.487767
C46	C	1.211095	-0.434585	0.382607
C47	C	1.286329	-0.434597	0.382616
C48	C	1.034580	-0.434499	0.559122
C49	C	1.034593	-0.434475	0.634351
C50	C	1.004092	-0.199308	0.352043
C51	C	0.991113	-0.099060	0.339028
C52	C	1.034549	-0.434547	0.206729
C53	C	1.034634	-0.434318	0.131468
C54	C	1.070416	-0.376794	0.662211
C55	C	1.070420	-0.376767	0.732896
C56	C	1.034603	-0.434428	0.775720
C57	C	0.998775	-0.492112	0.747855
C58	C	0.998768	-0.492133	0.677171
C59	C	0.998803	-0.492028	1.032918
C60	C	0.998814	-0.492004	1.103607
C61	C	1.070454	-0.376662	1.088643
C62	C	1.070447	-0.376683	1.017959
C63	C	1.034616	-0.434363	0.990099
C64	C	1.034612	-0.434390	0.913454
C65	C	1.034611	-0.434407	0.852365
H66	H	0.279377	-0.330094	0.447708
O67	O	1.105249	-0.320586	0.976454
C68	C	1.176338	-0.206209	0.969078
C69	C	1.136943	-0.269682	1.016157
H70	H	1.201985	-0.165049	1.001160
H71	H	1.139176	-0.158995	0.929868
H72	H	1.217061	-0.247647	0.941350
H73	H	1.096220	-0.228317	1.043931
H74	H	1.174147	-0.316898	1.055324
H75	H	1.099626	-0.329693	1.111334
H76	H	0.434645	-0.539092	0.317511
H77	H	0.662163	-0.539053	0.317493
O78	O	0.302132	-0.548188	0.311830
C79	C	0.324367	-0.662489	0.240686
C80	C	0.355022	-0.599117	0.280177
H81	H	0.367115	-0.703695	0.215096
H82	H	0.285905	-0.621061	0.199927
H83	H	0.297385	-0.709671	0.277846
H84	H	0.382039	-0.551922	0.243070
H85	H	0.393449	-0.640601	0.320945
H86	H	0.969646	-0.538960	1.138473
H87	H	1.099593	-0.329800	0.755577
O88	O	0.412054	-0.321154	0.453418
C89	C	0.490376	-0.309163	0.543223
C90	C	0.459683	-0.372499	0.503728
H91	H	0.528900	-0.350649	0.583897
H92	H	0.447680	-0.268011	0.568918
H93	H	0.517303	-0.261928	0.506051
H94	H	0.432761	-0.419789	0.540854
H95	H	0.502406	-0.413588	0.478023
H96	H	0.969639	-0.539008	1.010245
O97	O	0.881503	-0.912054	0.229352
C98	C	0.824304	-0.767020	0.172049
C99	C	0.878635	-0.818782	0.226419
H100	H	0.821977	-0.691600	0.169649
H101	H	0.772114	-0.785522	0.186297
H102	H	0.838634	-0.785626	0.119910
H103	H	0.864369	-0.800203	0.278577
H104	H	0.930810	-0.800275	0.212112
H105	H	1.099584	-0.329842	0.627348
H106	H	1.154949	-1.089987	0.503101
O107	O	0.964041	-0.548093	0.789553
C108	C	0.932267	-0.599144	0.905071
C109	C	0.971644	-0.535712	0.857931
H110	H	0.938388	-0.589142	0.960362
H111	H	0.953569	-0.671896	0.900669
H112	H	0.875645	-0.583307	0.889067
H113	H	1.028271	-0.551467	0.873903
H114	H	0.950286	-0.462978	0.862338
H115	H	1.179810	-0.948629	0.528023
H116	H	1.157562	-0.777733	0.505793
O117	O	0.963969	-0.548261	0.650222
C118	C	0.892895	-0.662650	0.672518
C119	C	0.932289	-0.599141	0.703127
H120	H	0.867259	-0.703789	0.715275
H121	H	0.930056	-0.709881	0.645583
H122	H	0.852164	-0.621241	0.634019
H123	H	0.973020	-0.640477	0.741653
H124	H	0.895085	-0.551908	0.730018
O125	O	0.905759	-1.098021	0.253509
C126	C	0.886284	-1.243209	0.234039
C127	C	0.927087	-1.191256	0.274935
H128	H	0.903502	-1.318598	0.251356
H129	H	0.895805	-1.224796	0.177059
H130	H	0.829296	-1.224684	0.243457
H131	H	0.984087	-1.209753	0.265574
H132	H	0.917508	-1.209673	0.331901
H133	H	0.790408	-0.539043	0.317481
O134	O	0.992787	-0.770610	0.340950
C135	C	0.887602	-0.664332	0.317928
C136	C	0.941956	-0.716049	0.372290
H137	H	0.846499	-0.620193	0.343243
H138	H	0.863123	-0.714195	0.293465
H139	H	0.912975	-0.620271	0.276815
H140	H	0.916635	-0.760111	0.413444
H141	H	0.966431	-0.666138	0.396699
O142	O	0.954805	-0.819180	0.302606
C143	C	1.002095	-0.683958	0.267629
C144	C	1.015537	-0.787578	0.281111
H145	H	1.051183	-0.658377	0.250234
H146	H	0.984729	-0.658302	0.316696
H147	H	0.960399	-0.658483	0.225928
H148	H	1.057244	-0.813130	0.322789
H149	H	1.032865	-0.813173	0.232012
H150	H	0.635142	-0.330045	0.447675
O151	O	0.767646	-0.320896	0.453314
C152	C	0.745406	-0.206665	0.524518
C153	C	0.714764	-0.270076	0.485055
H154	H	0.702668	-0.165574	0.550203
H155	H	0.772341	-0.159385	0.487391
H156	H	0.783908	-0.248147	0.565215
H157	H	0.676235	-0.228667	0.444358
H158	H	0.687872	-0.317359	0.522224
H159	H	1.087602	-1.175593	0.435630
