data_functionalizedCrystal
_audit_creation_method	'MofGen! by Chris Wilmer'
_symmetry_space_group_name_H-M	'P1'
_symmetry_Int_Tables_number	1
_symmetry_cell_setting	triclinic
loop_
_symmetry_equiv_pos_as_xyz
  x,y,z
_cell_length_a	13.032831
_cell_length_b	16.959454
_cell_length_c	13.033429
_cell_angle_alpha	82.784688
_cell_angle_beta	89.091437
_cell_angle_gamma	82.825094
loop_
_atom_site_label
_atom_site_type_symbol
_atom_site_fract_x
_atom_site_fract_y
_atom_site_fract_z
Zn1	Zn	1.498532	-0.383755	-0.780889
Zn2	Zn	1.998532	0.116245	-0.280889
Zn3	Zn	1.520249	-0.534570	-0.608902
Zn4	Zn	2.020249	-0.034570	-0.108902
Zn5	Zn	1.348372	-0.387969	-0.587118
Zn6	Zn	1.848372	0.112031	-0.087118
Zn7	Zn	1.326514	-0.501448	-0.759035
Zn8	Zn	1.826514	-0.001448	-0.259035
O9	O	1.423417	-0.451935	-0.683986
O10	O	1.923417	0.048065	-0.183986
O11	O	1.645334	-0.415859	-0.776336
O12	O	2.145334	0.084141	-0.276336
O13	O	1.515686	-0.530749	-0.462088
O14	O	2.015686	-0.030749	0.037912
O15	O	1.368349	-0.276802	-0.612852
O16	O	1.868349	0.223198	-0.112852
O17	O	1.661290	-0.526663	-0.649979
O18	O	2.161290	-0.026663	-0.149979
O19	O	1.478671	-0.273706	-0.755214
O20	O	1.978671	0.226294	-0.255214
O21	O	1.389408	-0.423042	-0.446083
O22	O	1.889408	0.076958	0.053917
O23	O	1.201550	-0.390924	-0.591661
O24	O	1.701550	0.109076	-0.091661
O25	O	1.331095	-0.470209	-0.905859
O26	O	1.831095	0.029791	-0.405859
O27	O	1.185491	-0.474296	-0.717968
O28	O	1.685491	0.025704	-0.217968
O29	O	1.457476	-0.383741	-0.921914
O30	O	1.957476	0.116259	-0.421914
O31	O	1.494491	-0.640785	-0.628788
O32	O	1.994491	-0.140785	-0.128788
O33	O	1.352154	-0.616449	-0.739090
O34	O	1.852154	-0.116449	-0.239090
C35	C	1.156203	-0.429474	-0.650080
C36	C	1.656203	0.070526	-0.150080
C37	C	1.041885	-0.419881	-0.635599
C38	C	1.541885	0.080119	-0.135599
C39	C	0.983013	-0.456942	-0.691544
C40	C	1.483013	0.043058	-0.191544
C41	C	0.864859	-0.447028	-0.676578
C42	C	1.364859	0.052972	-0.176578
C43	C	1.423333	-0.657296	-0.683958
C44	C	1.923333	-0.157296	-0.183958
C45	C	1.423386	-0.745155	-0.683992
C46	C	1.923386	-0.245155	-0.183992
C47	C	1.349398	-1.104001	-0.741425
C48	C	1.849398	-0.604001	-0.241425
C49	C	1.497708	-1.129279	-0.626688
C50	C	1.997708	-0.629279	-0.126688
C51	C	1.497674	-1.046731	-0.626674
C52	C	1.997674	-0.546731	-0.126674
C53	C	1.423499	-0.992814	-0.684035
C54	C	1.923499	-0.492814	-0.184035
C55	C	1.349359	-1.021445	-0.741411
C56	C	1.849359	-0.521445	-0.241411
C57	C	1.571806	-1.018094	-0.569291
C58	C	2.071806	-0.518094	-0.069291
C59	C	1.571773	-0.935542	-0.569274
C60	C	2.071773	-0.435542	-0.069274
C61	C	1.497602	-0.881623	-0.626642
C62	C	1.997602	-0.381623	-0.126642
C63	C	1.423460	-0.910259	-0.684020
C64	C	1.923460	-0.410259	-0.184020
C65	C	1.349285	-0.856342	-0.741382
C66	C	1.849285	-0.356342	-0.241382
C67	C	1.275147	-0.884975	-0.798767
C68	C	1.775147	-0.384975	-0.298767
C69	C	1.275188	-0.967527	-0.798779
C70	C	1.775188	-0.467527	-0.298779
C71	C	1.497561	-0.799072	-0.626630
C72	C	1.997561	-0.299072	-0.126630
C73	C	1.349247	-0.773786	-0.741367
C74	C	1.849247	-0.273786	-0.241367
C75	C	1.691673	-0.474485	-0.718025
C76	C	2.191673	0.025515	-0.218025
C77	C	1.805988	-0.484095	-0.732531
C78	C	2.305988	0.015905	-0.232531
C79	C	1.389425	-0.422810	-0.952248
C80	C	1.889425	0.077190	-0.452248
C81	C	1.374940	-0.410399	-1.066565
C82	C	1.874940	0.089601	-0.566565
C83	C	1.423526	-0.245773	-0.684041
C84	C	1.923526	0.254227	-0.184041
C85	C	1.423573	-0.157918	-0.684064
C86	C	1.923573	0.342082	-0.184064
C87	C	1.415998	-0.445341	-1.243600
C88	C	1.915998	0.054659	-0.743600
C89	C	1.430969	-0.458165	-1.125447
C90	C	1.930969	0.041835	-0.625447
C91	C	1.457335	-0.480895	-0.416775
C92	C	1.957335	0.019105	0.083225
C93	C	1.472019	-0.493101	-0.302484
C94	C	1.972019	0.006899	0.197516
H95	H	1.004815	-0.380808	-0.576628
H96	H	1.504815	0.119192	-0.076628
Br97	Br	1.317589	-0.361358	-1.305358
Br98	Br	1.817589	0.138642	-0.805358
Br99	Br	1.672469	-1.091268	-0.491453
Br100	Br	2.172469	-0.591268	0.008547
H101	H	0.843051	-0.523161	-0.791516
H102	H	1.343051	-0.023161	-0.291516
Br103	Br	1.276526	-0.326411	-1.128316
Br104	Br	1.776526	0.173589	-0.628316
Br105	Br	1.529400	-0.542140	-1.063696
Br106	Br	2.029400	-0.042140	-0.563696
Br107	Br	1.570445	-0.577072	-1.240728
Br108	Br	2.070445	-0.077072	-0.740728
H109	H	0.827793	-0.407953	-0.617603
H110	H	1.327793	0.092047	-0.117603
Br111	Br	1.044786	-0.522065	-0.789841
Br112	Br	1.544786	-0.022065	-0.289841
Br113	Br	1.174581	-1.006392	-0.876651
Br114	Br	1.674581	-0.506392	-0.376651
Br115	Br	1.248583	-0.700618	-0.819229
Br116	Br	1.748583	-0.200618	-0.319229
H117	H	1.632141	-0.912234	-0.522549
H118	H	2.132141	-0.412234	-0.022549
H119	H	1.214749	-0.841067	-0.845466
H120	H	1.714749	-0.341067	-0.345466
H121	H	1.289039	-1.127319	-0.788150
H122	H	1.789039	-0.627319	-0.288150
Br123	Br	1.598156	-0.760214	-0.548741
Br124	Br	2.098156	-0.260214	-0.048741
Br125	Br	1.598368	-1.202451	-0.548842
Br126	Br	2.098368	-0.702451	-0.048842
