data_functionalizedCrystal
_audit_creation_method	'MofGen! by Chris Wilmer'
_symmetry_space_group_name_H-M	'P1'
_symmetry_Int_Tables_number	1
_symmetry_cell_setting	triclinic
loop_
_symmetry_equiv_pos_as_xyz
  x,y,z
_cell_length_a	14.853567
_cell_length_b	16.992701
_cell_length_c	16.053802
_cell_angle_alpha	87.243340
_cell_angle_beta	92.572962
_cell_angle_gamma	87.151050
loop_
_atom_site_label
_atom_site_type_symbol
_atom_site_fract_x
_atom_site_fract_y
_atom_site_fract_z
O1	O	0.187610	1.043903	-0.069424
O2	O	0.185515	0.815616	-0.069424
O3	O	0.055763	0.935858	-0.069427
O4	O	0.317362	0.923662	-0.069422
O5	O	0.062873	0.929239	0.069432
O6	O	0.192625	0.808997	0.069435
O7	O	0.194720	1.037285	0.069435
Zn8	Zn	0.194802	0.922090	0.091482
Zn9	Zn	0.185433	0.930810	-0.091471
O10	O	0.324472	0.917043	0.069437
C11	C	0.186372	0.783091	0.000005
C12	C	0.178323	0.696038	0.000004
C13	C	0.124237	0.207020	0.000000
C14	C	0.131808	0.288814	0.000006
C15	C	0.217054	0.320450	0.000003
C16	C	0.294735	0.270287	0.000005
C17	C	0.287163	0.188494	0.000005
C18	C	0.248432	0.564082	0.000006
C19	C	0.255998	0.645881	0.000003
C20	C	0.093070	0.664403	0.000006
C21	C	0.085506	0.582608	0.000001
C22	C	0.163187	0.532451	0.000007
N23	N	0.224794	0.404057	0.000006
N24	N	0.155446	0.448845	0.000010
C25	C	0.025690	0.931996	0.000000
C26	C	-0.074511	0.930340	-0.000007
C27	C	-0.492580	0.851913	0.000009
C28	C	-0.503777	0.994763	0.000009
C29	C	-0.409633	0.996320	0.000004
C30	C	-0.356959	0.925673	0.000003
C31	C	-0.398428	0.853468	0.000007
C32	C	-0.368156	1.068524	0.000009
C33	C	-0.274008	1.070084	0.000005
C34	C	-0.221332	0.999436	-0.000002
C35	C	-0.262806	0.927228	0.000001
C36	C	-0.210132	0.856581	-0.000001
C37	C	-0.251605	0.784372	-0.000004
C38	C	-0.345752	0.782820	-0.000001
C39	C	-0.127185	1.000988	-0.000006
C40	C	-0.115980	0.858136	-0.000003
C41	C	0.354545	0.920905	0.000008
C42	C	0.454745	0.922561	0.000010
C43	C	0.193863	1.069810	0.000004
C44	C	0.201912	1.156863	-0.000001
N45	N	0.201195	0.916145	0.216342
N46	N	0.179033	0.936762	-0.216331
C47	C	0.146008	0.967327	0.260035
C48	C	0.150489	0.963175	0.347442
C49	C	0.210163	0.907845	0.391154
C50	C	0.265353	0.856657	0.347455
C51	C	0.260866	0.860806	0.260050
C52	C	0.229736	0.889723	0.652564
C53	C	0.234220	0.885580	0.739976
C54	C	0.119355	0.992097	0.739956
C55	C	0.114878	0.996244	0.652549
C56	C	0.170064	0.945054	0.608858
N57	N	0.214748	0.903601	0.480498
N58	N	0.165474	0.949294	0.519516
H59	H	0.325419	0.671635	0.000013
O60	O	-0.006444	0.548497	0.000009
H61	H	-0.016698	0.514380	-0.056591
H62	H	-0.546669	1.052281	0.000017
H63	H	0.074424	1.033773	0.775538
O64	O	-0.059174	0.781932	0.000001
H65	H	-0.018915	0.781915	-0.056598
H66	H	0.364144	0.296051	0.000008
H67	H	0.029827	0.705249	0.000002
H68	H	0.068556	0.329649	0.000010
O69	O	0.298589	0.825898	0.787121
H70	H	0.292444	0.831624	0.855239
O71	O	-0.229288	1.147966	-0.000004
H72	H	-0.183763	1.149404	0.056591
H73	H	0.274673	0.848044	0.616998
H74	H	0.097419	1.012386	0.224450
H75	H	0.105551	1.004851	0.383016
O76	O	0.329722	0.796981	0.394596
H77	H	0.323580	0.802700	0.462715
H78	H	0.054820	0.181269	-0.000003
O79	O	0.332212	0.509989	0.000008
H80	H	0.392758	0.545732	-0.000002
H81	H	0.305804	0.819127	0.224476
O82	O	0.050507	1.055915	0.605402
H83	H	0.012877	1.090803	0.650469
O84	O	0.370940	0.134390	0.000000
H85	H	0.431489	0.170128	-0.000009
H86	H	-0.208705	0.726851	0.000001
H87	H	-0.093421	1.059778	0.000003
H88	H	-0.526352	0.793123	0.000003
O89	O	-0.390480	0.704942	0.000014
H90	H	-0.464794	0.715731	0.000030
O91	O	-0.424963	1.144719	0.000022
H92	H	-0.497397	1.131505	0.000017
