data_functionalizedCrystal
_audit_creation_method	'MofGen! by Chris Wilmer'
_symmetry_space_group_name_H-M	'P1'
_symmetry_Int_Tables_number	1
_symmetry_cell_setting	triclinic
loop_
_symmetry_equiv_pos_as_xyz
  x,y,z
_cell_length_a	15.944551
_cell_length_b	15.944493
_cell_length_c	10.268362
_cell_angle_alpha	90.000590
_cell_angle_beta	89.999906
_cell_angle_gamma	83.486891
loop_
_atom_site_label
_atom_site_type_symbol
_atom_site_fract_x
_atom_site_fract_y
_atom_site_fract_z
O1	O	1.114502	0.108336	-0.108147
O2	O	1.614502	0.608336	0.391853
O3	O	0.869949	0.121692	-0.108177
O4	O	1.369949	0.621692	0.391823
O5	O	0.998929	-0.007264	-0.108172
O6	O	1.498929	0.492736	0.391828
O7	O	0.985522	0.237292	-0.108152
O8	O	1.485522	0.737292	0.391848
O9	O	0.998918	-0.007269	0.108428
O10	O	1.498918	0.492731	0.608428
O11	O	0.869938	0.121687	0.108423
O12	O	1.369938	0.621687	0.608423
O13	O	1.114490	0.108330	0.108453
O14	O	1.614490	0.608330	0.608453
Cu15	Cu	0.992213	0.115008	0.128216
Cu16	Cu	1.492213	0.615008	0.628216
Cu17	Cu	0.992226	0.115014	-0.127940
Cu18	Cu	1.492226	0.615014	0.372060
O19	O	0.985511	0.237287	0.108448
O20	O	1.485511	0.737287	0.608448
C21	C	0.838650	0.121135	0.000119
C22	C	1.338650	0.621135	0.500119
C23	C	0.745404	0.119473	0.000106
C24	C	1.245404	0.619473	0.500106
C25	C	0.530565	0.035566	0.000125
C26	C	1.030565	0.535566	0.500125
C27	C	0.469542	0.074532	-0.106668
C28	C	0.969542	0.574532	0.393332
C29	C	0.574679	0.116465	0.000121
C30	C	1.074679	0.616465	0.500121
C31	C	0.469553	0.074546	0.106883
C32	C	0.969553	0.574546	0.606883
C33	C	0.409767	0.113555	0.000142
C34	C	0.909767	0.613555	0.500142
C35	C	0.514884	0.155454	-0.106759
C36	C	1.014884	0.655454	0.393241
C37	C	0.514902	0.155456	0.106888
C38	C	1.014902	0.655456	0.606888
C39	C	0.453897	0.194481	0.000070
C40	C	0.953897	0.694481	0.500070
C41	C	0.669681	0.118140	0.000109
C42	C	1.169681	0.618140	0.500109
C43	C	0.314766	0.111886	0.000145
C44	C	0.814766	0.611886	0.500145
C45	C	0.998375	-0.038562	0.000122
C46	C	1.498375	0.461438	0.500122
C47	C	0.996733	-0.131810	0.000106
C48	C	1.496733	0.368190	0.500106
C49	C	1.072653	-0.367570	0.000140
C50	C	1.572653	0.132430	0.500140
C51	C	1.031717	-0.418136	-0.106660
C52	C	1.531717	0.081864	0.393340
C53	C	0.993688	-0.302531	0.000121
C54	C	1.493688	0.197469	0.500121
C55	C	1.031688	-0.418117	0.106891
C56	C	1.531688	0.081883	0.606891
C57	C	0.990754	-0.467441	0.000142
C58	C	1.490754	0.032559	0.500142
C59	C	0.952774	-0.351868	-0.106767
C60	C	1.452774	0.148132	0.393233
C61	C	0.952756	-0.351846	0.106880
C62	C	1.452756	0.148154	0.606880
C63	C	0.911763	-0.402379	0.000055
C64	C	1.411763	0.097621	0.500055
C65	C	0.995381	-0.207531	0.000108
C66	C	1.495381	0.292469	0.500108
C67	C	0.989055	-0.562438	0.000146
C68	C	1.489055	-0.062438	0.500146
C69	C	1.145790	0.108888	0.000154
C70	C	1.645790	0.608888	0.500154
C71	C	1.239036	0.110550	0.000158
C72	C	1.739036	0.610550	0.500158
C73	C	0.986064	0.268584	0.000151
C74	C	1.486064	0.768584	0.500151
C75	C	0.987707	0.361833	0.000159
C76	C	1.487707	0.861833	0.500159
N77	N	0.992210	0.115003	0.308382
N78	N	1.492210	0.615003	0.808382
N79	N	0.992236	0.115013	-0.308106
N80	N	1.492236	0.615013	0.191894
C81	C	0.992222	0.115013	0.574052
C82	C	1.492222	0.615013	1.074052
C83	C	0.992213	0.115010	0.426214
C84	C	1.492213	0.615010	0.926214
H85	H	0.535021	0.189643	0.197183
H86	H	1.035021	0.689643	0.697183
Cl87	Cl	0.901328	-0.307376	-0.246323
Cl88	Cl	1.401328	0.192624	0.253677
Cl89	Cl	0.438547	0.021694	0.246274
Cl90	Cl	0.938547	0.521694	0.746274
Cl91	Cl	0.901324	-0.307113	0.246279
Cl92	Cl	1.401324	0.192887	0.746279
Cl93	Cl	1.177665	-0.343437	-0.000007
Cl94	Cl	1.677665	0.156563	0.499993
Cl95	Cl	0.402676	0.298244	-0.000010
Cl96	Cl	0.902676	0.798244	0.499990
Cl97	Cl	1.083190	-0.462786	0.246287
Cl98	Cl	1.583190	0.037214	0.746287
H99	H	0.563912	-0.031574	-0.000013
H100	H	1.063912	0.468426	0.499987
Cl101	Cl	1.083209	-0.462826	-0.246050
Cl102	Cl	1.583209	0.037174	0.253950
Cl103	Cl	0.806669	-0.426262	-0.000044
Cl104	Cl	1.306669	0.073738	0.499956
H105	H	0.534870	0.189647	-0.197142
H106	H	1.034870	0.689647	0.302858
Cl107	Cl	0.438512	0.021711	-0.246073
Cl108	Cl	0.938512	0.521711	0.253927
