data_functionalizedCrystal
_audit_creation_method	'MofGen! by Chris Wilmer'
_symmetry_space_group_name_H-M	'P1'
_symmetry_Int_Tables_number	1
_symmetry_cell_setting	triclinic
loop_
_symmetry_equiv_pos_as_xyz
  x,y,z
_cell_length_a	12.594517
_cell_length_b	29.839131
_cell_length_c	29.839126
_cell_angle_alpha	90.029653
_cell_angle_beta	90.027211
_cell_angle_gamma	90.034660
loop_
_atom_site_label
_atom_site_type_symbol
_atom_site_fract_x
_atom_site_fract_y
_atom_site_fract_z
Zn1	Zn	1.627178	-0.178904	0.253999
Zn2	Zn	1.626993	-0.254022	0.178859
Zn3	Zn	1.449166	-0.178906	0.178880
Zn4	Zn	1.449104	-0.254007	0.253958
O5	O	1.538110	-0.216460	0.216424
O6	O	1.776099	-0.188874	0.244040
O7	O	1.603353	-0.244064	0.115994
O8	O	1.472883	-0.116038	0.188870
O9	O	1.775963	-0.244063	0.188835
O10	O	1.603667	-0.116037	0.244060
O11	O	1.472704	-0.188877	0.116010
O12	O	1.300212	-0.188863	0.188831
O13	O	1.472777	-0.244038	0.316831
O14	O	1.300166	-0.244039	0.243991
O15	O	1.603607	-0.188860	0.316861
O16	O	1.603293	-0.316887	0.188795
O17	O	1.472598	-0.316876	0.243971
C18	C	1.261569	-0.216450	0.216409
C19	C	1.143264	-0.216457	0.216413
C20	C	1.003241	-0.186413	0.186480
C21	C	1.074117	-0.175476	0.227478
C22	C	1.073960	-0.227373	0.175420
C23	C	1.003354	-0.205516	0.257466
C24	C	1.003191	-0.257432	0.205380
C25	C	1.074035	-0.246511	0.246406
C26	C	1.537948	-0.333182	0.216386
C27	C	1.537976	-0.383117	0.216385
C28	C	1.606195	-0.692724	0.245202
C29	C	1.606310	-0.880398	0.245229
O30	O	1.664153	-0.904632	0.269703
N31	N	1.538291	-0.903902	0.216474
C32	C	1.470233	-0.880485	0.187712
O33	O	1.412373	-0.904783	0.163257
C34	C	1.470113	-0.692813	0.187687
C35	C	1.538144	-0.669311	0.216441
C36	C	1.674220	-0.669223	0.273954
C37	C	1.674194	-0.622307	0.273946
C38	C	1.606144	-0.598894	0.245185
C39	C	1.538119	-0.622395	0.216433
C40	C	1.402050	-0.669396	0.158928
C41	C	1.402024	-0.622475	0.158925
C42	C	1.470056	-0.598974	0.187679
C43	C	1.470043	-0.552066	0.187663
N44	N	1.538062	-0.528562	0.216418
C45	C	1.606113	-0.551976	0.245179
C46	C	1.470302	-0.979015	0.187726
C47	C	1.470333	-1.025933	0.187731
C48	C	1.606410	-1.025843	0.245250
C49	C	1.606383	-0.978924	0.245242
C50	C	1.538322	-0.955511	0.216481
C51	C	1.606055	-0.453450	0.245158
C52	C	1.606026	-0.406530	0.245146
C53	C	1.469947	-0.406625	0.187629
C54	C	1.469978	-0.453540	0.187640
C55	C	1.538036	-0.476952	0.216408
O56	O	1.412222	-0.527803	0.163206
O57	O	1.663947	-0.527670	0.269637
C58	C	1.606220	-0.739640	0.245211
C59	C	1.538195	-0.763142	0.216459
C60	C	1.470145	-0.739728	0.187698
C61	C	1.538226	-0.810060	0.216464
C62	C	1.606277	-0.833473	0.245225
C63	C	1.674296	-0.809969	0.273981
C64	C	1.674271	-0.763054	0.273972
C65	C	1.402125	-0.763232	0.158943
C66	C	1.402157	-0.810148	0.158953
C67	C	1.470208	-0.833561	0.187714
C68	C	1.815731	-0.216470	0.216439
C69	C	1.934036	-0.216474	0.216446
C70	C	1.538206	-0.216447	0.333602
C71	C	1.538246	-0.216441	0.383537
C72	C	1.538302	-0.099281	0.216472
C73	C	1.538384	-0.049347	0.216492
C74	C	1.538076	-0.216440	0.099701
C75	C	1.538242	-0.216319	0.049767
C76	C	1.606261	-0.245118	0.740119
C77	C	1.606263	-0.245149	0.552446
O78	O	1.664081	-0.269601	0.528177
N79	N	1.538241	-0.216420	0.528982
C80	C	1.470210	-0.187683	0.552439
O81	O	1.412346	-0.163251	0.528175
C82	C	1.470204	-0.187654	0.740111
C83	C	1.538237	-0.216382	0.763573
C84	C	1.674288	-0.273843	0.763581
C85	C	1.674291	-0.273833	0.810496
C86	C	1.606267	-0.245098	0.833950
C87	C	1.538240	-0.216372	0.810489
C88	C	1.402168	-0.158920	0.763568
C89	C	1.402170	-0.158916	0.810489
C90	C	1.470204	-0.187644	0.833950
C91	C	1.470219	-0.187627	0.880858
N92	N	1.538240	-0.216356	0.904322
C93	C	1.606264	-0.245091	0.880868
C94	C	1.470220	-0.187699	0.453909
C95	C	1.470222	-0.187706	0.406991
C96	C	1.606274	-0.245172	0.407001
C97	C	1.606276	-0.245163	0.453919
C98	C	1.538241	-0.216428	0.477373
C99	C	1.606266	-0.245068	0.979394
C100	C	1.606266	-0.245055	1.026313
C101	C	1.470211	-0.187590	1.026299
C102	C	1.470214	-0.187602	0.979384
C103	C	1.538245	-0.216344	0.955932
O104	O	1.412423	-0.163191	0.905156
O105	O	1.664103	-0.269527	0.905140
C106	C	1.606258	-0.245127	0.693204
C107	C	1.538231	-0.216402	0.669742
C108	C	1.470207	-0.187666	0.693196
C109	C	1.538234	-0.216408	0.622824
C110	C	1.606258	-0.245144	0.599370
C111	C	1.674279	-0.273873	0.622834
C112	C	1.674282	-0.273863	0.669750
C113	C	1.402186	-0.158937	0.669732
C114	C	1.402189	-0.158949	0.622816
C115	C	1.470213	-0.187684	0.599363
H116	H	1.661429	-0.387397	0.268561
H117	H	1.346766	-0.135527	0.744473
C118	C	1.116207	-0.128674	0.240107
N119	N	1.147907	-0.093421	0.249617
H120	H	1.729635	-0.688281	0.297378
C121	C	0.961062	-0.304221	0.192732
N122	N	0.929327	-0.339462	0.183200
H123	H	1.346767	-0.135516	0.829582
C124	C	1.395390	-0.156099	0.381188
N125	N	1.339018	-0.132294	0.361755
C126	C	0.961239	-0.152054	0.152309
N127	N	0.929599	-0.126174	0.126575
C128	C	0.961631	-0.192995	0.304332
N129	N	0.930203	-0.183562	0.339630
C130	C	1.115753	-0.280848	0.280659
N131	N	1.147173	-0.306710	0.306460
H132	H	1.104978	-0.236599	0.140738
H133	H	1.661466	-0.472506	0.268587
H134	H	1.729588	-0.603175	0.297361
C135	C	1.327151	-0.596724	0.127285
N136	N	1.270758	-0.577329	0.103453
C137	C	1.749103	-0.305483	0.597026
N138	N	1.805453	-0.329293	0.577585
C139	C	1.395502	-1.051780	0.156096
N140	N	1.339131	-1.071246	0.132269
H141	H	1.346759	-0.829279	0.135534
H142	H	1.661779	-0.959792	0.268656
C143	C	1.681109	-0.276769	0.479723
N144	N	1.737475	-0.300577	0.499156
C145	C	1.681095	-0.276784	0.381193
N146	N	1.737440	-0.300596	0.361752
H147	H	1.414877	-0.959956	0.164305
C148	C	1.681260	-1.051606	0.276889
N149	N	1.737628	-1.071014	0.300722
H150	H	1.346652	-0.688524	0.135513
H151	H	1.414590	-0.472677	0.164223
C152	C	1.327360	-0.127320	0.695525
N153	N	1.271002	-0.103500	0.714950
C154	C	1.681107	-0.276660	1.052118
N155	N	1.737474	-0.300466	1.071553
C156	C	1.395383	-0.156081	0.479701
N157	N	1.339021	-0.132264	0.499126
C158	C	1.395090	-0.380861	0.155996
N159	N	1.338701	-0.361454	0.132172
C160	C	1.749113	-0.737208	0.305604
N161	N	1.805488	-0.717744	0.329430
H162	H	1.729709	-0.829041	0.297397
C163	C	1.327248	-0.737484	0.127307
N164	N	1.270844	-0.718092	0.103477
C165	C	1.681114	-0.276682	0.953604
N166	N	1.737498	-0.300491	0.934179
C167	C	1.395380	-0.155998	0.953575
N168	N	1.339006	-0.132196	0.934139
H169	H	1.729682	-0.297245	0.744490
H170	H	1.729687	-0.297228	0.829595
C171	C	1.395387	-0.155982	1.052107
N172	N	1.339024	-0.132178	1.071548
H173	H	1.729681	-0.297256	0.688848
H174	H	1.346791	-0.135551	0.603718
