data_functionalizedCrystal
_audit_creation_method	'MofGen! by Chris Wilmer'
_symmetry_space_group_name_H-M	'P1'
_symmetry_Int_Tables_number	1
_symmetry_cell_setting	triclinic
loop_
_symmetry_equiv_pos_as_xyz
  x,y,z
_cell_length_a	10.489741
_cell_length_b	8.140239
_cell_length_c	9.065215
_cell_angle_alpha	90.004411
_cell_angle_beta	84.776936
_cell_angle_gamma	89.997701
loop_
_atom_site_label
_atom_site_type_symbol
_atom_site_fract_x
_atom_site_fract_y
_atom_site_fract_z
O1	O	1.694796	0.136508	0.208170
O2	O	1.323671	0.136533	0.227710
O3	O	1.516906	0.136513	0.003260
O4	O	1.501560	0.136528	0.432619
O5	O	1.516905	-0.136714	0.003248
O6	O	1.323669	-0.136694	0.227698
O7	O	1.694794	-0.136719	0.208158
Zn8	Zn	1.509232	-0.180087	0.217926
Zn9	Zn	1.509233	0.179901	0.217942
O10	O	1.501559	-0.136699	0.432608
C11	C	1.276133	-0.000077	0.226228
C12	C	1.134487	-0.000067	0.221813
N13	N	1.509239	-0.425770	0.217915
C14	C	1.515432	-0.000099	-0.051725
C15	C	1.511024	-0.000093	-0.215547
C16	C	1.065833	-0.000088	0.079002
C17	C	0.973950	0.134626	0.146470
C18	C	0.973983	-0.134754	0.146493
C19	C	1.044470	0.134758	0.289340
C20	C	1.044512	-0.134743	0.289342
C21	C	0.952657	0.000004	0.356914
C22	C	1.742332	-0.000105	0.209640
C23	C	1.883978	-0.000104	0.214055
N24	N	1.509235	0.425584	0.217941
C25	C	1.503033	-0.000083	0.487593
C26	C	1.507441	-0.000078	0.651415
H27	H	1.115100	0.000077	-0.038398
C28	C	1.086767	-0.288599	0.370902
C29	C	1.229384	-0.315931	0.391179
C30	C	1.271645	-0.469801	0.472726
C31	C	1.171289	-0.596337	0.533996
C32	C	1.028663	-0.569009	0.513721
C33	C	0.986402	-0.415139	0.432174
H34	H	1.303681	-0.222258	0.345822
H35	H	1.377226	-0.490030	0.487735
H36	H	1.202573	-0.710241	0.594362
H37	H	0.954366	-0.662682	0.559078
H38	H	0.880821	-0.394909	0.417165
C39	C	0.931602	0.288361	0.064789
C40	C	0.981549	0.317866	-0.098083
C41	C	0.939140	0.471537	-0.179804
C42	C	0.846783	0.595702	-0.098652
C43	C	0.796831	0.566200	0.064229
C44	C	0.839240	0.412530	0.145950
H45	H	1.049922	0.225949	-0.158165
H46	H	0.976118	0.493375	-0.300380
H47	H	0.815389	0.709458	-0.159147
H48	H	0.728458	0.658117	0.124311
H49	H	0.802262	0.390691	0.266526
H50	H	1.075516	0.248777	0.349724
H51	H	0.903656	0.000081	0.474438
H52	H	0.942786	-0.248645	0.086036
