data_functionalizedCrystal
_audit_creation_method	'MofGen! by Chris Wilmer'
_symmetry_space_group_name_H-M	'P1'
_symmetry_Int_Tables_number	1
_symmetry_cell_setting	triclinic
loop_
_symmetry_equiv_pos_as_xyz
  x,y,z
_cell_length_a	21.395362
_cell_length_b	16.625546
_cell_length_c	21.395355
_cell_angle_alpha	89.981524
_cell_angle_beta	89.956060
_cell_angle_gamma	90.038346
loop_
_atom_site_label
_atom_site_type_symbol
_atom_site_fract_x
_atom_site_fract_y
_atom_site_fract_z
Zn1	Zn	0.957895	-0.320753	-0.354586
Zn2	Zn	1.457895	0.179247	0.145414
Zn3	Zn	0.957813	-0.455568	-0.249808
Zn4	Zn	1.457813	0.044432	0.250192
Zn5	Zn	0.853110	-0.320791	-0.249787
Zn6	Zn	1.353110	0.179209	0.250213
Zn7	Zn	0.853095	-0.455585	-0.354513
Zn8	Zn	1.353095	0.044415	0.145487
O9	O	0.905478	-0.388174	-0.302174
O10	O	1.405478	0.111826	0.197826
O11	O	1.045562	-0.338614	-0.340726
O12	O	1.545562	0.161386	0.159274
O13	O	0.943896	-0.437699	-0.162128
O14	O	1.443896	0.062301	0.337872
O15	O	0.867051	-0.207953	-0.263710
O16	O	1.367051	0.292047	0.236290
O17	O	1.045502	-0.437662	-0.263747
O18	O	1.545502	0.062338	0.236253
O19	O	0.944036	-0.207926	-0.340706
O20	O	1.444036	0.292074	0.159294
O21	O	0.866971	-0.338678	-0.162112
O22	O	1.366971	0.161322	0.337888
O23	O	0.765430	-0.338694	-0.263640
O24	O	1.265430	0.161306	0.236360
O25	O	0.867024	-0.437690	-0.442201
O26	O	1.367024	0.062310	0.057799
O27	O	0.765419	-0.437727	-0.340582
O28	O	1.265419	0.062273	0.159418
O29	O	0.944021	-0.338630	-0.442254
O30	O	1.444021	0.161370	0.057746
O31	O	0.943881	-0.568403	-0.263676
O32	O	1.443881	-0.068403	0.236324
O33	O	0.866945	-0.568415	-0.340602
O34	O	1.366945	-0.068415	0.159398
C35	C	0.742691	-0.388217	-0.302101
C36	C	1.242691	0.111783	0.197899
C37	C	0.673049	-0.388255	-0.302085
C38	C	1.173049	0.111745	0.197915
C39	C	0.640347	-0.439889	-0.342088
C40	C	1.140347	0.060111	0.157912
C41	C	0.574911	-0.439870	-0.342116
C42	C	1.074911	0.060130	0.157884
C43	C	0.542181	-0.388224	-0.302129
C44	C	1.042181	0.111776	0.197871
C45	C	0.574892	-0.336579	-0.262123
C46	C	1.074892	0.163421	0.237877
C47	C	0.640326	-0.336594	-0.262101
C48	C	1.140326	0.163406	0.237899
C49	C	0.438456	-0.381728	-0.245724
C50	C	0.938456	0.118272	0.254276
C51	C	0.373023	-0.381718	-0.245745
C52	C	0.873023	0.118282	0.254255
C53	C	0.340360	-0.388171	-0.302198
C54	C	0.840360	0.111829	0.197802
C55	C	0.373139	-0.394651	-0.358632
C56	C	0.873139	0.105349	0.141368
C57	C	0.438573	-0.394666	-0.358610
C58	C	0.938573	0.105334	0.141390
C59	C	0.471229	-0.388201	-0.302149
C60	C	0.971229	0.111799	0.197851
C61	C	0.236705	-0.439787	-0.342236
C62	C	0.736705	0.060213	0.157764
C63	C	0.171268	-0.439762	-0.342265
C64	C	0.671268	0.060238	0.157735
C65	C	0.171250	-0.336475	-0.262266
C66	C	0.671250	0.163525	0.237734
C67	C	0.236686	-0.336496	-0.262242
C68	C	0.736686	0.163504	0.237758
C69	C	0.269409	-0.388157	-0.302227
C70	C	0.769409	0.111843	0.197773
C71	C	0.905419	-0.597665	-0.302147
C72	C	1.405419	-0.097665	0.197853
C73	C	0.905451	-0.687286	-0.302157
C74	C	1.405451	-0.187286	0.197843
C75	C	0.905560	-1.015462	-0.302222
C76	C	1.405560	-0.515462	0.197778
C77	C	0.905528	-0.924153	-0.302206
C78	C	1.405528	-0.424153	0.197794
C79	C	0.905505	-0.851377	-0.302189
C80	C	1.405505	-0.351377	0.197811
C81	C	0.905474	-0.760063	-0.302174
C82	C	1.405474	-0.260063	0.197826
C83	C	1.068902	-0.388132	-0.302247
C84	C	1.568902	0.111868	0.197753
C85	C	1.138543	-0.388114	-0.302278
C86	C	1.638543	0.111886	0.197722
C87	C	0.905530	-0.388158	-0.465597
C88	C	1.405530	0.111842	0.034403
C89	C	0.905552	-0.388151	-0.535238
C90	C	1.405552	0.111849	-0.035238
C91	C	0.905555	-0.177865	-0.302214
C92	C	1.405555	0.322135	0.197786
C93	C	0.905588	-0.088244	-0.302231
C94	C	1.405588	0.411756	0.197769
C95	C	0.945643	-0.336568	-0.567980
C96	C	1.445643	0.163432	-0.067980
C97	C	0.945642	-0.336534	-0.633416
C98	C	1.445642	0.163466	-0.133416
C99	C	0.905557	-0.388096	-0.666107
C100	C	1.405557	0.111904	-0.166107
C101	C	0.865459	-0.439683	-0.633357
C102	C	1.365459	0.060317	-0.133357
C103	C	0.865457	-0.439710	-0.567923
C104	C	1.365457	0.060290	-0.067923
C105	C	0.900589	-0.460699	-0.769771
C106	C	1.400589	0.039301	-0.269771
C107	C	0.900596	-0.460672	-0.835204
C108	C	1.400596	0.039328	-0.335204
C109	C	0.905561	-0.388011	-0.867927
C110	C	1.405561	0.111989	-0.367927
C111	C	0.910532	-0.315373	-0.835210
C112	C	1.410532	0.184627	-0.335210
C113	C	0.910530	-0.315401	-0.769776
C114	C	1.410530	0.184599	-0.269776
C115	C	0.905555	-0.388072	-0.737059
C116	C	1.405555	0.111928	-0.237059
C117	C	0.945653	-0.336386	-0.971622
C118	C	1.445653	0.163614	-0.471622
C119	C	0.945648	-0.336350	-1.037059
C120	C	1.445648	0.163650	-0.537059
C121	C	0.865468	-0.439506	-1.036999
C122	C	1.365468	0.060494	-0.536999
C123	C	0.865470	-0.439535	-0.971563
C124	C	1.365470	0.060465	-0.471563
C125	C	0.905566	-0.387976	-0.938879
C126	C	1.405566	0.112024	-0.438879
C127	C	0.905463	-0.388132	-0.139386
C128	C	1.405463	0.111868	0.360614
C129	C	0.905562	-0.387912	-0.069745
C130	C	1.405562	0.112088	0.430255
H131	H	0.465259	-0.399940	-0.404560
H132	H	0.965259	0.100060	0.095440
C133	C	0.829854	-0.485554	-0.467591
C134	C	1.329854	0.014446	0.032409
C135	C	0.821389	-0.496417	-0.531928
C136	C	1.321389	0.003583	-0.031928
H137	H	0.802645	-0.520560	-0.445370
H138	H	1.302645	-0.020560	0.054630
H139	H	0.871942	-0.497351	-0.456905
H140	H	1.371942	0.002649	0.043095
H141	H	0.820704	-0.431383	-0.456866
H142	H	1.320704	0.068617	0.043134
H143	H	0.830543	-0.550587	-0.542654
H144	H	1.330543	-0.050587	-0.042654
H145	H	0.779291	-0.484625	-0.542618
H146	H	1.279291	0.015375	-0.042618
H147	H	0.548279	-0.481916	-0.374694
H148	H	1.048279	0.018084	0.125306
C149	C	0.633787	-0.541981	-0.421165
C150	C	1.133787	-0.041981	0.078835
C151	C	0.676315	-0.496666	-0.386044
C152	C	1.176315	0.003334	0.113956
H153	H	0.655995	-0.577027	-0.448304
H154	H	1.155995	-0.077027	0.051696
H155	H	0.608218	-0.572764	-0.393831
H156	H	1.108218	-0.072764	0.106169
H157	H	0.608312	-0.506882	-0.445186
H158	H	1.108312	-0.006882	0.054814
H159	H	0.701787	-0.531765	-0.362019
H160	H	1.201787	-0.031765	0.137981
H161	H	0.701895	-0.465881	-0.413382
H162	H	1.201895	0.034119	0.086618
H163	H	0.978291	-0.294584	-0.541373
H164	H	1.478291	0.205416	-0.041373
H165	H	0.914576	-0.256257	-0.743141
H166	H	1.414576	0.243743	-0.243141
C167	C	0.759362	-0.478803	-1.057072
C168	C	1.259362	0.021197	-0.557072
C169	C	0.821407	-0.496183	-1.072929
C170	C	1.321407	0.003817	-0.572929
H171	H	0.732160	-0.513790	-1.079261
H172	H	1.232160	-0.013790	-0.579261
H173	H	0.753625	-0.486210	-1.013421
H174	H	1.253625	0.013790	-0.513421
H175	H	0.750220	-0.424623	-1.067790
H176	H	1.250220	0.075377	-0.567790
H177	H	0.830550	-0.550362	-1.062207
H178	H	1.330550	-0.050362	-0.562207
H179	H	0.827146	-0.488783	-1.116589
H180	H	1.327146	0.011217	-0.616589
H181	H	0.978293	-0.294340	-1.063716
H182	H	1.478293	0.205660	-0.563716
H183	H	0.666952	-0.294545	-0.229525
H184	H	1.166952	0.205455	0.270475
H185	H	0.896379	-0.519853	-0.743132
H186	H	1.396379	-0.019853	-0.243132
H187	H	0.832820	-0.481663	-0.659978
H188	H	1.332820	0.018337	-0.159978
H189	H	0.978287	-0.294524	-0.660079
H190	H	1.478287	0.205476	-0.160079
H191	H	0.144602	-0.294420	-0.229711
H192	H	0.644602	0.205580	0.270289
C193	C	0.256742	-0.297032	-0.156194
C194	C	0.756742	0.202968	0.343806
C195	C	0.272637	-0.279746	-0.218262
C196	C	0.772637	0.220254	0.281738
H197	H	0.278941	-0.261996	-0.129044
H198	H	0.778941	0.238004	0.370956
H199	H	0.213094	-0.289627	-0.150490
H200	H	0.713094	0.210373	0.349510
H201	H	0.267423	-0.351194	-0.146954
H202	H	0.767423	0.148806	0.353046
H203	H	0.261952	-0.225585	-0.227504
H204	H	0.761952	0.274415	0.272496
H205	H	0.316295	-0.287144	-0.223970
H206	H	0.816295	0.212856	0.276030
H207	H	0.914576	-0.256205	-0.861853
H208	H	1.414576	0.243795	-0.361853
C209	C	0.379480	-0.368916	-0.134161
C210	C	0.879480	0.131084	0.365839
C211	C	0.336996	-0.374593	-0.183716
C212	C	0.836996	0.125407	0.316284
H213	H	0.357239	-0.364512	-0.095867
H214	H	0.857239	0.135488	0.404133
H215	H	0.404969	-0.415656	-0.133270
H216	H	0.904969	0.084344	0.366730
H217	H	0.405040	-0.322721	-0.139736
H218	H	0.905040	0.177279	0.360264
H219	H	0.311439	-0.420792	-0.178143
H220	H	0.811439	0.079208	0.321857
H221	H	0.311496	-0.327849	-0.184606
H222	H	0.811496	0.172151	0.315394
C223	C	0.511929	-0.442751	-0.175462
C224	C	1.011929	0.057249	0.324538
C225	C	0.474360	-0.374637	-0.183668
C226	C	0.974360	0.125363	0.316332
H227	H	0.534098	-0.438370	-0.137155
H228	H	1.034098	0.061630	0.362845
H229	H	0.486369	-0.489472	-0.174589
H230	H	0.986369	0.010528	0.325411
H231	H	0.540808	-0.446598	-0.209073
H232	H	1.040808	0.053402	0.290927
H233	H	0.445477	-0.370794	-0.150058
H234	H	0.945477	0.129206	0.349942
H235	H	0.499922	-0.327904	-0.184535
H236	H	0.999922	0.172096	0.315465
H237	H	0.346547	-0.399904	-0.404602
H238	H	0.846547	0.100096	0.095398
C239	C	1.024900	-0.234411	-0.978251
C240	C	1.524900	0.265589	-0.478251
C241	C	0.989717	-0.279705	-0.935690
C242	C	1.489717	0.220295	-0.435690
H243	H	1.052100	-0.199415	-0.956068
H244	H	1.552100	0.300585	-0.456068
H245	H	1.048855	-0.269521	-1.003790
H246	H	1.548855	0.230479	-0.503790
H247	H	0.997605	-0.203568	-1.003753
H248	H	1.497605	0.296432	-0.503753
H249	H	1.017013	-0.310552	-0.910192
H250	H	1.517013	0.189448	-0.410192
H251	H	0.965761	-0.244590	-0.910140
H252	H	1.465761	0.255410	-0.410140
H253	H	0.144643	-0.481807	-0.374844
H254	H	0.644643	0.018193	0.125156
H255	H	0.832828	-0.481544	-0.944904
H256	H	1.332828	0.018456	-0.444904
H257	H	0.896552	-0.519818	-0.861837
H258	H	1.396552	-0.019818	-0.361837
H259	H	0.263350	-0.481848	-0.374796
H260	H	0.763350	0.018152	0.125204
H261	H	0.548239	-0.294527	-0.229567
H262	H	1.048239	0.205473	0.270433
