data_functionalizedCrystal
_audit_creation_method	'MofGen! by Chris Wilmer'
_symmetry_space_group_name_H-M	'P1'
_symmetry_Int_Tables_number	1
_symmetry_cell_setting	triclinic
loop_
_symmetry_equiv_pos_as_xyz
  x,y,z
_cell_length_a	17.640280
_cell_length_b	12.759401
_cell_length_c	12.759393
_cell_angle_alpha	90.020938
_cell_angle_beta	78.768965
_cell_angle_gamma	101.197849
loop_
_atom_site_label
_atom_site_type_symbol
_atom_site_fract_x
_atom_site_fract_y
_atom_site_fract_z
Zn1	Zn	-0.314597	-1.690818	-0.509562
Zn2	Zn	-0.446790	-1.726238	-0.298393
Zn3	Zn	-0.314639	-1.515128	-0.333886
Zn4	Zn	-0.446735	-1.550623	-0.474045
O5	O	-0.380691	-1.620702	-0.403971
O6	O	-0.332138	-1.842539	-0.481560
O7	O	-0.429301	-1.698203	-0.156069
O8	O	-0.204028	-1.508756	-0.386908
O9	O	-0.429260	-1.868562	-0.326415
O10	O	-0.203997	-1.637835	-0.515976
O11	O	-0.332210	-1.543101	-0.182146
O12	O	-0.332157	-1.372814	-0.352468
O13	O	-0.429166	-1.569251	-0.625788
O14	O	-0.429207	-1.398892	-0.455443
O15	O	-0.332085	-1.672252	-0.651883
O16	O	-0.557389	-1.732620	-0.291976
O17	O	-0.557349	-1.603596	-0.421027
C18	C	-0.380681	-1.347732	-0.403953
C19	C	-0.380696	-1.230959	-0.403965
C20	C	-0.586048	-1.675832	-0.348819
C21	C	-0.673900	-1.699513	-0.325259
C22	C	-0.380615	-1.620760	-0.678025
C23	C	-0.380582	-1.620785	-0.794811
C24	C	-0.962869	-1.441231	-0.583333
C25	C	-1.045420	-1.463485	-0.561162
C26	C	-1.045396	-1.597921	-0.426917
C27	C	-0.962844	-1.575682	-0.449081
C28	C	-0.921586	-1.497335	-0.527289
C29	C	-0.921561	-1.631786	-0.393036
C30	C	-0.839016	-1.609545	-0.415195
C31	C	-0.797753	-1.531199	-0.493397
C32	C	-0.839041	-1.475094	-0.549447
C33	C	-0.962820	-1.710127	-0.314823
C34	C	-0.921538	-1.766231	-0.258779
C35	C	-0.838991	-1.743996	-0.280942
C36	C	-0.797728	-1.665650	-0.359145
C37	C	-0.797703	-1.800101	-0.224892
C38	C	-0.715158	-1.777860	-0.247051
C39	C	-0.715183	-1.643409	-0.381303
C40	C	-0.174531	-1.565385	-0.459363
C41	C	-0.086679	-1.541813	-0.482967
C42	C	-0.380701	-1.894738	-0.403990
C43	C	-0.380705	-2.011516	-0.403998
C44	C	-0.431307	-1.189724	-0.457458
C45	C	-0.431310	-1.080001	-0.457478
C46	C	-0.330089	-1.052757	-0.350505
C47	C	-0.330082	-1.162477	-0.350491
C48	C	-0.330024	-1.674420	-0.863264
C49	C	-0.329990	-1.674429	-0.972997
C50	C	-0.431079	-1.567166	-0.945813
C51	C	-0.431109	-1.567151	-0.836083
C52	C	-0.380709	-1.620689	-0.130999
C53	C	-0.380519	-1.620808	-0.014274
H54	H	-0.681589	-1.579618	-0.444996
H55	H	-1.030034	-1.728236	-0.296788
Cl56	Cl	-0.849579	-1.898583	-0.126571
H57	H	-1.079029	-1.417805	-0.606818
H58	H	-0.288882	-0.996987	-0.306966
H59	H	-0.472218	-1.523502	-0.979430
Cl60	Cl	-0.266446	-1.214318	-0.283246
Cl61	Cl	-0.494669	-1.499711	-0.750022
Cl62	Cl	-0.663256	-1.848381	-0.176585
H63	H	-0.730539	-1.513085	-0.511429
H64	H	-0.805448	-1.411304	-0.613140
H65	H	-1.078999	-1.661708	-0.363237
Cl66	Cl	-0.266502	-1.741840	-0.811384
Cl67	Cl	-0.973412	-1.864724	-0.160467
H68	H	-0.472518	-1.245479	-0.501003
Cl69	Cl	-0.494937	-1.028167	-0.524731
Cl70	Cl	-0.266435	-1.741871	-1.059047
H71	H	-0.929275	-1.377441	-0.647026
