data_functionalizedCrystal
_audit_creation_method	'MofGen! by Chris Wilmer'
_symmetry_space_group_name_H-M	'P1'
_symmetry_Int_Tables_number	1
_symmetry_cell_setting	triclinic
loop_
_symmetry_equiv_pos_as_xyz
  x,y,z
_cell_length_a	9.065215
_cell_length_b	9.482900
_cell_length_c	9.065218
_cell_angle_alpha	80.524781
_cell_angle_beta	94.984675
_cell_angle_gamma	80.571776
loop_
_atom_site_label
_atom_site_type_symbol
_atom_site_fract_x
_atom_site_fract_y
_atom_site_fract_z
O1	O	-1.983087	0.120865	0.193547
O2	O	-1.483087	0.620865	0.693547
O3	O	-1.553804	0.120873	0.211296
O4	O	-1.053804	0.620873	0.711296
O5	O	-1.777318	0.120866	-0.012221
O6	O	-1.277318	0.620866	0.487779
O7	O	-1.759573	0.120872	0.417063
O8	O	-1.259573	0.620872	0.917063
O9	O	-1.731920	-0.120925	0.033365
O10	O	-1.231920	0.379075	0.533365
O11	O	-1.508405	-0.120918	0.256882
O12	O	-1.008405	0.379082	0.756882
O13	O	-1.937689	-0.120926	0.239133
O14	O	-1.437689	0.379074	0.739133
Cu15	Cu	-1.718902	-0.143000	0.252170
Cu16	Cu	-1.218902	0.357000	0.752170
Cu17	Cu	-1.772591	0.142946	0.198259
Cu18	Cu	-1.272591	0.642946	0.698259
O19	O	-1.714174	-0.120919	0.462649
O20	O	-1.214174	0.379081	0.962649
C21	C	-1.476118	-0.000022	0.232384
C22	C	-0.976118	0.499978	0.732384
C23	C	-1.312275	-0.000019	0.227285
C24	C	-0.812275	0.499981	0.727285
N25	N	-1.681151	-0.344119	0.290087
N26	N	-1.181151	0.155881	0.790087
C27	C	-1.761445	-0.416320	0.209435
C28	C	-1.261445	0.083680	0.709435
C29	C	-1.730047	-0.583737	0.240994
C30	C	-1.230047	-0.083737	0.740994
C31	C	-1.015376	-0.000027	0.218044
C32	C	-0.515376	0.499973	0.718044
C33	C	-1.179220	-0.000018	0.223140
C34	C	-0.679220	0.499982	0.723140
C35	C	-1.752914	-0.000027	-0.044415
C36	C	-1.252914	0.499973	0.455585
C37	C	-1.747816	-0.000020	-0.208259
C38	C	-1.247816	0.499980	0.291741
N39	N	-1.810353	0.344065	0.160330
N40	N	-1.310353	0.844065	0.660330
C41	C	-1.738579	-0.000023	0.494843
C42	C	-1.238579	0.499977	0.994843
C43	C	-1.743679	-0.000020	0.658685
C44	C	-1.243679	0.499980	1.158685
H45	H	-1.853429	-0.354195	0.117016
H46	H	-1.353429	0.145805	0.617016
H47	H	-1.902343	-0.593813	0.067906
H48	H	-1.402343	-0.093813	0.567906
H49	H	-1.638047	-0.645858	0.333408
H50	H	-1.138047	-0.145858	0.833408
Cl51	Cl	-1.539115	-0.440028	0.432762
Cl52	Cl	-1.039115	0.059972	0.932762
