data_functionalizedCrystal
_audit_creation_method	'MofGen! by Chris Wilmer'
_symmetry_space_group_name_H-M	'P1'
_symmetry_Int_Tables_number	1
_symmetry_cell_setting	triclinic
loop_
_symmetry_equiv_pos_as_xyz
  x,y,z
_cell_length_a	21.395362
_cell_length_b	21.295417
_cell_length_c	21.395355
_cell_angle_alpha	90.021451
_cell_angle_beta	90.043940
_cell_angle_gamma	90.046383
loop_
_atom_site_label
_atom_site_type_symbol
_atom_site_fract_x
_atom_site_fract_y
_atom_site_fract_z
Zn1	Zn	0.957860	-0.250415	0.354573
Zn2	Zn	1.207860	-0.000415	0.604573
Zn3	Zn	1.457860	0.249585	0.854573
Zn4	Zn	1.707860	0.499585	1.104573
Zn5	Zn	0.957763	-0.355667	0.249790
Zn6	Zn	1.207763	-0.105667	0.499790
Zn7	Zn	1.457763	0.144333	0.749790
Zn8	Zn	1.707763	0.394333	0.999790
Zn9	Zn	0.853075	-0.250445	0.249774
Zn10	Zn	1.103075	-0.000445	0.499774
Zn11	Zn	1.353075	0.249555	0.749774
Zn12	Zn	1.603075	0.499555	0.999774
Zn13	Zn	0.853045	-0.355680	0.354495
Zn14	Zn	1.103045	-0.105680	0.604495
Zn15	Zn	1.353045	0.144320	0.854495
Zn16	Zn	1.603045	0.394320	1.104495
O17	O	0.905436	-0.303052	0.302158
O18	O	1.155436	-0.053052	0.552158
O19	O	1.405436	0.196948	0.802158
O20	O	1.655436	0.446948	1.052158
O21	O	1.045525	-0.264359	0.340713
O22	O	1.295525	-0.014359	0.590713
O23	O	1.545525	0.235641	0.840713
O24	O	1.795525	0.485641	1.090713
O25	O	0.943848	-0.341716	0.162110
O26	O	1.193848	-0.091716	0.412110
O27	O	1.443848	0.158284	0.662110
O28	O	1.693848	0.408284	0.912110
O29	O	0.867029	-0.162351	0.263702
O30	O	1.117029	0.087649	0.513702
O31	O	1.367029	0.337649	0.763702
O32	O	1.617029	0.587649	1.013702
O33	O	1.045454	-0.341687	0.263729
O34	O	1.295454	-0.091687	0.513729
O35	O	1.545454	0.158313	0.763729
O36	O	1.795454	0.408313	1.013729
O37	O	0.944014	-0.162330	0.340697
O38	O	1.194014	0.087670	0.590697
O39	O	1.444014	0.337670	0.840697
O40	O	1.694014	0.587670	1.090697
O41	O	0.866934	-0.264409	0.162098
O42	O	1.116934	-0.014409	0.412098
O43	O	1.366934	0.235591	0.662098
O44	O	1.616934	0.485591	0.912098
O45	O	0.765393	-0.264422	0.263626
O46	O	1.015393	-0.014422	0.513626
O47	O	1.265393	0.235578	0.763626
O48	O	1.515393	0.485578	1.013626
O49	O	0.866977	-0.341709	0.442183
O50	O	1.116977	-0.091709	0.692183
O51	O	1.366977	0.158291	0.942183
O52	O	1.616977	0.408291	1.192183
O53	O	0.765371	-0.341738	0.340564
O54	O	1.015371	-0.091738	0.590564
O55	O	1.265371	0.158262	0.840564
O56	O	1.515371	0.408262	1.090564
O57	O	0.943984	-0.264372	0.442240
O58	O	1.193984	-0.014372	0.692240
O59	O	1.443984	0.235628	0.942240
O60	O	1.693984	0.485628	1.192240
O61	O	0.943819	-0.443758	0.263653
O62	O	1.193819	-0.193758	0.513653
O63	O	1.443819	0.056242	0.763653
O64	O	1.693819	0.306242	1.013653
O65	O	0.866883	-0.443767	0.340579
O66	O	1.116883	-0.193767	0.590579
O67	O	1.366883	0.056233	0.840579
O68	O	1.616883	0.306233	1.090579
C69	C	0.742648	-0.303085	0.302085
C70	C	0.992648	-0.053085	0.552085
C71	C	1.242648	0.196915	0.802085
C72	C	1.492648	0.446915	1.052085
C73	C	0.673007	-0.303114	0.302069
C74	C	0.923007	-0.053114	0.552069
C75	C	1.173007	0.196886	0.802069
C76	C	1.423007	0.446886	1.052069
C77	C	0.640299	-0.343426	0.342070
C78	C	0.890299	-0.093426	0.592070
C79	C	1.140299	0.156574	0.842070
C80	C	1.390299	0.406574	1.092070
C81	C	0.574863	-0.343411	0.342098
C82	C	0.824863	-0.093411	0.592098
C83	C	1.074863	0.156589	0.842098
C84	C	1.324863	0.406589	1.092098
C85	C	0.542139	-0.303090	0.302114
C86	C	0.792139	-0.053090	0.552114
C87	C	1.042139	0.196910	0.802114
C88	C	1.292139	0.446910	1.052114
C89	C	0.574855	-0.262771	0.262109
C90	C	0.824855	-0.012771	0.512109
C91	C	1.074855	0.237229	0.762109
C92	C	1.324855	0.487229	1.012109
C93	C	0.640289	-0.262783	0.262087
C94	C	0.890289	-0.012783	0.512087
C95	C	1.140289	0.237217	0.762087
C96	C	1.390289	0.487217	1.012087
C97	C	0.438414	-0.298019	0.245709
C98	C	0.688414	-0.048019	0.495709
C99	C	0.938414	0.201981	0.745709
C100	C	1.188414	0.451981	0.995709
C101	C	0.372981	-0.298011	0.245730
C102	C	0.622981	-0.048011	0.495730
C103	C	0.872981	0.201989	0.745730
C104	C	1.122981	0.451989	0.995730
C105	C	0.340318	-0.303049	0.302183
C106	C	0.590318	-0.053049	0.552183
C107	C	0.840318	0.196951	0.802183
C108	C	1.090318	0.446951	1.052183
C109	C	0.373096	-0.308108	0.358616
C110	C	0.623096	-0.058108	0.608616
C111	C	0.873096	0.191892	0.858616
C112	C	1.123096	0.441892	1.108616
C113	C	0.438530	-0.308120	0.358594
C114	C	0.688530	-0.058120	0.608594
C115	C	0.938530	0.191880	0.858594
C116	C	1.188530	0.441880	1.108594
C117	C	0.471186	-0.303072	0.302134
C118	C	0.721186	-0.053072	0.552134
C119	C	0.971186	0.196928	0.802134
C120	C	1.221186	0.446928	1.052134
C121	C	0.236657	-0.343346	0.342218
C122	C	0.486657	-0.093346	0.592218
C123	C	0.736657	0.156654	0.842218
C124	C	0.986657	0.406654	1.092218
C125	C	0.171221	-0.343326	0.342247
C126	C	0.421221	-0.093326	0.592247
C127	C	0.671221	0.156674	0.842247
C128	C	0.921221	0.406674	1.092247
C129	C	0.171214	-0.262690	0.262252
C130	C	0.421214	-0.012690	0.512252
C131	C	0.671214	0.237310	0.762252
C132	C	0.921214	0.487310	1.012252
C133	C	0.236649	-0.262706	0.262229
C134	C	0.486649	-0.012706	0.512229
C135	C	0.736649	0.237294	0.762229
C136	C	0.986649	0.487294	1.012229
C137	C	0.269367	-0.303038	0.302211
C138	C	0.519367	-0.053038	0.552211
C139	C	0.769367	0.196962	0.802211
C140	C	1.019367	0.446962	1.052211
C141	C	0.905354	-0.466603	0.302123
C142	C	1.155354	-0.216603	0.552123
C143	C	1.405354	0.033397	0.802123
C144	C	1.655354	0.283397	1.052123
C145	C	0.905376	-0.536571	0.302129
C146	C	1.155376	-0.286571	0.552129
C147	C	1.405376	-0.036571	0.802129
C148	C	1.655376	0.213429	1.052129
C149	C	0.945472	-0.569412	0.262115
C150	C	1.195472	-0.319412	0.512115
C151	C	1.445472	-0.069412	0.762115
C152	C	1.695472	0.180588	1.012115
C153	C	0.945502	-0.635155	0.262129
C154	C	1.195502	-0.385155	0.512129
C155	C	1.445502	-0.135155	0.762129
C156	C	1.695502	0.114845	1.012129
C157	C	0.905424	-0.668054	0.302151
C158	C	1.155424	-0.418054	0.552151
C159	C	1.405424	-0.168054	0.802151
C160	C	1.655424	0.081946	1.052151
C161	C	0.865324	-0.635205	0.342173
C162	C	1.115324	-0.385205	0.592173
C163	C	1.365324	-0.135205	0.842173
C164	C	1.615324	0.114795	1.092173
C165	C	0.865301	-0.569464	0.342162
C166	C	1.115301	-0.319464	0.592162
C167	C	1.365301	-0.069464	0.842162
C168	C	1.615301	0.180536	1.092162
N169	N	0.850614	-0.771336	0.306903
N170	N	1.100614	-0.521336	0.556903
N171	N	1.350614	-0.271336	0.806903
N172	N	1.600614	-0.021336	1.056903
N173	N	0.850638	-0.833787	0.306910
N174	N	1.100638	-0.583787	0.556910
N175	N	1.350638	-0.333787	0.806910
N176	N	1.600638	-0.083787	1.056910
C177	C	0.905494	-0.866129	0.302187
C178	C	1.155494	-0.616129	0.552187
C179	C	1.405494	-0.366129	0.802187
C180	C	1.655494	-0.116129	1.052187
N181	N	0.960325	-0.833659	0.297445
N182	N	1.210325	-0.583659	0.547445
N183	N	1.460325	-0.333659	0.797445
N184	N	1.710325	-0.083659	1.047445
N185	N	0.960300	-0.771202	0.297435
N186	N	1.210300	-0.521202	0.547435
N187	N	1.460300	-0.271202	0.797435
N188	N	1.710300	-0.021202	1.047435
C189	C	0.905445	-0.739339	0.302167
C190	C	1.155445	-0.489339	0.552167
C191	C	1.405445	-0.239339	0.802167
C192	C	1.655445	0.010661	1.052167
C193	C	0.945625	-0.970255	0.262186
C194	C	1.195625	-0.720255	0.512186
C195	C	1.445625	-0.470255	0.762186
C196	C	1.695625	-0.220255	1.012186
C197	C	0.945656	-1.035999	0.262204
C198	C	1.195656	-0.785999	0.512204
C199	C	1.445656	-0.535999	0.762204
C200	C	1.695656	-0.285999	1.012204
C201	C	0.865473	-1.036048	0.342245
C202	C	1.115473	-0.786048	0.592245
C203	C	1.365473	-0.536048	0.842245
C204	C	1.615473	-0.286048	1.092245
C205	C	0.865448	-0.970305	0.342230
C206	C	1.115448	-0.720305	0.592230
C207	C	1.365448	-0.470305	0.842230
C208	C	1.615448	-0.220305	1.092230
C209	C	0.905523	-0.937413	0.302197
C210	C	1.155523	-0.687413	0.552197
C211	C	1.405523	-0.437413	0.802197
C212	C	1.655523	-0.187413	1.052197
C213	C	1.068859	-0.303019	0.302231
C214	C	1.318859	-0.053019	0.552231
C215	C	1.568859	0.196981	0.802231
C216	C	1.818859	0.446981	1.052231
C217	C	1.138501	-0.303005	0.302262
C218	C	1.388501	-0.053005	0.552262
C219	C	1.638501	0.196995	0.802262
C220	C	1.888501	0.446995	1.052262
C221	C	0.905488	-0.303039	0.465581
C222	C	1.155488	-0.053039	0.715581
C223	C	1.405488	0.196961	0.965581
C224	C	1.655488	0.446961	1.215581
C225	C	0.905510	-0.303033	0.535223
C226	C	1.155510	-0.053033	0.785223
C227	C	1.405510	0.196967	1.035223
C228	C	1.655510	0.446967	1.285223
C229	C	0.905535	-0.138861	0.302206
C230	C	1.155535	0.111139	0.552206
C231	C	1.405535	0.361139	0.802206
C232	C	1.655535	0.611139	1.052206
C233	C	0.905578	-0.068893	0.302227
C234	C	1.155578	0.181107	0.552227
C235	C	1.405578	0.431107	0.802227
C236	C	1.655578	0.681107	1.052227
C237	C	0.905420	-0.303019	0.139370
C238	C	1.155420	-0.053019	0.389370
C239	C	1.405420	0.196981	0.639370
C240	C	1.655420	0.446981	0.889370
C241	C	0.905519	-0.302847	0.069729
C242	C	1.155519	-0.052847	0.319729
C243	C	1.405519	0.197153	0.569729
C244	C	1.655519	0.447153	0.819729
C245	C	0.945606	-0.262762	0.567967
C246	C	1.195606	-0.012762	0.817967
C247	C	1.445606	0.237238	1.067967
C248	C	1.695606	0.487238	1.317967
C249	C	0.945605	-0.262735	0.633402
C250	C	1.195605	-0.012735	0.883402
C251	C	1.445605	0.237265	1.133402
C252	C	1.695605	0.487265	1.383402
C253	C	0.905515	-0.302991	0.666091
C254	C	1.155515	-0.052991	0.916091
C255	C	1.405515	0.197009	1.166091
C256	C	1.655515	0.447009	1.416091
C257	C	0.865411	-0.343265	0.633339
C258	C	1.115411	-0.093265	0.883339
C259	C	1.365411	0.156735	1.133339
C260	C	1.615411	0.406735	1.383339
C261	C	0.865409	-0.343286	0.567905
C262	C	1.115409	-0.093286	0.817905
C263	C	1.365409	0.156714	1.067905
C264	C	1.615409	0.406714	1.317905
C265	C	0.900539	-0.359672	0.769752
C266	C	1.150539	-0.109672	1.019752
C267	C	1.400539	0.140328	1.269752
C268	C	1.650539	0.390328	1.519752
C269	C	0.900546	-0.359652	0.835185
C270	C	1.150546	-0.109652	1.085185
C271	C	1.400546	0.140348	1.335185
C272	C	1.650546	0.390348	1.585185
C273	C	0.905519	-0.302924	0.867912
C274	C	1.155519	-0.052924	1.117912
C275	C	1.405519	0.197076	1.367912
C276	C	1.655519	0.447076	1.617912
C277	C	0.910498	-0.246215	0.835198
C278	C	1.160498	0.003785	1.085198
C279	C	1.410498	0.253785	1.335198
C280	C	1.660498	0.503785	1.585198
C281	C	0.910496	-0.246237	0.769763
C282	C	1.160496	0.003763	1.019763
C283	C	1.410496	0.253763	1.269763
C284	C	1.660496	0.503763	1.519763
C285	C	0.905513	-0.302972	0.737043
C286	C	1.155513	-0.052972	0.987043
C287	C	1.405513	0.197028	1.237043
C288	C	1.655513	0.447028	1.487043
C289	C	0.945616	-0.262620	0.971608
C290	C	1.195616	-0.012620	1.221608
C291	C	1.445616	0.237380	1.471608
C292	C	1.695616	0.487380	1.721608
C293	C	0.945611	-0.262592	1.037045
C294	C	1.195611	-0.012592	1.287045
C295	C	1.445611	0.237408	1.537045
C296	C	1.695611	0.487408	1.787045
C297	C	0.865420	-0.343127	1.036981
C298	C	1.115420	-0.093127	1.286981
C299	C	1.365420	0.156873	1.536981
C300	C	1.615420	0.406873	1.786981
C301	C	0.865422	-0.343150	0.971545
C302	C	1.115422	-0.093150	1.221545
C303	C	1.365422	0.156850	1.471545
C304	C	1.615422	0.406850	1.721545
C305	C	0.905523	-0.302897	0.938863
C306	C	1.155523	-0.052897	1.188863
C307	C	1.405523	0.197103	1.438863
C308	C	1.655523	0.447103	1.688863
H309	H	0.144570	-0.229857	0.229699
H310	H	0.394570	0.020143	0.479699
H311	H	0.644570	0.270143	0.729699
H312	H	0.894570	0.520143	0.979699
H313	H	0.832843	-1.062834	0.374834
H314	H	1.082843	-0.812834	0.624834
H315	H	1.332843	-0.562834	0.874834
H316	H	1.582843	-0.312834	1.124834
H317	H	0.263280	-0.229883	0.229652
H318	H	0.513280	0.020117	0.479652
H319	H	0.763280	0.270117	0.729652
H320	H	1.013280	0.520117	0.979652
F321	F	0.822748	-0.385966	1.071766
F322	F	1.072748	-0.135966	1.321766
F323	F	1.322748	0.114034	1.571766
F324	F	1.572748	0.364034	1.821766
H325	H	0.346298	-0.293896	0.199778
H326	H	0.596298	-0.043896	0.449778
H327	H	0.846298	0.206104	0.699778
H328	H	1.096298	0.456104	0.949778
F329	F	0.822769	-0.935352	0.384817
F330	F	1.072769	-0.685352	0.634817
F331	F	1.322769	-0.435352	0.884817
F332	F	1.572769	-0.185352	1.134817
H333	H	0.666920	-0.229954	0.229513
H334	H	0.916920	0.020046	0.479513
H335	H	1.166920	0.270046	0.729513
H336	H	1.416920	0.520046	0.979513
F337	F	0.915791	-0.185885	0.734949
F338	F	1.165791	0.064115	0.984949
F339	F	1.415791	0.314115	1.234949
F340	F	1.665791	0.564115	1.484949
H341	H	0.978259	-0.229985	0.541361
H342	H	1.228259	0.020015	0.791361
H343	H	1.478259	0.270015	1.041361
H344	H	1.728259	0.520015	1.291361
H345	H	0.465003	-0.293914	0.199735
H346	H	0.715003	-0.043914	0.449735
H347	H	0.965003	0.206086	0.699735
H348	H	1.215003	0.456086	0.949735
H349	H	0.978255	-0.229938	0.660067
H350	H	1.228255	0.020062	0.910067
H351	H	1.478255	0.270062	1.160067
H352	H	1.728255	0.520062	1.410067
H353	H	0.548227	-0.376237	0.374675
H354	H	0.798227	-0.126237	0.624675
H355	H	1.048227	0.123763	0.874675
H356	H	1.298227	0.373763	1.124675
H357	H	0.666933	-0.376266	0.374628
H358	H	0.916933	-0.126266	0.624628
H359	H	1.166933	0.123734	0.874628
H360	H	1.416933	0.373734	1.124628
F361	F	0.540026	-0.219856	0.219557
F362	F	0.790026	0.030144	0.469557
F363	F	1.040026	0.280144	0.719557
F364	F	1.290026	0.530144	0.969557
F365	F	0.895252	-0.420006	0.869996
F366	F	1.145252	-0.170006	1.119996
F367	F	1.395252	0.079994	1.369996
F368	F	1.645252	0.329994	1.619996
F369	F	0.338339	-0.313467	0.418703
F370	F	0.588339	-0.063467	0.668703
F371	F	0.838339	0.186533	0.918703
F372	F	1.088339	0.436533	1.168703
F373	F	0.915793	-0.185837	0.870023
F374	F	1.165793	0.064163	1.120023
F375	F	1.415793	0.314163	1.370023
F376	F	1.665793	0.564163	1.620023
F377	F	0.473412	-0.313501	0.418652
F378	F	0.723412	-0.063501	0.668652
F379	F	0.973412	0.186499	0.918652
F380	F	1.223412	0.436499	1.168652
H381	H	0.978105	-0.542633	0.229519
H382	H	1.228105	-0.292633	0.479519
H383	H	1.478105	-0.042633	0.729519
H384	H	1.728105	0.207367	0.979519
F385	F	0.988276	-0.935246	0.219579
F386	F	1.238276	-0.685246	0.469579
F387	F	1.488276	-0.435246	0.719579
F388	F	1.738276	-0.185246	0.969579
H389	H	0.832775	-0.375947	0.944885
H390	H	1.082775	-0.125947	1.194885
H391	H	1.332775	0.124053	1.444885
H392	H	1.582775	0.374053	1.694885
F393	F	0.988179	-0.670113	0.219538
F394	F	1.238179	-0.420113	0.469538
F395	F	1.488179	-0.170113	0.719538
F396	F	1.738179	0.079887	0.969538
H397	H	0.832694	-0.661996	0.374760
H398	H	1.082694	-0.411996	0.624760
H399	H	1.332694	-0.161996	0.874760
H400	H	1.582694	0.088004	1.124760
F401	F	0.988292	-0.219778	0.936823
F402	F	1.238292	0.030222	1.186823
F403	F	1.488292	0.280222	1.436823
F404	F	1.738292	0.530222	1.686823
H405	H	0.978261	-0.229795	1.063704
H406	H	1.228261	0.020205	1.313704
H407	H	1.478261	0.270205	1.563704
H408	H	1.728261	0.520205	1.813704
F409	F	0.895261	-0.420055	0.734928
F410	F	1.145261	-0.170055	0.984928
F411	F	1.395261	0.079945	1.234928
F412	F	1.645261	0.329945	1.484928
H413	H	0.263297	-0.376183	0.374777
H414	H	0.513297	-0.126183	0.624777
H415	H	0.763297	0.123817	0.874777
H416	H	1.013297	0.373817	1.124777
H417	H	0.832649	-0.542724	0.374747
H418	H	1.082649	-0.292724	0.624747
H419	H	1.332649	-0.042724	0.874747
H420	H	1.582649	0.207276	1.124747
F421	F	0.988338	-1.070950	0.219617
F422	F	1.238338	-0.820950	0.469617
F423	F	1.488338	-0.570950	0.719617
F424	F	1.738338	-0.320950	0.969617
F425	F	0.136410	-0.386231	0.384828
F426	F	0.386410	-0.136231	0.634828
F427	F	0.636410	0.113769	0.884828
F428	F	0.886410	0.363769	1.134828
F429	F	0.822742	-0.386105	0.668130
F430	F	1.072742	-0.136105	0.918130
F431	F	1.322742	0.113895	1.168130
F432	F	1.572742	0.363895	1.418130
F433	F	0.822731	-0.386150	0.533055
F434	F	1.072731	-0.136150	0.783055
F435	F	1.322731	0.113850	1.033055
F436	F	1.572731	0.363850	1.283055
