data_functionalizedCrystal
_audit_creation_method	'MofGen! by Chris Wilmer'
_symmetry_space_group_name_H-M	'P1'
_symmetry_Int_Tables_number	1
_symmetry_cell_setting	triclinic
loop_
_symmetry_equiv_pos_as_xyz
  x,y,z
_cell_length_a	14.971486
_cell_length_b	11.026607
_cell_length_c	13.448316
_cell_angle_alpha	89.996104
_cell_angle_beta	89.998199
_cell_angle_gamma	96.100073
loop_
_atom_site_label
_atom_site_type_symbol
_atom_site_fract_x
_atom_site_fract_y
_atom_site_fract_z
O1	O	1.212292	0.158181	-0.082572
O2	O	0.954927	0.177123	-0.082599
O3	O	1.062279	-0.009032	-0.082584
O4	O	1.104940	0.344336	-0.082587
O5	O	1.062260	-0.009044	0.082800
O6	O	0.954908	0.177112	0.082785
O7	O	1.212273	0.158169	0.082812
Cu8	Cu	1.083589	0.167639	0.097899
Cu9	Cu	1.083611	0.167653	-0.097686
O10	O	1.104921	0.344324	0.082797
C11	C	0.921457	0.176270	0.000090
C12	C	0.821753	0.173732	0.000079
C13	C	1.054400	-0.054260	0.000106
C14	C	1.030939	-0.189008	0.000100
C15	C	0.782051	0.283093	0.000080
C16	C	0.688368	0.280700	0.000095
C17	C	0.634389	0.168945	0.000102
C18	C	0.674098	0.059576	0.000105
C19	C	0.767779	0.061969	0.000097
C20	C	0.478837	0.054594	0.000118
C21	C	0.385150	0.052200	0.000124
C22	C	0.399426	0.273325	0.000116
C23	C	0.493107	0.275718	0.000109
C24	C	0.532809	0.166348	0.000109
C25	C	1.095719	-0.262720	0.000105
C26	C	1.071472	-0.401989	0.000099
C27	C	1.245743	0.159022	0.000121
C28	C	1.345447	0.161561	0.000125
C29	C	1.112800	0.389552	0.000105
C30	C	1.136261	0.524300	0.000104
N31	N	1.083579	0.167629	0.235463
N32	N	1.083626	0.167654	-0.235251
C33	C	1.131139	0.085233	0.287510
C34	C	1.131145	0.085232	0.391614
C35	C	1.083595	0.167634	0.443668
C36	C	1.036029	0.250033	0.391614
C37	C	1.036019	0.250028	0.287513
C38	C	1.036055	0.250042	0.608594
C39	C	1.036066	0.250049	0.712703
C40	C	1.131181	0.085246	0.712695
C41	C	1.131171	0.085241	0.608594
C42	C	1.083606	0.167642	0.556547
H43	H	0.825994	0.374096	0.000073
H44	H	0.957528	-0.229006	0.000086
C45	C	0.644699	0.400997	0.000092
H46	H	0.690263	0.467896	0.000074
H47	H	0.608454	0.404663	0.057769
H48	H	0.608447	0.404659	-0.057584
H49	H	0.341202	-0.038801	0.000131
H50	H	0.998057	-0.441982	0.000085
C51	C	1.235440	-0.421687	0.000124
H52	H	1.238728	-0.335168	0.000135
H53	H	1.264401	-0.448269	-0.057543
H54	H	1.264372	-0.448287	0.057810
H55	H	1.169864	0.018138	0.245134
H56	H	0.997308	0.317122	0.434003
C57	C	1.194891	-0.208699	0.000119
H58	H	1.198178	-0.122180	0.000128
H59	H	1.223850	-0.235282	-0.057549
H60	H	1.223829	-0.235295	0.057804
H61	H	1.169871	0.018139	0.433990
C62	C	1.183473	-0.005399	0.551335
H63	H	1.211795	-0.054482	0.597240
H64	H	1.227741	0.038347	0.510712
H65	H	1.143140	-0.056003	0.510738
H66	H	0.537055	0.366719	0.000093
C67	C	0.983708	0.340667	0.230261
H68	H	0.955397	0.389752	0.276171
H69	H	0.939430	0.296918	0.189660
H70	H	1.024030	0.391270	0.189642
C71	C	1.183493	-0.005403	0.769942
H72	H	1.176680	0.006388	0.839396
H73	H	1.245328	0.007912	0.752875
H74	H	1.160727	-0.086438	0.752885
H75	H	0.997345	0.317148	0.755080
C76	C	0.355758	0.393629	0.000118
H77	H	0.292234	0.376202	0.000135
H78	H	0.374039	0.439447	-0.057559
H79	H	0.374047	0.439448	0.057794
C80	C	0.983740	0.340686	0.551344
H81	H	0.955431	0.389773	0.597254
H82	H	0.939462	0.296943	0.510741
H83	H	1.024066	0.391286	0.510728
H84	H	0.511159	-0.034467	0.000120
H85	H	0.630141	-0.031417	0.000125
H86	H	0.800103	-0.027084	0.000096
