data_functionalizedCrystal
_audit_creation_method	'MofGen! by Chris Wilmer'
_symmetry_space_group_name_H-M	'P1'
_symmetry_Int_Tables_number	1
_symmetry_cell_setting	triclinic
loop_
_symmetry_equiv_pos_as_xyz
  x,y,z
_cell_length_a	25.639242
_cell_length_b	25.639240
_cell_length_c	12.759393
_cell_angle_alpha	90.043160
_cell_angle_beta	90.023696
_cell_angle_gamma	90.025061
loop_
_atom_site_label
_atom_site_type_symbol
_atom_site_fract_x
_atom_site_fract_y
_atom_site_fract_z
Zn1	Zn	0.799295	-0.208233	0.594005
Zn2	Zn	1.132628	0.125100	0.927338
Zn3	Zn	1.465961	0.458434	1.260671
Zn4	Zn	0.799213	-0.295678	0.418286
Zn5	Zn	1.132546	0.037655	0.751619
Zn6	Zn	1.465880	0.370989	1.084953
Zn7	Zn	0.711857	-0.208247	0.418331
Zn8	Zn	1.045190	0.125087	0.751665
Zn9	Zn	1.378524	0.458420	1.084998
Zn10	Zn	0.711825	-0.295627	0.593915
Zn11	Zn	1.045159	0.037706	0.927248
Zn12	Zn	1.378492	0.371039	1.260581
O13	O	0.755547	-0.251946	0.506134
O14	O	1.088881	0.081387	0.839468
O15	O	1.422214	0.414720	1.172801
O16	O	0.872449	-0.219848	0.570714
O17	O	1.205782	0.113485	0.904047
O18	O	1.539116	0.446819	1.237381
O19	O	0.787604	-0.284107	0.271271
O20	O	1.120937	0.049226	0.604604
O21	O	1.454271	0.382560	0.937938
O22	O	0.723503	-0.135080	0.441692
O23	O	1.056836	0.198254	0.775025
O24	O	1.390170	0.531587	1.108358
O25	O	0.872389	-0.284094	0.441614
O26	O	1.205722	0.049240	0.774947
O27	O	1.539056	0.382573	1.108281
O28	O	0.787743	-0.135069	0.570758
O29	O	1.121077	0.198264	0.904091
O30	O	1.454410	0.531597	1.237425
O31	O	0.723424	-0.219871	0.271304
O32	O	1.056757	0.113462	0.604638
O33	O	1.390090	0.446795	0.937971
O34	O	0.638687	-0.219822	0.441604
O35	O	0.972021	0.113511	0.774938
O36	O	1.305354	0.446844	1.108271
O37	O	0.723449	-0.284007	0.740948
O38	O	1.056783	0.049326	1.074281
O39	O	1.390116	0.382659	1.407615
O40	O	0.638664	-0.284021	0.570605
O41	O	0.971998	0.049313	0.903938
O42	O	1.305331	0.382646	1.237271
O43	O	0.787713	-0.219799	0.741014
O44	O	1.121046	0.113534	1.074347
O45	O	1.454379	0.446868	1.407681
O46	O	0.787573	-0.368836	0.441527
O47	O	1.120907	-0.035503	0.774860
O48	O	1.454240	0.297830	1.108194
O49	O	0.723370	-0.368799	0.570561
O50	O	1.056703	-0.035466	0.903894
O51	O	1.390037	0.297867	1.237227
C52	C	0.619705	-0.251918	0.506100
C53	C	0.953038	0.081415	0.839434
C54	C	1.286372	0.414749	1.172767
C55	C	0.561591	-0.251918	0.506111
C56	C	0.894924	0.081415	0.839444
C57	C	1.228258	0.414748	1.172777
C58	C	0.310437	-0.218553	0.573479
C59	C	0.643770	0.114780	0.906812
C60	C	0.977103	0.448114	1.240146
C61	C	0.365041	-0.218548	0.573473
C62	C	0.698374	0.114786	0.906806
C63	C	1.031708	0.448119	1.240140
O64	O	0.393311	-0.190156	0.630745
O65	O	0.726645	0.143177	0.964078
O66	O	1.059978	0.476510	1.297411
N67	N	0.392317	-0.251940	0.506146
N68	N	0.725650	0.081393	0.839480
N69	N	1.058984	0.414727	1.172813
C70	C	0.364986	-0.285344	0.438829
C71	C	0.698319	0.047990	0.772162
C72	C	1.031652	0.381323	1.105495
O73	O	0.393200	-0.313746	0.381562
O74	O	0.726533	0.019587	0.714895
O75	O	1.059867	0.352920	1.048229
C76	C	0.310382	-0.285351	0.438841
C77	C	0.643716	0.047982	0.772174
C78	C	0.977049	0.381316	1.105507
C79	C	0.283109	-0.251953	0.506164
C80	C	0.616443	0.081381	0.839498
C81	C	0.949776	0.414714	1.172831
C82	C	0.283164	-0.185158	0.640798
C83	C	0.616497	0.148176	0.974132
C84	C	0.949830	0.481509	1.307465
C85	C	0.228563	-0.185162	0.640803
C86	C	0.561896	0.148171	0.974136
C87	C	0.895230	0.481504	1.307469
C88	C	0.201236	-0.218562	0.573488
C89	C	0.534569	0.114771	0.906821
C90	C	0.867902	0.448105	1.240154
C91	C	0.228509	-0.251957	0.506169
C92	C	0.561842	0.081376	0.839502
C93	C	0.895175	0.414709	1.172835
C94	C	0.283052	-0.318757	0.371529
C95	C	0.616386	0.014577	0.704862
C96	C	0.949719	0.347910	1.038196
C97	C	0.228445	-0.318761	0.371547
C98	C	0.561779	0.014572	0.704881
C99	C	0.895112	0.347905	1.038214
C100	C	0.201172	-0.285363	0.438871
C101	C	0.534505	0.047970	0.772204
C102	C	0.867839	0.381303	1.105538
C103	C	0.146581	-0.285362	0.438858
C104	C	0.479914	0.047972	0.772192
C105	C	0.813248	0.381305	1.105525
N106	N	0.119305	-0.251969	0.506185
N107	N	0.452638	0.081364	0.839518
N108	N	0.785972	0.414697	1.172852
C109	C	0.146632	-0.218570	0.573500
C110	C	0.479966	0.114764	0.906833
C111	C	0.813299	0.448097	1.240167
C112	C	0.479656	-0.285326	0.438810
C113	C	0.812990	0.048007	0.772143
C114	C	1.146323	0.381341	1.105476
C115	C	0.534259	-0.285316	0.438792
C116	C	0.867592	0.048017	0.772125
C117	C	1.200925	0.381350	1.105458
C118	C	0.534310	-0.218521	0.573438
C119	C	0.867644	0.114812	0.906771
C120	C	1.200977	0.448145	1.240104
C121	C	0.479707	-0.218529	0.573450
C122	C	0.813040	0.114805	0.906783
C123	C	1.146374	0.448138	1.240117
C124	C	0.452380	-0.251934	0.506137
C125	C	0.785714	0.081400	0.839470
C126	C	1.119047	0.414733	1.172803
C127	C	0.031967	-0.218581	0.573503
C128	C	0.365301	0.114752	0.906837
C129	C	0.698634	0.448085	1.240170
C130	C	-0.022638	-0.218587	0.573499
C131	C	0.310695	0.114746	0.906832
C132	C	0.644029	0.448079	1.240165
C133	C	-0.022685	-0.285384	0.438857
C134	C	0.310648	0.047949	0.772190
C135	C	0.643982	0.381282	1.105523
C136	C	0.031916	-0.285377	0.438857
C137	C	0.365249	0.047957	0.772190
C138	C	0.698582	0.381290	1.105524
C139	C	0.059240	-0.251973	0.506189
C140	C	0.392574	0.081360	0.839522
C141	C	0.725907	0.414693	1.172855
O142	O	0.118276	-0.313740	0.381619
O143	O	0.451609	0.019593	0.714952
O144	O	0.784943	0.352927	1.048286
O145	O	0.118411	-0.190176	0.630767
O146	O	0.451745	0.143157	0.964100
O147	O	0.785078	0.476490	1.297433
C148	C	0.755474	-0.387789	0.506052
C149	C	1.088807	-0.054455	0.839385
C150	C	1.422140	0.278878	1.172719
C151	C	0.755490	-0.445903	0.506052
C152	C	1.088823	-0.112569	0.839385
C153	C	1.422156	0.220764	1.172719
C154	C	0.789014	-0.806222	0.573460
C155	C	1.122347	-0.472889	0.906794
C156	C	1.455681	-0.139555	1.240127
C157	C	0.789029	-0.860826	0.573482
C158	C	1.122363	-0.527493	0.906815
C159	C	1.455696	-0.194160	1.240148
O160	O	0.817445	-0.889026	0.630710
O161	O	1.150778	-0.555693	0.964044
O162	O	1.484112	-0.222359	1.297377
N163	N	0.755620	-0.888185	0.506236
N164	N	1.088953	-0.554852	0.839569
N165	N	1.422287	-0.221519	1.172902
C166	C	0.722189	-0.860937	0.438972
C167	C	1.055523	-0.527604	0.772305
C168	C	1.388856	-0.194270	1.105638
O169	O	0.693773	-0.889222	0.381776
O170	O	1.027106	-0.555888	0.715110
O171	O	1.360440	-0.222555	1.048443
C172	C	0.722172	-0.806334	0.438956
C173	C	1.055505	-0.473000	0.772290
C174	C	1.388838	-0.139667	1.105623
C175	C	0.755587	-0.778978	0.506199
C176	C	1.088920	-0.445644	0.839533
C177	C	1.422254	-0.112311	1.172866
C178	C	0.822426	-0.778866	0.640699
C179	C	1.155760	-0.445533	0.974032
C180	C	1.489093	-0.112199	1.307365
C181	C	0.822411	-0.724265	0.640676
C182	C	1.155745	-0.390932	0.974009
C183	C	1.489078	-0.057599	1.307342
C184	C	0.788984	-0.697021	0.573414
C185	C	1.122318	-0.363688	0.906748
C186	C	1.455651	-0.030354	1.240081
C187	C	0.755572	-0.724377	0.506176
C188	C	1.088905	-0.391044	0.839510
C189	C	1.422239	-0.057710	1.172843
C190	C	0.688739	-0.779086	0.371698
C191	C	1.022072	-0.445753	0.705032
C192	C	1.355405	-0.112420	1.038365
C193	C	0.688724	-0.724479	0.371689
C194	C	1.022057	-0.391146	0.705023
C195	C	1.355390	-0.057813	1.038356
C196	C	0.722139	-0.697123	0.438932
C197	C	1.055472	-0.363790	0.772266
C198	C	1.388806	-0.030457	1.105599
C199	C	0.722130	-0.642532	0.438892
C200	C	1.055463	-0.309199	0.772225
C201	C	1.388797	0.024135	1.105559
N202	N	0.755540	-0.615173	0.506138
N203	N	1.088873	-0.281840	0.839471
N204	N	1.422206	0.051493	1.172805
C205	C	0.788967	-0.642418	0.573399
C206	C	1.122300	-0.309084	0.906732
C207	C	1.455633	0.024249	1.240066
C208	C	0.722228	-0.975608	0.439010
C209	C	1.055562	-0.642274	0.772344
C210	C	1.388895	-0.308941	1.105677
C211	C	0.722248	-1.030210	0.439019
C212	C	1.055582	-0.696876	0.772353
C213	C	1.388915	-0.363543	1.105686
C214	C	0.789088	-1.030096	0.573531
C215	C	1.122421	-0.696762	0.906864
C216	C	1.455754	-0.363429	1.240198
C217	C	0.789070	-0.975492	0.573516
C218	C	1.122403	-0.642159	0.906849
C219	C	1.455737	-0.308826	1.240182
C220	C	0.755638	-0.948249	0.506256
C221	C	1.088971	-0.614915	0.839589
C222	C	1.422304	-0.281582	1.172923
C223	C	0.788933	-0.527753	0.573345
C224	C	1.122267	-0.194419	0.906678
C225	C	1.455600	0.138914	1.240012
C226	C	0.788917	-0.473147	0.573313
C227	C	1.122250	-0.139814	0.906646
C228	C	1.455584	0.193519	1.239980
C229	C	0.722076	-0.473266	0.438806
C230	C	1.055409	-0.139933	0.772139
C231	C	1.388742	0.193400	1.105472
C232	C	0.722094	-0.527867	0.438833
C233	C	1.055427	-0.194534	0.772167
C234	C	1.388760	0.138800	1.105500
C235	C	0.755524	-0.555109	0.506112
C236	C	1.088857	-0.221775	0.839445
C237	C	1.422191	0.111558	1.172778
O238	O	0.693728	-0.614298	0.381696
O239	O	1.027061	-0.280964	0.715029
O240	O	1.360394	0.052369	1.048362
O241	O	0.817373	-0.614126	0.630594
O242	O	1.150707	-0.280793	0.963928
O243	O	1.484040	0.052540	1.297261
C244	C	0.891920	-0.251975	0.506169
C245	C	1.225254	0.081358	0.839502
C246	C	1.558587	0.414692	1.172836
C247	C	0.950034	-0.251987	0.506184
C248	C	1.283368	0.081346	0.839517
C249	C	1.616701	0.414680	1.172850
C250	C	0.755587	-0.251896	0.780168
C251	C	1.088920	0.081437	1.113501
C252	C	1.422253	0.414771	1.446834
C253	C	0.755603	-0.251875	0.896945
C254	C	1.088937	0.081459	1.230278
C255	C	1.422270	0.414792	1.563611
C256	C	0.755636	-0.115573	0.506240
C257	C	1.088969	0.217760	0.839573
C258	C	1.422303	0.551094	1.172907
C259	C	0.755674	-0.057459	0.506285
C260	C	1.089007	0.275874	0.839618
C261	C	1.422340	0.609208	1.172952
C262	C	0.755539	-0.251958	0.233167
C263	C	1.088872	0.081375	0.566500
C264	C	1.422205	0.414708	0.899834
C265	C	0.755623	-0.251833	0.116391
C266	C	1.088957	0.081501	0.449724
C267	C	1.422290	0.414834	0.783057
C268	C	0.789068	-0.218436	0.951843
C269	C	1.122401	0.114897	1.285176
C270	C	1.455734	0.448231	1.618509
C271	C	0.789077	-0.218413	1.061567
C272	C	1.122410	0.114920	1.394900
C273	C	1.455743	0.448253	1.728233
C274	C	0.722155	-0.285273	1.061485
C275	C	1.055488	0.048061	1.394818
C276	C	1.388822	0.381394	1.728152
C277	C	0.722144	-0.285292	0.951763
C278	C	1.055477	0.048041	1.285096
C279	C	1.388811	0.381374	1.618430
C280	C	0.807814	-0.156729	1.211574
C281	C	1.141147	0.176604	1.544907
C282	C	1.474480	0.509937	1.878241
C283	C	0.841286	-0.123295	1.266476
C284	C	1.174620	0.210038	1.599809
C285	C	1.507953	0.543371	1.933142
C286	C	0.892305	-0.115286	1.230893
C287	C	1.225638	0.218047	1.564226
C288	C	1.558971	0.551381	1.897560
C289	C	0.909860	-0.140718	1.140410
C290	C	1.243194	0.192615	1.473743
C291	C	1.576527	0.525948	1.807077
C292	C	0.876391	-0.174156	1.085514
C293	C	1.209724	0.159177	1.418847
C294	C	1.543057	0.492510	1.752181
C295	C	0.825365	-0.182156	1.121095
C296	C	1.158699	0.151178	1.454428
C297	C	1.492032	0.484511	1.787762
C298	C	0.703412	-0.346977	0.801754
C299	C	1.036746	-0.013644	1.135087
C300	C	1.370079	0.319690	1.468420
C301	C	0.669945	-0.380418	0.746855
C302	C	1.003278	-0.047085	1.080189
C303	C	1.336611	0.286249	1.413522
C304	C	0.618926	-0.388433	0.782436
C305	C	0.952259	-0.055099	1.115770
C306	C	1.285592	0.278234	1.449103
C307	C	0.601372	-0.363009	0.872923
C308	C	0.934705	-0.029676	1.206256
C309	C	1.268038	0.303657	1.539589
C310	C	0.634839	-0.329568	0.927821
C311	C	0.968173	0.003765	1.261154
C312	C	1.301506	0.337098	1.594487
C313	C	0.685858	-0.321553	0.892232
C314	C	1.019191	0.011780	1.225566
C315	C	1.352524	0.345114	1.558899
H316	H	0.305408	-0.157959	0.695619
H317	H	0.638741	0.175374	1.028953
H318	H	0.972074	0.508707	1.362286
F319	F	0.061041	-0.183030	0.645165
F320	F	0.394374	0.150304	0.978498
F321	F	0.727707	0.483637	1.311832
H322	H	0.816311	-0.191224	0.907213
H323	H	1.149644	0.142110	1.240546
H324	H	1.482978	0.475443	1.573879
F325	F	-0.051778	-0.320928	0.367217
F326	F	0.281555	0.012406	0.700550
F327	F	0.614888	0.345739	1.033883
F328	F	0.653171	-0.808189	0.300131
F329	F	0.986505	-0.474856	0.633464
F330	F	1.319838	-0.141522	0.966797
F331	F	0.822601	-0.096230	1.362772
F332	F	1.155934	0.237104	1.696105
F333	F	1.489267	0.570437	2.029439
F334	F	0.450686	-0.182983	0.645105
F335	F	0.784019	0.150351	0.978439
F336	F	1.117352	0.483684	1.311772
H337	H	0.694915	-0.312481	1.106132
H338	H	1.028248	0.020852	1.439465
H339	H	1.361581	0.354185	1.772798
H340	H	0.694861	-0.451075	0.384039
H341	H	1.028194	-0.117742	0.717372
H342	H	1.361528	0.215591	1.050706
H343	H	0.816279	-0.953222	0.628271
H344	H	1.149613	-0.619889	0.961604
H345	H	1.482946	-0.286555	1.294938
H346	H	0.744955	-0.340450	0.772769
H347	H	1.078288	-0.007117	1.106103
H348	H	1.411622	0.326216	1.439436
F349	F	0.653139	-0.695488	0.300101
F350	F	0.986472	-0.362155	0.633434
F351	F	1.319805	-0.028821	0.966767
H352	H	0.816305	-1.052288	0.628301
H353	H	1.149638	-0.718955	0.961634
H354	H	1.482972	-0.385621	1.294967
F355	F	0.686646	-0.946618	0.367412
F356	F	1.019979	-0.613284	0.700745
F357	F	1.353312	-0.279951	1.034079
F358	F	0.199544	-0.149619	0.712466
F359	F	0.532877	0.183715	1.045799
F360	F	0.866210	0.517048	1.379133
F361	F	0.563404	-0.182974	0.645081
F362	F	0.896737	0.150359	0.978414
F363	F	1.230070	0.483693	1.311748
H364	H	0.684244	-0.401124	0.673183
H365	H	1.017577	-0.067790	1.006517
H366	H	1.350910	0.265543	1.339850
H367	H	-0.044841	-0.191388	0.628321
H368	H	0.288492	0.141945	0.961655
H369	H	0.621825	0.475279	1.294988
F370	F	0.563279	-0.320855	0.367119
F371	F	0.896612	0.012479	0.700452
F372	F	1.229946	0.345812	1.033786
F373	F	0.686536	-0.556982	0.367254
F374	F	1.019869	-0.223649	0.700587
F375	F	1.353203	0.109684	1.033920
H376	H	0.695044	-1.052478	0.384252
H377	H	1.028377	-0.719145	0.717586
H378	H	1.361710	-0.385812	1.050919
F379	F	0.450578	-0.320878	0.367151
F380	F	0.783911	0.012455	0.700484
F381	F	1.117245	0.345789	1.033818
F382	F	0.312067	-0.354298	0.299859
F383	F	0.645400	-0.020964	0.633193
F384	F	0.978733	0.312369	0.966526
F385	F	0.895072	-0.201223	0.989222
F386	F	1.228405	0.132110	1.322556
F387	F	1.561738	0.465444	1.655889
H388	H	0.054123	-0.312568	0.384027
H389	H	0.387456	0.020766	0.717361
H390	H	0.720789	0.354099	1.050694
F391	F	0.753511	-0.165245	1.249443
F392	F	1.086845	0.168089	1.582776
F393	F	1.420178	0.501422	1.916110
H394	H	0.620542	-0.308868	1.001500
H395	H	0.953876	0.024466	1.334833
H396	H	1.287209	0.357799	1.668167
F397	F	0.583311	-0.424033	0.724016
F398	F	0.916644	-0.090700	1.057350
F399	F	1.249977	0.242633	1.390683
F400	F	0.199366	-0.354320	0.299907
F401	F	0.532699	-0.020986	0.633240
F402	F	0.866032	0.312347	0.966574
H403	H	0.816129	-0.450876	0.628070
H404	H	1.149463	-0.117542	0.961403
H405	H	1.482796	0.215791	1.294737
H406	H	0.816152	-0.549926	0.628137
H407	H	1.149485	-0.216593	0.961470
H408	H	1.482819	0.116740	1.294803
F409	F	0.857974	-0.695158	0.712252
F410	F	1.191307	-0.361825	1.045585
F411	F	1.524640	-0.028491	1.378918
H412	H	0.849646	-0.801043	0.695477
H413	H	1.182980	-0.467709	1.028810
H414	H	1.516313	-0.134376	1.362144
F415	F	0.964165	-0.132199	1.102555
F416	F	1.297498	0.201135	1.435889
F417	F	1.630831	0.534468	1.769222
H418	H	0.919558	-0.088063	1.275602
H419	H	1.252891	0.245271	1.608935
H420	H	1.586225	0.578604	1.942268
F421	F	0.547072	-0.371540	0.910796
F422	F	0.880405	-0.038207	1.244130
F423	F	1.213738	0.295127	1.577463
