data_functionalizedCrystal
_audit_creation_method	'MofGen! by Chris Wilmer'
_symmetry_space_group_name_H-M	'P1'
_symmetry_Int_Tables_number	1
_symmetry_cell_setting	triclinic
loop_
_symmetry_equiv_pos_as_xyz
  x,y,z
_cell_length_a	13.033748
_cell_length_b	15.299816
_cell_length_c	13.033109
_cell_angle_alpha	105.397713
_cell_angle_beta	89.076084
_cell_angle_gamma	86.312231
loop_
_atom_site_label
_atom_site_type_symbol
_atom_site_fract_x
_atom_site_fract_y
_atom_site_fract_z
Zn1	Zn	1.694776	-0.219022	-0.419861
Zn2	Zn	2.194776	0.280978	0.080139
Zn3	Zn	1.702533	-0.352685	-0.270956
Zn4	Zn	2.202533	0.147315	0.229044
Zn5	Zn	1.502033	-0.223851	-0.270549
Zn6	Zn	2.002033	0.276149	0.229451
Zn7	Zn	1.560792	-0.390124	-0.471140
Zn8	Zn	2.060792	0.109876	0.028860
O9	O	1.615033	-0.296420	-0.358127
O10	O	2.115033	0.203580	0.141873
O11	O	1.835787	-0.219063	-0.378819
O12	O	2.335787	0.280937	0.121181
O13	O	1.654592	-0.321948	-0.124637
O14	O	2.154592	0.178052	0.375363
O15	O	1.499763	-0.097686	-0.268724
O16	O	1.999763	0.402314	0.231276
O17	O	1.841487	-0.317265	-0.269419
O18	O	2.341487	0.182735	0.230581
O19	O	1.641370	-0.094138	-0.378424
O20	O	2.141370	0.405862	0.121576
O21	O	1.507285	-0.227294	-0.124337
O22	O	2.007285	0.272706	0.375663
O23	O	1.369845	-0.263597	-0.318447
O24	O	1.869845	0.236403	0.181553
O25	O	1.599910	-0.381074	-0.610603
O26	O	2.099910	0.118926	-0.110603
O27	O	1.413015	-0.385757	-0.465821
O28	O	1.913015	0.114243	0.034179
O29	O	1.698347	-0.255366	-0.572929
O30	O	2.198347	0.244634	-0.072929
O31	O	1.711568	-0.483176	-0.319142
O32	O	2.211568	0.016824	0.180858
O33	O	1.607432	-0.510682	-0.466216
O34	O	2.107432	-0.010682	0.033784
C35	C	1.355134	-0.329264	-0.397655
C36	C	1.855134	0.170736	0.102345
C37	C	1.243957	-0.343339	-0.414594
C38	C	1.743957	0.156661	0.085406
C39	C	1.172999	-0.289100	-0.349316
C40	C	1.672999	0.210900	0.150684
C41	C	1.058091	-0.303645	-0.366821
C42	C	1.558091	0.196355	0.133179
C43	C	1.666749	-0.529475	-0.398306
C44	C	2.166749	-0.029475	0.101694
C45	C	1.688969	-0.629168	-0.415516
C46	C	2.188969	-0.129168	0.084484
C47	C	1.456927	-0.917829	-0.235379
C48	C	1.956927	-0.417829	0.264621
C49	C	1.436045	-0.824163	-0.219212
C50	C	1.936045	-0.324163	0.280788
C51	C	1.499275	-0.775410	-0.268287
C52	C	1.999275	-0.275410	0.231713
C53	C	1.583389	-0.820332	-0.333531
C54	C	2.083389	-0.320332	0.166469
C55	C	1.604269	-0.914008	-0.349705
C56	C	2.104269	-0.414008	0.150295
C57	C	1.646616	-0.771589	-0.382613
C58	C	2.146616	-0.271589	0.117387
C59	C	1.730731	-0.816511	-0.447857
C60	C	2.230731	-0.316511	0.052143
C61	C	1.751607	-0.910178	-0.464028
C62	C	2.251607	-0.410178	0.035972
C63	C	1.688377	-0.958931	-0.414954
C64	C	2.188377	-0.458931	0.085046
C65	C	1.625737	-0.677912	-0.366438
C66	C	2.125737	-0.177912	0.133562
C67	C	1.773078	-0.674091	-0.480765
C68	C	2.273078	-0.174091	0.019235
C69	C	1.793960	-0.767757	-0.496932
C70	C	2.293960	-0.267757	0.003068
C71	C	1.875948	-0.263449	-0.318445
C72	C	2.375948	0.236551	0.181555
C73	C	1.987134	-0.249398	-0.301535
C74	C	2.487134	0.250602	0.198465
C75	C	1.654818	-0.321857	-0.630751
C76	C	2.154818	0.178143	-0.130751
C77	C	1.671771	-0.332697	-0.746928
C78	C	2.171771	0.167303	-0.246928
C79	C	1.563147	-0.062455	-0.317809
C80	C	2.063147	0.437545	0.182191
C81	C	1.541036	0.037248	-0.300628
C82	C	2.041036	0.537248	0.199372
C83	C	1.606445	-0.290697	-0.798575
C84	C	2.106445	0.209303	-0.298575
C85	C	1.623966	-0.301899	-0.918649
C86	C	2.123966	0.198101	-0.418649
C87	C	1.575447	-0.271010	-0.086542
C88	C	2.075447	0.228990	0.413458
C89	C	1.558631	-0.259893	0.029707
C90	C	2.058631	0.240107	0.529707
H91	H	1.219636	-0.400546	-0.483437
H92	H	1.719636	0.099454	0.016563
Br93	Br	1.491615	-0.216925	-0.724116
Br94	Br	1.991615	0.283075	-0.224116
Br95	Br	1.511584	-0.616958	-0.277897
Br96	Br	2.011584	-0.116958	0.222103
Br97	Br	1.321883	-0.763207	-0.130688
Br98	Br	1.821883	-0.263207	0.369312
H99	H	1.405451	-0.957533	-0.195435
H100	H	1.905451	-0.457533	0.304565
Br101	Br	1.716914	-1.086002	-0.436611
Br102	Br	2.216914	-0.586002	0.063389
Br103	Br	1.786606	-0.406464	-0.821385
Br104	Br	2.286606	0.093536	-0.321385
H105	H	1.824563	-0.634397	-0.520728
H106	H	2.324563	-0.134397	-0.020728
H107	H	1.033776	-0.360856	-0.435670
H108	H	1.533776	0.139144	0.064330
Br109	Br	1.738806	-0.375670	-0.993103
Br110	Br	2.238806	0.124330	-0.493103
Br111	Br	1.443760	-0.186162	-0.895855
Br112	Br	1.943760	0.313838	-0.395855
H113	H	1.011448	-0.192192	-0.232680
H114	H	1.511448	0.307808	0.267320
Br115	Br	1.213524	-0.193756	-0.234557
Br116	Br	1.713524	0.306244	0.265443
H117	H	1.482268	-0.699143	-0.255119
H118	H	1.982268	-0.199143	0.244881
Br119	Br	1.865742	-0.971148	-0.552602
Br120	Br	2.365742	-0.471148	-0.052602
Br121	Br	1.908113	-0.828733	-0.585473
Br122	Br	2.408113	-0.328733	-0.085473
