data_functionalizedCrystal
_audit_creation_method	'MofGen! by Chris Wilmer'
_symmetry_space_group_name_H-M	'P1'
_symmetry_Int_Tables_number	1
_symmetry_cell_setting	triclinic
loop_
_symmetry_equiv_pos_as_xyz
  x,y,z
_cell_length_a	12.827892
_cell_length_b	12.827893
_cell_length_c	18.215399
_cell_angle_alpha	90.017515
_cell_angle_beta	90.023838
_cell_angle_gamma	90.015553
loop_
_atom_site_label
_atom_site_type_symbol
_atom_site_fract_x
_atom_site_fract_y
_atom_site_fract_z
Zn1	Zn	-0.416039	1.597653	0.416091
Zn2	Zn	0.083961	2.097653	0.916091
Zn3	Zn	-0.590799	1.597552	0.293034
Zn4	Zn	-0.090799	2.097552	0.793034
Zn5	Zn	-0.416073	1.422900	0.293044
Zn6	Zn	0.083927	1.922900	0.793044
Zn7	Zn	-0.590739	1.422880	0.416064
Zn8	Zn	-0.090739	1.922880	0.916064
O9	O	-0.503412	1.510246	0.354558
O10	O	-0.003412	2.010246	0.854558
O11	O	-0.439232	1.743876	0.399775
O12	O	0.060768	2.243876	0.899775
O13	O	-0.567659	1.574350	0.190051
O14	O	-0.067659	2.074350	0.690051
O15	O	-0.269832	1.446132	0.309382
O16	O	0.230168	1.946132	0.809382
O17	O	-0.567627	1.743802	0.309365
O18	O	-0.067627	2.243802	0.809365
O19	O	-0.269808	1.574522	0.399784
O20	O	0.230192	2.074522	0.899784
O21	O	-0.439289	1.446034	0.190058
O22	O	0.060711	1.946034	0.690058
O23	O	-0.439232	1.276661	0.309355
O24	O	0.060768	1.776661	0.809355
O25	O	-0.567526	1.446098	0.519052
O26	O	-0.067526	1.946098	1.019052
O27	O	-0.567559	1.276647	0.399738
O28	O	-0.067559	1.776647	0.899738
O29	O	-0.439175	1.574504	0.519072
O30	O	0.060825	2.074504	1.019072
O31	O	-0.737027	1.574331	0.309338
O32	O	-0.237027	2.074331	0.809338
O33	O	-0.736983	1.446000	0.399728
O34	O	-0.236983	1.946000	0.899728
C35	C	-0.503393	1.238736	0.354545
C36	C	-0.003393	1.738736	0.854545
C37	C	-0.503410	1.122583	0.354557
C38	C	-0.003410	1.622583	0.854557
C39	C	-0.567026	0.950775	0.399223
C40	C	-0.067026	1.450775	0.899223
C41	C	-0.567010	1.070825	0.399212
C42	C	-0.067010	1.570825	0.899212
C43	C	-0.774922	1.510181	0.354545
C44	C	-0.274922	2.010181	0.854545
C45	C	-0.891075	1.510249	0.354564
C46	C	-0.391075	2.010249	0.854564
C47	C	-0.942847	1.573826	0.309886
C48	C	-0.442847	2.073826	0.809886
C49	C	-1.062897	1.573898	0.309905
C50	C	-0.562897	2.073898	0.809905
C51	C	-0.230842	1.510340	0.354587
C52	C	0.269158	2.010340	0.854587
C53	C	-0.114689	1.510381	0.354600
C54	C	0.385311	2.010381	0.854600
C55	C	-0.503340	1.510310	0.546511
C56	C	-0.003340	2.010310	1.046511
C57	C	-0.503310	1.510337	0.628310
C58	C	-0.003310	2.010337	1.128310
C59	C	-0.503433	1.782816	0.354572
C60	C	-0.003433	2.282816	0.854572
C61	C	-0.503441	1.898970	0.354578
C62	C	-0.003441	2.398970	0.854578
C63	C	-0.503409	1.510243	0.163352
C64	C	-0.003409	2.010243	0.663352
C65	C	-0.503145	1.510418	0.081553
C66	C	-0.003145	2.010418	0.581553
C67	C	-0.436415	1.577222	0.816516
C68	C	0.063585	2.077222	1.316516
C69	C	-0.436384	1.577234	0.893375
C70	C	0.063616	2.077234	1.393375
C71	C	-0.570043	1.443526	0.893342
C72	C	-0.070043	1.943526	1.393342
C73	C	-0.570068	1.443509	0.816485
C74	C	-0.070068	1.943509	1.316485
C75	C	-0.503255	1.510363	0.778074
C76	C	-0.003255	2.010363	1.278074
C77	C	-0.503200	1.510392	0.931790
C78	C	-0.003200	2.010392	1.431790
C79	C	-0.503167	1.510405	1.015124
C80	C	-0.003167	2.010405	1.515124
C81	C	-0.503286	1.510349	0.694735
C82	C	-0.003286	2.010349	1.194735
H83	H	-0.448966	1.078039	0.316336
H84	H	0.051034	1.578039	0.816336
F85	F	-0.365250	1.648401	0.934284
F86	F	0.134750	2.148401	1.434284
H87	H	-0.624442	1.389099	0.924626
H88	H	-0.124442	1.889099	1.424626
H89	H	-1.107420	1.628326	0.271653
H90	H	-0.607420	2.128326	0.771653
F91	F	-0.432275	0.957161	0.304603
F92	F	0.067725	1.457161	0.804603
H93	H	-0.624496	1.389058	0.785184
H94	H	-0.124496	1.889058	1.285184
F95	F	-1.056506	1.439224	0.404596
F96	F	-0.556506	1.939224	0.904596
F97	F	-0.949304	1.439175	0.404584
F98	F	-0.449304	1.939175	0.904584
H99	H	-0.382008	1.631655	0.785244
H100	H	0.117992	2.131655	1.285244
F101	F	-0.638160	1.129053	0.449176
F102	F	-0.138160	1.629053	0.949176
H103	H	-0.621479	0.906250	0.437450
H104	H	-0.121479	1.406250	0.937450
H105	H	-0.898296	1.628209	0.271624
H106	H	-0.398296	2.128209	0.771624
