data_functionalizedCrystal
_audit_creation_method	'MofGen! by Chris Wilmer'
_symmetry_space_group_name_H-M	'P1'
_symmetry_Int_Tables_number	1
_symmetry_cell_setting	triclinic
loop_
_symmetry_equiv_pos_as_xyz
  x,y,z
_cell_length_a	29.839134
_cell_length_b	29.839131
_cell_length_c	18.215398
_cell_angle_alpha	89.971652
_cell_angle_beta	89.968619
_cell_angle_gamma	90.034165
loop_
_atom_site_label
_atom_site_type_symbol
_atom_site_fract_x
_atom_site_fract_y
_atom_site_fract_z
Zn1	Zn	0.686751	-0.178956	-0.416335
Zn2	Zn	1.186751	0.321044	0.083665
Zn3	Zn	0.686674	-0.254082	-0.293262
Zn4	Zn	1.186674	0.245918	0.206738
Zn5	Zn	0.611624	-0.178957	-0.293257
Zn6	Zn	1.111624	0.321043	0.206743
Zn7	Zn	0.611582	-0.254050	-0.416262
Zn8	Zn	1.111582	0.245950	0.083738
O9	O	0.649158	-0.216511	-0.354779
O10	O	1.149158	0.283489	0.145221
O11	O	0.749608	-0.188934	-0.400042
O12	O	1.249608	0.311066	0.099958
O13	O	0.676704	-0.244130	-0.190277
O14	O	1.176704	0.255870	0.309723
O15	O	0.621640	-0.116090	-0.309611
O16	O	1.121640	0.383910	0.190389
O17	O	0.749551	-0.244129	-0.309621
O18	O	1.249551	0.255871	0.190379
O19	O	0.676836	-0.116089	-0.400037
O20	O	1.176836	0.383911	0.099963
O21	O	0.621566	-0.188937	-0.190273
O22	O	1.121566	0.311063	0.309727
O23	O	0.548752	-0.188906	-0.309540
O24	O	1.048752	0.311094	0.190460
O25	O	0.621567	-0.244075	-0.519256
O26	O	1.121567	0.255925	-0.019256
O27	O	0.548720	-0.244076	-0.399912
O28	O	1.048720	0.255924	0.100088
O29	O	0.676794	-0.188904	-0.519309
O30	O	1.176794	0.311096	-0.019309
O31	O	0.676662	-0.316945	-0.309550
O32	O	1.176662	0.183055	0.190450
O33	O	0.621492	-0.316922	-0.399917
O34	O	1.121492	0.183078	0.100083
C35	C	0.532435	-0.216488	-0.354718
C36	C	1.032435	0.283512	0.145282
C37	C	0.482501	-0.216489	-0.354709
C38	C	0.982501	0.283511	0.145291
C39	C	0.125918	-0.187742	-0.307819
C40	C	0.625918	0.312258	0.192181
C41	C	0.313591	-0.187729	-0.307774
C42	C	0.813591	0.312271	0.192226
O43	O	0.337858	-0.163249	-0.267837
O44	O	0.837858	0.336751	0.232163
N45	N	0.337056	-0.216496	-0.354746
N46	N	0.837056	0.283504	0.145254
C47	C	0.313599	-0.245266	-0.401737
C48	C	0.813599	0.254734	0.098263
O49	O	0.337864	-0.269731	-0.441694
O50	O	0.837864	0.230269	0.058306
C51	C	0.125927	-0.245277	-0.401785
C52	C	0.625927	0.254723	0.098215
C53	C	0.102465	-0.216511	-0.354804
C54	C	0.602465	0.283489	0.145196
C55	C	0.102455	-0.158978	-0.260842
C56	C	0.602455	0.341022	0.239158
C57	C	0.055539	-0.158983	-0.260851
C58	C	0.555539	0.341017	0.239149
C59	C	0.032087	-0.187752	-0.307836
C60	C	0.532087	0.312248	0.192164
C61	C	0.055549	-0.216516	-0.354813
C62	C	0.555549	0.283484	0.145187
C63	C	0.102472	-0.274044	-0.448778
C64	C	0.602472	0.225956	0.051222
C65	C	0.055551	-0.274043	-0.448787
C66	C	0.555551	0.225957	0.051213
C67	C	0.032088	-0.245278	-0.401806
C68	C	0.532088	0.254722	0.098194
C69	C	-0.014819	-0.245290	-0.401807
C70	C	0.485181	0.254710	0.098193
N71	N	-0.038284	-0.216523	-0.354834
N72	N	0.461716	0.283477	0.145166
C73	C	-0.014831	-0.187754	-0.307849
C74	C	0.485169	0.312246	0.192151
C75	C	0.412130	-0.245260	-0.401707
C76	C	0.912130	0.254740	0.098293
C77	C	0.459048	-0.245258	-0.401694
C78	C	0.959048	0.254742	0.098306
C79	C	0.459036	-0.187720	-0.307732
C80	C	0.959036	0.312280	0.192268
C81	C	0.412117	-0.187724	-0.307742
C82	C	0.912117	0.312276	0.192258
C83	C	0.388665	-0.216493	-0.354735
C84	C	0.888665	0.283507	0.145265
C85	C	-0.113357	-0.187767	-0.307871
C86	C	0.386643	0.312233	0.192129
C87	C	-0.160277	-0.187776	-0.307881
C88	C	0.339723	0.312224	0.192119
C89	C	-0.160260	-0.245313	-0.401846
C90	C	0.339740	0.254687	0.098154
C91	C	-0.113345	-0.245305	-0.401833
C92	C	0.386655	0.254695	0.098167
C93	C	-0.089894	-0.216529	-0.354842
C94	C	0.410106	0.283471	0.145158
O95	O	-0.039116	-0.269754	-0.441728
O96	O	0.460884	0.230246	0.058272
O97	O	-0.039104	-0.163286	-0.267909
O98	O	0.460896	0.336714	0.232091
C99	C	0.172833	-0.187737	-0.307810
C100	C	0.672833	0.312263	0.192190
C101	C	0.196296	-0.216500	-0.354786
C102	C	0.696296	0.283500	0.145214
C103	C	0.172843	-0.245269	-0.401771
C104	C	0.672843	0.254731	0.098229
C105	C	0.243213	-0.216498	-0.354773
C106	C	0.743213	0.283502	0.145227
C107	C	0.266666	-0.187729	-0.307788
C108	C	0.766666	0.312271	0.192212
C109	C	0.243201	-0.158962	-0.260816
C110	C	0.743201	0.341038	0.239184
C111	C	0.196286	-0.158968	-0.260825
C112	C	0.696286	0.341032	0.239175
C113	C	0.196308	-0.274036	-0.448744
C114	C	0.696308	0.225964	0.051256
C115	C	0.243223	-0.274029	-0.448731
C116	C	0.743223	0.225971	0.051269
C117	C	0.266676	-0.245260	-0.401745
C118	C	0.766676	0.254740	0.098255
C119	C	0.649077	-0.333234	-0.354742
C120	C	1.149077	0.166766	0.145258
C121	C	0.649083	-0.383168	-0.354751
C122	C	1.149083	0.116832	0.145249
C123	C	0.677937	-0.692811	-0.307793
C124	C	1.177937	-0.192811	0.192207
C125	C	0.677992	-0.880484	-0.307822
C126	C	1.177992	-0.380484	0.192178
O127	O	0.702461	-0.904749	-0.267869
O128	O	1.202461	-0.404749	0.232131
N129	N	0.649251	-0.903953	-0.354834
N130	N	1.149251	-0.403953	0.145166
C131	C	0.620495	-0.880501	-0.401846
C132	C	1.120495	-0.380501	0.098154
O133	O	0.596054	-0.904770	-0.441839
O134	O	1.096054	-0.404770	0.058161
C135	C	0.620443	-0.692829	-0.401821
C136	C	1.120443	-0.192829	0.098179
C137	C	0.649183	-0.669363	-0.354800
C138	C	1.149183	-0.169363	0.145200
C139	C	0.706675	-0.669345	-0.260777
C140	C	1.206675	-0.169345	0.239223
C141	C	0.706659	-0.622429	-0.260768
C142	C	1.206659	-0.122429	0.239232
C143	C	0.677905	-0.598980	-0.307774
C144	C	1.177905	-0.098980	0.192226
C145	C	0.649167	-0.622447	-0.354791
C146	C	1.149167	-0.122447	0.145209
C147	C	0.591690	-0.669378	-0.448836
C148	C	1.091690	-0.169378	0.051164
C149	C	0.591680	-0.622457	-0.448827
C150	C	1.091680	-0.122457	0.051173
C151	C	0.620420	-0.598990	-0.401806
C152	C	1.120420	-0.098990	0.098194
C153	C	0.620397	-0.552083	-0.401788
C154	C	1.120397	-0.052083	0.098212
N155	N	0.649139	-0.528614	-0.354776
N156	N	1.149139	-0.028614	0.145224
C157	C	0.677893	-0.552063	-0.307769
C158	C	1.177893	-0.052063	0.192231
C159	C	0.620525	-0.979032	-0.401855
C160	C	1.120525	-0.479032	0.098145
C161	C	0.620537	-1.025950	-0.401861
C162	C	1.120537	-0.525950	0.098139
C163	C	0.678035	-1.025930	-0.307837
C164	C	1.178035	-0.525930	0.192163
C165	C	0.678020	-0.979011	-0.307829
C166	C	1.178020	-0.479011	0.192171
C167	C	0.649266	-0.955563	-0.354843
C168	C	1.149266	-0.455563	0.145157
C169	C	0.677857	-0.453537	-0.307752
C170	C	1.177857	0.046463	0.192248
C171	C	0.677837	-0.406617	-0.307745
C172	C	1.177837	0.093383	0.192255
C173	C	0.620341	-0.406642	-0.401770
C174	C	1.120341	0.093358	0.098230
C175	C	0.620359	-0.453557	-0.401775
C176	C	1.120359	0.046443	0.098225
C177	C	0.649121	-0.477004	-0.354764
C178	C	1.149121	0.022996	0.145236
O179	O	0.595945	-0.527790	-0.441726
O180	O	1.095945	-0.027790	0.058274
O181	O	0.702338	-0.527786	-0.267794
O182	O	1.202338	-0.027786	0.232206
C183	C	0.677953	-0.739727	-0.307803
C184	C	1.177953	-0.239727	0.192197
C185	C	0.649215	-0.763193	-0.354819
C186	C	1.149215	-0.263193	0.145181
C187	C	0.620460	-0.739745	-0.401826
C188	C	1.120460	-0.239745	0.098174
C189	C	0.649227	-0.810111	-0.354825
C190	C	1.149227	-0.310111	0.145175
C191	C	0.677981	-0.833560	-0.307818
C192	C	1.177981	-0.333560	0.192182
C193	C	0.706723	-0.810091	-0.260806
C194	C	1.206723	-0.310091	0.239194
C195	C	0.706707	-0.763175	-0.260796
C196	C	1.206707	-0.263175	0.239204
C197	C	0.591719	-0.763214	-0.448838
C198	C	1.091719	-0.263214	0.051162
C199	C	0.591737	-0.810129	-0.448843
C200	C	1.091737	-0.310129	0.051157
C201	C	0.620491	-0.833578	-0.401837
C202	C	1.120491	-0.333578	0.098163
C203	C	0.766336	-0.216535	-0.354840
C204	C	1.266336	0.283465	0.145160
C205	C	0.816270	-0.216545	-0.354867
C206	C	1.316270	0.283455	0.145133
C207	C	0.649184	-0.216486	-0.546732
C208	C	1.149184	0.283514	-0.046732
C209	C	0.649196	-0.216475	-0.628531
C210	C	1.149196	0.283525	-0.128531
C211	C	0.649251	-0.099333	-0.354832
C212	C	1.149251	0.400667	0.145168
C213	C	0.649291	-0.049399	-0.354854
C214	C	1.149291	0.450601	0.145146
C215	C	0.677927	-0.245159	-0.893595
C216	C	1.177927	0.254841	-0.393595
C217	C	0.677920	-0.245174	-0.816736
C218	C	1.177920	0.254826	-0.316736
C219	C	0.620499	-0.187704	-0.816715
C220	C	1.120499	0.312296	-0.316715
C221	C	0.620503	-0.187691	-0.893573
C222	C	1.120503	0.312309	-0.393573
C223	C	0.649220	-0.216418	-0.932010
C224	C	1.149220	0.283582	-0.432010
C225	C	0.649208	-0.216446	-0.778294
C226	C	1.149208	0.283554	-0.278294
C227	C	0.649201	-0.216463	-0.694961
C228	C	1.149201	0.283537	-0.194961
C229	C	0.649227	-0.216402	-1.015350
C230	C	1.149227	0.283598	-0.515350
C231	C	0.649157	-0.216505	-0.163573
C232	C	1.149157	0.283495	0.336427
C233	C	0.649233	-0.216389	-0.081774
C234	C	1.149233	0.283611	0.418226
H235	H	0.036459	-0.297469	-0.487058
H236	H	0.536459	0.202531	0.012942
H237	H	0.568284	-0.688477	-0.487122
H238	H	1.068284	-0.188477	0.012878
F239	F	0.030575	-0.128363	-0.210853
F240	F	0.530575	0.371637	0.289147
H241	H	0.597119	-0.164315	-0.785410
H242	H	1.097119	0.335685	-0.285410
F243	F	-0.185245	-0.157159	-0.257875
F244	F	0.314755	0.342841	0.242125
H245	H	0.568329	-0.829232	-0.487132
H246	H	1.068329	-0.329232	0.012868
F247	F	0.737298	-0.738206	-0.210752
F248	F	1.237298	-0.238206	0.289248
F249	F	0.561076	-0.597505	-0.498869
F250	F	1.061076	-0.097505	0.001131
H251	H	0.568304	-0.744126	-0.487118
H252	H	1.068304	-0.244126	0.012882
H253	H	0.597125	-0.164286	-0.924851
H254	H	1.097125	0.335714	-0.424851
H255	H	-0.094269	-0.164333	-0.269610
H256	H	0.405731	0.335667	0.230390
H257	H	0.701309	-0.268550	-0.924889
H258	H	1.201309	0.231450	-0.424889
F259	F	-0.185229	-0.275934	-0.451840
F260	F	0.314771	0.224066	0.048160
H261	H	0.596958	-0.472665	-0.440066
H262	H	1.096958	0.027335	0.059934
F263	F	0.127433	-0.304661	-0.498783
F264	F	0.627433	0.195339	0.001217
H265	H	0.701296	-0.268578	-0.785462
H266	H	1.201296	0.231422	-0.285462
H267	H	0.121545	-0.135548	-0.222581
H268	H	0.621545	0.364452	0.277419
F269	F	0.589742	-0.381677	-0.451798
F270	F	1.089742	0.118323	0.048202
H271	H	0.597109	-0.959944	-0.440141
H272	H	1.097109	-0.459944	0.059859
F273	F	0.387151	-0.157108	-0.257740
F274	F	0.887151	0.342892	0.242260
F275	F	0.737324	-0.835055	-0.210776
F276	F	1.237324	-0.335055	0.289224
H277	H	0.478147	-0.268687	-0.439943
H278	H	0.978147	0.231313	0.060057
F279	F	0.484004	-0.157102	-0.257726
F280	F	0.984004	0.342898	0.242274
F281	F	0.171354	-0.304658	-0.498754
F282	F	0.671354	0.195342	0.001246
H283	H	0.393040	-0.268688	-0.439976
H284	H	0.893040	0.231312	0.060024
H285	H	-0.094241	-0.268732	-0.440082
H286	H	0.405759	0.231268	0.059918
H287	H	0.177187	-0.135543	-0.222569
H288	H	0.677187	0.364457	0.277431
H289	H	0.262322	-0.297458	-0.486987
H290	H	0.762322	0.202542	0.013013
F291	F	0.268170	-0.128346	-0.210808
F292	F	0.768170	0.371654	0.289192
F293	F	0.708427	-0.381645	-0.257696
F294	F	1.208427	0.118355	0.242304
H295	H	0.730063	-0.603325	-0.222482
H296	H	1.230063	-0.103325	0.277518
F297	F	0.708468	-0.478484	-0.257717
F298	F	1.208468	0.021516	0.242283
F299	F	0.737283	-0.694293	-0.210743
F300	F	1.237283	-0.194293	0.289257
H301	H	0.701423	-0.959907	-0.269541
H302	H	1.201423	-0.459907	0.230459
H303	H	0.701448	-1.045029	-0.269563
H304	H	1.201448	-0.545029	0.230437
H305	H	0.597130	-1.045052	-0.440143
H306	H	1.097130	-0.545052	0.059857
