data_functionalizedCrystal
_audit_creation_method	'MofGen! by Chris Wilmer'
_symmetry_space_group_name_H-M	'P1'
_symmetry_Int_Tables_number	1
_symmetry_cell_setting	triclinic
loop_
_symmetry_equiv_pos_as_xyz
  x,y,z
_cell_length_a	11.026607
_cell_length_b	15.944551
_cell_length_c	10.065875
_cell_angle_alpha	98.788968
_cell_angle_beta	79.302338
_cell_angle_gamma	96.042377
loop_
_atom_site_label
_atom_site_type_symbol
_atom_site_fract_x
_atom_site_fract_y
_atom_site_fract_z
O1	O	1.627949	0.342077	-0.113512
O2	O	1.274640	0.302024	-0.113511
O3	O	1.460941	0.201235	-0.113499
O4	O	1.441648	0.442866	-0.113524
O5	O	1.425416	0.220553	0.113487
O6	O	1.239115	0.321342	0.113475
O7	O	1.592424	0.361394	0.113475
Zn8	Zn	1.410129	0.344435	0.149514
Zn9	Zn	1.456935	0.318983	-0.149550
O10	O	1.406123	0.462183	0.113463
C11	C	1.211666	0.304294	-0.000018
C12	C	1.076950	0.282267	-0.000017
C13	C	1.003150	0.343086	-0.000024
C14	C	0.863914	0.320322	-0.000024
C15	C	1.442377	0.179479	-0.000006
C16	C	1.439975	0.085870	-0.000005
C17	C	1.318759	-0.147313	-0.000024
C18	C	1.357533	-0.190296	0.111894
C19	C	1.435632	-0.085514	-0.000015
C20	C	1.392586	-0.209321	-0.111896
C21	C	1.431429	-0.251063	-0.000031
C22	C	1.474424	-0.127256	0.111995
C23	C	1.509476	-0.146286	-0.111896
C24	C	1.548331	-0.189236	0.000049
C25	C	1.438050	0.009855	-0.000005
C26	C	1.429019	-0.346429	-0.000032
C27	C	1.655399	0.359124	-0.000022
C28	C	1.790116	0.381150	-0.000031
C29	C	1.424687	0.483939	-0.000034
C30	C	1.427090	0.577548	-0.000043
N31	N	1.378194	0.361806	0.353617
N32	N	1.488879	0.301607	-0.353654
C33	C	1.445816	0.325021	0.421401
C34	C	1.421248	0.338398	0.578566
H35	H	1.037057	0.213342	-0.000045
H36	H	1.221730	-0.128661	0.000088
O37	O	1.579666	0.252160	0.577000
C38	C	1.637791	0.220574	0.670543
H39	H	1.572176	0.220804	0.772449
H40	H	1.725721	0.262634	0.685665
C41	C	1.751725	0.128662	0.489476
C42	C	1.671133	0.128938	0.614636
H43	H	1.772298	0.072138	0.454989
H44	H	1.712570	0.149944	0.426453
H45	H	1.824992	0.163716	0.502095
H46	H	1.597863	0.093892	0.602013
H47	H	1.710277	0.107647	0.677656
O48	O	1.280720	-0.213580	0.224671
C49	C	1.159792	-0.192481	0.224295
H50	H	1.148673	-0.187761	0.115385
H51	H	1.143053	-0.128721	0.290623
C52	C	1.078983	-0.267739	0.415170
C53	C	1.065324	-0.261948	0.281403
H54	H	1.020709	-0.310586	0.450403
H55	H	1.160455	-0.281951	0.415428
H56	H	1.065037	-0.214600	0.470426
H57	H	1.079285	-0.315082	0.226146
H58	H	0.983851	-0.247746	0.281138
H59	H	1.043047	0.412009	-0.000024
O60	O	1.287267	0.411079	0.423122
C61	C	1.172465	0.376503	0.388307
H62	H	1.177721	0.305811	0.348940
H63	H	1.149879	0.410728	0.305478
C64	C	1.064017	0.474817	0.563695
C65	C	1.070469	0.387991	0.515354
H66	H	1.001099	0.481906	0.642061
H67	H	1.141361	0.498114	0.587148
H68	H	1.045200	0.503328	0.494659
H69	H	1.089301	0.359483	0.584383
H70	H	0.993126	0.364688	0.491915
H71	H	0.824027	0.251392	-0.000052
O72	O	1.664184	-0.211324	-0.000149
C73	C	1.701191	-0.268911	-0.118244
H74	H	1.646260	-0.261125	-0.200413
H75	H	1.683039	-0.336817	-0.092590
C76	C	1.907806	-0.260164	-0.069984
C77	C	1.840346	-0.250596	-0.170909
H78	H	1.993644	-0.248870	-0.102468
H79	H	1.882873	-0.221369	0.009583
H80	H	1.892665	-0.316753	-0.048614
H81	H	1.855475	-0.194005	-0.192264
H82	H	1.865285	-0.289381	-0.250480
O83	O	1.585911	-0.123023	-0.224915
C84	C	1.542423	-0.165261	-0.342686
H85	H	1.439290	-0.184701	-0.315872
H86	H	1.594713	-0.224438	-0.383519
C87	C	1.690268	-0.081327	-0.485329
C88	C	1.563596	-0.105197	-0.452397
H89	H	1.703333	-0.044279	-0.553007
H90	H	1.719571	-0.052872	-0.405985
H91	H	1.733828	-0.130647	-0.519349
H92	H	1.520040	-0.055878	-0.418363
H93	H	1.534286	-0.133642	-0.531738
H94	H	1.508991	-0.091738	0.206717
H95	H	1.521895	0.283620	0.363081
O96	O	1.351292	-0.251676	-0.224877
C97	C	1.323455	-0.192518	-0.303421
H98	H	1.377530	-0.128828	-0.278584
H99	H	1.220006	-0.183823	-0.278694
C100	C	1.293327	-0.303902	-0.486674
C101	C	1.359752	-0.225679	-0.456178
H102	H	1.315711	-0.324358	-0.580902
H103	H	1.312077	-0.343759	-0.433757
H104	H	1.207125	-0.296646	-0.466058
H105	H	1.445952	-0.232939	-0.476777
H106	H	1.341018	-0.185824	-0.509102
O107	O	0.837607	0.463412	0.000197
C108	C	0.779549	0.513634	0.117728
H109	H	0.740256	0.471467	0.199906
H110	H	0.701303	0.545791	0.091141
C111	C	0.923165	0.633806	0.070088
C112	C	0.874914	0.582017	0.171024
H113	H	0.981988	0.675990	0.102961
H114	H	0.962278	0.599972	-0.009098
H115	H	0.857950	0.660595	0.047941
H116	H	0.940127	0.555221	0.193157
H117	H	0.835815	0.615848	0.250216
O118	O	1.330400	0.387678	0.648277
C119	C	1.242461	0.338463	0.730926
H120	H	1.287234	0.281750	0.752185
H121	H	1.161272	0.314676	0.675960
C122	C	1.140603	0.463104	0.840629
C123	C	1.195598	0.393451	0.866749
H124	H	1.111690	0.497023	0.924408
H125	H	1.199846	0.496260	0.784944
H126	H	1.072953	0.443270	0.794821
H127	H	1.263255	0.413285	0.912540
H128	H	1.136365	0.360299	0.922445
