data_functionalizedCrystal
_audit_creation_method	'MofGen! by Chris Wilmer'
_symmetry_space_group_name_H-M	'P1'
_symmetry_Int_Tables_number	1
_symmetry_cell_setting	triclinic
loop_
_symmetry_equiv_pos_as_xyz
  x,y,z
_cell_length_a	21.395362
_cell_length_b	12.759400
_cell_length_c	21.395355
_cell_angle_alpha	89.986153
_cell_angle_beta	89.956060
_cell_angle_gamma	90.030564
loop_
_atom_site_label
_atom_site_type_symbol
_atom_site_fract_x
_atom_site_fract_y
_atom_site_fract_z
Zn1	Zn	0.957929	-0.417943	-0.354606
Zn2	Zn	1.457929	0.082057	0.145394
Zn3	Zn	0.957861	-0.593607	-0.249837
Zn4	Zn	1.457861	-0.093607	0.250163
Zn5	Zn	0.853144	-0.417992	-0.249807
Zn6	Zn	1.353144	0.082008	0.250193
Zn7	Zn	0.853143	-0.593629	-0.354542
Zn8	Zn	1.353143	-0.093629	0.145458
O9	O	0.905519	-0.505793	-0.302198
O10	O	1.405519	-0.005793	0.197802
O11	O	1.045598	-0.441215	-0.340747
O12	O	1.545598	0.058785	0.159253
O13	O	0.943942	-0.570323	-0.162155
O14	O	1.443942	-0.070323	0.337845
O15	O	0.867073	-0.270964	-0.263723
O16	O	1.367073	0.229036	0.236277
O17	O	1.045548	-0.570275	-0.263774
O18	O	1.545548	-0.070275	0.236226
O19	O	0.944058	-0.270928	-0.340719
O20	O	1.444058	0.229072	0.159281
O21	O	0.867007	-0.441299	-0.162133
O22	O	1.367007	0.058701	0.337867
O23	O	0.765466	-0.441320	-0.263661
O24	O	1.265466	0.058680	0.236339
O25	O	0.867071	-0.570312	-0.442228
O26	O	1.367071	-0.070312	0.057772
O27	O	0.765465	-0.570360	-0.340609
O28	O	1.265465	-0.070360	0.159391
O29	O	0.944057	-0.441236	-0.442275
O30	O	1.444057	0.058764	0.057725
O31	O	0.943941	-0.740631	-0.263712
O32	O	1.443941	-0.240631	0.236288
O33	O	0.867005	-0.740647	-0.340638
O34	O	1.367005	-0.240647	0.159362
C35	C	0.742732	-0.505848	-0.302125
C36	C	1.242732	-0.005848	0.197875
C37	C	0.673090	-0.505897	-0.302109
C38	C	1.173090	-0.005897	0.197891
C39	C	0.640393	-0.573177	-0.342116
C40	C	1.140393	-0.073177	0.157884
C41	C	0.574958	-0.573152	-0.342144
C42	C	1.074958	-0.073152	0.157856
C43	C	0.542222	-0.505857	-0.302154
C44	C	1.042222	-0.005857	0.197846
C45	C	0.574927	-0.438564	-0.262144
C46	C	1.074927	0.061436	0.237856
C47	C	0.640361	-0.438584	-0.262122
C48	C	1.140361	0.061416	0.237878
C49	C	0.438496	-0.497393	-0.245748
C50	C	0.938496	0.002607	0.254252
C51	C	0.373063	-0.497380	-0.245769
C52	C	0.873063	0.002620	0.254231
C53	C	0.340401	-0.505788	-0.302223
C54	C	0.840401	-0.005788	0.197777
C55	C	0.373181	-0.514231	-0.358657
C56	C	0.873181	-0.014231	0.141343
C57	C	0.438615	-0.514251	-0.358635
C58	C	0.938615	-0.014251	0.141365
C59	C	0.471270	-0.505827	-0.302174
C60	C	0.971270	-0.005827	0.197826
C61	C	0.236752	-0.573044	-0.342263
C62	C	0.736752	-0.073044	0.157737
C63	C	0.171315	-0.573011	-0.342292
C64	C	0.671315	-0.073011	0.157708
C65	C	0.171286	-0.438428	-0.262287
C66	C	0.671286	0.061572	0.237713
C67	C	0.236721	-0.438456	-0.262264
C68	C	0.736721	0.061544	0.237736
C69	C	0.269450	-0.505769	-0.302251
C70	C	0.769450	-0.005769	0.197749
C71	C	0.905482	-0.778760	-0.302185
C72	C	1.405482	-0.278760	0.197815
C73	C	0.905523	-0.895537	-0.302200
C74	C	1.405523	-0.395537	0.197800
C75	C	0.945629	-0.950355	-0.262189
C76	C	1.445629	-0.450355	0.237811
C77	C	0.945667	-1.060079	-0.262209
C78	C	1.445667	-0.560079	0.237791
C79	C	0.865490	-1.060156	-0.342252
C80	C	1.365490	-0.560156	0.157748
C81	C	0.865455	-0.950434	-0.342235
C82	C	1.365455	-0.450434	0.157765
C83	C	0.985697	-0.895458	-0.222154
C84	C	1.485697	-0.395458	0.277846
C85	C	1.025805	-0.950277	-0.182139
C86	C	1.525805	-0.450277	0.317861
C87	C	1.025843	-1.060001	-0.182159
C88	C	1.525843	-0.560001	0.317841
C89	C	0.985774	-1.114906	-0.222193
C90	C	1.485774	-0.614906	0.277807
C91	C	1.068943	-0.505738	-0.302271
C92	C	1.568943	-0.005738	0.197729
C93	C	1.138584	-0.505714	-0.302303
C94	C	1.638584	-0.005714	0.197697
C95	C	0.905571	-0.505771	-0.465621
C96	C	1.405571	-0.005771	0.034379
C97	C	0.905593	-0.505762	-0.535263
C98	C	1.405593	-0.005762	-0.035263
C99	C	0.905574	-0.231759	-0.302225
C100	C	1.405574	0.268241	0.197775
C101	C	0.905597	-0.114983	-0.302236
C102	C	1.405597	0.385017	0.197764
C103	C	0.945678	-0.438550	-0.568001
C104	C	1.445678	0.061450	-0.068001
C105	C	0.945678	-0.438504	-0.633437
C106	C	1.445678	0.061496	-0.133437
C107	C	0.905598	-0.505691	-0.666131
C108	C	1.405598	-0.005691	-0.166131
C109	C	0.865505	-0.572908	-0.633384
C110	C	1.365505	-0.072908	-0.133384
C111	C	0.865503	-0.572944	-0.567950
C112	C	1.365503	-0.072944	-0.067950
C113	C	0.900638	-0.600292	-0.769799
C114	C	1.400638	-0.100292	-0.269799
C115	C	0.900645	-0.600258	-0.835232
C116	C	1.400645	-0.100258	-0.335232
C117	C	0.905602	-0.505580	-0.867952
C118	C	1.405602	-0.005580	-0.367952
C119	C	0.910566	-0.410932	-0.835230
C120	C	1.410566	0.089068	-0.335230
C121	C	0.910563	-0.410968	-0.769796
C122	C	1.410563	0.089032	-0.269796
C123	C	0.905596	-0.505659	-0.737083
C124	C	1.405596	-0.005659	-0.237083
C125	C	0.945688	-0.438312	-0.971643
C126	C	1.445688	0.061688	-0.471643
C127	C	0.945683	-0.438265	-1.037080
C128	C	1.445683	0.061735	-0.537080
C129	C	0.865514	-0.572678	-1.037026
C130	C	1.365514	-0.072678	-0.537026
C131	C	0.865516	-0.572716	-0.971591
C132	C	1.365516	-0.072716	-0.471591
C133	C	0.905607	-0.505534	-0.938903
C134	C	1.405607	-0.005534	-0.438903
C135	C	0.905503	-0.505738	-0.139410
C136	C	1.405503	-0.005738	0.360590
C137	C	0.905603	-0.505451	-0.069770
C138	C	1.405603	-0.005451	0.430230
H139	H	0.667037	-0.627988	-0.374678
H140	H	1.167037	-0.127988	0.125322
H141	H	0.548330	-0.627939	-0.374725
H142	H	1.048330	-0.127939	0.125275
O143	O	1.069111	-1.119124	-0.139011
O144	O	1.569111	-0.619124	0.360989
H145	H	1.062414	-1.204645	-0.145754
H146	H	1.562414	-0.704645	0.354246
O147	O	0.135983	-0.365855	-0.219150
O148	O	0.635983	0.134145	0.280850
H149	H	0.106220	-0.312467	-0.247255
H150	H	0.606220	0.187533	0.252745
H151	H	0.985813	-1.204251	-0.222210
H152	H	1.485813	-0.704251	0.277790
O153	O	0.985658	-0.777114	-0.222122
O154	O	1.485658	-0.277114	0.277878
H155	H	0.938396	-0.748291	-0.209391
H156	H	1.438396	-0.248291	0.290609
H157	H	0.978318	-0.383766	-0.660098
H158	H	1.478318	0.116234	-0.160098
H159	H	0.896434	-0.677371	-0.743165
H160	H	1.396434	-0.177371	-0.243165
H161	H	0.914603	-0.333903	-0.743157
H162	H	1.414603	0.166097	-0.243157
H163	H	0.832867	-1.104869	-0.374845
H164	H	1.332867	-0.604869	0.125155
H165	H	0.978322	-0.383844	-0.541391
H166	H	1.478322	0.116156	-0.041391
H167	H	1.058432	-0.905568	-0.149548
H168	H	1.558432	-0.405568	0.350452
H169	H	0.832798	-0.905800	-0.374817
H170	H	1.332798	-0.405800	0.125183
O171	O	0.895290	-0.702342	-0.870516
O172	O	1.395290	-0.202342	-0.370516
H173	H	0.937264	-0.713051	-0.900353
H174	H	1.437264	-0.213051	-0.400353
H175	H	0.666983	-0.383793	-0.229543
H176	H	1.166983	0.116207	0.270457
O177	O	0.915903	-0.308796	-0.870503
O178	O	1.415903	0.191204	-0.370503
H179	H	0.873926	-0.298069	-0.900271
H180	H	1.373926	0.201931	-0.400271
H181	H	0.978324	-0.383527	-1.063735
H182	H	1.478324	0.116473	-0.563735
O183	O	0.136043	-0.645719	-0.385361
O184	O	0.636043	-0.145719	0.114639
H185	H	0.169798	-0.692584	-0.413126
H186	H	0.669798	-0.192584	0.086874
H187	H	0.978329	-0.383603	-0.945027
H188	H	1.478329	0.116397	-0.445027
O189	O	0.822283	-0.645146	-1.072278
O190	O	1.322283	-0.145146	-0.572278
H191	H	0.829020	-0.633834	-1.123280
H192	H	1.329020	-0.133834	-0.623280
O193	O	0.822265	-0.645181	-0.936273
O194	O	1.322265	-0.145181	-0.436273
H195	H	0.794389	-0.691886	-0.969998
H196	H	1.294389	-0.191886	-0.469998
O197	O	0.337965	-0.523274	-0.419555
O198	O	0.837965	-0.023274	0.080445
H199	H	0.350509	-0.598084	-0.442856
H200	H	0.850509	-0.098084	0.057144
H201	H	0.263344	-0.383674	-0.229683
H202	H	0.763344	0.116326	0.270317
H203	H	0.832871	-0.627608	-0.660008
H204	H	1.332871	-0.127608	-0.160008
O205	O	0.822253	-0.645417	-0.532633
O206	O	1.322253	-0.145417	-0.032633
H207	H	0.794377	-0.692123	-0.566357
H208	H	1.294377	-0.192123	-0.066357
H209	H	0.465301	-0.521123	-0.404585
H210	H	0.965301	-0.021123	0.095415
H211	H	0.346379	-0.490512	-0.199817
H212	H	0.846379	0.009488	0.300183
O213	O	0.272060	-0.645627	-0.385398
O214	O	0.772060	-0.145627	0.114602
H215	H	0.238327	-0.692395	-0.413231
H216	H	0.738327	-0.192395	0.086769
O217	O	0.473723	-0.488326	-0.184855
O218	O	0.973723	0.011674	0.315145
H219	H	0.439938	-0.482470	-0.145618
H220	H	0.939938	0.017530	0.354382
H221	H	0.548270	-0.383770	-0.229585
H222	H	1.048270	0.116230	0.270415
