data_functionalizedCrystal
_audit_creation_method	'MofGen! by Chris Wilmer'
_symmetry_space_group_name_H-M	'P1'
_symmetry_Int_Tables_number	1
_symmetry_cell_setting	triclinic
loop_
_symmetry_equiv_pos_as_xyz
  x,y,z
_cell_length_a	13.897449
_cell_length_b	16.120531
_cell_length_c	13.897441
_cell_angle_alpha	87.136997
_cell_angle_beta	89.978743
_cell_angle_gamma	87.066788
loop_
_atom_site_label
_atom_site_type_symbol
_atom_site_fract_x
_atom_site_fract_y
_atom_site_fract_z
Zn1	Zn	1.455115	0.331870	-0.564869
Zn2	Zn	1.446794	0.471299	-0.411729
Zn3	Zn	1.293808	0.331906	-0.403582
Zn4	Zn	1.285568	0.471246	-0.572971
O5	O	1.370321	0.401580	-0.488288
O6	O	1.588992	0.350373	-0.544573
O7	O	1.426466	0.452846	-0.275669
O8	O	1.322136	0.215236	-0.418177
O9	O	1.582879	0.452811	-0.432062
O10	O	1.440648	0.215209	-0.536674
O11	O	1.314068	0.350435	-0.269683
O12	O	1.157733	0.350383	-0.426033
O13	O	1.308092	0.452720	-0.706876
O14	O	1.151680	0.452755	-0.550482
O15	O	1.432658	0.350321	-0.700923
O16	O	1.418476	0.587958	-0.439918
O17	O	1.300024	0.587919	-0.558382
C18	C	1.119707	0.401568	-0.488253
C19	C	1.012493	0.401582	-0.488263
C20	C	0.925423	0.401585	-0.488279
C21	C	0.816190	0.401591	-0.488308
C22	C	1.357479	0.618188	-0.500934
C23	C	1.352073	0.710854	-0.506377
C24	C	1.342210	0.880516	-0.516333
C25	C	1.398468	0.921805	-0.460187
C26	C	1.392980	1.016210	-0.465727
C27	C	1.347697	0.786102	-0.510795
C28	C	1.621913	0.401594	-0.488323
C29	C	1.729127	0.401600	-0.488338
C30	C	1.383205	1.184127	-0.475595
C31	C	1.388608	1.091461	-0.470141
C32	C	1.370384	0.401510	-0.739877
C33	C	1.370411	0.401481	-0.847089
C34	C	1.370432	0.401457	-0.934157
C35	C	1.370462	0.401419	-1.043388
C36	C	1.370317	0.401590	-0.237674
C37	C	1.370491	0.401385	-0.130448
H38	H	1.450754	0.886252	-0.407958
Br39	Br	1.255066	0.939768	-0.603380
