data_functionalizedCrystal
_audit_creation_method	'MofGen! by Chris Wilmer'
_symmetry_space_group_name_H-M	'P1'
_symmetry_Int_Tables_number	1
_symmetry_cell_setting	triclinic
loop_
_symmetry_equiv_pos_as_xyz
  x,y,z
_cell_length_a	17.699083
_cell_length_b	15.944551
_cell_length_c	16.776229
_cell_angle_alpha	89.992397
_cell_angle_beta	89.998886
_cell_angle_gamma	83.390877
loop_
_atom_site_label
_atom_site_type_symbol
_atom_site_fract_x
_atom_site_fract_y
_atom_site_fract_z
O1	O	1.004260	0.106222	-0.066178
O2	O	1.504260	0.606222	0.433822
O3	O	0.783905	0.120042	-0.066204
O4	O	1.283905	0.620042	0.433796
O5	O	0.900100	-0.009156	-0.066183
O6	O	1.400100	0.490844	0.433817
O7	O	0.888065	0.235419	-0.066199
O8	O	1.388065	0.735419	0.433801
O9	O	0.900084	-0.009164	0.066393
O10	O	1.400084	0.490836	0.566393
O11	O	0.783890	0.120034	0.066372
O12	O	1.283890	0.620034	0.566372
O13	O	1.004244	0.106214	0.066398
O14	O	1.504244	0.606214	0.566398
Zn15	Zn	0.894065	0.113123	0.087435
Zn16	Zn	1.394065	0.613123	0.587435
Zn17	Zn	0.894085	0.113133	-0.087241
Zn18	Zn	1.394085	0.613133	0.412759
O19	O	0.888050	0.235411	0.066377
O20	O	1.388050	0.735411	0.566377
C21	C	0.755700	0.119542	0.000080
C22	C	1.255700	0.619542	0.500080
C23	C	0.671679	0.118057	0.000071
C24	C	1.171679	0.618057	0.500071
C25	C	0.623187	0.193893	0.000066
C26	C	1.123187	0.693893	0.500066
C27	C	0.544242	0.192492	0.000076
C28	C	1.044242	0.692492	0.500076
C29	C	0.513789	0.115254	0.000086
C30	C	1.013789	0.615254	0.500086
C31	C	0.562287	0.039412	0.000093
C32	C	1.062287	0.539412	0.500093
C33	C	0.641231	0.040814	0.000088
C34	C	1.141231	0.540814	0.500088
C35	C	0.243914	0.033758	0.000113
C36	C	0.743914	0.533758	0.500113
C37	C	0.164964	0.032362	0.000115
C38	C	0.664964	0.532362	0.500115
C39	C	0.146925	0.185436	0.000101
C40	C	0.646925	0.685436	0.500101
C41	C	0.225869	0.186837	0.000096
C42	C	0.725869	0.686837	0.500096
C43	C	0.274360	0.110996	0.000108
C44	C	0.774360	0.610996	0.500108
C45	C	0.359962	0.112516	0.000098
C46	C	0.859962	0.612516	0.500098
C47	C	0.428189	0.113733	0.000090
C48	C	0.928189	0.613733	0.500090
C49	C	0.899593	-0.040453	0.000105
C50	C	1.399593	0.459547	0.500105
C51	C	0.898095	-0.133696	0.000105
C52	C	1.398095	0.366304	0.500105
C53	C	0.822492	-0.348393	0.000085
C54	C	1.322492	0.151607	0.500085
C55	C	0.857592	-0.409488	0.065458
C56	C	1.357592	0.090512	0.565458
C57	C	0.895385	-0.304416	0.000099
C58	C	1.395385	0.195584	0.500099
C59	C	0.857624	-0.409464	-0.065252
C60	C	1.357624	0.090536	0.434748
C61	C	0.892762	-0.469323	0.000089
C62	C	1.392762	0.030677	0.500089
C63	C	0.930505	-0.364283	0.065525
C64	C	1.430505	0.135717	0.565525
C65	C	0.930527	-0.364252	-0.065244
C66	C	1.430527	0.135748	0.434756
C67	C	0.965680	-0.425329	0.000145
C68	C	1.465680	0.074671	0.500145
C69	C	0.896894	-0.209417	0.000105
C70	C	1.396894	0.290583	0.500105
C71	C	0.891259	-0.564321	0.000089
C72	C	1.391259	-0.064321	0.500089
C73	C	1.032450	0.106713	0.000112
C74	C	1.532450	0.606713	0.500112
C75	C	1.116471	0.108199	0.000116
C76	C	1.616471	0.608199	0.500116
C77	C	0.888557	0.266708	0.000087
C78	C	1.388557	0.766708	0.500087
C79	C	0.890055	0.359951	0.000082
C80	C	1.390055	0.859951	0.500082
N81	N	0.894056	0.113115	0.206646
N82	N	1.394056	0.613115	0.706646
N83	N	0.894099	0.113134	-0.206452
N84	N	1.394099	0.613134	0.293548
C85	C	0.945523	0.055930	0.248372
C86	C	1.445523	0.555930	0.748372
C87	C	0.945527	0.055929	0.331824
C88	C	1.445527	0.555929	0.831824
C89	C	0.894068	0.113118	0.373549
C90	C	1.394068	0.613118	0.873549
C91	C	0.842595	0.170306	0.331816
C92	C	1.342595	0.670306	0.831816
C93	C	0.842588	0.170302	0.248366
C94	C	1.342588	0.670302	0.748366
C95	C	0.842623	0.170323	0.668364
C96	C	1.342623	0.670323	1.168364
C97	C	0.842636	0.170324	0.751820
C98	C	1.342636	0.670324	1.251820
C99	C	0.945562	0.055949	0.751822
C100	C	1.445562	0.555949	1.251822
C101	C	0.945555	0.055945	0.668372
C102	C	1.445555	0.555945	1.168372
C103	C	0.894080	0.113130	0.626647
C104	C	1.394080	0.613130	1.126647
C105	C	0.894075	0.113129	0.536158
C106	C	1.394075	0.613129	1.036158
C107	C	0.894076	0.113124	0.464036
C108	C	1.394076	0.613124	0.964036
H109	H	0.140173	-0.030538	0.000124
H110	H	0.640173	0.469462	0.500124
C111	C	0.786014	0.233219	0.797716
C112	C	1.286014	0.733219	1.297716
H113	H	0.755348	0.267268	0.760915
H114	H	1.255348	0.767268	1.260915
H115	H	0.813230	0.268156	0.830265
H116	H	1.313230	0.768156	1.330265
H117	H	0.754520	0.203026	0.830274
H118	H	1.254520	0.703026	1.330274
H119	H	0.987460	0.009380	0.634402
H120	H	1.487460	0.509380	1.134402
H121	H	0.800692	0.216868	0.365793
H122	H	1.300692	0.716868	0.865793
H123	H	1.026238	-0.458615	0.000189
H124	H	1.526238	0.041385	0.500189
H125	H	0.987473	0.009384	0.785804
H126	H	1.487473	0.509384	1.285804
H127	H	0.800712	0.216886	0.634398
H128	H	1.300712	0.716886	1.134398
C129	C	0.785978	0.233209	0.202467
C130	C	1.285978	0.733209	0.702467
H131	H	0.755336	0.267275	0.239267
H132	H	1.255336	0.767275	0.739267
H133	H	0.754471	0.203036	0.169921
H134	H	1.254471	0.703036	0.669921
H135	H	0.813205	0.268139	0.169904
H136	H	1.313205	0.768139	0.669904
C137	C	0.093586	0.268863	0.000094
C138	C	0.593586	0.768863	0.500094
H139	H	0.123031	0.315062	0.000078
H140	H	0.623031	0.815062	0.500078
H141	H	0.062415	0.271504	0.046327
H142	H	0.562415	0.771504	0.546327
H143	H	0.062416	0.271497	-0.046143
H144	H	0.562416	0.771497	0.453857
C145	C	0.656678	0.278856	0.000055
C146	C	1.156678	0.778856	0.500055
H147	H	0.616489	0.323820	0.000061
H148	H	1.116489	0.823820	0.500061
H149	H	0.687098	0.282589	-0.046179
H150	H	1.187098	0.782589	0.453821
H151	H	0.687100	0.282581	0.046292
H152	H	1.187100	0.782581	0.546292
C153	C	0.259363	0.271798	0.000090
C154	C	0.759363	0.771798	0.500090
H155	H	0.219176	0.316764	0.000096
H156	H	0.719176	0.816764	0.500096
H157	H	0.289785	0.275533	-0.046143
H158	H	0.789785	0.775533	0.453857
H159	H	0.289784	0.275519	0.046328
H160	H	0.789784	0.775519	0.546328
C161	C	0.297244	-0.049664	0.000120
C162	C	0.797244	0.450336	0.500120
H163	H	0.267798	-0.095863	0.000118
H164	H	0.767798	0.404137	0.500118
H165	H	0.328416	-0.052305	0.046351
H166	H	0.828416	0.447695	0.546351
H167	H	0.328414	-0.052299	-0.046119
H168	H	0.828414	0.447701	0.453881
C169	C	1.002138	-0.006974	0.377724
C170	C	1.502138	0.493026	0.877724
H171	H	0.994767	0.001209	0.433400
H172	H	1.494767	0.501209	0.933400
H173	H	1.052648	0.002077	0.364043
H174	H	1.552648	0.502077	0.864043
H175	H	0.993913	-0.063025	0.364054
H176	H	1.493913	0.436975	0.864054
H177	H	0.537486	-0.023476	0.000112
H178	H	1.037486	0.476524	0.500112
C179	C	0.694572	-0.042605	0.000085
C180	C	1.194572	0.457395	0.500085
H181	H	0.665130	-0.088807	0.000083
H182	H	1.165130	0.411193	0.500083
H183	H	0.725747	-0.045246	0.046314
H184	H	1.225747	0.454754	0.546314
H185	H	0.725738	-0.045234	-0.046156
H186	H	1.225738	0.454766	0.453844
C187	C	0.490901	0.275909	0.000063
C188	C	0.990901	0.775909	0.500063
H189	H	0.439523	0.264015	0.000075
H190	H	0.939523	0.764015	0.500075
H191	H	0.500131	0.307584	-0.046176
H192	H	1.000131	0.807584	0.453824
H193	H	0.500134	0.307589	0.046295
H194	H	1.000134	0.807589	0.546295
H195	H	0.761987	-0.314958	0.000143
H196	H	1.261987	0.185042	0.500143
C197	C	0.972122	-0.337078	-0.139893
C198	C	1.472122	0.162922	0.360107
H199	H	1.015194	-0.310622	-0.124189
H200	H	1.515194	0.189378	0.375811
H201	H	0.938632	-0.298515	-0.170106
H202	H	1.438632	0.201485	0.329894
H203	H	0.988201	-0.385325	-0.171436
H204	H	1.488201	0.114675	0.328564
H205	H	0.961304	-0.344360	0.120853
H206	H	1.461304	0.155640	0.620853
C207	C	0.815936	-0.436576	0.140106
C208	C	1.315936	0.063424	0.640106
H209	H	0.765070	-0.409968	0.140022
H210	H	1.265070	0.090032	0.640022
H211	H	0.841336	-0.420349	0.186528
H212	H	1.341336	0.079651	0.686528
H213	H	0.815689	-0.496124	0.139810
H214	H	1.315689	0.003876	0.639810
C215	C	0.815971	-0.436504	-0.139913
C216	C	1.315971	0.063496	0.360087
H217	H	0.765111	-0.409881	-0.139834
H218	H	1.265111	0.090119	0.360166
H219	H	0.815721	-0.496048	-0.139640
H220	H	1.315721	0.003952	0.360360
H221	H	0.841378	-0.420246	-0.186328
H222	H	1.341378	0.079754	0.313672
C223	C	1.002128	-0.006981	0.202483
C224	C	1.502128	0.493019	0.702483
H225	H	1.032775	-0.041043	0.239289
H226	H	1.532775	0.458957	0.739289
H227	H	1.033631	0.023187	0.169918
H228	H	1.533631	0.523187	0.669918
H229	H	0.974895	-0.041913	0.169940
H230	H	1.474895	0.458087	0.669940
