data_functionalizedCrystal
_audit_creation_method	'MofGen! by Chris Wilmer'
_symmetry_space_group_name_H-M	'P1'
_symmetry_Int_Tables_number	1
_symmetry_cell_setting	triclinic
loop_
_symmetry_equiv_pos_as_xyz
  x,y,z
_cell_length_a	9.065215
_cell_length_b	9.730223
_cell_length_c	10.654550
_cell_angle_alpha	90.000193
_cell_angle_beta	84.749800
_cell_angle_gamma	89.999698
loop_
_atom_site_label
_atom_site_type_symbol
_atom_site_fract_x
_atom_site_fract_y
_atom_site_fract_z
O1	O	1.959389	0.114270	0.184137
O2	O	1.530021	0.114276	0.199246
O3	O	1.754577	0.114268	0.008991
O4	O	1.734833	0.114278	0.374391
O5	O	1.754574	-0.114312	0.008996
O6	O	1.530018	-0.114304	0.199251
O7	O	1.959386	-0.114310	0.184141
Zn8	Zn	1.744702	-0.150599	0.191697
Zn9	Zn	1.744705	0.150565	0.191690
O10	O	1.734830	-0.114302	0.374396
C11	C	1.475041	-0.000013	0.197797
C12	C	1.311221	-0.000011	0.193458
N13	N	1.744710	-0.356135	0.191700
C14	C	1.844169	-0.428065	0.107485
C15	C	1.844165	-0.571948	0.107469
C16	C	1.645238	-0.571959	0.275897
C17	C	1.645236	-0.428078	0.275905
C18	C	1.943643	-0.356122	0.023280
C19	C	2.043112	-0.428051	-0.060942
C20	C	2.043108	-0.571934	-0.060957
C21	C	1.943635	-0.643888	0.023250
C22	C	2.014366	-0.000018	0.185590
C23	C	2.178186	-0.000011	0.189930
C24	C	1.753126	-0.000020	-0.037810
C25	C	1.748789	-0.000016	-0.177271
N26	N	1.744708	0.356101	0.191677
C27	C	1.881003	-0.000022	-0.256234
C28	C	1.876919	-0.000012	-0.387271
C29	C	1.608393	0.000004	-0.360369
C30	C	1.612479	0.000004	-0.229334
C31	C	2.017313	-0.000041	-0.204170
C32	C	2.149539	-0.000049	-0.283135
C33	C	2.145454	-0.000039	-0.414172
C34	C	2.009144	-0.000022	-0.466244
C35	C	1.736281	-0.000010	0.421198
C36	C	1.740618	-0.000006	0.560658
H37	H	2.124091	-0.369460	-0.129507
N38	N	1.469894	0.000001	-0.144139
H39	H	1.410479	0.084736	-0.161050
H40	H	1.410598	-0.084790	-0.161089
N41	N	2.150391	-0.649515	-0.151787
H42	H	2.135300	-0.751580	-0.139021
H43	H	2.132453	-0.624356	-0.241090
N44	N	1.461378	-0.000004	-0.416521
H45	H	1.403389	0.084730	-0.387841
H46	H	1.478971	-0.000064	-0.511502
H47	H	1.943631	-0.761047	0.023221
H48	H	1.564253	-0.630552	0.344456
H49	H	1.943658	-0.238965	0.023287
H50	H	1.564246	-0.369513	0.344480
N51	N	2.021717	-0.000051	-0.062840
H52	H	2.128127	-0.000063	-0.041836
H53	H	1.969926	0.084692	-0.026089
H54	H	2.260517	-0.000028	-0.240728
H55	H	2.253119	-0.000031	-0.478462
N56	N	2.004734	0.000007	-0.607577
H57	H	2.109176	0.000008	-0.649702
H58	H	1.950969	-0.084726	-0.633761
