data_functionalizedCrystal
_audit_creation_method	'MofGen! by Chris Wilmer'
_symmetry_space_group_name_H-M	'P1'
_symmetry_Int_Tables_number	1
_symmetry_cell_setting	triclinic
loop_
_symmetry_equiv_pos_as_xyz
  x,y,z
_cell_length_a	29.839134
_cell_length_b	16.625546
_cell_length_c	29.839125
_cell_angle_alpha	90.016010
_cell_angle_beta	89.978020
_cell_angle_gamma	89.982671
loop_
_atom_site_label
_atom_site_type_symbol
_atom_site_fract_x
_atom_site_fract_y
_atom_site_fract_z
Zn1	Zn	0.686779	0.321225	-0.254130
Zn2	Zn	1.186779	0.821225	0.245870
Zn3	Zn	0.686736	0.456034	-0.179003
Zn4	Zn	1.186736	0.956034	0.320997
Zn5	Zn	0.611662	0.321207	-0.179000
Zn6	Zn	1.111662	0.821207	0.321000
Zn7	Zn	0.611634	0.456007	-0.254091
Zn8	Zn	1.111634	0.956007	0.245909
O9	O	0.649203	0.388619	-0.216556
O10	O	1.149203	0.888619	0.283444
O11	O	0.749640	0.339127	-0.244182
O12	O	1.249640	0.839127	0.255818
O13	O	0.676771	0.438153	-0.116135
O14	O	1.176771	0.938153	0.383865
O15	O	0.621656	0.208377	-0.188982
O16	O	1.121656	0.708377	0.311018
O17	O	0.749609	0.438170	-0.188986
O18	O	1.249609	0.938170	0.311014
O19	O	0.676844	0.208390	-0.244180
O20	O	1.176844	0.708390	0.255820
O21	O	0.621614	0.339096	-0.116133
O22	O	1.121614	0.839096	0.383867
O23	O	0.548791	0.339070	-0.188943
O24	O	1.048791	0.839070	0.311057
O25	O	0.621609	0.438124	-0.316963
O26	O	1.121609	0.938124	0.183037
O27	O	0.548771	0.438107	-0.244112
O28	O	1.048771	0.938107	0.255888
O29	O	0.676817	0.339100	-0.316992
O30	O	1.176817	0.839100	0.183008
O31	O	0.676744	0.568863	-0.188948
O32	O	1.176744	1.068863	0.311052
O33	O	0.621567	0.568843	-0.244115
O34	O	1.121567	1.068843	0.255885
C35	C	0.649160	0.598109	-0.216537
C36	C	1.149160	1.098109	0.283463
C37	C	0.649183	0.687731	-0.216544
C38	C	1.149183	1.187731	0.283456
C39	C	0.532480	0.388584	-0.216524
C40	C	1.032480	0.888584	0.283476
C41	C	0.482546	0.388589	-0.216520
C42	C	0.982546	0.888589	0.283480
C43	C	0.649215	0.388611	-0.333734
C44	C	1.149215	0.888611	0.166266
C45	C	0.649220	0.388608	-0.383669
C46	C	1.149220	0.888608	0.116331
C47	C	0.172901	0.440263	-0.245247
C48	C	0.672901	0.940263	0.254753
C49	C	-0.014772	0.440286	-0.245267
C50	C	0.485228	0.940286	0.254733
O51	O	-0.039038	0.484183	-0.269673
O52	O	0.460962	0.984183	0.230327
N53	N	-0.038239	0.388648	-0.216590
N54	N	0.461761	0.888648	0.283410
C55	C	-0.014786	0.336997	-0.187907
C56	C	0.485214	0.836997	0.312093
O57	O	-0.039053	0.293071	-0.163519
O58	O	0.460947	0.793071	0.336481
C59	C	0.172886	0.336971	-0.187890
C60	C	0.672886	0.836971	0.312110
C61	C	0.196351	0.388618	-0.216566
C62	C	0.696351	0.888618	0.283434
C63	C	0.196366	0.491906	-0.273921
C64	C	0.696366	0.991906	0.226079
C65	C	0.243282	0.491903	-0.273914
C66	C	0.743282	0.991903	0.226086
C67	C	0.266732	0.440257	-0.245233
C68	C	0.766732	0.940257	0.254767
C69	C	0.243267	0.388615	-0.216559
C70	C	0.743267	0.888615	0.283441
C71	C	0.196339	0.285316	-0.159210
C72	C	0.696339	0.785316	0.340790
C73	C	0.243260	0.285313	-0.159209
C74	C	0.743260	0.785313	0.340791
C75	C	0.266725	0.336960	-0.187885
C76	C	0.766725	0.836960	0.312115
C77	C	0.313633	0.336967	-0.187871
C78	C	0.813633	0.836967	0.312129
N79	N	0.337100	0.388604	-0.216548
N80	N	0.837100	0.888604	0.283452
C81	C	0.313650	0.440250	-0.245230
C82	C	0.813650	0.940250	0.254770
C83	C	-0.113317	0.337016	-0.187918
C84	C	0.386683	0.837016	0.312082
C85	C	-0.160234	0.337023	-0.187922
C86	C	0.339766	0.837023	0.312078
C87	C	-0.160217	0.440311	-0.245282
C88	C	0.339783	0.940311	0.254718
C89	C	-0.113298	0.440307	-0.245276
C90	C	0.386702	0.940307	0.254724
C91	C	-0.089849	0.388654	-0.216595
C92	C	0.410151	0.888654	0.283405
C93	C	0.412176	0.440240	-0.245212
C94	C	0.912176	0.940240	0.254788
C95	C	0.459095	0.440235	-0.245201
C96	C	0.959095	0.940235	0.254799
C97	C	0.459074	0.336944	-0.187843
C98	C	0.959074	0.836944	0.312157
C99	C	0.412158	0.336952	-0.187852
C100	C	0.912158	0.836952	0.312148
C101	C	0.388711	0.388602	-0.216540
C102	C	0.888711	0.888602	0.283460
O103	O	0.337927	0.293086	-0.163482
O104	O	0.837927	0.793086	0.336518
O105	O	0.337925	0.484157	-0.269621
O106	O	0.837925	0.984157	0.230379
C107	C	0.125986	0.440267	-0.245254
C108	C	0.625986	0.940267	0.254746
C109	C	0.102521	0.388624	-0.216580
C110	C	0.602521	0.888624	0.283420
C111	C	0.125971	0.336979	-0.187899
C112	C	0.625971	0.836979	0.312101
C113	C	0.055603	0.388632	-0.216584
C114	C	0.555603	0.888632	0.283416
C115	C	0.032152	0.440277	-0.245265
C116	C	0.532152	0.940277	0.254735
C117	C	0.055620	0.491915	-0.273942
C118	C	0.555620	0.991915	0.226058
C119	C	0.102536	0.491912	-0.273935
C120	C	0.602536	0.991912	0.226065
C121	C	0.102503	0.285341	-0.159221
C122	C	0.602503	0.785341	0.340779
C123	C	0.055588	0.285349	-0.159230
C124	C	0.555588	0.785349	0.340770
C125	C	0.032137	0.336994	-0.187912
C126	C	0.532137	0.836994	0.312088
C127	C	0.766381	0.388654	-0.216589
C128	C	1.266381	0.888654	0.283411
C129	C	0.816315	0.388668	-0.216603
C130	C	1.316315	0.888668	0.283397
C131	C	0.649258	0.178310	-0.216585
C132	C	1.149258	0.678310	0.283415
C133	C	0.649281	0.088689	-0.216597
C134	C	1.149281	0.588689	0.283403
C135	C	0.649261	1.015906	-0.216591
C136	C	1.149261	1.515906	0.283409
C137	C	0.649238	0.924598	-0.216579
C138	C	1.149238	1.424598	0.283421
C139	C	0.649222	0.851821	-0.216567
C140	C	1.149222	1.351821	0.283433
C141	C	0.649199	0.760507	-0.216556
C142	C	1.149199	1.260507	0.283444
C143	C	0.677997	0.336912	-0.693330
C144	C	1.177997	0.836912	-0.193330
C145	C	0.678019	0.336843	-0.881004
C146	C	1.178019	0.836843	-0.381004
O147	O	0.702453	0.292965	-0.905284
O148	O	1.202453	0.792965	-0.405284
N149	N	0.649279	0.388392	-0.904454
N150	N	1.149279	0.888392	-0.404454
C151	C	0.620530	0.439959	-0.880983
C152	C	1.120530	0.939959	-0.380983
O153	O	0.596082	0.483798	-0.905236
O154	O	1.096082	0.983798	-0.405236
C155	C	0.620506	0.440023	-0.693311
C156	C	1.120506	0.940023	-0.193311
C157	C	0.649251	0.388476	-0.669863
C158	C	1.149251	0.888476	-0.169863
C159	C	0.706740	0.285368	-0.669882
C160	C	1.206740	0.785368	-0.169882
C161	C	0.706735	0.285389	-0.622967
C162	C	1.206735	0.785389	-0.122967
C163	C	0.677989	0.336953	-0.599499
C164	C	1.177989	0.836953	-0.099499
C165	C	0.649247	0.388497	-0.622948
C166	C	1.149247	0.888497	-0.122948
C167	C	0.591754	0.491585	-0.669841
C168	C	1.091754	0.991585	-0.169841
C169	C	0.591750	0.491595	-0.622920
C170	C	1.091750	0.991595	-0.122920
C171	C	0.620495	0.440048	-0.599472
C172	C	1.120495	0.940048	-0.099472
C173	C	0.620496	0.440082	-0.552565
C174	C	1.120496	0.940082	-0.052565
N175	N	0.649236	0.388532	-0.529114
N176	N	1.149236	0.888532	-0.029114
C177	C	0.677982	0.336968	-0.552582
C178	C	1.177982	0.836968	-0.052582
C179	C	0.620545	0.439923	-0.979514
C180	C	1.120545	0.939923	-0.479514
C181	C	0.620552	0.439908	-1.026432
C182	C	1.120552	0.939908	-0.526432
C183	C	0.678041	0.336790	-1.026449
C184	C	1.178041	0.836790	-0.526449
C185	C	0.678036	0.336810	-0.979530
C186	C	1.178036	0.836810	-0.479530
C187	C	0.649285	0.388373	-0.956064
C188	C	1.149285	0.888373	-0.456064
C189	C	0.677972	0.337016	-0.454056
C190	C	1.177972	0.837016	0.045944
C191	C	0.677966	0.337044	-0.407136
C192	C	1.177966	0.837044	0.092864
C193	C	0.620476	0.440158	-0.407123
C194	C	1.120476	0.940158	0.092877
C195	C	0.620483	0.440134	-0.454039
C196	C	1.120483	0.940134	0.045961
C197	C	0.649232	0.388556	-0.477504
C198	C	1.149232	0.888556	0.022496
O199	O	0.596071	0.483931	-0.528256
O200	O	1.096071	0.983931	-0.028256
O201	O	0.702420	0.293123	-0.528321
O202	O	1.202420	0.793123	-0.028321
C203	C	0.678001	0.336891	-0.740246
C204	C	1.178001	0.836891	-0.240246
C205	C	0.649259	0.388434	-0.763694
C206	C	1.149259	0.888434	-0.263694
C207	C	0.620512	0.439999	-0.740227
C208	C	1.120512	0.939999	-0.240227
C209	C	0.649265	0.388419	-0.810612
C210	C	1.149265	0.888419	-0.310612
C211	C	0.678012	0.336855	-0.834079
C212	C	1.178012	0.836855	-0.334079
C213	C	0.706752	0.285305	-0.810629
C214	C	1.206752	0.785305	-0.310629
C215	C	0.706748	0.285326	-0.763713
C216	C	1.206748	0.785326	-0.263713
C217	C	0.591772	0.491548	-0.763677
C218	C	1.091772	0.991548	-0.263677
C219	C	0.591779	0.491524	-0.810593
C220	C	1.091779	0.991524	-0.310593
C221	C	0.620526	0.439960	-0.834060
C222	C	1.120526	0.939960	-0.334060
C223	C	0.649216	0.388568	-0.099833
C224	C	1.149216	0.888568	0.400167
C225	C	0.649298	0.388344	-0.049899
C226	C	1.149298	0.888344	0.450101
H227	H	0.478199	0.482295	-0.268553
H228	H	0.978199	0.982295	0.231447
Br229	Br	0.380361	0.510337	-0.284147
Br230	Br	0.880361	1.010337	0.215853
H231	H	0.478176	0.294898	-0.164490
H232	H	0.978176	0.794898	0.335510
H233	H	0.177242	0.243262	-0.135858
H234	H	0.677242	0.743262	0.364142
H235	H	0.730142	0.243412	-0.603879
H236	H	1.230142	0.743412	-0.103879
Br237	Br	0.275120	0.561995	-0.312836
Br238	Br	0.775120	1.061995	0.187164
H239	H	0.177278	0.533962	-0.297279
H240	H	0.677278	1.033962	0.202721
H241	H	0.597133	0.481917	-0.960412
H242	H	1.097133	0.981917	-0.460412
Br243	Br	0.716986	0.267012	-0.485894
Br244	Br	1.216986	0.767012	0.014106
Br245	Br	-0.081458	0.510402	-0.284195
Br246	Br	0.418542	1.010402	0.215805
H247	H	-0.179336	0.294975	-0.164566
H248	H	0.320664	0.794975	0.335434
Br249	Br	0.552754	0.561534	-0.731836
Br250	Br	1.052754	1.061534	-0.231836
H251	H	0.568332	0.533577	-0.603816
H252	H	1.068332	1.033577	-0.103816
H253	H	0.121637	0.533968	-0.297287
H254	H	0.621637	1.033968	0.202713
H255	H	0.730149	0.243373	-0.688984
H256	H	1.230149	0.743373	-0.188984
Br257	Br	0.552768	0.561495	-0.842409
Br258	Br	1.052768	1.061495	-0.342409
H259	H	0.036519	0.533969	-0.297294
H260	H	0.536519	1.033969	0.202706
H261	H	0.036486	0.243293	-0.135875
H262	H	0.536486	0.743293	0.364125
H263	H	-0.179318	0.482363	-0.268636
H264	H	0.320682	0.982363	0.231364
Br265	Br	0.581475	0.510097	-0.485862
Br266	Br	1.081475	1.010097	0.014138
H267	H	0.121591	0.243284	-0.135865
H268	H	0.621591	0.743284	0.364135
Br269	Br	0.716982	0.267085	-0.375316
Br270	Br	1.216982	0.767085	0.124684
H271	H	0.597072	0.482143	-0.388008
H272	H	1.097072	0.982143	0.111992
H273	H	0.701442	0.294834	-0.960442
H274	H	1.201442	0.794834	-0.460442
H275	H	0.262350	0.243245	-0.135856
H276	H	0.762350	0.743245	0.364144
Br277	Br	0.717054	0.266810	-1.058306
Br278	Br	1.217054	0.766810	-0.558306
H279	H	0.597149	0.481892	-1.045520
H280	H	1.097149	0.981892	-0.545520
Br281	Br	0.745761	0.215366	-0.731898
Br282	Br	1.245761	0.715366	-0.231898
Br283	Br	0.745767	0.215330	-0.842486
Br284	Br	1.245767	0.715330	-0.342486
H285	H	-0.094228	0.294952	-0.164561
H286	H	0.405772	0.794952	0.335439
H287	H	0.393052	0.294898	-0.164500
H288	H	0.893052	0.794898	0.335500
H289	H	0.568347	0.533560	-0.688925
H290	H	1.068347	1.033560	-0.188925
