data_functionalizedCrystal
_audit_creation_method	'MofGen! by Chris Wilmer'
_symmetry_space_group_name_H-M	'P1'
_symmetry_Int_Tables_number	1
_symmetry_cell_setting	triclinic
loop_
_symmetry_equiv_pos_as_xyz
  x,y,z
_cell_length_a	16.098713
_cell_length_b	15.944551
_cell_length_c	15.944545
_cell_angle_alpha	83.497456
_cell_angle_beta	93.053041
_cell_angle_gamma	93.051727
loop_
_atom_site_label
_atom_site_type_symbol
_atom_site_fract_x
_atom_site_fract_y
_atom_site_fract_z
O1	O	0.069172	-1.111183	-0.104982
O2	O	0.402505	-0.777850	0.228351
O3	O	0.735838	-0.444516	0.561684
O4	O	0.069193	-0.866632	-0.118338
O5	O	0.402526	-0.533299	0.214996
O6	O	0.735860	-0.199965	0.548329
O7	O	0.069172	-0.995589	0.010615
O8	O	0.402505	-0.662256	0.343948
O9	O	0.735838	-0.328922	0.677281
O10	O	0.069193	-0.982226	-0.233935
O11	O	0.402526	-0.648893	0.099399
O12	O	0.735859	-0.315559	0.432732
O13	O	-0.069337	-1.002263	0.003911
O14	O	0.263996	-0.668930	0.337244
O15	O	0.597329	-0.335597	0.670577
O16	O	-0.069316	-0.873306	-0.125042
O17	O	0.264017	-0.539973	0.208292
O18	O	0.597350	-0.206640	0.541625
O19	O	-0.069338	-1.117857	-0.111686
O20	O	0.263996	-0.784524	0.221647
O21	O	0.597329	-0.451191	0.554980
Zn22	Zn	-0.091318	-0.996642	-0.119428
Zn23	Zn	0.242015	-0.663308	0.213905
Zn24	Zn	0.575348	-0.329975	0.547238
Zn25	Zn	0.091174	-0.987848	-0.110596
Zn26	Zn	0.424507	-0.654514	0.222738
Zn27	Zn	0.757840	-0.321181	0.556071
O28	O	-0.069316	-0.988901	-0.240639
O29	O	0.264017	-0.655567	0.092695
O30	O	0.597350	-0.322234	0.426028
C31	C	-0.000059	-0.838675	-0.121135
C32	C	0.333274	-0.505342	0.212198
C33	C	0.666608	-0.172008	0.545532
C34	C	-0.000051	-0.745429	-0.119472
C35	C	0.333282	-0.412095	0.213861
C36	C	0.666615	-0.078762	0.547194
N37	N	-0.215864	-1.002649	-0.125456
N38	N	0.117469	-0.669316	0.207877
N39	N	0.450803	-0.335983	0.541211
N40	N	0.215719	-0.981847	-0.104561
N41	N	0.549053	-0.648513	0.228772
N42	N	0.882386	-0.315180	0.562105
C43	C	0.259331	-1.030571	-0.153524
C44	C	0.592665	-0.697238	0.179809
C45	C	0.925998	-0.363905	0.513143
C46	C	0.346518	-1.026352	-0.149289
C47	C	0.679851	-0.693018	0.184044
C48	C	1.013185	-0.359685	0.517378
C49	C	0.390091	-0.973411	-0.096086
C50	C	0.723425	-0.640078	0.237247
C51	C	1.056758	-0.306744	0.570581
C52	C	0.346473	-0.924681	-0.047121
C53	C	0.679806	-0.591348	0.286212
C54	C	1.013140	-0.258014	0.619545
C55	C	0.259288	-0.928897	-0.051362
C56	C	0.592621	-0.595563	0.281972
C57	C	0.925955	-0.262230	0.615305
C58	C	0.653333	-0.958135	-0.080732
C59	C	0.986666	-0.624802	0.252602
C60	C	1.319999	-0.291468	0.585935
C61	C	0.740524	-0.953925	-0.076493
C62	C	1.073857	-0.620591	0.256840
C63	C	1.407191	-0.287258	0.590173
C64	C	0.740563	-1.055595	-0.178662
C65	C	1.073896	-0.722261	0.154671
C66	C	1.407230	-0.388928	0.488004
C67	C	0.653376	-1.059810	-0.182894
C68	C	0.986709	-0.726476	0.150439
C69	C	1.320043	-0.393143	0.483772
C70	C	0.609766	-1.011076	-0.133933
C71	C	0.943099	-0.677743	0.199400
C72	C	1.276432	-0.344409	0.532734
C73	C	0.479210	-0.969099	-0.091754
C74	C	0.812543	-0.635765	0.241580
C75	C	1.145877	-0.302432	0.574913
C76	C	0.520648	-1.015385	-0.138270
C77	C	0.853982	-0.682051	0.195063
C78	C	1.187315	-0.348718	0.528396
C79	C	-0.000084	-0.998372	0.038557
C80	C	0.333250	-0.665039	0.371890
C81	C	0.666583	-0.331706	0.705223
C82	C	-0.000086	-0.996712	0.131803
C83	C	0.333248	-0.663379	0.465136
C84	C	0.666581	-0.330046	0.798470
C85	C	-0.000084	-1.145814	-0.108889
C86	C	0.333250	-0.812481	0.224444
C87	C	0.666583	-0.479147	0.557778
C88	C	-0.000086	-1.239060	-0.110551
C89	C	0.333247	-0.905727	0.222782
C90	C	0.666581	-0.572394	0.556115
C91	C	-0.000075	-0.530575	-0.035569
C92	C	0.333259	-0.197242	0.297764
C93	C	0.666592	0.136092	0.631098
C94	C	0.068221	-0.466263	-0.071226
C95	C	0.401554	-0.132930	0.262108
C96	C	0.734888	0.200404	0.595441
C97	C	-0.000062	-0.574703	-0.116466
C98	C	0.333272	-0.241370	0.216868
C99	C	0.666605	0.091963	0.550201
C100	C	-0.068338	-0.472866	-0.077855
C101	C	0.264995	-0.139532	0.255479
C102	C	0.598328	0.193801	0.588812
C103	C	-0.000075	-0.409791	-0.113555
C104	C	0.333258	-0.076458	0.219778
C105	C	0.666592	0.256875	0.553111
C106	C	0.068291	-0.511617	-0.152142
C107	C	0.401624	-0.178284	0.181191
C108	C	0.734957	0.155050	0.514525
C109	C	-0.068330	-0.518229	-0.158762
C110	C	0.265003	-0.184896	0.174571
C111	C	0.598337	0.148438	0.507904
C112	C	-0.000018	-0.453934	-0.194477
C113	C	0.333316	-0.120600	0.138856
C114	C	0.666649	0.212733	0.472189
C115	C	-0.000053	-0.669705	-0.118140
C116	C	0.333280	-0.336372	0.215194
C117	C	0.666614	-0.003039	0.548527
C118	C	-0.000077	-0.314790	-0.111887
C119	C	0.333256	0.018543	0.221446
C120	C	0.666589	0.351876	0.554779
C121	C	-0.000059	-0.986117	-0.268581
C122	C	0.333274	-0.652784	0.064753
C123	C	0.666607	-0.319450	0.398086
C124	C	-0.000052	-0.987777	-0.361827
C125	C	0.333282	-0.654443	-0.028493
C126	C	0.666615	-0.321110	0.304840
C127	C	-0.000062	-0.911817	0.402437
C128	C	0.333272	-0.578484	0.735770
C129	C	0.666605	-0.245151	1.069103
C130	C	0.068228	-0.949456	0.355157
C131	C	0.401561	-0.616122	0.688490
C132	C	0.734894	-0.282789	1.021823
C133	C	-0.000062	-0.990790	0.467448
C134	C	0.333272	-0.657457	0.800781
C135	C	0.666605	-0.324124	1.134115
C136	C	-0.068332	-0.956057	0.348574
C137	C	0.265002	-0.622724	0.681907
C138	C	0.598335	-0.289391	1.015241
C139	C	-0.000075	-0.993696	0.302534
C140	C	0.333258	-0.660362	0.635867
C141	C	0.666592	-0.327029	0.969200
C142	C	0.068284	-1.028405	0.421399
C143	C	0.401617	-0.695071	0.754732
C144	C	0.734951	-0.361738	1.088065
C145	C	-0.068337	-1.034998	0.414817
C146	C	0.264997	-0.701664	0.748150
C147	C	0.598330	-0.368331	1.081483
C148	C	-0.000031	-1.072693	0.367570
C149	C	0.333303	-0.739360	0.700903
C150	C	0.666636	-0.406026	1.034237
C151	C	-0.000053	-0.989114	0.562450
C152	C	0.333280	-0.655781	0.895784
C153	C	0.666613	-0.322448	1.229117
C154	C	-0.000077	-0.995378	0.207534
C155	C	0.333256	-0.662044	0.540868
C156	C	0.666589	-0.328711	0.874201
H157	H	0.223860	-1.073685	-0.196844
H158	H	0.557194	-0.740351	0.136489
H159	H	0.890527	-0.407018	0.469822
H160	H	-0.126078	-1.071103	0.440971
H161	H	0.207255	-0.737770	0.774305
H162	H	0.540588	-0.404437	1.107638
C163	C	-0.146327	-0.914742	0.305741
C164	C	0.187007	-0.581409	0.639074
C165	C	0.520340	-0.248075	0.972408
N166	N	-0.205070	-0.883618	0.273482
N167	N	0.128263	-0.550284	0.606815
N168	N	0.461597	-0.216951	0.940149
H169	H	0.617905	-1.102921	-0.226216
H170	H	0.951238	-0.769587	0.107117
H171	H	1.284571	-0.436254	0.440450
C172	C	0.394487	-1.079958	-0.203147
C173	C	0.727821	-0.746625	0.130186
C174	C	1.061154	-0.413292	0.463520
N175	N	0.430617	-1.120339	-0.243714
N176	N	0.763950	-0.787006	0.089619
N177	N	1.097284	-0.453672	0.422953
C178	C	0.000008	-0.575573	0.055148
C179	C	0.333342	-0.242240	0.388482
C180	C	0.666675	0.091094	0.721815
N181	N	0.000075	-0.609466	0.123475
N182	N	0.333409	-0.276133	0.456808
N183	N	0.666742	0.057200	0.790142
C184	C	0.000043	-0.409125	-0.285265
C185	C	0.333376	-0.075792	0.048068
C186	C	0.666709	0.257542	0.381401
N187	N	0.000093	-0.375372	-0.353645
N188	N	0.333426	-0.042039	-0.020312
N189	N	0.666759	0.291294	0.313021
C190	C	0.146230	-0.900640	0.319840
C191	C	0.479563	-0.567306	0.653173
C192	C	0.812896	-0.233973	0.986506
N193	N	0.204979	-0.863866	0.293241
N194	N	0.538312	-0.530533	0.626574
N195	N	0.871645	-0.197200	0.959908
C196	C	0.146369	-1.069661	0.464090
C197	C	0.479702	-0.736328	0.797424
C198	C	0.813036	-0.402994	1.130757
N199	N	0.205184	-1.100731	0.496247
N200	N	0.538517	-0.767398	0.829580
N201	N	0.871850	-0.434064	1.162914
C202	C	0.527149	-0.911034	-0.033064
C203	C	0.860482	-0.577700	0.300269
C204	C	1.193815	-0.244367	0.633603
N205	N	0.563259	-0.867358	0.011200
N206	N	0.896593	-0.534025	0.344533
N207	N	1.229926	-0.200692	0.677866
H208	H	0.776080	-1.095269	-0.218525
H209	H	1.109413	-0.761936	0.114808
H210	H	1.442746	-0.428603	0.448142
C211	C	0.788453	-0.895680	-0.017967
C212	C	1.121786	-0.562347	0.315367
C213	C	1.455119	-0.229013	0.648700
N214	N	0.824553	-0.851812	0.026113
N215	N	1.157886	-0.518479	0.359447
N216	N	1.491219	-0.185146	0.692780
H217	H	0.617836	-0.918455	-0.040861
H218	H	0.951169	-0.585122	0.292472
H219	H	1.284502	-0.251788	0.625806
C220	C	-0.146330	-0.549192	-0.208720
C221	C	0.187004	-0.215859	0.124613
C222	C	0.520337	0.117475	0.457946
N223	N	-0.205086	-0.572517	-0.246342
N224	N	0.128247	-0.239184	0.086991
N225	N	0.461581	0.094150	0.420325
C226	C	0.394407	-0.866565	0.011521
C227	C	0.727740	-0.533232	0.344855
C228	C	1.061073	-0.199898	0.678188
N229	N	0.430509	-0.822837	0.055738
N230	N	0.763843	-0.489503	0.389071
N231	N	1.097176	-0.156170	0.722405
H232	H	0.223780	-0.889218	-0.011493
H233	H	0.557114	-0.555885	0.321841
H234	H	0.890447	-0.222551	0.655174
H235	H	0.485168	-1.058485	-0.181592
H236	H	0.818501	-0.725151	0.151741
H237	H	1.151834	-0.391818	0.485075
C238	C	0.146213	-0.435331	-0.021225
C239	C	0.479546	-0.101998	0.312108
C240	C	0.812879	0.231336	0.645442
N241	N	0.204952	-0.412035	0.016441
N242	N	0.538286	-0.078701	0.349774
N243	N	0.871619	0.254632	0.683107
H244	H	-0.126075	-0.455563	-0.046418
H245	H	0.207258	-0.122229	0.286916
H246	H	0.540592	0.211104	0.620249
H247	H	0.126092	-0.528818	-0.183535
H248	H	0.459426	-0.195485	0.149798
H249	H	0.792759	0.137848	0.483132
C250	C	0.000011	-1.164644	0.346643
C251	C	0.333344	-0.831310	0.679976
C252	C	0.666677	-0.497977	1.013310
N253	N	0.000045	-1.233900	0.330880
N254	N	0.333379	-0.900567	0.664214
N255	N	0.666712	-0.567234	0.997547
H256	H	0.000011	-0.843801	0.418093
H257	H	0.333344	-0.510468	0.751426
H258	H	0.666678	-0.177135	1.084759
