data_functionalizedCrystal
_audit_creation_method	'MofGen! by Chris Wilmer'
_symmetry_space_group_name_H-M	'P1'
_symmetry_Int_Tables_number	1
_symmetry_cell_setting	triclinic
loop_
_symmetry_equiv_pos_as_xyz
  x,y,z
_cell_length_a	18.215407
_cell_length_b	12.827892
_cell_length_c	18.215399
_cell_angle_alpha	89.976162
_cell_angle_beta	89.983101
_cell_angle_gamma	90.012851
loop_
_atom_site_label
_atom_site_type_symbol
_atom_site_fract_x
_atom_site_fract_y
_atom_site_fract_z
Zn1	Zn	1.125120	-0.416115	-0.416079
Zn2	Zn	1.375120	-0.166115	-0.166079
Zn3	Zn	1.625120	0.083885	0.083921
Zn4	Zn	1.875120	0.333885	0.333921
Zn5	Zn	1.125049	-0.590874	-0.293022
Zn6	Zn	1.375049	-0.340874	-0.043022
Zn7	Zn	1.625049	-0.090874	0.206978
Zn8	Zn	1.875049	0.159126	0.456978
Zn9	Zn	1.002053	-0.416140	-0.293033
Zn10	Zn	1.252053	-0.166140	-0.043033
Zn11	Zn	1.502053	0.083860	0.206967
Zn12	Zn	1.752053	0.333860	0.456967
Zn13	Zn	1.002039	-0.590807	-0.416053
Zn14	Zn	1.252039	-0.340807	-0.166053
Zn15	Zn	1.502039	-0.090807	0.083947
Zn16	Zn	1.752039	0.159193	0.333947
O17	O	1.063566	-0.503484	-0.354547
O18	O	1.313566	-0.253484	-0.104547
O19	O	1.563566	-0.003484	0.145453
O20	O	1.813566	0.246516	0.395453
O21	O	1.228095	-0.439314	-0.399762
O22	O	1.478095	-0.189314	-0.149762
O23	O	1.728095	0.060686	0.100238
O24	O	1.978095	0.310686	0.350238
O25	O	1.108710	-0.567734	-0.190039
O26	O	1.358710	-0.317734	0.059961
O27	O	1.608710	-0.067734	0.309961
O28	O	1.858710	0.182266	0.559961
O29	O	1.018414	-0.269900	-0.309371
O30	O	1.268414	-0.019900	-0.059371
O31	O	1.518414	0.230100	0.190629
O32	O	1.768414	0.480100	0.440629
O33	O	1.228043	-0.567709	-0.309352
O34	O	1.478043	-0.317709	-0.059352
O35	O	1.728043	-0.067709	0.190648
O36	O	1.978043	0.182291	0.440648
O37	O	1.108831	-0.269882	-0.399773
O38	O	1.358831	-0.019882	-0.149773
O39	O	1.608831	0.230118	0.100227
O40	O	1.858831	0.480118	0.350227
O41	O	1.018345	-0.439357	-0.190047
O42	O	1.268345	-0.189357	0.059953
O43	O	1.518345	0.060643	0.309953
O44	O	1.768345	0.310643	0.559953
O45	O	0.899067	-0.439292	-0.309345
O46	O	1.149067	-0.189292	-0.059345
O47	O	1.399067	0.060708	0.190655
O48	O	1.649067	0.310708	0.440655
O49	O	1.018390	-0.567595	-0.519041
O50	O	1.268390	-0.317595	-0.269041
O51	O	1.518390	-0.067595	-0.019041
O52	O	1.768390	0.182405	0.230959
O53	O	0.899057	-0.567619	-0.399728
O54	O	1.149057	-0.317619	-0.149728
O55	O	1.399057	-0.067619	0.100272
O56	O	1.649057	0.182381	0.350272
O57	O	1.108818	-0.439249	-0.519060
O58	O	1.358818	-0.189249	-0.269060
O59	O	1.608818	0.060751	-0.019060
O60	O	1.858818	0.310751	0.230940
O61	O	1.108696	-0.737101	-0.309327
O62	O	1.358696	-0.487101	-0.059327
O63	O	1.608696	-0.237101	0.190673
O64	O	1.858696	0.012899	0.440673
O65	O	1.018321	-0.737052	-0.399717
O66	O	1.268321	-0.487052	-0.149717
O67	O	1.518321	-0.237052	0.100283
O68	O	1.768321	0.012948	0.350283
C69	C	0.872359	-0.503452	-0.354535
C70	C	1.122359	-0.253452	-0.104535
C71	C	1.372359	-0.003452	0.145465
C72	C	1.622359	0.246548	0.395465
C73	C	0.790560	-0.503463	-0.354548
C74	C	1.040560	-0.253463	-0.104548
C75	C	1.290560	-0.003463	0.145452
C76	C	1.540560	0.246537	0.395452
C77	C	0.525517	-0.570413	-0.401544
C78	C	0.775517	-0.320413	-0.151544
C79	C	1.025517	-0.070413	0.098456
C80	C	1.275517	0.179587	0.348456
C81	C	0.602376	-0.570404	-0.401541
C82	C	0.852376	-0.320404	-0.151541
C83	C	1.102376	-0.070404	0.098459
C84	C	1.352376	0.179596	0.348459
C85	C	0.602355	-0.436578	-0.307562
C86	C	0.852355	-0.186578	-0.057562
C87	C	1.102355	0.063422	0.192438
C88	C	1.352355	0.313422	0.442438
C89	C	0.525498	-0.436593	-0.307563
C90	C	0.775498	-0.186593	-0.057563
C91	C	1.025498	0.063407	0.192437
C92	C	1.275498	0.313407	0.442437
C93	C	0.487081	-0.503509	-0.354558
C94	C	0.737081	-0.253509	-0.104558
C95	C	0.987081	-0.003509	0.145442
C96	C	1.237081	0.246491	0.395442
C97	C	0.640797	-0.503485	-0.354554
C98	C	0.890797	-0.253485	-0.104554
C99	C	1.140797	-0.003485	0.145446
C100	C	1.390797	0.246515	0.395446
C101	C	0.724131	-0.503475	-0.354550
C102	C	0.974131	-0.253475	-0.104550
C103	C	1.224131	-0.003475	0.145450
C104	C	1.474131	0.246525	0.395450
C105	C	0.403742	-0.503521	-0.354561
C106	C	0.653742	-0.253521	-0.104561
C107	C	0.903742	-0.003521	0.145439
C108	C	1.153742	0.246479	0.395439
C109	C	1.063519	-0.774994	-0.354534
C110	C	1.313519	-0.524994	-0.104534
C111	C	1.563519	-0.274994	0.145466
C112	C	1.813519	-0.024994	0.395466
C113	C	1.063567	-0.891147	-0.354553
C114	C	1.313567	-0.641147	-0.104553
C115	C	1.563567	-0.391147	0.145447
C116	C	1.813567	-0.141147	0.395447
C117	C	1.108341	-0.942921	-0.309874
C118	C	1.358341	-0.692921	-0.059874
C119	C	1.608341	-0.442921	0.190126
C120	C	1.858341	-0.192921	0.440126
C121	C	1.108391	-1.062972	-0.309893
C122	C	1.358391	-0.812972	-0.059893
C123	C	1.608391	-0.562972	0.190107
C124	C	1.858391	-0.312972	0.440107
C125	C	1.255518	-0.503517	-0.354559
C126	C	1.505518	-0.253517	-0.104559
C127	C	1.755518	-0.003517	0.145441
C128	C	2.005518	0.246483	0.395441
C129	C	1.337317	-0.503531	-0.354564
C130	C	1.587317	-0.253531	-0.104564
C131	C	1.837317	-0.003531	0.145436
C132	C	2.087317	0.246469	0.395436
C133	C	1.063610	-0.503412	-0.546500
C134	C	1.313610	-0.253412	-0.296500
C135	C	1.563610	-0.003412	-0.046500
C136	C	1.813610	0.246588	0.203500
C137	C	1.063629	-0.503381	-0.628299
C138	C	1.313629	-0.253381	-0.378299
C139	C	1.563629	-0.003381	-0.128299
C140	C	1.813629	0.246619	0.121701
C141	C	1.063632	-0.230914	-0.354576
C142	C	1.313632	0.019086	-0.104576
C143	C	1.563632	0.269086	0.145424
C144	C	1.813632	0.519086	0.395424
C145	C	1.063660	-0.114760	-0.354588
C146	C	1.313660	0.135240	-0.104588
C147	C	1.563660	0.385240	0.145412
C148	C	1.813660	0.635240	0.395412
C149	C	1.110732	-0.436489	-0.816504
C150	C	1.360732	-0.186489	-0.566504
C151	C	1.610732	0.063511	-0.316504
C152	C	1.860732	0.313511	-0.066504
C153	C	1.110741	-0.436459	-0.893363
C154	C	1.360741	-0.186459	-0.643363
C155	C	1.610741	0.063541	-0.393363
C156	C	1.860741	0.313541	-0.143363
C157	C	1.016579	-0.570111	-0.893331
C158	C	1.266579	-0.320111	-0.643331
C159	C	1.516579	-0.070111	-0.393331
C160	C	1.766579	0.179889	-0.143331
C161	C	1.016567	-0.570136	-0.816474
C162	C	1.266567	-0.320136	-0.566474
C163	C	1.516567	-0.070136	-0.316474
C164	C	1.766567	0.179864	-0.066474
C165	C	1.063648	-0.503326	-0.778062
C166	C	1.313648	-0.253326	-0.528062
C167	C	1.563648	-0.003326	-0.278062
C168	C	1.813648	0.246674	-0.028062
C169	C	1.063668	-0.503271	-0.931778
C170	C	1.313668	-0.253271	-0.681778
C171	C	1.563668	-0.003271	-0.431778
C172	C	1.813668	0.246729	-0.181778
C173	C	1.063678	-0.503239	-1.015112
C174	C	1.313678	-0.253239	-0.765112
C175	C	1.563678	-0.003239	-0.515112
C176	C	1.813678	0.246761	-0.265112
C177	C	1.063638	-0.503357	-0.694723
C178	C	1.313638	-0.253357	-0.444723
C179	C	1.563638	-0.003357	-0.194723
C180	C	1.813638	0.246643	0.055277
C181	C	1.063563	-0.503480	-0.163341
C182	C	1.313563	-0.253480	0.086659
C183	C	1.563563	-0.003480	0.336659
C184	C	1.813563	0.246520	0.586659
C185	C	1.063687	-0.503216	-0.081542
C186	C	1.313687	-0.253216	0.168458
C187	C	1.563687	-0.003216	0.418458
C188	C	1.813687	0.246784	0.668458
H189	H	0.494203	-0.382109	-0.269297
H190	H	0.744203	-0.132109	-0.019297
H191	H	0.994203	0.117891	0.230703
H192	H	1.244203	0.367891	0.480703
H193	H	1.025323	-1.070243	-0.392839
H194	H	1.275323	-0.820243	-0.142839
H195	H	1.525323	-0.570243	0.107161
H196	H	1.775323	-0.320243	0.357161
F197	F	1.013515	-0.949372	-0.404573
F198	F	1.263515	-0.699372	-0.154573
F199	F	1.513515	-0.449372	0.095427
F200	F	1.763515	-0.199372	0.345427
F201	F	0.643279	-0.641616	-0.451549
F202	F	0.893279	-0.391616	-0.201549
F203	F	1.143279	-0.141616	0.048451
F204	F	1.393279	0.108384	0.298451
F205	F	1.158401	-0.884696	-0.259862
F206	F	1.408401	-0.634696	-0.009862
F207	F	1.658401	-0.384696	0.240138
F208	F	1.908401	-0.134696	0.490138
F209	F	1.160837	-0.365382	-0.775626
F210	F	1.410837	-0.115382	-0.525626
F211	F	1.660837	0.134618	-0.275626
F212	F	1.910837	0.384618	-0.025626
H213	H	1.149080	-0.382031	-0.924659
H214	H	1.399080	-0.132031	-0.674659
H215	H	1.649080	0.117969	-0.424659
H216	H	1.899080	0.367969	-0.174659
H217	H	1.146721	-1.107497	-0.271640
H218	H	1.396721	-0.857497	-0.021640
H219	H	1.646721	-0.607497	0.228360
H220	H	1.896721	-0.357497	0.478360
F221	F	0.484633	-0.641634	-0.451559
F222	F	0.734633	-0.391634	-0.201559
F223	F	0.984633	-0.141634	0.048441
F224	F	1.234633	0.108366	0.298441
F225	F	0.966478	-0.641215	-0.934218
F226	F	1.216478	-0.391215	-0.684218
F227	F	1.466478	-0.141215	-0.434218
F228	F	1.716478	0.108785	-0.184218
H229	H	0.633644	-0.382095	-0.269301
H230	H	0.883644	-0.132095	-0.019301
H231	H	1.133644	0.117905	0.230699
H232	H	1.383644	0.367905	0.480699
F233	F	0.966448	-0.641272	-0.775559
F234	F	1.216448	-0.391272	-0.525559
F235	F	1.466448	-0.141272	-0.275559
F236	F	1.716448	0.108728	-0.025559
