data_functionalizedCrystal
_audit_creation_method	'MofGen! by Chris Wilmer'
_symmetry_space_group_name_H-M	'P1'
_symmetry_Int_Tables_number	1
_symmetry_cell_setting	triclinic
loop_
_symmetry_equiv_pos_as_xyz
  x,y,z
_cell_length_a	27.732048
_cell_length_b	27.732048
_cell_length_c	26.210047
_cell_angle_alpha	90.018945
_cell_angle_beta	89.988763
_cell_angle_gamma	97.357345
loop_
_atom_site_label
_atom_site_type_symbol
_atom_site_fract_x
_atom_site_fract_y
_atom_site_fract_z
O1	O	0.057516	-0.640941	-0.042369
O2	O	0.307516	-0.390941	0.207631
O3	O	0.557516	-0.140941	0.457631
O4	O	0.807516	0.109059	0.707631
O5	O	0.066262	-0.500148	-0.042385
O6	O	0.316262	-0.250148	0.207615
O7	O	0.566262	-0.000148	0.457615
O8	O	0.816262	0.249852	0.707615
O9	O	-0.008508	-0.574917	-0.042367
O10	O	0.241492	-0.324917	0.207633
O11	O	0.491492	-0.074917	0.457633
O12	O	0.741492	0.175083	0.707633
O13	O	0.132286	-0.566172	-0.042387
O14	O	0.382286	-0.316172	0.207613
O15	O	0.632286	-0.066172	0.457613
O16	O	0.882286	0.183828	0.707613
O17	O	-0.008509	-0.574883	0.042491
O18	O	0.241491	-0.324883	0.292491
O19	O	0.491491	-0.074883	0.542491
O20	O	0.741491	0.175117	0.792491
O21	O	0.066261	-0.500113	0.042473
O22	O	0.316261	-0.250113	0.292473
O23	O	0.566261	-0.000113	0.542473
O24	O	0.816261	0.249887	0.792473
O25	O	0.057515	-0.640907	0.042489
O26	O	0.307515	-0.390907	0.292489
O27	O	0.557515	-0.140907	0.542489
O28	O	0.807515	0.109093	0.792489
Cu29	Cu	0.061888	-0.570507	0.050229
Cu30	Cu	0.311888	-0.320507	0.300229
Cu31	Cu	0.561888	-0.070507	0.550229
Cu32	Cu	0.811888	0.179493	0.800229
Cu33	Cu	0.061889	-0.570548	-0.050125
Cu34	Cu	0.311889	-0.320548	0.199875
Cu35	Cu	0.561889	-0.070548	0.449875
Cu36	Cu	0.811889	0.179452	0.699875
O37	O	0.132285	-0.566137	0.042471
O38	O	0.382285	-0.316137	0.292471
O39	O	0.632285	-0.066137	0.542471
O40	O	0.882285	0.183863	0.792471
C41	C	0.066078	-0.482124	0.000042
C42	C	0.316078	-0.232124	0.250042
C43	C	0.566078	0.017876	0.500042
C44	C	0.816078	0.267876	0.750042
C45	C	0.065525	-0.428469	0.000036
C46	C	0.315525	-0.178469	0.250036
C47	C	0.565525	0.071531	0.500036
C48	C	0.815525	0.321531	0.750036
C49	C	-0.026515	-0.574716	0.000064
C50	C	0.223485	-0.324716	0.250064
C51	C	0.473485	-0.074716	0.500064
C52	C	0.723485	0.175284	0.750064
C53	C	-0.080170	-0.574164	0.000068
C54	C	0.169830	-0.324164	0.250068
C55	C	0.419830	-0.074164	0.500068
C56	C	0.669830	0.175836	0.750068
N57	N	0.061887	-0.570482	0.120813
N58	N	0.311887	-0.320482	0.370813
N59	N	0.561887	-0.070482	0.620813
N60	N	0.811887	0.179518	0.870813
C61	C	-0.418985	-0.614867	0.000046
C62	C	-0.168985	-0.364867	0.250046
C63	C	0.081015	-0.114867	0.500046
C64	C	0.331015	0.135133	0.750046
C65	C	-0.620645	-0.612816	0.000039
C66	C	-0.370645	-0.362816	0.250039
C67	C	-0.120645	-0.112816	0.500039
C68	C	0.129355	0.137184	0.750039
O69	O	-0.651900	-0.650037	0.000021
O70	O	-0.401900	-0.400037	0.250021
O71	O	-0.151900	-0.150037	0.500021
O72	O	0.098100	0.099963	0.750021
N73	N	-0.639768	-0.568481	0.000034
N74	N	-0.389768	-0.318481	0.250034
N75	N	-0.139768	-0.068481	0.500034
N76	N	0.110232	0.181519	0.750034
C77	C	-0.608474	-0.524656	0.000028
C78	C	-0.358474	-0.274656	0.250028
C79	C	-0.108474	-0.024656	0.500028
C80	C	0.141526	0.225344	0.750028
O81	O	-0.629367	-0.486899	0.000019
O82	O	-0.379367	-0.236899	0.250019
O83	O	-0.129367	0.013101	0.500019
O84	O	0.120633	0.263101	0.750019
C85	C	-0.406815	-0.526707	0.000032
C86	C	-0.156815	-0.276707	0.250032
C87	C	0.093185	-0.026707	0.500032
C88	C	0.343185	0.223293	0.750032
C89	C	-0.387694	-0.571045	0.000042
C90	C	-0.137694	-0.321045	0.250042
C91	C	0.112306	-0.071045	0.500042
C92	C	0.362306	0.178955	0.750042
C93	C	-0.399864	-0.659202	0.000056
C94	C	-0.149864	-0.409202	0.250056
C95	C	0.100136	-0.159202	0.500056
C96	C	0.350136	0.090798	0.750056
C97	C	-0.349452	-0.659714	0.000060
C98	C	-0.099452	-0.409714	0.250060
C99	C	0.150548	-0.159714	0.500060
C100	C	0.400548	0.090286	0.750060
C101	C	-0.318161	-0.615892	0.000056
C102	C	-0.068161	-0.365892	0.250056
C103	C	0.181839	-0.115892	0.500056
C104	C	0.431839	0.134108	0.750056
C105	C	-0.337282	-0.571557	0.000046
C106	C	-0.087282	-0.321557	0.250046
C107	C	0.162718	-0.071557	0.500046
C108	C	0.412718	0.178443	0.750046
C109	C	-0.375521	-0.482882	0.000022
C110	C	-0.125521	-0.232882	0.250022
C111	C	0.124479	0.017118	0.500022
C112	C	0.374479	0.267118	0.750022
C113	C	-0.325104	-0.483399	0.000022
C114	C	-0.075104	-0.233399	0.250022
C115	C	0.174896	0.016601	0.500022
C116	C	0.424896	0.266601	0.750022
C117	C	-0.305983	-0.527737	0.000032
C118	C	-0.055983	-0.277737	0.250032
C119	C	0.194017	-0.027737	0.500032
C120	C	0.444017	0.222263	0.750032
C121	C	-0.255580	-0.528247	0.000046
C122	C	-0.005580	-0.278247	0.250046
C123	C	0.244420	-0.028247	0.500046
C124	C	0.494420	0.221753	0.750046
N125	N	-0.236456	-0.572583	0.000051
N126	N	0.013544	-0.322583	0.250051
N127	N	0.263544	-0.072583	0.500051
N128	N	0.513544	0.177417	0.750051
C129	C	-0.267747	-0.616405	0.000056
C130	C	-0.017747	-0.366405	0.250056
C131	C	0.232253	-0.116405	0.500056
C132	C	0.482253	0.133595	0.750056
C133	C	-0.714348	-0.523582	0.000027
C134	C	-0.464348	-0.273582	0.250027
C135	C	-0.214348	-0.023582	0.500027
C136	C	0.035652	0.226418	0.750027
C137	C	-0.764762	-0.523069	0.000027
C138	C	-0.514762	-0.273069	0.250027
C139	C	-0.264762	-0.023069	0.500027
C140	C	-0.014762	0.226931	0.750027
C141	C	-0.776930	-0.611230	0.000037
C142	C	-0.526930	-0.361230	0.250037
C143	C	-0.276930	-0.111230	0.500037
C144	C	-0.026930	0.138770	0.750037
C145	C	-0.726514	-0.611742	0.000041
C146	C	-0.476514	-0.361742	0.250041
C147	C	-0.226514	-0.111742	0.500041
C148	C	0.023486	0.138258	0.750041
C149	C	-0.695224	-0.567917	0.000032
C150	C	-0.445224	-0.317917	0.250032
C151	C	-0.195224	-0.067917	0.500032
C152	C	0.054776	0.182083	0.750032
C153	C	-0.161878	-0.617477	0.000066
C154	C	0.088122	-0.367477	0.250066
C155	C	0.338122	-0.117477	0.500066
C156	C	0.588122	0.132523	0.750066
C157	C	-0.111461	-0.617986	0.000073
C158	C	0.138539	-0.367986	0.250073
C159	C	0.388539	-0.117986	0.500073
C160	C	0.638539	0.132014	0.750073
C161	C	-0.099298	-0.529825	0.000060
C162	C	0.150702	-0.279825	0.250060
C163	C	0.400702	-0.029825	0.500060
C164	C	0.650702	0.220175	0.750060
C165	C	-0.149710	-0.529316	0.000056
C166	C	0.100290	-0.279316	0.250056
C167	C	0.350290	-0.029316	0.500056
C168	C	0.600290	0.220684	0.750056
C169	C	-0.180999	-0.573146	0.000057
C170	C	0.069001	-0.323146	0.250057
C171	C	0.319001	-0.073146	0.500057
C172	C	0.569001	0.176854	0.750057
O173	O	-0.224296	-0.491047	0.000059
O174	O	0.025704	-0.241047	0.250059
O175	O	0.275704	0.008953	0.500059
O176	O	0.525704	0.258953	0.750059
O177	O	-0.246844	-0.654156	0.000054
O178	O	0.003156	-0.404156	0.250054
O179	O	0.253156	-0.154156	0.500054
O180	O	0.503156	0.095844	0.750054
C181	C	-0.469397	-0.614355	0.000042
C182	C	-0.219397	-0.364355	0.250042
C183	C	0.030603	-0.114355	0.500042
C184	C	0.280603	0.135645	0.750042
C185	C	-0.488518	-0.570021	0.000033
C186	C	-0.238518	-0.320021	0.250033
C187	C	0.011482	-0.070021	0.500033
C188	C	0.261482	0.179979	0.750033
C189	C	-0.457228	-0.526198	0.000028
C190	C	-0.207228	-0.276198	0.250028
C191	C	0.042772	-0.026198	0.500028
C192	C	0.292772	0.223802	0.750028
C193	C	-0.538933	-0.569508	0.000033
C194	C	-0.288933	-0.319508	0.250033
C195	C	-0.038933	-0.069508	0.500033
C196	C	0.211067	0.180492	0.750033
C197	C	-0.570223	-0.613330	0.000037
C198	C	-0.320223	-0.363330	0.250037
C199	C	-0.070223	-0.113330	0.500037
C200	C	0.179777	0.136670	0.750037
C201	C	-0.551100	-0.657665	0.000042
C202	C	-0.301100	-0.407665	0.250042
C203	C	-0.051100	-0.157665	0.500042
C204	C	0.198900	0.092335	0.750042
C205	C	-0.500688	-0.658177	0.000046
C206	C	-0.250688	-0.408177	0.250046
C207	C	-0.000688	-0.158177	0.500046
C208	C	0.249312	0.091823	0.750046
C209	C	-0.476351	-0.481863	0.000023
C210	C	-0.226351	-0.231863	0.250023
C211	C	0.023649	0.018137	0.500023
C212	C	0.273649	0.268137	0.750023
C213	C	-0.526764	-0.481355	0.000019
C214	C	-0.276764	-0.231355	0.250019
C215	C	-0.026764	0.018645	0.500019
C216	C	0.223236	0.268645	0.750019
C217	C	-0.558054	-0.525177	0.000024
C218	C	-0.308054	-0.275177	0.250024
C219	C	-0.058054	-0.025177	0.500024
C220	C	0.191946	0.224823	0.750024
C221	C	0.150292	-0.566338	0.000040
C222	C	0.400292	-0.316338	0.250040
C223	C	0.650292	-0.066338	0.500040
C224	C	0.900292	0.183662	0.750040
C225	C	0.203947	-0.566891	0.000032
C226	C	0.453947	-0.316891	0.250032
C227	C	0.703947	-0.066891	0.500032
C228	C	0.953947	0.183109	0.750032
C229	C	0.057699	-0.658931	0.000061
C230	C	0.307699	-0.408931	0.250061
C231	C	0.557699	-0.158931	0.500061
C232	C	0.807699	0.091069	0.750061
C233	C	0.058252	-0.712586	0.000064
C234	C	0.308252	-0.462586	0.250064
C235	C	0.558252	-0.212586	0.500064
C236	C	0.808252	0.037414	0.750064
C237	C	0.106229	-0.089654	0.000053
C238	C	0.356229	0.160346	0.250053
C239	C	0.606229	0.410346	0.500053
C240	C	0.856229	0.660346	0.750053
C241	C	0.104178	0.112006	0.000057
C242	C	0.354178	0.362006	0.250057
C243	C	0.604178	0.612006	0.500057
C244	C	0.854178	0.862006	0.750057
O245	O	0.141398	0.143262	0.000074
O246	O	0.391398	0.393262	0.250074
O247	O	0.641398	0.643262	0.500074
O248	O	0.891398	0.893262	0.750074
N249	N	0.059843	0.131130	0.000063
N250	N	0.309843	0.381130	0.250063
N251	N	0.559843	0.631130	0.500063
N252	N	0.809843	0.881130	0.750063
C253	C	0.016017	0.099835	0.000071
C254	C	0.266017	0.349835	0.250071
C255	C	0.516017	0.599835	0.500071
C256	C	0.766017	0.849835	0.750071
O257	O	-0.021740	0.120728	0.000081
O258	O	0.228260	0.370728	0.250081
O259	O	0.478260	0.620728	0.500081
O260	O	0.728260	0.870728	0.750081
C261	C	0.018068	-0.101824	0.000069
C262	C	0.268068	0.148176	0.250069
C263	C	0.518068	0.398176	0.500069
C264	C	0.768068	0.648176	0.750069
C265	C	0.062407	-0.120944	0.000059
C266	C	0.312407	0.129056	0.250059
C267	C	0.562407	0.379056	0.500059
C268	C	0.812407	0.629056	0.750059
C269	C	0.150563	-0.108775	0.000043
C270	C	0.400563	0.141225	0.250043
C271	C	0.650563	0.391225	0.500043
C272	C	0.900563	0.641225	0.750043
C273	C	0.151075	-0.159187	0.000039
C274	C	0.401075	0.090813	0.250039
C275	C	0.651075	0.340813	0.500039
C276	C	0.901075	0.590813	0.750039
C277	C	0.107253	-0.190477	0.000045
C278	C	0.357253	0.059523	0.250045
C279	C	0.607253	0.309523	0.500045
C280	C	0.857253	0.559523	0.750045
C281	C	0.062919	-0.171356	0.000055
C282	C	0.312919	0.078644	0.250055
C283	C	0.562919	0.328644	0.500055
C284	C	0.812919	0.578644	0.750055
C285	C	-0.025757	-0.133117	0.000081
C286	C	0.224243	0.116883	0.250081
C287	C	0.474243	0.366883	0.500081
C288	C	0.724243	0.616883	0.750081
C289	C	-0.025240	-0.183534	0.000082
C290	C	0.224760	0.066466	0.250082
C291	C	0.474760	0.316466	0.500082
C292	C	0.724760	0.566466	0.750082
C293	C	0.019098	-0.202655	0.000071
C294	C	0.269098	0.047345	0.250071
C295	C	0.519098	0.297345	0.500071
C296	C	0.769098	0.547345	0.750071
C297	C	0.019609	-0.253059	0.000057
C298	C	0.269609	-0.003059	0.250057
C299	C	0.519609	0.246941	0.500057
C300	C	0.769609	0.496941	0.750057
N301	N	0.063944	-0.272183	0.000051
N302	N	0.313944	-0.022183	0.250051
N303	N	0.563944	0.227817	0.500051
N304	N	0.813944	0.477817	0.750051
C305	C	0.107766	-0.240892	0.000045
C306	C	0.357766	0.009108	0.250045
C307	C	0.607766	0.259108	0.500045
C308	C	0.857766	0.509108	0.750045
C309	C	0.014943	0.205709	0.000070
C310	C	0.264943	0.455709	0.250070
C311	C	0.514943	0.705709	0.500070
C312	C	0.764943	0.955709	0.750070
C313	C	0.014430	0.256124	0.000070
C314	C	0.264430	0.506124	0.250070
C315	C	0.514430	0.756124	0.500070
C316	C	0.764430	1.006124	0.750070
C317	C	0.102591	0.268291	0.000057
C318	C	0.352591	0.518291	0.250057
C319	C	0.602591	0.768291	0.500057
C320	C	0.852591	1.018291	0.750057
C321	C	0.103104	0.217876	0.000054
C322	C	0.353104	0.467876	0.250054
C323	C	0.603104	0.717876	0.500054
C324	C	0.853104	0.967876	0.750054
C325	C	0.059278	0.186585	0.000065
C326	C	0.309278	0.436585	0.250065
C327	C	0.559278	0.686585	0.500065
C328	C	0.809278	0.936585	0.750065
C329	C	0.108839	-0.346761	0.000036
C330	C	0.358839	-0.096761	0.250036
C331	C	0.608839	0.153239	0.500036
C332	C	0.858839	0.403239	0.750036
C333	C	0.109347	-0.397178	0.000030
C334	C	0.359347	-0.147178	0.250030
C335	C	0.609347	0.102822	0.500030
C336	C	0.859347	0.352822	0.750030
C337	C	0.021186	-0.409341	0.000045
C338	C	0.271186	-0.159341	0.250045
C339	C	0.521186	0.090659	0.500045
C340	C	0.771186	0.340659	0.750045
C341	C	0.020678	-0.358929	0.000049
C342	C	0.270678	-0.108929	0.250049
C343	C	0.520678	0.141071	0.500049
C344	C	0.770678	0.391071	0.750049
C345	C	0.064508	-0.327639	0.000046
C346	C	0.314508	-0.077639	0.250046
C347	C	0.564508	0.172361	0.500046
C348	C	0.814508	0.422361	0.750046
O349	O	-0.017592	-0.284343	0.000046
O350	O	0.232408	-0.034343	0.250046
O351	O	0.482408	0.215657	0.500046
O352	O	0.732408	0.465657	0.750046
O353	O	0.145518	-0.261794	0.000047
O354	O	0.395518	-0.011794	0.250047
O355	O	0.645518	0.238206	0.500047
O356	O	0.895518	0.488206	0.750047
C357	C	0.105716	-0.039242	0.000057
C358	C	0.355716	0.210758	0.250057
C359	C	0.605716	0.460758	0.500057
C360	C	0.855716	0.710758	0.750057
C361	C	0.061382	-0.020120	0.000067
C362	C	0.311382	0.229880	0.250067
C363	C	0.561382	0.479880	0.500067
C364	C	0.811382	0.729880	0.750067
C365	C	0.017560	-0.051411	0.000073
C366	C	0.267560	0.198589	0.250073
C367	C	0.517560	0.448589	0.500073
C368	C	0.767560	0.698589	0.750073
C369	C	0.060869	0.030294	0.000066
C370	C	0.310869	0.280294	0.250066
C371	C	0.560869	0.530294	0.500066
C372	C	0.810869	0.780294	0.750066
C373	C	0.104691	0.061585	0.000060
C374	C	0.354691	0.311585	0.250060
C375	C	0.604691	0.561585	0.500060
C376	C	0.854691	0.811585	0.750060
C377	C	0.149026	0.042461	0.000054
C378	C	0.399026	0.292461	0.250054
C379	C	0.649026	0.542461	0.500054
C380	C	0.899026	0.792461	0.750054
C381	C	0.149539	-0.007951	0.000050
C382	C	0.399539	0.242049	0.250050
C383	C	0.649539	0.492049	0.500050
C384	C	0.899539	0.742049	0.750050
C385	C	-0.026775	-0.032287	0.000078
C386	C	0.223225	0.217713	0.250078
C387	C	0.473225	0.467713	0.500078
C388	C	0.723225	0.717713	0.750078
C389	C	-0.027284	0.018125	0.000082
C390	C	0.222716	0.268125	0.250082
C391	C	0.472716	0.518125	0.500082
C392	C	0.722716	0.768125	0.750082
C393	C	0.016538	0.049416	0.000076
C394	C	0.266538	0.299416	0.250076
C395	C	0.516538	0.549416	0.500076
C396	C	0.766538	0.799416	0.750076
N397	N	0.061886	-0.570577	-0.120709
N398	N	0.311886	-0.320577	0.129291
N399	N	0.561886	-0.070577	0.379291
N400	N	0.811886	0.179423	0.629291
C401	C	0.094981	-0.537408	0.526773
C402	C	0.344981	-0.287408	0.776773
C403	C	0.594981	-0.037408	1.026773
C404	C	0.844981	0.212592	1.276773
C405	C	0.094982	-0.537385	0.313114
C406	C	0.344982	-0.287385	0.563114
C407	C	0.594982	-0.037385	0.813114
C408	C	0.844982	0.212615	1.063114
O409	O	0.123115	-0.509207	0.285489
O410	O	0.373115	-0.259207	0.535489
O411	O	0.623115	-0.009207	0.785489
O412	O	0.873115	0.240793	1.035489
N413	N	0.061885	-0.570497	0.286397
N414	N	0.311885	-0.320497	0.536397
N415	N	0.561885	-0.070497	0.786397
N416	N	0.811885	0.179503	1.036397
C417	C	0.028785	-0.603615	0.313098
C418	C	0.278785	-0.353615	0.563098
C419	C	0.528785	-0.103615	0.813098
C420	C	0.778785	0.146385	1.063098
O421	O	0.000631	-0.631775	0.285471
O422	O	0.250631	-0.381775	0.535471
O423	O	0.500631	-0.131775	0.785471
O424	O	0.750631	0.118225	1.035471
C425	C	0.028783	-0.603636	0.526756
C426	C	0.278783	-0.353636	0.776756
C427	C	0.528783	-0.103636	1.026756
C428	C	0.778783	0.146364	1.276756
C429	C	0.061884	-0.570525	0.553470
C430	C	0.311884	-0.320525	0.803470
C431	C	0.561884	-0.070525	1.053470
C432	C	0.811884	0.179475	1.303470
C433	C	0.128080	-0.504299	0.553487
C434	C	0.378080	-0.254299	0.803487
C435	C	0.628080	-0.004299	1.053487
C436	C	0.878080	0.245701	1.303487
C437	C	0.128081	-0.504307	0.606898
C438	C	0.378081	-0.254307	0.856898
C439	C	0.628081	-0.004307	1.106898
C440	C	0.878081	0.245693	1.356898
C441	C	0.094984	-0.537424	0.633596
C442	C	0.344984	-0.287424	0.883596
C443	C	0.594984	-0.037424	1.133596
C444	C	0.844984	0.212576	1.383596
C445	C	0.061886	-0.570533	0.606881
C446	C	0.311886	-0.320533	0.856881
C447	C	0.561886	-0.070533	1.106881
C448	C	0.811886	0.179467	1.356881
C449	C	-0.004320	-0.636752	0.553456
C450	C	0.245680	-0.386752	0.803456
C451	C	0.495680	-0.136752	1.053456
C452	C	0.745680	0.113248	1.303456
C453	C	-0.004319	-0.636753	0.606873
C454	C	0.245681	-0.386753	0.856873
C455	C	0.495681	-0.136753	1.106873
C456	C	0.745681	0.113247	1.356873
C457	C	0.028783	-0.603642	0.633588
C458	C	0.278783	-0.353642	0.883588
C459	C	0.528783	-0.103642	1.133588
C460	C	0.778783	0.146358	1.383588
C461	C	0.028790	-0.603657	0.686990
C462	C	0.278790	-0.353657	0.936990
C463	C	0.528790	-0.103657	1.186990
C464	C	0.778790	0.146343	1.436990
N465	N	0.061886	-0.570545	0.713707
N466	N	0.311886	-0.320545	0.963707
N467	N	0.561886	-0.070545	1.213707
N468	N	0.811886	0.179455	1.463707
C469	C	0.094983	-0.537428	0.687010
C470	C	0.344983	-0.287428	0.937010
C471	C	0.594983	-0.037428	1.187010
C472	C	0.844983	0.212572	1.437010
C473	C	0.028789	-0.603603	0.200925
C474	C	0.278789	-0.353603	0.450925
C475	C	0.528789	-0.103603	0.700925
C476	C	0.778789	0.146397	0.950925
C477	C	0.028790	-0.603598	0.147511
C478	C	0.278790	-0.353598	0.397511
C479	C	0.528790	-0.103598	0.647511
C480	C	0.778790	0.146402	0.897511
C481	C	0.094986	-0.537367	0.147530
C482	C	0.344986	-0.287367	0.397530
C483	C	0.594986	-0.037367	0.647530
C484	C	0.844986	0.212633	0.897530
C485	C	0.094987	-0.537374	0.200945
C486	C	0.344987	-0.287374	0.450945
C487	C	0.594987	-0.037374	0.700945
C488	C	0.844987	0.212626	0.950945
C489	C	0.061885	-0.570491	0.227642
C490	C	0.311885	-0.320491	0.477642
C491	C	0.561885	-0.070491	0.727642
C492	C	0.811885	0.179509	0.977642
C493	C	0.094984	-0.537448	0.799178
C494	C	0.344984	-0.287448	1.049178
C495	C	0.594984	-0.037448	1.299178
C496	C	0.844984	0.212552	1.549178
C497	C	0.094983	-0.537460	0.852594
C498	C	0.344983	-0.287460	1.102594
C499	C	0.594983	-0.037460	1.352594
C500	C	0.844983	0.212540	1.602594
C501	C	0.028786	-0.603689	0.852569
C502	C	0.278786	-0.353689	1.102569
C503	C	0.528786	-0.103689	1.352569
C504	C	0.778786	0.146311	1.602569
C505	C	0.028787	-0.603679	0.799158
C506	C	0.278787	-0.353679	1.049158
C507	C	0.528787	-0.103679	1.299158
C508	C	0.778787	0.146321	1.549158
C509	C	0.061888	-0.570554	0.772463
C510	C	0.311888	-0.320554	1.022463
C511	C	0.561888	-0.070554	1.272463
C512	C	0.811888	0.179446	1.522463
O513	O	0.000667	-0.631817	0.714649
O514	O	0.250667	-0.381817	0.964649
O515	O	0.500667	-0.131817	1.214649
O516	O	0.750667	0.118183	1.464649
O517	O	0.123125	-0.509265	0.714646
O518	O	0.373125	-0.259265	0.964646
O519	O	0.623125	-0.009265	1.214646
O520	O	0.873125	0.240735	1.464646
C521	C	0.094980	-0.537400	0.473361
C522	C	0.344980	-0.287400	0.723361
C523	C	0.594980	-0.037400	0.973361
C524	C	0.844980	0.212600	1.223361
C525	C	0.061881	-0.570509	0.446647
C526	C	0.311881	-0.320509	0.696647
C527	C	0.561881	-0.070509	0.946647
C528	C	0.811881	0.179491	1.196647
C529	C	0.028784	-0.603626	0.473344
C530	C	0.278784	-0.353626	0.723344
C531	C	0.528784	-0.103626	0.973344
C532	C	0.778784	0.146374	1.223344
C533	C	0.061883	-0.570504	0.393233
C534	C	0.311883	-0.320504	0.643233
C535	C	0.561883	-0.070504	0.893233
C536	C	0.811883	0.179496	1.143233
C537	C	0.094980	-0.537388	0.366536
C538	C	0.344980	-0.287388	0.616536
C539	C	0.594980	-0.037388	0.866536
C540	C	0.844980	0.212612	1.116536
C541	C	0.128076	-0.504276	0.393253
C542	C	0.378076	-0.254276	0.643253
C543	C	0.628076	-0.004276	0.893253
C544	C	0.878076	0.245724	1.143253
C545	C	0.128077	-0.504283	0.446664
C546	C	0.378077	-0.254283	0.696664
C547	C	0.628077	-0.004283	0.946664
C548	C	0.878077	0.245717	1.196664
C549	C	-0.004312	-0.636738	0.446627
C550	C	0.245688	-0.386738	0.696627
C551	C	0.495688	-0.136738	0.946627
C552	C	0.745688	0.113262	1.196627
C553	C	-0.004310	-0.636728	0.393216
C554	C	0.245690	-0.386728	0.643216
C555	C	0.495690	-0.136728	0.893216
C556	C	0.745690	0.113272	1.143216
C557	C	0.028787	-0.603611	0.366519
C558	C	0.278787	-0.353611	0.616519
C559	C	0.528787	-0.103611	0.866519
C560	C	0.778787	0.146389	1.116519
H561	H	-0.095896	-0.654093	0.000082
H562	H	0.154104	-0.404093	0.250082
H563	H	0.404104	-0.154093	0.500082
H564	H	0.654104	0.095907	0.750082
Cl565	Cl	-0.285770	-0.428300	0.000010
Cl566	Cl	-0.035770	-0.178300	0.250010
Cl567	Cl	0.214230	0.071700	0.500010
Cl568	Cl	0.464230	0.321700	0.750010
H569	H	0.121937	-0.510474	0.777449
H570	H	0.371937	-0.260474	1.027449
H571	H	0.621937	-0.010474	1.277449
H572	H	0.871937	0.239526	1.527449
H573	H	-0.063392	0.033688	0.000086
H574	H	0.186608	0.283688	0.250086
H575	H	0.436608	0.533688	0.500086
H576	H	0.686608	0.783688	0.750086
Cl577	Cl	-0.059952	-0.474737	0.000053
Cl578	Cl	0.190048	-0.224737	0.250053
Cl579	Cl	0.440048	0.025263	0.500053
Cl580	Cl	0.690048	0.275263	0.750053
H581	H	0.139207	0.202311	0.000049
H582	H	0.389207	0.452311	0.250049
H583	H	0.639207	0.702311	0.500049
H584	H	0.889207	0.952311	0.750049
H585	H	0.001838	-0.630646	0.777407
H586	H	0.251838	-0.380646	1.027407
H587	H	0.501838	-0.130646	1.277407
H588	H	0.751838	0.119354	1.527407
H589	H	0.121940	-0.510497	0.874343
H590	H	0.371940	-0.260497	1.124343
H591	H	0.621940	-0.010497	1.374343
H592	H	0.871940	0.239503	1.624343
Cl593	Cl	-0.173748	-0.473577	0.000053
Cl594	Cl	0.076252	-0.223577	0.250053
Cl595	Cl	0.326252	0.026423	0.500053
Cl596	Cl	0.576252	0.276423	0.750053
Cl597	Cl	-0.012819	-0.645232	0.113933
Cl598	Cl	0.237181	-0.395232	0.363933
Cl599	Cl	0.487181	-0.145232	0.613933
Cl600	Cl	0.737181	0.104768	0.863933
H601	H	0.001839	-0.630654	0.874315
H602	H	0.251839	-0.380654	1.124315
H603	H	0.501839	-0.130654	1.374315
H604	H	0.751839	0.119346	1.624315
Cl605	Cl	-0.590446	-0.712755	0.000050
Cl606	Cl	-0.340446	-0.462755	0.250050
Cl607	Cl	-0.090446	-0.212755	0.500050
Cl608	Cl	0.159554	0.037245	0.750050
Cl609	Cl	0.157681	0.307637	0.000052
Cl610	Cl	0.407681	0.557637	0.250052
Cl611	Cl	0.657681	0.807637	0.500052
Cl612	Cl	0.907681	1.057637	0.750052
Cl613	Cl	-0.201205	-0.672579	0.000068
Cl614	Cl	0.048795	-0.422579	0.250068
Cl615	Cl	0.298795	-0.172579	0.500068
Cl616	Cl	0.548795	0.077421	0.750068
H617	H	-0.031276	-0.663720	0.628607
H618	H	0.218724	-0.413720	0.878607
H619	H	0.468724	-0.163720	1.128607
H620	H	0.718724	0.086280	1.378607
Cl621	Cl	-0.012828	-0.645240	0.234480
Cl622	Cl	0.237172	-0.395240	0.484480
Cl623	Cl	0.487172	-0.145240	0.734480
Cl624	Cl	0.737172	0.104760	0.984480
H625	H	-0.485125	-0.694282	0.000054
H626	H	-0.235125	-0.444282	0.250054
H627	H	0.014875	-0.194282	0.500054
H628	H	0.264875	0.055718	0.750054
Cl629	Cl	0.205662	-0.069446	0.000033
Cl630	Cl	0.455662	0.180554	0.250033
Cl631	Cl	0.705662	0.430554	0.500033
Cl632	Cl	0.955662	0.680554	0.750033
H633	H	-0.542327	-0.445246	0.000016
H634	H	-0.292327	-0.195246	0.250016
H635	H	-0.042327	0.054754	0.500016
H636	H	0.207673	0.304754	0.750016
H637	H	-0.425336	-0.694889	0.000058
H638	H	-0.175336	-0.444889	0.250058
H639	H	0.074664	-0.194889	0.500058
H640	H	0.324664	0.055111	0.750058
H641	H	0.121941	-0.510412	0.222693
H642	H	0.371941	-0.260412	0.472693
H643	H	0.621941	-0.010412	0.722693
H644	H	0.871941	0.239588	0.972693
Cl645	Cl	-0.702482	-0.667483	0.000053
Cl646	Cl	-0.452482	-0.417483	0.250053
Cl647	Cl	-0.202482	-0.167483	0.500053
Cl648	Cl	0.047518	0.082517	0.750053
Cl649	Cl	0.169685	-0.462645	0.359680
Cl650	Cl	0.419685	-0.212645	0.609680
Cl651	Cl	0.669685	0.037355	0.859680
Cl652	Cl	0.919685	0.287355	1.109680
H653	H	-0.062462	-0.057760	0.000085
H654	H	0.187538	0.192240	0.250085
H655	H	0.437538	0.442240	0.500085
H656	H	0.687538	0.692240	0.750085
Cl657	Cl	-0.325422	-0.715456	0.000058
Cl658	Cl	-0.075422	-0.465456	0.250058
Cl659	Cl	0.174578	-0.215456	0.500058
Cl660	Cl	0.424578	0.034544	0.750058
H661	H	0.155032	-0.477321	0.468411
H662	H	0.405032	-0.227321	0.718411
H663	H	0.655032	0.022679	0.968411
H664	H	0.905032	0.272679	1.218411
H665	H	-0.450879	-0.446177	0.000018
H666	H	-0.200879	-0.196177	0.250018
H667	H	0.049121	0.053823	0.500018
H668	H	0.299121	0.303823	0.750018
Cl669	Cl	-0.045923	-0.678375	0.480183
Cl670	Cl	0.204077	-0.428375	0.730183
Cl671	Cl	0.454077	-0.178375	0.980183
Cl672	Cl	0.704077	0.071625	1.230183
Cl673	Cl	0.165091	-0.421212	0.000015
Cl674	Cl	0.415091	-0.171212	0.250015
Cl675	Cl	0.665091	0.078788	0.500015
Cl676	Cl	0.915091	0.328788	0.750015
H677	H	0.184708	0.067947	0.000047
H678	H	0.434708	0.317947	0.250047
H679	H	0.684708	0.567947	0.500047
H680	H	0.934708	0.817947	0.750047
Cl681	Cl	0.163940	-0.307434	0.000032
Cl682	Cl	0.413940	-0.057434	0.250032
Cl683	Cl	0.663940	0.192566	0.500032
Cl684	Cl	0.913940	0.442566	0.750032
Cl685	Cl	0.169693	-0.462677	0.640476
Cl686	Cl	0.419693	-0.212677	0.890476
Cl687	Cl	0.669693	0.037323	1.140476
Cl688	Cl	0.919693	0.287323	1.390476
Cl689	Cl	-0.045937	-0.678378	0.519883
Cl690	Cl	0.204063	-0.428378	0.769883
Cl691	Cl	0.454063	-0.178378	1.019883
Cl692	Cl	0.704063	0.071622	1.269883
H693	H	-0.031265	-0.663695	0.371469
H694	H	0.218735	-0.413695	0.621469
H695	H	0.468735	-0.163695	0.871469
H696	H	0.718735	0.086305	1.121469
Cl697	Cl	-0.035062	-0.334890	0.000065
Cl698	Cl	0.214938	-0.084890	0.250065
Cl699	Cl	0.464938	0.165110	0.500065
Cl700	Cl	0.714938	0.415110	0.750065
H701	H	-0.061861	-0.117558	0.000090
H702	H	0.188139	0.132442	0.250090
H703	H	0.438139	0.382442	0.500090
H704	H	0.688139	0.632442	0.750090
H705	H	-0.060929	-0.209009	0.000091
H706	H	0.189071	0.040991	0.250091
H707	H	0.439071	0.290991	0.500091
H708	H	0.689071	0.540991	0.750091
H709	H	0.155032	-0.477329	0.531755
H710	H	0.405032	-0.227329	0.781755
H711	H	0.655032	0.022671	1.031755
H712	H	0.905032	0.272671	1.281755
H713	H	-0.021674	0.271687	0.000070
H714	H	0.228326	0.521687	0.250070
H715	H	0.478326	0.771687	0.500070
H716	H	0.728326	1.021687	0.750070
Cl717	Cl	0.205281	-0.031981	0.000038
Cl718	Cl	0.455281	0.218019	0.250038
Cl719	Cl	0.705281	0.468019	0.500038
Cl720	Cl	0.955281	0.718019	0.750038
Cl721	Cl	0.136593	-0.495734	0.113958
Cl722	Cl	0.386593	-0.245734	0.363958
Cl723	Cl	0.636593	0.004266	0.613958
Cl724	Cl	0.886593	0.254266	0.863958
Cl725	Cl	0.206818	-0.183216	0.000029
Cl726	Cl	0.456818	0.066784	0.250029
Cl727	Cl	0.706818	0.316784	0.500029
Cl728	Cl	0.956818	0.566784	0.750029
H729	H	-0.802415	-0.646911	0.000041
H730	H	-0.552415	-0.396911	0.250041
H731	H	-0.302415	-0.146911	0.500041
H732	H	-0.052415	0.103089	0.750041
H733	H	-0.780325	-0.486964	0.000028
H734	H	-0.530325	-0.236964	0.250028
H735	H	-0.280325	0.013036	0.500028
H736	H	-0.030325	0.263036	0.750028
Cl737	Cl	-0.675018	-0.468481	0.000017
Cl738	Cl	-0.425018	-0.218481	0.250017
Cl739	Cl	-0.175018	0.031519	0.500017
Cl740	Cl	0.074982	0.281519	0.750017
Cl741	Cl	-0.040158	0.166379	0.000082
Cl742	Cl	0.209842	0.416379	0.250082
Cl743	Cl	0.459842	0.666379	0.500082
Cl744	Cl	0.709842	0.916379	0.750082
H745	H	-0.014492	-0.434827	0.000048
H746	H	0.235508	-0.184827	0.250048
H747	H	0.485508	0.065173	0.500048
H748	H	0.735508	0.315173	0.750048
Cl749	Cl	-0.399546	-0.427139	0.000007
Cl750	Cl	-0.149546	-0.177139	0.250007
Cl751	Cl	0.100454	0.072861	0.500007
Cl752	Cl	0.350454	0.322861	0.750007
