data_functionalizedCrystal
_audit_creation_method	'MofGen! by Chris Wilmer'
_symmetry_space_group_name_H-M	'P1'
_symmetry_Int_Tables_number	1
_symmetry_cell_setting	triclinic
loop_
_symmetry_equiv_pos_as_xyz
  x,y,z
_cell_length_a	13.101039
_cell_length_b	16.109301
_cell_length_c	16.109298
_cell_angle_alpha	96.539166
_cell_angle_beta	86.633336
_cell_angle_gamma	86.646051
loop_
_atom_site_label
_atom_site_type_symbol
_atom_site_fract_x
_atom_site_fract_y
_atom_site_fract_z
O1	O	0.085138	-1.107702	0.102281
O2	O	0.585138	-0.607702	0.602281
O3	O	0.085152	-0.865640	0.115580
O4	O	0.585152	-0.365640	0.615580
O5	O	0.085152	-0.993322	-0.012101
O6	O	0.585152	-0.493322	0.487899
O7	O	0.085138	-0.980019	0.229962
O8	O	0.585138	-0.480019	0.729962
O9	O	-0.085278	-0.984161	-0.002925
O10	O	0.414722	-0.484161	0.497075
O11	O	-0.085277	-0.856479	0.124756
O12	O	0.414723	-0.356479	0.624756
O13	O	-0.085292	-1.098540	0.111458
O14	O	0.414708	-0.598540	0.611458
Zn15	Zn	-0.112344	-0.976055	0.119564
Zn16	Zn	0.387656	-0.476055	0.619564
Zn17	Zn	0.112204	-0.988125	0.107474
Zn18	Zn	0.612204	-0.488125	0.607474
O19	O	-0.085292	-0.970858	0.239138
O20	O	0.414708	-0.470858	0.739138
C21	C	-0.000060	-0.830085	0.119629
C22	C	0.499940	-0.330085	0.619629
C23	C	-0.000054	-0.737790	0.118014
C24	C	0.499946	-0.237790	0.618014
N25	N	-0.265593	-0.967824	0.127814
N26	N	0.234407	-0.467824	0.627814
C27	C	-0.000059	-0.988204	-0.038488
C28	C	0.499941	-0.488204	0.461512
C29	C	-0.000047	-0.986590	-0.130784
C30	C	0.499953	-0.486590	0.369216
C31	C	-0.474635	-0.956625	0.139047
C32	C	0.025365	-0.456625	0.639047
C33	C	-0.525511	-1.007560	0.087987
C34	C	-0.025511	-0.507560	0.587987
C35	C	-0.641830	-1.001329	0.094237
C36	C	-0.141830	-0.501329	0.594237
C37	C	-0.358306	-0.962855	0.132798
C38	C	0.141694	-0.462855	0.632798
N39	N	0.265453	-0.996363	0.099217
N40	N	0.765453	-0.496363	0.599217
C41	C	-0.000077	-1.134096	0.107408
C42	C	0.499923	-0.634096	0.607408
C43	C	-0.000077	-1.226391	0.109023
C44	C	0.499923	-0.726391	0.609023
C45	C	-0.000070	-0.515516	0.190022
C46	C	0.499930	-0.015516	0.690022
C47	C	-0.000077	-0.428795	0.188499
C48	C	0.499923	0.071205	0.688499
C49	C	-0.000064	-0.448672	0.037009
C50	C	0.499936	0.051328	0.537009
C51	C	-0.000065	-0.535391	0.038534
C52	C	0.499935	-0.035391	0.538534
C53	C	-0.000063	-0.568810	0.115043
C54	C	0.499937	-0.068810	0.615043
C55	C	-0.000068	-0.395371	0.111994
C56	C	0.499932	0.104629	0.611994
C57	C	-0.000075	-0.301344	0.110342
C58	C	0.499925	0.198656	0.610342
C59	C	-0.000057	-0.662842	0.116696
C60	C	0.499943	-0.162842	0.616696
C61	C	0.092833	-0.986315	-0.434854
C62	C	0.592833	-0.486315	0.065146
C63	C	0.092841	-0.987844	-0.348134
C64	C	0.592841	-0.487844	0.151866
C65	C	-0.092971	-0.977868	-0.338115
C66	C	0.407029	-0.477868	0.161885
C67	C	-0.092977	-0.976346	-0.424834
C68	C	0.407023	-0.476346	0.075166
C69	C	-0.000072	-0.980565	-0.473201
C70	C	0.499928	-0.480565	0.026799
C71	C	-0.000059	-0.983616	-0.299762
C72	C	0.499941	-0.483616	0.200238
C73	C	-0.000052	-0.985273	-0.205737
C74	C	0.499948	-0.485273	0.294263
C75	C	-0.000079	-0.978910	-0.567232
C76	C	0.499921	-0.478910	-0.067232
C77	C	-0.000079	-0.975977	0.265525
C78	C	0.499921	-0.475977	0.765525
C79	C	-0.000084	-0.977591	0.357821
C80	C	0.499916	-0.477591	0.857821
H81	H	-0.481709	-1.055847	0.039579
H82	H	0.018291	-0.555847	0.539579
H83	H	-0.168612	-0.974431	-0.298725
H84	H	0.331388	-0.474431	0.201275
H85	H	0.168483	-0.989751	-0.474231
H86	H	0.668483	-0.489751	0.025769
H87	H	-0.168637	-0.971665	-0.456057
H88	H	0.331363	-0.471665	0.043943
Br89	Br	-0.000092	-0.356469	0.290262
Br90	Br	0.499908	0.143531	0.790262
Br91	Br	-0.547635	-0.876148	0.219728
Br92	Br	-0.047635	-0.376148	0.719728
H93	H	-0.000076	-0.542723	0.252321
H94	H	0.499924	-0.042723	0.752321
H95	H	-0.000072	-0.421450	-0.025282
H96	H	0.499928	0.078550	0.474718
Br97	Br	-0.000067	-0.607725	-0.063231
Br98	Br	0.499933	-0.107725	0.436769
H99	H	0.168494	-0.992527	-0.316916
H100	H	0.668494	-0.492527	0.183084
