data_functionalizedCrystal
_audit_creation_method	'MofGen! by Chris Wilmer'
_symmetry_space_group_name_H-M	'P1'
_symmetry_Int_Tables_number	1
_symmetry_cell_setting	triclinic
loop_
_symmetry_equiv_pos_as_xyz
  x,y,z
_cell_length_a	19.288864
_cell_length_b	19.188930
_cell_length_c	18.366186
_cell_angle_alpha	89.988632
_cell_angle_beta	89.977106
_cell_angle_gamma	83.140512
loop_
_atom_site_label
_atom_site_type_symbol
_atom_site_fract_x
_atom_site_fract_y
_atom_site_fract_z
O1	O	0.921359	0.087099	-0.060791
O2	O	0.719099	0.098849	-0.060743
O3	O	0.826066	-0.008682	-0.060754
O4	O	0.814393	0.194630	-0.060780
O5	O	0.826048	-0.008687	0.060345
O6	O	0.719081	0.098843	0.060357
O7	O	0.921341	0.087094	0.060308
Zn8	Zn	0.820208	0.092968	0.079560
Zn9	Zn	0.820232	0.092975	-0.079994
O10	O	0.814374	0.194625	0.060320
C11	C	0.693214	0.098468	-0.000186
C12	C	0.616110	0.097333	-0.000167
C13	C	0.571419	0.160427	-0.000187
C14	C	0.498972	0.159361	-0.000195
C15	C	0.471219	0.095197	-0.000198
C16	C	0.515921	0.032095	-0.000174
C17	C	0.588366	0.033163	-0.000159
C18	C	0.362960	0.044759	-0.042642
C19	C	0.290515	0.043694	-0.042662
C20	C	0.247773	0.091900	-0.000241
C21	C	0.277483	0.141184	0.042190
C22	C	0.349929	0.142253	0.042205
C23	C	0.392665	0.094032	-0.000214
C24	C	0.124526	0.153843	-0.000268
C25	C	0.052078	0.152774	-0.000272
C26	C	0.069028	0.025506	-0.000259
C27	C	0.141475	0.026576	-0.000248
C28	C	0.169219	0.090747	-0.000256
C29	C	0.825679	-0.034696	-0.000202
C30	C	0.824544	-0.112200	-0.000196
C31	C	0.887309	-0.157129	-0.000207
C32	C	0.886243	-0.229953	-0.000219
C33	C	0.822408	-0.257844	-0.000204
C34	C	0.759636	-0.212906	-0.000196
C35	C	0.760704	-0.140084	-0.000192
N36	N	0.773609	-0.365847	0.041020
N37	N	0.772598	-0.435026	0.041018
C38	C	0.819187	-0.477253	-0.000218
N39	N	0.866835	-0.447689	-0.041442
N40	N	0.867847	-0.378504	-0.041436
C41	C	0.821243	-0.336807	-0.000209
C42	C	0.880800	-0.601146	-0.000243
C43	C	0.879731	-0.673971	-0.000259
C44	C	0.753122	-0.656922	-0.000229
C45	C	0.754193	-0.584099	-0.000220
C46	C	0.818034	-0.556216	-0.000224
C47	C	0.947227	0.087475	-0.000250
C48	C	1.024330	0.088609	-0.000274
C49	C	0.814762	0.220638	-0.000234
C50	C	0.815896	0.298143	-0.000245
N51	N	0.820197	0.092963	0.188451
N52	N	0.820249	0.092974	-0.188885
C53	C	0.867577	0.045371	0.226546
C54	C	0.867582	0.045368	0.302774
C55	C	0.820213	0.092968	0.340903
C56	C	0.772823	0.140563	0.302799
C57	C	0.772816	0.140560	0.226573
C58	C	0.810919	0.156585	0.461657
C59	C	0.810932	0.156589	0.537882
C60	C	0.820232	0.092977	0.576011
C61	C	0.829535	0.029359	0.537906
C62	C	0.829527	0.029356	0.461679
C63	C	0.820215	0.092977	0.423558
C64	C	0.867620	0.045378	0.696761
C65	C	0.867620	0.045374	0.772990
C66	C	0.772864	0.140576	0.773014
C67	C	0.772862	0.140574	0.696786
C68	C	0.820243	0.092976	0.658664
H69	H	0.374116	0.182379	0.076756
H70	H	0.701147	-0.679631	-0.000221
C71	C	0.155051	0.224424	-0.000268
H72	H	0.204599	0.216024	-0.000267
H73	H	0.139676	0.250392	0.041957
H74	H	0.139718	0.250395	-0.042508
C75	C	0.957531	-0.126460	-0.000224
H76	H	0.994758	-0.163653	-0.000240
H77	H	0.960576	-0.098413	0.042004
H78	H	0.960583	-0.098401	-0.042461
H79	H	0.177864	-0.024802	-0.000236
C80	C	0.601934	0.231012	-0.000182
H81	H	0.564937	0.268436	-0.000187
H82	H	0.629870	0.234080	-0.042404
H83	H	0.629814	0.234069	0.042062
C84	C	0.955286	-0.279383	-0.000226
H85	H	0.993459	-0.252346	-0.000223
H86	H	0.957512	-0.308139	-0.042456
H87	H	0.957486	-0.308150	0.042009
C88	C	0.720704	0.192911	0.344735
H89	H	0.692477	0.221248	0.311126
H90	H	0.745587	0.221920	0.374457
H91	H	0.691877	0.167850	0.374485
C92	C	0.839761	-0.040618	0.579837
H93	H	0.838424	-0.031508	0.630691
H94	H	0.883641	-0.065632	0.567331
H95	H	0.803514	-0.067881	0.567365
H96	H	0.803361	0.208391	0.568902
C97	C	0.689418	-0.243580	-0.000183
H98	H	0.652189	-0.206389	-0.000182
H99	H	0.686359	-0.271644	0.042045
H100	H	0.686381	-0.271624	-0.042420
C101	C	0.720759	0.192935	0.814947
H102	H	0.727551	0.186124	0.865802
H103	H	0.674427	0.185472	0.802481
H104	H	0.728162	0.239516	0.802440
C105	C	0.948776	-0.723393	-0.000270
H106	H	0.986947	-0.696353	-0.000265
H107	H	0.951004	-0.752146	-0.042503
H108	H	0.950978	-0.752164	0.041963
H109	H	0.462577	0.210742	-0.000208
C110	C	0.691660	-0.090660	-0.000173
H111	H	0.653488	-0.117698	-0.000162
H112	H	0.689451	-0.061884	-0.042397
H113	H	0.689440	-0.061912	0.042068
C114	C	0.720704	0.192919	0.184663
H115	H	0.727484	0.186099	0.133805
H116	H	0.728105	0.239497	0.197143
H117	H	0.674370	0.185453	0.197176
H118	H	0.932783	-0.578442	-0.000249
H119	H	0.242684	0.180439	0.076733
H120	H	0.803333	0.208389	0.430619
H121	H	0.015690	0.204155	-0.000283
H122	H	0.703083	-0.547517	-0.000207
H123	H	0.266331	0.003566	-0.077215
H124	H	0.906157	0.006613	0.195509
H125	H	0.906166	0.006612	0.333797
H126	H	0.837100	-0.022445	0.430657
C127	C	0.919729	-0.006983	0.654824
H128	H	0.947941	-0.035336	0.688433
H129	H	0.948563	0.018057	0.625067
H130	H	0.894825	-0.035985	0.625109
C131	C	0.409969	-0.008267	-0.089315
H132	H	0.381899	-0.037762	-0.114596
H133	H	0.441971	-0.036046	-0.058726
H134	H	0.435029	0.016301	-0.123427
C135	C	0.637532	-0.036242	-0.000143
H136	H	0.684652	-0.026416	-0.000131
H137	H	0.629164	-0.062562	-0.042371
H138	H	0.629120	-0.062562	0.042094
H139	H	0.046433	-0.026738	-0.000306
C140	C	0.720757	0.192936	0.654876
H141	H	0.727535	0.186116	0.604018
H142	H	0.728163	0.239513	0.667356
H143	H	0.674422	0.185475	0.667391
H144	H	0.906200	0.006616	0.804008
H145	H	0.493320	-0.020148	-0.000187
