data_functionalizedCrystal
_audit_creation_method	'MofGen! by Chris Wilmer'
_symmetry_space_group_name_H-M	'P1'
_symmetry_Int_Tables_number	1
_symmetry_cell_setting	triclinic
loop_
_symmetry_equiv_pos_as_xyz
  x,y,z
_cell_length_a	14.971482
_cell_length_b	11.026607
_cell_length_c	13.448316
_cell_angle_alpha	89.996104
_cell_angle_beta	89.993798
_cell_angle_gamma	96.099312
loop_
_atom_site_label
_atom_site_type_symbol
_atom_site_fract_x
_atom_site_fract_y
_atom_site_fract_z
O1	O	1.212291	0.158159	-0.082676
O2	O	0.954926	0.177106	-0.082680
O3	O	1.062278	-0.009051	-0.082675
O4	O	1.104939	0.344316	-0.082681
O5	O	1.062259	-0.009063	0.082709
O6	O	0.954907	0.177094	0.082703
O7	O	1.212272	0.158147	0.082708
Cu8	Cu	1.083588	0.167620	0.097807
Cu9	Cu	1.083610	0.167633	-0.097779
O10	O	1.104919	0.344304	0.082702
C11	C	0.921456	0.176254	0.000011
C12	C	0.821752	0.173717	0.000009
C13	C	0.774906	0.172516	0.090161
C14	C	0.681222	0.170113	0.090162
C15	C	0.634388	0.168919	0.000010
C16	C	0.681240	0.170117	-0.090148
C17	C	0.774922	0.172511	-0.090148
C18	C	0.485979	0.165129	-0.090142
C19	C	0.392292	0.162737	-0.090142
C20	C	0.392280	0.162731	0.090169
C21	C	0.485961	0.165125	0.090169
C22	C	0.532808	0.166325	0.000009
C23	C	1.054399	-0.054279	0.000016
C24	C	1.030938	-0.189027	0.000012
C25	C	1.095717	-0.262740	0.000011
C26	C	1.071471	-0.402009	0.000007
C27	C	1.245742	0.158999	0.000014
C28	C	1.345445	0.161536	0.000010
C29	C	1.112799	0.389532	0.000010
C30	C	1.136260	0.524280	0.000007
N31	N	1.083578	0.167609	0.235371
N32	N	1.083625	0.167634	-0.235343
C33	C	1.131138	0.085213	0.287414
C34	C	1.131143	0.085212	0.391517
C35	C	1.083594	0.167614	0.443575
C36	C	1.036028	0.250015	0.391525
C37	C	1.036018	0.250009	0.287424
C38	C	1.036054	0.250023	0.608505
C39	C	1.036065	0.250030	0.712614
C40	C	1.131180	0.085226	0.712598
C41	C	1.131170	0.085220	0.608497
C42	C	1.083605	0.167622	0.556454
H43	H	0.354162	0.161767	-0.163552
H44	H	0.957527	-0.229024	0.000004
H45	H	0.997288	0.317103	0.245052
H46	H	0.813033	0.173497	0.163573
H47	H	1.169128	-0.222743	0.000019
O48	O	0.983872	-0.449648	-0.000173
C49	C	0.841779	-0.464030	-0.085828
C50	C	0.940967	-0.410020	-0.085759
H51	H	0.807056	-0.431992	-0.155006
H52	H	0.837774	-0.567857	-0.085896
H53	H	0.807059	-0.432159	-0.016583
H54	H	0.975748	-0.441798	-0.154991
H55	H	0.944907	-0.306200	-0.085639
O56	O	1.177344	0.005049	0.237002
C57	C	1.271724	-0.158370	0.247987
C58	C	1.219418	-0.067664	0.305197
H59	H	1.305770	-0.217165	0.303096
H60	H	1.223362	-0.219181	0.199293
H61	H	1.324817	-0.105846	0.199205
H62	H	1.166324	-0.120089	0.354032
H63	H	1.267836	-0.006854	0.353828
H64	H	0.354133	0.161754	0.163580
H65	H	0.997344	0.317130	0.754995
H66	H	0.813063	0.173491	-0.163559
O67	O	1.223800	-0.427824	0.000052
C68	C	1.327782	-0.245344	-0.000009
C69	C	1.228610	-0.299424	-0.000035
H70	H	1.331703	-0.141526	-0.000101
H71	H	1.362547	-0.277168	0.069220
H72	H	1.362520	-0.277316	-0.069206
H73	H	1.193796	-0.267477	0.069115
H74	H	1.193912	-0.267606	-0.069310
O75	O	0.635859	0.169010	0.177825
C76	C	0.645730	0.169199	0.356668
C77	C	0.697216	0.170479	0.257458
H78	H	0.695313	0.170360	0.421077
H79	H	0.607371	0.252976	0.361237
H80	H	0.596372	0.083216	0.361130
H81	H	0.746619	0.256405	0.252928
H82	H	0.735515	0.086644	0.252930
O83	O	1.177207	0.005054	0.442110
C84	C	1.169609	-0.160633	0.559690
C85	C	1.117325	-0.069937	0.502443
H86	H	1.121220	-0.221270	0.608498
H87	H	1.203569	-0.219606	0.504640
H88	H	1.222765	-0.108099	0.608367
H89	H	1.064126	-0.122373	0.453764
H90	H	1.083428	-0.010965	0.557547
O91	O	0.531464	0.166518	-0.177746
C92	C	0.566884	0.272319	-0.331874
C93	C	0.515341	0.270900	-0.232694
H94	H	0.553852	0.356690	-0.376337
H95	H	0.641900	0.274316	-0.316444
H96	H	0.543006	0.186938	-0.376297
H97	H	0.539143	0.356264	-0.188222
H98	H	0.440334	0.268840	-0.248194
H99	H	0.997307	0.317104	0.433917
O100	O	1.177321	0.005010	0.763034
C101	C	1.195763	-0.205927	0.794933
C102	C	1.143446	-0.115229	0.737731
H103	H	1.168383	-0.303160	0.774512
H104	H	1.269972	-0.190039	0.774423
H105	H	1.187627	-0.191717	0.878274
H106	H	1.151508	-0.129386	0.654377
H107	H	1.069257	-0.131141	0.758323
H108	H	1.169893	0.018128	0.566111
H109	H	0.643100	0.169137	-0.163552
O110	O	0.989838	0.330187	0.558104
C111	C	0.895466	0.493615	0.569099
C112	C	0.947777	0.402911	0.626303
H113	H	0.861431	0.552419	0.624213
H114	H	0.943822	0.554417	0.520374
H115	H	0.842364	0.441088	0.520349
H116	H	1.000880	0.455339	0.675107
H117	H	0.899365	0.342110	0.674965
H118	H	0.524092	0.166104	0.163578
