data_functionalizedCrystal
_audit_creation_method	'MofGen! by Chris Wilmer'
_symmetry_space_group_name_H-M	'P1'
_symmetry_Int_Tables_number	1
_symmetry_cell_setting	triclinic
loop_
_symmetry_equiv_pos_as_xyz
  x,y,z
_cell_length_a	18.101398
_cell_length_b	18.101395
_cell_length_c	18.101389
_cell_angle_alpha	89.983159
_cell_angle_beta	89.975673
_cell_angle_gamma	90.026371
loop_
_atom_site_label
_atom_site_type_symbol
_atom_site_fract_x
_atom_site_fract_y
_atom_site_fract_z
Zn1	Zn	1.132121	-0.295001	-0.418847
Zn2	Zn	1.382121	-0.045001	-0.168847
Zn3	Zn	1.632121	0.204999	0.081153
Zn4	Zn	1.882121	0.454999	0.331153
Zn5	Zn	1.132017	-0.418826	-0.295009
Zn6	Zn	1.382017	-0.168826	-0.045009
Zn7	Zn	1.632017	0.081174	0.204991
Zn8	Zn	1.882017	0.331174	0.454991
Zn9	Zn	1.008280	-0.294993	-0.295008
Zn10	Zn	1.258280	-0.044993	-0.045008
Zn11	Zn	1.508280	0.205007	0.204992
Zn12	Zn	1.758280	0.455007	0.454992
Zn13	Zn	1.008231	-0.418795	-0.418797
Zn14	Zn	1.258231	-0.168795	-0.168797
Zn15	Zn	1.508231	0.081205	0.081203
Zn16	Zn	1.758231	0.331205	0.331203
O17	O	1.070162	-0.356904	-0.356915
O18	O	1.320162	-0.106904	-0.106915
O19	O	1.570162	0.143096	0.143085
O20	O	1.820162	0.393096	0.393085
O21	O	1.235740	-0.311443	-0.402440
O22	O	1.485740	-0.061443	-0.152440
O23	O	1.735740	0.188557	0.097560
O24	O	1.985740	0.438557	0.347560
O25	O	1.115580	-0.402410	-0.191376
O26	O	1.365580	-0.152410	0.058624
O27	O	1.615580	0.097590	0.308624
O28	O	1.865580	0.347590	0.558624
O29	O	1.024772	-0.191361	-0.311456
O30	O	1.274772	0.058639	-0.061456
O31	O	1.524772	0.308639	0.188544
O32	O	1.774772	0.558639	0.438544
O33	O	1.235664	-0.402417	-0.311457
O34	O	1.485664	-0.152417	-0.061457
O35	O	1.735664	0.097583	0.188543
O36	O	1.985664	0.347583	0.438543
O37	O	1.115757	-0.191367	-0.402440
O38	O	1.365757	0.058633	-0.152440
O39	O	1.615757	0.308633	0.097560
O40	O	1.865757	0.558633	0.347560
O41	O	1.024671	-0.311430	-0.191375
O42	O	1.274671	-0.061430	0.058625
O43	O	1.524671	0.188570	0.308625
O44	O	1.774671	0.438570	0.558625
O45	O	0.904641	-0.311399	-0.311408
O46	O	1.154641	-0.061399	-0.061408
O47	O	1.404641	0.188601	0.188592
O48	O	1.654641	0.438601	0.438592
O49	O	1.024688	-0.402363	-0.522437
O50	O	1.274688	-0.152363	-0.272437
O51	O	1.524688	0.097637	-0.022437
O52	O	1.774688	0.347637	0.227563
O53	O	0.904604	-0.402356	-0.402355
O54	O	1.154604	-0.152356	-0.152355
O55	O	1.404604	0.097644	0.097645
O56	O	1.654604	0.347644	0.347645
O57	O	1.115710	-0.311412	-0.522473
O58	O	1.365710	-0.061412	-0.272473
O59	O	1.615710	0.188588	-0.022473
O60	O	1.865710	0.438588	0.227527
O61	O	1.115532	-0.522455	-0.311409
O62	O	1.365532	-0.272455	-0.061409
O63	O	1.615532	-0.022455	0.188591
O64	O	1.865532	0.227545	0.438591
O65	O	1.024587	-0.522432	-0.402356
O66	O	1.274587	-0.272432	-0.152356
O67	O	1.524587	-0.022432	0.097644
O68	O	1.774587	0.227568	0.347644
C69	C	0.877752	-0.356874	-0.356877
C70	C	1.127752	-0.106874	-0.106877
C71	C	1.377752	0.143126	0.143123
C72	C	1.627752	0.393126	0.393123
C73	C	0.795437	-0.356879	-0.356878
C74	C	1.045437	-0.106879	-0.106878
C75	C	1.295437	0.143121	0.143122
C76	C	1.545437	0.393121	0.393122
C77	C	0.496347	-0.356925	-0.356940
C78	C	0.746347	-0.106925	-0.106940
C79	C	0.996347	0.143075	0.143060
C80	C	1.246347	0.393075	0.393060
C81	C	0.527670	-0.299412	-0.299997
C82	C	0.777670	-0.049412	-0.049997
C83	C	1.027670	0.200588	0.200003
C84	C	1.277670	0.450588	0.450003
C85	C	0.613288	-0.299566	-0.299754
C86	C	0.863288	-0.049566	-0.049754
C87	C	1.113288	0.200434	0.200246
C88	C	1.363288	0.450434	0.450246
C89	C	0.644729	-0.356901	-0.356909
C90	C	0.894729	-0.106901	-0.106909
C91	C	1.144729	0.143099	0.143091
C92	C	1.394729	0.393099	0.393091
C93	C	0.613611	-0.434909	-0.335587
C94	C	0.863611	-0.184909	-0.085587
C95	C	1.113611	0.065091	0.164413
C96	C	1.363611	0.315091	0.414413
C97	C	0.527966	-0.434590	-0.335191
C98	C	0.777966	-0.184590	-0.085191
C99	C	1.027966	0.065410	0.164809
C100	C	1.277966	0.315410	0.414809
C101	C	0.527961	-0.337109	-0.435339
C102	C	0.777961	-0.087109	-0.185339
C103	C	1.027961	0.162891	0.064661
C104	C	1.277961	0.412891	0.314661
C105	C	0.613612	-0.335371	-0.434911
C106	C	0.863612	-0.085371	-0.184911
C107	C	1.113612	0.164629	0.065089
C108	C	1.363612	0.414629	0.315089
C109	C	0.728589	-0.356893	-0.356893
C110	C	0.978589	-0.106893	-0.106893
C111	C	1.228589	0.143107	0.143107
C112	C	1.478589	0.393107	0.393107
C113	C	0.412487	-0.356939	-0.356954
C114	C	0.662487	-0.106939	-0.106954
C115	C	0.912487	0.143061	0.143046
C116	C	1.162487	0.393061	0.393046
C117	C	1.070063	-0.549314	-0.356893
C118	C	1.320063	-0.299314	-0.106893
C119	C	1.570063	-0.049314	0.143107
C120	C	1.820063	0.200686	0.393107
C121	C	1.070088	-0.631628	-0.356909
C122	C	1.320088	-0.381628	-0.106909
C123	C	1.570088	-0.131628	0.143091
C124	C	1.820088	0.118372	0.393091
C125	C	1.070251	-0.930719	-0.356949
C126	C	1.320251	-0.680719	-0.106949
C127	C	1.570251	-0.430719	0.143051
C128	C	1.820251	-0.180719	0.393051
C129	C	1.013163	-0.899410	-0.414312
C130	C	1.263163	-0.649410	-0.164312
C131	C	1.513163	-0.399410	0.085688
C132	C	1.763163	-0.149410	0.335688
C133	C	1.012892	-0.813792	-0.414133
C134	C	1.262892	-0.563792	-0.164133
C135	C	1.512892	-0.313792	0.085867
C136	C	1.762892	-0.063792	0.335867
C137	C	1.070170	-0.782337	-0.356930
C138	C	1.320170	-0.532337	-0.106930
C139	C	1.570170	-0.282337	0.143070
C140	C	1.820170	-0.032337	0.393070
C141	C	1.049041	-0.813472	-0.278878
C142	C	1.299041	-0.563472	-0.028878
C143	C	1.549041	-0.313472	0.221122
C144	C	1.799041	-0.063472	0.471122
C145	C	1.048673	-0.899117	-0.279221
C146	C	1.298673	-0.649117	-0.029221
C147	C	1.548673	-0.399117	0.220779
C148	C	1.798673	-0.149117	0.470779
C149	C	1.148593	-0.899073	-0.376950
C150	C	1.398593	-0.649073	-0.126950
C151	C	1.648593	-0.399073	0.123050
C152	C	1.898593	-0.149073	0.373050
C153	C	1.148132	-0.813422	-0.378661
C154	C	1.398132	-0.563422	-0.128661
C155	C	1.648132	-0.313422	0.121339
C156	C	1.898132	-0.063422	0.371339
C157	C	1.070126	-0.698477	-0.356914
C158	C	1.320126	-0.448477	-0.106914
C159	C	1.570126	-0.198477	0.143086
C160	C	1.820126	0.051523	0.393086
C161	C	1.070293	-1.014579	-0.356959
C162	C	1.320293	-0.764579	-0.106959
C163	C	1.570293	-0.514579	0.143041
C164	C	1.820293	-0.264579	0.393041
C165	C	1.263324	-0.356934	-0.356954
C166	C	1.513324	-0.106934	-0.106954
C167	C	1.763324	0.143066	0.143046
C168	C	2.013324	0.393066	0.393046
C169	C	1.345638	-0.356948	-0.356971
C170	C	1.595638	-0.106948	-0.106971
C171	C	1.845638	0.143052	0.143029
C172	C	2.095638	0.393052	0.393029
C173	C	1.070205	-0.356885	-0.550077
C174	C	1.320205	-0.106885	-0.300077
C175	C	1.570205	0.143115	-0.050077
C176	C	1.820205	0.393115	0.199923
C177	C	1.070223	-0.356877	-0.632391
C178	C	1.320223	-0.106877	-0.382391
C179	C	1.570223	0.143123	-0.132391
C180	C	1.820223	0.393123	0.117609
C181	C	1.070282	-0.163742	-0.356953
C182	C	1.320282	0.086258	-0.106953
C183	C	1.570282	0.336258	0.143047
C184	C	1.820282	0.586258	0.393047
C185	C	1.070333	-0.081428	-0.356970
C186	C	1.320333	0.168572	-0.106970
C187	C	1.570333	0.418572	0.143030
C188	C	1.820333	0.668572	0.393030
C189	C	1.070266	-0.356738	-0.931482
C190	C	1.320266	-0.106738	-0.681482
C191	C	1.570266	0.143262	-0.431482
C192	C	1.820266	0.393262	-0.181482
C193	C	1.012801	-0.413780	-0.900134
C194	C	1.262801	-0.163780	-0.650134
C195	C	1.512801	0.086220	-0.400134
C196	C	1.762801	0.336220	-0.150134
C197	C	1.012956	-0.414045	-0.814516
C198	C	1.262956	-0.164045	-0.564516
C199	C	1.512956	0.085955	-0.314516
C200	C	1.762956	0.335955	-0.064516
C201	C	1.070244	-0.356807	-0.783100
C202	C	1.320244	-0.106807	-0.533100
C203	C	1.570244	0.143193	-0.283100
C204	C	1.820244	0.393193	-0.033100
C205	C	1.148270	-0.377998	-0.814206
C206	C	1.398270	-0.127998	-0.564206
C207	C	1.648270	0.122002	-0.314206
C208	C	1.898270	0.372002	-0.064206
C209	C	1.147949	-0.378372	-0.899851
C210	C	1.397949	-0.128372	-0.649851
C211	C	1.647949	0.121628	-0.399851
C212	C	1.897949	0.371628	-0.149851
C213	C	1.050385	-0.278379	-0.899905
C214	C	1.300385	-0.028379	-0.649905
C215	C	1.550385	0.221621	-0.399905
C216	C	1.800385	0.471621	-0.149905
C217	C	1.048649	-0.278832	-0.814254
C218	C	1.298649	-0.028832	-0.564254
C219	C	1.548649	0.221168	-0.314254
C220	C	1.798649	0.471168	-0.064254
C221	C	1.070237	-0.356845	-0.699240
C222	C	1.320237	-0.106845	-0.449240
C223	C	1.570237	0.143155	-0.199240
C224	C	1.820237	0.393155	0.050760
C225	C	1.070279	-0.356702	-1.015342
C226	C	1.320279	-0.106702	-0.765342
C227	C	1.570279	0.143298	-0.515342
C228	C	1.820279	0.393298	-0.265342
C229	C	1.070162	-0.356869	-0.164505
C230	C	1.320162	-0.106869	0.085495
C231	C	1.570162	0.143131	0.335495
C232	C	1.820162	0.393131	0.585495
C233	C	1.070287	-0.356668	-0.082191
C234	C	1.320287	-0.106668	0.167809
C235	C	1.570287	0.143332	0.417809
C236	C	1.820287	0.393332	0.667809
H237	H	0.635026	-0.452008	-0.278892
H238	H	0.885026	-0.202008	-0.028892
H239	H	1.135026	0.047992	0.221108
H240	H	1.385026	0.297992	0.471108
Cl241	Cl	1.111215	-0.782017	-0.211087
Cl242	Cl	1.361215	-0.532017	0.038913
Cl243	Cl	1.611215	-0.282017	0.288913
Cl244	Cl	1.861215	-0.032017	0.538913
H245	H	1.164804	-0.435654	-0.919836
H246	H	1.414804	-0.185654	-0.669836
H247	H	1.664804	0.064346	-0.419836
H248	H	1.914804	0.314346	-0.169836
Cl249	Cl	0.961559	-0.780450	-0.252251
Cl250	Cl	1.211559	-0.530450	-0.002251
Cl251	Cl	1.461559	-0.280450	0.247749
Cl252	Cl	1.711559	-0.030450	0.497749
H253	H	0.633741	-0.312665	-0.241661
H254	H	0.883741	-0.062665	0.008339
H255	H	1.133741	0.187335	0.258339
H256	H	1.383741	0.437335	0.508339
Cl257	Cl	1.214263	-0.930346	-0.312458
Cl258	Cl	1.464263	-0.680346	-0.062458
Cl259	Cl	1.714263	-0.430346	0.187542
Cl260	Cl	1.964263	-0.180346	0.437542
H261	H	1.026082	-0.472127	-0.794035
H262	H	1.276082	-0.222127	-0.544035
H263	H	1.526082	0.027873	-0.294035
H264	H	1.776082	0.277873	-0.044035
H265	H	0.635017	-0.374209	-0.479611
H266	H	0.885017	-0.124209	-0.229611
H267	H	1.135017	0.125791	0.020389
H268	H	1.385017	0.375791	0.270389
H269	H	0.955097	-0.400784	-0.793483
H270	H	1.205097	-0.150784	-0.543483
H271	H	1.455097	0.099216	-0.293483
H272	H	1.705097	0.349216	-0.043483
H273	H	0.507705	-0.378999	-0.477766
H274	H	0.757705	-0.128999	-0.227766
H275	H	1.007705	0.121001	0.022234
H276	H	1.257705	0.371001	0.272234
Cl277	Cl	0.495969	-0.502991	-0.396425
Cl278	Cl	0.745969	-0.252991	-0.146425
Cl279	Cl	0.995969	-0.002991	0.103575
Cl280	Cl	1.245969	0.247009	0.353575
Cl281	Cl	1.108563	-0.209730	-0.781249
Cl282	Cl	1.358563	0.040270	-0.531249
Cl283	Cl	1.608563	0.290270	-0.281249
Cl284	Cl	1.858563	0.540270	-0.031249
H285	H	1.026111	-0.792740	-0.472007
H286	H	1.276111	-0.542740	-0.222007
H287	H	1.526111	-0.292740	0.027993
H288	H	1.776111	-0.042740	0.277993
H289	H	1.192217	-0.338629	-0.920590
H290	H	1.442217	-0.088629	-0.670590
H291	H	1.692217	0.161371	-0.420590
H292	H	1.942217	0.411371	-0.170590
Cl293	Cl	0.494660	-0.250812	-0.465269
Cl294	Cl	0.744660	-0.000812	-0.215269
Cl295	Cl	0.994660	0.249188	0.034731
Cl296	Cl	1.244660	0.499188	0.284731
Cl297	Cl	1.172736	-0.782003	-0.467347
Cl298	Cl	1.422736	-0.532003	-0.217347
Cl299	Cl	1.672736	-0.282003	0.032653
Cl300	Cl	1.922736	-0.032003	0.282653
Cl301	Cl	0.923237	-0.782244	-0.393680
Cl302	Cl	1.173237	-0.532244	-0.143680
Cl303	Cl	1.423237	-0.282244	0.106320
Cl304	Cl	1.673237	-0.032244	0.356320
H305	H	0.507954	-0.451397	-0.277877
H306	H	0.757954	-0.201397	-0.027877
H307	H	1.007954	0.048603	0.222123
H308	H	1.257954	0.298603	0.472123
H309	H	1.192236	-0.337757	-0.793859
H310	H	1.442236	-0.087757	-0.543859
H311	H	1.692236	0.162243	-0.293859
H312	H	1.942236	0.412243	-0.043859
H313	H	0.506120	-0.312363	-0.242242
H314	H	0.756120	-0.062363	0.007758
H315	H	1.006120	0.187637	0.257758
H316	H	1.256120	0.437637	0.507758
Cl317	Cl	0.924056	-0.932742	-0.394131
Cl318	Cl	1.174056	-0.682742	-0.144131
Cl319	Cl	1.424056	-0.432742	0.105869
Cl320	Cl	1.674056	-0.182742	0.355869
Cl321	Cl	0.645041	-0.502843	-0.397619
Cl322	Cl	0.895041	-0.252843	-0.147619
Cl323	Cl	1.145041	-0.002843	0.102381
Cl324	Cl	1.395041	0.247157	0.352381
Cl325	Cl	1.033365	-0.931155	-0.503958
Cl326	Cl	1.283365	-0.681155	-0.253958
Cl327	Cl	1.533365	-0.431155	-0.003958
Cl328	Cl	1.783365	-0.181155	0.246042
Cl329	Cl	0.645776	-0.210254	-0.320386
Cl330	Cl	0.895776	0.039746	-0.070386
Cl331	Cl	1.145776	0.289746	0.179614
Cl332	Cl	1.395776	0.539746	0.429614
H333	H	0.994478	-0.259074	-0.921490
H334	H	1.244478	-0.009074	-0.671490
H335	H	1.494478	0.240926	-0.421490
H336	H	1.744478	0.490926	-0.171490
H337	H	0.991406	-0.919153	-0.262279
H338	H	1.241406	-0.669153	-0.012279
H339	H	1.491406	-0.419153	0.237721
H340	H	1.741406	-0.169153	0.487721
H341	H	1.192915	-0.792007	-0.339927
H342	H	1.442915	-0.542007	-0.089927
H343	H	1.692915	-0.292007	0.160073
H344	H	1.942915	-0.042007	0.410073
H345	H	0.507099	-0.241388	-0.313215
H346	H	0.757099	0.008612	-0.063215
H347	H	1.007099	0.258612	0.186785
H348	H	1.257099	0.508612	0.436785
H349	H	0.633956	-0.277966	-0.450989
H350	H	0.883956	-0.027966	-0.200989
H351	H	1.133956	0.222034	0.049011
H352	H	1.383956	0.472034	0.299011
H353	H	1.088449	-0.919830	-0.235023
H354	H	1.338449	-0.669830	0.014977
H355	H	1.588449	-0.419830	0.264977
H356	H	1.838449	-0.169830	0.514977
H357	H	1.165415	-0.434671	-0.792765
H358	H	1.415415	-0.184671	-0.542765
H359	H	1.665415	0.065329	-0.292765
H360	H	1.915415	0.315329	-0.042765
H361	H	1.167856	-0.920633	-0.432895
H362	H	1.417856	-0.670633	-0.182895
H363	H	1.667856	-0.420633	0.067105
H364	H	1.917856	-0.170633	0.317105
H365	H	0.954768	-0.400655	-0.920720
H366	H	1.204768	-0.150655	-0.670720
H367	H	1.454768	0.099345	-0.420720
H368	H	1.704768	0.349345	-0.170720
Cl369	Cl	1.032820	-0.502898	-0.933424
Cl370	Cl	1.282820	-0.252898	-0.683424
Cl371	Cl	1.532820	-0.002898	-0.433424
Cl372	Cl	1.782820	0.247102	-0.183424
H373	H	0.991229	-0.262852	-0.793921
H374	H	1.241229	-0.012852	-0.543921
H375	H	1.491229	0.237148	-0.293921
H376	H	1.741229	0.487148	-0.043921
H377	H	1.092240	-0.235880	-0.920179
H378	H	1.342240	0.014120	-0.670179
H379	H	1.592240	0.264120	-0.420179
H380	H	1.842240	0.514120	-0.170179
