data_functionalizedCrystal
_audit_creation_method	'MofGen! by Chris Wilmer'
_symmetry_space_group_name_H-M	'P1'
_symmetry_Int_Tables_number	1
_symmetry_cell_setting	triclinic
loop_
_symmetry_equiv_pos_as_xyz
  x,y,z
_cell_length_a	13.033293
_cell_length_b	16.120444
_cell_length_c	16.120297
_cell_angle_alpha	95.615117
_cell_angle_beta	85.311971
_cell_angle_gamma	100.431871
loop_
_atom_site_label
_atom_site_type_symbol
_atom_site_fract_x
_atom_site_fract_y
_atom_site_fract_z
Zn1	Zn	1.543903	-0.208052	-0.638618
Zn2	Zn	1.877236	0.125281	-0.305284
Zn3	Zn	2.210570	0.458615	0.028049
Zn4	Zn	1.543768	-0.340755	-0.505917
Zn5	Zn	1.877101	-0.007422	-0.172584
Zn6	Zn	2.210435	0.325911	0.160750
Zn7	Zn	1.378469	-0.216921	-0.482881
Zn8	Zn	1.711802	0.116412	-0.149547
Zn9	Zn	2.045135	0.449745	0.183786
Zn10	Zn	1.359753	-0.365519	-0.627862
Zn11	Zn	1.693087	-0.032186	-0.294528
Zn12	Zn	2.026420	0.301147	0.038805
O13	O	1.456473	-0.282812	-0.563819
O14	O	1.789807	0.050521	-0.230486
O15	O	2.123140	0.383855	0.102847
O16	O	1.690131	-0.211580	-0.635157
O17	O	2.023464	0.121754	-0.301824
O18	O	2.356797	0.455087	0.031510
O19	O	1.529617	-0.317676	-0.386650
O20	O	1.862950	0.015657	-0.053317
O21	O	2.196283	0.348990	0.280016
O22	O	1.408303	-0.098019	-0.498400
O23	O	1.741636	0.235314	-0.165067
O24	O	2.074969	0.568647	0.168266
O25	O	1.690031	-0.309076	-0.537662
O26	O	2.023365	0.024257	-0.204329
O27	O	2.356698	0.357590	0.129005
O28	O	1.529847	-0.091503	-0.612820
O29	O	1.863180	0.241830	-0.279486
O30	O	2.196513	0.575164	0.053847
O31	O	1.408172	-0.226696	-0.369726
O32	O	1.741505	0.106637	-0.036393
O33	O	2.074839	0.439970	0.296941
O34	O	1.229740	-0.250709	-0.487971
O35	O	1.563074	0.082624	-0.154637
O36	O	1.896407	0.415958	0.178696
O37	O	1.376405	-0.351283	-0.745499
O38	O	1.709739	-0.017950	-0.412166
O39	O	2.043072	0.315384	-0.078832
O40	O	1.215990	-0.359883	-0.594487
O41	O	1.549324	-0.026550	-0.261154
O42	O	1.882657	0.306783	0.072179
O43	O	1.511699	-0.235592	-0.753402
O44	O	1.845032	0.097741	-0.420068
O45	O	2.178366	0.431074	-0.086735
O46	O	1.511469	-0.461766	-0.527232
O47	O	1.844803	-0.128433	-0.193899
O48	O	2.178136	0.204901	0.139434
O49	O	1.376275	-0.479960	-0.616825
O50	O	1.709608	-0.146627	-0.283491
O51	O	2.042941	0.186707	0.049842
C52	C	1.184946	-0.308947	-0.537563
C53	C	1.518279	0.024387	-0.204229
C54	C	1.851612	0.357720	0.129104
C55	C	1.068782	-0.320148	-0.526350
C56	C	1.402115	0.013185	-0.193017
C57	C	1.735449	0.346518	0.140316
C58	C	1.017031	-0.276987	-0.569672
C59	C	1.350364	0.056346	-0.236338
C60	C	1.683698	0.389680	0.096995
C61	C	0.896970	-0.288563	-0.558085
C62	C	1.230303	0.044770	-0.224751
C63	C	1.563637	0.378103	0.108582
C64	C	1.441854	-0.501386	-0.573382
C65	C	1.775187	-0.168053	-0.240048
C66	C	2.108520	0.165280	0.093285
C67	C	1.435693	-0.594886	-0.577510
C68	C	1.769026	-0.261552	-0.244176
C69	C	2.102360	0.071781	0.089157
C70	C	1.488676	-0.798693	-0.542609
C71	C	1.822009	-0.465359	-0.209276
C72	C	2.155342	-0.132026	0.124058
C73	C	1.424464	-0.766062	-0.585057
C74	C	1.757797	-0.432729	-0.251724
C75	C	2.091131	-0.099395	0.081610
C76	C	1.430714	-0.670810	-0.580856
C77	C	1.764047	-0.337477	-0.247523
C78	C	2.097380	-0.004144	0.085810
C79	C	1.482427	-0.893953	-0.546808
C80	C	1.815761	-0.560619	-0.213475
C81	C	2.149094	-0.227286	0.119858
C82	C	1.729061	-0.256576	-0.590179
C83	C	2.062394	0.076757	-0.256846
C84	C	2.395728	0.410090	0.076488
C85	C	1.845222	-0.245396	-0.601412
C86	C	2.178555	0.087937	-0.268079
C87	C	2.511889	0.421271	0.065255
C88	C	1.441980	-0.295211	-0.780425
C89	C	1.775313	0.038123	-0.447092
C90	C	2.108646	0.371456	-0.113758
C91	C	1.435803	-0.300494	-0.872729
C92	C	1.769137	0.032839	-0.539396
C93	C	2.102470	0.366172	-0.206063
C94	C	1.471177	-0.063383	-0.554240
C95	C	1.804511	0.269951	-0.220907
C96	C	2.137844	0.603284	0.112426
C97	C	1.477443	0.030125	-0.550158
C98	C	1.810777	0.363458	-0.216825
C99	C	2.144110	0.696792	0.116508
C100	C	1.424490	-0.310126	-1.041727
C101	C	1.757823	0.023207	-0.708393
C102	C	2.091156	0.356541	-0.375060
C103	C	1.488679	-0.255226	-1.086772
C104	C	1.822013	0.078107	-0.753439
C105	C	2.155346	0.411440	-0.420106
C106	C	1.482385	-0.260585	-1.180808
C107	C	1.815718	0.072748	-0.847475
C108	C	2.149051	0.406081	-0.514142
C109	C	1.430783	-0.304768	-0.947682
C110	C	1.764117	0.028565	-0.614349
C111	C	2.097450	0.361899	-0.281016
C112	C	1.470975	-0.270395	-0.348059
C113	C	1.804308	0.062938	-0.014726
C114	C	2.137641	0.396272	0.318607
C115	C	1.477369	-0.264855	-0.255765
C116	C	1.810703	0.068478	0.077569
C117	C	2.144036	0.401812	0.410902
H118	H	0.889796	-0.199866	-0.647078
H119	H	1.223129	0.133468	-0.313745
H120	H	1.556462	0.466801	0.019588
H121	H	1.364796	-0.809663	-0.624552
H122	H	1.698130	-0.476329	-0.291219
H123	H	2.031463	-0.142996	0.042115
O124	O	1.009749	-0.380447	-0.465851
O125	O	1.343083	-0.047114	-0.132517
O126	O	1.676416	0.286219	0.200816
H127	H	0.954687	-0.430195	-0.500059
H128	H	1.288021	-0.096862	-0.166726
H129	H	1.621354	0.236471	0.166608
H130	H	1.364813	-0.361148	-1.073783
H131	H	1.698146	-0.027815	-0.740450
H132	H	2.031480	0.305518	-0.407116
O133	O	1.567704	-0.740943	-0.490293
O134	O	1.901037	-0.407610	-0.156959
O135	O	2.234370	-0.074277	0.176374
H136	H	1.613787	-0.779537	-0.459845
H137	H	1.947120	-0.446204	-0.126512
H138	H	2.280453	-0.112871	0.206822
H139	H	1.548361	-0.204200	-1.054714
H140	H	1.881694	0.129133	-0.721381
H141	H	2.215027	0.462467	-0.388047
H142	H	1.061610	-0.231461	-0.615336
H143	H	1.394944	0.101872	-0.282003
H144	H	1.728277	0.435205	0.051331
H145	H	0.852396	-0.334087	-0.512412
H146	H	1.185729	-0.000754	-0.179079
H147	H	1.519062	0.332579	0.154254
