data_functionalizedCrystal
_audit_creation_method	'MofGen! by Chris Wilmer'
_symmetry_space_group_name_H-M	'P1'
_symmetry_Int_Tables_number	1
_symmetry_cell_setting	triclinic
loop_
_symmetry_equiv_pos_as_xyz
  x,y,z
_cell_length_a	12.759401
_cell_length_b	15.297327
_cell_length_c	12.759393
_cell_angle_alpha	99.642973
_cell_angle_beta	89.979062
_cell_angle_gamma	99.708126
loop_
_atom_site_label
_atom_site_type_symbol
_atom_site_fract_x
_atom_site_fract_y
_atom_site_fract_z
Zn1	Zn	1.533815	-0.359082	-0.666329
Zn2	Zn	1.503263	-0.509967	-0.521034
Zn3	Zn	1.358104	-0.359130	-0.490674
Zn4	Zn	1.327675	-0.509904	-0.696658
O5	O	1.430714	-0.434521	-0.593674
O6	O	1.676782	-0.379103	-0.647069
O7	O	1.483956	-0.490005	-0.369995
O8	O	1.406934	-0.232878	-0.488577
O9	O	1.654335	-0.489958	-0.540320
O10	O	1.536028	-0.232842	-0.617630
O11	O	1.377308	-0.379185	-0.347690
O12	O	1.207048	-0.379124	-0.517986
O13	O	1.355072	-0.489851	-0.839647
O14	O	1.184692	-0.489898	-0.669321
O15	O	1.506522	-0.379042	-0.817364
O16	O	1.454449	-0.636205	-0.569729
O17	O	1.325446	-0.636159	-0.698760
C18	C	1.157749	-0.434510	-0.593651
C19	C	1.040969	-0.434527	-0.593670
C20	C	0.974476	-0.492294	-0.672383
C21	C	0.864751	-0.492298	-0.672404
C22	C	0.888023	-0.376764	-0.514991
C23	C	0.997747	-0.376756	-0.514975
C24	C	1.383359	-0.668916	-0.640853
C25	C	1.363196	-0.769191	-0.661071
C26	C	1.575254	-1.051821	-0.449528
C27	C	1.594198	-0.957608	-0.430526
C28	C	1.536449	-0.910499	-0.488161
C29	C	1.459753	-0.957613	-0.564800
C30	C	1.440802	-1.051836	-0.583798
C31	C	1.401997	-0.910513	-0.622431
C32	C	1.325301	-0.957627	-0.699071
C33	C	1.306354	-1.051841	-0.718065
C34	C	1.364103	-1.098950	-0.660430
C35	C	1.420948	-0.816291	-0.603434
C36	C	1.286496	-0.816305	-0.737704
C37	C	1.267553	-0.910519	-0.756705
C38	C	1.704745	-0.434533	-0.593698
C39	C	1.821521	-0.434538	-0.593708
C40	C	1.430810	-0.434434	-0.867690
C41	C	1.430851	-0.434397	-0.984459
C42	C	1.478284	-0.199211	-0.546334
C43	C	1.498555	-0.098935	-0.526160
C44	C	1.509719	-0.376690	-1.027719
C45	C	1.509744	-0.376651	-1.137435
C46	C	1.352031	-0.492035	-1.160625
C47	C	1.352002	-0.492068	-1.050909
C48	C	1.430692	-0.434542	-0.320711
C49	C	1.430906	-0.434325	-0.203891
H50	H	1.483394	-0.777939	-0.541033
Cl51	Cl	1.339865	-1.217394	-0.683888
Cl52	Cl	1.690621	-0.898386	-0.334195
H53	H	0.810617	-0.539337	-0.736501
H54	H	1.287772	-0.539060	-1.015688
Cl55	Cl	1.171138	-0.969758	-0.853048
Cl56	Cl	1.647840	-1.111047	-0.377081
Cl57	Cl	1.028810	-0.564916	-0.771317
Cl58	Cl	1.209932	-1.111068	-0.814407
H59	H	1.551877	-0.833786	-0.472684
H60	H	1.573964	-0.329659	-1.172650
Cl61	Cl	0.833677	-0.304144	-0.416064
Cl62	Cl	1.608840	-0.304186	-0.944185
Cl63	Cl	1.081346	-0.304122	-0.416020
H64	H	1.239470	-0.777950	-0.784633
H65	H	1.287837	-0.538990	-1.214741
