data_functionalizedCrystal
_audit_creation_method	'MofGen! by Chris Wilmer'
_symmetry_space_group_name_H-M	'P1'
_symmetry_Int_Tables_number	1
_symmetry_cell_setting	triclinic
loop_
_symmetry_equiv_pos_as_xyz
  x,y,z
_cell_length_a	10.686220
_cell_length_b	18.101395
_cell_length_c	10.686551
_cell_angle_alpha	85.593544
_cell_angle_beta	90.307919
_cell_angle_gamma	94.413019
loop_
_atom_site_label
_atom_site_type_symbol
_atom_site_fract_x
_atom_site_fract_y
_atom_site_fract_z
Zn1	Zn	1.972201	-0.180548	-0.562388
Zn2	Zn	1.955907	-0.314592	-0.352626
Zn3	Zn	1.746310	-0.199493	-0.368704
Zn4	Zn	1.762338	-0.313092	-0.578403
O5	O	1.859189	-0.251931	-0.465530
O6	O	2.145585	-0.191029	-0.521131
O7	O	1.914577	-0.307881	-0.179213
O8	O	1.776387	-0.093341	-0.394423
O9	O	2.133614	-0.289510	-0.367020
O10	O	1.942348	-0.079422	-0.536722
O11	O	1.760587	-0.223318	-0.191026
O12	O	1.572891	-0.221863	-0.409953
O13	O	1.803703	-0.286953	-0.751825
O14	O	1.584666	-0.305323	-0.564017
O15	O	1.957889	-0.189574	-0.740058
O16	O	1.930118	-0.418032	-0.382550
O17	O	1.787904	-0.416930	-0.548427
C18	C	1.533262	-0.265487	-0.490468
C19	C	1.393831	-0.271302	-0.501167
C20	C	1.859018	-0.444351	-0.465506
C21	C	1.859063	-0.526662	-0.465529
C22	C	1.859344	-0.825738	-0.465576
C23	C	1.770110	-0.793729	-0.570165
C24	C	1.769627	-0.708145	-0.569896
C25	C	1.859205	-0.677363	-0.465554
C26	C	1.813256	-0.716425	-0.336084
C27	C	1.812677	-0.802068	-0.336714
C28	C	1.994649	-0.786912	-0.489276
C29	C	1.994092	-0.701153	-0.492235
C30	C	1.859128	-0.593508	-0.465533
C31	C	1.859417	-0.909594	-0.465588
C32	C	2.186389	-0.238323	-0.440496
C33	C	2.325822	-0.232525	-0.429828
C34	C	1.884402	-0.235983	-0.792731
C35	C	1.895146	-0.229186	-0.932165
C36	C	1.859397	-0.058758	-0.465579
C37	C	1.859485	0.023561	-0.465600
C38	C	1.834147	-0.267762	-0.139597
C39	C	1.823646	-0.274339	-0.000146
H40	H	1.799551	-0.681387	-0.666214
C41	C	1.391262	-0.181661	-0.336249
C42	C	1.374234	-0.097705	-0.348087
C43	C	1.439673	-0.046843	-0.254510
C44	C	1.522140	-0.079935	-0.149094
C45	C	1.539171	-0.163894	-0.137251
C46	C	1.473732	-0.214757	-0.230828
H47	H	1.313183	-0.073205	-0.426126
H48	H	1.427064	0.015310	-0.263278
H49	H	1.570582	-0.042283	-0.079823
H50	H	1.600222	-0.188395	-0.059212
H51	H	1.486341	-0.276910	-0.222061
C52	C	1.328397	-0.322164	-0.594741
C53	C	1.357320	-0.308560	-0.736007
C54	C	1.291876	-0.359422	-0.829583
C55	C	1.197510	-0.423888	-0.781893
C56	C	1.168583	-0.437494	-0.640619
C57	C	1.234026	-0.386632	-0.547043
H58	H	1.427179	-0.260836	-0.771317
H59	H	1.313291	-0.349350	-0.934163
H60	H	1.149065	-0.461539	-0.851163
H61	H	1.098723	-0.485218	-0.605309
H62	H	1.212612	-0.396705	-0.442463
C63	C	1.634419	-0.687553	-0.549762
C64	C	1.562548	-0.717369	-0.429564
C65	C	1.427333	-0.696780	-0.409424
C66	C	1.363989	-0.646375	-0.509483
C67	C	1.435860	-0.616557	-0.629690
C68	C	1.571075	-0.637146	-0.649829
H69	H	1.609438	-0.754684	-0.355487
H70	H	1.374129	-0.718854	-0.320439
H71	H	1.263895	-0.631134	-0.494575
H72	H	1.388970	-0.579241	-0.703767
H73	H	1.624279	-0.615072	-0.738814
C74	C	1.810265	-0.813780	-0.700744
C75	C	1.924571	-0.859466	-0.714011
C76	C	1.964734	-0.879518	-0.844595
C77	C	1.890591	-0.853884	-0.961913
C78	C	1.776277	-0.808195	-0.948650
C79	C	1.736115	-0.788143	-0.818066
H80	H	1.979463	-0.878444	-0.627162
H81	H	2.049357	-0.913339	-0.854412
H82	H	1.920322	-0.868728	-1.058579
H83	H	1.721386	-0.789217	-1.035499
H84	H	1.651492	-0.754321	-0.808249
C85	C	1.635733	-0.829837	-0.550359
C86	C	1.527107	-0.781183	-0.528219
C87	C	1.392733	-0.817293	-0.508406
C88	C	1.366985	-0.902057	-0.510733
C89	C	1.475614	-0.950716	-0.532874
C90	C	1.609988	-0.914606	-0.552687
H91	H	1.546165	-0.718430	-0.526496
H92	H	1.312319	-0.781271	-0.492016
H93	H	1.267513	-0.928788	-0.496066
H94	H	1.456556	-1.013469	-0.534597
H95	H	1.690402	-0.950628	-0.569077
C96	C	1.895893	-0.831189	-0.228568
C97	C	1.962657	-0.776510	-0.141907
C98	C	2.045855	-0.805628	-0.033752
C99	C	2.062288	-0.889424	-0.012258
C100	C	1.995522	-0.944108	-0.098921
C101	C	1.912325	-0.914990	-0.207077
H102	H	1.950494	-0.714475	-0.157816
H103	H	2.095280	-0.765147	0.030402
H104	H	2.123876	-0.910979	0.067805
H105	H	2.007685	-1.006144	-0.083012
H106	H	1.862900	-0.955471	-0.271230
H107	H	1.713468	-0.827543	-0.315457
H108	H	1.875758	-0.696828	-0.256477
H109	H	1.715034	-0.700454	-0.314234
C110	C	2.048573	-0.807961	-0.613924
C111	C	2.170867	-0.847730	-0.614295
C112	C	2.224775	-0.868779	-0.738949
C113	C	2.156390	-0.850058	-0.863232
C114	C	2.034090	-0.810286	-0.862866
C115	C	1.980182	-0.789237	-0.738212
H116	H	2.221495	-0.861591	-0.522289
H117	H	2.315310	-0.898221	-0.739219
H118	H	2.196296	-0.865640	-0.955508
H119	H	1.983461	-0.796426	-0.954872
H120	H	1.889646	-0.759795	-0.737941
C121	C	2.040672	-0.665734	-0.620878
C122	C	1.956666	-0.615443	-0.701355
C123	C	2.003244	-0.580018	-0.829996
C124	C	2.133828	-0.594884	-0.878160
C125	C	2.217842	-0.645178	-0.797681
C126	C	2.171264	-0.680603	-0.669040
H127	H	1.859994	-0.604436	-0.665702
H128	H	1.941051	-0.542787	-0.889571
H129	H	2.168308	-0.568660	-0.973388
H130	H	2.314514	-0.656185	-0.833334
H131	H	2.233457	-0.717833	-0.609465
C132	C	1.988957	-0.169933	-0.997638
C133	C	2.130195	-0.170908	-0.968825
C134	C	2.224004	-0.111656	-1.034299
C135	C	2.176575	-0.051429	-1.128585
C136	C	2.035329	-0.050452	-1.157402
C137	C	1.941520	-0.109704	-1.091929
H138	H	2.165312	-0.215493	-0.899025
H139	H	2.328564	-0.112380	-1.012966
H140	H	2.246018	-0.007568	-1.177052
H141	H	2.000213	-0.005867	-1.227202
H142	H	1.836961	-0.108980	-1.113262
H143	H	2.064908	-0.679770	-0.420802
C144	C	1.729840	-0.333589	-0.934677
C145	C	1.624524	-0.309934	-0.852110
C146	C	1.530716	-0.369185	-0.786633
C147	C	1.542225	-0.452091	-0.803722
C148	C	1.647545	-0.475750	-0.886293
C149	C	1.741353	-0.416499	-0.951770
H150	H	1.616000	-0.248558	-0.839457
H151	H	1.452751	-0.351671	-0.725509
H152	H	1.472783	-0.495952	-0.755252
H153	H	1.656069	-0.537126	-0.898947
H154	H	1.819318	-0.434014	-1.012895
H155	H	2.061257	-0.807601	-0.412976
