data_functionalizedCrystal
_audit_creation_method	'MofGen! by Chris Wilmer'
_symmetry_space_group_name_H-M	'P1'
_symmetry_Int_Tables_number	1
_symmetry_cell_setting	triclinic
loop_
_symmetry_equiv_pos_as_xyz
  x,y,z
_cell_length_a	11.792254
_cell_length_b	9.130313
_cell_length_c	11.792253
_cell_angle_alpha	90.006831
_cell_angle_beta	84.198598
_cell_angle_gamma	90.001450
loop_
_atom_site_label
_atom_site_type_symbol
_atom_site_fract_x
_atom_site_fract_y
_atom_site_fract_z
O1	O	-1.506901	-0.121860	-0.155630
O2	O	-1.176562	-0.121856	-0.171648
O3	O	-1.349740	-0.121828	0.001530
O4	O	-1.333723	-0.121888	-0.328809
O5	O	-1.349738	0.121771	0.001525
O6	O	-1.176560	0.121743	-0.171653
O7	O	-1.506899	0.121739	-0.155635
Cu8	Cu	-1.341729	0.143983	-0.163644
Cu9	Cu	-1.341732	-0.144101	-0.163639
O10	O	-1.333721	0.121710	-0.328813
C11	C	-1.134271	-0.000056	-0.170642
C12	C	-1.008257	-0.000053	-0.167621
C13	C	-0.905921	-0.000056	-0.165168
C14	C	-0.777534	-0.000052	-0.162099
N15	N	-1.341736	0.346606	-0.163648
C16	C	-1.348730	-0.000024	0.043818
C17	C	-1.345710	-0.000010	0.169832
C18	C	-0.549190	-0.000058	-0.156642
C19	C	-0.675204	-0.000049	-0.159662
N20	N	-1.341734	-0.346723	-0.163627
C21	C	-1.418439	0.423270	-0.086990
C22	C	-1.418436	0.576607	-0.086977
C23	C	-1.265023	0.576601	-0.240287
C24	C	-1.265021	0.423267	-0.240295
C25	C	-1.507014	0.423275	0.001519
C26	C	-1.507011	0.576612	0.001533
C27	C	-1.343256	-0.000003	0.272168
C28	C	-1.340188	-0.000000	0.400555
C29	C	-1.334731	-0.000066	0.628898
C30	C	-1.337751	0.000001	0.502885
H31	H	-1.202554	0.360849	-0.302705
H32	H	-1.594184	0.618223	-0.017696
H33	H	-1.202563	0.639036	-0.302691
H34	H	-1.487854	0.381671	0.088711
H35	H	-1.589352	0.375710	-0.025918
H36	H	-1.479642	0.624174	0.083906
