data_functionalizedCrystal
_audit_creation_method	'MofGen! by Chris Wilmer'
_symmetry_space_group_name_H-M	'P1'
_symmetry_Int_Tables_number	1
_symmetry_cell_setting	triclinic
loop_
_symmetry_equiv_pos_as_xyz
  x,y,z
_cell_length_a	18.215407
_cell_length_b	13.897448
_cell_length_c	18.215399
_cell_angle_alpha	89.976259
_cell_angle_beta	90.019833
_cell_angle_gamma	89.979983
loop_
_atom_site_label
_atom_site_type_symbol
_atom_site_fract_x
_atom_site_fract_y
_atom_site_fract_z
Zn1	Zn	1.125099	0.384013	0.416137
Zn2	Zn	1.375099	0.634013	0.666137
Zn3	Zn	1.625099	0.884013	0.916137
Zn4	Zn	1.875099	1.134013	1.166137
Zn5	Zn	1.125019	0.545323	0.293080
Zn6	Zn	1.375019	0.795323	0.543080
Zn7	Zn	1.625019	1.045323	0.793080
Zn8	Zn	1.875019	1.295323	1.043080
Zn9	Zn	1.002032	0.384045	0.293085
Zn10	Zn	1.252032	0.634045	0.543085
Zn11	Zn	1.502032	0.884045	0.793085
Zn12	Zn	1.752032	1.134045	1.043085
Zn13	Zn	1.002009	0.545269	0.416105
Zn14	Zn	1.252009	0.795269	0.666105
Zn15	Zn	1.502009	1.045269	0.916105
Zn16	Zn	1.752009	1.295269	1.166105
O17	O	1.063540	0.464663	0.354602
O18	O	1.313540	0.714663	0.604602
O19	O	1.563540	0.964663	0.854602
O20	O	1.813540	1.214663	1.104602
O21	O	1.228073	0.405421	0.399825
O22	O	1.478073	0.655421	0.649825
O23	O	1.728073	0.905421	0.899825
O24	O	1.978073	1.155421	1.149825
O25	O	1.108680	0.523965	0.190096
O26	O	1.358680	0.773965	0.440096
O27	O	1.608680	1.023965	0.690096
O28	O	1.858680	1.273965	0.940096
O29	O	1.018400	0.249059	0.309423
O30	O	1.268400	0.499059	0.559423
O31	O	1.518400	0.749059	0.809423
O32	O	1.768400	0.999059	1.059423
O33	O	1.228014	0.523934	0.309416
O34	O	1.478014	0.773934	0.559416
O35	O	1.728014	1.023934	0.809416
O36	O	1.978014	1.273934	1.059416
O37	O	1.108817	0.249036	0.399830
O38	O	1.358817	0.499036	0.649830
O39	O	1.608817	0.749036	0.899830
O40	O	1.858817	0.999036	1.149830
O41	O	1.018322	0.405474	0.190100
O42	O	1.268322	0.655474	0.440100
O43	O	1.518322	0.905474	0.690100
O44	O	1.768322	1.155474	0.940100
O45	O	0.899044	0.405422	0.309392
O46	O	1.149044	0.655422	0.559392
O47	O	1.399044	0.905422	0.809392
O48	O	1.649044	1.155422	1.059392
O49	O	1.018361	0.523843	0.519094
O50	O	1.268361	0.773843	0.769094
O51	O	1.518361	1.023843	1.019094
O52	O	1.768361	1.273843	1.269094
O53	O	0.899028	0.523873	0.399775
O54	O	1.149028	0.773873	0.649775
O55	O	1.399028	1.023873	0.899775
O56	O	1.649028	1.273873	1.149775
O57	O	1.108795	0.405369	0.519117
O58	O	1.358795	0.655369	0.769117
O59	O	1.608795	0.905369	1.019117
O60	O	1.858795	1.155369	1.269117
O61	O	1.108658	0.680297	0.309384
O62	O	1.358658	0.930297	0.559384
O63	O	1.608658	1.180297	0.809384
O64	O	1.858658	1.430297	1.059384
O65	O	1.018283	0.680258	0.399770
O66	O	1.268283	0.930258	0.649770
O67	O	1.518283	1.180258	0.899770
O68	O	1.768283	1.430258	1.149770
C69	C	0.872333	0.464646	0.354581
C70	C	1.122333	0.714646	0.604581
C71	C	1.372333	0.964646	0.854581
C72	C	1.622333	1.214646	1.104581
C73	C	0.790535	0.464662	0.354589
C74	C	1.040535	0.714662	0.604589
C75	C	1.290535	0.964662	0.854589
C76	C	1.540535	1.214662	1.104589
C77	C	0.602351	0.526437	0.401592
C78	C	0.852351	0.776437	0.651592
C79	C	1.102351	1.026437	0.901592
C80	C	1.352351	1.276437	1.151592
C81	C	0.525492	0.526440	0.401601
C82	C	0.775492	0.776440	0.651601
C83	C	1.025492	1.026440	0.901601
C84	C	1.275492	1.276440	1.151601
C85	C	0.525480	0.402906	0.307628
C86	C	0.775480	0.652906	0.557628
C87	C	1.025480	0.902906	0.807628
C88	C	1.275480	1.152906	1.057628
C89	C	0.602338	0.402899	0.307623
C90	C	0.852338	0.652899	0.557623
C91	C	1.102338	0.902899	0.807623
C92	C	1.352338	1.152899	1.057623
C93	C	0.640771	0.464670	0.354604
C94	C	0.890771	0.714670	0.604604
C95	C	1.140771	0.964670	0.854604
C96	C	1.390771	1.214670	1.104604
C97	C	0.487055	0.464680	0.354618
C98	C	0.737055	0.714680	0.604618
C99	C	0.987055	0.964680	0.854618
C100	C	1.237055	1.214680	1.104618
C101	C	0.403721	0.464683	0.354628
C102	C	0.653721	0.714683	0.604628
C103	C	0.903721	0.964683	0.854628
C104	C	1.153721	1.214683	1.104628
C105	C	0.724110	0.464666	0.354595
C106	C	0.974110	0.714666	0.604595
C107	C	1.224110	0.964666	0.854595
C108	C	1.474110	1.214666	1.104595
C109	C	1.063480	0.715277	0.354589
C110	C	1.313480	0.965277	0.604589
C111	C	1.563480	1.215277	0.854589
C112	C	1.813480	1.465277	1.104589
C113	C	1.063521	0.822491	0.354608
C114	C	1.313521	1.072491	0.604608
C115	C	1.563521	1.322491	0.854608
C116	C	1.813521	1.572491	1.104608
C117	C	1.063594	1.018786	0.354661
C118	C	1.313594	1.268786	0.604661
C119	C	1.563594	1.518786	0.854661
C120	C	1.813594	1.768786	1.104661
C121	C	1.063551	0.909553	0.354634
C122	C	1.313551	1.159553	0.604634
C123	C	1.563551	1.409553	0.854634
C124	C	1.813551	1.659553	1.104634
C125	C	1.255493	0.464680	0.354623
C126	C	1.505493	0.714680	0.604623
C127	C	1.755493	0.964680	0.854623
C128	C	2.005493	1.214680	1.104623
C129	C	1.337291	0.464687	0.354633
C130	C	1.587291	0.714687	0.604633
C131	C	1.837291	0.964687	0.854633
C132	C	2.087291	1.214687	1.104633
C133	C	1.063585	0.464596	0.546555
C134	C	1.313585	0.714596	0.796555
C135	C	1.563585	0.964596	1.046555
C136	C	1.813585	1.214596	1.296555
C137	C	1.063604	0.464568	0.628354
C138	C	1.313604	0.714568	0.878354
C139	C	1.563604	0.964568	1.128354
C140	C	1.813604	1.214568	1.378354
C141	C	1.063614	1.213070	0.354639
C142	C	1.313614	1.463070	0.604639
C143	C	1.563614	1.713070	0.854639
C144	C	1.813614	1.963070	1.104639
C145	C	1.063629	1.105856	0.354677
C146	C	1.313629	1.355856	0.604677
C147	C	1.563629	1.605856	0.854677
C148	C	1.813629	1.855856	1.104677
C149	C	1.063537	0.464659	0.163396
C150	C	1.313537	0.714659	0.413396
C151	C	1.563537	0.964659	0.663396
C152	C	1.813537	1.214659	0.913396
C153	C	1.063661	0.464416	0.081597
C154	C	1.313661	0.714416	0.331597
C155	C	1.563661	0.964416	0.581597
C156	C	1.813661	1.214416	0.831597
C157	C	1.110709	0.402821	0.816561
C158	C	1.360709	0.652821	1.066561
C159	C	1.610709	0.902821	1.316561
C160	C	1.860709	1.152821	1.566561
C161	C	1.110718	0.402792	0.893420
C162	C	1.360718	0.652792	1.143420
C163	C	1.610718	0.902792	1.393420
C164	C	1.860718	1.152792	1.643420
C165	C	1.016550	0.526166	0.893384
C166	C	1.266550	0.776166	1.143384
C167	C	1.516550	1.026166	1.393384
C168	C	1.766550	1.276166	1.643384
C169	C	1.016538	0.526188	0.816527
C170	C	1.266538	0.776188	1.066527
C171	C	1.516538	1.026188	1.316527
C172	C	1.766538	1.276188	1.566527
C173	C	1.063622	0.464517	0.778117
C174	C	1.313622	0.714517	1.028117
C175	C	1.563622	0.964517	1.278117
C176	C	1.813622	1.214517	1.528117
C177	C	1.063643	0.464466	0.931834
C178	C	1.313643	0.714466	1.181834
C179	C	1.563643	0.964466	1.431834
C180	C	1.813643	1.214466	1.681834
C181	C	1.063652	0.464436	1.015167
C182	C	1.313652	0.714436	1.265167
C183	C	1.563652	0.964436	1.515167
C184	C	1.813652	1.214436	1.765167
C185	C	1.063612	0.464546	0.694778
C186	C	1.313612	0.714546	0.944778
C187	C	1.563612	0.964546	1.194778
C188	C	1.813612	1.214546	1.444778
H189	H	0.494178	0.352616	0.269376
H190	H	0.744178	0.602616	0.519376
H191	H	0.994178	0.852616	0.769376
H192	H	1.244178	1.102616	1.019376
F193	F	1.160840	0.337133	0.934332
F194	F	1.410840	0.587133	1.184332
F195	F	1.660840	0.837133	1.434332
F196	F	1.910840	1.087133	1.684332
F197	F	0.643252	0.592176	0.451596
F198	F	0.893252	0.842176	0.701596
F199	F	1.143252	1.092176	0.951596
F200	F	1.393252	1.342176	1.201596
F201	F	1.160818	0.337182	0.775686
F202	F	1.410818	0.587182	1.025686
F203	F	1.660818	0.837182	1.275686
F204	F	1.910818	1.087182	1.525686
H205	H	0.978217	0.576378	0.924666
H206	H	1.228217	0.826378	1.174666
H207	H	1.478217	1.076378	1.424666
H208	H	1.728217	1.326378	1.674666
F209	F	0.966415	0.591853	0.775609
F210	F	1.216415	0.841853	1.025609
F211	F	1.466415	1.091853	1.275609
F212	F	1.716415	1.341853	1.525609
H213	H	0.494214	0.576735	0.439865
H214	H	0.744214	0.826735	0.689865
H215	H	0.994214	1.076735	0.939865
H216	H	1.244214	1.326735	1.189865
H217	H	0.633620	0.352595	0.269359
H218	H	0.883620	0.602595	0.519359
H219	H	1.133620	0.852595	0.769359
H220	H	1.383620	1.102595	1.019359
