data_functionalizedCrystal
_audit_creation_method	'MofGen! by Chris Wilmer'
_symmetry_space_group_name_H-M	'P1'
_symmetry_Int_Tables_number	1
_symmetry_cell_setting	triclinic
loop_
_symmetry_equiv_pos_as_xyz
  x,y,z
_cell_length_a	19.902436
_cell_length_b	18.760492
_cell_length_c	19.902436
_cell_angle_alpha	60.004581
_cell_angle_beta	90.004623
_cell_angle_gamma	59.995679
loop_
_atom_site_label
_atom_site_type_symbol
_atom_site_fract_x
_atom_site_fract_y
_atom_site_fract_z
Zr1	Zr	0.647294	0.780161	-0.088145
O2	O	0.539997	0.928873	-0.195438
O3	O	0.680190	0.631448	-0.055250
O4	O	0.680185	0.780143	-0.195421
O5	O	0.540002	0.780192	0.055299
O6	O	0.790764	0.780129	-0.195412
O7	O	0.540002	0.780178	-0.055266
O8	O	0.790773	0.514141	0.055329
O9	O	0.539993	1.046180	-0.195442
O10	O	0.776739	0.692606	-0.041218
O11	O	0.694215	0.692626	0.041289
O12	O	0.694210	0.867695	-0.123745
O13	O	0.611686	0.867716	-0.041238
Zr14	Zr	0.823655	0.780161	0.088209
Zr15	Zr	0.823655	0.780139	-0.088130
Zr16	Zr	0.647294	0.780183	0.088195
Zr17	Zr	0.647288	0.967252	-0.088151
Zr18	Zr	0.823661	0.593070	0.088216
O19	O	0.790759	0.928873	0.055315
O20	O	0.790759	0.928842	-0.195418
O21	O	0.539997	0.928905	0.055294
O22	O	0.930952	0.631448	0.195503
O23	O	0.930952	0.631417	-0.055229
O24	O	0.680190	0.631480	0.195483
O25	O	0.930947	0.780129	-0.055235
O26	O	0.790764	0.780178	0.195486
O27	O	0.680185	0.780192	0.195477
O28	O	0.930947	0.780143	0.055331
O29	O	0.680176	1.046163	-0.195431
O30	O	0.790773	0.514159	0.195496
O31	O	0.930956	0.514141	0.195507
O32	O	0.930956	0.514124	0.055341
O33	O	0.539993	1.046198	-0.055276
O34	O	0.680176	1.046180	-0.055264
O35	O	0.776739	0.692626	0.123810
O36	O	0.859263	0.692606	0.041303
O37	O	0.776733	0.867695	-0.041224
O38	O	0.694210	0.867716	0.041283
C39	C	0.735482	0.546138	0.000041
C40	C	0.735485	0.466713	0.000043
C41	C	0.692387	0.130929	0.043093
C42	C	0.778543	0.130912	-0.043046
C43	C	0.778550	0.205528	-0.043041
C44	C	0.735473	0.242849	0.000030
C45	C	0.692390	0.205554	0.043097
C46	C	0.821625	0.242835	-0.086114
C47	C	0.821632	0.317456	-0.086112
C48	C	0.778560	0.354773	-0.043035
C49	C	0.735476	0.317473	0.000035
C50	C	0.692399	0.354794	0.043106
C51	C	0.649320	0.317490	0.086181
C52	C	0.649318	0.242871	0.086174
C53	C	0.778562	0.429392	-0.043028
C54	C	0.692402	0.429418	0.043110
C55	C	0.514874	0.780188	0.000015
C56	C	0.440005	0.780198	0.000008
C57	C	0.168003	0.780148	0.000040
C58	C	0.144432	0.890598	-0.051770
C59	C	0.222270	0.890668	-0.052057
C60	C	0.302946	0.780173	0.000025
C61	C	0.300537	0.725314	-0.037931
C62	C	0.222309	0.726020	-0.038314
C63	C	0.223296	0.723767	0.089830
C64	C	0.300217	0.725843	0.089692
C65	C	0.379213	0.780182	0.000016
C66	C	0.091738	0.780137	0.000046
C67	C	0.956074	0.780133	0.000050
C68	C	1.030944	0.780124	0.000056
C69	C	0.735475	0.780133	-0.220542
C70	C	0.735475	0.780124	-0.295402
C71	C	0.735467	1.014183	0.000024
C72	C	0.735464	1.093609	0.000022
C73	C	0.735474	0.780173	-0.567451
C74	C	0.787783	0.669723	-0.486901
C75	C	0.787557	0.669654	-0.408998
C76	C	0.735475	0.780148	-0.432484
C77	C	0.645805	0.835008	-0.486613
C78	C	0.646091	0.834302	-0.564175
C79	C	0.772112	0.836554	-0.565304
C80	C	0.773927	0.834478	-0.486426
C81	C	0.735470	0.780140	-0.356209
C82	C	0.735472	0.780185	-0.643727
C83	C	0.735474	0.780188	0.220606
C84	C	0.735474	0.780198	0.295467
C85	C	0.956082	0.546111	0.000059
C86	C	1.030955	0.466676	0.000067
C87	C	0.735482	0.546166	0.220615
C88	C	0.735485	0.466750	0.295478
C89	C	0.956082	0.546138	0.220633
C90	C	1.030954	0.466713	0.295502
C91	C	0.514867	1.014183	-0.220568
C92	C	0.439994	1.093609	-0.295437
C93	C	0.514867	1.014211	0.000006
C94	C	0.439994	1.093645	-0.000002
C95	C	0.735467	1.014156	-0.220550
C96	C	0.735464	1.093572	-0.295413
C97	C	1.023039	0.429373	-0.043011
C98	C	1.093383	0.354746	-0.043019
C99	C	1.171641	0.317419	0.000056
C100	C	1.179555	0.354730	0.043136
C101	C	1.109212	0.429360	0.043139
C102	C	0.778563	0.429456	0.373717
C103	C	0.778562	0.354847	0.444066
C104	C	0.735488	0.317528	0.436174
C105	C	0.692405	0.354830	0.357927
C106	C	0.692401	0.429443	0.287580
C107	C	1.109199	0.429404	0.287594
C108	C	1.179556	0.354786	0.357935
C109	C	1.171667	0.317474	0.436184
C110	C	1.093414	0.354791	0.444091
C111	C	1.023059	0.429412	0.373750
C112	C	0.361750	1.130927	-0.287529
C113	C	0.291392	1.205568	-0.357870
C114	C	0.299282	1.242884	-0.436119
C115	C	0.377535	1.205563	-0.444026
C116	C	0.447890	1.130928	-0.373685
C117	C	0.447910	1.130957	0.043068
C118	C	0.377566	1.205604	0.043057
C119	C	0.299308	1.242934	-0.000021
C120	C	0.291393	1.205620	-0.043097
C121	C	0.361736	1.130979	-0.043090
C122	C	0.778546	1.130866	-0.287495
C123	C	0.778560	1.205476	-0.357831
C124	C	0.735486	1.242795	-0.436084
C125	C	0.692402	1.205492	-0.444000
C126	C	0.692394	1.130879	-0.373665
H127	H	0.657325	0.459798	0.078186
H128	H	0.735497	0.256774	0.493462
H129	H	0.355280	1.100602	-0.078161
C130	C	0.868997	0.201791	-0.133496
H131	H	0.862830	0.152001	-0.127322
H132	H	0.847718	0.255365	-0.190164
H133	H	0.925677	0.172665	-0.112220
H134	H	0.813632	0.459767	-0.078103
H135	H	0.959323	0.459764	-0.078098
H136	H	1.086923	0.324377	-0.078099
H137	H	0.299839	0.765843	0.118047
H138	H	0.384026	1.235973	0.078138
H139	H	0.241987	1.303656	-0.493388
H140	H	0.614245	0.212491	0.121244
H141	H	0.243216	0.642404	0.128615
H142	H	1.115639	0.459772	0.223886
C143	C	0.205325	1.246600	-0.349158
H144	H	0.210709	1.213670	-0.292481
H145	H	0.176084	1.317054	-0.374797
H146	H	0.176090	1.234368	-0.374811
H147	H	0.657332	1.235889	-0.507723
C148	C	0.601934	0.358552	0.133553
H149	H	0.608110	0.408334	0.127383
H150	H	0.545260	0.387672	0.112278
H151	H	0.623213	0.304981	0.190228
H152	H	0.657335	0.324434	0.351514
H153	H	0.813610	0.100529	-0.078119
H154	H	0.856710	0.347824	-0.121184
H155	H	0.657316	0.100550	0.078166
C156	C	0.825943	1.246506	-0.349108
H157	H	0.851580	1.213604	-0.292429
H158	H	0.866718	1.234264	-0.374740
H159	H	0.788753	1.316968	-0.374763
C160	C	0.645019	0.470452	0.201521
H161	H	0.619376	0.437529	0.206904
H162	H	0.604249	0.540910	0.172274
H163	H	0.682207	0.458196	0.172299
H164	H	1.243267	0.324410	0.351483
H165	H	1.228962	0.256712	0.493453
H166	H	0.735499	1.303550	-0.493348
H167	H	0.383949	1.235955	-0.507744
H168	H	1.087003	0.324400	0.507810
H169	H	0.511599	1.100544	-0.380134
H170	H	1.243283	0.324327	0.078206
H171	H	0.657307	1.100522	-0.380124
H172	H	0.242036	1.303711	-0.000020
H173	H	0.220990	0.933928	-0.026796
H174	H	0.837146	0.801199	-0.568285
C175	C	0.533985	1.089906	0.090458
H176	H	0.528613	1.122833	0.116099
H177	H	0.563221	1.019453	0.131226
H178	H	0.563219	1.102131	0.053279
H179	H	0.959351	0.459780	0.380201
H180	H	1.228912	0.256649	0.000048
H181	H	0.604995	0.915338	-0.621217
C182	C	0.353059	1.089894	-0.201463
H183	H	0.406162	1.040092	-0.160695
H184	H	0.323834	1.143474	-0.195297
H185	H	0.323826	1.060787	-0.195296
C186	C	1.117930	0.470374	0.090539
H187	H	1.174614	0.437442	0.116197
H188	H	1.092280	0.540830	0.053372
H189	H	1.092288	0.458131	0.131307
C190	C	0.825935	0.470505	0.382415
H191	H	0.851577	0.437611	0.439091
H192	H	0.866705	0.458270	0.356776
H193	H	0.788737	0.540967	0.356757
C194	C	0.876756	0.611500	-0.355762
H195	H	0.913459	0.587700	-0.381659
H196	H	0.883249	0.655005	-0.349651
H197	H	0.888598	0.555894	-0.303131
H198	H	0.853985	0.626365	-0.485195
C199	C	0.091507	0.949182	-0.017566
H200	H	0.083304	0.906813	0.028615
H201	H	0.118802	0.970340	-0.001262
H202	H	0.039748	1.006533	-0.058951
C203	C	0.205307	1.246682	-0.090472
H204	H	0.164553	1.296469	-0.084293
H205	H	0.199119	1.275794	-0.147142
H206	H	0.199133	1.193109	-0.069188
H207	H	0.813623	1.100493	-0.223784
C208	C	0.090530	0.948863	-0.140713
H209	H	0.082330	0.906170	-0.146411
H210	H	0.038825	1.005968	-0.152960
H211	H	0.117198	0.970380	-0.177642
H212	H	0.616760	0.795328	-0.563981
H213	H	0.813648	0.324484	0.507772
C214	C	0.248443	0.616553	0.009362
H215	H	0.306777	0.571849	0.028873
H216	H	0.228774	0.602021	0.054693
H217	H	0.225909	0.608254	-0.026079
C218	C	0.219872	0.949155	-0.141531
H219	H	0.171272	0.972957	-0.177844
H220	H	0.220162	1.004759	-0.153512
H221	H	0.266701	0.905821	-0.148441
H222	H	0.185765	0.764993	-0.104387
H223	H	0.357353	0.644071	-0.002010
H224	H	0.302086	0.763402	-0.103375
H225	H	0.357680	0.645232	0.131543
C226	C	0.174249	0.771533	0.132658
H227	H	0.119585	0.826314	0.096174
H228	H	0.173108	0.722495	0.180694
H229	H	0.199789	0.795286	0.147509
H230	H	0.762147	0.626348	-0.369959
C231	C	0.753772	0.611455	-0.485883
H232	H	0.707830	0.654148	-0.534333
H233	H	0.795362	0.554354	-0.483757
H234	H	0.737125	0.589934	-0.438935
H235	H	0.616265	0.796920	-0.449160
C236	C	0.590858	0.944759	-0.513324
H237	H	0.536930	0.976522	-0.545986
H238	H	0.588629	0.945421	-0.465947
H239	H	0.613115	0.980048	-0.544533
C240	C	0.863168	0.780456	-0.436000
H241	H	0.886093	0.813672	-0.468967
H242	H	0.863663	0.781894	-0.388973
H243	H	0.894810	0.712470	-0.418960
C244	C	0.727800	0.943383	-0.511471
H245	H	0.684290	0.957206	-0.489263
H246	H	0.764826	0.951237	-0.490840
H247	H	0.705807	0.988900	-0.569771
C248	C	0.720885	0.946474	-0.641997
H249	H	0.677387	0.957991	-0.675184
H250	H	0.698586	0.990801	-0.625428
H251	H	0.755076	0.958434	-0.672701
