data_functionalizedCrystal
_audit_creation_method	'MofGen! by Chris Wilmer'
_symmetry_space_group_name_H-M	'P1'
_symmetry_Int_Tables_number	1
_symmetry_cell_setting	triclinic
loop_
_symmetry_equiv_pos_as_xyz
  x,y,z
_cell_length_a	12.827892
_cell_length_b	19.805407
_cell_length_c	12.827893
_cell_angle_alpha	89.986780
_cell_angle_beta	90.007453
_cell_angle_gamma	89.985991
loop_
_atom_site_label
_atom_site_type_symbol
_atom_site_fract_x
_atom_site_fract_y
_atom_site_fract_z
Zn1	Zn	-0.416251	-1.034702	0.591111
Zn2	Zn	0.083749	-0.534702	1.091111
Zn3	Zn	-0.590961	-1.034664	0.416372
Zn4	Zn	-0.090961	-0.534664	0.916372
Zn5	Zn	-0.416230	-0.921542	0.416356
Zn6	Zn	0.083770	-0.421542	0.916356
Zn7	Zn	-0.590947	-0.921502	0.591043
Zn8	Zn	-0.090947	-0.421502	1.091043
O9	O	-0.503597	-0.978102	0.503720
O10	O	-0.003597	-0.478102	1.003720
O11	O	-0.439442	-1.129413	0.567967
O12	O	0.060558	-0.629413	1.067967
O13	O	-0.567779	-1.019659	0.270134
O14	O	-0.067779	-0.519659	0.770134
O15	O	-0.269997	-0.936585	0.439560
O16	O	0.230003	-0.436585	0.939560
O17	O	-0.567800	-1.129385	0.439586
O18	O	-0.067800	-0.629385	0.939586
O19	O	-0.270012	-1.019723	0.567952
O20	O	0.229988	-0.519723	1.067952
O21	O	-0.439405	-0.936548	0.270122
O22	O	0.060595	-0.436548	0.770122
O23	O	-0.439392	-0.826820	0.439494
O24	O	0.060608	-0.326820	0.939494
O25	O	-0.567776	-0.936517	0.737288
O26	O	-0.067776	-0.436517	1.237288
O27	O	-0.567756	-0.826790	0.567835
O28	O	-0.067756	-0.326790	1.067835
O29	O	-0.439428	-1.019684	0.737338
O30	O	0.060572	-0.519684	1.237338
O31	O	-0.737195	-1.019620	0.439520
O32	O	-0.237195	-0.519620	0.939520
O33	O	-0.737185	-0.936480	0.567850
O34	O	-0.237185	-0.436480	1.067850
C35	C	-0.503571	-0.802246	0.503656
C36	C	-0.003571	-0.302246	1.003656
C37	C	-0.503584	-0.727014	0.503653
C38	C	-0.003584	-0.227014	1.003653
C39	C	-0.570550	-0.265225	0.570474
C40	C	-0.070550	0.234775	1.070474
C41	C	-0.570549	-0.335914	0.570455
C42	C	-0.070549	0.164086	1.070455
C43	C	-0.503612	-0.371252	0.503731
C44	C	-0.003612	0.128748	1.003731
C45	C	-0.436679	-0.335899	0.437013
C46	C	0.063321	0.164101	0.937013
C47	C	-0.436685	-0.265212	0.437027
C48	C	0.063315	0.234788	0.937027
C49	C	-0.436652	-0.620972	0.436954
C50	C	0.063348	-0.120972	0.936954
C51	C	-0.436648	-0.691664	0.436947
C52	C	0.063352	-0.191664	0.936947
C53	C	-0.570515	-0.691674	0.570382
C54	C	-0.070515	-0.191674	1.070382
C55	C	-0.570522	-0.620987	0.570396
C56	C	-0.070522	-0.120987	1.070396
C57	C	-0.503593	-0.585640	0.503675
C58	C	-0.003593	-0.085640	1.003675
C59	C	-0.503596	-0.508991	0.503694
C60	C	-0.003596	-0.008991	1.003694
C61	C	-0.503603	-0.447899	0.503716
C62	C	-0.003603	0.052101	1.003716
C63	C	-0.775107	-0.978060	0.503702
C64	C	-0.275107	-0.478060	1.003702
C65	C	-0.891260	-0.978104	0.503729
C66	C	-0.391260	-0.478104	1.003729
C67	C	-0.943015	-1.019293	0.440298
C68	C	-0.443015	-0.519293	0.940298
C69	C	-1.063066	-1.019339	0.440324
C70	C	-0.563066	-0.519339	0.940324
C71	C	-0.231027	-0.978163	0.503762
C72	C	0.268973	-0.478163	1.003762
C73	C	-0.114874	-0.978189	0.503779
C74	C	0.385126	-0.478189	1.003779
C75	C	-0.503603	-0.978100	0.776291
C76	C	-0.003603	-0.478100	1.276291
C77	C	-0.503606	-0.978100	0.892444
C78	C	-0.003606	-0.478100	1.392444
C79	C	-0.503620	-0.154645	0.503773
C80	C	-0.003620	0.345355	1.003773
C81	C	-0.503619	-0.229877	0.503763
C82	C	-0.003619	0.270123	1.003763
C83	C	-0.440094	-0.936978	1.064267
C84	C	0.059906	-0.436978	1.564267
C85	C	-0.440090	-0.936978	0.944217
C86	C	0.059910	-0.436978	1.444217
C87	C	-0.503615	-0.978099	1.232211
C88	C	-0.003615	-0.478099	1.732211
C89	C	-0.503612	-0.978099	1.116057
C90	C	-0.003612	-0.478099	1.616057
H91	H	-0.625052	-0.236458	0.624815
H92	H	-0.125052	0.263542	1.124815
Br93	Br	-0.345809	-0.573009	0.346413
Br94	Br	0.154191	-0.073009	0.846413
H95	H	-0.382182	-0.364677	0.382680
H96	H	0.117818	0.135323	0.882680
Br97	Br	-0.661363	-0.573031	0.660960
Br98	Br	-0.161363	-0.073031	1.160960
Br99	Br	-0.349448	-0.878303	1.138487
Br100	Br	0.150552	-0.378303	1.638487
H101	H	-0.385713	-0.901771	0.899678
H102	H	0.114287	-0.401771	1.399678
Br103	Br	-0.965531	-0.919388	0.594290
Br104	Br	-0.465531	-0.419388	1.094290
H105	H	-0.625053	-0.364692	0.624775
H106	H	-0.125053	0.135308	1.124775
H107	H	-0.625015	-0.720463	0.624707
H108	H	-0.125015	-0.220463	1.124707
Br109	Br	-0.345856	-0.217237	0.346479
Br110	Br	0.154144	0.282763	0.846479
H111	H	-0.898451	-1.054525	0.385975
H112	H	-0.398451	-0.554525	0.885975
H113	H	-1.107574	-1.054600	0.386016
H114	H	-0.607574	-0.554600	0.886016
H115	H	-0.557989	-1.013306	0.936975
H116	H	-0.057989	-0.513306	1.436975
H117	H	-0.382135	-0.720435	0.382610
H118	H	0.117865	-0.220435	0.882610
H119	H	-1.070373	-0.942921	0.558084
H120	H	-0.570373	-0.442921	1.058084
Br121	Br	-0.594241	-1.036786	1.041837
Br122	Br	-0.094241	-0.536786	1.541837
