data_functionalizedCrystal
_audit_creation_method	'MofGen! by Chris Wilmer'
_symmetry_space_group_name_H-M	'P1'
_symmetry_Int_Tables_number	1
_symmetry_cell_setting	triclinic
loop_
_symmetry_equiv_pos_as_xyz
  x,y,z
_cell_length_a	13.897449
_cell_length_b	16.625546
_cell_length_c	16.625539
_cell_angle_alpha	89.969603
_cell_angle_beta	89.980569
_cell_angle_gamma	90.023748
loop_
_atom_site_label
_atom_site_type_symbol
_atom_site_fract_x
_atom_site_fract_y
_atom_site_fract_z
Zn1	Zn	1.474658	-0.320973	-0.455873
Zn2	Zn	1.807992	0.012361	-0.122540
Zn3	Zn	2.141325	0.345694	0.210793
Zn4	Zn	1.474542	-0.455816	-0.321035
Zn5	Zn	1.807876	-0.122482	0.012298
Zn6	Zn	2.141209	0.210851	0.345631
Zn7	Zn	1.313351	-0.321004	-0.321056
Zn8	Zn	1.646684	0.012329	0.012277
Zn9	Zn	1.980018	0.345663	0.345610
Zn10	Zn	1.313316	-0.455770	-0.455828
Zn11	Zn	1.646649	-0.122437	-0.122495
Zn12	Zn	1.979982	0.210897	0.210839
O13	O	1.393967	-0.388391	-0.388448
O14	O	1.727300	-0.055057	-0.055115
O15	O	2.060633	0.278276	0.278218
O16	O	1.609624	-0.338866	-0.437997
O17	O	1.942958	-0.005533	-0.104663
O18	O	2.276291	0.327801	0.228670
O19	O	1.453126	-0.437965	-0.208206
O20	O	1.786460	-0.104632	0.125128
O21	O	2.119793	0.228702	0.458461
O22	O	1.334812	-0.208167	-0.338968
O23	O	1.668145	0.125166	-0.005634
O24	O	2.001479	0.458499	0.327699
O25	O	1.609539	-0.437935	-0.338932
O26	O	1.942873	-0.104601	-0.005599
O27	O	2.276206	0.228732	0.327735
O28	O	1.453324	-0.208144	-0.438017
O29	O	1.786657	0.125189	-0.104684
O30	O	2.119990	0.458522	0.228650
O31	O	1.334700	-0.338919	-0.208221
O32	O	1.668033	-0.005586	0.125112
O33	O	2.001366	0.327747	0.458446
O34	O	1.178365	-0.338875	-0.338924
O35	O	1.511698	-0.005541	-0.005591
O36	O	1.845031	0.327792	0.327743
O37	O	1.334752	-0.437857	-0.568666
O38	O	1.668085	-0.104523	-0.235333
O39	O	2.001418	0.228810	0.098000
O40	O	1.178339	-0.437887	-0.437940
O41	O	1.511672	-0.104554	-0.104607
O42	O	1.845005	0.228780	0.228727
O43	O	1.453289	-0.338822	-0.568700
O44	O	1.786623	-0.005488	-0.235366
O45	O	2.119956	0.327845	0.097967
O46	O	1.453092	-0.568642	-0.338888
O47	O	1.786425	-0.235309	-0.005555
O48	O	2.119759	0.098025	0.327778
O49	O	1.334639	-0.568608	-0.437920
O50	O	1.667973	-0.235275	-0.104587
O51	O	2.001306	0.098058	0.228747
C52	C	1.143352	-0.388380	-0.388430
C53	C	1.476686	-0.055046	-0.055097
C54	C	1.810019	0.278287	0.278237
C55	C	1.036139	-0.388395	-0.388441
C56	C	1.369472	-0.055061	-0.055108
C57	C	1.702805	0.278272	0.278226
C58	C	0.839843	-0.388397	-0.388462
C59	C	1.173177	-0.055064	-0.055129
C60	C	1.506510	0.278269	0.278204
C61	C	0.949076	-0.388393	-0.388448
C62	C	1.282409	-0.055060	-0.055115
C63	C	1.615743	0.278273	0.278218
C64	C	1.393876	-0.597881	-0.388415
C65	C	1.727209	-0.264548	-0.055081
C66	C	2.060542	0.068785	0.278252
C67	C	1.393925	-0.687503	-0.388427
C68	C	1.727258	-0.354169	-0.055094
C69	C	2.060591	-0.020836	0.278240
C70	C	1.394093	-1.015678	-0.388511
C71	C	1.727426	-0.682345	-0.055178
C72	C	2.060760	-0.349011	0.278156
C73	C	1.394043	-0.924370	-0.388490
C74	C	1.727376	-0.591036	-0.055157
C75	C	2.060710	-0.257703	0.278177
C76	C	1.394008	-0.851593	-0.388469
C77	C	1.727341	-0.518260	-0.055135
C78	C	2.060675	-0.184927	0.278198
C79	C	1.393960	-0.760279	-0.388448
C80	C	1.727293	-0.426946	-0.055115
C81	C	2.060626	-0.093612	0.278218
C82	C	1.645560	-0.388402	-0.388467
C83	C	1.978893	-0.055069	-0.055134
C84	C	2.312226	0.278265	0.278199
C85	C	1.752774	-0.388407	-0.388475
C86	C	2.086107	-0.055073	-0.055142
C87	C	2.419440	0.278260	0.278191
C88	C	1.394030	-0.388331	-0.598757
C89	C	1.727363	-0.054997	-0.265424
C90	C	2.060696	0.278336	0.067909
C91	C	1.394056	-0.388305	-0.688378
C92	C	1.727390	-0.054972	-0.355045
C93	C	2.060723	0.278362	-0.021712
C94	C	1.394085	-0.178082	-0.388500
C95	C	1.727418	0.155252	-0.055166
C96	C	2.060751	0.488585	0.278167
C97	C	1.394135	-0.088461	-0.388522
C98	C	1.727468	0.244873	-0.055188
C99	C	2.060802	0.578206	0.278145
C100	C	1.394101	-0.388215	-1.016554
C101	C	1.727434	-0.054881	-0.683221
C102	C	2.060767	0.278452	-0.349888
C103	C	1.394086	-0.388242	-0.925246
C104	C	1.727419	-0.054909	-0.591912
C105	C	2.060752	0.278424	-0.258579
C106	C	1.394079	-0.388260	-0.852469
C107	C	1.727412	-0.054927	-0.519136
C108	C	2.060746	0.278406	-0.185803
C109	C	1.394063	-0.388287	-0.761155
C110	C	1.727396	-0.054953	-0.427822
C111	C	2.060730	0.278380	-0.094488
C112	C	1.393960	-0.388392	-0.178957
C113	C	1.727293	-0.055059	0.154376
C114	C	2.060627	0.278274	0.487709
C115	C	1.394120	-0.388191	-0.089337
C116	C	1.727453	-0.054857	0.243997
C117	C	2.060787	0.278476	0.577330
