data_functionalizedCrystal
_audit_creation_method	'MofGen! by Chris Wilmer'
_symmetry_space_group_name_H-M	'P1'
_symmetry_Int_Tables_number	1
_symmetry_cell_setting	triclinic
loop_
_symmetry_equiv_pos_as_xyz
  x,y,z
_cell_length_a	10.968094
_cell_length_b	11.792254
_cell_length_c	10.065875
_cell_angle_alpha	98.849918
_cell_angle_beta	93.118877
_cell_angle_gamma	84.459577
loop_
_atom_site_label
_atom_site_type_symbol
_atom_site_fract_x
_atom_site_fract_y
_atom_site_fract_z
O1	O	1.614166	0.197939	0.266098
O2	O	1.264149	0.201188	0.183784
O3	O	1.447642	0.034705	0.226946
O4	O	1.430673	0.364422	0.222936
O5	O	1.412653	0.066584	0.445705
O6	O	1.229160	0.233067	0.402543
O7	O	1.579177	0.229818	0.484857
Zn8	Zn	1.398613	0.236504	0.478432
Zn9	Zn	1.444713	0.194502	0.190209
O10	O	1.395684	0.396301	0.441695
C11	C	1.201844	0.214484	0.282625
C12	C	1.068324	0.206593	0.251226
C13	C	0.852666	0.211420	0.318089
C14	C	0.990663	0.219586	0.350555
C15	C	1.429078	0.008315	0.336074
C16	C	1.425879	-0.117815	0.335320
C17	C	1.423279	-0.220247	0.334704
C18	C	1.420030	-0.348754	0.333927
C19	C	1.641482	0.216522	0.386012
C20	C	1.775004	0.224412	0.417404
C21	C	1.414248	0.422691	0.332564
C22	C	1.417449	0.548820	0.333310
N23	N	1.367161	0.265170	0.675139
N24	N	1.476175	0.165828	-0.006496
C25	C	1.433762	0.204468	0.758584
C26	C	1.409564	0.226539	0.910060
H27	H	0.810678	0.241574	0.526467
N28	N	1.575448	0.075345	0.939615
H29	H	1.616569	0.037870	1.016115
H30	H	1.537998	0.015031	0.871534
H31	H	1.292222	0.333474	0.715838
H32	H	0.816993	0.194246	0.209026
N33	N	1.532993	0.113953	0.704683
H34	H	1.536200	0.111004	0.604111
H35	H	1.614657	0.133947	0.748753
N36	N	1.037894	0.242321	0.495034
H37	H	1.129779	0.244931	0.497748
H38	H	0.998399	0.318541	0.539804
N39	N	1.021098	0.183840	0.106746
H40	H	0.929213	0.181229	0.104028
H41	H	1.042012	0.247462	0.057597
N42	N	1.310290	0.317021	0.963946
H43	H	1.307073	0.319960	1.064516
H44	H	1.328762	0.394625	0.943381
