data_functionalizedCrystal
_audit_creation_method	'MofGen! by Chris Wilmer'
_symmetry_space_group_name_H-M	'P1'
_symmetry_Int_Tables_number	1
_symmetry_cell_setting	triclinic
loop_
_symmetry_equiv_pos_as_xyz
  x,y,z
_cell_length_a	14.519709
_cell_length_b	10.654550
_cell_length_c	13.596369
_cell_angle_alpha	90.000219
_cell_angle_beta	89.999684
_cell_angle_gamma	95.917462
loop_
_atom_site_label
_atom_site_type_symbol
_atom_site_fract_x
_atom_site_fract_y
_atom_site_fract_z
O1	O	1.224724	-0.164615	-0.081663
O2	O	1.724724	0.335385	0.418337
O3	O	0.956347	-0.184001	-0.081693
O4	O	1.456347	0.315999	0.418307
O5	O	1.096706	0.008491	-0.081671
O6	O	1.596706	0.508491	0.418329
O7	O	1.084365	-0.357107	-0.081685
O8	O	1.584365	0.142893	0.418315
O9	O	1.096689	0.008480	0.081912
O10	O	1.596689	0.508480	0.581912
O11	O	0.956330	-0.184012	0.081890
O12	O	1.456330	0.315988	0.581890
O13	O	1.224706	-0.164625	0.081920
O14	O	1.724706	0.335375	0.581920
Zn15	Zn	1.090515	-0.174320	0.107877
Zn16	Zn	1.590515	0.325680	0.607877
Zn17	Zn	1.090538	-0.174306	-0.107650
Zn18	Zn	1.590538	0.325694	0.392350
O19	O	1.084348	-0.357117	0.081898
O20	O	1.584348	0.142883	0.581898
C21	C	0.921974	-0.183103	0.000095
C22	C	1.421974	0.316897	0.500095
C23	C	0.819579	-0.180396	0.000083
C24	C	1.319579	0.319604	0.500083
N25	N	1.090506	-0.174329	0.254969
N26	N	1.590506	0.325671	0.754969
C27	C	1.095791	0.055275	0.000120
C28	C	1.595791	0.555275	0.500120
C29	C	1.093080	0.194692	0.000118
C30	C	1.593080	0.694692	0.500118
C31	C	0.444631	-0.170428	0.000128
C32	C	0.944631	0.329572	0.500128
C33	C	0.548954	-0.173196	0.000116
C34	C	1.048954	0.326804	0.500116
C35	C	0.632102	-0.175412	0.000105
C36	C	1.132102	0.324588	0.500105
C37	C	0.736431	-0.178180	0.000094
C38	C	1.236431	0.321820	0.500094
C39	C	1.259079	-0.165524	0.000130
C40	C	1.759079	0.334476	0.500130
C41	C	1.361475	-0.168231	0.000135
C42	C	1.861475	0.331769	0.500135
C43	C	1.085262	-0.403901	0.000105
C44	C	1.585262	0.096099	0.500105
C45	C	1.087973	-0.543318	0.000100
C46	C	1.587973	-0.043318	0.500100
C47	C	1.175721	0.274972	0.000127
C48	C	1.675721	0.774972	0.500127
C49	C	1.173168	0.405968	0.000115
C50	C	1.673168	0.905968	0.500115
C51	C	1.005326	0.376391	0.000089
C52	C	1.505326	0.876391	0.500089
C53	C	1.007880	0.245397	0.000094
C54	C	1.507880	0.745397	0.500094
N55	N	1.090554	-0.174288	-0.254742
N56	N	1.590554	0.325712	0.245258
C57	C	1.090511	-0.174332	0.343967
C58	C	1.590511	0.325668	0.843967
C59	C	1.090520	-0.174323	0.455618
C60	C	1.590520	0.325677	0.955618
C61	C	1.090532	-0.174309	0.544609
C62	C	1.590532	0.325691	1.044609
C63	C	1.090542	-0.174302	0.656267
C64	C	1.590542	0.325698	1.156267
H65	H	1.245096	0.233692	0.000144
H66	H	1.745096	0.733692	0.500144
H67	H	0.935959	0.417692	0.000071
H68	H	1.435959	0.917692	0.500071
H69	H	1.240463	0.471328	0.000120
H70	H	1.740463	0.971328	0.500120
H71	H	0.940579	0.180029	0.000084
H72	H	1.440579	0.680029	0.500084
