data_functionalizedCrystal
_audit_creation_method	'MofGen! by Chris Wilmer'
_symmetry_space_group_name_H-M	'P1'
_symmetry_Int_Tables_number	1
_symmetry_cell_setting	triclinic
loop_
_symmetry_equiv_pos_as_xyz
  x,y,z
_cell_length_a	19.121275
_cell_length_b	19.121063
_cell_length_c	17.640968
_cell_angle_alpha	81.648500
_cell_angle_beta	80.698590
_cell_angle_gamma	89.926756
loop_
_atom_site_label
_atom_site_type_symbol
_atom_site_fract_x
_atom_site_fract_y
_atom_site_fract_z
Zn1	Zn	1.135485	-0.255341	-0.404632
Zn2	Zn	1.635485	0.244659	0.095368
Zn3	Zn	1.107167	-0.393901	-0.280449
Zn4	Zn	1.607167	0.106099	0.219551
Zn5	Zn	0.994943	-0.271763	-0.280001
Zn6	Zn	1.494943	0.228237	0.219999
Zn7	Zn	1.015275	-0.365650	-0.415652
Zn8	Zn	1.515275	0.134350	0.084348
O9	O	1.063218	-0.321664	-0.345183
O10	O	1.563218	0.178336	0.154817
O11	O	1.229002	-0.278672	-0.383734
O12	O	1.729002	0.221328	0.116266
O13	O	1.071920	-0.396395	-0.171647
O14	O	1.571920	0.103605	0.328353
O15	O	1.016929	-0.172305	-0.291734
O16	O	1.516929	0.327695	0.208266
O17	O	1.208197	-0.380471	-0.292497
O18	O	1.708197	0.119529	0.207503
O19	O	1.120184	-0.160240	-0.383300
O20	O	1.620184	0.339760	0.116700
O21	O	0.989470	-0.306660	-0.171318
O22	O	1.489470	0.193340	0.328682
O23	O	0.900366	-0.279267	-0.302419
O24	O	1.400366	0.220733	0.197581
O25	O	1.051582	-0.332321	-0.522932
O26	O	1.551582	0.167679	-0.022932
O27	O	0.915304	-0.348245	-0.402082
O28	O	1.415304	0.151755	0.097918
O29	O	1.139899	-0.251278	-0.514835
O30	O	1.639899	0.248722	-0.014835
O31	O	1.091635	-0.487433	-0.303183
O32	O	1.591635	0.012567	0.196817
O33	O	1.024123	-0.466677	-0.402517
O34	O	1.524123	0.033323	0.097483
C35	C	0.882613	-0.312473	-0.353398
C36	C	1.382613	0.187527	0.146602
C37	C	0.805353	-0.308554	-0.356932
C38	C	1.305353	0.191446	0.143068
C39	C	1.057034	-0.502277	-0.354110
C40	C	1.557034	-0.002277	0.145890
C41	C	1.054457	-0.579542	-0.357953
C42	C	1.554457	-0.079542	0.142047
C43	C	0.758209	-0.359655	-0.311013
C44	C	1.258209	0.140345	0.188987
C45	C	0.685617	-0.355972	-0.314343
C46	C	1.185617	0.144028	0.185657
C47	C	0.660169	-0.301184	-0.363590
C48	C	1.160169	0.198816	0.136410
C49	C	0.707318	-0.250080	-0.409515
C50	C	1.207318	0.249920	0.090485
C51	C	0.779910	-0.253767	-0.406188
C52	C	1.279910	0.246233	0.093812
C53	C	0.441532	-0.287406	-0.376020
C54	C	0.941532	0.212594	0.123980
C55	C	0.368934	-0.283722	-0.379341
C56	C	0.868934	0.216278	0.120659
C57	C	0.347237	-0.389615	-0.284171
C58	C	0.847237	0.110385	0.215829
C59	C	0.419831	-0.393294	-0.280845
C60	C	0.919831	0.106706	0.219155
C61	C	0.466975	-0.342193	-0.326773
C62	C	0.966975	0.157807	0.173227
C63	C	0.585967	-0.297416	-0.366994
C64	C	1.085967	0.202584	0.133006
C65	C	0.541175	-0.345964	-0.323372
C66	C	1.041175	0.154036	0.176628
C67	C	1.088439	-0.626620	-0.308080
C68	C	1.588439	-0.126620	0.191920
C69	C	1.086020	-0.699218	-0.311698
C70	C	1.586020	-0.199218	0.188302
C71	C	1.049616	-0.724738	-0.365185
C72	C	1.549616	-0.224738	0.134815
C73	C	1.015633	-0.677654	-0.415064
C74	C	1.515633	-0.177654	0.084936
C75	C	1.018056	-0.605057	-0.411449
C76	C	1.518056	-0.105057	0.088551
C77	C	1.040543	-0.943395	-0.378689
C78	C	1.540543	-0.443395	0.121311
C79	C	1.038120	-1.015998	-0.382298
C80	C	1.538120	-0.515998	0.117702
C81	C	1.108509	-1.037557	-0.278933
C82	C	1.608509	-0.537557	0.221067
C83	C	1.110925	-0.964958	-0.275319
C84	C	1.610925	-0.464958	0.224681
C85	C	1.076946	-0.917880	-0.325200
C86	C	1.576946	-0.417880	0.174800
C87	C	1.047141	-0.798945	-0.368883
C88	C	1.547141	-0.298945	0.131117
C89	C	1.079425	-0.843674	-0.321506
C90	C	1.579425	-0.343674	0.178494
C91	C	1.244527	-0.330891	-0.336936
C92	C	1.744527	0.169109	0.163064
C93	C	1.321790	-0.334823	-0.333422
C94	C	1.821790	0.165177	0.166578
C95	C	1.101167	-0.286817	-0.547867
C96	C	1.601167	0.213183	-0.047867
C97	C	1.117339	-0.271967	-0.634239
C98	C	1.617339	0.228033	-0.134239
C99	C	1.069447	-0.140343	-0.336237
C100	C	1.569447	0.359657	0.163763
C101	C	1.072102	-0.063075	-0.332425
C102	C	1.572102	0.436925	0.167575
C103	C	0.940641	-0.434110	-0.939382
C104	C	1.440641	0.065890	-0.439382
C105	C	0.955852	-0.420149	-1.020541
C106	C	1.455852	0.079851	-0.520541
C107	C	1.047809	-0.335765	-1.012100
C108	C	1.547809	0.164235	-0.512100
C109	C	1.032604	-0.349717	-0.930939
C110	C	1.532604	0.150283	-0.430939
C111	C	0.979020	-0.398891	-0.894587
C112	C	1.479020	0.101109	-0.394587
C113	C	1.070982	-0.314498	-0.886144
C114	C	1.570982	0.185502	-0.386144
C115	C	1.055780	-0.328452	-0.804990
C116	C	1.555780	0.171548	-0.304990
C117	C	1.002200	-0.377625	-0.768632
C118	C	1.502200	0.122375	-0.268632
C119	C	0.963818	-0.412845	-0.813433
C120	C	1.463818	0.087155	-0.313433
C121	C	1.124570	-0.265329	-0.922498
C122	C	1.624570	0.234671	-0.422498
C123	C	1.162948	-0.230109	-0.877702
C124	C	1.662948	0.269891	-0.377702
C125	C	1.147743	-0.244059	-0.796547
C126	C	1.647743	0.255941	-0.296547
C127	C	1.094163	-0.293232	-0.760189
C128	C	1.594163	0.206768	-0.260189
C129	C	1.186125	-0.208839	-0.751746
C130	C	1.686125	0.291161	-0.251746
C131	C	1.170923	-0.222793	-0.670592
C132	C	1.670923	0.277207	-0.170592
C133	C	1.078961	-0.307186	-0.679035
C134	C	1.578961	0.192814	-0.179035
C135	C	1.025457	-0.356327	-0.143283
C136	C	1.525457	0.143673	0.356717
C137	C	1.009427	-0.370987	-0.056896
C138	C	1.509427	0.129013	0.443104
H139	H	0.647234	-0.397583	-0.276951
H140	H	1.147234	0.102417	0.223049
C141	C	0.898080	-0.554407	-0.921729
C142	C	1.398080	-0.054407	-0.421729
C143	C	0.881753	-0.488173	-0.899402
C144	C	1.381753	0.011827	-0.399402
H145	H	0.861733	-0.587785	-0.897039
H146	H	1.361733	-0.087785	-0.397039
H147	H	0.901621	-0.551139	-0.976463
H148	H	1.401621	-0.051139	-0.476463
H149	H	0.941955	-0.569222	-0.906814
H150	H	1.441955	-0.069222	-0.406814
H151	H	0.837881	-0.473356	-0.914323
H152	H	1.337881	0.026644	-0.414323
H153	H	0.878205	-0.491441	-0.844656
H154	H	1.378205	0.008559	-0.344656
C155	C	1.028064	-1.014001	-0.516515
C156	C	1.528064	-0.514001	-0.016515
C157	C	0.998109	-1.044054	-0.441100
C158	C	1.498109	-0.544054	0.058900
H159	H	1.003366	-1.031328	-0.552812
H160	H	1.503366	-0.531328	-0.052812
H161	H	1.024638	-0.964034	-0.521503
H162	H	1.524638	-0.464034	-0.021503
H163	H	1.076503	-1.026271	-0.526377
H164	H	1.576503	-0.526271	-0.026377
H165	H	0.949671	-1.031780	-0.431235
H166	H	1.449671	-0.531780	0.068765
H167	H	1.001528	-1.094033	-0.436109
H168	H	1.501528	-0.594033	0.063891
C169	C	1.252320	-0.148091	-0.861205
C170	C	1.752320	0.351909	-0.361205
C171	C	1.221846	-0.176058	-0.917664
C172	C	1.721846	0.323942	-0.417664
H173	H	1.288683	-0.114723	-0.885876
H174	H	1.788683	0.385277	-0.385876
H175	H	1.217016	-0.125404	-0.829623
H176	H	1.717016	0.374596	-0.329623
H177	H	1.271939	-0.185180	-0.829832
H178	H	1.771939	0.314820	-0.329832
H179	H	1.202222	-0.138969	-0.949033
H180	H	1.702222	0.361031	-0.449033
H181	H	1.257156	-0.198745	-0.949259
H182	H	1.757156	0.301255	-0.449259
C183	C	0.834597	-0.459176	-0.300926
C184	C	1.334597	0.040824	0.199074
C185	C	0.786181	-0.419879	-0.256880
C186	C	1.286181	0.080121	0.243120
H187	H	0.851867	-0.496354	-0.267505
H188	H	1.351867	0.003646	0.232495
H189	H	0.811705	-0.478562	-0.337340
H190	H	1.311705	0.021438	0.162660
H191	H	0.873061	-0.429261	-0.327792
H192	H	1.373061	0.070739	0.172208
H193	H	0.747714	-0.449793	-0.230018
H194	H	1.247714	0.050207	0.269982
H195	H	0.809073	-0.400493	-0.220452
H196	H	1.309073	0.099507	0.279548
H197	H	0.308846	-0.431219	-0.246781
H198	H	0.808846	0.068781	0.253219
C199	C	1.045935	-0.418699	-0.650235
C200	C	1.545935	0.081301	-0.150235
C201	C	0.985487	-0.392964	-0.679426
C202	C	1.485487	0.107036	-0.179426
H203	H	1.035616	-0.428164	-0.595163
H204	H	1.535616	0.071836	-0.095163
H205	H	1.059847	-0.461011	-0.670257
H206	H	1.559847	0.038989	-0.170257
H207	H	1.083335	-0.384369	-0.665477
H208	H	1.583335	0.115631	-0.165477
H209	H	0.948088	-0.427298	-0.664187
H210	H	1.448088	0.072702	-0.164187
H211	H	0.971565	-0.350648	-0.659395
H212	H	1.471565	0.149352	-0.159395
C213	C	0.960071	-0.497473	-1.116863
C214	C	1.460071	0.002527	-0.616863
C215	C	0.913659	-0.458860	-1.069784
C216	C	1.413659	0.041140	-0.569784
H217	H	0.934022	-0.521373	-1.147260
H218	H	1.434022	-0.021373	-0.647260
H219	H	0.994151	-0.466191	-1.150124
H220	H	1.494151	0.033809	-0.650124
H221	H	0.983508	-0.531050	-1.085129
H222	H	1.483508	-0.031050	-0.585129
H223	H	0.890226	-0.425278	-1.101518
H224	H	1.390226	0.074722	-0.601518
H225	H	0.879566	-0.490145	-1.036519
H226	H	1.379566	0.009855	-0.536519
C227	C	0.951764	-0.855234	-0.389587
C228	C	1.451764	-0.355234	0.110413
C229	C	1.003188	-0.891648	-0.433507
C230	C	1.503188	-0.391648	0.066493
H231	H	0.928705	-0.823282	-0.423432
H232	H	1.428705	-0.323282	0.076568
H233	H	0.917912	-0.888064	-0.358334
H234	H	1.417912	-0.388064	0.141666
H235	H	0.973803	-0.829650	-0.357220
H236	H	1.473803	-0.329650	0.142780
H237	H	0.981147	-0.917236	-0.465871
H238	H	1.481147	-0.417236	0.034129
H239	H	1.037045	-0.858814	-0.464775
H240	H	1.537045	-0.358814	0.035225
H241	H	0.565239	-0.252808	-0.407089
H242	H	1.065239	0.247192	0.092911
H243	H	0.440545	-0.437907	-0.240742
H244	H	0.940545	0.062093	0.259258
C245	C	1.157775	-0.655229	-0.206275
C246	C	1.657775	-0.155229	0.293725
C247	C	1.128456	-0.598573	-0.249283
C248	C	1.628456	-0.098573	0.250717
H249	H	1.182484	-0.637913	-0.169981
H250	H	1.682484	-0.137913	0.330019
H251	H	1.120993	-0.687156	-0.179314
H252	H	1.620993	-0.187156	0.320686
H253	H	1.189739	-0.679033	-0.240366
H254	H	1.689739	-0.179033	0.259634
H255	H	1.096488	-0.574771	-0.215193
H256	H	1.596488	-0.074771	0.284807
H257	H	1.165242	-0.566633	-0.276246
H258	H	1.665242	-0.066633	0.223754
H259	H	1.229758	-0.168808	-0.781356
H260	H	1.729758	0.331192	-0.281356
C261	C	1.174952	-0.787214	-0.300940
C262	C	1.674952	-0.287214	0.199060
C263	C	1.123502	-0.750896	-0.256936
C264	C	1.623502	-0.250896	0.243064
H265	H	1.198134	-0.819094	-0.267148
H266	H	1.698134	-0.319094	0.232852
H267	H	1.152916	-0.812863	-0.333244
H268	H	1.652916	-0.312863	0.166756
H269	H	1.208706	-0.754315	-0.332262
H270	H	1.708706	-0.254315	0.167738
H271	H	1.089745	-0.783795	-0.225618
H272	H	1.589745	-0.283795	0.274382
H273	H	1.145539	-0.725246	-0.224618
H274	H	1.645539	-0.225246	0.275382
H275	H	1.017498	-0.819731	-0.412431
H276	H	1.517498	-0.319731	0.087569
H277	H	1.202174	-0.194113	-0.634118
H278	H	1.702174	0.305887	-0.134118
C279	C	1.180275	-0.993561	-0.173525
C280	C	1.680275	-0.493561	0.326475
C281	C	1.150953	-0.936908	-0.216533
C282	C	1.650953	-0.436908	0.283467
H283	H	1.204990	-0.976242	-0.137236
H284	H	1.704990	-0.476242	0.362764
H285	H	1.143495	-1.025486	-0.146557
H286	H	1.643495	-0.525486	0.353443
H287	H	1.212236	-1.017368	-0.207616
H288	H	1.712236	-0.517368	0.292384
H289	H	1.118988	-0.913103	-0.182442
H290	H	1.618988	-0.413103	0.317558
H291	H	1.187737	-0.904970	-0.243503
H292	H	1.687737	-0.404970	0.256497
C293	C	1.022744	-0.740807	-0.524083
C294	C	1.522744	-0.240807	-0.024083
C295	C	0.975616	-0.705706	-0.473858
C296	C	1.475616	-0.205706	0.026142
H297	H	0.998035	-0.758127	-0.560376
H298	H	1.498035	-0.258127	-0.060376
H299	H	1.059519	-0.708873	-0.551046
H300	H	1.559519	-0.208873	-0.051046
H301	H	1.042632	-0.779233	-0.494888
H302	H	1.542632	-0.279233	0.005112
H303	H	0.955733	-0.667276	-0.503052
H304	H	1.455733	-0.167276	-0.003052
H305	H	0.938829	-0.737642	-0.446892
H306	H	1.438829	-0.237642	0.053108
C307	C	0.397671	-0.179429	-0.473101
C308	C	0.897671	0.320571	0.026899
C309	C	0.340962	-0.223501	-0.433486
C310	C	0.840962	0.276499	0.066514
H311	H	0.380401	-0.142257	-0.506529
H312	H	0.880401	0.357743	-0.006529
H313	H	0.420556	-0.160034	-0.436686
H314	H	0.920556	0.339966	0.063314
H315	H	0.430512	-0.206107	-0.502966
H316	H	0.930512	0.293893	-0.002966
H317	H	0.308124	-0.196824	-0.403617
H318	H	0.808124	0.303176	0.096383
H319	H	0.318066	-0.242897	-0.469906
H320	H	0.818066	0.257103	0.030094
C321	C	1.161789	-0.312370	-1.041210
C322	C	1.661789	0.187630	-0.541210
C323	C	1.141282	-0.249988	-1.011704
C324	C	1.641282	0.250012	-0.511704
H325	H	1.172102	-0.302898	-1.096282
H326	H	1.672102	0.197102	-0.596282
H327	H	1.202789	-0.329827	-1.021401
H328	H	1.702789	0.170173	-0.521401
H329	H	1.124377	-0.346687	-1.025967
H330	H	1.624377	0.153313	-0.525967
H331	H	1.178696	-0.215672	-1.026942
H332	H	1.678696	0.284328	-0.526942
H333	H	1.100277	-0.232521	-1.031521
H334	H	1.600277	0.267479	-0.531521
C335	C	0.948237	-0.591034	-0.513983
C336	C	1.448237	-0.091034	-0.013983
C337	C	0.980704	-0.553306	-0.466272
C338	C	1.480704	-0.053306	0.033728
H339	H	0.925177	-0.559085	-0.547828
H340	H	1.425177	-0.059085	-0.047828
H341	H	0.983129	-0.615739	-0.543760
H342	H	1.483129	-0.115739	-0.043760
H343	H	0.914378	-0.623860	-0.482715
H344	H	1.414378	-0.123860	0.017285
H345	H	1.014567	-0.520484	-0.497540
H346	H	1.514567	-0.020484	0.002460
H347	H	0.945809	-0.528590	-0.436493
H348	H	1.445809	-0.028590	0.063507
C349	C	0.543078	-0.264057	-0.476365
C350	C	1.043078	0.235943	0.023635
C351	C	0.493342	-0.231231	-0.426500
C352	C	0.993342	0.268769	0.073500
H353	H	0.575062	-0.229372	-0.507533
H354	H	1.075062	0.270628	-0.007533
H355	H	0.568626	-0.297204	-0.446564
H356	H	1.068626	0.202796	0.053436
H357	H	0.519276	-0.287848	-0.508824
H358	H	1.019276	0.212152	-0.008824
H359	H	0.517144	-0.207444	-0.394037
H360	H	1.017144	0.292556	0.105963
H361	H	0.467791	-0.198071	-0.456304
H362	H	0.967791	0.301929	0.043696
H363	H	0.686594	-0.205474	-0.449616
H364	H	1.186594	0.294526	0.050384
C365	C	0.921256	-0.533142	-0.795780
C366	C	1.421256	-0.033142	-0.295780
C367	C	0.904930	-0.466908	-0.773453
C368	C	1.404930	0.033092	-0.273453
H369	H	0.884909	-0.566520	-0.771089
H370	H	1.384909	-0.066520	-0.271089
H371	H	0.924797	-0.529873	-0.850514
H372	H	1.424797	-0.029873	-0.350514
H373	H	0.965131	-0.547956	-0.780865
H374	H	1.465131	-0.047956	-0.280865
H375	H	0.861057	-0.452091	-0.788374
H376	H	1.361057	0.047909	-0.288374
H377	H	0.901381	-0.470175	-0.718707
H378	H	1.401381	0.029825	-0.218707
H379	H	1.091440	-0.295730	-1.041709
H380	H	1.591440	0.204270	-0.541709
H381	H	0.818294	-0.212155	-0.443580
H382	H	1.318294	0.287845	0.056420
H383	H	1.136174	-1.075894	-0.238323
H384	H	1.636174	-0.575894	0.261677
C385	C	0.617564	-0.445481	-0.313286
C386	C	1.117564	0.054519	0.186714
C387	C	0.569148	-0.406184	-0.269241
C388	C	1.069148	0.093816	0.230759
H389	H	0.634840	-0.482654	-0.279864
H390	H	1.134840	0.017346	0.220136
H391	H	0.594670	-0.464875	-0.349694
H392	H	1.094670	0.035125	0.150306
H393	H	0.656024	-0.415564	-0.340161
H394	H	1.156024	0.084436	0.159839
H395	H	0.530685	-0.436100	-0.242371
H396	H	1.030685	0.063900	0.257629
H397	H	0.592042	-0.386790	-0.232819
H398	H	1.092042	0.113210	0.267181
H399	H	1.035311	-0.347211	-0.649435
H400	H	1.535311	0.152789	-0.149435
H401	H	1.109069	-0.822893	-0.277959
H402	H	1.609069	-0.322893	0.222041
