data_functionalizedCrystal
_audit_creation_method	'MofGen! by Chris Wilmer'
_symmetry_space_group_name_H-M	'P1'
_symmetry_Int_Tables_number	1
_symmetry_cell_setting	triclinic
loop_
_symmetry_equiv_pos_as_xyz
  x,y,z
_cell_length_a	18.215405
_cell_length_b	12.759401
_cell_length_c	12.759393
_cell_angle_alpha	89.979880
_cell_angle_beta	90.037569
_cell_angle_gamma	89.979145
loop_
_atom_site_label
_atom_site_type_symbol
_atom_site_fract_x
_atom_site_fract_y
_atom_site_fract_z
Zn1	Zn	-0.293020	-1.606181	0.593983
Zn2	Zn	0.206980	-1.106181	1.093983
Zn3	Zn	-0.416106	-1.606044	0.418285
Zn4	Zn	0.083894	-1.106044	0.918285
Zn5	Zn	-0.293050	-1.430483	0.418317
Zn6	Zn	0.206950	-0.930483	0.918317
Zn7	Zn	-0.416041	-1.430440	0.593921
Zn8	Zn	0.083959	-0.930440	1.093921
O9	O	-0.354554	-1.518287	0.506127
O10	O	0.145446	-1.018287	1.006127
O11	O	-0.309363	-1.753184	0.570688
O12	O	0.190637	-1.253184	1.070688
O13	O	-0.399822	-1.582716	0.271268
O14	O	0.100178	-1.082716	0.771268
O15	O	-0.190061	-1.453865	0.441659
O16	O	0.309939	-0.953865	0.941659
O17	O	-0.399794	-1.753083	0.441604
O18	O	0.100206	-1.253083	0.941604
O19	O	-0.190040	-1.582949	0.570720
O20	O	0.309960	-1.082949	1.070720
O21	O	-0.309413	-1.453732	0.271292
O22	O	0.190587	-0.953732	0.771292
O23	O	-0.309349	-1.283456	0.441599
O24	O	0.190651	-0.783456	0.941599
O25	O	-0.399682	-1.453792	0.740950
O26	O	0.100318	-0.953792	1.240950
O27	O	-0.399711	-1.283425	0.570615
O28	O	0.100289	-0.783425	1.070615
O29	O	-0.309299	-1.582908	0.740996
O30	O	0.190701	-1.082908	1.240996
O31	O	-0.519082	-1.582675	0.441544
O32	O	-0.019082	-1.082675	0.941544
O33	O	-0.519034	-1.453659	0.570583
O34	O	-0.019034	-0.953659	1.070583
C35	C	-0.354527	-1.245320	0.506105
C36	C	0.145473	-0.745320	1.006105
C37	C	-0.354533	-1.128543	0.506120
C38	C	0.145467	-0.628543	1.006120
C39	C	-0.307532	-1.073726	0.573437
C40	C	0.192468	-0.573726	1.073437
C41	C	-0.307542	-0.964002	0.573441
C42	C	0.192458	-0.464002	1.073441
C43	C	-0.401559	-0.963921	0.438807
C44	C	0.098441	-0.463921	0.938807
C45	C	-0.401545	-1.073643	0.438799
C46	C	0.098455	-0.573643	0.938799
C47	C	-0.253254	-1.073772	0.651170
C48	C	0.246746	-0.573772	1.151170
C49	C	-0.253264	-0.964048	0.651174
C50	C	0.246736	-0.464048	1.151174
C51	C	-0.545760	-1.518176	0.506076
C52	C	-0.045760	-1.018176	1.006076
C53	C	-0.627559	-1.518225	0.506089
C54	C	-0.127559	-1.018225	1.006089
C55	C	-0.815754	-1.585561	0.439022
C56	C	-0.315754	-1.085561	0.939022
C57	C	-0.892613	-1.585608	0.439048
C58	C	-0.392613	-1.085608	0.939048
C59	C	-0.892602	-1.451148	0.573306
C60	C	-0.392602	-0.951148	1.073306
C61	C	-0.815745	-1.451107	0.573285
C62	C	-0.315745	-0.951107	1.073285
C63	C	-0.777323	-1.518312	0.506137
C64	C	-0.277323	-1.018312	1.006137
C65	C	-0.931039	-1.518400	0.506184
C66	C	-0.431039	-1.018400	1.006184
C67	C	-1.014372	-1.518450	0.506212
C68	C	-0.514372	-1.018450	1.006212
C69	C	-0.693984	-1.518263	0.506110
C70	C	-0.193984	-1.018263	1.006110
C71	C	-0.162601	-1.518427	0.506200
C72	C	0.337399	-1.018427	1.006200
C73	C	-0.080802	-1.518487	0.506232
C74	C	0.419198	-1.018487	1.006232
C75	C	-0.354480	-1.518361	0.780160
C76	C	0.145520	-1.018361	1.280160
C77	C	-0.354448	-1.518392	0.896937
C78	C	0.145552	-1.018392	1.396937
C79	C	-0.354573	-0.792320	0.506142
C80	C	0.145427	-0.292320	1.006142
C81	C	-0.354557	-0.909097	0.506132
C82	C	0.145443	-0.409097	1.006132
C83	C	-0.354575	-1.518274	0.233159
C84	C	0.145425	-1.018274	0.733159
C85	C	-0.354399	-1.518447	0.116383
C86	C	0.145601	-1.018447	0.616383
C87	C	-0.307381	-1.585632	0.951824
C88	C	0.192619	-1.085632	1.451824
C89	C	-0.307355	-1.585657	1.061548
C90	C	0.192645	-1.085657	1.561548
C91	C	-0.401468	-1.451199	1.061488
C92	C	0.098532	-0.951199	1.561488
C93	C	-0.401491	-1.451170	0.951766
C94	C	0.098509	-0.951170	1.451766
C95	C	-0.253048	-1.663263	0.951860
C96	C	0.246952	-1.163263	1.451860
C97	C	-0.253021	-1.663288	1.061584
C98	C	0.246979	-1.163288	1.561584
H99	H	-0.199097	-0.930021	0.622181
H100	H	0.300903	-0.430021	1.122181
H101	H	-0.273484	-1.740530	0.917823
H102	H	0.226516	-1.240530	1.417823
H103	H	-0.273732	-1.107833	0.728406
H104	H	0.226268	-0.607833	1.228406
H105	H	-0.198867	-1.634188	1.095639
H106	H	0.301133	-1.134188	1.595639
H107	H	-0.439836	-0.919209	0.383997
H108	H	0.060164	-0.419209	0.883997
H109	H	-0.784452	-1.396345	0.627943
H110	H	-0.284452	-0.896345	1.127943
O111	O	-0.273248	-1.771063	1.101035
O112	O	0.226752	-1.271063	1.601035
H113	H	-0.273204	-1.771018	1.188026
H114	H	0.226796	-1.271018	1.688026
H115	H	-0.439814	-1.396413	0.907081
H116	H	0.060186	-0.896413	1.407081
H117	H	-0.923900	-1.640370	0.384397
H118	H	-0.423900	-1.140370	0.884397
H119	H	-0.439811	-1.118271	0.383973
H120	H	0.060189	-0.618271	0.883973
H121	H	-0.196234	-1.103554	0.629526
H122	H	0.303766	-0.603554	1.129526
H123	H	-0.268600	-0.934299	0.732506
H124	H	0.231400	-0.434299	1.232506
H125	H	-0.439767	-1.396467	1.106143
H126	H	0.060233	-0.896467	1.606143
O127	O	-0.774309	-1.658054	0.366615
O128	O	-0.274309	-1.158054	0.866615
H129	H	-0.813948	-1.704833	0.319960
H130	H	-0.313948	-1.204833	0.819960
H131	H	-0.923895	-1.396430	0.627974
H132	H	-0.423895	-0.896430	1.127974
H133	H	-0.196054	-1.641509	0.922112
H134	H	0.303946	-1.141509	1.422112
