data_functionalizedCrystal
_audit_creation_method	'MofGen! by Chris Wilmer'
_symmetry_space_group_name_H-M	'P1'
_symmetry_Int_Tables_number	1
_symmetry_cell_setting	triclinic
loop_
_symmetry_equiv_pos_as_xyz
  x,y,z
_cell_length_a	9.065218
_cell_length_b	15.072220
_cell_length_c	9.065218
_cell_angle_alpha	90.000835
_cell_angle_beta	94.984115
_cell_angle_gamma	90.012623
loop_
_atom_site_label
_atom_site_type_symbol
_atom_site_fract_x
_atom_site_fract_y
_atom_site_fract_z
O1	O	1.960420	0.073781	-0.216347
O2	O	2.460420	0.573781	0.283653
O3	O	1.531135	0.073782	-0.234094
O4	O	2.031135	0.573782	0.265906
O5	O	1.754650	0.073779	-0.010578
O6	O	2.254650	0.573779	0.489422
O7	O	1.736904	0.073783	-0.439863
O8	O	2.236904	0.573783	0.060137
O9	O	1.754595	-0.073786	-0.010590
O10	O	2.254595	0.426214	0.489410
O11	O	1.531079	-0.073783	-0.234106
O12	O	2.031079	0.426217	0.265894
O13	O	1.960364	-0.073784	-0.216359
O14	O	2.460364	0.426216	0.283641
Zn15	Zn	1.745713	-0.097213	-0.225234
Zn16	Zn	2.245713	0.402787	0.274766
Zn17	Zn	1.745786	0.097210	-0.225219
Zn18	Zn	2.245786	0.597210	0.274781
O19	O	1.736848	-0.073782	-0.439875
O20	O	2.236848	0.426218	0.060125
C21	C	1.476120	-0.000001	-0.232394
C22	C	1.976120	0.499999	0.267606
C23	C	1.312277	-0.000000	-0.227294
C24	C	1.812277	0.500000	0.272706
N25	N	1.745673	-0.229902	-0.225244
N26	N	2.245673	0.270098	0.274756
C27	C	1.745783	-0.589103	-0.225213
C28	C	2.245783	-0.089103	0.274787
C29	C	1.625772	-0.551495	-0.344400
C30	C	2.125772	-0.051495	0.155600
C31	C	1.626056	-0.448669	-0.344844
C32	C	2.126056	0.051331	0.155156
C33	C	1.745727	-0.410899	-0.225229
C34	C	2.245727	0.089101	0.274771
C35	C	1.900137	-0.448191	-0.260913
C36	C	2.400137	0.051809	0.239087
C37	C	1.899467	-0.551048	-0.261762
C38	C	2.399467	-0.051048	0.238238
C39	C	1.712752	-0.551205	-0.070002
C40	C	2.212752	-0.051205	0.429998
C41	C	1.709233	-0.448341	-0.070987
C42	C	2.209233	0.051659	0.429013
C43	C	1.745705	-0.310186	-0.225234
C44	C	2.245705	0.189814	0.274766
C45	C	1.745815	-0.689817	-0.225210
C46	C	2.245815	-0.189817	0.274790
C47	C	2.015378	0.000000	-0.218059
C48	C	2.515378	0.500000	0.281941
C49	C	2.179221	0.000005	-0.223158
C50	C	2.679221	0.500005	0.276842
C51	C	1.752917	-0.000002	0.044403
C52	C	2.252917	0.499998	0.544403
C53	C	1.747817	0.000003	0.208245
C54	C	2.247817	0.500003	0.708245
N55	N	1.745837	0.229899	-0.225197
N56	N	2.245837	0.729899	0.274803
C57	C	1.738582	0.000001	-0.494855
C58	C	2.238582	0.500001	0.005145
C59	C	1.743681	0.000003	-0.658698
C60	C	2.243681	0.500003	-0.158698
H61	H	1.511347	-0.423458	-0.323280
H62	H	2.011347	0.076542	0.176720
H63	H	1.646797	-0.577333	-0.458886
H64	H	2.146797	-0.077333	0.041114
H65	H	1.790807	-0.422634	0.022021
H66	H	2.290807	0.077366	0.522021
C67	C	1.470314	-0.584954	-0.315730
C68	C	1.970314	-0.084954	0.184270
H69	H	1.477201	-0.622164	-0.230822
H70	H	1.977201	-0.122164	0.269178
H71	H	1.408275	-0.535758	-0.299482
H72	H	1.908275	-0.035758	0.200518
H73	H	1.429566	-0.617604	-0.399198
H74	H	1.929566	-0.117604	0.100802
C75	C	1.654846	-0.415410	-0.500378
C76	C	2.154846	0.084590	-0.000378
H77	H	1.666428	-0.464762	-0.563533
H78	H	2.166428	0.035238	-0.063533
H79	H	1.573439	-0.380431	-0.539372
H80	H	2.073439	0.119569	-0.039372
H81	H	1.742465	-0.380528	-0.494185
H82	H	2.242465	0.119472	0.005815
H83	H	1.928260	-0.575029	-0.375019
H84	H	2.428260	-0.075029	0.124981
C85	C	2.023785	-0.415133	-0.146892
C86	C	2.523785	0.084867	0.353108
H87	H	1.982238	-0.378203	-0.076348
H88	H	2.482238	0.121797	0.423652
H89	H	2.071097	-0.464507	-0.097857
H90	H	2.571097	0.035493	0.402143
H91	H	2.094292	-0.382276	-0.196136
H92	H	2.594292	0.117724	0.303864
H93	H	1.991670	-0.575924	-0.178485
H94	H	2.491670	-0.075924	0.321515
H95	H	1.929564	-0.422420	-0.372892
H96	H	2.429564	0.077580	0.127108
H97	H	1.602491	-0.577195	-0.036199
H98	H	2.102491	-0.077195	0.463801
H99	H	1.595637	-0.423969	-0.043954
H100	H	2.095637	0.076031	0.456046
C101	C	1.830934	-0.584063	0.049855
C102	C	2.330934	-0.084063	0.549855
H103	H	1.900077	-0.620701	0.005603
H104	H	2.400077	-0.120701	0.505603
H105	H	1.881035	-0.534598	0.095770
H106	H	2.381035	-0.034598	0.595770
H107	H	1.784595	-0.617184	0.122117
H108	H	2.284595	-0.117184	0.622117
