data_functionalizedCrystal
_audit_creation_method	'MofGen! by Chris Wilmer'
_symmetry_space_group_name_H-M	'P1'
_symmetry_Int_Tables_number	1
_symmetry_cell_setting	triclinic
loop_
_symmetry_equiv_pos_as_xyz
  x,y,z
_cell_length_a	13.032831
_cell_length_b	25.639239
_cell_length_c	13.032268
_cell_angle_alpha	97.141717
_cell_angle_beta	90.886977
_cell_angle_gamma	82.842759
loop_
_atom_site_label
_atom_site_type_symbol
_atom_site_fract_x
_atom_site_fract_y
_atom_site_fract_z
Zn1	Zn	1.498234	-0.353075	-0.780741
Zn2	Zn	1.519922	-0.430970	-0.608740
Zn3	Zn	1.348108	-0.331235	-0.586988
Zn4	Zn	1.326172	-0.428143	-0.758866
O5	O	1.423109	-0.385856	-0.683834
O6	O	1.645024	-0.373731	-0.776183
O7	O	1.515387	-0.409782	-0.461940
O8	O	1.368126	-0.260977	-0.612741
O9	O	1.660959	-0.430960	-0.649815
O10	O	1.478423	-0.277023	-0.755090
O11	O	1.389156	-0.336508	-0.445959
O12	O	1.201284	-0.333767	-0.591530
O13	O	1.330740	-0.426142	-0.905683
O14	O	1.185169	-0.404965	-0.717808
O15	O	1.457153	-0.370990	-0.921754
O16	O	1.494117	-0.503750	-0.628604
O17	O	1.351770	-0.501673	-0.738901
C18	C	1.155911	-0.366689	-0.649935
C19	C	1.041600	-0.358504	-0.635458
C20	C	0.982702	-0.390128	-0.691390
C21	C	0.864555	-0.381668	-0.676428
C22	C	1.422942	-0.521683	-0.683765
C23	C	1.422960	-0.579799	-0.683782
C24	C	1.497387	-0.941263	-0.626536
C25	C	1.497425	-0.995870	-0.626555
O26	O	1.560532	-1.025027	-0.577808
N27	N	1.423281	-1.022111	-0.683925
C28	C	1.349101	-0.993742	-0.741288
O29	O	1.286040	-1.021077	-0.790088
C30	C	1.349068	-0.939136	-0.741275
C31	C	1.423210	-0.912897	-0.683893
C32	C	1.571523	-0.915024	-0.569160
C33	C	1.571484	-0.860419	-0.569140
C34	C	1.497307	-0.832054	-0.626496
C35	C	1.423171	-0.858293	-0.683872
C36	C	1.274894	-0.910769	-0.798643
C37	C	1.274868	-0.856159	-0.798625
C38	C	1.349010	-0.829920	-0.741243
C39	C	1.348955	-0.775323	-0.741209
N40	N	1.423098	-0.749082	-0.683839
C41	C	1.497275	-0.777448	-0.626482
C42	C	1.349176	-1.108419	-0.741314
C43	C	1.349204	-1.163024	-0.741322
C44	C	1.497529	-1.165149	-0.626590
C45	C	1.497496	-1.110542	-0.626577
C46	C	1.423320	-1.082179	-0.683944
C47	C	1.497185	-0.662774	-0.626444
C48	C	1.497137	-0.608165	-0.626425
C49	C	1.348815	-0.606046	-0.741161
C50	C	1.348860	-0.660650	-0.741176
C51	C	1.423054	-0.689013	-0.683815
O52	O	1.285883	-0.746133	-0.789934
O53	O	1.560333	-0.750108	-0.577701
C54	C	1.691350	-0.405097	-0.717865
C55	C	1.805658	-0.413297	-0.732368
C56	C	1.389080	-0.400687	-0.952077
C57	C	1.374579	-0.407007	-1.066386
C58	C	1.423302	-0.249501	-0.683929
C59	C	1.423384	-0.191395	-0.683970
C60	C	1.430661	-0.382537	-1.125301
C61	C	1.415675	-0.389069	-1.243446
C62	C	1.457064	-0.371048	-0.416642
C63	C	1.471765	-0.364595	-0.302358
H64	H	1.004556	-0.325165	-0.576500
H65	H	1.489766	-0.356749	-1.088273
N66	N	0.852095	-0.455128	-0.806339
N67	N	0.796780	-0.484864	-0.858927
H68	H	0.829574	-0.514408	-0.911168
H69	H	1.019744	-0.423463	-0.750355
N70	N	1.341514	-0.421413	-1.289896
N71	N	1.329441	-0.426671	-1.385803
H72	H	1.277065	-0.449512	-1.418611
N73	N	1.572877	-0.581371	-0.567796
N74	N	1.639099	-0.606708	-0.516591
H75	H	1.692590	-0.587787	-0.475185
N76	N	1.300422	-0.439349	-1.112841
N77	N	1.288350	-0.444607	-1.208748
H78	H	1.235973	-0.467449	-1.241556
N79	N	1.545908	-0.332240	-1.255908
N80	N	1.557974	-0.326976	-1.160000
H81	H	1.610335	-0.304125	-1.127192
H82	H	1.288491	-0.682015	-0.787904
N83	N	1.573292	-1.194137	-0.568003
N84	N	1.573303	-1.242892	-0.568033
H85	H	1.626806	-1.263366	-0.526657
N86	N	1.572964	-0.691733	-0.567829
N87	N	1.578238	-0.679916	-0.472070
H88	H	1.631752	-0.700367	-0.430665
N89	N	0.818083	-0.339842	-0.602467
N90	N	0.722173	-0.333028	-0.590422
H91	H	0.689349	-0.303488	-0.538190
H92	H	1.214515	-0.932122	-0.845364
N93	N	1.647227	-0.833630	-0.510521
N94	N	1.713446	-0.858971	-0.459321
H95	H	1.766947	-0.840055	-0.417920
H96	H	1.631932	-0.938113	-0.522454
N97	N	1.573221	-1.083742	-0.567950
N98	N	1.578512	-1.084133	-0.472194
H99	H	1.631996	-1.065208	-0.430785
N100	N	1.273448	-1.189820	-0.799910
N101	N	1.179431	-1.176584	-0.780963
H102	H	1.125927	-1.195507	-0.822345
N103	N	1.273391	-1.079456	-0.799919
N104	N	1.207203	-1.102897	-0.851135
H105	H	1.153681	-1.082445	-0.892527
H106	H	1.214465	-0.833068	-0.845344
H107	H	1.288419	-0.582942	-0.787857
