data_functionalizedCrystal
_audit_creation_method	'MofGen! by Chris Wilmer'
_symmetry_space_group_name_H-M	'P1'
_symmetry_Int_Tables_number	1
_symmetry_cell_setting	triclinic
loop_
_symmetry_equiv_pos_as_xyz
  x,y,z
_cell_length_a	14.908520
_cell_length_b	14.908780
_cell_length_c	14.908662
_cell_angle_alpha	96.797978
_cell_angle_beta	96.745486
_cell_angle_gamma	83.210051
loop_
_atom_site_label
_atom_site_type_symbol
_atom_site_fract_x
_atom_site_fract_y
_atom_site_fract_z
Zn1	Zn	-0.313868	-1.396257	-0.608920
Zn2	Zn	-0.457419	-1.379587	-0.465377
Zn3	Zn	-0.313885	-1.236152	-0.448822
Zn4	Zn	-0.473904	-1.236114	-0.608844
O5	O	-0.389769	-1.312028	-0.532991
O6	O	-0.326004	-1.521095	-0.596840
O7	O	-0.431487	-1.353600	-0.336138
O8	O	-0.186837	-1.264383	-0.463163
O9	O	-0.431470	-1.508847	-0.491379
O10	O	-0.186825	-1.382012	-0.580787
O11	O	-0.326033	-1.248219	-0.323975
O12	O	-0.342018	-1.109099	-0.463088
O13	O	-0.459567	-1.264318	-0.735897
O14	O	-0.459584	-1.109070	-0.580656
O15	O	-0.341989	-1.381975	-0.735953
O16	O	-0.586651	-1.353562	-0.491305
O17	O	-0.598763	-1.248153	-0.596709
C18	C	-0.402592	-1.076142	-0.520068
C19	C	-0.408101	-0.975229	-0.514562
C20	C	-0.308799	-0.798356	-0.614218
C21	C	-0.313972	-0.703539	-0.609048
C22	C	-0.423615	-0.690778	-0.499047
C23	C	-0.418442	-0.785595	-0.504217
C24	C	-0.361033	-0.839380	-0.561806
C25	C	-0.355865	-0.934198	-0.566980
C26	C	-0.465503	-0.921436	-0.456975
C27	C	-0.470676	-0.826619	-0.451804
C28	C	-0.625648	-1.299070	-0.545816
C29	C	-0.726556	-1.293612	-0.551337
C30	C	-0.903497	-1.393242	-0.452056
C31	C	-0.998308	-1.388116	-0.457241
C32	C	-1.010991	-1.278240	-0.566898
C33	C	-0.916180	-1.283365	-0.561712
C34	C	-0.862436	-1.340867	-0.504288
C35	C	-0.767623	-1.345988	-0.499099
C36	C	-0.780307	-1.236117	-0.608760
C37	C	-0.875118	-1.230991	-0.613945
C38	C	-0.152968	-1.325062	-0.520137
C39	C	-0.052058	-1.330616	-0.514659
C40	C	-0.402615	-1.325001	-0.769787
C41	C	-0.408090	-1.330530	-0.870696
C42	C	-0.376888	-0.548834	-0.545958
C43	C	-0.371379	-0.649748	-0.551465
C44	C	-0.470704	-1.393178	-1.019257
C45	C	-0.465565	-1.387989	-0.924445
C46	C	-0.355752	-1.278253	-0.911765
C47	C	-0.360892	-1.283441	-1.006577
C48	C	-0.418368	-1.340906	-1.060320
C49	C	-0.423502	-1.346099	-1.155133
C50	C	-0.313695	-1.236358	-1.142452
C51	C	-0.308556	-1.231170	-1.047640
C52	C	-0.376904	-1.299160	-0.297115
C53	C	-0.371165	-1.293822	-0.196202
H54	H	-0.309121	-0.977989	-0.613873
H55	H	-0.723865	-1.392806	-0.452339
H56	H	-0.470300	-1.392893	-1.198890
H57	H	-0.262059	-0.842149	-0.661114
C58	C	-0.533187	-1.455590	-1.077455
C59	C	-0.577934	-1.500247	-1.021200
C60	C	-0.635509	-1.557741	-1.074779
H61	H	-0.498405	-1.499155	-1.114737
H62	H	-0.576686	-1.420726	-1.114670
H63	H	-0.534440	-1.535109	-0.984000
H64	H	-0.612733	-1.456705	-0.983918
H65	H	-0.679008	-1.522876	-1.111994
H66	H	-0.600720	-1.601300	-1.112058
H67	H	-0.665883	-1.588041	-1.036618
C68	C	-0.735850	-1.179299	-0.665629
C69	C	-0.762680	-1.202646	-0.757809
C70	C	-0.721754	-1.150313	-0.810218
H71	H	-0.671682	-1.190530	-0.654437
H72	H	-0.754072	-1.116724	-0.649851
H73	H	-0.744452	-1.265207	-0.773582
H74	H	-0.826841	-1.191412	-0.769029
H75	H	-0.739977	-1.087738	-0.794440
H76	H	-0.657588	-1.161549	-0.799018
H77	H	-0.739959	-1.166141	-0.872767
C78	C	-0.522502	-1.444583	-0.879810
C79	C	-0.580552	-1.386994	-0.825738
C80	C	-0.633028	-1.439096	-0.784617
H81	H	-0.483719	-1.484038	-0.843039
H82	H	-0.557520	-1.479528	-0.925372
H83	H	-0.545537	-1.352065	-0.780182
H84	H	-0.619354	-1.347540	-0.862488
H85	H	-0.668047	-1.474040	-0.830179
H86	H	-0.594238	-1.478548	-0.747851
H87	H	-0.672427	-1.400029	-0.747931
C88	C	-0.246173	-1.168872	-0.989130
C89	C	-0.252857	-1.175530	-0.897308
C90	C	-0.195391	-1.118166	-0.843385
H91	H	-0.263552	-1.107949	-1.001930
H92	H	-0.185271	-1.186379	-1.002030
H93	H	-0.313746	-1.158018	-0.884414
H94	H	-0.235471	-1.236440	-0.884481
H95	H	-0.134489	-1.135673	-0.856285
H96	H	-0.212774	-1.057247	-0.856193
H97	H	-0.199911	-1.122682	-0.781079
H98	H	-0.271436	-0.670141	-0.651726
C99	C	-0.485911	-0.632217	-0.436606
C100	C	-0.479268	-0.540402	-0.443311
C101	C	-0.536648	-0.486429	-0.385810
H102	H	-0.468436	-0.645023	-0.375710
H103	H	-0.546825	-0.645072	-0.453963
H104	H	-0.418367	-0.527552	-0.425948
H105	H	-0.496750	-0.527568	-0.504194
H106	H	-0.597562	-0.499284	-0.403168
H107	H	-0.519168	-0.499243	-0.324918
H108	H	-0.532155	-0.424127	-0.390358
H109	H	-0.517413	-0.782815	-0.404914
C110	C	-0.522115	-0.966148	-0.400105
C111	C	-0.505287	-1.060697	-0.416943
C112	C	-0.557416	-1.101916	-0.364569
H113	H	-0.584724	-0.948088	-0.415720
H114	H	-0.506268	-0.948043	-0.337533
H115	H	-0.521141	-1.078795	-0.479502
H116	H	-0.442689	-1.078783	-0.401325
H117	H	-0.541568	-1.083811	-0.301997
H118	H	-0.620021	-1.083849	-0.380188
H119	H	-0.545999	-1.166071	-0.375980
H120	H	-0.308966	-1.231459	-0.867992
C121	C	-0.845297	-1.455749	-0.389685
C122	C	-0.901550	-1.500531	-0.345061
C123	C	-0.847971	-1.558128	-0.287604
H124	H	-0.808086	-1.420972	-0.346107
H125	H	-0.808011	-1.499234	-0.424567
H126	H	-0.938820	-1.457053	-0.310181
H127	H	-0.938761	-1.535326	-0.388616
H128	H	-0.810685	-1.601613	-0.322485
H129	H	-0.810762	-1.523343	-0.244032
H130	H	-0.886130	-1.588525	-0.257326
C131	C	-1.043060	-1.444977	-0.400672
C132	C	-1.137595	-1.428217	-0.417534
C133	C	-1.178851	-1.480609	-0.365464
H134	H	-1.025086	-1.429322	-0.338052
H135	H	-1.024903	-1.507548	-0.416546
H136	H	-1.155746	-1.365659	-0.401653
H137	H	-1.155596	-1.443876	-0.480144
H138	H	-1.160693	-1.543181	-0.381338
H139	H	-1.160870	-1.464950	-0.302847
H140	H	-1.242996	-1.469252	-0.376904
C141	C	-1.069507	-1.215835	-0.629151
C142	C	-1.161325	-1.222546	-0.622495
C143	C	-1.215257	-1.165062	-0.679820
H144	H	-1.056640	-1.233188	-0.690075
H145	H	-1.056682	-1.154926	-0.611615
H146	H	-1.174145	-1.283441	-0.640036
H147	H	-1.174220	-1.205185	-0.561584
H148	H	-1.202432	-1.104153	-0.662284
H149	H	-1.202382	-1.182420	-0.740740
H150	H	-1.277561	-1.169601	-0.675305
C151	C	-0.933361	-1.168419	-0.676221
C152	C	-0.914181	-1.078765	-0.650208
C153	C	-0.967804	-1.021097	-0.707562
H154	H	-0.995732	-1.172745	-0.671884
H155	H	-0.920360	-1.185783	-0.737115
H156	H	-0.927188	-1.061406	-0.589329
H157	H	-0.851819	-1.074410	-0.654549
H158	H	-0.954803	-1.038461	-0.768457
H159	H	-1.030172	-1.025431	-0.703221
H160	H	-0.954792	-0.960262	-0.689926
H161	H	-0.271076	-1.193799	-1.175895
