data_functionalizedCrystal
_audit_creation_method	'MofGen! by Chris Wilmer'
_symmetry_space_group_name_H-M	'P1'
_symmetry_Int_Tables_number	1
_symmetry_cell_setting	triclinic
loop_
_symmetry_equiv_pos_as_xyz
  x,y,z
_cell_length_a	14.853567
_cell_length_b	10.654550
_cell_length_c	9.730223
_cell_angle_alpha	90.000649
_cell_angle_beta	90.000021
_cell_angle_gamma	95.940070
loop_
_atom_site_label
_atom_site_type_symbol
_atom_site_fract_x
_atom_site_fract_y
_atom_site_fract_z
O1	O	0.126625	-1.666522	0.114175
O2	O	0.138689	-1.300919	0.114199
O3	O	0.001480	-1.493486	0.114190
O4	O	0.263835	-1.473955	0.114183
O5	O	0.001477	-1.493476	-0.114390
O6	O	0.138687	-1.300909	-0.114381
O7	O	0.126623	-1.666512	-0.114405
Zn8	Zn	0.132654	-1.483709	-0.150685
Zn9	Zn	0.132658	-1.483722	0.150479
O10	O	0.263832	-1.473945	-0.114397
C11	C	-0.032115	-1.492596	-0.000096
C12	C	-0.132213	-1.489944	-0.000084
C13	C	0.137802	-1.254125	-0.000088
C14	C	0.135152	-1.114709	-0.000078
C15	C	0.127510	-1.713306	-0.000116
C16	C	0.130160	-1.852722	-0.000116
C17	C	-0.545419	-1.364344	-0.000102
C18	C	-0.565475	-1.593119	-0.000116
C19	C	-0.471428	-1.595613	-0.000109
C20	C	-0.414372	-1.482470	-0.000099
C21	C	-0.451363	-1.366834	-0.000098
C22	C	-0.434430	-1.711247	-0.000124
C23	C	-0.340378	-1.713745	-0.000118
C24	C	-0.283320	-1.600601	-0.000098
C25	C	-0.320316	-1.484961	-0.000095
C26	C	-0.263260	-1.371818	-0.000086
C27	C	-0.300254	-1.256176	-0.000073
C28	C	-0.394305	-1.253691	-0.000079
C29	C	-0.189269	-1.603087	-0.000093
C30	C	-0.169204	-1.374308	-0.000082
C31	C	0.297427	-1.474835	-0.000108
C32	C	0.397525	-1.477487	-0.000111
N33	N	0.132652	-1.483709	-0.356222
C34	C	0.215939	-1.034384	-0.000084
C35	C	0.213443	-0.903389	-0.000108
C36	C	0.049367	-0.933057	-0.000114
C37	C	0.051864	-1.064049	-0.000100
C38	C	0.071918	-1.569013	-0.572044
C39	C	0.071919	-1.569005	-0.428161
C40	C	0.193393	-1.398424	-0.428173
C41	C	0.193396	-1.398439	-0.572053
N42	N	0.132653	-1.483732	0.356015
H43	H	-0.253787	-1.164056	-0.000075
C44	C	0.259195	-1.305778	-0.650348
C45	C	0.210657	-1.228860	-0.732990
C46	C	0.271239	-1.143506	-0.805148
H47	H	0.295392	-1.254850	-0.587062
H48	H	0.297013	-1.350990	-0.706547
H49	H	0.172854	-1.183652	-0.676796
H50	H	0.174464	-1.279753	-0.796302
H51	H	0.309058	-1.188718	-0.861347
H52	H	0.307433	-1.092588	-0.741852
H53	H	0.238315	-1.091316	-0.861239
C54	C	0.005934	-1.661757	-0.649894
C55	C	-0.047239	-1.736460	-0.556087
C56	C	-0.108027	-1.821923	-0.627747
H57	H	-0.031982	-1.616671	-0.706030
H58	H	0.038691	-1.714162	-0.705988
H59	H	-0.079993	-1.684062	-0.500017
H60	H	-0.009348	-1.781574	-0.499948
H61	H	-0.075270	-1.874328	-0.683841
H62	H	-0.145936	-1.776827	-0.683881
H63	H	-0.144106	-1.872627	-0.564111
C64	C	-0.041120	-0.878221	0.000094
C65	C	-0.090014	-0.919053	0.117680
C66	C	-0.173380	-0.868580	0.117915
H67	H	-0.031165	-0.788707	0.000161
H68	H	-0.074469	-0.905824	-0.079573
H69	H	-0.056672	-0.891443	0.197326
H70	H	-0.099993	-1.008560	0.117638
H71	H	-0.206729	-0.896183	0.038248
H72	H	-0.163417	-0.779067	0.117978
H73	H	-0.206568	-0.896286	0.197688
C74	C	-0.300164	-1.839255	-0.000398
C75	C	-0.246765	-1.847384	-0.118005
C76	C	-0.209714	-1.962991	-0.118313
H77	H	-0.263834	-1.845105	0.079226
H78	H	-0.347589	-1.906319	-0.000478
H79	H	-0.199346	-1.780339	-0.117912
H80	H	-0.283074	-1.841556	-0.197648
H81	H	-0.257139	-2.030055	-0.118393
H82	H	-0.173389	-1.968831	-0.038684
H83	H	-0.173485	-1.968527	-0.198114
C84	C	-0.434645	-1.128274	-0.000150
C85	C	-0.529222	-1.150313	-0.000202
C86	C	-0.566418	-1.034812	-0.000293
H87	H	-0.415219	-1.081582	0.079541
H88	H	-0.415158	-1.081671	-0.079891
H89	H	-0.548702	-1.196896	0.079531
H90	H	-0.548674	-1.196986	-0.079887
H91	H	-0.546931	-0.988209	-0.080034
H92	H	-0.546985	-0.988129	0.079400
H93	H	-0.630592	-1.049750	-0.000340
H94	H	-0.575544	-1.270191	-0.000086
H95	H	0.022465	-1.638450	-0.369590
C96	C	-0.627313	-1.716049	0.000088
C97	C	-0.610479	-1.785681	0.117670
C98	C	-0.667423	-1.898942	0.117899
H99	H	-0.688653	-1.698179	0.000153
H100	H	-0.616006	-1.763527	-0.079581
H101	H	-0.621793	-1.738213	0.197319
H102	H	-0.549149	-1.803584	0.117630
H103	H	-0.656116	-1.946420	0.038230
H104	H	-0.728759	-1.881061	0.117961
H105	H	-0.656003	-1.946207	0.197671
C106	C	0.259377	-1.306015	-0.349895
C107	C	0.314996	-1.372986	-0.267250
C108	C	0.375782	-1.287897	-0.195110
H109	H	0.295638	-1.255191	-0.413191
H110	H	0.226616	-1.253700	-0.293699
H111	H	0.347755	-1.425279	-0.323441
H112	H	0.278760	-1.423806	-0.203928
H113	H	0.343020	-1.235582	-0.138914
H114	H	0.412036	-1.237077	-0.258416
H115	H	0.413521	-1.333324	-0.139018
H116	H	-0.122754	-1.282172	-0.000069
H117	H	0.279228	-0.837993	-0.000116
H118	H	-0.480891	-1.803361	-0.000144
H119	H	-0.159152	-1.697240	-0.000112
H120	H	0.283758	-1.075626	-0.000077
H121	H	-0.013927	-1.129454	-0.000099
