data_functionalizedCrystal
_audit_creation_method	'MofGen! by Chris Wilmer'
_symmetry_space_group_name_H-M	'P1'
_symmetry_Int_Tables_number	1
_symmetry_cell_setting	triclinic
loop_
_symmetry_equiv_pos_as_xyz
  x,y,z
_cell_length_a	12.996460
_cell_length_b	14.853567
_cell_length_c	14.853567
_cell_angle_alpha	83.634930
_cell_angle_beta	90.003507
_cell_angle_gamma	89.996756
loop_
_atom_site_label
_atom_site_type_symbol
_atom_site_fract_x
_atom_site_fract_y
_atom_site_fract_z
O1	O	0.085487	-1.196368	-0.117698
O2	O	0.585487	-0.696368	0.382302
O3	O	0.085504	-0.933908	-0.131719
O4	O	0.585504	-0.433908	0.368281
O5	O	0.085498	-1.072149	0.006521
O6	O	0.585498	-0.572149	0.506521
O7	O	0.085493	-1.058127	-0.255938
O8	O	0.585493	-0.558127	0.244062
O9	O	-0.085636	-1.072131	0.006513
O10	O	0.414364	-0.572131	0.506513
O11	O	-0.085630	-0.933890	-0.131727
O12	O	0.414370	-0.433890	0.368273
O13	O	-0.085647	-1.196350	-0.117706
O14	O	0.414353	-0.696350	0.382294
Cu15	Cu	-0.101264	-1.065118	-0.124717
Cu16	Cu	0.398736	-0.565118	0.375283
Cu17	Cu	0.101121	-1.065140	-0.124708
Cu18	Cu	0.601121	-0.565140	0.375292
O19	O	-0.085641	-1.058109	-0.255947
O20	O	0.414359	-0.558109	0.244053
C21	C	-0.000061	-0.900311	-0.131088
C22	C	0.499939	-0.400311	0.368912
C23	C	-0.000054	-0.800227	-0.129184
C24	C	0.499946	-0.300227	0.370816
N25	N	-0.243611	-1.065110	-0.124724
N26	N	0.256389	-0.565110	0.375276
C27	C	-0.336717	-1.065114	-0.124726
C28	C	0.163283	-0.565114	0.375274
C29	C	-0.453523	-1.065123	-0.124720
C30	C	0.046477	-0.565123	0.375280
C31	C	-0.546621	-1.065134	-0.124710
C32	C	-0.046621	-0.565134	0.375290
C33	C	-0.663433	-1.065144	-0.124705
C34	C	-0.163433	-0.565144	0.375295
C35	C	-0.000066	-1.071504	0.040106
C36	C	0.499934	-0.571504	0.540106
C37	C	-0.000057	-1.069601	0.140189
C38	C	0.499943	-0.569601	0.640189
N39	N	0.243468	-1.065155	-0.124695
N40	N	0.743468	-0.565155	0.375305
C41	C	-0.000080	-1.229947	-0.118337
C42	C	0.499920	-0.729947	0.381663
C43	C	-0.000080	-1.330031	-0.120241
C44	C	0.499920	-0.830031	0.379759
C45	C	-0.000076	-0.387693	-0.039019
C46	C	0.499924	0.112307	0.460981
C47	C	-0.000078	-0.366412	-0.203251
C48	C	0.499922	0.133588	0.296749
C49	C	-0.000075	-0.460446	-0.205042
C50	C	0.499925	0.039554	0.294958
C51	C	-0.000070	-0.518108	-0.123819
C52	C	0.499930	-0.018108	0.376181
C53	C	-0.000069	-0.481736	-0.040806
C54	C	0.499931	0.018264	0.459194
C55	C	-0.000065	-0.496825	-0.288053
C56	C	0.499935	0.003175	0.211947
C57	C	-0.000061	-0.590864	-0.289846
C58	C	0.499939	-0.090864	0.210154
C59	C	-0.000064	-0.648528	-0.208623
C60	C	0.499936	-0.148528	0.291377
C61	C	-0.000064	-0.612150	-0.125607
C62	C	0.499936	-0.112150	0.374393
C63	C	-0.000060	-0.669812	-0.044384
C64	C	0.499940	-0.169812	0.455616
C65	C	-0.000067	-0.633437	0.038633
C66	C	0.499933	-0.133437	0.538633
C67	C	-0.000072	-0.539399	0.040417
C68	C	0.499928	-0.039399	0.540417
C69	C	-0.000059	-0.742565	-0.210407
C70	C	0.499941	-0.242565	0.289593
C71	C	-0.000053	-0.763855	-0.046172
C72	C	0.499947	-0.263855	0.453828
C73	C	-0.000075	-1.058754	-0.289531
C74	C	0.499925	-0.558754	0.210469
C75	C	-0.000077	-1.060657	-0.389615
C76	C	0.499923	-0.560657	0.110385
C77	C	-0.000071	-0.979435	0.552723
C78	C	0.499929	-0.479435	1.052723
C79	C	-0.000081	-1.143668	0.574004
C80	C	0.499919	-0.643668	1.074004
C81	C	-0.000075	-1.145458	0.479971
C82	C	0.499925	-0.645458	0.979971
C83	C	-0.000069	-1.064235	0.422309
C84	C	0.499931	-0.564235	0.922309
C85	C	-0.000068	-0.981223	0.458680
C86	C	0.499932	-0.481223	0.958680
C87	C	-0.000086	-1.228469	0.443591
C88	C	0.499914	-0.728469	0.943591
C89	C	-0.000081	-1.230262	0.349552
C90	C	0.499919	-0.730262	0.849552
C91	C	-0.000067	-1.149039	0.291889
C92	C	0.499933	-0.649039	0.791889
C93	C	-0.000066	-1.066023	0.328266
C94	C	0.499934	-0.566023	0.828266
C95	C	-0.000059	-0.984800	0.270604
C96	C	0.499941	-0.484800	0.770604
C97	C	-0.000050	-0.901783	0.306979
C98	C	0.499950	-0.401783	0.806979
C99	C	-0.000054	-0.899999	0.401017
C100	C	0.499946	-0.399999	0.901017
C101	C	-0.000063	-1.150823	0.197851
C102	C	0.499937	-0.650823	0.697851
C103	C	-0.000056	-0.986588	0.176561
C104	C	0.499944	-0.486588	0.676561
H105	H	-0.000054	-0.810798	0.019971
H106	H	0.499946	-0.310798	0.519971
N107	N	-0.000046	-0.630095	-0.379380
N108	N	0.499954	-0.130095	0.120620
H109	H	-0.000046	-0.579296	-0.430561
H110	H	0.499954	-0.079296	0.069439
H111	H	-0.063485	-0.668647	-0.383707
H112	H	0.436515	-0.168647	0.116293
H113	H	-0.000086	-0.358072	0.028572
H114	H	0.499914	0.141928	0.528572
N115	N	-0.000088	-0.500167	0.129950
N116	N	0.499912	-0.000167	0.629950
H117	H	-0.000090	-0.431846	0.118756
H118	H	0.499910	0.068154	0.618756
H119	H	0.063352	-0.521251	0.165505
H120	H	0.563352	-0.021251	0.665505
H121	H	-0.000056	-0.680397	0.104764
H122	H	0.499944	-0.180397	0.604764
N123	N	-0.000071	-0.889896	0.591945
N124	N	0.499929	-0.389896	1.091945
H125	H	0.063370	-0.854314	0.570929
H126	H	0.563370	-0.354314	1.070929
H127	H	-0.000111	-0.901156	0.660260
H128	H	0.499889	-0.401156	1.160260
H129	H	-0.000048	-0.832411	0.430643
H130	H	0.499952	-0.332411	0.930643
H131	H	-0.000078	-1.218414	0.168238
H132	H	0.499922	-0.718414	0.668238
H133	H	-0.000073	-0.319459	-0.269379
H134	H	0.499927	0.180541	0.230621
N135	N	-0.000105	-1.231268	0.636190
N136	N	0.499895	-0.731268	1.136190
H137	H	-0.000112	-1.217539	0.701282
H138	H	0.499888	-0.717539	1.201282
H139	H	0.063335	-1.267450	0.624413
H140	H	0.563335	-0.767450	1.124413
H141	H	-0.000054	-0.772178	-0.277998
H142	H	0.499946	-0.272178	0.222002
N143	N	-0.000059	-0.434637	-0.375652
N144	N	0.499941	0.065363	0.124348
H145	H	-0.000069	-0.369546	-0.361921
H146	H	0.499931	0.130454	0.138079
H147	H	-0.063497	-0.446426	-0.411831
H148	H	0.436503	0.053574	0.088169
N149	N	-0.000040	-0.898982	0.114371
N150	N	0.499960	-0.398982	0.614371
H151	H	-0.000034	-0.846125	0.151686
H152	H	0.499966	-0.346125	0.651686
H153	H	-0.063482	-0.896136	0.074886
H154	H	0.436518	-0.396136	0.574886
H155	H	-0.000101	-1.294596	0.490546
H156	H	0.499899	-0.794596	0.990546
N157	N	-0.000063	-0.814188	0.244773
N158	N	0.499937	-0.314188	0.744773
H159	H	0.063371	-0.811278	0.205279
H160	H	0.563371	-0.311278	0.705279
H161	H	-0.000100	-0.761370	0.282135
H162	H	0.499900	-0.261370	0.782135
N163	N	-0.000088	-1.319800	0.310330
N164	N	0.499912	-0.819800	0.810330
H165	H	0.063349	-1.355393	0.331358
H166	H	0.563349	-0.855393	0.831358
H167	H	-0.000121	-1.308540	0.242014
H168	H	0.499879	-0.808540	0.742014
