data_functionalizedCrystal
_audit_creation_method	'MofGen! by Chris Wilmer'
_symmetry_space_group_name_H-M	'P1'
_symmetry_Int_Tables_number	1
_symmetry_cell_setting	triclinic
loop_
_symmetry_equiv_pos_as_xyz
  x,y,z
_cell_length_a	19.288864
_cell_length_b	17.038272
_cell_length_c	17.766277
_cell_angle_alpha	89.993732
_cell_angle_beta	89.976791
_cell_angle_gamma	87.123901
loop_
_atom_site_label
_atom_site_type_symbol
_atom_site_fract_x
_atom_site_fract_y
_atom_site_fract_z
O1	O	0.927386	0.097514	-0.062838
O2	O	0.725940	0.110668	-0.062787
O3	O	0.825466	-0.009720	-0.062806
O4	O	0.827860	0.217903	-0.062819
O5	O	0.825447	-0.009726	0.062382
O6	O	0.725920	0.110662	0.062402
O7	O	0.927367	0.097508	0.062351
Cu8	Cu	0.826642	0.104085	0.073807
Cu9	Cu	0.826665	0.104092	-0.074243
O10	O	0.827841	0.217897	0.062370
C11	C	0.700027	0.110242	-0.000186
C12	C	0.622845	0.108972	-0.000166
C13	C	0.582519	0.179610	-0.000182
C14	C	0.509998	0.178417	-0.000190
C15	C	0.477806	0.106580	-0.000198
C16	C	0.518141	0.035932	-0.000178
C17	C	0.590661	0.037128	-0.000162
C18	C	0.366057	0.050111	-0.044079
C19	C	0.293539	0.048918	-0.044100
C20	C	0.254132	0.102889	-0.000243
C21	C	0.287252	0.158066	0.043624
C22	C	0.359772	0.159262	0.043640
C23	C	0.399172	0.105276	-0.000214
C24	C	0.135171	0.172238	-0.000267
C25	C	0.062649	0.171042	-0.000270
C26	C	0.070793	0.028556	-0.000266
C27	C	0.143314	0.029754	-0.000254
C28	C	0.175498	0.101598	-0.000259
C29	C	0.823278	-0.038845	-0.000211
C30	C	0.816781	-0.125616	-0.000210
C31	C	0.876437	-0.175923	-0.000224
C32	C	0.870327	-0.257454	-0.000230
C33	C	0.804561	-0.288677	-0.000216
C34	C	0.744901	-0.238363	-0.000204
C35	C	0.751011	-0.156834	-0.000203
C36	C	0.782976	-0.534365	-0.000221
C37	C	0.776870	-0.615900	-0.000219
C38	C	0.902297	-0.634985	-0.000246
C39	C	0.908402	-0.553454	-0.000241
C40	C	0.848741	-0.503148	-0.000233
C41	C	0.798315	-0.372014	-0.000219
C42	C	0.854988	-0.419812	-0.000235
C43	C	0.953279	0.097934	-0.000252
C44	C	1.030462	0.099205	-0.000277
C45	C	0.830029	0.247021	-0.000227
C46	C	0.836526	0.333793	-0.000233
N47	N	0.826631	0.104079	0.177937
N48	N	0.826681	0.104091	-0.178373
C49	C	0.870718	0.050797	0.217315
C50	C	0.870722	0.050793	0.296117
C51	C	0.826646	0.104085	0.335538
C52	C	0.782551	0.157371	0.296150
C53	C	0.782543	0.157368	0.217350
C54	C	0.821754	0.175309	0.460373
C55	C	0.821767	0.175313	0.539172
C56	C	0.826665	0.104095	0.578584
C57	C	0.831566	0.032869	0.539188
C58	C	0.831559	0.032866	0.460387
C59	C	0.826649	0.104094	0.420983
C60	C	0.870759	0.050804	0.703408
C61	C	0.870758	0.050800	0.782212
C62	C	0.782590	0.157384	0.782243
C63	C	0.782587	0.157382	0.703441
C64	C	0.826676	0.104093	0.664028
H65	H	0.477159	0.235941	-0.000201
H66	H	0.623494	-0.020396	-0.000150
H67	H	0.386735	0.204187	0.079360
N68	N	0.918316	-0.006669	0.824685
H69	H	0.911630	0.001415	0.880586
H70	H	0.907026	-0.062103	0.810924
N71	N	0.735044	0.214859	0.824749
H72	H	0.741736	0.206776	0.880644
H73	H	0.746337	0.270292	0.810962
N74	N	0.617224	0.257100	-0.000188
H75	H	0.602795	0.288038	0.046214
H76	H	0.669276	0.247084	-0.000206
H77	H	0.691353	-0.263791	-0.000197
H78	H	0.918906	-0.298411	-0.000240
H79	H	0.835555	-0.025124	0.571275
H80	H	0.744768	-0.397444	-0.000206
H81	H	0.908534	-0.394387	-0.000264
H82	H	0.906616	0.007404	0.185228
H83	H	0.906624	0.007403	0.328185
H84	H	0.817780	0.233309	0.571243
N85	N	0.979341	-0.519794	-0.000273
H86	H	0.984675	-0.486391	-0.046685
H87	H	0.984632	-0.486436	0.046161
H88	H	0.835548	-0.025128	0.428314
N89	N	0.966642	-0.689242	-0.000254
H90	H	0.952795	-0.745629	-0.000251
H91	H	0.995104	-0.679154	-0.046669
H92	H	0.255169	0.202014	0.079337
N93	N	0.169891	0.249722	-0.000267
H94	H	0.133337	0.294292	-0.000272
H95	H	0.199780	0.253318	0.046146
H96	H	0.906656	0.007410	0.671317
H97	H	0.929990	-0.150509	-0.000231
N98	N	0.257819	-0.010593	-0.091407
H99	H	0.226113	0.017615	-0.128926
H100	H	0.293828	-0.044592	-0.119130
N101	N	0.735036	0.214851	0.660962
H102	H	0.707113	0.248611	0.697890
H103	H	0.763656	0.249333	0.628245
H104	H	0.702432	-0.115875	-0.000192
N105	N	0.734998	0.214844	0.174868
H106	H	0.702487	0.185058	0.142193
H107	H	0.707119	0.248592	0.211839
N108	N	0.816471	0.252129	0.417871
H109	H	0.857002	0.284604	0.431557
H110	H	0.817188	0.241254	0.361988
H111	H	0.746662	0.200761	0.328250
H112	H	0.029816	0.228567	-0.000279
H113	H	0.176148	-0.027768	-0.000246
N114	N	0.036083	-0.048927	-0.000265
H115	H	-0.015978	-0.038967	-0.000275
H116	H	0.050560	-0.079828	-0.046670
N117	N	0.705934	-0.649579	-0.000204
H118	H	0.669065	-0.605340	-0.000201
H119	H	0.700681	-0.682988	-0.046612
N120	N	0.408557	-0.008107	-0.091382
H121	H	0.376573	-0.043236	-0.119177
H122	H	0.437022	0.021157	-0.128838
N123	N	0.718630	-0.480113	-0.000207
H124	H	0.690159	-0.490131	-0.046607
H125	H	0.690198	-0.490162	0.046239
N126	N	0.483425	-0.041550	-0.000177
H127	H	0.431365	-0.031589	-0.000190
H128	H	0.497905	-0.072453	-0.046579
