data_functionalizedCrystal
_audit_creation_method	'MofGen! by Chris Wilmer'
_symmetry_space_group_name_H-M	'P1'
_symmetry_Int_Tables_number	1
_symmetry_cell_setting	triclinic
loop_
_symmetry_equiv_pos_as_xyz
  x,y,z
_cell_length_a	16.625548
_cell_length_b	16.625545
_cell_length_c	11.169409
_cell_angle_alpha	90.036134
_cell_angle_beta	90.023153
_cell_angle_gamma	90.026626
loop_
_atom_site_label
_atom_site_type_symbol
_atom_site_fract_x
_atom_site_fract_y
_atom_site_fract_z
Zn1	Zn	1.232684	-0.320913	0.678618
Zn2	Zn	1.566017	0.012420	1.011951
Zn3	Zn	1.899350	0.345753	1.345284
Zn4	Zn	1.232574	-0.455775	0.477921
Zn5	Zn	1.565907	-0.122442	0.811255
Zn6	Zn	1.899240	0.210891	1.144588
Zn7	Zn	1.097839	-0.320963	0.477940
Zn8	Zn	1.431173	0.012370	0.811274
Zn9	Zn	1.764506	0.345704	1.144607
Zn10	Zn	1.097809	-0.455710	0.678554
Zn11	Zn	1.431142	-0.122377	1.011888
Zn12	Zn	1.764475	0.210956	1.345221
O13	O	1.165226	-0.388340	0.578258
O14	O	1.498560	-0.055007	0.911592
O15	O	1.831893	0.278326	1.244925
O16	O	1.345502	-0.338810	0.652013
O17	O	1.678835	-0.005476	0.985347
O18	O	2.012168	0.327857	1.318680
O19	O	1.214668	-0.437940	0.309974
O20	O	1.548001	-0.104607	0.643307
O21	O	1.881334	0.228726	0.976641
O22	O	1.115786	-0.208124	0.504595
O23	O	1.449119	0.125209	0.837928
O24	O	1.782452	0.458543	1.171262
O25	O	1.345421	-0.437892	0.504562
O26	O	1.678754	-0.104559	0.837896
O27	O	2.012087	0.228775	1.171229
O28	O	1.214855	-0.208087	0.652032
O29	O	1.548189	0.125246	0.985365
O30	O	1.881522	0.458579	1.318698
O31	O	1.115679	-0.338894	0.309988
O32	O	1.449012	-0.005561	0.643321
O33	O	1.782346	0.327773	0.976655
O34	O	0.985003	-0.338831	0.504534
O35	O	1.318336	-0.005498	0.837867
O36	O	1.651670	0.327836	1.171200
O37	O	1.115733	-0.437781	0.846513
O38	O	1.449067	-0.104448	1.179846
O39	O	1.782400	0.228886	1.513179
O40	O	0.984980	-0.437829	0.651924
O41	O	1.318314	-0.104496	0.985257
O42	O	1.651647	0.228838	1.318591
O43	O	1.214826	-0.338746	0.846559
O44	O	1.548159	-0.005413	1.179892
O45	O	1.881492	0.327920	1.513226
O46	O	1.214638	-0.568599	0.504501
O47	O	1.547971	-0.235266	0.837835
O48	O	1.881304	0.098068	1.171168
O49	O	1.115627	-0.568551	0.651906
O50	O	1.448960	-0.235218	0.985239
O51	O	1.782293	0.098115	1.318572
C52	C	0.955736	-0.388329	0.578225
C53	C	1.289069	-0.054996	0.911558
C54	C	1.622402	0.278338	1.244892
C55	C	0.866114	-0.388343	0.578239
C56	C	1.199448	-0.055010	0.911572
C57	C	1.532781	0.278323	1.244906
C58	C	0.537939	-0.388349	0.578290
C59	C	0.871272	-0.055015	0.911624
C60	C	1.204605	0.278318	1.244957
C61	C	0.629247	-0.388345	0.578272
C62	C	0.962581	-0.055012	0.911605
C63	C	1.295914	0.278322	1.244939
C64	C	0.702024	-0.388346	0.578264
C65	C	1.035357	-0.055013	0.911597
C66	C	1.368690	0.278320	1.244930
C67	C	0.793338	-0.388342	0.578247
C68	C	1.126671	-0.055009	0.911581
C69	C	1.460005	0.278325	1.244914
C70	C	1.165139	-0.597831	0.578221
C71	C	1.498472	-0.264498	0.911554
C72	C	1.831805	0.068835	1.244887
C73	C	1.165175	-0.687452	0.578245
C74	C	1.498508	-0.354119	0.911578
C75	C	1.831842	-0.020786	1.244911
C76	C	1.165206	-0.760235	0.578268
C77	C	1.498540	-0.426902	0.911602
C78	C	1.831873	-0.093568	1.244935
C79	C	1.165253	-0.851543	0.578295
C80	C	1.498587	-0.518210	0.911628
C81	C	1.831920	-0.184877	1.244962
C82	C	1.165295	-0.924320	0.578310
C83	C	1.498629	-0.590986	0.911644
C84	C	1.831962	-0.257653	1.244977
C85	C	1.165341	-1.015634	0.578335
C86	C	1.498675	-0.682301	0.911668
C87	C	1.832008	-0.348967	1.245001
C88	C	1.375535	-0.388353	0.578293
C89	C	1.708869	-0.055019	0.911626
C90	C	2.042202	0.278314	1.244959
C91	C	1.465156	-0.388358	0.578307
C92	C	1.798490	-0.055024	0.911641
C93	C	2.131823	0.278309	1.244974
C94	C	1.165288	-0.388251	0.891301
C95	C	1.498622	-0.054918	1.224634
C96	C	1.831955	0.278416	1.557968
C97	C	1.165315	-0.388213	1.024701
C98	C	1.498648	-0.054879	1.358034
C99	C	1.831981	0.278454	1.691368
C100	C	1.165336	-0.178032	0.578323
C101	C	1.498670	0.155302	0.911656
C102	C	1.832003	0.488635	1.244989
C103	C	1.165383	-0.088410	0.578350
C104	C	1.498716	0.244923	0.911683
C105	C	1.832050	0.578256	1.245017
C106	C	1.165211	-0.388371	0.266434
C107	C	1.498544	-0.055038	0.599767
C108	C	1.831878	0.278295	0.933100
C109	C	1.165341	-0.388182	0.133034
C110	C	1.498674	-0.054849	0.466368
C111	C	1.832008	0.278484	0.799701
