data_functionalizedCrystal
_audit_creation_method	'MofGen! by Chris Wilmer'
_symmetry_space_group_name_H-M	'P1'
_symmetry_Int_Tables_number	1
_symmetry_cell_setting	triclinic
loop_
_symmetry_equiv_pos_as_xyz
  x,y,z
_cell_length_a	26.455835
_cell_length_b	26.455273
_cell_length_c	26.451828
_cell_angle_alpha	60.005170
_cell_angle_beta	60.010757
_cell_angle_gamma	59.993435
loop_
_atom_site_label
_atom_site_type_symbol
_atom_site_fract_x
_atom_site_fract_y
_atom_site_fract_z
O1	O	0.069940	-0.738516	0.617604
O2	O	0.026299	-0.574986	0.497618
O3	O	0.129847	-0.678463	0.497546
O4	O	-0.033607	-0.635040	0.617676
O5	O	0.164197	-0.644116	0.531822
O6	O	0.060649	-0.540639	0.531894
O7	O	0.104290	-0.704170	0.651880
Cu8	Cu	0.085606	-0.619268	0.595016
Cu9	Cu	0.044984	-0.659887	0.554481
O10	O	0.000742	-0.600693	0.651952
N11	N	0.114179	-0.590703	0.623530
N12	N	0.016416	-0.688458	0.525968
C13	C	0.157553	-0.547535	0.933368
C14	C	0.424104	-0.547506	0.666656
C15	C	0.157413	-0.547503	0.666729
C16	C	0.157397	-0.280846	0.666749
C17	C	0.200330	-0.409550	0.709625
C18	C	0.200339	-0.504608	0.709615
C19	C	0.224118	-0.480848	0.733375
C20	C	0.327800	-0.462984	0.678792
C21	C	0.392611	-0.484588	0.657175
C22	C	0.392630	-0.589450	0.697162
C23	C	0.327821	-0.567844	0.718781
C24	C	0.215955	-0.377135	0.645910
C25	C	0.194327	-0.312320	0.624323
C26	C	0.141457	-0.312339	0.730169
C27	C	0.163084	-0.377154	0.751756
C28	C	0.136618	-0.488954	0.725292
C29	C	0.115007	-0.510553	0.703686
C30	C	0.220833	-0.563461	0.650740
C31	C	0.242447	-0.541861	0.672339
C32	C	0.136680	-0.488971	0.837094
C33	C	0.115112	-0.510589	0.901907
C34	C	0.220969	-0.563508	0.901868
C35	C	0.242535	-0.541892	0.837053
C36	C	0.200389	-0.504622	0.804668
C37	C	0.295409	-0.504610	0.709593
C38	C	0.132990	-0.570876	1.004655
C39	C	0.495389	-0.570440	0.642547
C40	C	0.132802	-0.570856	0.643399
C41	C	0.133212	-0.209553	0.643833
C42	C	-0.097217	-0.706972	0.506986
C43	C	-0.002040	-0.707108	0.412067
C44	C	-0.002230	-0.802124	0.507163
C45	C	-0.002214	-0.707101	0.507221
C46	C	-0.025925	-0.730827	0.483360
N47	N	0.553723	-0.590712	0.623415
O48	O	0.751638	-0.596429	0.475603
O49	O	0.751819	-0.716773	0.638980
O50	O	0.751753	-0.716500	0.535361
O51	O	0.751705	-0.596703	0.579222
O52	O	0.648791	-0.682239	0.569747
O53	O	0.648858	-0.682512	0.673366
O54	O	0.648676	-0.562169	0.509989
Cu55	Cu	0.639366	-0.619212	0.594817
Cu56	Cu	0.761130	-0.659729	0.554152
O57	O	0.648743	-0.562442	0.613609
N58	N	0.846773	-0.688230	0.525548
N59	N	0.114157	-0.151217	0.623565
O60	O	-0.033591	0.046803	0.617717
O61	O	0.129795	0.046806	0.497390
O62	O	0.026157	0.046789	0.497680
O63	O	0.070046	0.046819	0.617427
O64	O	0.060509	-0.056181	0.532004
O65	O	0.164146	-0.056164	0.531714
O66	O	0.000760	-0.056167	0.652041
Cu67	Cu	0.085590	-0.065568	0.595012
Cu68	Cu	0.044965	0.056206	0.554419
O69	O	0.104397	-0.056151	0.651751
N70	N	0.016390	0.141855	0.525867
N71	N	0.114410	-0.590756	1.062992
O72	O	0.108565	-0.738494	1.260998
O73	O	-0.011747	-0.575059	1.261012
O74	O	-0.011470	-0.678679	1.260970
O75	O	0.108287	-0.634874	1.261040
O76	O	0.022849	-0.644347	1.158004
O77	O	0.022572	-0.540726	1.158046
O78	O	0.142884	-0.704162	1.158033
Cu79	Cu	0.085861	-0.619309	1.148638
Cu80	Cu	0.045275	-0.659911	1.270406
O81	O	0.142606	-0.600541	1.158074
N82	N	0.016726	-0.688471	1.356052
C83	C	0.039385	-0.537207	0.498225
C84	C	0.167616	-0.665350	0.498136
C85	C	0.091204	-0.741950	0.651272
C86	C	-0.037027	-0.613806	0.651361
C87	C	0.700360	-0.716215	0.676756
C88	C	0.700279	-0.715877	0.548436
C89	C	0.700133	-0.562725	0.472214
C90	C	0.700218	-0.563065	0.600533
C91	C	0.167511	-0.004552	0.497940
C92	C	0.039211	-0.004699	0.498341
C93	C	-0.036999	-0.004682	0.651449
C94	C	0.091344	-0.004663	0.651090
C95	C	-0.011156	-0.537302	1.209530
C96	C	-0.010806	-0.665617	1.209458
C97	C	0.142293	-0.741918	1.209514
C98	C	0.141950	-0.613596	1.209563
H99	H	0.063231	-0.497836	0.928300
H100	H	-0.083922	-0.004684	0.689225
H101	H	-0.048928	-0.490363	1.209534
O102	O	0.187282	-0.797957	1.209535
C103	C	0.165005	-0.836471	1.209491
H104	H	0.112272	-0.819696	1.228976
H105	H	0.183989	-0.886071	1.239377
H106	H	0.180742	-0.834789	1.160085
H107	H	0.214562	-0.674609	0.460411
H108	H	0.100526	-0.788925	0.688956
H109	H	0.214338	-0.004265	0.460069
O110	O	0.186914	-0.602466	1.209496
C111	C	0.239108	-0.609334	1.156163
H112	H	0.238621	-0.640384	1.138371
H113	H	0.283049	-0.631186	1.168163
H114	H	0.237859	-0.561988	1.118829
H115	H	0.029814	-0.004702	0.460721
O116	O	0.102662	-0.004692	0.695917
C117	C	0.163514	-0.004676	0.673358
H118	H	0.192791	-0.024164	0.633612
H119	H	0.184363	-0.034575	0.712127
H120	H	0.162597	0.044724	0.656093
H121	H	0.301449	-0.601745	0.743862
O122	O	-0.055595	-0.676865	1.209353
C123	C	-0.033046	-0.737725	1.209337
H124	H	0.019688	-0.754036	1.189887
H125	H	-0.051861	-0.738593	1.179390
H126	H	-0.048731	-0.769757	1.258719
H127	H	0.102355	-0.458618	0.810728
H128	H	0.246280	-0.403511	0.611604
H129	H	0.255291	-0.593843	0.928229
O130	O	-0.093058	-0.602656	0.696310
C131	C	-0.131531	-0.541826	0.673919
H132	H	-0.101715	-0.512429	0.634160
H133	H	-0.161191	-0.521093	0.712769
H134	H	-0.162796	-0.542765	0.656723
O135	O	0.209581	-0.280924	0.562406
C136	C	0.247079	-0.323417	0.529851
H137	H	0.270664	-0.369622	0.560749
H138	H	0.283728	-0.304681	0.486592
H139	H	0.217169	-0.330307	0.515885
O140	O	0.700270	-0.760698	0.537149
C141	C	0.700233	-0.738150	0.476295
H142	H	0.680699	-0.685414	0.460023
H143	H	0.670350	-0.757020	0.475412
H144	H	0.749619	-0.753782	0.444241
O145	O	0.105266	-0.280961	0.771176
C146	C	0.096137	-0.323470	0.832044
H147	H	0.103382	-0.369672	0.831928
H148	H	0.046993	-0.304751	0.862832
H149	H	0.130652	-0.330360	0.850592
H150	H	0.030065	-0.490230	0.460543
O151	O	0.700445	-0.761231	0.732758
C152	C	0.700437	-0.738933	0.771295
H153	H	0.719889	-0.699171	0.741530
H154	H	0.730369	-0.777833	0.800933
H155	H	0.651049	-0.721767	0.802582
O156	O	0.304447	-0.557133	0.805652
C157	C	0.337017	-0.594673	0.848137
H158	H	0.306125	-0.586406	0.894344
H159	H	0.380265	-0.582526	0.829400
H160	H	0.350998	-0.645440	0.855021
H161	H	0.102328	-0.458621	0.755642
H162	H	0.063121	-0.497793	0.716436
O163	O	0.699981	-0.517667	0.416244
C164	C	0.646629	-0.503307	0.405175
H165	H	0.628898	-0.544251	0.434057
H166	H	0.658578	-0.493186	0.353980
H167	H	0.609270	-0.460874	0.418534
O168	O	0.261770	-0.599554	0.614443
C169	C	0.299222	-0.566815	0.560098
H170	H	0.274173	-0.514963	0.551105
H171	H	0.309017	-0.578400	0.519263
H172	H	0.344759	-0.580609	0.565982
O173	O	0.304337	-0.556951	0.657046
C174	C	0.319962	-0.502483	0.624444
H175	H	0.283404	-0.463550	0.602526
H176	H	0.367002	-0.511008	0.586666
H177	H	0.322116	-0.488845	0.657778
H178	H	0.418982	-0.450689	0.632093
O179	O	0.424025	-0.650899	0.706153
C180	C	0.381537	-0.683007	0.737960
H181	H	0.335344	-0.654735	0.764528
H182	H	0.400286	-0.729748	0.771785
H183	H	0.374625	-0.690502	0.703287
O184	O	0.700230	-0.518108	0.611614
C185	C	0.700148	-0.464665	0.558469
H186	H	0.719617	-0.478174	0.515898
H187	H	0.730028	-0.441589	0.553036
H188	H	0.650735	-0.431015	0.563500
H189	H	0.301415	-0.411495	0.671309
H190	H	0.150353	-0.403547	0.803641
