data_functionalizedCrystal
_audit_creation_method	'MofGen! by Chris Wilmer'
_symmetry_space_group_name_H-M	'P1'
_symmetry_Int_Tables_number	1
_symmetry_cell_setting	triclinic
loop_
_symmetry_equiv_pos_as_xyz
  x,y,z
_cell_length_a	12.784890
_cell_length_b	23.532407
_cell_length_c	11.295483
_cell_angle_alpha	85.936773
_cell_angle_beta	86.328828
_cell_angle_gamma	102.022386
loop_
_atom_site_label
_atom_site_type_symbol
_atom_site_fract_x
_atom_site_fract_y
_atom_site_fract_z
O1	O	1.417482	0.000626	-0.098988
O2	O	1.107770	-0.023777	-0.099004
O3	O	1.271963	0.071789	-0.098970
O4	O	1.253288	-0.094940	-0.099022
O5	O	1.257542	0.063407	0.099078
O6	O	1.093348	-0.032159	0.099044
O7	O	1.403060	-0.007756	0.099060
Cu8	Cu	1.246888	-0.020723	0.117135
Cu9	Cu	1.263942	-0.010810	-0.117079
O10	O	1.238867	-0.103322	0.099026
C11	C	1.060943	-0.029555	0.000018
C12	C	0.942899	-0.034277	0.000014
C13	C	0.763299	-0.093462	-0.000007
C14	C	0.874211	-0.089029	-0.000005
C15	C	0.900669	0.016045	0.000028
C16	C	0.789757	0.011611	0.000026
C17	C	0.721076	-0.043144	0.000011
C18	C	0.610162	-0.047577	0.000018
C19	C	0.636622	0.057496	0.000042
C20	C	0.747534	0.061929	0.000044
C21	C	1.264277	0.088792	0.000058
C22	C	1.262846	0.151942	0.000071
C23	C	1.351047	0.555148	0.000029
C24	C	1.349719	0.614486	0.000023
O25	O	1.431482	0.655034	-0.000015
N26	N	1.252104	0.632574	0.000020
C27	C	1.155813	0.591320	0.000011
O28	O	1.072662	0.612154	0.000007
C29	C	1.157143	0.531983	0.000009
C30	C	1.254762	0.513898	0.000024
C31	C	1.448659	0.537062	0.000043
C32	C	1.449986	0.477727	0.000051
C33	C	1.353702	0.436478	0.000046
C34	C	1.256090	0.454563	0.000032
C35	C	1.060853	0.490730	-0.000008
C36	C	1.062191	0.431390	-0.000011
C37	C	1.159811	0.413305	0.000004
C38	C	1.161133	0.353979	0.000036
N39	N	1.258747	0.335892	0.000039
C40	C	1.355031	0.377141	0.000044
C41	C	1.153028	0.715933	0.000014
C42	C	1.151696	0.775268	0.000025
C43	C	1.345603	0.798431	0.000035
C44	C	1.346933	0.739094	0.000032
C45	C	1.250642	0.697845	0.000017
C46	C	1.357812	0.252533	0.000062
C47	C	1.359130	0.193191	0.000076
C48	C	1.165225	0.170034	0.000060
C49	C	1.163905	0.229370	0.000053
C50	C	1.260208	0.270619	0.000050
O51	O	1.079413	0.313399	0.000069
O52	O	1.438169	0.356299	0.000032
C53	C	1.449887	-0.001978	0.000035
C54	C	1.567932	0.002745	0.000032
C55	C	1.246553	0.879675	0.000007
C56	C	1.247982	0.816523	0.000024
N57	N	1.234900	-0.027694	0.281869
N58	N	1.275939	-0.003834	-0.281813
C59	C	1.362234	0.046381	0.531185
C60	C	1.353182	0.041109	0.655847
C61	C	1.207740	-0.043507	0.655857
C62	C	1.216792	-0.038235	0.531195
C63	C	1.294042	0.006710	0.468863
C64	C	1.303098	0.011979	0.344199
C65	C	1.157652	-0.072634	0.344211
C66	C	1.148601	-0.077906	0.468873
H67	H	0.602240	0.098473	-0.000038
H68	H	1.102129	-0.104938	0.293455
C69	C	0.821935	0.121430	-0.000002
C70	C	0.761216	0.164549	-0.000014
C71	C	0.829716	0.219370	-0.000071
H72	H	0.860754	0.122505	0.069042
H73	H	0.870763	0.128299	-0.069095
H74	H	0.712407	0.157683	0.069072
H75	H	0.722399	0.163494	-0.069052
H76	H	0.878544	0.226238	-0.069164
H77	H	0.868531	0.220438	0.068974
H78	H	0.788529	0.248633	-0.000090
C79	C	0.688611	-0.152862	-0.000202
C80	C	0.631560	-0.154162	-0.102078
C81	C	0.562738	-0.208869	-0.102289
H82	H	0.729512	-0.182247	-0.000267
H83	H	0.639708	-0.159700	0.068826
H84	H	0.680456	-0.147331	-0.171088
H85	H	0.590638	-0.124789	-0.102034
H86	H	0.513834	-0.215707	-0.033261
H87	H	0.603647	-0.238250	-0.102352
H88	H	0.524013	-0.209757	-0.171405
H89	H	1.366002	0.048574	0.293450
H90	H	1.144838	-0.080097	0.706623
C91	C	1.465237	0.173677	0.000025
C92	C	1.549274	0.222508	-0.000008
C93	C	1.647032	0.204557	-0.000073
H94	H	1.464916	0.148112	0.069073
H95	H	1.474876	0.153948	-0.069064
H96	H	1.539638	0.242228	0.069074
H97	H	1.549630	0.248078	-0.069050
H98	H	1.656670	0.184828	-0.069162
H99	H	1.646699	0.178991	0.068975
H100	H	1.704063	0.237686	-0.000107
H101	H	0.908584	-0.130003	-0.000017
H102	H	1.527070	0.570643	0.000043
C103	C	1.064792	-0.126783	0.536397
C104	C	1.083635	-0.180643	0.506033
C105	C	1.006443	-0.225683	0.568196
H106	H	1.069082	-0.124327	0.619586
H107	H	0.995350	-0.123260	0.515951
H108	H	1.153059	-0.184165	0.526487
H109	H	1.079335	-0.183118	0.422855
H110	H	0.937001	-0.222160	0.547750
H111	H	1.010739	-0.223221	0.651382
H112	H	1.019211	-0.262232	0.547595
C113	C	1.462352	0.297347	-0.000178
C114	C	1.474706	0.336386	-0.102086
C115	C	1.570999	0.377672	-0.102348
H116	H	1.460947	0.318122	0.068803
H117	H	1.520704	0.278095	-0.000232
H118	H	1.416369	0.355637	-0.102022
H119	H	1.476130	0.315629	-0.171084
H120	H	1.629352	0.358419	-0.102401
H121	H	1.569586	0.398442	-0.033362
H122	H	1.579399	0.404161	-0.171496
H123	H	1.074611	0.682349	0.000012
H124	H	1.425141	0.082973	0.480434
C125	C	1.045602	0.794785	-0.000038
C126	C	0.961574	0.745955	-0.000070
C127	C	0.863824	0.763909	-0.000151
H128	H	1.035867	0.814519	0.069003
H129	H	1.046022	0.820348	-0.069133
H130	H	0.961153	0.720402	0.069019
H131	H	0.971273	0.726215	-0.069106
H132	H	0.864244	0.789472	-0.069247
H133	H	0.854100	0.783644	0.068891
H134	H	0.806801	0.730782	-0.000184
C135	C	1.556090	0.458217	-0.000005
C136	C	1.640118	0.507052	-0.000035
C137	C	1.737883	0.489107	-0.000106
H138	H	1.555775	0.432651	0.069039
H139	H	1.565732	0.438491	-0.069097
H140	H	1.630479	0.526769	0.069050
H141	H	1.640468	0.532623	-0.069074
H142	H	1.747525	0.469381	-0.069198
H143	H	1.737556	0.463541	0.068939
H144	H	1.794908	0.522239	-0.000138
C145	C	0.957760	0.386519	-0.000083
C146	C	0.979807	0.330682	-0.000105
C147	C	0.883635	0.289335	-0.000184
H148	H	0.912599	0.388492	0.068955
H149	H	0.922735	0.394371	-0.069181
H150	H	1.014816	0.322832	0.068985
H151	H	1.024952	0.328689	-0.069139
H152	H	0.848610	0.297186	-0.069282
H153	H	0.838481	0.291313	0.068855
H154	H	0.898582	0.251445	-0.000210
H155	H	1.426423	0.724374	0.000043
H156	H	1.408709	0.073414	0.706586
H157	H	1.084413	0.244093	0.000074
H158	H	1.424003	0.832028	0.000034
C159	C	0.954879	0.510380	0.000206
C160	C	0.940989	0.539451	0.102104
C161	C	0.843368	0.557553	0.102344
H162	H	0.955254	0.535992	-0.068783
H163	H	0.897698	0.477321	0.000258
H164	H	0.998156	0.572506	0.102041
H165	H	0.940594	0.513851	0.171109
H166	H	0.786187	0.524494	0.102396
H167	H	0.843752	0.583163	0.033351
H168	H	0.833926	0.577276	0.171485
H169	H	0.956609	0.060624	0.000031
H170	H	0.554241	-0.092162	0.000012
H171	H	1.086832	0.136439	0.000060
