data_functionalizedCrystal
_audit_creation_method	'MofGen! by Chris Wilmer'
_symmetry_space_group_name_H-M	'P1'
_symmetry_Int_Tables_number	1
_symmetry_cell_setting	triclinic
loop_
_symmetry_equiv_pos_as_xyz
  x,y,z
_cell_length_a	12.759401
_cell_length_b	21.395361
_cell_length_c	21.395355
_cell_angle_alpha	90.021511
_cell_angle_beta	89.977260
_cell_angle_gamma	89.967767
loop_
_atom_site_label
_atom_site_type_symbol
_atom_site_fract_x
_atom_site_fract_y
_atom_site_fract_z
Zn1	Zn	1.606168	0.249486	-0.354218
Zn2	Zn	2.106168	0.749486	0.145782
Zn3	Zn	1.606005	0.354245	-0.249435
Zn4	Zn	2.106005	0.854245	0.250565
Zn5	Zn	1.430461	0.249489	-0.249458
Zn6	Zn	1.930461	0.749489	0.250542
Zn7	Zn	1.430410	0.354232	-0.354179
Zn8	Zn	1.930410	0.854232	0.145821
O9	O	1.518261	0.301863	-0.301822
O10	O	2.018261	0.801863	0.198178
O11	O	1.753167	0.263387	-0.340325
O12	O	2.253167	0.763387	0.159675
O13	O	1.582672	0.340356	-0.161760
O14	O	2.082672	0.840356	0.338240
O15	O	1.453859	0.161810	-0.263381
O16	O	1.953859	0.661810	0.236619
O17	O	1.753047	0.340353	-0.263342
O18	O	2.253047	0.840353	0.236658
O19	O	1.582950	0.161808	-0.340348
O20	O	2.082950	0.661808	0.159652
O21	O	1.453701	0.263392	-0.161777
O22	O	1.953701	0.763392	0.338223
O23	O	1.283433	0.263379	-0.263343
O24	O	1.783433	0.763379	0.236657
O25	O	1.453771	0.340330	-0.441862
O26	O	1.953771	0.840330	0.058138
O27	O	1.283395	0.340333	-0.340280
O28	O	1.783395	0.840333	0.159720
O29	O	1.582900	0.263374	-0.441891
O30	O	2.082900	0.763374	0.058109
O31	O	1.582621	0.441922	-0.263303
O32	O	2.082621	0.941922	0.236697
O33	O	1.453613	0.441912	-0.340258
O34	O	1.953613	0.941912	0.159742
C35	C	1.245294	0.301855	-0.301810
C36	C	1.745294	0.801855	0.198190
C37	C	1.128517	0.301867	-0.301820
C38	C	1.628517	0.801867	0.198180
C39	C	1.518122	0.464651	-0.301788
C40	C	2.018122	0.964651	0.198212
C41	C	1.518159	0.534292	-0.301794
C42	C	2.018159	1.034292	0.198206
C43	C	1.518348	0.301850	-0.465246
C44	C	2.018348	0.801850	0.034754
C45	C	1.518385	0.301845	-0.534887
C46	C	2.018385	0.801845	-0.034887
C47	C	1.073663	0.341998	-0.341818
C48	C	1.573663	0.841998	0.158182
C49	C	0.963939	0.342001	-0.341830
C50	C	1.463939	0.842001	0.158170
C51	C	0.963933	0.261739	-0.261841
C52	C	1.463933	0.761739	0.238159
C53	C	1.073655	0.261734	-0.261832
C54	C	1.573655	0.761734	0.238168
C55	C	0.814036	0.364504	-0.415693
C56	C	1.314036	0.864504	0.084307
C57	C	0.759178	0.404645	-0.455686
C58	C	1.259178	0.904645	0.044314
C59	C	0.794748	0.465794	-0.465189
C60	C	1.294748	0.965794	0.034811
C61	C	0.885173	0.486813	-0.434689
C62	C	1.385173	0.986813	0.065311
C63	C	0.940026	0.446676	-0.394692
C64	C	1.440026	0.946676	0.105308
C65	C	0.904458	0.385519	-0.385201
C66	C	1.404458	0.885519	0.114799
C67	C	1.223559	0.239237	-0.187968
C68	C	1.723559	0.739237	0.312032
C69	C	1.278414	0.199102	-0.147967
C70	C	1.778414	0.699102	0.352033
C71	C	1.242846	0.137952	-0.138458
C72	C	1.742846	0.637952	0.361542
C73	C	1.152417	0.116935	-0.168947
C74	C	1.652417	0.616935	0.331053
C75	C	1.097563	0.157070	-0.208948
C76	C	1.597563	0.657070	0.291052
C77	C	1.133138	0.218219	-0.218458
C78	C	1.633138	0.718219	0.281542
C79	C	1.792294	0.301871	-0.301835
C80	C	2.292294	0.801871	0.198165
C81	C	1.909071	0.301875	-0.301841
C82	C	2.409071	0.801875	0.198159
C83	C	1.518429	0.138440	-0.301871
C84	C	2.018429	0.638440	0.198129
C85	C	1.518500	0.068798	-0.301892
C86	C	2.018500	0.568798	0.198108
C87	C	1.585393	0.566989	-0.261764
C88	C	2.085393	1.066989	0.238236
C89	C	1.585442	0.632425	-0.261778
C90	C	2.085442	1.132425	0.238222
C91	C	1.518238	0.665160	-0.301815
C92	C	2.018238	1.165160	0.198185
C93	C	1.450999	0.632455	-0.341852
C94	C	1.950999	1.132455	0.158148
C95	C	1.450959	0.567021	-0.341841
C96	C	1.950959	1.067021	0.158159
C97	C	1.423640	0.768877	-0.306727
C98	C	1.923640	1.268877	0.193273
C99	C	1.423678	0.834310	-0.306733
C100	C	1.923678	1.334310	0.193267
C101	C	1.518360	0.866981	-0.301852
C102	C	2.018360	1.366981	0.198148
C103	C	1.613008	0.834211	-0.296951
C104	C	2.113008	1.334211	0.203049
C105	C	1.612969	0.768777	-0.296940
C106	C	2.112969	1.268777	0.203060
C107	C	1.518274	0.736112	-0.301832
C108	C	2.018274	1.236112	0.198168
C109	C	1.585653	0.970631	-0.261836
C110	C	2.085653	1.470631	0.238164
C111	C	1.585704	1.036067	-0.261854
C112	C	2.085704	1.536067	0.238146
C113	C	1.451251	1.036096	-0.341925
C114	C	1.951251	1.536096	0.158075
C115	C	1.451210	0.970661	-0.341909
C116	C	1.951210	1.470661	0.158091
C117	C	1.518410	0.937932	-0.301862
C118	C	2.018410	1.437932	0.198138
C119	C	1.585620	0.261772	-0.567616
C120	C	2.085620	0.761772	-0.067616
C121	C	1.585618	0.261745	-0.633052
C122	C	2.085618	0.761745	-0.133052
C123	C	1.518393	0.301802	-0.665756
C124	C	2.018393	0.801802	-0.165756
C125	C	1.451146	0.341878	-0.633018
C126	C	1.951146	0.841878	-0.133018
C127	C	1.451142	0.341899	-0.567584
C128	C	1.951142	0.841899	-0.067584
C129	C	1.510050	0.358218	-0.769418
C130	C	2.010050	0.858218	-0.269418
C131	C	1.510061	0.358197	-0.834851
C132	C	2.010061	0.858197	-0.334851
C133	C	1.518400	0.301736	-0.867576
C134	C	2.018400	0.801736	-0.367576
C135	C	1.526749	0.245293	-0.834860
C136	C	2.026749	0.745293	-0.334860
C137	C	1.526745	0.245314	-0.769426
C138	C	2.026745	0.745314	-0.269426
C139	C	1.518390	0.301783	-0.736708
C140	C	2.018390	0.801783	-0.236708
C141	C	1.585637	0.261630	-0.971258
C142	C	2.085637	0.761630	-0.471258
C143	C	1.585628	0.261602	-1.036695
C144	C	2.085628	0.761602	-0.536695
C145	C	1.451161	0.341741	-1.036660
C146	C	1.951161	0.841741	-0.536660
C147	C	1.451164	0.341763	-0.971225
C148	C	1.951164	0.841763	-0.471225
C149	C	1.518408	0.301709	-0.938528
C150	C	2.018408	0.801709	-0.438528
C151	C	1.518234	0.301830	-0.139035
C152	C	2.018234	0.801830	0.360965
C153	C	1.518401	0.301659	-0.069394
C154	C	2.018401	0.801659	0.430606
H155	H	1.118328	0.374676	-0.374380
H156	H	1.618328	0.874676	0.125620
H157	H	1.252534	0.289028	-0.195713
H158	H	1.752534	0.789028	0.304287
H159	H	1.396208	0.540398	-0.374439
H160	H	1.896208	1.040398	0.125561
H161	H	0.914120	0.536609	-0.442424
H162	H	1.414120	1.036609	0.057576
O163	O	1.378670	0.935398	-0.385079
O164	O	1.878670	1.435398	0.114921
H165	H	1.425640	0.905546	-0.416984
H166	H	1.925640	1.405546	0.083016
H167	H	0.750075	0.498476	-0.497752
H168	H	1.250075	0.998476	0.002248
H169	H	1.640384	0.229012	-0.944635
H170	H	2.140384	0.729012	-0.444635
H171	H	1.396414	0.374350	-1.063287
H172	H	1.896414	0.874350	-0.563287
H173	H	1.640375	0.943982	-0.229228
H174	H	2.140375	1.443982	0.270772
H175	H	1.396421	0.374399	-0.944576
H176	H	1.896421	0.874399	-0.444576
H177	H	1.640114	0.540343	-0.229157
H178	H	2.140114	1.040343	0.270843
H179	H	1.013648	0.463790	-0.369859
H180	H	1.513648	0.963790	0.130141
O181	O	1.501045	0.419070	-0.870137
O182	O	2.001045	0.919070	-0.370137
H183	H	1.495220	0.458333	-0.836390
H184	H	1.995220	0.958333	-0.336390
O185	O	1.657952	0.667704	-0.218598
O186	O	2.157952	1.167704	0.281402
H187	H	1.704667	0.633952	-0.190745
H188	H	2.204667	1.133952	0.309255
O189	O	0.661657	0.381976	-0.488589
O190	O	1.161657	0.881976	0.011411
H191	H	0.646148	0.332706	-0.475274
H192	H	1.146148	0.832706	0.024726
O193	O	1.658136	0.218510	-0.668351
O194	O	2.158136	0.718510	-0.168351
H195	H	1.611140	0.186616	-0.698145
H196	H	2.111140	0.686616	-0.198145
H197	H	1.690033	0.742097	-0.292952
H198	H	2.190033	1.242097	0.207048
H199	H	1.640377	0.228966	-1.063342
H200	H	2.140377	0.728966	-0.563342
O201	O	0.775653	0.298555	-0.405426
O202	O	1.275653	0.798555	0.094574
H203	H	0.703544	0.290692	-0.433338
H204	H	1.203544	0.790692	0.066662
O205	O	1.658139	0.218570	-0.532349
O206	O	2.158139	0.718570	-0.032349
H207	H	1.704887	0.190697	-0.566105
H208	H	2.204887	0.690697	-0.066105
H209	H	1.690108	0.860810	-0.292976
H210	H	2.190108	1.360810	0.207024
H211	H	1.123445	0.067146	-0.161194
H212	H	1.623445	0.567146	0.338806
H213	H	1.640461	1.062689	-0.229259
H214	H	2.140461	1.562689	0.270741
O215	O	1.000024	0.134412	-0.241838
O216	O	1.500024	0.634412	0.258162
H217	H	1.019923	0.093737	-0.271801
H218	H	1.519923	0.593737	0.228199
O219	O	1.501042	0.419118	-0.734123
O220	O	2.001042	0.919118	-0.234123
H221	H	1.495249	0.458361	-0.767863
H222	H	1.995249	0.958361	-0.267863
O223	O	1.378634	0.385083	-0.668286
O224	O	1.878634	0.885083	-0.168286
H225	H	1.389937	0.378340	-0.719286
H226	H	1.889937	0.878340	-0.219286
O227	O	0.904762	0.218474	-0.218691
O228	O	1.404762	0.718474	0.281309
H229	H	0.819249	0.225229	-0.225406
H230	H	1.319249	0.725229	0.274594
O231	O	1.378620	0.385126	-0.532282
O232	O	1.878620	0.885126	-0.032282
H233	H	1.389909	0.378409	-0.481288
H234	H	1.889909	0.878409	0.018712
O235	O	1.302008	0.094660	-0.095314
O236	O	1.802008	0.594660	0.404686
H237	H	1.370865	0.119545	-0.075708
H238	H	1.870865	0.619545	0.424292
O239	O	1.378758	1.071393	-0.385106
O240	O	1.878758	1.571393	0.114894
H241	H	1.390074	1.122387	-0.378387
H242	H	1.890074	1.622387	0.121613
H243	H	1.346609	0.860986	-0.310718
H244	H	1.846609	1.360986	0.189282
H245	H	1.396282	0.659112	-0.374451
H246	H	1.896282	1.159112	0.125549
O247	O	1.321507	0.733645	-0.311988
O248	O	1.821507	1.233645	0.188012
H249	H	1.323108	0.703812	-0.354431
H250	H	1.823108	1.203812	0.145569
H251	H	1.352046	0.216220	-0.123141
H252	H	1.852046	0.716220	0.376859
O253	O	1.535749	0.184442	-0.734138
O254	O	2.035749	0.684442	-0.234138
H255	H	1.468974	0.153673	-0.746678
H256	H	1.968974	0.653673	-0.246678
O257	O	1.535716	0.184387	-0.870145
O258	O	2.035716	0.684387	-0.370145
H259	H	1.534294	0.193850	-0.921141
H260	H	2.034294	0.693850	-0.421141
