data_functionalizedCrystal
_audit_creation_method	'MofGen! by Chris Wilmer'
_symmetry_space_group_name_H-M	'P1'
_symmetry_Int_Tables_number	1
_symmetry_cell_setting	triclinic
loop_
_symmetry_equiv_pos_as_xyz
  x,y,z
_cell_length_a	10.686220
_cell_length_b	13.897448
_cell_length_c	10.685986
_cell_angle_alpha	85.588833
_cell_angle_beta	99.031303
_cell_angle_gamma	94.399460
loop_
_atom_site_label
_atom_site_type_symbol
_atom_site_fract_x
_atom_site_fract_y
_atom_site_fract_z
Zn1	Zn	1.885508	-0.239863	-0.569019
Zn2	Zn	2.385508	0.260137	-0.069019
Zn3	Zn	1.901630	-0.412700	-0.356776
Zn4	Zn	2.401630	0.087300	0.143224
Zn5	Zn	1.689507	-0.262920	-0.373048
Zn6	Zn	2.189507	0.237080	0.126952
Zn7	Zn	1.673228	-0.412631	-0.585220
Zn8	Zn	2.173228	0.087369	-0.085220
O9	O	1.787468	-0.332028	-0.471016
O10	O	2.287468	0.167972	0.028984
O11	O	2.065262	-0.253169	-0.527274
O12	O	2.565262	0.246831	-0.027274
O13	O	1.887052	-0.402509	-0.181315
O14	O	2.387052	0.097491	0.318685
O15	O	1.715573	-0.124874	-0.399073
O16	O	2.215573	0.375126	0.100927
O17	O	2.077106	-0.380152	-0.371340
O18	O	2.577106	0.119848	0.128660
O19	O	1.859574	-0.107934	-0.543052
O20	O	2.359574	0.392066	-0.043052
O21	O	1.731206	-0.292467	-0.193270
O22	O	2.231206	0.207533	0.306730
O23	O	1.509733	-0.292400	-0.414783
O24	O	2.009733	0.207600	0.085217
O25	O	1.687827	-0.380035	-0.760690
O26	O	2.187827	0.119965	-0.260690
O27	O	1.497772	-0.402392	-0.570665
O28	O	1.997772	0.097608	-0.070665
O29	O	1.843789	-0.253103	-0.748787
O30	O	2.343789	0.246897	-0.248787
O31	O	1.871266	-0.547678	-0.387050
O32	O	2.371266	-0.047678	0.112950
O33	O	1.703460	-0.547627	-0.554887
O34	O	2.203460	-0.047627	-0.054887
C35	C	1.457699	-0.349892	-0.496249
C36	C	1.957699	0.150108	0.003751
C37	C	1.316620	-0.357555	-0.507073
C38	C	1.816620	0.142445	-0.007073
C39	C	1.787378	-0.582650	-0.470986
C40	C	2.287378	-0.082650	0.029014
C41	C	1.787453	-0.689858	-0.471007
C42	C	2.287453	-0.189858	0.028993
C43	C	1.787580	-0.886142	-0.471076
C44	C	2.287580	-0.386142	0.028924
C45	C	1.787505	-0.776916	-0.471042
C46	C	2.287505	-0.276916	0.028958
C47	C	2.118525	-0.314096	-0.445685
C48	C	2.618525	0.185904	0.054315
C49	C	2.259602	-0.306454	-0.434890
C50	C	2.759602	0.193546	0.065110
C51	C	1.762194	-0.313989	-0.802081
C52	C	2.262194	0.186011	-0.302081
C53	C	1.751423	-0.306302	-0.943161
C54	C	2.251423	0.193698	-0.443161
C55	C	1.787591	-0.080425	-0.471070
C56	C	2.287591	0.419575	0.028930
C57	C	1.787643	0.026793	-0.471094
C58	C	2.287643	0.526793	0.028906
C59	C	1.812718	-0.349924	-0.141233
C60	C	2.312718	0.150076	0.358767
C61	C	1.823734	-0.357326	-0.000134
C62	C	2.323734	0.142674	0.499866
H63	H	1.318717	-0.256843	-0.364809
H64	H	1.818717	0.243157	0.135191
F65	F	1.239350	-0.422416	-0.598670
F66	F	1.739350	0.077584	-0.098670
H67	H	1.681281	-0.256737	-1.002314
H68	H	2.181281	0.243263	-0.502314
F69	F	1.915436	-0.422105	-0.922813
F70	F	2.415436	0.077895	-0.422813
