data_functionalizedCrystal
_audit_creation_method	'MofGen! by Chris Wilmer'
_symmetry_space_group_name_H-M	'P1'
_symmetry_Int_Tables_number	1
_symmetry_cell_setting	triclinic
loop_
_symmetry_equiv_pos_as_xyz
  x,y,z
_cell_length_a	10.654550
_cell_length_b	16.992695
_cell_length_c	9.730223
_cell_angle_alpha	89.995280
_cell_angle_beta	89.999957
_cell_angle_gamma	87.576577
loop_
_atom_site_label
_atom_site_type_symbol
_atom_site_fract_x
_atom_site_fract_y
_atom_site_fract_z
O1	O	1.677361	0.110190	-0.114188
O2	O	2.177361	0.610190	0.385812
O3	O	1.312790	0.120688	-0.114214
O4	O	1.812790	0.620688	0.385786
O5	O	1.493614	0.001288	-0.114190
O6	O	1.993614	0.501288	0.385810
O7	O	1.496537	0.229590	-0.114212
O8	O	1.996537	0.729590	0.385788
O9	O	1.493601	0.001285	0.114390
O10	O	1.993601	0.501285	0.614390
O11	O	1.312777	0.120685	0.114366
O12	O	1.812777	0.620685	0.614366
O13	O	1.677349	0.110187	0.114391
O14	O	2.177349	0.610187	0.614391
Zn15	Zn	1.495061	0.115435	0.150671
Zn16	Zn	1.995061	0.615435	0.650671
Zn17	Zn	1.495078	0.115439	-0.150493
Zn18	Zn	1.995078	0.615439	0.349507
O19	O	1.496525	0.229586	0.114368
O20	O	1.996525	0.729586	0.614368
C21	C	1.265919	0.119916	0.000073
C22	C	1.765919	0.619916	0.500073
C23	C	1.126277	0.117609	0.000064
C24	C	1.626277	0.617609	0.500064
C25	C	1.052866	0.187910	0.000061
C26	C	1.552866	0.687910	0.500061
C27	C	0.921658	0.185738	0.000085
C28	C	1.421658	0.685738	0.500085
C29	C	0.937282	0.042959	0.000109
C30	C	1.437282	0.542959	0.500109
C31	C	1.068488	0.045132	0.000095
C32	C	1.568488	0.545132	0.500095
C33	C	1.489848	-0.027946	0.000099
C34	C	1.989848	0.472054	0.500099
C35	C	1.478628	-0.115051	0.000098
C36	C	1.978628	0.384949	0.500098
C37	C	1.586879	-0.164703	0.000107
C38	C	2.086879	0.335297	0.500107
C39	C	1.576330	-0.246547	0.000093
C40	C	2.076330	0.253453	0.500093
C41	C	1.457529	-0.278738	0.000080
C42	C	1.957529	0.221262	0.500080
C43	C	1.349270	-0.229080	0.000067
C44	C	1.849270	0.270920	0.500067
C45	C	1.359820	-0.147237	0.000071
C46	C	1.859820	0.352763	0.500071
C47	C	1.413802	-0.522573	0.000058
C48	C	1.913802	-0.022573	0.500058
C49	C	1.403260	-0.604422	0.000059
C50	C	1.903260	-0.104422	0.500059
C51	C	1.630321	-0.621884	0.000082
C52	C	2.130321	-0.121884	0.500082
C53	C	1.640861	-0.540039	0.000094
C54	C	2.140861	-0.040039	0.500094
C55	C	1.532602	-0.490388	0.000074
C56	C	2.032602	0.009612	0.500074
N57	N	1.446743	-0.362395	0.000071
N58	N	1.946743	0.137605	0.500071
N59	N	1.543389	-0.406733	0.000074
N60	N	2.043389	0.093267	0.500074
C61	C	1.724220	0.110959	0.000102
C62	C	2.224220	0.610959	0.500102
C63	C	1.863862	0.113265	0.000102
C64	C	2.363862	0.613265	0.500102
C65	C	1.500291	0.258821	0.000075
C66	C	2.000291	0.758821	0.500075
C67	C	1.511510	0.345926	0.000068
C68	C	2.011510	0.845926	0.500068
N69	N	1.495059	0.115432	0.356207
N70	N	1.995059	0.615432	0.856207
N71	N	1.495089	0.115437	-0.356030
N72	N	1.995089	0.615437	0.143970
C73	C	1.575159	0.062584	0.428144
C74	C	2.075159	0.562584	0.928144
C75	C	1.575171	0.062584	0.572026
C76	C	2.075171	0.562584	1.072026
C77	C	1.414980	0.168287	0.572024
C78	C	1.914980	0.668287	1.072024
C79	C	1.414962	0.168282	0.428144
C80	C	1.914962	0.668282	0.928144
H81	H	1.683620	-0.138501	0.000126
H82	H	2.183620	0.361499	0.500126
Br83	Br	1.306238	0.240003	0.330504
Br84	Br	1.806238	0.740003	0.830504
Br85	Br	1.723249	-0.313930	0.000105
Br86	Br	2.223249	0.186070	0.500105
Br87	Br	1.131290	0.286272	0.000024
Br88	Br	1.631290	0.786272	0.500024
Br89	Br	0.822033	0.281151	0.000088
Br90	Br	1.322033	0.781151	0.500088
Br91	Br	1.306285	0.240011	0.669657
Br92	Br	1.806285	0.740011	1.169657
Br93	Br	0.858847	-0.055399	0.000146
Br94	Br	1.358847	0.444601	0.500146
Br95	Br	1.168126	-0.050283	0.000116
Br96	Br	1.668126	0.449717	0.500116
H97	H	1.252539	-0.255296	0.000048
H98	H	1.752539	0.244704	0.500048
H99	H	1.737601	-0.513836	0.000105
H100	H	2.237601	-0.013836	0.500105
H101	H	1.718458	-0.662318	0.000096
H102	H	2.218458	-0.162318	0.500096
H103	H	1.271671	-0.106811	0.000064
H104	H	1.771671	0.393189	0.500064
Br105	Br	1.683858	-0.009143	0.330520
Br106	Br	2.183858	0.490857	0.830520
Br107	Br	1.266878	-0.455200	0.000022
Br108	Br	1.766878	0.044800	0.500022
H109	H	1.306513	-0.630628	0.000070
H110	H	1.806513	-0.130628	0.500070
Br111	Br	1.683876	-0.009144	0.669652
Br112	Br	2.183876	0.490856	1.169652
