data_functionalizedCrystal
_audit_creation_method	'MofGen! by Chris Wilmer'
_symmetry_space_group_name_H-M	'P1'
_symmetry_Int_Tables_number	1
_symmetry_cell_setting	triclinic
loop_
_symmetry_equiv_pos_as_xyz
  x,y,z
_cell_length_a	9.065218
_cell_length_b	8.634740
_cell_length_c	7.540329
_cell_angle_alpha	90.001389
_cell_angle_beta	90.001372
_cell_angle_gamma	92.793096
loop_
_atom_site_label
_atom_site_type_symbol
_atom_site_fract_x
_atom_site_fract_y
_atom_site_fract_z
O1	O	0.481953	2.052786	0.147474
O2	O	0.981953	2.552786	0.647474
O3	O	0.441539	1.603270	0.147477
O4	O	0.941539	2.103270	0.647477
O5	O	0.248306	1.837319	0.147472
O6	O	0.748306	2.337319	0.647472
O7	O	0.675186	1.818736	0.147479
O8	O	1.175186	2.318736	0.647479
O9	O	0.248303	1.837311	-0.147493
O10	O	0.748303	2.337311	0.352507
O11	O	0.441536	1.603261	-0.147488
O12	O	0.941536	2.103261	0.352512
O13	O	0.481950	2.052778	-0.147491
O14	O	0.981950	2.552778	0.352509
Cu15	Cu	0.461743	1.828019	-0.174422
Cu16	Cu	0.961743	2.328019	0.325578
Cu17	Cu	0.461746	1.828029	0.174408
Cu18	Cu	0.961746	2.328029	0.674408
O19	O	0.675184	1.818728	-0.147486
O20	O	1.175184	2.318728	0.352514
C21	C	0.432383	1.545687	-0.000005
C22	C	0.932383	2.045687	0.499995
C23	C	0.405085	1.374123	-0.000004
C24	C	0.905085	1.874123	0.499996
C25	C	0.193087	1.835529	-0.000008
C26	C	0.693087	2.335529	0.499992
C27	C	0.028553	1.830189	0.000001
C28	C	0.528553	2.330189	0.500001
C29	C	0.730403	1.820518	-0.000002
C30	C	1.230403	2.320518	0.499998
C31	C	0.894937	1.825858	0.000001
C32	C	1.394937	2.325858	0.500001
C33	C	0.491107	2.110360	-0.000005
C34	C	0.991107	2.610360	0.499995
C35	C	0.518405	2.281924	0.000006
C36	C	1.018405	2.781924	0.500006
N37	N	0.461741	1.828023	-0.419770
N38	N	0.961741	2.328023	0.080230
N39	N	0.461738	1.828036	0.419757
N40	N	0.961738	2.328036	0.919757
H41	H	0.636306	1.334241	-0.000009
H42	H	1.136306	1.834241	0.499991
H43	H	0.287176	1.321799	0.000045
H44	H	0.787176	1.821799	0.500045
