data_functionalizedCrystal
_audit_creation_method	'MofGen! by Chris Wilmer'
_symmetry_space_group_name_H-M	'P1'
_symmetry_Int_Tables_number	1
_symmetry_cell_setting	triclinic
loop_
_symmetry_equiv_pos_as_xyz
  x,y,z
_cell_length_a	12.759401
_cell_length_b	13.897448
_cell_length_c	12.759401
_cell_angle_alpha	90.012267
_cell_angle_beta	90.002178
_cell_angle_gamma	90.017853
loop_
_atom_site_label
_atom_site_type_symbol
_atom_site_fract_x
_atom_site_fract_y
_atom_site_fract_z
Zn1	Zn	1.606064	-0.384155	0.593968
Zn2	Zn	1.606000	-0.545425	0.418283
Zn3	Zn	1.430416	-0.384146	0.418307
Zn4	Zn	1.430346	-0.545410	0.593924
O5	O	1.518206	-0.464784	0.506120
O6	O	1.753077	-0.405557	0.570671
O7	O	1.582710	-0.524033	0.271265
O8	O	1.453773	-0.249165	0.441638
O9	O	1.753029	-0.524042	0.441596
O10	O	1.582821	-0.249172	0.570695
O11	O	1.453710	-0.405542	0.271283
O12	O	1.283386	-0.405528	0.441595
O13	O	1.453653	-0.524016	0.740951
O14	O	1.283334	-0.524008	0.570620
O15	O	1.582752	-0.405543	0.740983
O16	O	1.582642	-0.680404	0.441553
O17	O	1.453590	-0.680393	0.570596
C18	C	1.245239	-0.464766	0.506106
C19	C	1.128462	-0.464782	0.506125
C20	C	1.073601	-0.526573	0.573197
C21	C	0.963877	-0.526585	0.573208
C22	C	0.963886	-0.403012	0.439067
C23	C	1.073608	-0.402996	0.439061
C24	C	1.073595	-0.597920	0.650640
C25	C	0.963871	-0.597932	0.650651
C26	C	1.518130	-0.715398	0.506090
C27	C	1.518193	-0.822612	0.506112
C28	C	1.518303	-1.018907	0.506178
C29	C	1.518239	-0.909675	0.506145
C30	C	1.792240	-0.464802	0.506135
C31	C	1.909016	-0.464810	0.506142
C32	C	1.518202	-0.464779	0.780154
C33	C	1.518200	-0.464777	0.896930
C34	C	1.518312	-0.213191	0.506174
C35	C	1.518357	-0.105977	0.506197
C36	C	1.585416	-0.403100	0.951811
C37	C	1.585410	-0.403103	1.061535
C38	C	1.450969	-0.526466	1.061488
C39	C	1.450971	-0.526458	0.951766
C40	C	1.663038	-0.331880	0.951839
C41	C	1.663031	-0.331883	1.061563
C42	C	1.518200	-0.464804	1.233153
C43	C	1.518192	-0.464787	1.116376
H44	H	0.929853	-0.571292	0.728004
H45	H	1.633912	-0.260916	1.095613
H46	H	1.107614	-0.668836	0.621353
H47	H	1.118272	-0.352673	0.384452
H48	H	1.744392	-0.351900	1.091340
H49	H	0.934077	-0.672612	0.628716
H50	H	0.919209	-0.352707	0.384467
H51	H	1.396233	-0.576678	0.907087
H52	H	1.641282	-0.257169	0.922085
H53	H	1.103381	-0.578025	0.732047
H54	H	1.396231	-0.576683	1.106149
H55	H	1.740317	-0.358649	0.917802
