data_functionalizedCrystal
_audit_creation_method	'MofGen! by Chris Wilmer'
_symmetry_space_group_name_H-M	'P1'
_symmetry_Int_Tables_number	1
_symmetry_cell_setting	triclinic
loop_
_symmetry_equiv_pos_as_xyz
  x,y,z
_cell_length_a	12.827893
_cell_length_b	19.805405
_cell_length_c	19.805399
_cell_angle_alpha	90.029462
_cell_angle_beta	89.986233
_cell_angle_gamma	89.966665
loop_
_atom_site_label
_atom_site_type_symbol
_atom_site_fract_x
_atom_site_fract_y
_atom_site_fract_z
Zn1	Zn	1.597486	0.269467	-0.382661
Zn2	Zn	2.097486	0.769467	0.117339
Zn3	Zn	1.597342	0.382658	-0.269472
Zn4	Zn	2.097342	0.882658	0.230528
Zn5	Zn	1.422743	0.269488	-0.269492
Zn6	Zn	1.922743	0.769488	0.230508
Zn7	Zn	1.422658	0.382619	-0.382625
Zn8	Zn	1.922658	0.882619	0.117375
O9	O	1.510057	0.326058	-0.326062
O10	O	2.010057	0.826058	0.173938
O11	O	1.743703	0.284489	-0.367653
O12	O	2.243703	0.784489	0.132347
O13	O	1.574156	0.367671	-0.174758
O14	O	2.074156	0.867671	0.325242
O15	O	1.446019	0.174769	-0.284527
O16	O	1.946019	0.674769	0.215473
O17	O	1.743597	0.367650	-0.284494
O18	O	2.243597	0.867650	0.215506
O19	O	1.574402	0.174753	-0.367672
O20	O	2.074402	0.674753	0.132328
O21	O	1.445880	0.284526	-0.174773
O22	O	1.945880	0.784526	0.325227
O23	O	1.276496	0.284488	-0.284492
O24	O	1.776496	0.784488	0.215508
O25	O	1.445874	0.367584	-0.477346
O26	O	1.945874	0.867584	0.022654
O27	O	1.276433	0.367605	-0.367611
O28	O	1.776433	0.867605	0.132389
O29	O	1.574319	0.284451	-0.477373
O30	O	2.074319	0.784451	0.022627
O31	O	1.574074	0.477369	-0.284458
O32	O	2.074074	0.977369	0.215542
O33	O	1.445734	0.477341	-0.367591
O34	O	1.945734	0.977341	0.132409
C35	C	1.238547	0.326046	-0.326050
C36	C	1.738547	0.826046	0.173950
C37	C	1.122394	0.326057	-0.326061
C38	C	1.622394	0.826057	0.173939
C39	C	1.070613	0.284873	-0.285004
C40	C	1.570613	0.784873	0.214996
C41	C	0.950563	0.284884	-0.285014
C42	C	1.450563	0.784884	0.214986
C43	C	1.509908	0.501914	-0.326033
C44	C	2.009908	1.001914	0.173967
C45	C	1.509939	0.577146	-0.326044
C46	C	2.009939	1.077146	0.173956
C47	C	1.576742	0.612424	-0.369370
C48	C	2.076742	1.112424	0.130630
C49	C	1.576768	0.683112	-0.369381
C50	C	2.076768	1.183112	0.130619
C51	C	1.509995	0.718522	-0.326061
C52	C	2.009995	1.218522	0.173939
C53	C	1.443184	0.683239	-0.282733
C54	C	1.943184	1.183239	0.217267
C55	C	1.443154	0.612552	-0.282726
C56	C	1.943154	1.112552	0.217274
C57	C	1.443302	0.968312	-0.282760
C58	C	1.943302	1.468312	0.217240
C59	C	1.443340	1.039004	-0.282769
C60	C	1.943340	1.539004	0.217231
C61	C	1.576916	1.038872	-0.369416
C62	C	2.076916	1.538872	0.130584
C63	C	1.576886	0.968185	-0.369409
C64	C	2.076886	1.468185	0.130591
C65	C	1.510072	0.932909	-0.326083
C66	C	2.010072	1.432909	0.173917
C67	C	1.510044	0.856261	-0.326073
C68	C	2.010044	1.356261	0.173927
C69	C	1.510027	0.795169	-0.326068
C70	C	2.010027	1.295169	0.173932
C71	C	1.782627	0.326071	-0.326075
C72	C	2.282627	0.826071	0.173925
C73	C	1.898780	0.326077	-0.326081
C74	C	2.398780	0.826077	0.173919
C75	C	1.510103	0.326011	-0.502605
C76	C	2.010103	0.826011	-0.002605
C77	C	1.510123	0.325991	-0.577837
C78	C	2.010123	0.825991	-0.077837
C79	C	1.510192	1.149515	-0.326100
C80	C	2.010192	1.649515	0.173900
C81	C	1.510138	1.074283	-0.326100
C82	C	2.010138	1.574283	0.173900
C83	C	1.443348	0.282693	-0.613188
C84	C	1.943348	0.782693	-0.113188
C85	C	1.443362	0.282680	-0.683877
C86	C	1.943362	0.782680	-0.183877
C87	C	1.510157	0.325962	-0.719213
C88	C	2.010157	0.825962	-0.219213
C89	C	1.576935	0.369264	-0.683857
C90	C	2.076935	0.869264	-0.183857
C91	C	1.576915	0.369280	-0.613169
C92	C	2.076915	0.869280	-0.113169
C93	C	1.577018	0.369201	-0.968930
C94	C	2.077018	0.869201	-0.468930
C95	C	1.577035	0.369180	-1.039622
C96	C	2.077035	0.869180	-0.539622
C97	C	1.443466	0.282601	-1.039638
C98	C	1.943466	0.782601	-0.539638
C99	C	1.443445	0.282617	-0.968950
C100	C	1.943445	0.782617	-0.468950
C101	C	1.510218	0.325922	-0.933600
C102	C	2.010218	0.825922	-0.433600
C103	C	1.510201	0.325936	-0.856952
C104	C	2.010201	0.825936	-0.356952
C105	C	1.510181	0.325944	-0.795860
C106	C	2.010181	0.825944	-0.295860
C107	C	1.510072	0.326056	-0.150206
C108	C	2.010072	0.826056	0.349794
C109	C	1.510255	0.325885	-0.074975
C110	C	2.010255	0.825885	0.425025
H111	H	1.631121	0.583598	-0.404643
H112	H	2.131121	1.083598	0.095357
O113	O	0.891573	0.238183	-0.238451
O114	O	1.391573	0.738183	0.261549
H115	H	0.912490	0.185060	-0.250140
H116	H	1.412490	0.685060	0.249860
H117	H	0.943304	0.361334	-0.361236
H118	H	1.443304	0.861334	0.138764
O119	O	1.371258	0.930275	-0.236017
O120	O	1.871258	1.430275	0.263983
H121	H	1.289235	0.943888	-0.247570
H122	H	1.789235	1.443888	0.252430
H123	H	1.631297	0.404533	-0.584387
H124	H	2.131297	0.904533	-0.084387
O125	O	1.129611	0.238162	-0.238427
O126	O	1.629611	0.738162	0.261573
H127	H	1.073418	0.208000	-0.208349
H128	H	1.573418	0.708000	0.291651
H129	H	1.077849	0.361325	-0.361217
H130	H	1.577849	0.861325	0.138783
H131	H	1.388984	0.247425	-0.712657
H132	H	1.888984	0.747425	-0.212657
O133	O	1.648820	0.721164	-0.416111
O134	O	2.148820	1.221164	0.083889
H135	H	1.695255	0.684666	-0.446226
H136	H	2.195255	1.184666	0.053774
O137	O	1.648907	0.929991	-0.416129
O138	O	2.148907	1.429991	0.083871
H139	H	1.702090	0.897781	-0.385856
H140	H	2.202090	1.397781	0.114144
H141	H	1.388960	1.067833	-0.247492
H142	H	1.888960	1.567833	0.252508
O143	O	1.648968	1.076919	-0.416159
O144	O	2.148968	1.576919	0.083841
H145	H	1.637764	1.132021	-0.408897
H146	H	2.137764	1.632021	0.091103
O147	O	1.371175	0.721426	-0.235998
O148	O	1.871175	1.221426	0.264002
H149	H	1.382430	0.776506	-0.243273
H150	H	1.882430	1.276506	0.256727
H151	H	1.388755	0.583830	-0.247446
H152	H	1.888755	1.083830	0.252554
H153	H	1.388961	0.247444	-0.584423
H154	H	1.888961	0.747444	-0.084423
H155	H	1.631315	0.404508	-0.712633
H156	H	2.131315	0.904508	-0.212633
H157	H	1.631431	0.404428	-1.068391
H158	H	2.131431	0.904428	-0.568391
H159	H	1.389057	0.247370	-0.940183
H160	H	1.889057	0.747370	-0.440183
O161	O	1.371449	0.235885	-1.077764
O162	O	1.871449	0.735885	-0.577764
H163	H	1.382678	0.243144	-1.132854
H164	H	1.882678	0.743144	-0.632854
O165	O	1.649060	0.415889	-0.930806
O166	O	2.149060	0.915889	-0.430806
H167	H	1.695523	0.445970	-0.967255
H168	H	2.195523	0.945970	-0.467255
