data_functionalizedCrystal
_audit_creation_method	'MofGen! by Chris Wilmer'
_symmetry_space_group_name_H-M	'P1'
_symmetry_Int_Tables_number	1
_symmetry_cell_setting	triclinic
loop_
_symmetry_equiv_pos_as_xyz
  x,y,z
_cell_length_a	10.723022
_cell_length_b	10.723024
_cell_length_c	16.176319
_cell_angle_alpha	89.994397
_cell_angle_beta	89.992908
_cell_angle_gamma	84.467548
loop_
_atom_site_label
_atom_site_type_symbol
_atom_site_fract_x
_atom_site_fract_y
_atom_site_fract_z
O1	O	1.657195	0.175021	-0.068739
O2	O	1.294042	0.191776	-0.068742
O3	O	1.483995	0.001823	-0.068737
O4	O	1.467242	0.364975	-0.068743
O5	O	1.483968	0.001810	0.068756
O6	O	1.294015	0.191764	0.068752
O7	O	1.657168	0.175009	0.068754
Cu8	Cu	1.475589	0.183385	0.081307
Cu9	Cu	1.475621	0.183400	-0.081294
O10	O	1.467215	0.364963	0.068750
C11	C	1.247529	0.190551	0.000005
C12	C	1.108975	0.186904	0.000004
C13	C	0.890796	0.289421	0.000000
C14	C	1.033999	0.293192	0.000001
C15	C	1.482763	-0.044683	0.000009
C16	C	1.479115	-0.183238	0.000006
C17	C	1.585403	-0.258221	0.000005
C18	C	1.581635	-0.401424	0.000002
C19	C	1.703681	0.176234	0.000006
C20	C	1.842235	0.179881	0.000002
C21	C	1.468448	0.411468	0.000002
C22	C	1.472095	0.550023	-0.000000
N23	N	1.475576	0.183374	0.195672
N24	N	1.475643	0.183401	-0.195660
C25	C	1.559713	0.099297	0.238939
C26	C	1.559720	0.099296	0.325486
C27	C	1.475594	0.183379	0.368765
C28	C	1.391448	0.267459	0.325493
C29	C	1.391437	0.267453	0.238947
C30	C	1.391491	0.267483	0.674521
C31	C	1.391511	0.267485	0.761073
C32	C	1.559774	0.099326	0.761059
C33	C	1.559763	0.099320	0.674514
C34	C	1.475613	0.183396	0.631249
C35	C	1.475605	0.183394	0.537405
C36	C	1.475607	0.183387	0.462608
H37	H	1.067171	0.093113	-0.000017
H38	H	0.906678	0.088892	-0.000001
O39	O	1.709644	-0.202843	0.000007
H40	H	1.693106	-0.099056	0.000014
H41	H	0.826354	0.380409	-0.000007
H42	H	1.628290	0.030863	0.796295
H43	H	1.075811	0.386980	0.000005
H44	H	1.381100	-0.385552	0.000006
O45	O	1.702171	-0.486763	0.000010
H46	H	1.757332	-0.468503	-0.056024
O47	O	1.354877	-0.238622	0.000012
H48	H	1.347969	-0.297285	-0.056025
H49	H	1.628223	0.030833	0.203706
H50	H	1.628230	0.030834	0.360713
H51	H	1.628270	0.030857	0.639279
H52	H	1.323002	0.335957	0.796309
H53	H	1.322976	0.335942	0.639302
O54	O	1.300713	0.358157	0.372166
H55	H	1.314865	0.344049	0.439616
O56	O	1.300696	0.358141	0.192275
H57	H	1.242208	0.416620	0.236908
