data_functionalizedCrystal
_audit_creation_method	'MofGen! by Chris Wilmer'
_symmetry_space_group_name_H-M	'P1'
_symmetry_Int_Tables_number	1
_symmetry_cell_setting	triclinic
loop_
_symmetry_equiv_pos_as_xyz
  x,y,z
_cell_length_a	12.759401
_cell_length_b	19.121063
_cell_length_c	12.759393
_cell_angle_alpha	87.595965
_cell_angle_beta	90.020938
_cell_angle_gamma	92.470439
loop_
_atom_site_label
_atom_site_type_symbol
_atom_site_fract_x
_atom_site_fract_y
_atom_site_fract_z
Zn1	Zn	1.588334	-0.279551	0.611809
Zn2	Zn	1.580690	-0.397017	0.443603
Zn3	Zn	1.412630	-0.279588	0.436146
Zn4	Zn	1.405092	-0.396968	0.619238
O5	O	1.496686	-0.338281	0.527699
O6	O	1.734340	-0.295138	0.589508
O7	O	1.558352	-0.381476	0.295595
O8	O	1.442291	-0.181299	0.453218
O9	O	1.728724	-0.381440	0.465928
O10	O	1.571380	-0.181271	0.582277
O11	O	1.434879	-0.295201	0.290117
O12	O	1.264609	-0.295154	0.460422
O13	O	1.429444	-0.381356	0.765271
O14	O	1.259071	-0.381393	0.594938
O15	O	1.564071	-0.295090	0.759813
O16	O	1.551042	-0.495295	0.473132
O17	O	1.422032	-0.495259	0.602169
C18	C	1.223720	-0.338272	0.527678
C19	C	1.106942	-0.338286	0.527694
C20	C	1.049220	-0.383259	0.597636
C21	C	0.939495	-0.383261	0.597657
C22	C	0.945226	-0.293316	0.457786
C23	C	1.054948	-0.293311	0.457771
C24	C	1.484918	-0.520761	0.539289
C25	C	1.479980	-0.598827	0.544282
C26	C	1.544881	-0.635498	0.479500
C27	C	1.540243	-0.708849	0.484203
C28	C	1.470697	-0.745528	0.553682
C29	C	1.405794	-0.708852	0.618471
C30	C	1.410438	-0.635502	0.613773
C31	C	1.453316	-0.966997	0.571229
C32	C	1.448675	-1.040352	0.575920
C33	C	1.583126	-1.040344	0.441653
C34	C	1.587759	-0.966993	0.436957
C35	C	1.522860	-0.930323	0.501749
C36	C	1.465952	-0.820504	0.558488
C37	C	1.527611	-0.855348	0.496948
C38	C	1.770719	-0.338290	0.527721
C39	C	1.887495	-0.338294	0.527731
C40	C	1.496769	-0.338214	0.801728
C41	C	1.496805	-0.338185	0.918503
C42	C	1.508529	-0.155088	0.516087
C43	C	1.513576	-0.077023	0.511139
C44	C	1.496667	-0.338298	0.254733
C45	C	1.496848	-0.338128	0.137946
C46	C	1.566910	-0.293259	0.970524
C47	C	1.566930	-0.293229	1.080246
C48	C	1.426735	-0.383056	1.085917
C49	C	1.426711	-0.383083	0.976196
H50	H	1.593091	-0.738703	0.431450
H51	H	1.400470	-0.937146	0.623984
N52	N	1.113902	-0.247359	0.386324
N53	N	1.067470	-0.207210	0.323895
H54	H	1.109105	-0.174755	0.273440
N55	N	1.638483	-0.247383	0.911590
N56	N	1.604393	-0.202640	0.847527
H57	H	1.654940	-0.170236	0.805907
N58	N	1.615918	-0.598046	0.408513
N59	N	1.673860	-0.630800	0.350679
H60	H	1.724034	-0.604352	0.300542
H61	H	1.369615	-0.419666	0.933840
H62	H	1.369670	-0.419612	1.132904
N63	N	1.334769	-0.746327	0.689446
N64	N	1.330631	-0.811817	0.693633
H65	H	1.280468	-0.838284	0.743760
N66	N	0.892129	-0.247372	0.386359
N67	N	0.908565	-0.182569	0.389372
H68	H	0.871068	-0.150120	0.338924
H69	H	1.357590	-0.605645	0.666526
H70	H	1.091550	-0.419879	0.654575
N71	N	1.638559	-0.247349	1.133385
N72	N	1.703921	-0.272051	1.196187
H73	H	1.754512	-0.239647	1.233716
N74	N	1.377638	-1.077833	0.646886
N75	N	1.308116	-1.118822	0.612483
H76	H	1.257949	-1.145296	0.662597
N77	N	0.880552	-0.429213	0.669098
N78	N	0.888631	-0.494014	0.666076
H79	H	0.847004	-0.526470	0.716535
N80	N	1.658801	-0.929539	0.365975
N81	N	1.716744	-0.962290	0.308138
H82	H	1.766916	-0.935840	0.258003
H83	H	1.635965	-1.070208	0.388904
N84	N	1.598631	-0.817874	0.425974
N85	N	1.564273	-0.777000	0.356386
H86	H	1.614428	-0.750528	0.306255
N87	N	1.394909	-0.857986	0.629437
N88	N	1.325397	-0.898978	0.595026
H89	H	1.275224	-0.925453	0.645134
