data_functionalizedCrystal
_audit_creation_method	'MofGen! by Chris Wilmer'
_symmetry_space_group_name_H-M	'P1'
_symmetry_Int_Tables_number	1
_symmetry_cell_setting	triclinic
loop_
_symmetry_equiv_pos_as_xyz
  x,y,z
_cell_length_a	6.817900
_cell_length_b	11.168121
_cell_length_c	16.255661
_cell_angle_alpha	93.883604
_cell_angle_beta	103.488922
_cell_angle_gamma	108.508496
loop_
_atom_site_label
_atom_site_type_symbol
_atom_site_fract_x
_atom_site_fract_y
_atom_site_fract_z
V1	V	-4.052428	-0.175725	-0.263878
O2	O	-4.013108	0.007395	-0.258848
O3	O	-4.029107	-0.347423	-0.262080
O4	O	-4.003662	-0.173482	-0.378961
O5	O	-4.038730	-0.167750	-0.141158
V6	V	-4.532854	-0.153767	-0.249199
O7	O	-4.320481	-0.223890	-0.296078
O8	O	-4.714999	-0.105601	-0.216999
O9	O	-4.332969	0.017931	-0.250997
O10	O	-4.689571	-0.336886	-0.254229
O11	O	-4.663950	-0.161741	-0.371919
O12	O	-4.358414	-0.156010	-0.134116
C13	C	-3.880221	-0.389265	-0.257919
C14	C	-3.942438	-0.529634	-0.257217
C15	C	-4.144141	-0.598340	-0.260917
C16	C	-4.208449	-0.743419	-0.260191
C17	C	-3.847762	-0.167385	-0.407012
C18	C	-3.889340	-0.166687	-0.501093
C19	C	-3.798677	-0.158357	-0.723911
C20	C	-3.970827	-0.265869	-0.793392
C21	C	-3.965533	-0.165380	-0.673341
C22	C	-3.867493	-0.056637	-0.771498
C23	C	-4.039115	-0.164111	-0.839725
C24	C	-4.137179	-0.272987	-0.741592
C25	C	-4.033769	-0.063661	-0.719683
C26	C	-4.206060	-0.171203	-0.789144
C27	C	-3.923139	-0.166112	-0.577492
C28	C	-4.081528	-0.163389	-0.935573
C29	C	-4.145198	0.059767	-0.255155
C30	C	-4.062220	0.200134	-0.255864
C31	C	-4.177657	-0.162111	-0.106061
C32	C	-4.115317	-0.162802	-0.011979
H33	H	-4.269220	-0.549758	-0.264628
C34	C	-4.441883	-0.823199	-0.264476
H35	H	-4.454487	-0.910243	-0.263433
H36	H	-4.480157	-0.792570	-0.216742
H37	H	-4.535028	-0.816021	-0.315911
H38	H	-3.889421	-0.740810	-0.252693
H39	H	-3.817364	-0.578218	-0.253515
C40	C	-3.935489	-0.381348	-0.836752
H41	H	-3.791073	-0.376679	-0.814298
H42	H	-4.029908	-0.458104	-0.825988
H43	H	-3.963637	-0.380483	-0.896725
C44	C	-3.565618	-0.151210	-0.685424
H45	H	-3.543302	-0.223172	-0.710905
H46	H	-3.469560	-0.075113	-0.696216
H47	H	-3.540231	-0.150964	-0.625402
C48	C	-4.068996	0.051830	-0.676293
H49	H	-3.972660	0.128605	-0.686161
H50	H	-4.212628	0.048070	-0.699480
H51	H	-4.043371	0.050081	-0.616455
H52	H	-4.250790	-0.364520	-0.728129
C53	C	-4.439314	-0.178578	-0.827449
H54	H	-4.535094	-0.255454	-0.817440
H55	H	-4.462445	-0.107467	-0.801222
H56	H	-4.464313	-0.177391	-0.887329
H57	H	-3.753881	0.034772	-0.785104
