data_functionalizedCrystal
_audit_creation_method	'MofGen! by Chris Wilmer'
_symmetry_space_group_name_H-M	'P1'
_symmetry_Int_Tables_number	1
_symmetry_cell_setting	triclinic
loop_
_symmetry_equiv_pos_as_xyz
  x,y,z
_cell_length_a	16.994748
_cell_length_b	12.645331
_cell_length_c	12.645323
_cell_angle_alpha	90.022676
_cell_angle_beta	90.020486
_cell_angle_gamma	90.003303
loop_
_atom_site_label
_atom_site_type_symbol
_atom_site_fract_x
_atom_site_fract_y
_atom_site_fract_z
Zn1	Zn	-0.314043	1.620830	0.599479
Zn2	Zn	-0.445958	1.620753	0.422232
Zn3	Zn	-0.314070	1.443544	0.422223
Zn4	Zn	-0.445907	1.443567	0.599448
O5	O	-0.379995	1.532174	0.510845
O6	O	-0.331552	1.769167	0.575983
O7	O	-0.428496	1.597204	0.273884
O8	O	-0.203685	1.467084	0.445745
O9	O	-0.428470	1.769110	0.445761
O10	O	-0.203666	1.597335	0.575974
O11	O	-0.331598	1.467010	0.273877
O12	O	-0.331548	1.295200	0.445715
O13	O	-0.428382	1.467124	0.747799
O14	O	-0.428408	1.295217	0.575922
O15	O	-0.331503	1.597357	0.747822
O16	O	-0.556333	1.597226	0.445731
O17	O	-0.556295	1.467049	0.575931
C18	C	-0.379976	1.256744	0.510815
C19	C	-0.379987	1.138914	0.510827
C20	C	-0.174254	1.532208	0.510859
C21	C	-0.084932	1.532227	0.510866
C22	C	-0.584934	1.532145	0.510825
C23	C	-0.674257	1.532166	0.510793
C24	C	-0.318772	0.971304	0.429366
C25	C	-0.318930	1.093863	0.429007
C26	C	-0.463080	1.094420	0.480320
C27	C	-0.462746	0.971821	0.479765
C28	C	-0.358899	0.971758	0.623109
C29	C	-0.357043	1.094363	0.622485
Zn30	Zn	0.185920	1.620599	0.422009
Zn31	Zn	0.185967	1.443778	0.599588
Zn32	Zn	0.054113	1.621034	0.599274
Zn33	Zn	0.054021	1.443385	0.422382
O34	O	0.120005	1.532199	0.510813
O35	O	0.296307	1.597126	0.445540
O36	O	0.168534	1.467638	0.747893
O37	O	0.071617	1.769323	0.575471
O38	O	0.296342	1.467217	0.576007
O39	O	0.168455	1.769004	0.445236
O40	O	0.071662	1.597867	0.747663
O41	O	-0.056280	1.597485	0.575834
O42	O	0.071460	1.466546	0.273986
O43	O	-0.056348	1.466968	0.445872
O44	O	0.168366	1.596745	0.273711
O45	O	0.168445	1.295379	0.576369
O46	O	0.071505	1.295090	0.446177
C47	C	-0.379934	1.532252	0.787351
C48	C	-0.379908	1.532285	0.905181
C49	C	-0.380014	1.808679	0.510877
C50	C	-0.380022	1.926509	0.510890
C51	C	-0.379998	1.532157	0.235416
C52	C	-0.379802	1.532329	0.117586
C53	C	-0.440567	1.450102	1.072731
C54	C	-0.440868	1.450317	0.950171
C55	C	-0.402468	1.643992	0.949703
C56	C	-0.402849	1.643541	1.072301
C57	C	-0.296348	1.503817	1.072370
C58	C	-0.296849	1.501325	0.949764
C59	C	0.119972	1.256770	0.511350
C60	C	0.119981	1.138940	0.511611
C61	C	0.119897	1.531553	0.234308
C62	C	0.119851	1.531278	0.116478
C63	C	0.120041	1.808704	0.510277
C64	C	0.120056	1.926533	0.510048
C65	C	0.120157	1.532917	0.786242
C66	C	0.120351	1.533484	0.904071
C67	C	0.059190	0.971150	0.429869
C68	C	0.058922	1.093710	0.429830
C69	C	0.097528	1.094737	0.623444
C70	C	0.097116	0.972138	0.623249
C71	C	0.203467	0.971678	0.483364
C72	C	0.202995	1.094276	0.480617
C73	C	0.058618	1.449290	-0.050913
C74	C	0.058838	1.449227	0.071647
C75	C	0.202947	1.500832	0.072029
C76	C	0.202551	1.499979	-0.050568
C77	C	0.098589	1.643114	-0.050941
C78	C	0.096795	1.642782	0.071666
H79	H	-0.257313	1.123945	0.448127
C80	C	-0.487699	1.135820	0.370682
H81	H	-0.538063	1.108456	0.352923
H82	H	-0.450355	1.113676	0.319370
H83	H	-0.489875	1.210877	0.372118
C84	C	0.077852	1.134064	0.317809
H85	H	0.085776	1.075528	0.271915
H86	H	0.124216	1.175978	0.319851
H87	H	0.035219	1.175565	0.292537
C88	C	0.266209	1.576714	-0.090815
H89	H	0.266396	1.576717	-0.165944
H90	H	0.316247	1.554755	-0.065531
H91	H	0.255248	1.646015	-0.065808
C92	C	-0.421786	1.338423	0.909498
H93	H	-0.413785	1.292423	0.967902
H94	H	-0.375429	1.340666	0.867608
H95	H	-0.464383	1.313136	0.867906
C96	C	-0.023853	0.929586	0.455257
H97	H	-0.060249	0.956915	0.405203
H98	H	-0.038595	0.951661	0.524275
H99	H	-0.023948	0.854531	0.451938
C100	C	-0.024608	1.133376	0.455358
H101	H	-0.058508	1.074562	0.465803
H102	H	-0.043578	1.174930	0.398214
H103	H	-0.023272	1.175095	0.517828
C104	C	-0.344578	1.728985	0.910343
H105	H	-0.359304	1.795899	0.938203
H106	H	-0.345828	1.731597	0.835287
H107	H	-0.292883	1.711899	0.933277
C108	C	0.225875	1.133254	0.369444
H109	H	0.276142	1.105962	0.351142
H110	H	0.227630	1.208337	0.369014
H111	H	0.187965	1.109489	0.319580
C112	C	0.267484	1.135871	0.555419
H113	H	0.244521	1.181215	0.606765
H114	H	0.305498	1.174069	0.515776
H115	H	0.292209	1.077983	0.589885
H116	H	0.249771	1.558511	0.101058
H117	H	0.143143	1.703874	-0.080058
C118	C	0.226808	1.389109	-0.089006
H119	H	0.236807	1.345012	-0.029696
H120	H	0.273045	1.394376	-0.130864
H121	H	0.185523	1.359530	-0.130155
C122	C	-0.526487	0.931782	0.556466
H123	H	-0.526712	0.856654	0.556651
H124	H	-0.576494	0.957031	0.534345
H125	H	-0.515570	0.956952	0.625730
H126	H	-0.279835	1.419119	0.920663
C127	C	-0.274441	1.133654	0.653568
H128	H	-0.254017	1.177033	0.598738
H129	H	-0.240648	1.074735	0.663994
H130	H	-0.277702	1.173460	0.717146
C131	C	-0.235279	0.931476	0.454904
H132	H	-0.199198	0.959406	0.404801
H133	H	-0.234359	0.856428	0.451796
H134	H	-0.220763	0.954039	0.523872
C135	C	0.014727	0.933559	0.656090
H136	H	-0.018177	0.992813	0.669419
H137	H	0.018793	0.891886	0.718338
H138	H	-0.007271	0.892193	0.600755
C139	C	-0.486936	0.933125	0.368940
H140	H	-0.496871	0.992331	0.324680
H141	H	-0.533198	0.891296	0.374218
H142	H	-0.445650	0.891889	0.339540
C143	C	-0.345652	1.729099	1.112400
H144	H	-0.345488	1.729393	1.187529
H145	H	-0.362026	1.796341	1.087175
H146	H	-0.294144	1.714328	1.087244
H147	H	-0.332578	0.940460	0.346696
H148	H	-0.502736	1.469141	0.920863
C149	C	-0.523626	1.475273	1.114364
H150	H	-0.559975	1.425220	1.086889
H151	H	-0.538450	1.544315	1.092488
H152	H	-0.523696	1.471797	1.189409
H153	H	0.221248	1.419786	0.102878
H154	H	0.039019	1.670666	-0.081905
C155	C	-0.268564	1.395690	1.114103
H156	H	-0.218099	1.379993	1.085871
H157	H	-0.304859	1.342544	1.093098
H158	H	-0.265585	1.397832	1.189094
H159	H	0.139512	0.942649	0.686591
C160	C	-0.337782	1.133429	0.316667
H161	H	-0.345383	1.074575	0.271074
H162	H	-0.295277	1.175114	0.291355
H163	H	-0.384329	1.174997	0.318262
H164	H	-0.509936	1.123604	0.537836
H165	H	-0.299365	0.940842	0.650854
C166	C	-0.412921	1.135774	0.708930
H167	H	-0.451148	1.180972	0.677917
H168	H	-0.383581	1.174088	0.760150
H169	H	-0.438527	1.077796	0.742040
H170	H	-0.403511	0.942793	0.683851
C171	C	-0.421678	1.337865	1.112532
H172	H	-0.376568	1.340143	1.156869
H173	H	-0.411615	1.292927	1.053861
H174	H	-0.465199	1.311287	1.151448
H175	H	0.140461	1.124061	0.686227
H176	H	-0.463855	1.667705	1.100918
C177	C	0.016022	1.136262	0.656686
H178	H	-0.004433	1.180525	0.602570
H179	H	0.020784	1.175594	0.720385
H180	H	-0.018577	1.078276	0.667589
H181	H	0.035641	1.665729	0.100710
C182	C	0.077951	0.931031	0.317686
H183	H	0.123052	0.886706	0.319987
H184	H	0.087981	0.989575	0.272613
H185	H	0.034393	0.892036	0.291253
C186	C	0.264703	0.932731	0.564253
H187	H	0.239588	0.889170	0.615290
H188	H	0.288035	0.991783	0.598537
H189	H	0.304256	0.893190	0.528836
H190	H	-0.251076	1.563707	1.101379
C191	C	-0.484021	1.677194	0.908268
H192	H	-0.504430	1.623139	0.863849
H193	H	-0.479339	1.740982	0.869120
H194	H	-0.518616	1.687923	0.966284
C195	C	0.231122	0.929633	0.375281
H196	H	0.192036	0.884151	0.346665
H197	H	0.278841	0.891489	0.383955
H198	H	0.239531	0.987325	0.328532
H199	H	-0.249182	1.556838	0.919138
C200	C	-0.024403	1.474965	0.112257
H201	H	-0.058660	1.485549	0.053827
H202	H	-0.022725	1.537380	0.154026
H203	H	-0.043188	1.417822	0.153957
H204	H	0.138114	1.706929	0.102173
C205	C	-0.024913	1.474563	-0.090783
H206	H	-0.023239	1.535064	-0.135244
H207	H	-0.058325	1.488252	-0.032148
H208	H	-0.044705	1.415964	-0.129582
H209	H	0.072468	1.366577	-0.081575
H210	H	0.072880	1.366168	0.101125
