data_functionalizedCrystal
_audit_creation_method	'MofGen! by Chris Wilmer'
_symmetry_space_group_name_H-M	'P1'
_symmetry_Int_Tables_number	1
_symmetry_cell_setting	triclinic
loop_
_symmetry_equiv_pos_as_xyz
  x,y,z
_cell_length_a	12.837932
_cell_length_b	12.811415
_cell_length_c	15.186229
_cell_angle_alpha	84.565396
_cell_angle_beta	89.996876
_cell_angle_gamma	89.412215
loop_
_atom_site_label
_atom_site_type_symbol
_atom_site_fract_x
_atom_site_fract_y
_atom_site_fract_z
O1	O	1.376631	0.272985	-0.095027
O2	O	1.074767	0.259498	-0.093952
O3	O	1.233293	0.114209	-0.082345
O4	O	1.218105	0.418275	-0.106634
O5	O	1.233283	0.114206	0.064113
O6	O	1.074757	0.259495	0.052506
O7	O	1.376621	0.272982	0.051430
Zn8	Zn	1.225687	0.266238	0.075221
Zn9	Zn	1.225701	0.266242	-0.117743
O10	O	1.218094	0.418271	0.039823
C11	C	1.036122	0.254941	-0.020359
C12	C	0.920986	0.241354	-0.019275
C13	C	0.770653	0.127793	-0.010202
C14	C	0.878834	0.140553	-0.011221
C15	C	0.854948	0.329403	-0.026307
C16	C	0.746766	0.316644	-0.025287
C17	C	0.704623	0.215836	-0.017236
C18	C	0.596440	0.203077	-0.016222
C19	C	0.572556	0.391927	-0.031301
C20	C	0.680737	0.404686	-0.032321
C21	C	1.232437	0.075018	-0.005987
C22	C	1.229888	-0.041755	0.003335
C23	C	1.225091	-0.261171	-0.138833
C24	C	1.222696	-0.370890	-0.130078
C25	C	1.222696	-0.370913	0.029600
C26	C	1.225091	-0.261194	0.020845
C27	C	1.226290	-0.206327	-0.063374
C28	C	1.228692	-0.096607	-0.072129
C29	C	1.228684	-0.096632	0.087548
C30	C	1.226289	-0.206351	0.096303
C31	C	1.415266	0.277539	-0.022164
C32	C	1.530402	0.291126	-0.023254
C33	C	1.218951	0.457462	-0.036536
C34	C	1.221500	0.574235	-0.045864
N35	N	1.225685	0.266235	0.206914
N36	N	1.225711	0.266238	-0.249435
C37	C	1.295904	0.201927	0.437775
C38	C	1.295908	0.201925	0.529965
C39	C	1.155484	0.330548	0.519698
C40	C	1.155477	0.330544	0.427510
C41	C	1.225693	0.266235	0.386551
C42	C	1.225703	0.266237	0.570928
C43	C	1.225706	0.266235	0.670885
C44	C	1.225689	0.266235	0.286588
H45	H	0.932593	0.068859	-0.005493
C46	C	1.078263	0.401292	0.564756
H47	H	1.088329	0.392094	0.626995
H48	H	1.009000	0.382931	0.551125
H49	H	1.089835	0.472508	0.543951
H50	H	1.098297	0.382911	0.385801
C51	C	0.727096	0.515568	-0.041183
H52	H	0.672274	0.566175	-0.045223
H53	H	0.768806	0.524467	-0.092966
H54	H	0.768795	0.524474	0.009186
H55	H	0.562129	0.120994	-0.009670
C56	C	1.373138	0.131188	0.586311
H57	H	1.363081	0.140389	0.647082
H58	H	1.442397	0.149551	0.569731
H59	H	1.361567	0.059970	0.576892
C60	C	0.724292	0.016913	-0.001352
H61	H	0.779112	-0.033696	0.002693
H62	H	0.682588	0.008017	-0.051714
H63	H	0.682586	0.008006	0.050439
H64	H	0.518782	0.463617	-0.037029
C65	C	0.901313	0.440282	-0.035163
H66	H	0.846496	0.490894	-0.039203
H67	H	0.943026	0.449181	-0.086945
H68	H	0.943011	0.449181	0.015207
C69	C	1.230008	-0.036254	-0.164764
H70	H	1.228940	-0.084635	-0.208450
H71	H	1.291344	0.004588	-0.171350
H72	H	1.170529	0.008508	-0.171649
H73	H	1.221716	-0.415539	-0.191524
C74	C	1.226418	-0.200814	-0.231467
H75	H	1.225359	-0.249192	-0.275155
H76	H	1.287756	-0.159973	-0.238042
H77	H	1.166941	-0.156052	-0.238358
C78	C	1.373129	0.131181	0.392723
H79	H	1.414937	0.092874	0.436437
H80	H	1.416459	0.173290	0.353388
H81	H	1.335624	0.083713	0.360561
H82	H	1.225309	-0.251038	0.164872
C83	C	1.221381	-0.431279	0.122230
H84	H	1.219789	-0.504478	0.116633
H85	H	1.161374	-0.411344	0.153452
H86	H	1.282189	-0.415269	0.153748
H87	H	1.229664	-0.051967	0.148992
