data_functionalizedCrystal
_audit_creation_method	'MofGen! by Chris Wilmer'
_symmetry_space_group_name_H-M	'P1'
_symmetry_Int_Tables_number	1
_symmetry_cell_setting	triclinic
loop_
_symmetry_equiv_pos_as_xyz
  x,y,z
_cell_length_a	13.635800
_cell_length_b	7.076090
_cell_length_c	7.190334
_cell_angle_alpha	109.695070
_cell_angle_beta	60.611776
_cell_angle_gamma	117.701400
loop_
_atom_site_label
_atom_site_type_symbol
_atom_site_fract_x
_atom_site_fract_y
_atom_site_fract_z
V1	V	-2.008474	0.291701	0.663510
O2	O	-2.109551	-0.017518	0.652431
O3	O	-1.881140	0.581760	0.657480
O4	O	-2.029183	0.285678	0.953571
O5	O	-1.960483	0.280614	0.354291
V6	V	-2.257833	0.254896	0.626707
O7	O	-2.122439	0.372435	0.744243
O8	O	-2.368967	0.174162	0.545974
O9	O	-2.273564	-0.035163	0.632737
O10	O	-2.215455	0.564115	0.637786
O11	O	-2.364523	0.265983	0.935926
O12	O	-2.125521	0.260919	0.336646
V13	V	-1.508474	0.291701	0.663510
O14	O	-1.609551	-0.017518	0.652431
O15	O	-1.381140	0.581760	0.657480
O16	O	-1.529183	0.285678	0.953571
O17	O	-1.460483	0.280614	0.354291
V18	V	-1.757833	0.254896	0.626707
O19	O	-1.622439	0.372435	0.744243
O20	O	-1.868967	0.174162	0.545974
O21	O	-1.773564	-0.035163	0.632737
O22	O	-1.715455	0.564115	0.637786
O23	O	-1.864523	0.265983	0.935926
O24	O	-1.625521	0.260919	0.336646
C25	C	-1.777106	0.652521	0.646638
C26	C	-1.712752	0.894096	0.643590
C27	C	-2.209280	-0.105911	0.643585
C28	C	-2.263068	-0.347478	0.646683
C29	C	-1.965951	0.274825	1.024318
C30	C	-2.023912	0.271761	1.265891
C31	C	-1.465951	0.274825	1.024318
C32	C	-1.523912	0.271761	1.265891
