data_functionalizedCrystal
_audit_creation_method	'MofGen! by Chris Wilmer'
_symmetry_space_group_name_H-M	'P1'
_symmetry_Int_Tables_number	1
_symmetry_cell_setting	triclinic
loop_
_symmetry_equiv_pos_as_xyz
  x,y,z
_cell_length_a	18.215407
_cell_length_b	16.625546
_cell_length_c	18.215399
_cell_angle_alpha	89.968415
_cell_angle_beta	89.983176
_cell_angle_gamma	90.022916
loop_
_atom_site_label
_atom_site_type_symbol
_atom_site_fract_x
_atom_site_fract_y
_atom_site_fract_z
Zn1	Zn	1.125062	-0.320981	-0.416110
Zn2	Zn	1.375062	-0.070981	-0.166110
Zn3	Zn	1.625062	0.179019	0.083890
Zn4	Zn	1.875062	0.429019	0.333890
Zn5	Zn	1.124983	-0.455827	-0.293041
Zn6	Zn	1.374983	-0.205827	-0.043041
Zn7	Zn	1.624983	0.044173	0.206959
Zn8	Zn	1.874983	0.294173	0.456959
Zn9	Zn	1.002001	-0.321013	-0.293057
Zn10	Zn	1.252001	-0.071013	-0.043057
Zn11	Zn	1.502001	0.178987	0.206943
Zn12	Zn	1.752001	0.428987	0.456943
Zn13	Zn	1.001966	-0.455776	-0.416066
Zn14	Zn	1.251966	-0.205776	-0.166066
Zn15	Zn	1.501966	0.044224	0.083934
Zn16	Zn	1.751966	0.294224	0.333934
O17	O	1.063503	-0.388399	-0.354568
O18	O	1.313503	-0.138399	-0.104568
O19	O	1.563503	0.111601	0.145432
O20	O	1.813503	0.361601	0.395432
O21	O	1.228036	-0.338876	-0.399796
O22	O	1.478036	-0.088876	-0.149796
O23	O	1.728036	0.161124	0.100204
O24	O	1.978036	0.411124	0.350204
O25	O	1.108650	-0.437978	-0.190059
O26	O	1.358650	-0.187978	0.059941
O27	O	1.608650	0.062022	0.309941
O28	O	1.858650	0.312022	0.559941
O29	O	1.018374	-0.208176	-0.309405
O30	O	1.268374	0.041824	-0.059405
O31	O	1.518374	0.291824	0.190595
O32	O	1.768374	0.541824	0.440595
O33	O	1.227977	-0.437947	-0.309378
O34	O	1.477977	-0.187947	-0.059378
O35	O	1.727977	0.062053	0.190622
O36	O	1.977977	0.312053	0.440622
O37	O	1.108786	-0.208153	-0.399812
O38	O	1.358786	0.041847	-0.149812
O39	O	1.608786	0.291847	0.100188
O40	O	1.858786	0.541847	0.350188
O41	O	1.018297	-0.338931	-0.190070
O42	O	1.268297	-0.088931	0.059930
O43	O	1.518297	0.161069	0.309930
O44	O	1.768297	0.411069	0.559930
O45	O	0.899013	-0.338882	-0.309363
O46	O	1.149013	-0.088882	-0.059363
O47	O	1.399013	0.161118	0.190637
O48	O	1.649013	0.411118	0.440637
O49	O	1.018314	-0.437861	-0.519056
O50	O	1.268314	-0.187861	-0.269056
O51	O	1.518314	0.062139	-0.019056
O52	O	1.768314	0.312139	0.230944
O53	O	0.898987	-0.437892	-0.399737
O54	O	1.148987	-0.187892	-0.149737
O55	O	1.398987	0.062108	0.100263
O56	O	1.648987	0.312108	0.350263
O57	O	1.108752	-0.338827	-0.519088
O58	O	1.358752	-0.088827	-0.269088
O59	O	1.608752	0.161173	-0.019088
O60	O	1.858752	0.411173	0.230912
O61	O	1.108616	-0.568653	-0.309335
O62	O	1.358616	-0.318653	-0.059335
O63	O	1.608616	-0.068653	0.190665
O64	O	1.858616	0.181347	0.440665
O65	O	1.018236	-0.568616	-0.399721
O66	O	1.268236	-0.318616	-0.149721
O67	O	1.518236	-0.068616	0.100279
O68	O	1.768236	0.181384	0.350279
C69	C	0.872297	-0.388386	-0.354547
C70	C	1.122297	-0.138386	-0.104547
C71	C	1.372297	0.111614	0.145453
C72	C	1.622297	0.361614	0.395453
C73	C	0.790498	-0.388399	-0.354556
C74	C	1.040498	-0.138399	-0.104556
C75	C	1.290498	0.111601	0.145444
C76	C	1.540498	0.361601	0.395444
C77	C	0.602310	-0.440035	-0.401554
C78	C	0.852310	-0.190035	-0.151554
C79	C	1.102310	0.059965	0.098446
C80	C	1.352310	0.309965	0.348446
C81	C	0.525451	-0.440037	-0.401563
C82	C	0.775451	-0.190037	-0.151563
C83	C	1.025451	0.059963	0.098437
C84	C	1.275451	0.309963	0.348437
C85	C	0.525449	-0.336779	-0.307598
C86	C	0.775449	-0.086779	-0.057598
C87	C	1.025449	0.163221	0.192402
C88	C	1.275449	0.413221	0.442402
C89	C	0.602306	-0.336773	-0.307593
C90	C	0.852306	-0.086773	-0.057593
C91	C	1.102306	0.163227	0.192407
C92	C	1.352306	0.413227	0.442407
C93	C	0.640734	-0.388405	-0.354570
C94	C	0.890734	-0.138405	-0.104570
C95	C	1.140734	0.111595	0.145430
C96	C	1.390734	0.361595	0.395430
C97	C	0.487018	-0.388414	-0.354584
C98	C	0.737018	-0.138414	-0.104584
C99	C	0.987018	0.111586	0.145416
C100	C	1.237018	0.361586	0.395416
C101	C	0.403685	-0.388416	-0.354594
C102	C	0.653685	-0.138416	-0.104594
C103	C	0.903685	0.111584	0.145406
C104	C	1.153685	0.361584	0.395406
C105	C	0.724073	-0.388402	-0.354562
C106	C	0.974073	-0.138402	-0.104562
C107	C	1.224073	0.111598	0.145438
C108	C	1.474073	0.361598	0.395438
C109	C	1.063434	-0.597890	-0.354537
C110	C	1.313434	-0.347890	-0.104537
C111	C	1.563434	-0.097890	0.145463
C112	C	1.813434	0.152110	0.395463
C113	C	1.063471	-0.687511	-0.354549
C114	C	1.313471	-0.437511	-0.104549
C115	C	1.563471	-0.187511	0.145451
C116	C	1.813471	0.062489	0.395451
C117	C	1.063599	-1.015687	-0.354625
C118	C	1.313599	-0.765687	-0.104625
C119	C	1.563599	-0.515687	0.145375
C120	C	1.813599	-0.265687	0.395375
C121	C	1.063561	-0.924379	-0.354606
C122	C	1.313561	-0.674379	-0.104606
C123	C	1.563561	-0.424379	0.145394
C124	C	1.813561	-0.174379	0.395394
C125	C	1.063535	-0.851602	-0.354587
C126	C	1.313535	-0.601602	-0.104587
C127	C	1.563535	-0.351602	0.145413
C128	C	1.813535	-0.101602	0.395413
C129	C	1.063498	-0.760288	-0.354568
C130	C	1.313498	-0.510288	-0.104568
C131	C	1.563498	-0.260288	0.145432
C132	C	1.813498	-0.010288	0.395432
C133	C	1.255456	-0.388414	-0.354590
C134	C	1.505456	-0.138414	-0.104590
C135	C	1.755456	0.111586	0.145410
C136	C	2.005456	0.361586	0.395410
C137	C	1.337255	-0.388420	-0.354599
C138	C	1.587255	-0.138420	-0.104599
C139	C	1.837255	0.111580	0.145401
C140	C	2.087255	0.361580	0.395401
C141	C	1.063538	-0.388335	-0.546521
C142	C	1.313538	-0.138335	-0.296521
C143	C	1.563538	0.111665	-0.046521
C144	C	1.813538	0.361665	0.203479
C145	C	1.063553	-0.388308	-0.628320
C146	C	1.313553	-0.138308	-0.378320
C147	C	1.563553	0.111692	-0.128320
C148	C	1.813553	0.361692	0.121680
C149	C	1.063593	-0.178091	-0.354615
C150	C	1.313593	0.071909	-0.104615
C151	C	1.563593	0.321909	0.145385
C152	C	1.813593	0.571909	0.395385
C153	C	1.063631	-0.088469	-0.354635
C154	C	1.313631	0.161531	-0.104635
C155	C	1.563631	0.411531	0.145365
C156	C	1.813631	0.661531	0.395365
C157	C	1.016545	-0.336699	-0.816521
C158	C	1.266545	-0.086699	-0.566521
C159	C	1.516545	0.163301	-0.316521
C160	C	1.766545	0.413301	-0.066521
C161	C	1.016558	-0.336683	-0.893380
C162	C	1.266558	-0.086683	-0.643380
C163	C	1.516558	0.163317	-0.393380
C164	C	1.766558	0.413317	-0.143380
C165	C	1.110648	-0.439820	-0.893357
C166	C	1.360648	-0.189820	-0.643357
C167	C	1.610648	0.060180	-0.393357
C168	C	1.860648	0.310180	-0.143357
C169	C	1.110631	-0.439840	-0.816500
C170	C	1.360631	-0.189840	-0.566500
C171	C	1.610631	0.060160	-0.316500
C172	C	1.860631	0.310160	-0.066500
C173	C	1.063581	-0.388275	-0.778084
C174	C	1.313581	-0.138275	-0.528084
C175	C	1.563581	0.111725	-0.278084
C176	C	1.813581	0.361725	-0.028084
C177	C	1.063611	-0.388239	-0.931800
C178	C	1.313611	-0.138239	-0.681800
C179	C	1.563611	0.111761	-0.431800
C180	C	1.813611	0.361761	-0.181800
C181	C	1.063625	-0.388221	-1.015134
C182	C	1.313625	-0.138221	-0.765134
C183	C	1.563625	0.111779	-0.515134
C184	C	1.813625	0.361779	-0.265134
C185	C	1.063565	-0.388293	-0.694745
C186	C	1.313565	-0.138293	-0.444745
C187	C	1.563565	0.111707	-0.194745
C188	C	1.813565	0.361707	0.055255
C189	C	1.063511	-0.388405	-0.163362
C190	C	1.313511	-0.138405	0.086638
C191	C	1.563511	0.111595	0.336638
C192	C	1.813511	0.361595	0.586638
C193	C	1.063639	-0.388206	-0.081563
C194	C	1.313639	-0.138206	0.168437
C195	C	1.563639	0.111794	0.418437
C196	C	1.813639	0.361794	0.668437
H197	H	0.494151	-0.294743	-0.269350
H198	H	0.744151	-0.044743	-0.019350
H199	H	0.994151	0.205257	0.230650
H200	H	1.244151	0.455257	0.480650
F201	F	1.160693	-0.494740	-0.775589
F202	F	1.410693	-0.244740	-0.525589
F203	F	1.660693	0.005260	-0.275589
F204	F	1.910693	0.255260	-0.025589
F205	F	0.643206	-0.494984	-0.451553
F206	F	0.893206	-0.244984	-0.201553
F207	F	1.143206	0.005016	0.048447
F208	F	1.393206	0.255016	0.298447
H209	H	0.494169	-0.482078	-0.439823
H210	H	0.744169	-0.232078	-0.189823
H211	H	0.994169	0.017922	0.060177
H212	H	1.244169	0.267922	0.310177
H213	H	0.633592	-0.294725	-0.269333
H214	H	0.883592	-0.044725	-0.019333
H215	H	1.133592	0.205275	0.230667
H216	H	1.383592	0.455275	0.480667
F217	F	0.966468	-0.281821	-0.775639
F218	F	1.216468	-0.031821	-0.525639
F219	F	1.466468	0.218179	-0.275639
F220	F	1.716468	0.468179	-0.025639
F221	F	0.966489	-0.281797	-0.934285
F222	F	1.216489	-0.031797	-0.684285
F223	F	1.466489	0.218203	-0.434285
F224	F	1.716489	0.468203	-0.184285
H225	H	1.148955	-0.481802	-0.924644
H226	H	1.398955	-0.231802	-0.674644
H227	H	1.648955	0.018198	-0.424644
H228	H	1.898955	0.268198	-0.174644
