data_functionalizedCrystal
_audit_creation_method	'MofGen! by Chris Wilmer'
_symmetry_space_group_name_H-M	'P1'
_symmetry_Int_Tables_number	1
_symmetry_cell_setting	triclinic
loop_
_symmetry_equiv_pos_as_xyz
  x,y,z
_cell_length_a	13.897449
_cell_length_b	16.625545
_cell_length_c	13.897441
_cell_angle_alpha	89.968843
_cell_angle_beta	89.976606
_cell_angle_gamma	90.026384
loop_
_atom_site_label
_atom_site_type_symbol
_atom_site_fract_x
_atom_site_fract_y
_atom_site_fract_z
Zn1	Zn	1.474650	-0.320958	-0.545446
Zn2	Zn	1.724650	-0.070958	-0.295446
Zn3	Zn	1.974650	0.179042	-0.045446
Zn4	Zn	2.224650	0.429042	0.204554
Zn5	Zn	1.474522	-0.455808	-0.384146
Zn6	Zn	1.724522	-0.205808	-0.134146
Zn7	Zn	1.974522	0.044192	0.115854
Zn8	Zn	2.224522	0.294192	0.365854
Zn9	Zn	1.313339	-0.320995	-0.384157
Zn10	Zn	1.563339	-0.070995	-0.134157
Zn11	Zn	1.813339	0.179005	0.115843
Zn12	Zn	2.063339	0.429005	0.365843
Zn13	Zn	1.313299	-0.455754	-0.545391
Zn14	Zn	1.563299	-0.205754	-0.295391
Zn15	Zn	1.813299	0.044246	-0.045391
Zn16	Zn	2.063299	0.294246	0.204609
O17	O	1.393952	-0.388379	-0.464785
O18	O	1.643952	-0.138379	-0.214785
O19	O	1.893952	0.111621	0.035215
O20	O	2.143952	0.361621	0.285215
O21	O	1.609615	-0.338853	-0.524068
O22	O	1.859615	-0.088853	-0.274068
O23	O	2.109615	0.161147	-0.024068
O24	O	2.359615	0.411147	0.225932
O25	O	1.453104	-0.437963	-0.249165
O26	O	1.703104	-0.187963	0.000835
O27	O	1.953104	0.062037	0.250835
O28	O	2.203104	0.312037	0.500835
O29	O	1.334808	-0.208158	-0.405580
O30	O	1.584808	0.041842	-0.155580
O31	O	1.834808	0.291842	0.094420
O32	O	2.084808	0.541842	0.344420
O33	O	1.609520	-0.437927	-0.405561
O34	O	1.859520	-0.187927	-0.155561
O35	O	2.109520	0.062073	0.094439
O36	O	2.359520	0.312073	0.344439
O37	O	1.453322	-0.208131	-0.524078
O38	O	1.703322	0.041869	-0.274078
O39	O	1.953322	0.291869	-0.024078
O40	O	2.203322	0.541869	0.225922
O41	O	1.334684	-0.338917	-0.249174
O42	O	1.584684	-0.088917	0.000826
O43	O	1.834684	0.161083	0.250826
O44	O	2.084684	0.411083	0.500826
O45	O	1.178352	-0.338865	-0.405526
O46	O	1.428352	-0.088865	-0.155526
O47	O	1.678352	0.161135	0.094474
O48	O	1.928352	0.411135	0.344474
O49	O	1.334739	-0.437835	-0.680380
O50	O	1.584739	-0.187835	-0.430380
O51	O	1.834739	0.062165	-0.180380
O52	O	2.084739	0.312165	0.069620
O53	O	1.178322	-0.437871	-0.523984
O54	O	1.428322	-0.187871	-0.273984
O55	O	1.678322	0.062129	-0.023984
O56	O	1.928322	0.312129	0.226016
O57	O	1.453283	-0.338801	-0.680420
O58	O	1.703283	-0.088801	-0.430420
O59	O	1.953283	0.161199	-0.180420
O60	O	2.203283	0.411199	0.069580
O61	O	1.453065	-0.568634	-0.405508
O62	O	1.703065	-0.318634	-0.155508
O63	O	1.953065	-0.068634	0.094492
O64	O	2.203065	0.181366	0.344492
O65	O	1.334615	-0.568594	-0.523974
O66	O	1.584615	-0.318594	-0.273974
O67	O	1.834615	-0.068594	-0.023974
O68	O	2.084615	0.181406	0.226026
C69	C	1.143338	-0.388367	-0.464751
C70	C	1.393338	-0.138367	-0.214751
C71	C	1.643338	0.111633	0.035249
C72	C	1.893338	0.361633	0.285249
C73	C	1.036124	-0.388381	-0.464760
C74	C	1.286124	-0.138381	-0.214760
C75	C	1.536124	0.111619	0.035240
C76	C	1.786124	0.361619	0.285240
C77	C	0.949054	-0.388383	-0.464776
C78	C	1.199054	-0.138383	-0.214776
C79	C	1.449054	0.111617	0.035224
C80	C	1.699054	0.361617	0.285224
C81	C	0.839822	-0.388389	-0.464805
C82	C	1.089822	-0.138389	-0.214805
C83	C	1.339822	0.111611	0.035195
C84	C	1.589822	0.361611	0.285195
C85	C	1.393848	-0.597870	-0.464754
C86	C	1.643848	-0.347870	-0.214754
C87	C	1.893848	-0.097870	0.035246
C88	C	2.143848	0.152130	0.285246
C89	C	1.393891	-0.687491	-0.464774
C90	C	1.643891	-0.437491	-0.214774
C91	C	1.893891	-0.187491	0.035226
C92	C	2.143891	0.062509	0.285226
C93	C	1.393928	-0.760273	-0.464793
C94	C	1.643928	-0.510273	-0.214793
C95	C	1.893928	-0.260273	0.035207
C96	C	2.143928	-0.010273	0.285207
C97	C	1.393985	-0.851582	-0.464814
C98	C	1.643985	-0.601582	-0.214814
C99	C	1.893985	-0.351582	0.035186
C100	C	2.143985	-0.101582	0.285186
C101	C	1.394035	-0.924358	-0.464826
C102	C	1.644035	-0.674358	-0.214826
C103	C	1.894035	-0.424358	0.035174
C104	C	2.144035	-0.174358	0.285174
C105	C	1.394090	-1.015673	-0.464846
C106	C	1.644090	-0.765673	-0.214846
C107	C	1.894090	-0.515673	0.035154
C108	C	2.144090	-0.265673	0.285154
C109	C	1.645545	-0.388392	-0.464819
C110	C	1.895545	-0.138392	-0.214819
C111	C	2.145545	0.111608	0.035181
C112	C	2.395545	0.361608	0.285181
C113	C	1.752759	-0.388398	-0.464834
C114	C	2.002759	-0.138398	-0.214834
C115	C	2.252759	0.111602	0.035166
C116	C	2.502759	0.361602	0.285166
C117	C	1.394021	-0.388308	-0.716378
C118	C	1.644021	-0.138308	-0.466378
C119	C	1.894021	0.111692	-0.216378
C120	C	2.144021	0.361692	0.033622
C121	C	1.394050	-0.388277	-0.823592
C122	C	1.644050	-0.138277	-0.573592
C123	C	1.894050	0.111723	-0.323592
C124	C	2.144050	0.361723	-0.073592
C125	C	1.394084	-0.178070	-0.464836
C126	C	1.644084	0.071930	-0.214836
C127	C	1.894084	0.321930	0.035164
C128	C	2.144084	0.571930	0.285164
C129	C	1.394140	-0.088449	-0.464858
C130	C	1.644140	0.161551	-0.214858
C131	C	1.894140	0.411551	0.035142
C132	C	2.144140	0.661551	0.285142
C133	C	1.394076	-0.388223	-1.019887
C134	C	1.644076	-0.138223	-0.769887
C135	C	1.894076	0.111777	-0.519887
C136	C	2.144076	0.361777	-0.269887
C137	C	1.394059	-0.388255	-0.910655
C138	C	1.644059	-0.138255	-0.660655
C139	C	1.894059	0.111745	-0.410655
C140	C	2.144059	0.361745	-0.160655
C141	C	1.393940	-0.388392	-0.214170
C142	C	1.643940	-0.138392	0.035830
C143	C	1.893940	0.111608	0.285830
C144	C	2.143940	0.361608	0.535830
C145	C	1.394097	-0.388195	-0.106957
C146	C	1.644097	-0.138195	0.143043
C147	C	1.894097	0.111805	0.393043
C148	C	2.144097	0.361805	0.643043
