data_functionalizedCrystal
_audit_creation_method	'MofGen! by Chris Wilmer'
_symmetry_space_group_name_H-M	'P1'
_symmetry_Int_Tables_number	1
_symmetry_cell_setting	triclinic
loop_
_symmetry_equiv_pos_as_xyz
  x,y,z
_cell_length_a	16.109302
_cell_length_b	19.188930
_cell_length_c	14.586319
_cell_angle_alpha	90.017486
_cell_angle_beta	90.010194
_cell_angle_gamma	83.303281
loop_
_atom_site_label
_atom_site_type_symbol
_atom_site_fract_x
_atom_site_fract_y
_atom_site_fract_z
O1	O	1.102838	0.089755	0.076292
O2	O	0.860739	0.100923	0.076286
O3	O	0.988775	-0.006301	0.076271
O4	O	0.974802	0.196978	0.076307
O5	O	0.988757	-0.006319	-0.076209
O6	O	0.860721	0.100905	-0.076195
O7	O	1.102820	0.089737	-0.076189
Cu8	Cu	0.981769	0.095319	-0.090114
Cu9	Cu	0.981790	0.095340	0.090212
O10	O	0.974784	0.196960	-0.076174
C11	C	0.829756	0.100461	0.000045
C12	C	0.737466	0.099105	0.000042
C13	C	0.525125	0.095958	-0.083067
C14	C	0.438409	0.094676	-0.083064
C15	C	0.438439	0.094699	0.083179
C16	C	0.525155	0.095976	0.083175
C17	C	0.568495	0.096609	0.000049
C18	C	0.395064	0.094050	0.000056
C19	C	0.301043	0.092660	0.000060
C20	C	0.662522	0.097998	0.000045
C21	C	0.988313	-0.032322	0.000028
C22	C	0.986955	-0.109829	0.000020
C23	C	1.062082	-0.154578	0.000018
C24	C	1.060806	-0.227404	0.000032
C25	C	0.984398	-0.255480	0.000031
C26	C	0.909261	-0.210722	0.000039
C27	C	0.910539	-0.137897	0.000034
N28	N	0.925988	-0.363628	-0.051862
N29	N	0.924778	-0.432809	-0.051859
C30	C	0.980542	-0.474897	0.000050
N31	N	1.037574	-0.445192	0.051944
N32	N	1.038786	-0.376005	0.051936
C33	C	0.983004	-0.334446	0.000038
C34	C	1.054291	-0.598613	0.000064
C35	C	1.053012	-0.671441	0.000085
C36	C	0.901465	-0.654757	0.000082
C37	C	0.902746	-0.581931	0.000071
C38	C	0.979162	-0.553864	0.000058
C39	C	1.133802	0.090198	0.000055
C40	C	1.226093	0.091555	0.000064
C41	C	0.975245	0.222981	0.000071
C42	C	0.976604	0.300489	0.000085
N43	N	0.981760	0.095303	-0.216946
C44	C	0.931517	0.052975	-0.547984
C45	C	0.931511	0.052965	-0.452003
C46	C	1.032053	0.137681	-0.451925
C47	C	1.032064	0.137686	-0.547905
C48	C	0.981791	0.095334	-0.595932
C49	C	0.981774	0.095319	-0.403971
C50	C	0.981767	0.095309	-0.299904
C51	C	0.981799	0.095343	-0.700005
N52	N	0.981805	0.095350	0.217044
H53	H	1.121986	-0.263845	0.000034
O54	O	0.396203	0.094119	0.163841
C55	C	0.310368	0.092837	0.146024
H56	H	0.294989	0.114743	0.074592
H57	H	0.294686	0.036496	0.149959
C58	C	0.277453	0.111049	0.305472
C59	C	0.258563	0.137959	0.217741
H60	H	0.245496	0.138880	0.349712
H61	H	0.335282	0.111910	0.317477
H62	H	0.264385	0.064098	0.308738
H63	H	0.271641	0.184906	0.214472
H64	H	0.200735	0.137107	0.205737
H65	H	0.560467	0.096505	0.150862
H66	H	0.890583	0.018488	-0.587085
H67	H	1.124305	-0.131731	0.000010
O68	O	0.837634	-0.094325	0.000072
C69	C	0.855147	-0.024028	0.000038
H70	H	0.920445	-0.021243	0.028903
H71	H	0.851909	-0.002989	-0.073118
C72	C	0.710247	0.017155	0.024378
C73	C	0.790444	0.020577	0.059838
H74	H	0.670333	0.044671	0.061262
H75	H	0.698446	-0.030205	0.024397
H76	H	0.707560	0.034687	-0.036584
H77	H	0.793133	0.003037	0.120795
H78	H	0.802243	0.067935	0.059831
H79	H	1.114192	-0.707875	0.000088
O80	O	0.835091	-0.238074	0.000158
C81	C	0.829820	-0.279667	0.079142
H82	H	0.895420	-0.297812	0.105470
H83	H	0.792929	-0.247472	0.134441
C84	C	0.704714	-0.321796	0.022821
C85	C	0.785284	-0.344086	0.055152
H86	H	0.677239	-0.361531	0.008025
H87	H	0.708262	-0.293771	-0.030391
H88	H	0.673981	-0.294966	0.068908
H89	H	0.816018	-0.370908	0.009061
H90	H	0.781740	-0.372116	0.108356
O91	O	1.128444	-0.571227	0.000022
C92	C	1.113463	-0.497354	0.000033
H93	H	1.048517	-0.480248	-0.028840
H94	H	1.117424	-0.477060	0.073183
C95	C	1.259250	-0.488188	-0.024304
C96	C	1.179484	-0.467178	-0.059774
H97	H	1.299976	-0.469573	-0.061192
H98	H	1.269344	-0.537958	-0.024308
H99	H	1.262539	-0.471275	0.036654
H100	H	1.176193	-0.484099	-0.120725
H101	H	1.169391	-0.417410	-0.059781
H102	H	0.560410	0.096473	-0.150753
O103	O	0.396404	0.094079	-0.163885
C104	C	0.453258	0.094892	-0.237249
H105	H	0.511551	0.117899	-0.212879
H106	H	0.471407	0.039045	-0.262817
C107	C	0.340507	0.111886	-0.345704
C108	C	0.412100	0.140148	-0.315773
H109	H	0.315118	0.139799	-0.394143
H110	H	0.302202	0.111335	-0.296278
H111	H	0.355641	0.065347	-0.367003
H112	H	0.396964	0.186682	-0.294464
H113	H	0.450401	0.140708	-0.365198
H114	H	1.073007	0.172181	-0.586945
O115	O	0.882596	0.011800	-0.405569
C116	C	0.838246	-0.025591	-0.468545
H117	H	0.833298	0.003318	-0.536947
H118	H	0.872693	-0.080389	-0.478773
C119	C	0.756032	-0.066971	-0.347106
C120	C	0.749948	-0.031461	-0.431116
H121	H	0.701567	-0.070594	-0.324017
H122	H	0.785913	-0.041782	-0.304677
H123	H	0.784741	-0.112632	-0.355641
H124	H	0.721249	0.014202	-0.422578
H125	H	0.720060	-0.056642	-0.473543
O126	O	0.827314	-0.682136	0.000045
C127	C	0.842294	-0.756010	0.000078
H128	H	0.907233	-0.773134	-0.028791
H129	H	0.838352	-0.776258	0.073235
C130	C	0.696501	-0.765189	-0.024251
C131	C	0.776257	-0.786221	-0.059717
H132	H	0.655764	-0.783826	-0.061132
H133	H	0.686407	-0.715419	-0.024271
H134	H	0.693228	-0.782064	0.036712
H135	H	0.779532	-0.769339	-0.120674
H136	H	0.786349	-0.835990	-0.059709
H137	H	0.841569	-0.545495	0.000068
H138	H	1.072982	0.172163	-0.412810
