data_functionalizedCrystal
_audit_creation_method	'MofGen! by Chris Wilmer'
_symmetry_space_group_name_H-M	'P1'
_symmetry_Int_Tables_number	1
_symmetry_cell_setting	triclinic
loop_
_symmetry_equiv_pos_as_xyz
  x,y,z
_cell_length_a	19.077105
_cell_length_b	16.959454
_cell_length_c	19.076919
_cell_angle_alpha	92.275489
_cell_angle_beta	90.076224
_cell_angle_gamma	87.716588
loop_
_atom_site_label
_atom_site_type_symbol
_atom_site_fract_x
_atom_site_fract_y
_atom_site_fract_z
Zn1	Zn	1.058295	-0.382399	-0.440440
Zn2	Zn	1.062944	-0.509490	-0.322940
Zn3	Zn	0.945513	-0.371810	-0.318233
Zn4	Zn	0.940765	-0.509013	-0.435693
O5	O	1.001879	-0.443178	-0.379326
O6	O	1.157244	-0.403889	-0.428810
O7	O	1.051298	-0.486995	-0.223984
O8	O	0.960515	-0.262606	-0.334460
O9	O	1.160659	-0.497262	-0.342484
O10	O	1.043376	-0.270386	-0.424245
O11	O	0.965022	-0.385842	-0.220526
O12	O	0.846551	-0.385379	-0.329857
O13	O	0.952424	-0.496450	-0.534654
O14	O	0.843063	-0.486182	-0.416155
O15	O	1.038773	-0.403426	-0.538142
O16	O	1.046695	-0.620035	-0.337881
O17	O	0.956931	-0.619685	-0.420720
C18	C	0.819311	-0.434581	-0.371980
C19	C	0.741206	-0.430922	-0.368854
C20	C	0.702718	-0.481759	-0.412246
C21	C	0.629330	-0.478312	-0.409312
C22	C	0.594433	-0.424030	-0.362983
C23	C	0.632926	-0.373188	-0.319590
C24	C	0.706312	-0.376632	-0.322528
C25	C	0.375144	-0.408090	-0.349389
C26	C	0.301753	-0.404651	-0.346453
C27	C	0.298162	-0.509774	-0.436177
C28	C	0.371550	-0.513217	-0.439107
C29	C	0.410037	-0.462372	-0.395717
N30	N	0.519419	-0.420507	-0.359981
N31	N	0.485049	-0.465892	-0.398723
C32	C	1.001821	-0.648541	-0.379312
C33	C	1.001859	-0.736400	-0.379332
C34	C	0.955205	-1.107727	-0.422458
C35	C	1.048747	-1.108038	-0.336274
C36	C	1.048723	-1.025491	-0.336266
C37	C	1.001938	-0.984058	-0.379355
C38	C	0.955178	-1.025172	-0.422451
C39	C	1.095477	-0.984370	-0.293166
C40	C	1.095454	-0.901818	-0.293156
C41	C	1.048672	-0.860383	-0.336249
C42	C	1.001911	-0.901503	-0.379347
C43	C	0.955126	-0.860069	-0.422436
C44	C	0.908367	-0.901187	-0.465538
C45	C	0.908396	-0.983737	-0.465543
C46	C	1.048644	-0.777834	-0.336244
C47	C	0.955099	-0.777514	-0.422428
C48	C	1.185161	-0.451810	-0.386702
C49	C	1.263265	-0.455488	-0.389844
C50	C	0.994550	-0.451066	-0.562607
C51	C	0.991427	-0.454427	-0.640710
C52	C	1.001956	-0.237015	-0.379357
C53	C	1.001989	-0.149160	-0.379370
C54	C	1.034915	-0.407577	-0.679220
C55	C	1.031972	-0.410731	-0.752606
C56	C	0.985544	-0.460742	-0.787481
C57	C	0.942052	-0.507595	-0.748966
C58	C	0.944992	-0.504435	-0.675581
C59	C	0.971927	-0.475381	-1.006763
C60	C	0.968992	-0.478539	-1.080153
C61	C	1.058911	-0.381674	-1.083788
C62	C	1.061850	-0.378523	-1.010402
C63	C	1.018355	-0.425372	-0.971893
N64	N	0.982536	-0.463970	-0.862493
N65	N	1.021360	-0.422140	-0.896882
C66	C	1.009220	-0.435266	-0.196760
C67	C	1.012479	-0.431688	-0.118663
H68	H	0.273341	-0.360439	-0.308731
H69	H	0.936521	-0.513541	-0.975418
O70	O	1.094089	-0.737812	-0.294477
C71	C	1.137842	-0.693887	-0.336338
H72	H	1.110889	-0.682649	-0.388572
H73	H	1.189610	-0.728441	-0.346194
C74	C	1.185221	-0.628212	-0.234036
C75	C	1.152114	-0.614403	-0.298188
H76	H	1.194027	-0.579184	-0.210503
H77	H	1.155746	-0.657807	-0.205833
H78	H	1.228357	-0.657009	-0.242259
H79	H	1.108975	-0.585615	-0.289965
H80	H	1.181582	-0.584801	-0.326389
H81	H	1.072724	-0.366855	-0.650831
O82	O	0.591866	-0.527728	-0.451357
C83	C	0.551010	-0.574997	-0.409567
H84	H	0.542143	-0.544214	-0.355920
H85	H	0.579585	-0.634551	-0.402885
C86	C	0.490648	-0.625576	-0.511304
C87	C	0.479753	-0.587764	-0.445415
H88	H	0.446695	-0.633455	-0.533417
H89	H	0.518176	-0.593732	-0.539459
H90	H	0.514463	-0.675200	-0.505726
H91	H	0.455947	-0.538137	-0.450994
H92	H	0.452220	-0.619600	-0.417261
H93	H	0.406472	-0.366694	-0.314052
H94	H	0.399959	-0.557420	-0.476832
H95	H	1.067386	-0.372582	-0.783958
H96	H	0.604506	-0.328988	-0.281870
H97	H	0.870272	-0.867443	-0.500618
O98	O	0.909621	-0.737177	-0.464187
C99	C	0.865837	-0.685637	-0.422316
H100	H	0.892785	-0.672138	-0.370081
H101	H	0.814092	-0.714718	-0.412464
C102	C	0.818412	-0.624865	-0.524603
C103	C	0.851512	-0.608281	-0.460449
H104	H	0.809572	-0.577149	-0.548126
H105	H	0.847908	-0.659591	-0.552813
H106	H	0.775294	-0.649101	-0.516384
H107	H	0.894632	-0.584055	-0.468669
H108	H	0.822023	-0.573549	-0.432241
H109	H	1.133562	-1.018111	-0.258080
H110	H	0.931183	-0.519265	-1.108546
O111	O	1.101256	-0.336249	-1.121169
C112	C	1.172003	-0.356033	-1.106044
H113	H	1.176338	-0.418477	-1.086005
H114	H	1.192090	-0.312688	-1.064192
C115	C	1.210967	-0.275149	-1.197736
C116	C	1.216292	-0.351847	-1.173130
H117	H	1.238288	-0.272564	-1.239117
H118	H	1.163304	-0.261818	-1.207925
H119	H	1.227705	-0.239037	-1.162854
H120	H	1.199545	-0.387956	-1.208009
H121	H	1.263954	-0.365184	-1.162949
O122	O	1.106870	-0.329811	-0.976569
C123	C	1.090820	-0.251093	-0.993927
H124	H	1.033874	-0.245343	-1.011829
H125	H	1.126784	-0.234048	-1.038057
C126	C	1.171574	-0.202959	-0.907103
C127	C	1.101630	-0.195896	-0.929086
H128	H	1.178245	-0.168909	-0.867108
H129	H	1.182390	-0.255992	-0.895410
H130	H	1.201536	-0.188756	-0.943884
H131	H	1.071670	-0.210108	-0.892308
H132	H	1.090810	-0.142863	-0.940771
H133	H	0.737648	-0.335231	-0.287197
H134	H	0.917137	-1.141209	-0.457553
O135	O	0.897012	-0.556156	-0.782952
C136	C	0.903729	-0.548886	-0.855981
H137	H	0.957567	-0.525988	-0.868195
H138	H	0.861232	-0.505727	-0.875134
C139	C	0.829624	-0.658304	-0.878384
C140	C	0.895751	-0.630186	-0.893385
H141	H	0.824699	-0.708452	-0.901457
H142	H	0.825096	-0.663200	-0.829183
H143	H	0.794217	-0.622330	-0.894344
H144	H	0.931156	-0.666154	-0.877416
H145	H	0.900284	-0.625297	-0.942584
H146	H	0.731126	-0.525964	-0.449970
O147	O	0.863070	-1.023773	-0.507443
C148	C	0.901238	-1.075304	-0.554482
H149	H	0.955505	-1.089069	-0.531889
H150	H	0.906819	-1.046078	-0.606871
C151	C	0.795432	-1.135569	-0.593362
C152	C	0.862082	-1.152482	-0.565611
H153	H	0.771279	-1.183175	-0.600231
H154	H	0.769718	-1.100850	-0.561674
H155	H	0.800093	-1.111213	-0.637018
H156	H	0.857420	-1.176828	-0.521953
H157	H	0.887795	-1.187207	-0.597293
O158	O	1.140945	-0.862005	-0.251274
C159	C	1.182230	-0.916276	-0.213232
H160	H	1.183503	-0.976465	-0.242116
H161	H	1.158681	-0.921581	-0.158809
C162	C	1.255857	-0.813165	-0.170703
C163	C	1.257425	-0.887088	-0.206181
H164	H	1.302240	-0.795159	-0.166350
H165	H	1.228041	-0.776600	-0.196330
H166	H	1.236230	-0.817595	-0.125354
H167	H	1.277043	-0.882655	-0.251531
H168	H	1.285246	-0.923652	-0.180561
H169	H	0.266818	-0.551169	-0.471504
H170	H	1.086833	-1.141778	-0.301189
H171	H	0.909572	-0.542578	-0.644227
