data_functionalizedCrystal
_audit_creation_method	'MofGen! by Chris Wilmer'
_symmetry_space_group_name_H-M	'P1'
_symmetry_Int_Tables_number	1
_symmetry_cell_setting	triclinic
loop_
_symmetry_equiv_pos_as_xyz
  x,y,z
_cell_length_a	17.699097
_cell_length_b	10.723023
_cell_length_c	9.798715
_cell_angle_alpha	89.998168
_cell_angle_beta	89.992158
_cell_angle_gamma	83.877989
loop_
_atom_site_label
_atom_site_type_symbol
_atom_site_fract_x
_atom_site_fract_y
_atom_site_fract_z
O1	O	1.005065	0.157870	-0.113602
O2	O	0.784817	0.178382	-0.113579
O3	O	0.900022	-0.013537	-0.113585
O4	O	0.889860	0.349789	-0.113595
O5	O	0.900012	-0.013536	0.113397
O6	O	0.784807	0.178383	0.113403
O7	O	1.005055	0.157871	0.113381
Zn8	Zn	0.894930	0.168127	0.149430
Zn9	Zn	0.894943	0.168126	-0.149629
O10	O	0.889851	0.349790	0.113387
C11	C	0.756611	0.177645	-0.000085
C12	C	0.672579	0.175431	-0.000076
C13	C	0.156781	0.161863	-0.123859
C14	C	0.235738	0.163935	-0.123852
C15	C	0.275205	0.164973	-0.000119
C16	C	0.235712	0.163927	0.123616
C17	C	0.156757	0.161847	0.123608
C18	C	0.554129	0.172314	0.123652
C19	C	0.633089	0.174398	0.123650
C20	C	0.633110	0.174402	-0.123809
C21	C	0.554155	0.172322	-0.123817
C22	C	0.514669	0.171270	-0.000083
C23	C	0.429055	0.169021	-0.000092
C24	C	0.360817	0.167230	-0.000109
C25	C	0.899277	-0.060024	-0.000095
C26	C	0.897065	-0.198540	-0.000100
C27	C	0.896084	-0.260290	-0.117685
C28	C	0.893798	-0.403454	-0.117692
C29	C	1.033261	0.158608	-0.000116
C30	C	1.117293	0.160821	-0.000134
C31	C	0.890595	0.396276	-0.000106
C32	C	0.892807	0.534793	-0.000111
N33	N	0.894926	0.168127	0.353530
C34	C	0.939057	0.239736	0.421301
C35	C	0.939068	0.239736	0.578464
N36	N	0.894946	0.168126	0.646272
H37	H	0.522024	0.171483	-0.224573
H38	H	0.896934	-0.207166	-0.218349
H39	H	0.976833	0.301037	0.362970
Cl40	Cl	0.682704	0.175701	0.279213
Cl41	Cl	0.836608	0.073461	0.443577
Cl42	Cl	0.836604	0.073471	0.556306
Cl43	Cl	0.285328	0.165230	0.279168
Cl44	Cl	0.682755	0.175716	-0.279363
H45	H	0.124652	0.161027	-0.224618
Cl46	Cl	0.285377	0.165238	-0.279400
H47	H	0.893654	-0.412113	0.100564
Cl48	Cl	0.895743	-0.280545	0.155326
Cl49	Cl	0.892502	-0.485435	-0.273126
Cl50	Cl	0.504497	0.171025	0.279204
Cl51	Cl	0.107115	0.160525	0.279155
Cl52	Cl	0.997399	0.334401	0.668438
