data_functionalizedCrystal
_audit_creation_method	'MofGen! by Chris Wilmer'
_symmetry_space_group_name_H-M	'P1'
_symmetry_Int_Tables_number	1
_symmetry_cell_setting	triclinic
loop_
_symmetry_equiv_pos_as_xyz
  x,y,z
_cell_length_a	15.944551
_cell_length_b	15.995350
_cell_length_c	14.472310
_cell_angle_alpha	89.998838
_cell_angle_beta	90.008536
_cell_angle_gamma	83.495556
loop_
_atom_site_label
_atom_site_type_symbol
_atom_site_fract_x
_atom_site_fract_y
_atom_site_fract_z
O1	O	-1.114529	-0.107983	-0.076740
O2	O	-0.614529	0.392017	0.423260
O3	O	-0.869979	-0.121297	-0.076762
O4	O	-0.369979	0.378703	0.423238
O5	O	-0.998939	0.007247	-0.076750
O6	O	-0.498939	0.507247	0.423250
O7	O	-0.985569	-0.236527	-0.076753
O8	O	-0.485569	0.263473	0.423247
O9	O	-0.998906	0.007240	0.076932
O10	O	-0.498906	0.507240	0.576932
O11	O	-0.869946	-0.121304	0.076920
O12	O	-0.369946	0.378696	0.576920
O13	O	-1.114496	-0.107990	0.076942
O14	O	-0.614496	0.392010	0.576942
Cu15	Cu	-0.992218	-0.114648	0.090963
Cu16	Cu	-0.492218	0.385352	0.590963
Cu17	Cu	-0.992257	-0.114639	-0.090784
Cu18	Cu	-0.492257	0.385361	0.409216
O19	O	-0.985536	-0.236535	0.076929
O20	O	-0.485536	0.263465	0.576929
C21	C	-0.838668	-0.120748	0.000076
C22	C	-0.338668	0.379252	0.500076
C23	C	-0.745422	-0.119091	0.000067
C24	C	-0.245422	0.380909	0.500067
C25	C	-1.145806	-0.108539	0.000102
C26	C	-0.645806	0.391461	0.500102
C27	C	-1.239052	-0.110196	0.000105
C28	C	-0.739052	0.389804	0.500105
C29	C	-0.998370	0.038438	0.000090
C30	C	-0.498370	0.538438	0.500090
C31	C	-0.996712	0.131389	0.000084
C32	C	-0.496712	0.631389	0.500084
C33	C	-0.530570	-0.035452	0.000086
C34	C	-0.030570	0.464548	0.500086
C35	C	-0.469564	-0.074288	-0.075688
C36	C	0.030436	0.425712	0.424312
C37	C	-0.574697	-0.116093	0.000078
C38	C	-0.074697	0.383907	0.500078
C39	C	-0.469554	-0.074314	0.075831
C40	C	0.030446	0.425686	0.575831
C41	C	-0.409784	-0.113192	0.000093
C42	C	0.090216	0.386808	0.500093
C43	C	-0.514919	-0.154950	-0.075758
C44	C	-0.014919	0.345050	0.424242
C45	C	-0.514915	-0.154966	0.075828
C46	C	-0.014915	0.345034	0.575828
C47	C	-0.453926	-0.193859	0.000036
C48	C	0.046074	0.306141	0.500036
C49	C	-0.669699	-0.117762	0.000069
C50	C	-0.169699	0.382238	0.500069
C51	C	-0.314783	-0.111529	0.000095
C52	C	0.185217	0.388471	0.500095
C53	C	-0.986105	-0.267726	0.000088
C54	C	-0.486105	0.232274	0.500088
C55	C	-0.987762	-0.360676	0.000087
C56	C	-0.487762	0.139324	0.500087
N57	N	-0.992196	-0.114654	0.218794
N58	N	-0.492196	0.385346	0.718794
C59	C	-0.990761	0.469137	0.000087
C60	C	-0.490761	0.969137	0.500087
C61	C	-0.898918	0.421708	-0.000266
C62	C	-0.398918	0.921708	0.499734
C63	C	-0.900576	0.325017	0.000080
C64	C	-0.400576	0.825017	0.500080
C65	C	-0.993713	0.301576	0.000085
C66	C	-0.493713	0.801576	0.500085
C67	C	-1.038995	0.342647	0.087847
C68	C	-0.538995	0.842647	0.587847
C69	C	-1.036687	0.439283	0.087921
C70	C	-0.536687	0.939283	0.587921
C71	C	-1.038622	0.439649	-0.086844
C72	C	-0.538622	0.939649	0.413156
C73	C	-1.038601	0.342704	-0.088004
C74	C	-0.538601	0.842704	0.411996
C75	C	-0.995386	0.206878	0.000087
C76	C	-0.495386	0.706878	0.500087
C77	C	-0.989091	0.563835	0.000091
C78	C	-0.489091	1.063835	0.500091
N79	N	-0.992285	-0.114627	-0.218614
N80	N	-0.492285	0.385373	0.281386
C81	C	-0.992256	-0.114636	0.592885
C82	C	-0.492256	0.385364	1.092885
C83	C	-0.923020	-0.183187	0.553713
C84	C	-0.423020	0.316813	1.053713
C85	C	-0.923180	-0.183437	0.446625
C86	C	-0.423180	0.316563	0.946625
C87	C	-0.992226	-0.114645	0.407294
C88	C	-0.492226	0.385355	0.907294
C89	C	-1.079868	-0.133731	0.446139
C90	C	-0.579868	0.366269	0.946139
C91	C	-1.079479	-0.134219	0.553261
C92	C	-0.579479	0.365781	1.053261
C93	C	-0.974631	-0.026795	0.553414
C94	C	-0.474631	0.473205	1.053414
C95	C	-0.972621	-0.027381	0.446286
C96	C	-0.472621	0.472619	0.946286
C97	C	-0.992214	-0.114648	0.302406
C98	C	-0.492214	0.385352	0.802406
C99	C	-0.992273	-0.114634	0.697774
C100	C	-0.492273	0.385366	1.197774
H101	H	-0.563907	0.031473	-0.000007
H102	H	-0.063907	0.531473	0.499993
F103	F	-0.443301	-0.029705	-0.159422
F104	F	0.056699	0.470295	0.340578
F105	F	-0.541210	-0.199515	0.159564
F106	F	-0.041210	0.300485	0.659564
H107	H	-0.534918	-0.189029	-0.139889
H108	H	-0.034918	0.310971	0.360111
F109	F	-0.995662	0.306706	-0.172878
F110	F	-0.495662	0.806706	0.327122
F111	F	-0.443285	-0.029720	0.159561
F112	F	0.056715	0.470280	0.659561
F113	F	-0.410578	-0.281424	-0.000018
F114	F	0.089422	0.218576	0.499982
F115	F	-0.854050	0.287872	-0.082150
F116	F	-0.354050	0.787872	0.417850
F117	F	-1.128432	0.324180	0.092121
F118	F	-0.628432	0.824180	0.592121
H119	H	-0.857663	-0.172001	0.579495
H120	H	-0.357663	0.327999	1.079495
H121	H	-1.095771	-0.197063	0.419303
H122	H	-0.595771	0.302937	0.919303
F123	F	-1.148781	-0.071376	0.587132
F124	F	-0.648781	0.428624	1.087132
F125	F	-0.850952	0.445934	-0.082530
F126	F	-0.350952	0.945934	0.417470
H127	H	-0.862359	0.441301	0.062313
H128	H	-0.362359	0.941301	0.562313
H129	H	-0.864714	0.297152	0.063093
H130	H	-0.364714	0.797152	0.563093
F131	F	-0.993489	0.463204	0.173662
F132	F	-0.493489	0.963204	0.673662
H133	H	-1.007517	0.314264	0.153154
H134	H	-0.507517	0.814264	0.653154
H135	H	-1.104116	0.471527	0.091906
H136	H	-0.604116	0.971527	0.591906
H137	H	-1.132619	-0.085131	0.420661
H138	H	-0.632619	0.414869	0.920661
H139	H	-1.008609	0.460194	-0.153363
H140	H	-0.508609	0.960194	0.346637
H141	H	-1.106522	0.327338	-0.093300
H142	H	-0.606522	0.827338	0.406700
H143	H	-1.106338	0.471406	-0.087431
H144	H	-0.606338	0.971406	0.412569
H145	H	-0.858034	-0.172064	0.420363
H146	H	-0.358034	0.327936	0.920363
F147	F	-0.937864	-0.268646	0.413115
F148	F	-0.437864	0.231354	0.913115
F149	F	-0.937535	-0.267912	0.588870
F150	F	-0.437535	0.232088	1.088870
F151	F	-1.099779	-0.217952	0.585910
F152	F	-0.599779	0.282048	1.085910
F153	F	-0.892897	-0.002821	0.588759
F154	F	-0.392897	0.497179	1.088759
H155	H	-0.908150	-0.012896	0.420898
H156	H	-0.408150	0.487104	0.920898
H157	H	-1.019773	0.026022	0.419517
H158	H	-0.519773	0.526022	0.919517
H159	H	-1.025121	0.024218	0.578745
H160	H	-0.525121	0.524218	1.078745
