data_functionalizedCrystal
_audit_creation_method	'MofGen! by Chris Wilmer'
_symmetry_space_group_name_H-M	'P1'
_symmetry_Int_Tables_number	1
_symmetry_cell_setting	triclinic
loop_
_symmetry_equiv_pos_as_xyz
  x,y,z
_cell_length_a	14.519731
_cell_length_b	14.519709
_cell_length_c	13.596369
_cell_angle_alpha	89.999792
_cell_angle_beta	89.993567
_cell_angle_gamma	96.315501
loop_
_atom_site_label
_atom_site_type_symbol
_atom_site_fract_x
_atom_site_fract_y
_atom_site_fract_z
O1	O	-1.223856	0.120986	0.081803
O2	O	-0.723856	0.620986	0.581803
O3	O	-0.955382	0.135202	0.081798
O4	O	-0.455382	0.635202	0.581798
O5	O	-1.096737	-0.006144	0.081809
O6	O	-0.596737	0.493856	0.581809
O7	O	-1.082501	0.262332	0.081791
O8	O	-0.582501	0.762332	0.581791
O9	O	-1.096723	-0.006151	-0.081774
O10	O	-0.596723	0.493849	0.418226
O11	O	-0.955368	0.135195	-0.081785
O12	O	-0.455368	0.635195	0.418215
O13	O	-1.223842	0.120979	-0.081780
O14	O	-0.723842	0.620979	0.418220
Zn15	Zn	-1.089603	0.128086	-0.107755
Zn16	Zn	-0.589603	0.628086	0.392245
Zn17	Zn	-1.089621	0.128096	0.107772
Zn18	Zn	-0.589621	0.628096	0.607772
O19	O	-1.082487	0.262325	-0.081792
O20	O	-0.582487	0.762325	0.418208
C21	C	-0.921016	0.134532	0.000006
C22	C	-0.421016	0.634532	0.500006
C23	C	-0.818635	0.132536	0.000004
C24	C	-0.318635	0.632536	0.500004
C25	C	-0.735491	0.130915	0.000007
C26	C	-0.235491	0.630915	0.500007
C27	C	-0.631182	0.128888	0.000005
C28	C	-0.131182	0.628888	0.500005
C29	C	-0.548043	0.127280	0.000004
C30	C	-0.048043	0.627280	0.500004
C31	C	-0.443728	0.125253	0.000004
C32	C	0.056272	0.625253	0.500004
C33	C	-1.096067	-0.040507	0.000022
C34	C	-0.596067	0.459493	0.500022
C35	C	-1.094079	-0.142889	0.000035
C36	C	-0.594079	0.357111	0.500035
N37	N	-1.089597	0.128078	-0.254847
N38	N	-0.589597	0.628078	0.245153
C39	C	-0.258209	0.121649	0.000009
C40	C	0.241791	0.621649	0.500009
C41	C	-0.360589	0.123645	0.000003
C42	C	0.139411	0.623645	0.500003
C43	C	-1.083157	0.296688	-0.000003
C44	C	-0.583157	0.796688	0.499997
C45	C	-1.085146	0.399070	-0.000009
C46	C	-0.585146	0.899070	0.499991
C47	C	-1.092465	0.773966	0.000030
C48	C	-0.592465	1.273966	0.500030
C49	C	-1.090432	0.669658	0.000019
C50	C	-0.590432	1.169658	0.500019
C51	C	-1.088806	0.586521	0.000009
C52	C	-0.588806	1.086521	0.500009
C53	C	-1.086773	0.482207	0.000000
C54	C	-0.586773	0.982207	0.500000
C55	C	-1.089620	0.128096	-0.656138
C56	C	-0.589620	0.628096	-0.156138
C57	C	-1.089611	0.128095	-0.544486
C58	C	-0.589611	0.628095	-0.044486
C59	C	-1.089609	0.128088	-0.455496
C60	C	-0.589609	0.628088	0.044504
C61	C	-1.089599	0.128085	-0.343837
C62	C	-0.589599	0.628085	0.156163
N63	N	-1.089635	0.128096	0.254864
N64	N	-0.589635	0.628096	0.754864
