data_functionalizedCrystal
_audit_creation_method	'MofGen! by Chris Wilmer'
_symmetry_space_group_name_H-M	'P1'
_symmetry_Int_Tables_number	1
_symmetry_cell_setting	triclinic
loop_
_symmetry_equiv_pos_as_xyz
  x,y,z
_cell_length_a	16.109301
_cell_length_b	11.026607
_cell_length_c	14.586319
_cell_angle_alpha	89.998207
_cell_angle_beta	89.999213
_cell_angle_gamma	96.023749
loop_
_atom_site_label
_atom_site_type_symbol
_atom_site_fract_x
_atom_site_fract_y
_atom_site_fract_z
O1	O	1.126503	0.155971	-0.076179
O2	O	0.887350	0.175382	-0.076193
O3	O	0.987106	-0.010969	-0.076183
O4	O	1.026747	0.342322	-0.076188
O5	O	0.987097	-0.010971	0.076297
O6	O	0.887341	0.175379	0.076288
O7	O	1.126494	0.155969	0.076302
Cu8	Cu	1.006916	0.165674	0.090218
Cu9	Cu	1.006927	0.165677	-0.090108
O10	O	1.026738	0.342319	0.076293
C11	C	0.856253	0.174594	0.000046
C12	C	0.763604	0.172237	0.000040
C13	C	0.557080	0.277333	0.000050
C14	C	0.470027	0.275108	0.000056
C15	C	0.456769	0.054010	0.000055
C16	C	0.543821	0.056235	0.000055
C17	C	0.593975	0.167900	0.000048
C18	C	0.419869	0.163450	0.000053
C19	C	0.325481	0.161038	0.000060
C20	C	0.688369	0.170314	0.000043
C21	C	0.979788	-0.056178	0.000055
C22	C	0.957987	-0.190883	0.000051
C23	C	1.018183	-0.264713	0.000053
C24	C	0.995652	-0.403938	0.000048
C25	C	1.157591	0.156756	0.000062
C26	C	1.250240	0.159114	0.000061
C27	C	1.034056	0.387529	0.000052
C28	C	1.055857	0.522234	0.000051
N29	N	1.006915	0.165671	0.217050
N30	N	1.006934	0.165670	-0.216940
C31	C	1.051109	0.083182	0.452060
C32	C	1.051111	0.083179	0.548041
C33	C	0.962734	0.248163	0.548043
C34	C	0.962728	0.248159	0.452063
C35	C	1.006920	0.165670	0.404074
C36	C	1.006929	0.165671	0.596035
C37	C	1.006930	0.165668	0.700102
C38	C	1.006918	0.165671	0.300001
H39	H	0.439992	0.364219	0.000059
C40	C	0.611391	0.398688	0.000098
C41	C	0.560443	0.494047	0.000126
C42	C	0.610441	0.605859	0.000186
H43	H	0.645640	0.404334	-0.053061
H44	H	0.645610	0.404212	0.053293
H45	H	0.526238	0.488525	-0.053064
H46	H	0.526194	0.488442	0.053281
H47	H	0.644661	0.611383	0.053381
H48	H	0.644689	0.611492	-0.052973
H49	H	0.575881	0.670573	0.000214
C50	C	0.402272	-0.067185	-0.000137
C51	C	0.351928	-0.074926	-0.078599
C52	C	0.301724	-0.186561	-0.078816
H53	H	0.367959	-0.072773	0.052972
H54	H	0.436686	-0.132078	-0.000186
H55	H	0.317518	-0.010051	-0.078542
H56	H	0.386219	-0.069359	-0.131721
H57	H	0.336138	-0.251454	-0.078865
H58	H	0.267417	-0.192140	-0.025704
H59	H	0.267566	-0.191833	-0.132056
C60	C	0.914606	0.337582	0.600102
C61	C	0.829956	0.317844	0.576783
C62	C	0.785593	0.400184	0.624730
H63	H	0.935647	0.418625	0.584408
H64	H	0.920883	0.325764	0.664145
H65	H	0.823683	0.329671	0.512755
H66	H	0.808891	0.236816	0.592480
H67	H	0.791870	0.388367	0.688773
H68	H	0.806641	0.481223	0.609032
H69	H	0.728152	0.386796	0.608922
H70	H	1.086399	-0.224848	0.000063
C71	C	0.914628	0.337532	0.399907
C72	C	0.854043	0.272867	0.344830
C73	C	0.809711	0.355149	0.296779
H74	H	0.952002	0.388083	0.362384
H75	H	0.888263	0.386650	0.442201
H76	H	0.880406	0.223770	0.302540
H77	H	0.816650	0.222321	0.382330
H78	H	0.783347	0.404267	0.339074
H79	H	0.847092	0.405695	0.259262
H80	H	0.768594	0.311286	0.259411
H81	H	0.573861	-0.032883	0.000056
H82	H	0.927432	-0.443797	0.000038
C83	C	1.146838	-0.424704	-0.000130
C84	C	1.186283	-0.464128	-0.078587
C85	C	1.270090	-0.415260	-0.078791
H86	H	1.173838	-0.451320	0.052983
H87	H	1.149931	-0.338187	-0.000178
H88	H	1.183195	-0.550627	-0.078531
H89	H	1.159308	-0.437514	-0.131713
H90	H	1.273183	-0.328743	-0.078839
H91	H	1.297081	-0.441879	-0.025675
H92	H	1.296861	-0.441992	-0.132027
C93	C	0.867075	-0.244259	0.000088
C94	C	0.862802	-0.371739	0.000107
C95	C	0.779066	-0.420946	0.000153
H96	H	0.840095	-0.217744	-0.053071
H97	H	0.840153	-0.217691	0.053283
H98	H	0.889712	-0.398295	-0.053082
H99	H	0.889764	-0.398288	0.053262
H100	H	0.752144	-0.394378	0.053347
H101	H	0.752094	-0.394422	-0.053008
H102	H	0.776156	-0.507445	0.000174
C103	C	1.099098	-0.006519	0.400123
C104	C	1.137777	-0.078781	0.462695
C105	C	1.181981	-0.161442	0.414887
H106	H	1.140297	0.036999	0.362672
H107	H	1.061637	-0.057112	0.362707
H108	H	1.175235	-0.028194	0.500095
H109	H	1.096597	-0.122325	0.500148
H110	H	1.144520	-0.212035	0.377471
H111	H	1.223175	-0.117914	0.377438
H112	H	1.208224	-0.210489	0.457335
H113	H	1.087093	0.016009	0.587109
