data_functionalizedCrystal
_audit_creation_method	'MofGen! by Chris Wilmer'
_symmetry_space_group_name_H-M	'P1'
_symmetry_Int_Tables_number	1
_symmetry_cell_setting	triclinic
loop_
_symmetry_equiv_pos_as_xyz
  x,y,z
_cell_length_a	19.288867
_cell_length_b	17.766277
_cell_length_c	19.288865
_cell_angle_alpha	90.011603
_cell_angle_beta	83.136658
_cell_angle_gamma	90.007874
loop_
_atom_site_label
_atom_site_type_symbol
_atom_site_fract_x
_atom_site_fract_y
_atom_site_fract_z
O1	O	0.921352	0.062576	0.086655
O2	O	1.421352	0.562576	0.586655
O3	O	0.719092	0.062585	0.098343
O4	O	1.219092	0.562585	0.598343
O5	O	0.826066	0.062566	-0.008631
O6	O	1.326066	0.562566	0.491369
O7	O	0.814378	0.062596	0.193629
O8	O	1.314378	0.562596	0.693629
O9	O	0.826048	-0.062623	-0.008637
O10	O	1.326048	0.437377	0.491363
O11	O	0.719073	-0.062604	0.098337
O12	O	1.219073	0.437396	0.598337
O13	O	0.921333	-0.062612	0.086650
O14	O	1.421333	0.437388	0.586650
Cu15	Cu	0.820201	-0.074039	0.092493
Cu16	Cu	1.320201	0.425961	0.592493
Cu17	Cu	0.820224	0.074011	0.092500
Cu18	Cu	1.320224	0.574011	0.592500
O19	O	0.814359	-0.062593	0.193624
O20	O	1.314359	0.437407	0.693624
C21	C	0.693206	-0.000009	0.097964
C22	C	1.193206	0.499991	0.597964
C23	C	0.616102	-0.000006	0.096834
C24	C	1.116102	0.499994	0.596834
N25	N	0.820191	-0.178169	0.092488
N26	N	1.320191	0.321831	0.592488
C27	C	0.060547	0.068224	0.088701
C28	C	0.560547	0.568224	0.588701
C29	C	0.132995	0.068227	0.089758
C30	C	0.632995	0.568227	0.589758
C31	C	0.169213	-0.000013	0.090287
C32	C	0.669213	0.499987	0.590287
C33	C	0.132980	-0.068261	0.089741
C34	C	0.632980	0.431739	0.589741
C35	C	0.060535	-0.068262	0.088676
C36	C	0.560535	0.431738	0.588676
C37	C	0.278533	-0.052287	0.132652
C38	C	0.778533	0.447713	0.632652
C39	C	0.350976	-0.052283	0.133721
C40	C	0.850976	0.447717	0.633721
C41	C	0.392659	-0.000012	0.093566
C42	C	0.892659	0.499988	0.593566
C43	C	0.361888	0.052267	0.052352
C44	C	0.861888	0.552267	0.552352
C45	C	0.289443	0.052266	0.051288
C46	C	0.789443	0.552266	0.551288
C47	C	0.247768	-0.000019	0.091440
C48	C	0.747768	0.499981	0.591440
C49	C	0.507439	0.068235	0.095254
C50	C	1.007439	0.568235	0.595254
C51	C	0.579889	0.068235	0.096306
C52	C	1.079889	0.568235	0.596306
C53	C	0.579872	-0.068255	0.096296
C54	C	1.079872	0.431745	0.596296
C55	C	0.507425	-0.068253	0.095236
C56	C	1.007425	0.431747	0.595236
C57	C	0.471213	-0.000006	0.094718
C58	C	0.971213	0.499994	0.594718
C59	C	0.867575	-0.217564	0.045143
C60	C	1.367575	0.282436	0.545143
C61	C	0.867579	-0.296366	0.045140
C62	C	1.367579	0.203634	0.545140
C63	C	0.820206	-0.335769	0.092494
C64	C	1.320206	0.164231	0.592494
C65	C	0.772813	-0.296364	0.139842
C66	C	1.272813	0.203636	0.639842
C67	C	0.772806	-0.217564	0.139839
C68	C	1.272806	0.282436	0.639839
C69	C	0.810907	-0.460598	0.155781
C70	C	1.310907	0.039402	0.655781
C71	C	0.810919	-0.539397	0.155785
C72	C	1.310919	-0.039397	0.655785
C73	C	0.820224	-0.578816	0.092502
C74	C	1.320224	-0.078816	0.592502
C75	C	0.829532	-0.539426	0.029213
C76	C	1.329532	-0.039426	0.529213
C77	C	0.829525	-0.460626	0.029210
C78	C	1.329525	0.039374	0.529210
C79	C	0.820208	-0.421215	0.092502
C80	C	1.320208	0.078785	0.592502
C81	C	0.867615	-0.703657	0.045150
C82	C	1.367615	-0.203657	0.545150
C83	C	0.867614	-0.782460	0.045146
C84	C	1.367614	-0.282460	0.545146
C85	C	0.772852	-0.782457	0.139854
C86	C	1.272852	-0.282457	0.639854
C87	C	0.772849	-0.703655	0.139852
C88	C	1.272849	-0.203655	0.639852
C89	C	0.820234	-0.664260	0.092501
C90	C	1.320234	-0.164260	0.592501
C91	C	0.947219	-0.000017	0.087029
C92	C	1.447219	0.499983	0.587029
C93	C	1.024323	-0.000015	0.088159
C94	C	1.524323	0.499985	0.588159
N95	N	0.820240	0.178142	0.092499
N96	N	1.320240	0.678142	0.592499
C97	C	0.825681	-0.000031	-0.034510
C98	C	1.325681	0.499969	0.465490
C99	C	0.824552	-0.000038	-0.111614
C100	C	1.324552	0.499962	0.388386
C101	C	0.887320	-0.000044	-0.156310
C102	C	1.387320	0.499956	0.343690
C103	C	0.886259	-0.000032	-0.228757
C104	C	1.386259	0.499968	0.271243
C105	C	0.822427	-0.000029	-0.256505
C106	C	1.322427	0.499971	0.243495
C107	C	0.759651	-0.000018	-0.211799
C108	C	1.259651	0.499982	0.288201
C109	C	0.760713	-0.000023	-0.139354
C110	C	1.260713	0.499977	0.360646
C111	C	0.772241	-0.043877	-0.364795
C112	C	1.272241	0.456123	0.135205
C113	C	0.771181	-0.043878	-0.437239
C114	C	1.271181	0.456122	0.062761
C115	C	0.819147	-0.000012	-0.479951
C116	C	1.319147	0.499988	0.020049
C117	C	0.868185	0.043845	-0.450210
C118	C	1.368185	0.543845	0.049790
C119	C	0.869248	0.043840	-0.377765
C120	C	1.369248	0.543840	0.122235
C121	C	0.821268	-0.000024	-0.335059
C122	C	1.321268	0.499976	0.164941
C123	C	0.880769	-0.000004	-0.603202
C124	C	1.380769	0.499996	-0.103202
C125	C	0.879706	0.000013	-0.675650
C126	C	1.379706	0.500013	-0.175650
C127	C	0.753096	0.000019	-0.658691
C128	C	1.253096	0.500019	-0.158691
C129	C	0.754161	0.000010	-0.586245
C130	C	1.254161	0.500010	-0.086245
C131	C	0.818000	-0.000005	-0.558505
C132	C	1.318000	0.499995	-0.058505
C133	C	0.814744	0.000005	0.219503
C134	C	1.314744	0.500005	0.719503
C135	C	0.815873	0.000017	0.296607
C136	C	1.315873	0.500017	0.796607
H137	H	0.162494	0.123798	0.090203
H138	H	0.662494	0.623798	0.590203
H139	H	0.162474	-0.123822	0.090170
H140	H	0.662474	0.376178	0.590170
N141	N	0.721753	-0.661154	0.190924
N142	N	1.221753	-0.161154	0.690924
H143	H	0.691083	-0.628474	0.164457
H144	H	1.191083	-0.128474	0.664457
H145	H	0.691788	-0.698114	0.220913
H146	H	1.191788	-0.198114	0.720913
N147	N	0.618958	0.141843	0.096883
N148	N	1.118958	0.641843	0.596883
H149	H	0.600589	0.171680	0.139751
H150	H	1.100589	0.671680	0.639751
H151	H	0.670339	0.131433	0.097604
H152	H	1.170339	0.631433	0.597604
N153	N	0.686461	0.000012	-0.538031
N154	N	1.186461	0.500012	-0.038031
H155	H	0.645861	0.000015	-0.566600
H156	H	1.145861	0.500015	-0.066600
H157	H	0.684138	-0.046399	-0.507614
H158	H	1.184138	0.453601	-0.007614
N159	N	0.800876	-0.581878	0.224042
N160	N	1.300876	-0.081878	0.724042
H161	H	0.794969	-0.544951	0.264131
H162	H	1.294969	-0.044951	0.764131
H163	H	0.757887	-0.614581	0.225595
H164	H	1.257887	-0.114581	0.725595
N165	N	0.721752	-0.824948	0.190924
N166	N	1.221752	-0.324948	0.690924
H167	H	0.691732	-0.788029	0.220917
H168	H	1.191732	-0.288029	0.720917
H169	H	0.691137	-0.857652	0.164402
H170	H	1.191137	-0.357652	0.664402
H171	H	0.031068	0.123797	0.088276
H172	H	0.531068	0.623797	0.588276
N173	N	0.918732	-0.824949	-0.005918
N174	N	1.418732	-0.324949	0.494082
H175	H	0.892304	-0.857658	-0.036615
H176	H	1.392304	-0.357658	0.463385
H177	H	0.948733	-0.787978	-0.035859
H178	H	1.448733	-0.287978	0.464141
H179	H	0.477954	0.123805	0.094830
H180	H	0.977954	0.623805	0.594830
H181	H	0.734220	-0.185488	0.178394
H182	H	1.234220	0.314512	0.678394
N183	N	0.618926	-0.141859	0.096859
N184	N	1.118926	0.358141	0.596859
H185	H	0.670318	-0.131505	0.097613
H186	H	1.170318	0.368495	0.597613
H187	H	0.600495	-0.171657	0.139719
H188	H	1.100495	0.328343	0.639719
N189	N	0.918692	-0.338874	-0.005918
N190	N	1.418692	0.161126	0.494082
H191	H	0.892256	-0.371586	-0.036606
H192	H	1.392256	0.128414	0.463394
H193	H	0.948697	-0.301915	-0.035869
H194	H	1.448697	0.198085	0.464131
N195	N	0.839561	-0.418141	-0.039045
N196	N	1.339561	0.081859	0.460955
H197	H	0.845458	-0.455064	-0.079137
H198	H	1.345458	0.044936	0.420863
H199	H	0.797375	-0.385458	-0.042993
H200	H	1.297375	0.114542	0.457007
N201	N	0.021460	-0.141866	0.088091
N202	N	0.521460	0.358134	0.588091
H203	H	0.055458	-0.185095	0.088103
H204	H	0.555458	0.314905	0.588103
H205	H	-0.014037	-0.145060	0.130943
H206	H	0.485963	0.354940	0.630943
H207	H	0.906157	-0.185491	0.006586
H208	H	1.406157	0.314509	0.506586
N209	N	0.721714	-0.338858	0.190914
N210	N	1.221714	0.161142	0.690914
H211	H	0.728909	-0.394756	0.183733
H212	H	1.228909	0.105244	0.683733
H213	H	0.729575	-0.325068	0.240169
H214	H	1.229575	0.174932	0.740169
H215	H	0.803317	-0.428509	0.207317
H216	H	1.303317	0.071491	0.707317
H217	H	0.939302	-0.000053	-0.133729
H218	H	1.439302	0.499947	0.366271
H219	H	0.937374	-0.000034	-0.265155
H220	H	1.437374	0.499966	0.234845
N221	N	0.256252	0.108637	0.006829
N222	N	0.756252	0.608637	0.506829
H223	H	0.222021	0.140800	0.037551
H224	H	0.722021	0.640800	0.537551
H225	H	0.293687	0.141702	-0.018445
H226	H	0.793687	0.641702	0.481555
H227	H	0.837109	-0.571520	-0.022318
H228	H	1.337109	-0.071520	0.477682
N229	N	0.922132	0.091139	-0.345685
N230	N	1.422132	0.591139	0.154315
H231	H	0.952360	0.118931	-0.383731
H232	H	1.452360	0.618931	0.116269
H233	H	0.897017	0.128600	-0.312196
H234	H	1.397017	0.628600	0.187804
N235	N	0.918717	-0.661159	-0.005920
N236	N	1.418717	-0.161159	0.494080
H237	H	0.948733	-0.698077	-0.035919
H238	H	1.448733	-0.198077	0.464081
H239	H	0.892223	-0.628477	-0.036560
H240	H	1.392223	-0.128477	0.463440
N241	N	0.468348	-0.141855	0.094655
N242	N	0.968348	0.358145	0.594655
H243	H	0.502346	-0.185084	0.094667
H244	H	1.002346	0.314916	0.594667
H245	H	0.432851	-0.145049	0.137507
H246	H	0.932851	0.354951	0.637507
H247	H	0.907244	0.079565	-0.484985
H248	H	1.407244	0.579565	0.015015
H249	H	0.707678	-0.000014	-0.234396
H250	H	1.207678	0.499986	0.265604
H251	H	0.932750	-0.000013	-0.580616
H252	H	1.432750	0.499987	-0.080616
N253	N	0.406838	0.108640	0.009028
N254	N	0.906838	0.608640	0.509028
H255	H	0.376353	0.141754	-0.017243
H256	H	0.876353	0.641754	0.482757
H257	H	0.432727	0.140753	0.040670
H258	H	0.932727	0.640753	0.540670
H259	H	0.709598	-0.000018	-0.102962
H260	H	1.209598	0.499982	0.397038
N261	N	0.947409	0.000009	-0.723862
N262	N	1.447409	0.500009	-0.223862
H263	H	0.988008	-0.000004	-0.695293
H264	H	1.488008	0.499996	-0.195293
H265	H	0.949712	-0.046398	-0.754301
H266	H	1.449712	0.453602	-0.254301
H267	H	0.701123	0.000025	-0.681283
H268	H	1.201123	0.500025	-0.181283
H269	H	0.733179	-0.079602	-0.330024
H270	H	1.233179	0.420398	0.169976
N271	N	0.384152	-0.108669	0.178176
N272	N	0.884152	0.391331	0.678176
H273	H	0.373573	-0.161352	0.162790
H274	H	0.873573	0.338648	0.662790
H275	H	0.436360	-0.100674	0.172749
H276	H	0.936360	0.399326	0.672749
H277	H	0.244600	-0.094861	0.165348
H278	H	0.744600	0.405139	0.665348
H279	H	0.731248	-0.079584	-0.461447
H280	H	1.231248	0.420416	0.038553
