data_functionalizedCrystal
_audit_creation_method	'MofGen! by Chris Wilmer'
_symmetry_space_group_name_H-M	'P1'
_symmetry_Int_Tables_number	1
_symmetry_cell_setting	triclinic
loop_
_symmetry_equiv_pos_as_xyz
  x,y,z
_cell_length_a	19.121102
_cell_length_b	19.120900
_cell_length_c	21.395364
_cell_angle_alpha	87.554870
_cell_angle_beta	92.454632
_cell_angle_gamma	90.076315
loop_
_atom_site_label
_atom_site_type_symbol
_atom_site_fract_x
_atom_site_fract_y
_atom_site_fract_z
Zn1	Zn	1.059789	0.325113	0.382162
Zn2	Zn	1.559789	0.825113	0.882162
Zn3	Zn	1.054690	0.442303	0.272729
Zn4	Zn	1.554690	0.942303	0.772729
Zn5	Zn	0.942560	0.320072	0.273135
Zn6	Zn	1.442560	0.820072	0.773135
Zn7	Zn	0.937503	0.437305	0.373205
Zn8	Zn	1.437503	0.937305	0.873205
O9	O	0.998635	0.381198	0.325308
O10	O	1.498635	0.881198	0.825308
O11	O	1.157217	0.344860	0.371224
O12	O	1.657217	0.844860	0.871224
O13	O	1.039798	0.426071	0.185105
O14	O	1.539798	0.926071	0.685105
O15	O	0.962360	0.222634	0.291517
O16	O	1.462360	0.722634	0.791517
O17	O	1.153471	0.430959	0.290824
O18	O	1.653471	0.930959	0.790824
O19	O	1.048488	0.226338	0.371619
O20	O	1.548488	0.726338	0.871619
O21	O	0.957416	0.336268	0.185404
O22	O	1.457416	0.836268	0.685404
O23	O	0.843784	0.331422	0.282831
O24	O	1.343784	0.831422	0.782831
O25	O	0.953742	0.422441	0.462071
O26	O	1.453742	0.922441	0.962071
O27	O	0.840069	0.417552	0.356352
O28	O	1.340069	0.917552	0.856352
O29	O	1.043585	0.340014	0.468652
O30	O	1.543585	0.840014	0.968652
O31	O	1.034895	0.539747	0.282138
O32	O	1.534895	1.039747	0.782138
O33	O	0.948798	0.536075	0.355958
O34	O	1.448798	1.036075	0.855958
C35	C	0.816489	0.373398	0.318664
C36	C	1.316489	0.873398	0.818664
C37	C	0.738566	0.370078	0.315836
C38	C	1.238566	0.870078	0.815836
C39	C	0.990763	0.563350	0.318046
C40	C	1.490763	1.063350	0.818046
C41	C	0.987460	0.641278	0.314963
C42	C	1.487460	1.141278	0.814963
C43	C	0.998668	0.381232	0.488731
C44	C	1.498668	0.881232	0.988731
C45	C	0.998682	0.381247	0.558372
C46	C	1.498682	0.881247	1.058372
C47	C	0.700038	0.413430	0.352720
C48	C	1.200038	0.913430	0.852720
C49	C	0.626821	0.410301	0.350067
C50	C	1.126821	0.910301	0.850067
C51	C	0.592133	0.363824	0.310525
C52	C	1.092133	0.863824	0.810525
C53	C	0.630666	0.320468	0.273639
C54	C	1.130666	0.820468	0.773639
C55	C	0.703882	0.323593	0.276297
C56	C	1.203882	0.823593	0.776297
C57	C	0.371164	0.352136	0.300592
C58	C	0.871164	0.852136	0.800592
C59	C	0.297943	0.349015	0.297936
C60	C	0.797943	0.849015	0.797936
C61	C	0.294104	0.438848	0.374364
C62	C	0.794104	0.938848	0.874364
C63	C	0.367321	0.441973	0.377016
C64	C	0.867321	0.941973	0.877016
C65	C	0.405848	0.398614	0.340133
C66	C	0.905848	0.898614	0.840133
C67	C	0.517293	0.360626	0.307810
C68	C	1.017293	0.860626	0.807810
C69	C	0.480686	0.401808	0.342851
C70	C	0.980686	0.901808	0.842851
C71	C	1.181493	0.389029	0.331978
C72	C	1.681493	0.889029	0.831978
C73	C	1.259416	0.392367	0.334820
C74	C	1.759416	0.892367	0.834820
C75	C	0.966510	1.081928	0.295452
C76	C	1.466510	1.581928	0.795452
C77	C	0.969616	1.008706	0.298349
C78	C	1.469616	1.508706	0.798349
C79	C	1.015980	0.973963	0.341532
C80	C	1.515980	1.473963	0.841532
C81	C	1.059237	1.012446	0.381826
C82	C	1.559237	1.512446	0.881826
C83	C	1.056128	1.085666	0.378931
C84	C	1.556128	1.585666	0.878931
C85	C	1.027607	0.752980	0.352362
C86	C	1.527607	1.252980	0.852362
C87	C	1.030715	0.679755	0.355252
C88	C	1.530715	1.179755	0.855252
C89	C	0.941092	0.676020	0.271776
C90	C	1.441092	1.176020	0.771776
C91	C	0.937990	0.749242	0.268883
C92	C	1.437990	1.249242	0.768883
C93	C	0.981244	0.787718	0.309178
C94	C	1.481244	1.287718	0.809178
C95	C	1.019157	0.899119	0.344493
C96	C	1.519157	1.399119	0.844493
C97	C	0.978063	0.862560	0.306220
C98	C	1.478063	1.362560	0.806220
C99	C	1.006515	1.198335	0.332616
C100	C	1.506515	1.698335	0.832616
C101	C	1.009765	1.120405	0.335741
C102	C	1.509765	1.620405	0.835741
C103	C	1.045456	0.338334	0.594513
C104	C	1.545456	0.838334	1.094513
C105	C	1.045446	0.338322	0.659948
C106	C	1.545446	0.838322	1.159948
C107	C	0.998669	0.381236	0.689241
C108	C	1.498669	0.881236	1.189241
C109	C	0.951886	0.424151	0.653092
C110	C	1.451886	0.924151	1.153092
C111	C	0.951892	0.424157	0.587658
C112	C	1.451892	0.924157	1.087658
C113	C	0.990388	0.444154	0.790196
C114	C	1.490388	0.944154	1.290196
C115	C	0.990387	0.444150	0.855629
C116	C	1.490387	0.944150	1.355629
C117	C	0.998644	0.381218	0.891061
C118	C	1.498644	0.881218	1.391061
C119	C	1.006918	0.318289	0.861053
C120	C	1.506918	0.818289	1.361053
C121	C	1.006925	0.318295	0.795619
C122	C	1.506925	0.818295	1.295619
C123	C	0.998656	0.381234	0.760193
C124	C	1.498656	0.881234	1.260193
C125	C	1.045410	0.338289	0.998154
C126	C	1.545410	0.838289	1.498154
C127	C	1.045395	0.338276	1.063591
C128	C	1.545395	0.838276	1.563591
C129	C	0.951838	0.424111	1.056733
C130	C	1.451838	0.924111	1.556733
C131	C	0.951849	0.424118	0.991298
C132	C	1.451849	0.924118	1.491298
C133	C	0.998639	0.381208	0.962013
C134	C	1.498639	0.881208	1.462013
C135	C	0.998605	0.381186	1.162520
C136	C	1.498605	0.881186	1.662520
C137	C	0.998616	0.381189	1.092879
C138	C	1.498616	0.881189	1.592879
H139	H	0.728276	0.451279	0.384917
H140	H	1.228276	0.951279	0.884917
Cl141	Cl	0.893025	0.478054	1.093552
Cl142	Cl	1.393025	0.978054	1.593552
Cl143	Cl	0.410924	0.500405	0.426725
Cl144	Cl	0.910924	1.000405	0.926725
H145	H	0.900236	0.777524	0.233717
H146	H	1.400236	1.277524	0.733717
H147	H	0.735250	0.288288	0.246265
H148	H	1.235250	0.788288	0.746265
Cl149	Cl	0.915226	0.960338	0.247705
Cl150	Cl	1.415226	1.460338	0.747705
H151	H	0.489042	0.322786	0.275614
H152	H	0.989042	0.822786	0.775614
H153	H	1.056909	0.870826	0.379653
H154	H	1.556909	1.370826	0.879653
H155	H	0.262728	0.474147	0.404393
H156	H	0.762728	0.974147	0.904393
Cl157	Cl	0.524295	0.460235	0.392559
Cl158	Cl	1.024295	0.960235	0.892559
Cl159	Cl	1.104226	0.284343	0.961335
Cl160	Cl	1.604226	0.784343	1.461335
Cl161	Cl	0.886716	0.627647	0.221124
Cl162	Cl	1.386716	1.127647	0.721124
H163	H	1.083534	0.303374	0.689379
H164	H	1.583534	0.803374	1.189379
Cl165	Cl	0.919775	0.906238	0.251937
Cl166	Cl	1.419775	1.406238	0.751937
H167	H	0.595455	0.445603	0.380101
H168	H	1.095455	0.945603	0.880101
H169	H	1.068473	0.651471	0.390419
H170	H	1.568473	1.151471	0.890419
H171	H	0.269702	0.311160	0.265741
H172	H	0.769702	0.811160	0.765741
H173	H	0.928758	1.110210	0.260285
H174	H	1.428758	1.610210	0.760285
Cl175	Cl	0.893046	0.478071	0.945862
Cl176	Cl	1.393046	0.978071	1.445862
Cl177	Cl	1.104213	0.284335	1.109025
Cl178	Cl	1.604213	0.784335	1.609025
Cl179	Cl	1.081978	0.801339	0.403025
Cl180	Cl	1.581978	1.301339	0.903025
Cl181	Cl	1.117517	0.968768	0.436120
Cl182	Cl	1.617517	1.468768	0.936120
H183	H	1.083556	0.303393	0.570673
H184	H	1.583556	0.803393	1.070673
H185	H	0.983654	0.495391	0.880056
H186	H	1.483654	0.995391	1.380056
H187	H	0.402524	0.316835	0.270554
H188	H	0.902524	0.816835	0.770554
Cl189	Cl	1.017320	0.239188	0.757896
Cl190	Cl	1.517320	0.739188	1.257896
Cl191	Cl	1.110507	1.134037	0.429583
Cl192	Cl	1.610507	1.634037	0.929583
Cl193	Cl	1.017302	0.239170	0.905589
Cl194	Cl	1.517302	0.739170	1.405589
Cl195	Cl	0.587057	0.262034	0.223934
Cl196	Cl	1.087057	0.762034	0.723934
Cl197	Cl	0.980028	0.523279	0.745659
Cl198	Cl	1.480028	1.023279	1.245659
H199	H	0.913797	0.459089	0.676946
H200	H	1.413797	0.959089	1.176946
H201	H	0.913800	0.459100	0.558232
H202	H	1.413800	0.959100	1.058232
