data_functionalizedCrystal
_audit_creation_method	'MofGen! by Chris Wilmer'
_symmetry_space_group_name_H-M	'P1'
_symmetry_Int_Tables_number	1
_symmetry_cell_setting	triclinic
loop_
_symmetry_equiv_pos_as_xyz
  x,y,z
_cell_length_a	19.805407
_cell_length_b	29.839131
_cell_length_c	19.805399
_cell_angle_alpha	90.029565
_cell_angle_beta	90.019573
_cell_angle_gamma	90.041420
loop_
_atom_site_label
_atom_site_type_symbol
_atom_site_fract_x
_atom_site_fract_y
_atom_site_fract_z
Zn1	Zn	1.034665	-0.178864	0.382710
Zn2	Zn	1.034550	-0.253991	0.269518
Zn3	Zn	0.921480	-0.178876	0.269535
Zn4	Zn	0.921414	-0.253967	0.382665
O5	O	0.978027	-0.216425	0.326107
O6	O	1.129366	-0.188834	0.367707
O7	O	1.019531	-0.244042	0.174804
O8	O	0.936570	-0.116007	0.284574
O9	O	1.129282	-0.244030	0.284545
O10	O	1.019727	-0.115998	0.367723
O11	O	0.936458	-0.188856	0.174816
O12	O	0.826754	-0.188832	0.284530
O13	O	0.936457	-0.243990	0.477388
O14	O	0.826706	-0.244002	0.367646
O15	O	1.019662	-0.188811	0.477421
O16	O	1.019467	-0.316855	0.284501
O17	O	0.936346	-0.316838	0.367630
C18	C	0.802171	-0.216416	0.326085
C19	C	0.726939	-0.216423	0.326092
C20	C	0.691587	-0.245193	0.369300
C21	C	0.620899	-0.245194	0.369310
C22	C	0.585564	-0.216427	0.326107
C23	C	0.620920	-0.187654	0.282897
C24	C	0.691607	-0.187651	0.282891
C25	C	0.335847	-0.187664	0.282919
C26	C	0.265155	-0.187669	0.282927
C27	C	0.265139	-0.245207	0.369338
C28	C	0.335826	-0.245204	0.369332
C29	C	0.371176	-0.216429	0.326125
C30	C	0.447825	-0.216428	0.326116
C31	C	0.508916	-0.216430	0.326112
C32	C	0.977905	-0.333147	0.326073
C33	C	0.977915	-0.383082	0.326082
C34	C	1.021387	-0.692722	0.282885
C35	C	1.021471	-0.880395	0.282912
O36	O	1.058335	-0.904656	0.246159
N37	N	0.978168	-0.903867	0.326158
C38	C	0.934844	-0.880418	0.369404
O39	O	0.898019	-0.904688	0.406194
C40	C	0.934764	-0.692746	0.369381
C41	C	0.978065	-0.669276	0.326127
C42	C	1.064685	-0.669252	0.239635
C43	C	1.064661	-0.622336	0.239626
C44	C	1.021339	-0.598891	0.282868
C45	C	0.978041	-0.622360	0.326118
C46	C	0.891444	-0.669297	0.412630
C47	C	0.891429	-0.622376	0.412621
C48	C	0.934730	-0.598907	0.369367
C49	C	0.934695	-0.551999	0.369351
N50	N	0.977998	-0.528527	0.326104
C51	C	1.021320	-0.551973	0.282863
C52	C	0.934888	-0.978948	0.369412
C53	C	0.934907	-1.025866	0.369418
C54	C	1.021534	-1.025840	0.282926
C55	C	1.021512	-0.978921	0.282918
C56	C	0.978191	-0.955476	0.326166
C57	C	1.021266	-0.453447	0.282847
C58	C	1.021237	-0.406527	0.282840
C59	C	0.934611	-0.406558	0.369334
C60	C	0.934638	-0.453473	0.369339
C61	C	0.977971	-0.476917	0.326093
O62	O	0.897855	-0.527708	0.406090
O63	O	1.058150	-0.527694	0.246090
C64	C	1.021411	-0.739637	0.282894
C65	C	0.978113	-0.763107	0.326144
C66	C	0.934791	-0.739661	0.369386
C67	C	0.978132	-0.810025	0.326149
C68	C	1.021454	-0.833470	0.282908
C69	C	1.064757	-0.809998	0.239661
C70	C	1.064733	-0.763083	0.239653
C71	C	0.891488	-0.763133	0.412632
C72	C	0.891515	-0.810049	0.412637
C73	C	0.934837	-0.833494	0.369395
C74	C	1.154570	-0.216434	0.326129
C75	C	1.229802	-0.216437	0.326139
C76	C	0.978065	-0.216396	0.502650
C77	C	0.978081	-0.216384	0.577882
C78	C	0.978168	-0.099246	0.326156
C79	C	0.978228	-0.049312	0.326176
C80	C	0.978028	-0.216420	0.150251
C81	C	0.978143	-0.216306	0.075019
C82	C	1.021407	-0.187652	0.613244
C83	C	1.021414	-0.187638	0.683933
C84	C	0.978098	-0.216361	0.719258
C85	C	0.934767	-0.245095	0.683890
C86	C	0.934757	-0.245105	0.613203
C87	C	0.934806	-0.245053	0.968963
C88	C	0.934820	-0.245041	1.039656
C89	C	1.021462	-0.187586	1.039694
C90	C	1.021453	-0.187597	0.969006
C91	C	0.978120	-0.216329	0.933645
C92	C	0.978112	-0.216342	0.856997
C93	C	0.978109	-0.216350	0.795905
H94	H	0.236387	-0.164241	0.247745
N95	N	0.847184	-0.598422	0.456799
N96	N	0.870962	-0.572207	0.499947
H97	H	0.839714	-0.555288	0.531147
H98	H	0.899531	-0.268455	0.940181
N99	N	0.727731	-0.158271	0.238752
N100	N	0.790844	-0.158272	0.238752
H101	H	0.816357	-0.137520	0.207579
N102	N	0.371908	-0.274595	0.413463
N103	N	0.340336	-0.300280	0.452040
H104	H	0.365818	-0.321038	0.483209
N105	N	1.065730	-0.158231	1.075804
N106	N	1.128181	-0.161217	1.067917
H107	H	1.159447	-0.140486	1.093418
H108	H	1.056809	-1.044937	0.247717
H109	H	1.056727	-0.164209	0.940249
H110	H	0.899544	-0.268431	1.068415
N111	N	0.727689	-0.274573	0.413432
N112	N	0.790802	-0.274567	0.413424
H113	H	0.816298	-0.295316	0.444595
H114	H	1.099967	-0.688336	0.204423
N115	N	1.108969	-0.739110	0.195478
N116	N	1.152078	-0.712890	0.219320
H117	H	1.183321	-0.695960	0.188119
N118	N	1.065663	-0.158312	0.577175
N119	N	1.104343	-0.132659	0.608761
H120	H	1.135599	-0.111936	0.583289
N121	N	0.890660	-1.049837	0.413585
N122	N	0.828205	-1.044637	0.409033
H123	H	0.796955	-1.061565	0.440229
N124	N	1.108999	-0.833953	0.195481
N125	N	1.085218	-0.860169	0.152336
H126	H	1.116463	-0.877089	0.121137
H127	H	0.592119	-0.268622	0.404494
N128	N	0.229017	-0.274598	0.413470
N129	N	0.165904	-0.274598	0.413472
H130	H	0.140394	-0.295356	0.444638
N131	N	0.584839	-0.158268	0.238757
N132	N	0.616414	-0.132583	0.200181
H133	H	0.590933	-0.111829	0.169005
N134	N	0.890519	-0.274428	0.719981
N135	N	0.890533	-0.274415	0.783094
H136	H	0.859283	-0.295133	0.808584
N137	N	0.371940	-0.158272	0.238777
N138	N	0.340380	-0.132593	0.200204
H139	H	0.365873	-0.111835	0.169024
H140	H	1.056497	-0.387420	0.247615
N141	N	1.065745	-0.954956	0.238729
N142	N	1.104416	-0.975901	0.200123
H143	H	1.135659	-0.958979	0.168913
H144	H	1.056554	-0.472529	0.247634
H145	H	0.899609	-0.959863	0.404631
N146	N	1.108898	-0.598373	0.195440
N147	N	1.147573	-0.619320	0.156839
H148	H	1.178819	-0.602399	0.125631
H149	H	0.899470	-0.268498	0.584411
N150	N	0.847205	-0.693262	0.456808
N151	N	0.784750	-0.688061	0.452265
H152	H	0.753504	-0.704985	0.483469
N153	N	0.890393	-0.477443	0.413514
N154	N	0.851711	-0.456501	0.452113
H155	H	0.820463	-0.473426	0.483316
H156	H	0.899337	-0.387461	0.404539
H157	H	0.856248	-0.829154	0.447859
N158	N	0.847231	-0.739195	0.456811
N159	N	0.808576	-0.760163	0.495419
H160	H	0.777314	-0.743258	0.526622
H161	H	1.056696	-0.164242	0.712722
