data_functionalizedCrystal
_audit_creation_method	'MofGen! by Chris Wilmer'
_symmetry_space_group_name_H-M	'P1'
_symmetry_Int_Tables_number	1
_symmetry_cell_setting	triclinic
loop_
_symmetry_equiv_pos_as_xyz
  x,y,z
_cell_length_a	10.654556
_cell_length_b	19.188924
_cell_length_c	9.730223
_cell_angle_alpha	89.993539
_cell_angle_beta	89.998368
_cell_angle_gamma	83.814751
loop_
_atom_site_label
_atom_site_type_symbol
_atom_site_fract_x
_atom_site_fract_y
_atom_site_fract_z
O1	O	1.665755	0.098083	-0.114245
O2	O	1.300079	0.107421	-0.114260
O3	O	1.493474	0.001165	-0.114236
O4	O	1.472360	0.204339	-0.114269
O5	O	1.493462	0.001163	0.114344
O6	O	1.300067	0.107418	0.114320
O7	O	1.665742	0.098080	0.114335
Zn8	Zn	1.482903	0.102749	0.150620
Zn9	Zn	1.482919	0.102753	-0.150544
O10	O	1.472347	0.204336	0.114311
C11	C	1.253290	0.106733	0.000028
C12	C	1.113890	0.104679	0.000023
C13	C	0.917413	0.101788	-0.124564
C14	C	1.048394	0.103714	-0.124573
C15	C	1.048400	0.103711	0.124637
C16	C	0.917422	0.101780	0.124645
C17	C	1.492785	-0.024852	0.000055
C18	C	1.490737	-0.102370	0.000059
C19	C	1.489788	-0.138773	-0.124540
C20	C	1.487846	-0.211609	-0.124551
C21	C	1.486878	-0.248040	0.000045
C22	C	1.487820	-0.211627	0.124661
C23	C	1.489750	-0.138792	0.124668
N24	N	1.555306	-0.367256	0.092782
N25	N	1.553475	-0.436446	0.092767
C26	C	1.481061	-0.467487	0.000032
N27	N	1.410563	-0.426725	-0.092709
N28	N	1.412399	-0.357528	-0.092697
C29	C	1.484785	-0.327017	0.000051
C30	C	1.478004	-0.582867	-0.124588
C31	C	1.476054	-0.655703	-0.124593
C32	C	1.476041	-0.655720	0.124622
C33	C	1.477979	-0.582885	0.124624
C34	C	1.478966	-0.546463	0.000015
C35	C	1.712532	0.098768	0.000044
C36	C	1.851931	0.100823	0.000040
C37	C	1.473036	0.230353	0.000017
C38	C	1.475084	0.307871	0.000004
N39	N	1.482901	0.102746	0.356156
N40	N	1.482931	0.102750	-0.356081
C41	C	1.568565	0.055716	0.428092
C42	C	1.568577	0.055716	0.571975
C43	C	1.397258	0.149783	0.571973
C44	C	1.397240	0.149778	0.428092
H45	H	0.864105	0.100993	0.226118
F46	F	1.475004	-0.694487	0.257228
H47	H	1.638313	0.017418	0.369525
F48	F	1.306099	0.199837	0.648542
H49	H	1.478801	-0.553210	-0.226052
F50	F	1.659749	0.005659	0.648531
H51	H	0.864094	0.101008	-0.226026
F52	F	1.478989	-0.544140	0.257241
F53	F	1.490833	-0.100014	-0.257161
H54	H	1.327476	0.188076	0.369518
H55	H	1.475275	-0.685341	-0.226061
H56	H	1.487065	-0.241254	-0.226018
F57	F	1.118080	0.104740	-0.257194
F58	F	1.118109	0.104736	0.257243
H59	H	1.487028	-0.241293	0.226108
H60	H	1.490518	-0.109152	0.226135
