data_functionalizedCrystal
_audit_creation_method	'MofGen! by Chris Wilmer'
_symmetry_space_group_name_H-M	'P1'
_symmetry_Int_Tables_number	1
_symmetry_cell_setting	triclinic
loop_
_symmetry_equiv_pos_as_xyz
  x,y,z
_cell_length_a	15.624803
_cell_length_b	19.188940
_cell_length_c	14.750779
_cell_angle_alpha	77.400219
_cell_angle_beta	85.131014
_cell_angle_gamma	83.714626
loop_
_atom_site_label
_atom_site_type_symbol
_atom_site_fract_x
_atom_site_fract_y
_atom_site_fract_z
O1	O	1.083552	0.177733	-0.457106
O2	O	1.583552	0.677733	0.042894
O3	O	0.841717	0.172646	-0.372904
O4	O	1.341717	0.672646	0.127096
O5	O	0.969611	0.074018	-0.417427
O6	O	1.469611	0.574018	0.082573
O7	O	0.955658	0.276360	-0.412584
O8	O	1.455658	0.776360	0.087416
O9	O	1.005765	0.046140	-0.270363
O10	O	1.505765	0.546140	0.229637
O11	O	0.877871	0.144768	-0.225840
O12	O	1.377871	0.644768	0.274160
O13	O	1.119706	0.149855	-0.310042
O14	O	1.619706	0.649855	0.189958
Zn15	Zn	1.004529	0.142885	-0.244591
Zn16	Zn	1.504529	0.642885	0.255409
Zn17	Zn	0.956894	0.179615	-0.438355
Zn18	Zn	1.456894	0.679615	0.061645
O19	O	0.991812	0.248483	-0.265519
O20	O	1.491812	0.748483	0.234481
C21	C	0.828854	0.156175	-0.288600
C22	C	1.328854	0.656175	0.211400
C23	C	0.736664	0.148621	-0.256501
C24	C	1.236664	0.648621	0.243499
C25	C	0.334996	0.199739	-0.551844
C26	C	0.834996	0.699739	-0.051844
C27	C	0.248372	0.192627	-0.521681
C28	C	0.748372	0.692627	-0.021681
C29	C	0.287765	0.162235	-0.361350
C30	C	0.787765	0.662235	0.138650
C31	C	0.374395	0.169340	-0.391500
C32	C	0.874395	0.669340	0.108500
C33	C	0.398003	0.188093	-0.486748
C34	C	0.898003	0.688093	0.013252
C35	C	0.437401	0.157694	-0.326403
C36	C	0.937401	0.657694	0.173597
C37	C	0.524023	0.164803	-0.356551
C38	C	1.024023	0.664803	0.143449
C39	C	0.547638	0.183557	-0.451794
C40	C	1.047638	0.683557	0.048206
C41	C	0.484624	0.195201	-0.516895
C42	C	0.984624	0.695201	-0.016895
C43	C	0.413790	0.138946	-0.231156
C44	C	0.913790	0.638946	0.268844
C45	C	0.476797	0.127301	-0.166059
C46	C	0.976797	0.627301	0.333941
C47	C	0.563421	0.134404	-0.196206
C48	C	1.063421	0.634404	0.303794
C49	C	0.587036	0.153159	-0.291450
C50	C	1.087036	0.653159	0.208550
C51	C	0.626434	0.122760	-0.131106
C52	C	1.126434	0.622760	0.368894
C53	C	0.713056	0.129868	-0.161253
C54	C	1.213056	0.629868	0.338747
C55	C	0.673658	0.160267	-0.321597
C56	C	1.173658	0.660267	0.178403
C57	C	0.987235	0.034037	-0.343737
C58	C	1.487235	0.534037	0.156263
C59	C	0.985875	-0.043562	-0.343264
C60	C	1.485875	0.456438	0.156736
C61	C	0.995901	-0.612687	-0.259751
C62	C	1.495901	-0.112687	0.240249
C63	C	0.997171	-0.539775	-0.260188
C64	C	1.497171	-0.039775	0.239812
C65	C	0.978102	-0.488115	-0.340574
C66	C	1.478102	0.011885	0.159426
C67	C	0.957740	-0.509371	-0.420522
C68	C	1.457740	-0.009371	0.079478
C69	C	0.956462	-0.582281	-0.420080
C70	C	1.456462	-0.082281	0.079920
N71	N	1.012697	-0.364354	-0.417394
N72	N	1.512697	0.135646	0.082606
N73	N	1.013914	-0.295093	-0.417809
N74	N	1.513914	0.204907	0.082191
C75	C	0.981949	-0.268439	-0.341910
C76	C	1.481949	0.231561	0.158090
N77	N	0.948735	-0.313665	-0.265570
N78	N	1.448735	0.186335	0.234430
N79	N	0.947522	-0.382933	-0.265154
N80	N	1.447522	0.117067	0.234846
C81	C	0.979485	-0.409054	-0.341062
C82	C	1.479485	0.090946	0.158938
C83	C	1.003681	-0.168131	-0.262439
C84	C	1.503681	0.331869	0.237561
C85	C	1.004945	-0.095217	-0.262878
C86	C	1.504945	0.404783	0.237122
C87	C	0.965522	-0.064814	-0.423217
C88	C	1.465522	0.435186	0.076783
C89	C	0.964250	-0.137727	-0.422773
C90	C	1.464250	0.362273	0.077227
C91	C	0.983334	-0.189382	-0.342383
C92	C	1.483334	0.310618	0.157617
C93	C	1.132568	0.166326	-0.394349
C94	C	1.632568	0.666326	0.105651
C95	C	1.224757	0.173881	-0.426453
C96	C	1.724757	0.673881	0.073547
C97	C	0.974188	0.288464	-0.339211
C98	C	1.474188	0.788464	0.160789
C99	C	0.975546	0.366064	-0.339690
C100	C	1.475546	0.866064	0.160310
N101	N	1.037044	0.117818	-0.112355
N102	N	1.537044	0.617818	0.387645
N103	N	0.924386	0.204677	-0.570594
N104	N	1.424386	0.704677	-0.070594
C105	C	0.833575	0.274656	0.310295
C106	C	1.333575	0.774656	0.810295
C107	C	0.856366	0.257095	0.402860
C108	C	1.356366	0.757095	0.902860
C109	C	0.969639	0.169797	0.363390
C110	C	1.469639	0.669797	0.863390
C111	C	0.946855	0.187347	0.270821
C112	C	1.446855	0.687347	0.770821
C113	C	0.878823	0.239778	0.244281
C114	C	1.378823	0.739778	0.744281
C115	C	0.992103	0.152470	0.204807
C116	C	1.492103	0.652470	0.704807
C117	C	0.969323	0.170022	0.112244
C118	C	1.469323	0.670022	0.612244
C119	C	0.901296	0.222452	0.085696
C120	C	1.401296	0.722452	0.585696
C121	C	0.856043	0.257330	0.151719
C122	C	1.356043	0.757330	0.651719
C123	C	1.060138	0.100043	0.231347
C124	C	1.560138	0.600043	0.731347
C125	C	1.105386	0.065165	0.165333
C126	C	1.605386	0.565165	0.665333
C127	C	1.082603	0.082714	0.072770
C128	C	1.582603	0.582714	0.572770
C129	C	1.014576	0.135144	0.046222
C130	C	1.514576	0.635144	0.546222
C131	C	1.127855	0.047836	0.006747
C132	C	1.627855	0.547836	0.506747
C133	C	1.105076	0.065388	-0.085815
C134	C	1.605076	0.565388	0.414185
C135	C	0.991796	0.152696	-0.046341
C136	C	1.491796	0.652696	0.453659
H137	H	0.607198	0.107498	-0.053554
H138	H	1.107198	0.607498	0.446446
F139	F	0.639829	0.191126	-0.483880
F140	F	1.139829	0.691126	0.016120
F141	F	0.360127	0.219689	-0.653219
F142	F	0.860127	0.719689	-0.153219
F143	F	0.780115	0.117475	-0.091970
F144	F	1.280115	0.617475	0.408030
F145	F	0.321598	0.131385	-0.199072
F146	F	0.821598	0.631385	0.300928
H147	H	1.019213	-0.210190	-0.196979
H148	H	1.519213	0.289810	0.303021
H149	H	0.947681	-0.155027	-0.487870
H150	H	1.447681	0.344973	0.012130
F151	F	1.016206	-0.667657	-0.174191
F152	F	1.516206	-0.167657	0.325809
H153	H	0.936392	0.195385	-0.067947
H154	H	1.436392	0.695385	0.432053
F155	F	0.783628	0.313126	0.123475
F156	F	1.283628	0.813126	0.623475
H157	H	1.013731	-0.522469	-0.195085
H158	H	1.513731	-0.022469	0.304915
F159	F	0.934798	-0.604896	-0.505166
F160	F	1.434798	-0.104896	-0.005166
H161	H	0.882752	0.236744	0.010324
H162	H	1.382752	0.736744	0.510324
H163	H	0.942211	-0.467304	-0.485971
H164	H	1.442211	0.032696	0.014029
H165	H	1.021519	-0.077919	-0.197779
H166	H	1.521519	0.422081	0.302221
F167	F	1.177791	0.009368	0.193586
F168	F	1.677791	0.509368	0.693586
F169	F	0.761159	0.330452	0.282051
F170	F	1.261159	0.830452	0.782051
H171	H	0.457562	0.112034	-0.088508
H172	H	0.957562	0.612034	0.411492
H173	H	0.819514	0.285502	0.456608
H174	H	1.319514	0.785502	0.956608
F175	F	1.042044	0.114000	0.391644
F176	F	1.542044	0.614000	0.891644
H177	H	1.078685	0.085757	0.306718
H178	H	1.578685	0.585757	0.806718
H179	H	0.949986	-0.022753	-0.488665
H180	H	1.449986	0.477247	0.011335
F181	F	0.262628	0.142280	-0.259983
F182	F	0.762628	0.642280	0.240017
H183	H	1.183253	0.005151	0.028367
H184	H	1.683253	0.505151	0.528367
H185	H	1.141923	0.036987	-0.139566
H186	H	1.641923	0.536987	0.360434
H187	H	0.503847	0.210470	-0.594455
H188	H	1.003847	0.710470	-0.094455
F189	F	0.698789	0.180218	-0.422972
F190	F	1.198789	0.680218	0.077028
F191	F	0.181316	0.205026	-0.590974
F192	F	0.681316	0.705026	-0.090974
