data_functionalizedCrystal
_audit_creation_method	'MofGen! by Chris Wilmer'
_symmetry_space_group_name_H-M	'P1'
_symmetry_Int_Tables_number	1
_symmetry_cell_setting	triclinic
loop_
_symmetry_equiv_pos_as_xyz
  x,y,z
_cell_length_a	18.101395
_cell_length_b	16.959455
_cell_length_c	16.959447
_cell_angle_alpha	90.015228
_cell_angle_beta	89.970532
_cell_angle_gamma	89.974126
loop_
_atom_site_label
_atom_site_type_symbol
_atom_site_fract_x
_atom_site_fract_y
_atom_site_fract_z
Zn1	Zn	-0.294918	-1.208323	-0.446932
Zn2	Zn	-0.418771	-1.208220	-0.314756
Zn3	Zn	-0.294937	-1.076152	-0.314768
Zn4	Zn	-0.418711	-1.076091	-0.446892
O5	O	-0.356834	-1.142196	-0.380837
O6	O	-0.311365	-1.318920	-0.429411
O7	O	-0.402377	-1.190683	-0.204146
O8	O	-0.191302	-1.093753	-0.332322
O9	O	-0.402359	-1.318845	-0.332301
O10	O	-0.191288	-1.190859	-0.429422
O11	O	-0.311397	-1.093653	-0.204155
O12	O	-0.311338	-0.965533	-0.332283
O13	O	-0.402257	-1.093649	-0.557509
O14	O	-0.402275	-0.965488	-0.429354
O15	O	-0.311307	-1.190800	-0.557538
O16	O	-0.522396	-1.190624	-0.332262
O17	O	-0.522352	-1.093550	-0.429342
C18	C	-0.356803	-0.936830	-0.380816
C19	C	-0.356807	-0.848974	-0.380825
C20	C	-0.309421	-0.477497	-0.330387
C21	C	-0.404261	-0.477499	-0.431311
C22	C	-0.404254	-0.560045	-0.431308
C23	C	-0.356830	-0.601321	-0.380842
C24	C	-0.309414	-0.560050	-0.330380
C25	C	-0.451674	-0.601321	-0.481763
C26	C	-0.451669	-0.683872	-0.481761
C27	C	-0.404241	-0.725150	-0.431299
C28	C	-0.356822	-0.683874	-0.380836
C29	C	-0.309399	-0.725150	-0.330370
C30	C	-0.261976	-0.683876	-0.279910
C31	C	-0.261986	-0.601327	-0.279918
C32	C	-0.404231	-0.807698	-0.431291
C33	C	-0.309391	-0.807703	-0.330363
C34	C	-0.549245	-1.142091	-0.380814
C35	C	-0.631559	-1.142118	-0.380830
C36	C	-0.930650	-1.142291	-0.380873
C37	C	-0.899328	-1.081356	-0.442105
C38	C	-0.813710	-1.081066	-0.441913
C39	C	-0.782268	-1.142205	-0.380852
C40	C	-0.813420	-1.119658	-0.297548
C41	C	-0.899065	-1.119266	-0.297914
C42	C	-0.899000	-1.225907	-0.402213
C43	C	-0.813349	-1.225415	-0.404040
C44	C	-0.698408	-1.142158	-0.380836
C45	C	-1.014509	-1.142337	-0.380884
C46	C	-0.163673	-1.142324	-0.380878
C47	C	-0.081358	-1.142379	-0.380895
C48	C	-0.356773	-1.142229	-0.587005
C49	C	-0.356747	-1.142243	-0.674862
C50	C	-0.356858	-0.348365	-0.380855
C51	C	-0.356845	-0.436221	-0.380853
C52	C	-0.404022	-1.091756	-1.046325
C53	C	-0.309315	-1.192920	-1.046351
C54	C	-0.309331	-1.192899	-0.963805
C55	C	-0.356694	-1.142306	-0.922515
C56	C	-0.404041	-1.091735	-0.963771
C57	C	-0.261990	-1.243475	-0.922542
C58	C	-0.262004	-1.243456	-0.839991
C59	C	-0.309364	-1.192859	-0.798700
C60	C	-0.356713	-1.142285	-0.839962
C61	C	-0.404076	-1.091693	-0.798672
C62	C	-0.451421	-1.041114	-0.839932
C63	C	-0.451401	-1.041138	-0.922480
C64	C	-0.309384	-1.192836	-0.716152
C65	C	-0.404094	-1.091672	-0.716118
C66	C	-0.356842	-1.142209	-0.175471
C67	C	-0.356660	-1.142348	-0.087615
H68	H	-0.442876	-0.443888	-0.472393
H69	H	-0.270838	-1.234018	-0.682562
H70	H	-0.920548	-1.246464	-0.461923
H71	H	-0.919255	-1.271306	-0.357615
O72	O	-0.786446	-1.176590	-0.235459
H73	H	-0.750461	-1.221664	-0.263383
O74	O	-0.926518	-1.175508	-0.235427
H75	H	-0.987836	-1.175657	-0.235227
O76	O	-0.502820	-0.556807	-0.536193
H77	H	-0.494850	-0.492472	-0.527728
H78	H	-0.490283	-0.717471	-0.522849
H79	H	-0.793282	-1.019089	-0.427778
H80	H	-0.223453	-1.284640	-0.806405
H81	H	-0.270768	-0.841304	-0.289273
H82	H	-0.223367	-0.717493	-0.238818
H83	H	-0.442844	-0.841299	-0.472372
H84	H	-0.223434	-1.284669	-0.956166
H85	H	-0.223378	-0.567715	-0.238836
H86	H	-0.270809	-0.443888	-0.289306
H87	H	-0.919103	-1.058143	-0.279837
O88	O	-0.785098	-1.039551	-0.273167
H89	H	-0.748845	-1.015666	-0.320242
H90	H	-0.792645	-1.095172	-0.503683
H91	H	-0.270759	-1.234114	-1.079974
H92	H	-0.792985	-1.242417	-0.465347
H93	H	-0.919875	-1.095322	-0.504074
O94	O	-0.455162	-1.037086	-0.671584
H95	H	-0.488075	-1.001920	-0.714145
O96	O	-0.927899	-0.999752	-0.423617
H97	H	-0.964310	-1.002404	-0.371006
O98	O	-0.502500	-0.986538	-0.795400
H99	H	-0.540193	-1.021877	-0.757776
O100	O	-0.785014	-1.288723	-0.349245
H101	H	-0.723791	-1.290779	-0.352310
H102	H	-0.442568	-1.050574	-1.079922
O103	O	-0.502463	-0.986588	-0.966979
H104	H	-0.494497	-0.995109	-1.031316
