data_functionalizedCrystal
_audit_creation_method	'MofGen! by Chris Wilmer'
_symmetry_space_group_name_H-M	'P1'
_symmetry_Int_Tables_number	1
_symmetry_cell_setting	triclinic
loop_
_symmetry_equiv_pos_as_xyz
  x,y,z
_cell_length_a	6.817900
_cell_length_b	12.908942
_cell_length_c	12.908943
_cell_angle_alpha	95.895910
_cell_angle_beta	100.860631
_cell_angle_gamma	100.860556
loop_
_atom_site_label
_atom_site_type_symbol
_atom_site_fract_x
_atom_site_fract_y
_atom_site_fract_z
V1	V	-3.982913	-0.144539	-0.328101
O2	O	-3.985073	0.008300	-0.322459
O3	O	-3.921446	-0.287899	-0.325276
O4	O	-3.921449	-0.141721	-0.471462
O5	O	-3.985070	-0.138889	-0.175261
V6	V	-4.469927	-0.126328	-0.309890
O7	O	-4.236514	-0.184486	-0.368047
O8	O	-4.666524	-0.086380	-0.269945
O9	O	-4.308188	0.017032	-0.312715
O10	O	-4.585164	-0.279166	-0.315533
O11	O	-4.585167	-0.131977	-0.462730
O12	O	-4.308185	-0.129145	-0.166530
C13	C	-3.763691	-0.322865	-0.319951
C14	C	-3.794634	-0.440060	-0.318597
C15	C	-4.215088	-0.670981	-0.326552
C16	C	-4.244172	-0.781096	-0.325281
C17	C	-3.881889	-0.770408	-0.314790
C18	C	-3.852805	-0.660293	-0.316061
C19	C	-4.019413	-0.610583	-0.321941
C20	C	-3.990325	-0.500465	-0.323205
C21	C	-3.628047	-0.489780	-0.312722
C22	C	-3.657130	-0.599895	-0.311450
C23	C	-3.763694	-0.136400	-0.506423
C24	C	-3.794638	-0.135045	-0.623618
C25	C	-4.215081	-0.142961	-0.854532
C26	C	-4.244165	-0.141688	-0.964647
C27	C	-3.881889	-0.131220	-0.953963
C28	C	-3.852806	-0.132493	-0.843848
C29	C	-4.019410	-0.138365	-0.794137
C30	C	-3.990326	-0.139645	-0.684021
C31	C	-3.628051	-0.129169	-0.673338
C32	C	-3.657134	-0.127897	-0.783453
C33	C	-4.129285	0.051993	-0.318038
C34	C	-4.077579	0.169186	-0.319398
C35	C	-4.129282	-0.134470	-0.131562
C36	C	-4.077578	-0.135819	-0.014367
H37	H	-4.125984	-0.459992	-0.327985
H38	H	-3.746258	-0.810903	-0.310013
H39	H	-4.350742	-0.630504	-0.331324
H40	H	-3.746255	-0.126432	-0.994456
Br41	Br	-3.362469	-0.407806	-0.306463
H42	H	-3.521491	-0.640385	-0.306667
Br43	Br	-4.509743	-0.863064	-0.331546
H44	H	-4.125987	-0.144431	-0.643549
Br45	Br	-4.509726	-0.147919	-1.046609
Br46	Br	-3.362483	-0.122944	-0.591369
H47	H	-4.350741	-0.147753	-0.814059
H48	H	-3.521496	-0.123112	-0.823943
