data_functionalizedCrystal
_audit_creation_method	'MofGen! by Chris Wilmer'
_symmetry_space_group_name_H-M	'P1'
_symmetry_Int_Tables_number	1
_symmetry_cell_setting	triclinic
loop_
_symmetry_equiv_pos_as_xyz
  x,y,z
_cell_length_a	15.944551
_cell_length_b	10.540539
_cell_length_c	9.616153
_cell_angle_alpha	90.004156
_cell_angle_beta	89.992153
_cell_angle_gamma	84.012115
loop_
_atom_site_label
_atom_site_type_symbol
_atom_site_fract_x
_atom_site_fract_y
_atom_site_fract_z
O1	O	0.118376	1.684263	-0.115583
O2	O	0.129529	1.314698	-0.115601
O3	O	0.001738	1.509572	-0.115579
O4	O	0.246168	1.489388	-0.115605
O5	O	0.001727	1.509581	0.115712
O6	O	0.129518	1.314707	0.115690
O7	O	0.118365	1.684271	0.115708
Zn8	Zn	0.123940	1.499490	0.152422
Zn9	Zn	0.123955	1.499479	-0.152315
O10	O	0.246157	1.489397	0.115686
C11	C	0.128688	1.267411	0.000043
C12	C	0.126185	1.126497	0.000036
C13	C	-0.029566	1.508739	0.000067
C14	C	-0.122827	1.506227	0.000067
C15	C	0.030298	0.944375	0.000587
C16	C	0.032835	1.090959	0.000051
C17	C	0.171116	1.064207	-0.132042
C18	C	0.167930	0.917706	-0.132138
C19	C	0.169816	0.917202	0.130883
C20	C	0.170676	1.064172	0.132615
C21	C	-0.338440	1.379430	0.000042
C22	C	-0.399111	1.438314	0.114086
C23	C	-0.293580	1.501682	0.000056
C24	C	-0.399084	1.438335	-0.113950
C25	C	-0.458519	1.497283	0.000040
C26	C	-0.353023	1.560600	0.114194
C27	C	-0.352990	1.560603	-0.113944
C28	C	-0.413643	1.619577	0.000128
C29	C	-0.198563	1.504213	0.000067
C30	C	-0.553535	1.494762	0.000039
C31	C	0.277461	1.490231	0.000037
C32	C	0.370722	1.492743	0.000027
C33	C	0.119207	1.731559	0.000061
C34	C	0.121710	1.872473	0.000058
N35	N	0.123959	1.499472	-0.360289
C36	C	0.192190	1.395007	-0.419342
C37	C	0.192421	1.395296	-0.580510
C38	C	0.143738	1.632005	-0.581078
C39	C	0.144245	1.631371	-0.419861
C40	C	0.035713	1.472639	-0.419659
C41	C	0.036264	1.469649	-0.580888
N42	N	0.123930	1.499507	0.360396
H43	H	-0.002518	1.134058	0.094731
F44	F	-0.017701	0.905536	-0.122513
F45	F	-0.033296	1.562659	-0.633439
H46	H	-0.419533	1.386610	0.210495
F47	F	0.259636	1.094618	0.143028
H48	H	-0.332547	1.612263	-0.210358
F49	F	-0.425741	1.370716	-0.239961
H50	H	0.180521	1.296814	-0.620083
F51	F	0.081736	1.735951	-0.368790
F52	F	-0.030667	1.572210	-0.369734
H53	H	0.180487	1.296184	-0.380590
F54	F	-0.017911	0.907668	0.124395
H55	H	0.095380	1.711631	-0.619350
F56	F	0.277287	1.417134	-0.366467
F57	F	0.257947	0.854275	0.132042
F58	F	0.226914	1.663640	-0.633897
H59	H	0.139913	1.107217	-0.230331
F60	F	-0.326502	1.628138	0.240352
F61	F	-0.295696	1.246795	0.000178
H62	H	0.257881	1.412475	-0.619117
F63	F	-0.456195	1.752326	0.000214
H64	H	0.208621	1.654989	-0.382295
H65	H	0.016843	1.378084	-0.378973
H66	H	-0.002758	1.133186	-0.094786
F67	F	0.255680	0.853808	-0.139984
F68	F	0.124537	0.881416	-0.261175
F69	F	0.260715	1.092233	-0.138501
H70	H	0.021248	1.372180	-0.619143
H71	H	0.139601	0.886071	0.230998
H72	H	0.137853	1.105585	0.230326
