data_functionalizedCrystal
_audit_creation_method	'MofGen! by Chris Wilmer'
_symmetry_space_group_name_H-M	'P1'
_symmetry_Int_Tables_number	1
_symmetry_cell_setting	triclinic
loop_
_symmetry_equiv_pos_as_xyz
  x,y,z
_cell_length_a	14.519709
_cell_length_b	23.532407
_cell_length_c	12.996460
_cell_angle_alpha	89.989202
_cell_angle_beta	90.000034
_cell_angle_gamma	83.264412
loop_
_atom_site_label
_atom_site_type_symbol
_atom_site_fract_x
_atom_site_fract_y
_atom_site_fract_z
O1	O	1.222985	0.074654	-0.085444
O2	O	0.954405	0.083445	-0.085477
O3	O	1.096794	-0.003845	-0.085440
O4	O	1.080596	0.161945	-0.085480
O5	O	1.096779	-0.003850	0.085693
O6	O	0.954390	0.083441	0.085657
O7	O	1.222971	0.074649	0.085690
Cu8	Cu	1.088679	0.079044	0.101299
Cu9	Cu	1.088696	0.079050	-0.101086
O10	O	1.080581	0.161940	0.085654
C11	C	0.920042	0.083033	0.000086
C12	C	0.817676	0.081805	0.000075
C13	C	0.442833	0.077286	0.000123
C14	C	0.547126	0.078541	0.000109
C15	C	0.630251	0.079545	0.000098
C16	C	0.734551	0.080801	0.000086
C17	C	1.096374	-0.025066	0.000129
C18	C	1.095134	-0.088288	0.000137
C19	C	1.171619	-0.487046	0.000090
C20	C	1.170467	-0.546452	0.000082
O21	O	1.241369	-0.582876	0.000052
N22	N	1.085816	-0.569460	0.000072
C23	C	1.002312	-0.533059	0.000060
O24	O	0.930205	-0.558084	0.000050
C25	C	1.003465	-0.473655	0.000061
C26	C	1.088121	-0.450650	0.000081
C27	C	1.256268	-0.464041	0.000109
C28	C	1.257420	-0.404640	0.000119
C29	C	1.173922	-0.368244	0.000110
C30	C	1.089273	-0.391249	0.000091
C31	C	0.919962	-0.437255	0.000041
C32	C	0.921123	-0.377847	0.000041
C33	C	1.005779	-0.354843	0.000061
C34	C	1.006927	-0.295451	0.000091
N35	N	1.091578	-0.272443	0.000101
C36	C	1.175075	-0.308839	0.000110
C37	C	0.999897	-0.657813	0.000057
C38	C	0.998743	-0.717216	0.000064
C39	C	1.166898	-0.730604	0.000084
C40	C	1.168051	-0.671200	0.000084
C41	C	1.084548	-0.634804	0.000067
C42	C	1.177487	-0.184092	0.000132
C43	C	1.178632	-0.124685	0.000146
C44	C	1.010477	-0.111301	0.000121
C45	C	1.009332	-0.170703	0.000112
C46	C	1.092845	-0.207098	0.000114
O47	O	0.936062	-0.258992	0.000117
O48	O	1.247171	-0.283806	0.000106
C49	C	1.257333	0.075061	0.000125
C50	C	1.359700	0.076289	0.000130
C51	C	1.081001	0.183160	0.000082
C52	C	1.082241	0.246383	0.000067
N53	N	1.088673	0.079040	0.243647
N54	N	1.088709	0.079050	-0.243433
C55	C	1.088695	0.079051	0.663461
C56	C	1.088686	0.079050	0.546656
C57	C	1.088685	0.079046	0.453557
C58	C	1.088675	0.079044	0.336745
H59	H	1.247572	-0.105958	0.000165
O60	O	0.837645	-0.459498	-0.000029
C61	C	0.764208	-0.414624	-0.000017
H62	H	0.789699	-0.374242	-0.032404
H63	H	0.738465	-0.406256	0.082078
C64	C	0.653023	-0.481061	-0.027377
C65	C	0.684329	-0.431464	-0.067163
H66	H	0.603747	-0.491448	-0.068791
H67	H	0.702498	-0.511293	-0.027381
H68	H	0.631577	-0.474080	0.041035
H69	H	0.705784	-0.438447	-0.135569
H70	H	0.634855	-0.401233	-0.067172
H71	H	1.234886	-0.760249	0.000087
H72	H	0.942496	-0.081657	0.000117
H73	H	0.853122	-0.348216	0.000025
O74	O	0.927019	-0.192959	0.000051
C75	C	0.853570	-0.148093	0.000075
H76	H	0.879047	-0.107704	-0.032302
H77	H	0.827828	-0.139733	0.082173
C78	C	0.742406	-0.214541	-0.027300
C79	C	0.773695	-0.164936	-0.067074
H80	H	0.693133	-0.224931	-0.068716
H81	H	0.791889	-0.244769	-0.027312
H82	H	0.720960	-0.207568	0.041114
H83	H	0.795150	-0.171912	-0.135481
H84	H	0.724214	-0.134710	-0.067074
H85	H	1.245491	-0.213718	0.000129
O86	O	1.339598	-0.382232	-0.000013
C87	C	1.345318	-0.348275	-0.088659
H88	H	1.272496	-0.333550	-0.118209
H89	H	1.386355	-0.374473	-0.150721
C90	C	1.483942	-0.313772	-0.025443
C91	C	1.394501	-0.295682	-0.061732
H92	H	1.514284	-0.281332	-0.008836
H93	H	1.480092	-0.336651	0.034278
H94	H	1.518128	-0.335604	-0.077167
H95	H	1.360314	-0.273857	-0.010003
H96	H	1.398347	-0.272799	-0.121444
H97	H	1.324266	-0.493670	0.000112
H98	H	0.931894	-0.628182	0.000052
H99	H	1.236985	-0.652474	0.000100
H100	H	0.929808	-0.735940	0.000065
