data_functionalizedCrystal
_audit_creation_method	'MofGen! by Chris Wilmer'
_symmetry_space_group_name_H-M	'P1'
_symmetry_Int_Tables_number	1
_symmetry_cell_setting	triclinic
loop_
_symmetry_equiv_pos_as_xyz
  x,y,z
_cell_length_a	16.625548
_cell_length_b	10.686285
_cell_length_c	10.685880
_cell_angle_alpha	89.638885
_cell_angle_beta	85.603426
_cell_angle_gamma	85.632645
loop_
_atom_site_label
_atom_site_type_symbol
_atom_site_fract_x
_atom_site_fract_y
_atom_site_fract_z
Zn1	Zn	1.292816	-0.553669	-0.671108
Zn2	Zn	1.792816	-0.053669	-0.171108
Zn3	Zn	1.291179	-0.747406	-0.445280
Zn4	Zn	1.791179	-0.247406	0.054720
Zn5	Zn	1.146907	-0.537664	-0.461348
Zn6	Zn	1.646907	-0.037664	0.038652
Zn7	Zn	1.167475	-0.763384	-0.654995
Zn8	Zn	1.667475	-0.263384	-0.154995
O9	O	1.224594	-0.650531	-0.558183
O10	O	1.724594	-0.150531	-0.058183
O11	O	1.405433	-0.579380	-0.641170
O12	O	1.905433	-0.079380	-0.141170
O13	O	1.262748	-0.706199	-0.271860
O14	O	1.762748	-0.206199	0.228140
O15	O	1.158340	-0.364242	-0.502641
O16	O	1.658340	0.135758	-0.002641
O17	O	1.404230	-0.721718	-0.475255
O18	O	1.904230	-0.221718	0.024745
O19	O	1.265539	-0.376001	-0.656751
O20	O	1.765539	0.123999	-0.156751
O21	O	1.156753	-0.552102	-0.283665
O22	O	1.656753	-0.052102	0.216335
O23	O	1.036802	-0.567594	-0.487018
O24	O	1.536802	-0.067594	0.012982
O25	O	1.193394	-0.748949	-0.832684
O26	O	1.693394	-0.248949	-0.332684
O27	O	1.051912	-0.733430	-0.629289
O28	O	1.551912	-0.233430	-0.129289
O29	O	1.285482	-0.594873	-0.844522
O30	O	1.785482	-0.094873	-0.344522
O31	O	1.282691	-0.925070	-0.459631
O32	O	1.782691	-0.425070	0.040369
O33	O	1.191806	-0.936809	-0.613708
O34	O	1.691806	-0.436809	-0.113708
C35	C	1.239326	-0.976458	-0.533205
C36	C	1.739326	-0.476458	-0.033205
C37	C	1.245705	-1.115895	-0.522561
C38	C	1.745705	-0.615895	-0.022561
C39	C	1.015101	-0.650510	-0.558149
C40	C	1.515101	-0.150510	-0.058149
C41	C	0.925481	-0.650534	-0.558162
C42	C	1.425481	-0.150534	-0.058162
C43	C	0.597309	-0.650546	-0.558215
C44	C	1.097309	-0.150546	-0.058215
C45	C	0.688616	-0.650539	-0.558197
C46	C	1.188616	-0.150539	-0.058197
C47	C	0.761392	-0.650540	-0.558188
C48	C	1.261392	-0.150540	-0.058188
C49	C	0.852705	-0.650532	-0.558171
C50	C	1.352705	-0.150532	-0.058171
C51	C	1.434906	-0.650552	-0.558217
C52	C	1.934906	-0.150552	-0.058217
C53	C	1.524528	-0.650561	-0.558232
C54	C	2.024528	-0.150561	-0.058232
C55	C	1.241915	-0.675479	-0.885395
C56	C	1.741915	-0.175479	-0.385395
C57	C	1.249295	-0.686110	-1.024833
C58	C	1.749295	-0.186110	-0.524833
C59	C	1.209828	-0.323332	-0.583286
C60	C	1.709828	0.176668	-0.083286
C61	C	1.203535	-0.183900	-0.593983
C62	C	1.703535	0.316100	-0.093983
C63	C	1.207383	-0.625589	-0.232251
C64	C	1.707383	-0.125589	0.267749
C65	C	1.200143	-0.614604	-0.092841
C66	C	1.700143	-0.114604	0.407159
H67	H	1.162553	-1.135451	-0.663276
H68	H	1.662553	-0.635451	-0.163276
H69	H	1.286684	-1.164351	-0.453257
H70	H	1.786684	-0.664351	0.046743
N71	N	1.309171	-0.773125	-1.085627
N72	N	1.809171	-0.273125	-0.585627
N73	N	1.315288	-0.781938	-1.202611
N74	N	1.815288	-0.281938	-0.702611
H75	H	1.357573	-0.843392	-1.245549
H76	H	1.857573	-0.343392	-0.745549
H77	H	1.152408	-0.545255	-1.044391
H78	H	1.652408	-0.045255	-0.544391
