data_functionalizedCrystal
_audit_creation_method	'MofGen! by Chris Wilmer'
_symmetry_space_group_name_H-M	'P1'
_symmetry_Int_Tables_number	1
_symmetry_cell_setting	triclinic
loop_
_symmetry_equiv_pos_as_xyz
  x,y,z
_cell_length_a	16.625546
_cell_length_b	17.639762
_cell_length_c	16.625539
_cell_angle_alpha	101.175565
_cell_angle_beta	89.969603
_cell_angle_gamma	101.252108
loop_
_atom_site_label
_atom_site_type_symbol
_atom_site_fract_x
_atom_site_fract_y
_atom_site_fract_z
Zn1	Zn	-0.071445	1.208380	-0.207097
Zn2	Zn	0.428555	1.708380	0.292903
Zn3	Zn	-0.206308	1.208285	-0.072279
Zn4	Zn	0.293692	1.708285	0.427721
Zn5	Zn	-0.098771	1.076200	-0.099493
Zn6	Zn	0.401229	1.576200	0.400507
Zn7	Zn	-0.233543	1.076171	-0.234270
Zn8	Zn	0.266457	1.576171	0.265730
O9	O	-0.152517	1.142259	-0.153285
O10	O	0.347483	1.642259	0.346715
O11	O	-0.066501	1.318975	-0.166452
O12	O	0.433499	1.818975	0.333548
O13	O	-0.192081	1.190736	0.036938
O14	O	0.307919	1.690736	0.536938
O15	O	0.017697	1.093786	-0.113784
O16	O	0.517697	1.593786	0.386216
O17	O	-0.165584	1.318905	-0.067401
O18	O	0.334416	1.818905	0.432599
O19	O	0.037773	1.190898	-0.192840
O20	O	0.537773	1.690898	0.307160
O21	O	-0.113074	1.093694	0.016944
O22	O	0.386926	1.593694	0.516944
O23	O	-0.139483	0.965588	-0.140133
O24	O	0.360517	1.465588	0.359867
O25	O	-0.212003	1.093736	-0.343493
O26	O	0.287997	1.593736	0.156507
O27	O	-0.238500	0.965567	-0.239153
O28	O	0.261500	1.465567	0.260847
O29	O	-0.092910	1.190870	-0.323528
O30	O	0.407090	1.690870	0.176472
O31	O	-0.322764	1.190708	-0.093750
O32	O	0.177236	1.690708	0.406250
O33	O	-0.342773	1.093644	-0.212765
O34	O	0.157227	1.593644	0.287235
C35	C	-0.194913	0.936898	-0.195545
C36	C	0.305087	1.436898	0.304455
C37	C	-0.213069	0.849043	-0.213644
C38	C	0.286931	1.349043	0.286356
C39	C	-0.362023	1.142184	-0.153266
C40	C	0.137977	1.642184	0.346734
C41	C	-0.451636	1.142224	-0.153271
C42	C	0.048364	1.642224	0.346729
C43	C	-0.290282	0.725226	-0.290618
C44	C	0.209718	1.225226	0.209382
C45	C	-0.273216	0.807779	-0.273606
C46	C	0.226784	1.307779	0.226394
C47	C	-0.169962	0.807765	-0.170672
C48	C	0.330038	1.307765	0.329328
C49	C	-0.187017	0.725211	-0.187679
C50	C	0.312983	1.225211	0.312321
C51	C	-0.247179	0.683948	-0.247652
C52	C	0.252821	1.183948	0.252348
C53	C	-0.143913	0.683932	-0.144713
C54	C	0.356087	1.183932	0.355287
C55	C	-0.160970	0.601385	-0.161715
C56	C	0.339030	1.101385	0.338285
C57	C	-0.221131	0.560117	-0.221684
C58	C	0.278869	1.060117	0.278316
C59	C	-0.264236	0.601401	-0.264655
C60	C	0.235764	1.101401	0.235345
C61	C	-0.083756	0.725197	-0.084736
C62	C	0.416244	1.225197	0.415264
C63	C	-0.040652	0.683918	-0.041770
C64	C	0.459348	1.183918	0.458230
C65	C	-0.057705	0.601370	-0.058776
C66	C	0.442295	1.101370	0.441224
C67	C	-0.117866	0.560101	-0.118744
C68	C	0.382134	1.060101	0.381256
C69	C	-0.014600	0.560086	-0.015805
C70	C	0.485400	1.060086	0.484195
C71	C	-0.031657	0.477539	-0.032807
C72	C	0.468343	0.977539	0.467193
C73	C	-0.134923	0.477554	-0.135747
C74	C	0.365077	0.977554	0.364253
C75	C	-0.779783	1.142362	-0.153326
C76	C	-0.279783	1.642362	0.346674
C77	C	-0.688483	1.142321	-0.153313
C78	C	-0.188483	1.642321	0.346687
C79	C	-0.615712	1.142293	-0.153298
C80	C	-0.115712	1.642293	0.346702
C81	C	-0.524406	1.142253	-0.153286
C82	C	-0.024406	1.642253	0.346714
C83	C	0.057812	1.142355	-0.153316
C84	C	0.557812	1.642355	0.346684
C85	C	0.147442	1.142397	-0.153330
C86	C	0.647442	1.642397	0.346670
C87	C	-0.152446	1.142310	-0.363583
C88	C	0.347554	1.642310	0.136417
C89	C	-0.152416	1.142332	-0.453200
C90	C	0.347584	1.642332	0.046800
C91	C	-0.109956	1.348422	-0.110860
C92	C	0.390044	1.848422	0.389140
C93	C	-0.091819	1.436276	-0.092781
C94	C	0.408181	1.936276	0.407219
C95	C	-0.152318	1.142369	-0.781368
C96	C	0.347682	1.642369	-0.281368
C97	C	-0.152348	1.142356	-0.690062
C98	C	0.347652	1.642356	-0.190062
C99	C	-0.152368	1.142351	-0.617287
C100	C	0.347632	1.642351	-0.117287
C101	C	-0.152397	1.142338	-0.525975
C102	C	0.347603	1.642338	-0.025975
C103	C	-0.152520	1.142253	0.056205
C104	C	0.347480	1.642253	0.556205
C105	C	-0.152291	1.142384	0.145853
C106	C	0.347709	1.642384	0.645853
H107	H	-0.235019	0.492902	-0.235525
H108	H	0.264981	0.992902	0.264475
H109	H	-0.339264	0.691628	-0.339462
H110	H	0.160736	1.191628	0.160538
H111	H	-0.183905	0.443956	-0.184591
H112	H	0.316095	0.943956	0.315409
C113	C	-0.329599	0.556735	-0.329785
C114	C	0.170401	1.056735	0.170215
C115	C	-0.363706	0.610551	-0.363773
C116	C	0.136294	1.110551	0.136227
C117	C	-0.423921	0.569434	-0.423767
C118	C	0.076079	1.069434	0.076233
H119	H	-0.305526	0.524559	-0.371664
H120	H	0.194474	1.024559	0.128336
H121	H	-0.371395	0.524523	-0.305540
H122	H	0.128605	1.024523	0.194460
H123	H	-0.321918	0.642750	-0.388019
H124	H	0.178082	1.142750	0.111981
H125	H	-0.387796	0.642729	-0.321916
H126	H	0.112204	1.142729	0.178084
H127	H	-0.465716	0.537221	-0.399522
H128	H	0.034284	1.037221	0.100478
H129	H	-0.399840	0.537259	-0.465640
H130	H	0.100160	1.037259	0.034360
H131	H	-0.447075	0.605941	-0.446830
H132	H	0.052925	1.105941	0.053170
C133	C	-0.320074	0.852454	-0.320382
C134	C	0.179926	1.352454	0.179618
C135	C	-0.376395	0.798646	-0.376555
C136	C	0.123605	1.298646	0.123445
C137	C	-0.419566	0.839771	-0.419665
C138	C	0.080434	1.339771	0.080335
H139	H	-0.348587	0.884637	-0.282937
H140	H	0.151413	1.384637	0.217063
H141	H	-0.282637	0.884660	-0.348980
H142	H	0.217363	1.384660	0.151020
H143	H	-0.413827	0.766453	-0.347958
H144	H	0.086173	1.266453	0.152042
H145	H	-0.347903	0.766460	-0.414017
H146	H	0.152097	1.266460	0.085983
H147	H	-0.382129	0.871977	-0.448263
H148	H	0.117871	1.371977	0.051737
H149	H	-0.448074	0.871953	-0.382213
H150	H	0.051926	1.371953	0.117787
H151	H	-0.457779	0.803269	-0.457788
H152	H	0.042221	1.303269	0.042212
H153	H	-0.120980	0.841372	-0.121840
H154	H	0.379020	1.341372	0.378160
H155	H	-0.069871	0.792412	-0.070893
H156	H	0.430129	1.292412	0.429107
H157	H	0.034378	0.593694	0.033031
H158	H	0.534378	1.093694	0.533031
H159	H	0.008329	0.717526	0.007063
H160	H	0.508329	1.217526	0.507063
H161	H	0.003447	0.443929	0.002176
H162	H	0.503447	0.943929	0.502176
