data_functionalizedCrystal
_audit_creation_method	'MofGen! by Chris Wilmer'
_symmetry_space_group_name_H-M	'P1'
_symmetry_Int_Tables_number	1
_symmetry_cell_setting	triclinic
loop_
_symmetry_equiv_pos_as_xyz
  x,y,z
_cell_length_a	19.288864
_cell_length_b	16.109301
_cell_length_c	17.766277
_cell_angle_alpha	89.992214
_cell_angle_beta	89.976791
_cell_angle_gamma	83.298863
loop_
_atom_site_label
_atom_site_type_symbol
_atom_site_fract_x
_atom_site_fract_y
_atom_site_fract_z
O1	O	0.921601	0.103716	-0.062838
O2	O	1.421601	0.603716	0.437162
O3	O	0.719373	0.117707	-0.062787
O4	O	1.219373	0.617707	0.437213
O5	O	0.826042	-0.010338	-0.062806
O6	O	1.326042	0.489662	0.437194
O7	O	0.814932	0.231761	-0.062819
O8	O	1.314932	0.731761	0.437181
O9	O	0.826024	-0.010345	0.062382
O10	O	1.326024	0.489655	0.562382
O11	O	0.719355	0.117701	0.062402
O12	O	1.219355	0.617701	0.562402
O13	O	0.921582	0.103710	0.062351
O14	O	1.421582	0.603710	0.562351
Cu15	Cu	0.820467	0.110704	0.073807
Cu16	Cu	1.320467	0.610704	0.573807
Cu17	Cu	0.820489	0.110712	-0.074243
Cu18	Cu	1.320489	0.610712	0.425757
O19	O	0.814913	0.231755	0.062370
O20	O	1.314913	0.731755	0.562370
C21	C	0.693487	0.117254	-0.000186
C22	C	1.193487	0.617254	0.499814
C23	C	0.616380	0.115902	-0.000166
C24	C	1.116380	0.615902	0.499834
C25	C	0.571863	0.191034	-0.000182
C26	C	1.071863	0.691034	0.499818
C27	C	0.499413	0.189764	-0.000190
C28	C	0.999413	0.689764	0.499810
C29	C	0.471483	0.113359	-0.000198
C30	C	0.971483	0.613359	0.499802
C31	C	0.516009	0.038218	-0.000178
C32	C	1.016009	0.538218	0.499822
C33	C	0.588458	0.039489	-0.000162
C34	C	1.088458	0.539489	0.499838
C35	C	0.363084	0.053298	-0.044079
C36	C	0.863084	0.553298	0.455921
C37	C	0.290636	0.052029	-0.044100
C38	C	0.790636	0.552029	0.455900
C39	C	0.248028	0.109433	-0.000243
C40	C	0.748028	0.609433	0.499757
C41	C	0.277874	0.168120	0.043624
C42	C	0.777874	0.668120	0.543624
C43	C	0.350323	0.169391	0.043640
C44	C	0.850323	0.669391	0.543640
C45	C	0.392925	0.111971	-0.000214
C46	C	0.892925	0.611971	0.499786
C47	C	0.124952	0.183193	-0.000267
C48	C	0.624952	0.683193	0.499733
C49	C	0.052501	0.181920	-0.000270
C50	C	0.552501	0.681920	0.499730
C51	C	0.069099	0.030372	-0.000266
C52	C	0.569099	0.530372	0.499734
C53	C	0.141548	0.031647	-0.000254
C54	C	0.641548	0.531647	0.499746
C55	C	0.169470	0.108060	-0.000259
C56	C	0.669470	0.608060	0.499741
C57	C	0.825583	-0.041315	-0.000211
C58	C	1.325583	0.458685	0.499789
C59	C	0.824234	-0.133606	-0.000210
C60	C	1.324234	0.366394	0.499790
C61	C	0.884391	-0.356084	-0.000237
C62	C	1.384391	0.143916	0.499763
C63	C	0.883118	-0.442800	-0.000243
C64	C	1.383118	0.057200	0.499757
C65	C	0.756559	-0.422493	-0.000208
C66	C	1.256559	0.077507	0.499792
C67	C	0.757833	-0.335778	-0.000208
C68	C	1.257833	0.164222	0.499792
C69	C	0.821751	-0.302577	-0.000218
C70	C	1.321751	0.197423	0.499782
C71	C	0.819204	-0.476007	-0.000225
C72	C	1.319204	0.023993	0.499775
C73	C	0.817823	-0.570028	-0.000231
C74	C	1.317823	-0.070028	0.499769
C75	C	0.823133	-0.208549	-0.000213
C76	C	1.323133	0.291451	0.499787
C77	C	0.947469	0.104163	-0.000252
C78	C	1.447469	0.604163	0.499748
C79	C	1.024576	0.105514	-0.000277
C80	C	1.524576	0.605514	0.499723
C81	C	0.815372	0.262732	-0.000227
C82	C	1.315372	0.762732	0.499773
C83	C	0.816722	0.355022	-0.000233
C84	C	1.316722	0.855022	0.499767
N85	N	0.820456	0.110699	0.177937
N86	N	1.320456	0.610699	0.677937
N87	N	0.820505	0.110711	-0.178373
N88	N	1.320505	0.610711	0.321627
C89	C	0.867704	0.054028	0.217315
C90	C	1.367704	0.554028	0.717315
C91	C	0.867708	0.054024	0.296117
C92	C	1.367708	0.554024	0.796117
C93	C	0.820471	0.110705	0.335538
C94	C	1.320471	0.610705	0.835538
C95	C	0.773214	0.167380	0.296150
C96	C	1.273214	0.667380	0.796150
C97	C	0.773206	0.167377	0.217350
C98	C	1.273206	0.667377	0.717350
C99	C	0.811353	0.186459	0.460373
C100	C	1.311353	0.686459	0.960373
C101	C	0.811365	0.186463	0.539172
C102	C	1.311365	0.686463	1.039172
C103	C	0.820489	0.110715	0.578584
C104	C	1.320489	0.610715	1.078584
C105	C	0.829616	0.034960	0.539188
C106	C	1.329616	0.534960	1.039188
C107	C	0.829609	0.034956	0.460387
C108	C	1.329609	0.534956	0.960387
C109	C	0.820473	0.110715	0.420983
C110	C	1.320473	0.610715	0.920983
C111	C	0.867745	0.054035	0.703408
C112	C	1.367745	0.554035	1.203408
C113	C	0.867744	0.054030	0.782212
C114	C	1.367744	0.554030	1.282212
C115	C	0.773252	0.167394	0.782243
C116	C	1.273252	0.667394	1.282243
C117	C	0.773250	0.167392	0.703441
C118	C	1.273250	0.667392	1.203441
C119	C	0.820500	0.110713	0.664028
C120	C	1.320500	0.610713	1.164028
H121	H	0.243183	0.214863	0.079337
H122	H	0.743183	0.714863	0.579337
H123	H	0.906217	0.007878	0.814274
H124	H	1.406217	0.507878	1.314274
N125	N	0.690264	-0.278067	-0.000181
N126	N	1.190264	0.221933	0.499819
H127	H	0.687968	-0.241644	0.046227
H128	H	1.187968	0.258356	0.546227
H129	H	0.688015	-0.241684	-0.046619
H130	H	1.188015	0.258316	0.453381
H131	H	0.803938	0.248147	0.571243
H132	H	1.303938	0.748147	1.071243
H133	H	0.906176	0.007875	0.185228
H134	H	1.406176	0.507875	0.685228
N135	N	0.722266	0.228514	0.338668
N136	N	1.222266	0.728514	0.838668
H137	H	0.730244	0.287498	0.324939
H138	H	1.230244	0.787498	0.824939
H139	H	0.672996	0.219011	0.324969
H140	H	1.172996	0.719011	0.824969
H141	H	0.734778	0.213542	0.671377
H142	H	1.234778	0.713542	1.171377
N143	N	0.687622	-0.458304	-0.000193
N144	N	1.187622	0.041696	0.499807
H145	H	0.696318	-0.521356	-0.000194
H146	H	1.196318	-0.021356	0.499806
H147	H	0.660207	-0.438717	0.046224
H148	H	1.160207	0.061283	0.546224
H149	H	0.463160	0.250947	-0.000201
H150	H	0.963160	0.750947	0.499799
N151	N	0.189566	-0.049390	-0.000255
N152	N	0.689566	0.450610	0.499745
H153	H	0.239700	-0.036991	-0.000245
H154	H	0.739700	0.463009	0.499755
H155	H	0.180503	-0.082706	0.046151
H156	H	0.680503	0.417294	0.546151
N157	N	0.409034	-0.008622	-0.091386
N158	N	0.909034	0.491378	0.408614
H159	H	0.435771	0.022442	-0.128885
H160	H	0.935771	0.522442	0.371115
H161	H	0.442942	-0.043790	-0.057731
H162	H	0.942942	0.456210	0.442269
H163	H	0.906185	0.007874	0.328185
H164	H	1.406185	0.507874	0.828185
N165	N	0.155072	0.265606	-0.000257
N166	N	0.655072	0.765606	0.499743
H167	H	0.207723	0.255012	-0.000250
H168	H	0.707723	0.755012	0.499750
H169	H	0.138807	0.298476	-0.046668
H170	H	0.638807	0.798476	0.453332
N171	N	0.801512	0.268163	0.417868
N172	N	1.301512	0.768163	0.917868
H173	H	0.795740	0.316152	0.454780
H174	H	1.295740	0.816152	0.954780
H175	H	0.843704	0.272883	0.385151
H176	H	1.343704	0.772883	0.885151
N177	N	0.950679	-0.500515	-0.000254
N178	N	1.450679	-0.000515	0.499746
H179	H	0.952981	-0.536937	-0.046663
H180	H	1.452981	-0.036937	0.453337
H181	H	0.991322	-0.466263	-0.000231
H182	H	1.491322	0.033737	0.499769
H183	H	0.016255	0.243104	-0.000279
H184	H	0.516255	0.743104	0.499721
H185	H	0.734730	0.213526	0.185287
H186	H	1.234730	0.713526	0.685287
H187	H	0.594592	0.253255	-0.000187
H188	H	1.094592	0.753255	0.499813
N189	N	0.839450	-0.046743	0.417894
N190	N	1.339450	0.453257	0.917894
H191	H	0.845232	-0.094732	0.454812
H192	H	1.345232	0.405268	0.954812
H193	H	0.797253	-0.051468	0.385224
H194	H	1.297253	0.448532	0.885224
H195	H	0.837046	-0.026722	0.571275
H196	H	1.337046	0.473278	1.071275
H197	H	0.046359	-0.031839	-0.000318
H198	H	0.546359	0.468161	0.499682
N199	N	0.636476	-0.041550	-0.000157
N200	N	1.136476	0.458450	0.499843
H201	H	0.686609	-0.029150	-0.000149
H202	H	1.186609	0.470850	0.499851
H203	H	0.627414	-0.074864	0.046251
H204	H	1.127414	0.425136	0.546251
N205	N	0.918701	-0.007094	0.660892
N206	N	1.418701	0.492906	1.160892
H207	H	0.948631	-0.043002	0.697799
H208	H	1.448631	0.456998	1.197799
H209	H	0.892120	-0.043769	0.628215
H210	H	1.392120	0.456231	1.128215
H211	H	0.936438	-0.329054	-0.000247
H212	H	1.436438	0.170946	0.499753
H213	H	0.734788	0.213542	0.814338
H214	H	1.234788	0.713542	1.314338
H215	H	0.374621	0.217173	0.079360
H216	H	0.874621	0.717173	0.579360
H217	H	0.266341	0.004247	-0.079822
H218	H	0.766341	0.504247	0.420178
H219	H	0.493264	-0.023992	-0.000194
H220	H	0.993264	0.476008	0.499806
