data_functionalizedCrystal
_audit_creation_method	'MofGen! by Chris Wilmer'
_symmetry_space_group_name_H-M	'P1'
_symmetry_Int_Tables_number	1
_symmetry_cell_setting	triclinic
loop_
_symmetry_equiv_pos_as_xyz
  x,y,z
_cell_length_a	6.817900
_cell_length_b	17.078481
_cell_length_c	16.418055
_cell_angle_alpha	96.276081
_cell_angle_beta	103.389726
_cell_angle_gamma	99.306161
loop_
_atom_site_label
_atom_site_type_symbol
_atom_site_fract_x
_atom_site_fract_y
_atom_site_fract_z
V1	V	-3.979123	-0.247637	-0.115690
O2	O	-3.968071	-0.242639	0.005761
O3	O	-3.930458	-0.246215	-0.229587
O4	O	-3.910177	-0.355515	-0.113822
O5	O	-3.988493	-0.132583	-0.110806
V6	V	-4.465448	-0.233842	-0.101173
O7	O	-4.234236	-0.277896	-0.147533
O8	O	-4.660532	-0.203583	-0.069330
O9	O	-4.290906	-0.235263	0.012724
O10	O	-4.593897	-0.238839	-0.222623
O11	O	-4.573475	-0.348896	-0.106057
O12	O	-4.311187	-0.125964	-0.103041
C13	C	-3.776060	-0.242379	-0.257355
C14	C	-3.817420	-0.241936	-0.350467
C15	C	-4.132744	-0.244513	-0.656451
C16	C	-4.093894	-0.244916	-0.568961
C17	C	-3.731188	-0.236966	-0.560423
C18	C	-3.770036	-0.236557	-0.647910
C19	C	-3.970821	-0.240335	-0.695923
C20	C	-3.893123	-0.241147	-0.520945
C21	C	-3.851000	-0.241584	-0.426085
C22	C	-4.012947	-0.239896	-0.790789
C23	C	-3.750188	-0.381801	-0.109684
C24	C	-3.775099	-0.469994	-0.108911
C25	C	-3.968124	-0.515479	-0.112729
C26	C	-3.991519	-0.598345	-0.112001
C27	C	-3.821888	-0.635726	-0.107462
C28	C	-3.628846	-0.590234	-0.103642
C29	C	-3.605451	-0.507369	-0.104363
C30	C	-3.872410	-0.883123	-0.104851
C31	C	-3.895821	-0.965995	-0.104133
C32	C	-4.258493	-0.974100	-0.112491
C33	C	-4.235083	-0.891233	-0.113217
C34	C	-4.042042	-0.845748	-0.109392
N35	N	-3.845798	-0.720429	-0.106721
N36	N	-4.018132	-0.761045	-0.110127
C37	C	-4.108647	-0.239097	0.040488
C38	C	-4.046523	-0.239545	0.133599
C39	C	-4.134519	-0.099674	-0.107181
C40	C	-4.088847	-0.011480	-0.107950
H41	H	-3.567711	-0.233892	-0.521321
H42	H	-3.757675	-0.996427	-0.100434
N43	N	-3.595383	-0.232043	-0.690490
H44	H	-3.462294	-0.229717	-0.646801
H45	H	-3.621512	-0.281128	-0.734696
N46	N	-4.151089	-0.475164	-0.117631
H47	H	-4.276918	-0.516556	-0.119937
H48	H	-4.123643	-0.433132	-0.065954
H49	H	-4.148695	-0.635375	-0.115105
H50	H	-4.373218	-0.860803	-0.116912
N51	N	-4.349252	-0.248463	-0.708214
H52	H	-4.349287	-0.247535	-0.769622
H53	H	-4.439770	-0.299666	-0.702920
H54	H	-4.415660	-1.011142	-0.115604
N55	N	-3.664211	-0.834070	-0.100723
H56	H	-3.560309	-0.870328	-0.097740
H57	H	-3.672230	-0.807335	-0.152995
N58	N	-3.445877	-0.630547	-0.098739
H59	H	-3.489985	-0.689944	-0.098863
H60	H	-3.388239	-0.622117	-0.149198
H61	H	-3.448261	-0.470333	-0.101234
H62	H	-4.225751	-0.248317	-0.536826
