data_functionalizedCrystal
_audit_creation_method	'MofGen! by Chris Wilmer'
_symmetry_space_group_name_H-M	'P1'
_symmetry_Int_Tables_number	1
_symmetry_cell_setting	triclinic
loop_
_symmetry_equiv_pos_as_xyz
  x,y,z
_cell_length_a	8.597340
_cell_length_b	10.540539
_cell_length_c	7.681481
_cell_angle_alpha	84.202085
_cell_angle_beta	103.474906
_cell_angle_gamma	84.930270
loop_
_atom_site_label
_atom_site_type_symbol
_atom_site_fract_x
_atom_site_fract_y
_atom_site_fract_z
O1	O	2.101845	0.175543	0.172468
O2	O	1.638015	0.195768	0.102093
O3	O	1.880512	0.000872	0.138888
O4	O	1.859348	0.370439	0.135673
O5	O	1.910359	-0.023171	0.436275
O6	O	1.667862	0.171725	0.399480
O7	O	2.131692	0.151500	0.469854
Zn8	Zn	1.904516	0.157795	0.481884
Zn9	Zn	1.865191	0.189472	0.090064
O10	O	1.889195	0.346396	0.433059
C11	C	1.593545	0.182914	0.241775
C12	C	1.416573	0.180417	0.214924
C13	C	1.893848	-0.058441	0.287337
C14	C	1.889099	-0.199354	0.286607
C15	C	1.707076	-0.381405	0.258333
C16	C	1.711956	-0.234876	0.259733
C17	C	1.991392	-0.275360	0.469364
C18	C	1.985360	-0.421872	0.468590
C19	C	1.955022	-0.395076	0.130952
C20	C	1.956428	-0.247924	0.128955
C21	C	2.176161	0.164354	0.330168
C22	C	2.353133	0.166851	0.357008
C23	C	1.875858	0.405709	0.284606
C24	C	1.880607	0.546623	0.285324
N25	N	1.931365	0.136175	0.749292
N26	N	1.838354	0.211082	-0.177342
H27	H	1.434211	0.157137	0.499201
C28	C	1.855207	-0.178320	-0.053546
N29	N	1.778953	-0.125897	-0.191005
H30	H	1.335487	0.190123	0.072722
C31	C	1.710076	0.314368	0.701606
N32	N	1.613453	0.392164	0.610418
C33	C	2.129522	-0.215361	0.141579
N34	N	2.259907	-0.190841	0.151105
C35	C	2.127715	-0.460013	0.155626
N36	N	2.257783	-0.508933	0.174221
H37	H	1.935098	-0.459877	0.585976
H38	H	1.624878	-0.399651	0.125934
C39	C	2.167985	-0.247105	0.504587
N40	N	2.300992	-0.225812	0.531120
C41	C	2.059649	0.032883	0.870352
N42	N	2.156269	-0.044917	0.961535
H43	H	1.632660	-0.181943	0.127820
H44	H	1.656646	-0.202487	0.371422
C45	C	1.629366	-0.434719	0.407689
N46	N	1.570848	-0.474866	0.520201
C47	C	2.158513	-0.488773	0.505138
N48	N	2.288931	-0.539157	0.532678
H49	H	1.944857	-0.242548	0.586755
C50	C	1.860111	-0.423075	-0.054689
N51	N	1.788606	-0.444162	-0.194508
