data_functionalizedCrystal
_audit_creation_method	'MofGen! by Chris Wilmer'
_symmetry_space_group_name_H-M	'P1'
_symmetry_Int_Tables_number	1
_symmetry_cell_setting	triclinic
loop_
_symmetry_equiv_pos_as_xyz
  x,y,z
_cell_length_a	10.723023
_cell_length_b	11.792241
_cell_length_c	9.798715
_cell_angle_alpha	89.996704
_cell_angle_beta	89.996770
_cell_angle_gamma	84.330482
loop_
_atom_site_label
_atom_site_type_symbol
_atom_site_fract_x
_atom_site_fract_y
_atom_site_fract_z
O1	O	1.656767	0.159188	-0.113478
O2	O	2.156767	0.659188	0.386522
O3	O	1.293574	0.174427	-0.113484
O4	O	1.793574	0.674427	0.386516
O5	O	1.483984	0.001656	-0.113471
O6	O	1.983984	0.501656	0.386529
O7	O	1.466357	0.331959	-0.113490
O8	O	1.966357	0.831959	0.386510
O9	O	1.483970	0.001656	0.113511
O10	O	1.983970	0.501656	0.613511
O11	O	1.293560	0.174426	0.113499
O12	O	1.793560	0.674426	0.613499
O13	O	1.656752	0.159187	0.113504
O14	O	2.156752	0.659187	0.613504
Zn15	Zn	1.475154	0.166807	0.149540
Zn16	Zn	1.975154	0.666807	0.649540
Zn17	Zn	1.475173	0.166807	-0.149519
Zn18	Zn	1.975173	0.666807	0.350481
O19	O	1.466342	0.331958	0.113492
O20	O	1.966342	0.831958	0.613492
C21	C	1.247070	0.173318	0.000007
C22	C	1.747070	0.673318	0.500007
C23	C	1.108525	0.170000	0.000005
C24	C	1.608525	0.670000	0.500005
C25	C	1.482870	-0.040638	0.000020
C26	C	1.982870	0.459362	0.500020
C27	C	1.479555	-0.166658	0.000018
C28	C	1.979555	0.333342	0.500018
C29	C	0.903577	0.165093	-0.117578
C30	C	1.403577	0.665093	0.382422
C31	C	1.046771	0.168522	-0.117579
C32	C	1.546771	0.668522	0.382421
C33	C	1.473461	-0.397384	-0.000005
C34	C	1.973461	0.102616	0.499995
C35	C	1.476847	-0.268991	0.000008
C36	C	1.976847	0.231009	0.500008
C37	C	1.703256	0.160296	0.000011
C38	C	2.203256	0.660296	0.500011
C39	C	1.841802	0.163614	0.000004
C40	C	2.341802	0.663614	0.500004
C41	C	1.467457	0.374252	-0.000002
C42	C	1.967457	0.874252	0.499998
C43	C	1.470771	0.500273	-0.000009
C44	C	1.970771	1.000273	0.499991
N45	N	1.475150	0.166806	0.353640
N46	N	1.975150	0.666806	0.853640
N47	N	1.475186	0.166800	-0.353619
N48	N	1.975186	0.666800	0.146381
C49	C	1.555099	0.093944	0.421422
C50	C	2.055099	0.593944	0.921422
C51	C	1.555119	0.093940	0.578584
C52	C	2.055119	0.593940	1.078584
H53	H	0.850456	0.163814	-0.218245
H54	H	1.350456	0.663814	0.281755
H55	H	1.406713	0.229178	0.411959
H56	H	1.906713	0.729178	0.911959
F57	F	1.644325	0.012209	0.345199
F58	F	2.144325	0.512209	0.845199
F59	F	0.911231	0.165268	0.131587
F60	F	1.411231	0.665268	0.631587
F61	F	1.644594	0.012409	0.654770
F62	F	2.144594	0.512409	1.154770
H63	H	1.099896	0.169801	-0.218246
H64	H	1.599896	0.669801	0.281754
F65	F	1.039097	0.168346	0.131594
F66	F	1.539097	0.668346	0.631594
H67	H	1.406739	0.229187	0.588100
H68	H	1.906739	0.729187	1.088100
