data_functionalizedCrystal
_audit_creation_method	'MofGen! by Chris Wilmer'
_symmetry_space_group_name_H-M	'P1'
_symmetry_Int_Tables_number	1
_symmetry_cell_setting	triclinic
loop_
_symmetry_equiv_pos_as_xyz
  x,y,z
_cell_length_a	12.594516
_cell_length_b	12.594517
_cell_length_c	12.594509
_cell_angle_alpha	90.025818
_cell_angle_beta	89.973801
_cell_angle_gamma	89.989009
loop_
_atom_site_label
_atom_site_type_symbol
_atom_site_fract_x
_atom_site_fract_y
_atom_site_fract_z
Zn1	Zn	-0.423854	-1.627267	-0.602003
Zn2	Zn	-0.601864	-1.627158	-0.424030
Zn3	Zn	-0.423884	-1.449271	-0.424017
Zn4	Zn	-0.601775	-1.449253	-0.601946
O5	O	-0.512844	-1.538237	-0.512999
O6	O	-0.447492	-1.776198	-0.578423
O7	O	-0.578305	-1.603523	-0.275083
O8	O	-0.274934	-1.472936	-0.447646
O9	O	-0.578275	-1.776118	-0.447668
O10	O	-0.274912	-1.603709	-0.578411
O11	O	-0.447544	-1.472830	-0.275073
O12	O	-0.447457	-1.300323	-0.447591
O13	O	-0.578123	-1.472905	-0.750900
O14	O	-0.578153	-1.300310	-0.578315
O15	O	-0.447405	-1.603691	-0.750941
O16	O	-0.750798	-1.603505	-0.447613
O17	O	-0.750732	-1.472799	-0.578327
C18	C	-0.512799	-1.261696	-0.512946
C19	C	-0.512806	-1.143391	-0.512949
C20	C	-0.441618	-1.074114	-0.441978
C21	C	-0.538700	-1.003303	-0.415796
C22	C	-0.415753	-1.003403	-0.539132
C23	C	-0.609940	-1.074138	-0.486716
C24	C	-0.486927	-1.074244	-0.610097
C25	C	-0.584077	-1.003465	-0.583952
C26	C	-0.789385	-1.538167	-0.512989
C27	C	-0.907691	-1.538235	-0.513020
C28	C	-0.976947	-1.467137	-0.584065
C29	C	-1.047810	-1.441204	-0.486940
C30	C	-1.047626	-1.564265	-0.610162
C31	C	-0.976995	-1.512250	-0.415843
C32	C	-0.976806	-1.635357	-0.539130
C33	C	-1.047637	-1.609461	-0.441938
C34	C	-0.235223	-1.538336	-0.513033
C35	C	-0.116918	-1.538378	-0.513047
C36	C	-0.512751	-1.538308	-0.790620
C37	C	-0.512711	-1.538339	-0.908926
C38	C	-0.512869	-0.815858	-0.513033
C39	C	-0.512825	-0.934163	-0.512998
C40	C	-0.583768	-1.467227	-0.978157
C41	C	-0.609783	-1.564347	-1.048956
C42	C	-0.486632	-1.441294	-1.048926
C43	C	-0.538777	-1.635510	-0.978167
C44	C	-0.415581	-1.512392	-0.978131
C45	C	-0.441559	-1.609579	-1.048898
C46	C	-0.512860	-1.538227	-0.236458
C47	C	-0.512600	-1.538403	-0.118153
H48	H	-0.333679	-0.972276	-0.561222
H49	H	-0.643952	-1.407136	-0.947096
H50	H	-1.078480	-1.669647	-0.381800
N51	N	-0.459438	-1.113376	-0.713108
N52	N	-0.515068	-1.089489	-0.791719
H53	H	-0.495646	-1.117129	-0.864472
H54	H	-0.464621	-1.359198	-1.080009
H55	H	-1.078652	-1.586224	-0.692302
N56	N	-0.566497	-1.738528	-0.939330
N57	N	-0.571049	-1.755117	-0.841590
H58	H	-0.590626	-1.827872	-0.814159
N59	N	-0.366167	-1.113023	-0.366614
N60	N	-0.312891	-1.049286	-0.312313
H61	H	-0.259606	-1.076765	-0.259085
H62	H	-0.560604	-0.972144	-0.333660
N63	N	-0.712772	-1.591916	-1.087975
N64	N	-0.791182	-1.535414	-1.065307
H65	H	-0.863921	-1.554878	-1.092860
N66	N	-0.366119	-1.685147	-1.087610
N67	N	-0.375892	-1.781211	-1.064715
H68	H	-0.322616	-1.834585	-1.092057
N69	N	-0.938015	-1.391571	-0.659323
N70	N	-0.960819	-1.295476	-0.649447
H71	H	-0.933324	-1.242104	-0.702593
N72	N	-0.938236	-1.484554	-0.312779
N73	N	-0.880994	-1.404317	-0.301203
H74	H	-0.853620	-1.384746	-0.228417
H75	H	-0.692048	-1.105080	-0.464499
H76	H	-0.644356	-0.972639	-0.643990
N77	N	-1.086924	-1.338241	-0.459247
N78	N	-1.064294	-1.259786	-0.515632
H79	H	-1.091914	-1.187065	-0.496081
H80	H	-0.333511	-1.490382	-0.946998
N81	N	-0.937662	-1.738288	-0.566873
N82	N	-0.960215	-1.777888	-0.655045
H83	H	-0.932570	-1.850584	-0.674650
