data_functionalizedCrystal
_audit_creation_method	'MofGen! by Chris Wilmer'
_symmetry_space_group_name_H-M	'P1'
_symmetry_Int_Tables_number	1
_symmetry_cell_setting	triclinic
loop_
_symmetry_equiv_pos_as_xyz
  x,y,z
_cell_length_a	14.908795
_cell_length_b	21.295417
_cell_length_c	14.908308
_cell_angle_alpha	86.738273
_cell_angle_beta	90.211334
_cell_angle_gamma	93.319839
loop_
_atom_site_label
_atom_site_type_symbol
_atom_site_fract_x
_atom_site_fract_y
_atom_site_fract_z
Zn1	Zn	1.345263	-0.220181	0.587806
Zn2	Zn	1.845263	0.279819	1.087806
Zn3	Zn	1.353821	-0.319059	0.437434
Zn4	Zn	1.853821	0.180941	0.937434
Zn5	Zn	1.203577	-0.219499	0.428777
Zn6	Zn	1.703577	0.280501	0.928777
Zn7	Zn	1.194844	-0.331112	0.579054
Zn8	Zn	1.694844	0.168888	1.079054
O9	O	1.274376	-0.272463	0.508268
O10	O	1.774376	0.227537	1.008268
O11	O	1.472227	-0.228539	0.575145
O12	O	1.972227	0.271461	1.075145
O13	O	1.341127	-0.300522	0.310463
O14	O	1.841127	0.199478	0.810463
O15	O	1.222445	-0.131499	0.449912
O16	O	1.722445	0.368501	0.949912
O17	O	1.478515	-0.301184	0.464667
O18	O	1.978515	0.198816	0.964667
O19	O	1.326541	-0.132000	0.566750
O20	O	1.826541	0.368000	1.066750
O21	O	1.230743	-0.227376	0.304103
O22	O	1.730743	0.272624	0.804103
O23	O	1.076590	-0.239064	0.441426
O24	O	1.576590	0.260936	0.941426
O25	O	1.207562	-0.321726	0.706038
O26	O	1.707562	0.178274	1.206038
O27	O	1.070174	-0.321065	0.551834
O28	O	1.570174	0.178935	1.051834
O29	O	1.318074	-0.240226	0.712468
O30	O	1.818074	0.259774	1.212468
O31	O	1.332660	-0.408748	0.456181
O32	O	1.832660	0.091252	0.956181
O33	O	1.215860	-0.417604	0.560229
O34	O	1.715860	0.082396	1.060229
C35	C	1.040756	-0.281299	0.494742
C36	C	1.540756	0.218701	0.994742
C37	C	0.940811	-0.285095	0.488976
C38	C	1.440811	0.214905	0.988976
C39	C	0.803223	-0.328196	0.423242
C40	C	1.303223	0.171804	0.923242
C41	C	0.897130	-0.324632	0.428659
C42	C	1.397130	0.175368	0.928659
C43	C	0.890577	-0.249117	0.543879
C44	C	1.390577	0.250883	1.043879
C45	C	0.796670	-0.252682	0.538463
C46	C	1.296670	0.247318	1.038463
C47	C	0.752996	-0.292223	0.478143
C48	C	1.252996	0.207777	0.978143
C49	C	0.659087	-0.295790	0.472732
C50	C	1.159087	0.204210	0.972732
C51	C	0.652535	-0.220273	0.587947
C52	C	1.152535	0.279727	1.087947
C53	C	0.746443	-0.216708	0.593364
C54	C	1.246443	0.283292	1.093364
C55	C	1.274265	-0.436017	0.508216
C56	C	1.774265	0.063983	1.008216
C57	C	1.274297	-0.505984	0.508228
C58	C	1.774297	-0.005984	1.008228
C59	C	1.328465	-0.539057	0.569105
C60	C	1.828465	-0.039057	1.069105
C61	C	1.328495	-0.604800	0.569129
C62	C	1.828495	-0.104800	1.069129
C63	C	1.274368	-0.637465	0.508261
C64	C	1.774368	-0.137465	1.008261
C65	C	1.220190	-0.604384	0.447380
C66	C	1.720190	-0.104384	0.947380
C67	C	1.220154	-0.538643	0.447363
C68	C	1.720154	-0.038643	0.947363
N69	N	1.272120	-0.737636	0.429180
N70	N	1.772120	-0.237636	0.929180
N71	N	1.272159	-0.800087	0.429198
N72	N	1.772159	-0.300087	0.929198
C73	C	1.274471	-0.835537	0.508308
C74	C	1.774471	-0.335537	1.008308
N75	N	1.276760	-0.806178	0.587400
N76	N	1.776760	-0.306178	1.087400
N77	N	1.276726	-0.743721	0.587381
N78	N	1.776726	-0.243721	1.087381
C79	C	1.274401	-0.708749	0.508272
C80	C	1.774401	-0.208749	1.008272
C81	C	1.328675	-0.939896	0.569215
C82	C	1.828675	-0.439896	1.069215
C83	C	1.328699	-1.005640	0.569240
C84	C	1.828699	-0.505640	1.069240
C85	C	1.220398	-1.005222	0.447483
C86	C	1.720398	-0.505222	0.947483
C87	C	1.220369	-0.939480	0.447466
C88	C	1.720369	-0.439480	0.947466
C89	C	1.274512	-0.906821	0.508331
C90	C	1.774512	-0.406821	1.008331
C91	C	1.508909	-0.263593	0.521848
C92	C	2.008909	0.236407	1.021848
C93	C	1.608853	-0.259813	0.527635
C94	C	2.108853	0.240187	1.027635
C95	C	1.260889	-0.282397	0.742789
C96	C	1.760889	0.217603	1.242789
C97	C	1.255141	-0.286630	0.842728
C98	C	1.755141	0.213370	1.342728
C99	C	1.274512	-0.108270	0.508341
C100	C	1.774512	0.391730	1.008341
C101	C	1.274570	-0.038301	0.508373
C102	C	1.774570	0.461699	1.008373
C103	C	1.287863	-0.262520	0.274662
C104	C	1.787863	0.237480	0.774662
C105	C	1.293785	-0.258103	0.174734
C106	C	1.793785	0.241897	0.674734
C107	C	1.359415	-0.209704	1.037221
C108	C	1.859415	0.290296	1.537221
C109	C	1.354017	-0.213680	1.131123
C110	C	1.854017	0.286320	1.631123
C111	C	1.238945	-0.298552	1.124435
C112	C	1.738945	0.201448	1.624435
C113	C	1.244342	-0.294577	1.030534
C114	C	1.744342	0.205423	1.530534
C115	C	1.304580	-0.250152	0.986930
C116	C	1.804580	0.249848	1.486930
C117	C	1.309982	-0.246180	0.893027
C118	C	1.809982	0.253820	1.393027
C119	C	1.194906	-0.331050	0.886340
C120	C	1.694906	0.168950	1.386340
C121	C	1.189508	-0.335025	0.980242
C122	C	1.689508	0.164975	1.480242
H123	H	0.611630	-0.190981	0.632653
H124	H	1.111630	0.309019	1.132653
H125	H	1.398667	-0.180741	1.172067
H126	H	1.898667	0.319259	1.672067
O127	O	1.424389	-0.161794	0.990192
O128	O	1.924389	0.338206	1.490192
H129	H	1.472576	-0.186431	0.950055
H130	H	1.972576	0.313569	1.450055
O131	O	1.387123	-1.041312	0.634911
O132	O	1.887123	-0.541312	1.134911
H133	H	1.378043	-1.092514	0.624708
H134	H	1.878043	-0.592514	1.124708
H135	H	1.176117	-0.630984	0.397822
H136	H	1.676117	-0.130984	0.897822
H137	H	1.189902	-0.334721	1.159954
H138	H	1.689902	0.165279	1.659954
H139	H	0.767663	-0.360398	0.374134
H140	H	1.267663	0.139602	0.874134
H141	H	1.372758	-0.913304	0.618778
H142	H	1.872758	-0.413304	1.118778
O143	O	0.951308	-0.363431	0.369446
O144	O	1.451308	0.136569	0.869446
H145	H	0.905159	-0.391526	0.326598
H146	H	1.405159	0.108474	0.826598
H147	H	0.926153	-0.216921	0.592984
H148	H	1.426153	0.283079	1.092984
H149	H	0.782015	-0.184513	0.642472
H150	H	1.282015	0.315487	1.142472
O151	O	0.611983	-0.338432	0.407667
O152	O	1.111983	0.161568	0.907667
H153	H	0.566884	-0.373835	0.445351
H154	H	1.066884	0.126165	0.945351
H155	H	1.176043	-0.511714	0.397789
H156	H	1.676043	-0.011714	0.897789
O157	O	1.162021	-1.040450	0.381831
O158	O	1.662021	-0.540450	0.881831
H159	H	1.090546	-1.031201	0.393108
H160	H	1.590546	-0.531201	0.893108
H161	H	1.176265	-0.912550	0.397891
H162	H	1.676265	-0.412550	0.897891
H163	H	1.372597	-0.631734	0.618712
H164	H	1.872597	-0.131734	1.118712
O165	O	1.386875	-0.503829	0.634734
O166	O	1.886875	-0.003829	1.134734
H167	H	1.424550	-0.537876	0.677067
H168	H	1.924550	-0.037876	1.177067
H169	H	1.359032	-0.210008	0.857526
H170	H	1.859032	0.289992	1.357526
H171	H	1.140462	-0.371193	1.015757
H172	H	1.640462	0.128807	1.515757
O173	O	1.135753	-0.374679	0.832100
O174	O	1.635753	0.125321	1.332100
H175	H	1.149620	-0.364451	0.759477
H176	H	1.649620	0.135549	1.259477
