data_functionalizedCrystal
_audit_creation_method	'MofGen! by Chris Wilmer'
_symmetry_space_group_name_H-M	'P1'
_symmetry_Int_Tables_number	1
_symmetry_cell_setting	triclinic
loop_
_symmetry_equiv_pos_as_xyz
  x,y,z
_cell_length_a	16.625548
_cell_length_b	12.594516
_cell_length_c	16.625539
_cell_angle_alpha	90.023327
_cell_angle_beta	90.020568
_cell_angle_gamma	90.017121
loop_
_atom_site_label
_atom_site_type_symbol
_atom_site_fract_x
_atom_site_fract_y
_atom_site_fract_z
Zn1	Zn	1.232716	-0.423710	0.455937
Zn2	Zn	1.566050	-0.090377	0.789271
Zn3	Zn	1.899383	0.242957	1.122604
Zn4	Zn	1.232635	-0.601711	0.321116
Zn5	Zn	1.565968	-0.268378	0.654450
Zn6	Zn	1.899301	0.064955	0.987783
Zn7	Zn	1.097878	-0.423750	0.321118
Zn8	Zn	1.431212	-0.090417	0.654451
Zn9	Zn	1.764545	0.242916	0.987784
Zn10	Zn	1.097864	-0.601650	0.455906
Zn11	Zn	1.431197	-0.268317	0.789239
Zn12	Zn	1.764530	0.065017	1.122573
O13	O	1.165273	-0.512705	0.388519
O14	O	1.498607	-0.179372	0.721853
O15	O	1.831940	0.153961	1.055186
O16	O	1.345538	-0.447331	0.438065
O17	O	1.678871	-0.113997	0.771399
O18	O	2.012205	0.219336	1.104732
O19	O	1.214731	-0.578147	0.208284
O20	O	1.548064	-0.244813	0.541617
O21	O	1.881398	0.088520	0.874951
O22	O	1.115805	-0.274799	0.339016
O23	O	1.449138	0.058534	0.672349
O24	O	1.782472	0.391867	1.005682
O25	O	1.345478	-0.578108	0.339013
O26	O	1.678811	-0.244774	0.672346
O27	O	2.012145	0.088559	1.005680
O28	O	1.214870	-0.274769	0.438067
O29	O	1.548203	0.058564	0.771400
O30	O	1.881537	0.391897	1.104734
O31	O	1.115726	-0.447400	0.208285
O32	O	1.449059	-0.114066	0.541618
O33	O	1.782393	0.219267	0.874952
O34	O	0.985044	-0.447341	0.338985
O35	O	1.318377	-0.114007	0.672319
O36	O	1.651711	0.219326	1.005652
O37	O	1.115780	-0.578003	0.568743
O38	O	1.449114	-0.244670	0.902076
O39	O	1.782447	0.088663	1.235409
O40	O	0.985033	-0.578043	0.438014
O41	O	1.318367	-0.244709	0.771347
O42	O	1.651700	0.088624	1.104680
O43	O	1.214856	-0.447271	0.568766
O44	O	1.548189	-0.113938	0.902099
O45	O	1.881523	0.219395	1.235432
O46	O	1.214717	-0.750649	0.338983
O47	O	1.548050	-0.417316	0.672316
O48	O	1.881383	-0.083982	1.005649
O49	O	1.115701	-0.750604	0.438012
O50	O	1.449034	-0.417271	0.771345
O51	O	1.782368	-0.083937	1.104679
C52	C	0.955782	-0.512690	0.388497
C53	C	1.289116	-0.179357	0.721830
C54	C	1.622449	0.153977	1.055163
C55	C	0.866161	-0.512709	0.388506
C56	C	1.199495	-0.179376	0.721840
C57	C	1.532828	0.153957	1.055173
C58	C	0.537986	-0.512716	0.388541
C59	C	0.871319	-0.179383	0.721874
C60	C	1.204652	0.153950	1.055207
C61	C	0.629294	-0.512711	0.388529
C62	C	0.962627	-0.179378	0.721862
C63	C	1.295961	0.153955	1.055195
C64	C	0.702071	-0.512713	0.388523
C65	C	1.035404	-0.179380	0.721856
C66	C	1.368737	0.153953	1.055190
C67	C	0.793385	-0.512707	0.388512
C68	C	1.126718	-0.179374	0.721845
C69	C	1.460052	0.153959	1.055179
C70	C	1.165220	-0.789246	0.388511
C71	C	1.498554	-0.455913	0.721845
C72	C	1.831887	-0.122580	1.055178
C73	C	1.165272	-0.907552	0.388535
C74	C	1.498605	-0.574218	0.721868
C75	C	1.831938	-0.240885	1.055202
C76	C	1.111412	-0.976819	0.442359
C77	C	1.444745	-0.643486	0.775693
C78	C	1.778078	-0.310152	1.109026
C79	C	1.091767	-1.047680	0.368785
C80	C	1.425100	-0.714347	0.702118
C81	C	1.758433	-0.381013	1.035451
C82	C	1.184990	-1.047490	0.462122
C83	C	1.518323	-0.714156	0.795455
C84	C	1.851657	-0.380823	1.128789
C85	C	1.145588	-0.976855	0.314921
C86	C	1.478921	-0.643521	0.648255
C87	C	1.812254	-0.310188	0.981588
C88	C	1.238845	-0.976658	0.408308
C89	C	1.572179	-0.643325	0.741642
C90	C	1.905512	-0.309991	1.074975
C91	C	1.219228	-1.047487	0.334683
C92	C	1.552562	-0.714154	0.668017
C93	C	1.885895	-0.380820	1.001350
C94	C	1.375582	-0.512721	0.388542
C95	C	1.708915	-0.179388	0.721876
C96	C	2.042249	0.153945	1.055209
C97	C	1.465203	-0.512728	0.388552
C98	C	1.798537	-0.179395	0.721886
C99	C	2.131870	0.153938	1.055219
C100	C	1.165326	-0.512626	0.598828
C101	C	1.498659	-0.179293	0.932162
C102	C	1.831992	0.154041	1.265495
C103	C	1.165348	-0.512592	0.688449
C104	C	1.498681	-0.179259	1.021783
C105	C	1.832015	0.154074	1.355116
C106	C	1.165348	-0.235085	0.388545
C107	C	1.498682	0.098249	0.721878
C108	C	1.832015	0.431582	1.055212
C109	C	1.165380	-0.116779	0.388556
C110	C	1.498714	0.216554	0.721889
C111	C	1.832047	0.549888	1.055222
C112	C	1.165267	-0.512708	0.179028
C113	C	1.498601	-0.179374	0.512362
C114	C	1.831934	0.153959	0.845695
C115	C	1.165401	-0.512442	0.089408
C116	C	1.498735	-0.179108	0.422741
C117	C	1.832068	0.154225	0.756074
C118	C	1.165385	-0.512473	1.016625
C119	C	1.498719	-0.179140	1.349959
C120	C	1.832052	0.154194	1.683292
C121	C	1.165373	-0.512510	0.925317
C122	C	1.498706	-0.179176	1.258650
C123	C	1.832039	0.154157	1.591983
C124	C	1.165367	-0.512534	0.852540
C125	C	1.498700	-0.179200	1.185874
C126	C	1.832034	0.154133	1.519207
C127	C	1.165354	-0.512568	0.761226
C128	C	1.498687	-0.179235	1.094559
C129	C	1.832020	0.154098	1.427893
H130	H	1.065783	-0.945789	0.487811
H131	H	1.399116	-0.612455	0.821144
H132	H	1.732449	-0.279122	1.154477
H133	H	1.201624	-1.078517	0.524346
H134	H	1.534958	-0.745184	0.857679
H135	H	1.868291	-0.411851	1.191012
H136	H	1.264822	-1.078321	0.289122
H137	H	1.598156	-0.744987	0.622455
H138	H	1.931489	-0.411654	0.955789
H139	H	1.301000	-0.945441	0.425051
H140	H	1.634334	-0.612108	0.758385
H141	H	1.967667	-0.278775	1.091718
H142	H	1.128882	-0.945955	0.252681
H143	H	1.462215	-0.612622	0.586014
H144	H	1.795548	-0.279289	0.919348
H145	H	1.029597	-1.078900	0.352077
H146	H	1.362931	-0.745566	0.685410
H147	H	1.696264	-0.412233	1.018744
