data_functionalizedCrystal
_audit_creation_method	'MofGen! by Chris Wilmer'
_symmetry_space_group_name_H-M	'P1'
_symmetry_Int_Tables_number	1
_symmetry_cell_setting	triclinic
loop_
_symmetry_equiv_pos_as_xyz
  x,y,z
_cell_length_a	14.519709
_cell_length_b	15.538191
_cell_length_c	14.750779
_cell_angle_alpha	82.427828
_cell_angle_beta	77.332886
_cell_angle_gamma	114.523881
loop_
_atom_site_label
_atom_site_type_symbol
_atom_site_fract_x
_atom_site_fract_y
_atom_site_fract_z
O1	O	-0.272518	-1.229003	-0.079831
O2	O	-0.166092	-0.954923	-0.079833
O3	O	-0.355991	-1.099232	-0.079824
O4	O	-0.082619	-1.084694	-0.079841
O5	O	-0.409668	-1.140026	0.079829
O6	O	-0.219769	-0.995717	0.079820
O7	O	-0.326196	-1.269797	0.079821
Zn8	Zn	-0.281505	-1.139234	0.105169
Zn9	Zn	-0.210782	-1.085486	-0.105181
O10	O	-0.136297	-1.125488	0.079812
C11	C	-0.181796	-0.940243	-0.000007
C12	C	-0.148628	-0.835725	-0.000007
C13	C	-0.416961	-1.118952	0.000003
C14	C	-0.518660	-1.116922	0.000004
C15	C	-0.310491	-1.284476	-0.000007
C16	C	-0.343656	-1.388993	-0.000013
C17	C	-0.891034	-1.109444	-0.000021
C18	C	-0.787427	-1.111521	-0.000014
C19	C	-0.704851	-1.113183	-0.000008
C20	C	-0.601236	-1.115260	-0.000003
C21	C	-0.075325	-1.105768	-0.000017
C22	C	0.026375	-1.107796	-0.000024
N23	N	-0.329774	-1.175923	0.248727
C24	C	-0.478139	-0.547381	-0.000001
C25	C	-0.446949	-0.449167	-0.000004
C26	C	-0.271514	-0.427017	-0.000015
C27	C	-0.302691	-0.525232	-0.000007
C28	C	-0.406004	-0.585407	-0.000002
C29	C	-0.230557	-0.563258	-0.000008
C30	C	-0.261730	-0.661464	-0.000005
C31	C	-0.365037	-0.721643	-0.000003
C32	C	-0.437177	-0.683612	0.000001
C33	C	-0.127242	-0.503080	-0.000020
C34	C	-0.055108	-0.541106	-0.000021
C35	C	-0.086282	-0.639315	-0.000012
C36	C	-0.189590	-0.699494	-0.000009
C37	C	-0.014142	-0.677346	-0.000015
C38	C	-0.045315	-0.775551	-0.000013
C39	C	-0.220763	-0.797700	-0.000006
N40	N	-0.162523	-1.048805	-0.248739
C41	C	-0.027755	-0.946338	0.600530
C42	C	-0.061575	-0.972054	0.701031
C43	C	-0.229693	-1.099866	0.701002
C44	C	-0.195889	-1.074158	0.600499
C45	C	-0.094918	-0.997394	0.550271
C46	C	-0.263052	-1.125213	0.550240
C47	C	-0.229248	-1.099510	0.449746
C48	C	-0.128281	-1.022751	0.399511
C49	C	-0.061114	-0.971690	0.449777
C50	C	-0.364019	-1.201982	0.600470
C51	C	-0.431183	-1.253037	0.550211
C52	C	-0.397382	-1.227330	0.449715
C53	C	-0.296415	-1.150571	0.399480
C54	C	-0.464549	-1.278390	0.399449
C55	C	-0.430745	-1.252687	0.298955
C56	C	-0.262611	-1.124867	0.298986
H57	H	-0.304892	-0.846699	0.000004
Cl58	Cl	-0.558112	-1.349540	0.613362
Cl59	Cl	0.065817	-0.875174	0.386630
H60	H	-0.546756	-1.340899	0.440358
Cl61	Cl	-0.515181	-1.316877	0.235771
H62	H	-0.100757	-1.001827	0.317682
H63	H	0.054461	-0.883822	0.559633
Cl64	Cl	0.022877	-0.907860	0.764207
Cl65	Cl	-0.406509	-1.234295	0.726807
Cl66	Cl	-0.404227	-0.845102	-0.000006
Cl67	Cl	-0.567063	-0.759271	0.000020
H68	H	0.013421	-0.806514	-0.000004
H69	H	-0.562268	-0.596381	0.000009
H70	H	-0.505697	-0.418212	-0.000005
H71	H	-0.187395	-0.378009	-0.000023
Cl72	Cl	-0.088053	-0.379620	-0.000023
Cl73	Cl	-0.135679	-1.028351	0.235839
Cl74	Cl	0.074769	-0.465448	-0.000034
Cl75	Cl	-0.356622	-1.196369	0.764153
Cl76	Cl	0.115737	-0.601683	-0.000039
