data_functionalizedCrystal
_audit_creation_method	'MofGen! by Chris Wilmer'
_symmetry_space_group_name_H-M	'P1'
_symmetry_Int_Tables_number	1
_symmetry_cell_setting	triclinic
loop_
_symmetry_equiv_pos_as_xyz
  x,y,z
_cell_length_a	16.956993
_cell_length_b	16.992694
_cell_length_c	16.053934
_cell_angle_alpha	87.253259
_cell_angle_beta	92.384727
_cell_angle_gamma	83.361462
loop_
_atom_site_label
_atom_site_type_symbol
_atom_site_fract_x
_atom_site_fract_y
_atom_site_fract_z
O1	O	-0.171514	-1.025980	-0.069333
O2	O	0.328486	-0.525980	0.430667
O3	O	-0.169668	-0.797813	-0.069357
O4	O	0.330332	-0.297813	0.430643
O5	O	-0.055385	-0.925604	-0.069333
O6	O	0.444615	-0.425604	0.430667
O7	O	-0.285796	-0.898190	-0.069357
O8	O	0.214204	-0.398190	0.430643
O9	O	-0.049116	-0.932600	0.069525
O10	O	0.450884	-0.432600	0.569525
O11	O	-0.163398	-0.804810	0.069500
O12	O	0.336602	-0.304810	0.569500
O13	O	-0.165244	-1.032977	0.069525
O14	O	0.334756	-0.532977	0.569525
Zn15	Zn	-0.163326	-0.920004	0.091559
Zn16	Zn	0.336674	-0.420004	0.591559
Zn17	Zn	-0.171586	-0.910786	-0.091391
Zn18	Zn	0.328414	-0.410786	0.408609
O19	O	-0.279527	-0.905186	0.069501
O20	O	0.220473	-0.405186	0.569501
C21	C	-0.164157	-0.772253	0.000069
C22	C	0.335843	-0.272253	0.500069
C23	C	-0.157066	-0.685668	0.000060
C24	C	0.342934	-0.185668	0.500060
C25	C	-0.022632	-0.930506	0.000097
C26	C	0.477368	-0.430506	0.500097
C27	C	0.065623	-0.934679	0.000100
C28	C	0.565623	-0.434679	0.500100
C29	C	-0.170755	-1.058537	0.000097
C30	C	0.329245	-0.558537	0.500097
C31	C	-0.177846	-1.145122	0.000101
C32	C	0.322154	-0.645122	0.500101
C33	C	0.562935	-0.965897	0.000131
C34	C	1.062935	-0.465897	0.500131
C35	C	0.480010	-0.961971	0.000130
C36	C	0.980010	-0.461971	0.500130
C37	C	0.433619	-0.888257	0.000115
C38	C	0.933619	-0.388257	0.500115
C39	C	0.470156	-0.818467	0.000110
C40	C	0.970156	-0.318467	0.500110
C41	C	0.553080	-0.822395	0.000116
C42	C	1.053080	-0.322395	0.500116
C43	C	0.185084	-0.868816	0.000100
C44	C	0.685084	-0.368816	0.500100
C45	C	0.102155	-0.864893	0.000092
C46	C	0.602155	-0.364893	0.500092
C47	C	0.112015	-1.008398	0.000114
C48	C	0.612015	-0.508398	0.500114
C49	C	0.194940	-1.012319	0.000115
C50	C	0.694940	-0.512319	0.500115
C51	C	0.231470	-0.942529	0.000114
C52	C	0.731470	-0.442529	0.500114
N53	N	0.348856	-0.884241	0.000112
N54	N	0.848856	-0.384241	0.500112
N55	N	0.316232	-0.946546	0.000123
N56	N	0.816232	-0.446546	0.500123
C57	C	0.687720	-0.900284	0.000085
C58	C	1.187720	-0.400284	0.500085
C59	C	0.599467	-0.896112	0.000122
C60	C	1.099467	-0.396112	0.500122
N61	N	-0.157688	-0.926301	0.216418
N62	N	0.342312	-0.426301	0.716418
C63	C	-0.225481	-0.630993	0.000053
C64	C	0.274519	-0.130993	0.500053
C65	C	-0.218814	-0.549639	0.000066
C66	C	0.281186	-0.049639	0.500066
C67	C	-0.143731	-0.522961	0.000078
C68	C	0.356269	-0.022961	0.500078
C69	C	-0.075310	-0.577643	0.000087
C70	C	0.424690	-0.077643	0.500087
C71	C	-0.081978	-0.658995	0.000081
C72	C	0.418022	-0.158995	0.500081
C73	C	-0.116094	-0.281156	0.000103
C74	C	0.383906	0.218844	0.500103
C75	C	-0.109431	-0.199796	0.000107
C76	C	0.390569	0.300204	0.500107
C77	C	-0.252935	-0.171798	0.000087
C78	C	0.247065	0.328202	0.500087
C79	C	-0.259597	-0.253154	0.000076
C80	C	0.240403	0.246846	0.500076
C81	C	-0.191176	-0.307828	0.000089
C82	C	0.308824	0.192172	0.500089
N83	N	-0.136913	-0.439805	0.000088
N84	N	0.363087	0.060195	0.500088
N85	N	-0.197994	-0.390983	0.000085
N86	N	0.302006	0.109017	0.500085
N87	N	-0.177218	-0.904495	-0.216251
N88	N	0.322782	-0.404495	0.283749
C89	C	-0.206296	-0.871917	0.260123
C90	C	0.293704	-0.371917	0.760123
C91	C	-0.202350	-0.876345	0.347529
C92	C	0.297650	-0.376345	0.847529
C93	C	-0.149793	-0.935154	0.391229
C94	C	0.350207	-0.435154	0.891229
C95	C	-0.101183	-0.989543	0.347518
C96	C	0.398817	-0.489543	0.847518
C97	C	-0.105133	-0.985118	0.260114
C98	C	0.394867	-0.485118	0.760114
C99	C	-0.132558	-0.954460	0.652635
C100	C	0.367442	-0.454460	1.152635
C101	C	-0.128610	-0.958879	0.740045
C102	C	0.371390	-0.458879	1.240045
C103	C	-0.229779	-0.845682	0.740049
C104	C	0.270221	-0.345682	1.240049
C105	C	-0.233721	-0.841259	0.652643
C106	C	0.266279	-0.341259	1.152643
C107	C	-0.185115	-0.895651	0.608941
C108	C	0.314885	-0.395651	1.108941
N109	N	-0.145757	-0.939680	0.480572
N110	N	0.354243	-0.439680	0.980572
N111	N	-0.189155	-0.891128	0.519599
N112	N	0.310845	-0.391128	1.019599
H113	H	0.450270	-1.018797	0.000138
H114	H	0.950270	-0.518797	0.500138
H115	H	0.600702	-1.025923	0.000136
H116	H	1.100702	-0.525923	0.500136
C117	C	0.225261	-0.792052	0.000086
C118	C	0.725261	-0.292052	0.500086
H119	H	0.281292	-0.804943	0.000099
H120	H	0.781292	-0.304943	0.500099
H121	H	0.207458	-0.759493	-0.048345
H122	H	0.707458	-0.259493	0.451655
H123	H	0.211832	-0.764363	0.048507
H124	H	0.711832	-0.264363	0.548507
C125	C	-0.079085	-1.014281	0.604572
C126	C	0.420915	-0.514281	1.104572
H127	H	-0.047212	-1.049931	0.643119
H128	H	0.452788	-0.549931	1.143119
H129	H	-0.111279	-1.043209	0.570468
H130	H	0.388721	-0.543209	1.070468
H131	H	-0.045758	-0.986607	0.570485
H132	H	0.454242	-0.486607	1.070485
H133	H	-0.085808	-1.006771	0.775622
H134	H	0.414192	-0.506771	1.275622
C135	C	-0.291538	-0.776573	0.604579
C136	C	0.208462	-0.276573	1.104579
H137	H	-0.319928	-0.744821	0.643127
H138	H	0.180072	-0.244821	1.143127
H139	H	-0.262422	-0.744198	0.570489
H140	H	0.237578	-0.244198	1.070489
H141	H	-0.327946	-0.800796	0.570478
H142	H	0.172054	-0.300796	1.070478
C143	C	0.245965	-1.093404	0.000141
C144	C	0.745965	-0.593404	0.500141
H145	H	0.212331	-1.134405	0.000154
H146	H	0.712331	-0.634405	0.500154
H147	H	0.276334	-1.095485	-0.048277
H148	H	0.776334	-0.595485	0.451723
H149	H	0.280702	-1.100352	0.048574
H150	H	0.780702	-0.600352	0.548574
H151	H	0.432378	-0.758448	0.000103
H152	H	0.932378	-0.258448	0.500103
C153	C	0.071830	-1.085160	0.000127
C154	C	0.571830	-0.585160	0.500127
H155	H	0.015800	-1.072267	0.000128
H156	H	0.515800	-0.572267	0.500128
H157	H	0.085257	-1.112852	-0.048287
H158	H	0.585257	-0.612852	0.451713
H159	H	0.089634	-1.117717	0.048565
H160	H	0.589634	-0.617717	0.548565
C161	C	-0.342187	-0.282498	0.000058
C162	C	0.157813	0.217502	0.500058
H163	H	-0.336359	-0.338779	0.000046
H164	H	0.163641	0.161221	0.500046
H165	H	-0.368397	-0.265862	0.048475
H166	H	0.131603	0.234138	0.548475
H167	H	-0.372754	-0.260964	-0.048376
H168	H	0.127246	0.239036	0.451624
H169	H	-0.014175	-0.555916	0.000109
H170	H	0.485825	-0.055916	0.500109
C171	C	0.051125	-0.783805	0.000076
C172	C	0.551125	-0.283805	0.500076
H173	H	0.084758	-0.742803	0.000083
H174	H	0.584758	-0.242803	0.500083
H175	H	0.016388	-0.776853	-0.048351
H176	H	0.516388	-0.276853	0.451649
H177	H	0.020757	-0.781732	0.048500
H178	H	0.520757	-0.281732	0.548500
H179	H	-0.308639	-0.127274	0.000078
H180	H	0.191361	0.372726	0.500078
C181	C	0.593265	-0.745630	0.000099
C182	C	1.093265	-0.245630	0.500099
H183	H	0.553761	-0.701166	0.000081
H184	H	1.053761	-0.201166	0.500081
H185	H	0.627597	-0.746614	0.048523
H186	H	1.127597	-0.246614	0.548523
H187	H	0.623220	-0.741745	-0.048329
H188	H	1.123220	-0.241745	0.451671
H189	H	-0.058392	-1.037430	0.383104
H190	H	0.441608	-0.537430	0.883104
C191	C	-0.051662	-1.044938	0.212039
C192	C	0.448338	-0.544938	0.712039
H193	H	-0.019789	-1.080592	0.250582
H194	H	0.480211	-0.580592	0.750582
H195	H	-0.083861	-1.073860	0.177935
H196	H	0.416139	-0.573860	0.677935
H197	H	-0.018335	-1.017264	0.177950
H198	H	0.481665	-0.517264	0.677950
H199	H	-0.286622	-0.652707	0.000043
H200	H	0.213378	-0.152707	0.500043
H201	H	-0.274525	-0.505125	0.000060
H202	H	0.225475	-0.005125	0.500060
H203	H	-0.048286	-0.178080	0.000116
H204	H	0.451714	0.321920	0.500116
C205	C	-0.040834	-0.341287	0.000112
C206	C	0.459166	0.158713	0.500112
H207	H	0.004835	-0.313744	0.000112
H208	H	0.504835	0.186256	0.500112
H209	H	-0.038264	-0.376051	0.048534
H210	H	0.461736	0.123949	0.548534
H211	H	-0.042636	-0.371158	-0.048318
H212	H	0.457364	0.128842	0.451682
C213	C	-0.006724	-0.719141	0.000087
C214	C	0.493276	-0.219141	0.500087
H215	H	-0.021448	-0.771412	0.000090
H216	H	0.478552	-0.271412	0.500090
H217	H	0.021667	-0.709117	-0.048330
H218	H	0.521667	-0.209117	0.451670
H219	H	0.026031	-0.714006	0.048522
H220	H	0.526031	-0.214006	0.548522
H221	H	-0.249090	-0.824026	0.224548
H222	H	0.250910	-0.324026	0.724548
C223	C	-0.255836	-0.816538	0.395600
C224	C	0.244164	-0.316538	0.895600
H225	H	-0.287702	-0.780880	0.357056
H226	H	0.212298	-0.280880	0.857056
H227	H	-0.289157	-0.844223	0.429678
H228	H	0.210843	-0.344223	0.929678
H229	H	-0.223649	-0.787606	0.429715
H230	H	0.276351	-0.287606	0.929715
H231	H	-0.269353	-0.801399	0.775640
H232	H	0.230647	-0.301399	1.275640
