data_functionalizedCrystal
_audit_creation_method	'MofGen! by Chris Wilmer'
_symmetry_space_group_name_H-M	'P1'
_symmetry_Int_Tables_number	1
_symmetry_cell_setting	triclinic
loop_
_symmetry_equiv_pos_as_xyz
  x,y,z
_cell_length_a	11.792254
_cell_length_b	17.699097
_cell_length_c	16.776229
_cell_angle_alpha	89.989262
_cell_angle_beta	90.002197
_cell_angle_gamma	96.256486
loop_
_atom_site_label
_atom_site_type_symbol
_atom_site_fract_x
_atom_site_fract_y
_atom_site_fract_z
O1	O	-0.143598	1.004842	-0.066347
O2	O	0.356402	1.504842	0.433653
O3	O	-0.162255	0.784565	-0.066333
O4	O	0.337745	1.284565	0.433667
O5	O	0.012307	0.900044	-0.066344
O6	O	0.512307	1.400044	0.433656
O7	O	-0.318159	0.889363	-0.066336
O8	O	0.181841	1.389363	0.433664
O9	O	0.012318	0.900028	0.066233
O10	O	0.512318	1.400028	0.566233
O11	O	-0.162244	0.784549	0.066244
O12	O	0.337756	1.284549	0.566244
O13	O	-0.143587	1.004826	0.066230
O14	O	0.356413	1.504826	0.566230
Zn15	Zn	-0.152914	0.894685	0.087286
Zn16	Zn	0.347086	1.394685	0.587286
Zn17	Zn	-0.152928	0.894706	-0.087389
Zn18	Zn	0.347072	1.394706	0.412611
O19	O	-0.318149	0.889347	0.066241
O20	O	0.181851	1.389347	0.566241
C21	C	-0.161578	0.756357	-0.000043
C22	C	0.338422	1.256357	0.499957
C23	C	-0.159565	0.672328	-0.000038
C24	C	0.340435	1.172328	0.499962
C25	C	-0.147231	0.156552	-0.072338
C26	C	0.352769	0.656552	0.427662
C27	C	-0.149115	0.235507	-0.072334
C28	C	0.350885	0.735507	0.427666
C29	C	-0.150053	0.274969	-0.000063
C30	C	0.349947	0.774969	0.499937
C31	C	-0.149095	0.235474	0.072208
C32	C	0.350905	0.735474	0.572208
C33	C	-0.147203	0.156522	0.072203
C34	C	0.352797	0.656522	0.572203
C35	C	-0.156724	0.553879	0.072230
C36	C	0.343276	1.053879	0.572230
C37	C	-0.158619	0.632837	0.072229
C38	C	0.341381	1.132837	0.572229
C39	C	-0.158635	0.632864	-0.072308
C40	C	0.341365	1.132864	0.427692
C41	C	-0.156743	0.553912	-0.072313
C42	C	0.343257	1.053912	0.427687
C43	C	-0.155780	0.514424	-0.000042
C44	C	0.344220	1.014424	0.499958
C45	C	-0.153735	0.428813	-0.000047
C46	C	0.346265	0.928813	0.499953
C47	C	-0.152106	0.360578	-0.000057
C48	C	0.347894	0.860578	0.499943
C49	C	-0.360437	0.890028	-0.000047
C50	C	0.139563	1.390028	0.499953
C51	C	-0.486426	0.892042	-0.000044
C52	C	0.013574	1.392042	0.499956
C53	C	-0.588743	0.893678	-0.000049
C54	C	-0.088743	1.393678	0.499951
C55	C	-0.717105	0.895724	-0.000058
C56	C	-0.217105	1.395724	0.499942
C57	C	0.054595	0.899363	-0.000058
C58	C	0.554595	1.399363	0.499942
C59	C	0.180584	0.897349	-0.000066
C60	C	0.680584	1.397349	0.499934
C61	C	-0.144263	1.033035	-0.000062
C62	C	0.355737	1.533035	0.499938
C63	C	-0.146277	1.117063	-0.000072
C64	C	0.353723	1.617063	0.499928
N65	N	-0.152904	0.894677	0.206497
N66	N	0.347096	1.394677	0.706497
N67	N	-0.152929	0.894720	-0.206600
N68	N	0.347071	1.394720	0.293400
C69	C	-0.075639	0.945827	0.248210
C70	C	0.424361	1.445827	0.748210
C71	C	-0.075638	0.945831	0.331662
C72	C	0.424362	1.445831	0.831662
C73	C	-0.152908	0.894689	0.373400
C74	C	0.347092	1.394689	0.873400
C75	C	-0.230176	0.843533	0.331682
C76	C	0.269824	1.343533	0.831682
C77	C	-0.230171	0.843526	0.248232
C78	C	0.269829	1.343526	0.748232
C79	C	-0.230198	0.843561	0.668229
C80	C	0.269802	1.343561	1.168229
C81	C	-0.230200	0.843573	0.751686
C82	C	0.269800	1.343573	1.251686
C83	C	-0.075666	0.945866	0.751660
C84	C	0.424334	1.445866	1.251660
C85	C	-0.075661	0.945859	0.668209
C86	C	0.424339	1.445859	1.168209
C87	C	-0.152924	0.894701	0.626498
C88	C	0.347076	1.394701	1.126498
C89	C	-0.152923	0.894696	0.536010
C90	C	0.347077	1.394696	1.036010
C91	C	-0.152916	0.894696	0.463887
C92	C	0.347084	1.394696	0.963887
H93	H	-0.146475	0.124427	-0.131189
H94	H	0.353525	0.624427	0.368811
H95	H	-0.149884	0.267656	-0.131180
H96	H	0.350116	0.767656	0.368820
O97	O	-0.305275	0.793945	0.207622
O98	O	0.194725	1.293945	0.707622
C99	C	-0.375238	0.834756	0.159347
C100	C	0.124762	1.334756	0.659347
H101	H	-0.329929	0.893791	0.146830
H102	H	0.170071	1.393791	0.646830
H103	H	-0.393243	0.803235	0.100673
H104	H	0.106757	1.303235	0.600673
H105	H	-0.459115	0.840243	0.191500
H106	H	0.040885	1.340243	0.691500
O107	O	-0.150153	0.273709	0.142464
O108	O	0.349847	0.773709	0.642464
C109	C	-0.247954	0.246253	0.186425
C110	C	0.252046	0.746253	0.686425
H111	H	-0.279340	0.186211	0.165872
H112	H	0.220660	0.686211	0.665872
H113	H	-0.225782	0.245372	0.252538
H114	H	0.274218	0.745372	0.752538
H115	H	-0.317824	0.284972	0.176414
H116	H	0.182176	0.784972	0.676414
O117	O	-0.155854	0.515640	0.142502
O118	O	0.344146	1.015640	0.642502
C119	C	-0.157066	0.567405	0.206287
C120	C	0.342934	1.067405	0.706287
H121	H	-0.194333	0.620703	0.185099
H122	H	0.305667	1.120703	0.685099
H123	H	-0.211598	0.540008	0.256832
H124	H	0.288402	1.040008	0.756832
H125	H	-0.066251	0.583363	0.228509
H126	H	0.433749	1.083363	0.728509
H127	H	-0.159415	0.665024	-0.131154
H128	H	0.340585	1.165024	0.368846
H129	H	-0.012744	0.987506	0.634228
H130	H	0.487256	1.487506	1.134228
H131	H	-0.293124	0.801924	0.785668
H132	H	0.206876	1.301924	1.285668
O133	O	-0.159370	0.671269	0.142386
O134	O	0.340630	1.171269	0.642386
C135	C	-0.062195	0.725091	0.146707
C136	C	0.437805	1.225091	0.646707
H137	H	-0.029738	0.739650	0.083956
H138	H	0.470262	1.239650	0.583956
H139	H	-0.085617	0.778769	0.177295
H140	H	0.414383	1.278769	0.677295
H141	H	0.007347	0.700377	0.182364
H142	H	0.507347	1.200377	0.682364
H143	H	-0.155985	0.521785	-0.131163
H144	H	0.344015	1.021785	0.368837
H145	H	-0.146438	0.124370	0.131050
H146	H	0.353562	0.624370	0.631050
H147	H	-0.293087	0.801888	0.365670
H148	H	0.206913	1.301888	0.865670
H149	H	-0.012722	0.987476	0.214232
H150	H	0.487278	1.487476	0.714232
O151	O	-0.000553	0.995600	0.372057
O152	O	0.499447	1.495600	0.872057
C153	C	0.067655	1.040732	0.317323
C154	C	0.567655	1.540732	0.817323
H155	H	0.021128	1.041761	0.257832
H156	H	0.521128	1.541761	0.757832
H157	H	0.085055	1.101105	0.341414
H158	H	0.585055	1.601105	0.841414
H159	H	0.151936	1.015826	0.308464
H160	H	0.651936	1.515826	0.808464
O161	O	-0.000644	0.995484	0.792302
O162	O	0.499356	1.495484	1.292302
C163	C	-0.017227	0.984539	0.874908
C164	C	0.482773	1.484539	1.374908
H165	H	-0.059750	0.924543	0.886324
H166	H	0.440250	1.424543	1.386324
H167	H	0.068741	0.992613	0.906624
H168	H	0.568741	1.492613	1.406624
H169	H	-0.074077	1.027609	0.898575
H170	H	0.425923	1.527609	1.398575
H171	H	-0.293111	0.801908	0.634275
H172	H	0.206889	1.301908	1.134275
