data_functionalizedCrystal
_audit_creation_method	'MofGen! by Chris Wilmer'
_symmetry_space_group_name_H-M	'P1'
_symmetry_Int_Tables_number	1
_symmetry_cell_setting	triclinic
loop_
_symmetry_equiv_pos_as_xyz
  x,y,z
_cell_length_a	21.295417
_cell_length_b	17.639504
_cell_length_c	17.640968
_cell_angle_alpha	70.332680
_cell_angle_beta	101.234808
_cell_angle_gamma	78.788029
loop_
_atom_site_label
_atom_site_type_symbol
_atom_site_fract_x
_atom_site_fract_y
_atom_site_fract_z
Zn1	Zn	0.083223	-1.354408	0.721276
Zn2	Zn	-0.048750	-1.326409	0.583407
Zn3	Zn	0.029877	-1.188685	0.555535
Zn4	Zn	-0.048685	-1.216499	0.693288
O5	O	0.003916	-1.271500	0.638377
O6	O	0.088014	-1.466047	0.726365
O7	O	-0.060673	-1.284782	0.464361
O8	O	0.125063	-1.210745	0.577569
O9	O	-0.008946	-1.445477	0.625073
O10	O	0.164256	-1.332501	0.699339
O11	O	-0.002906	-1.183597	0.443883
O12	O	-0.002843	-1.077021	0.550430
O13	O	-0.008835	-1.258150	0.812350
O14	O	-0.060562	-1.097455	0.651637
O15	O	0.088077	-1.359471	0.832913
O16	O	-0.136851	-1.311752	0.597934
O17	O	-0.136804	-1.231001	0.678664
C18	C	-0.037484	-1.057328	0.594973
C19	C	-0.055207	-0.965708	0.576424
C20	C	0.138648	-0.717978	0.779479
C21	C	0.121976	-0.631884	0.762033
C22	C	0.021116	-0.610456	0.656406
C23	C	0.037778	-0.696550	0.673846
C24	C	0.096546	-0.750305	0.735383
C25	C	-0.004325	-0.728877	0.629750
C26	C	0.012338	-0.814964	0.647186
C27	C	0.071104	-0.868723	0.708718
C28	C	0.113208	-0.836392	0.752819
C29	C	-0.063089	-0.675120	0.568209
C30	C	-0.105192	-0.707447	0.524112
C31	C	-0.088532	-0.793535	0.541552
C32	C	-0.029767	-0.847295	0.603085
C33	C	-0.130637	-0.825867	0.497451
C34	C	-0.113974	-0.911954	0.514887
C35	C	-0.013104	-0.933382	0.620520
C36	C	-0.159666	-1.271383	0.638309
C37	C	-0.229626	-1.271414	0.638323
C38	C	-0.262478	-1.313518	0.596351
C39	C	-0.328209	-1.313561	0.596377
C40	C	-0.361091	-1.271482	0.638364
C41	C	-0.328231	-1.229376	0.680346
C42	C	-0.262498	-1.229341	0.680325
N43	N	-0.477084	-1.200642	0.630034
N44	N	-0.539528	-1.200676	0.630049
C45	C	-0.559139	-1.271584	0.638430
N46	N	-0.513950	-1.342455	0.646780
N47	N	-0.451502	-1.342420	0.646760
C48	C	-0.432367	-1.271515	0.638392
C49	C	-0.663263	-1.313738	0.596484
C50	C	-0.728995	-1.313783	0.596517
C51	C	-0.729018	-1.229590	0.680480
C52	C	-0.663285	-1.229553	0.680453
C53	C	-0.630413	-1.271625	0.638451
C54	C	0.168144	-1.271644	0.638467
C55	C	0.238128	-1.271705	0.638506
C56	C	0.045579	-1.315036	0.853377
C57	C	0.063334	-1.333589	0.944997
C58	C	0.045486	-0.486508	0.681947
C59	C	0.063223	-0.578130	0.700507
C60	C	-0.037531	-1.228181	0.424223
C61	C	-0.055077	-1.209788	0.332635
C62	C	-0.130559	-1.130875	1.192801
C63	C	-0.113864	-1.148325	1.278895
C64	C	-0.012958	-1.253822	1.300295
C65	C	-0.029643	-1.236378	1.214200
C66	C	-0.088444	-1.174904	1.160459
C67	C	0.012472	-1.280407	1.181858
C68	C	-0.004213	-1.262966	1.095771
C69	C	-0.063012	-1.201497	1.042026
C70	C	-0.105129	-1.157464	1.074372
C71	C	0.071271	-1.341884	1.235601
C72	C	0.113386	-1.385913	1.203260
C73	C	0.096703	-1.368469	1.117171
C74	C	0.037904	-1.307000	1.063425
C75	C	0.138820	-1.412503	1.084824
C76	C	0.122135	-1.395063	0.998737
C77	C	0.021219	-1.289560	0.977338
H78	H	-0.026731	-0.566677	0.606300
C79	C	0.051725	-1.321434	1.359417
N80	N	0.100449	-1.372356	1.403947
H81	H	-0.235750	-1.195054	0.714505
C82	C	-0.226326	-1.359789	0.550136
N83	N	-0.199096	-1.394636	0.515323
H84	H	0.156269	-0.605568	0.797942
C85	C	-0.627141	-1.183254	0.726647
N86	N	-0.599914	-1.148391	0.761454
H87	H	0.084852	-1.356084	1.305699
C88	C	-0.364354	-1.359876	0.550197
N89	N	-0.391578	-1.394758	0.515412
C90	C	-0.195276	-0.766725	0.429758
N91	N	-0.243963	-0.722179	0.378771
H92	H	-0.148259	-0.938274	0.478979
H93	H	-0.355007	-1.195116	0.714534
C94	C	-0.765131	-1.360104	0.550341
N95	N	-0.792350	-1.394991	0.515558
C96	C	0.051541	-0.992518	0.688219
N97	N	0.100229	-1.037059	0.739207
H98	H	-0.755788	-1.195333	0.714671
C99	C	0.203500	-1.480121	1.143950
N100	N	0.252219	-1.531049	1.188482
H101	H	0.156430	-1.430914	0.972405
H102	H	-0.148164	-1.112467	1.305223
H103	H	-0.076598	-1.187302	0.971929
C104	C	0.177853	-0.895528	0.820518
N105	N	0.226542	-0.940069	0.871505
H106	H	-0.076644	-0.605020	0.553997
H107	H	-0.153039	-0.663668	0.474007
C108	C	-0.627097	-1.360033	0.550296
N109	N	-0.599857	-1.394906	0.515510
H110	H	-0.026652	-1.239482	0.933575
H111	H	0.084671	-0.938819	0.722910
H112	H	-0.152999	-1.107386	1.030609
C113	C	-0.195243	-1.063249	1.133680
N114	N	-0.243962	-1.012318	1.089152
H115	H	0.186501	-0.761750	0.829592
C116	C	0.178069	-1.453526	1.262382
N117	N	0.226793	-1.504448	1.306912
