data_functionalizedCrystal
_audit_creation_method	'MofGen! by Chris Wilmer'
_symmetry_space_group_name_H-M	'P1'
_symmetry_Int_Tables_number	1
_symmetry_cell_setting	triclinic
loop_
_symmetry_equiv_pos_as_xyz
  x,y,z
_cell_length_a	16.974897
_cell_length_b	12.811415
_cell_length_c	15.455313
_cell_angle_alpha	87.254642
_cell_angle_beta	83.675220
_cell_angle_gamma	83.375521
loop_
_atom_site_label
_atom_site_type_symbol
_atom_site_fract_x
_atom_site_fract_y
_atom_site_fract_z
O1	O	1.057037	0.123912	-0.155999
O2	O	1.390370	0.457245	0.177335
O3	O	1.723704	0.790579	0.510668
O4	O	0.826183	0.141876	-0.141225
O5	O	1.159516	0.475209	0.192108
O6	O	1.492850	0.808543	0.525442
O7	O	0.946845	-0.019168	-0.137014
O8	O	1.280178	0.314166	0.196319
O9	O	1.613512	0.647499	0.529653
O10	O	0.936375	0.284956	-0.160210
O11	O	1.269708	0.618289	0.173124
O12	O	1.603042	0.951622	0.506457
O13	O	0.939945	-0.009996	0.007010
O14	O	1.273278	0.323337	0.340344
O15	O	1.606611	0.656670	0.673677
O16	O	0.819283	0.151047	0.002799
O17	O	1.152616	0.484381	0.336133
O18	O	1.485949	0.817714	0.669466
O19	O	1.050137	0.133083	-0.011974
O20	O	1.383470	0.466417	0.321359
O21	O	1.716804	0.799750	0.654692
Cu22	Cu	0.934080	0.142903	0.008563
Cu23	Cu	1.267413	0.476236	0.341896
Cu24	Cu	1.600746	0.809569	0.675230
Cu25	Cu	0.942240	0.132057	-0.161762
Cu26	Cu	1.275573	0.465390	0.171571
Cu27	Cu	1.608907	0.798723	0.504904
O28	O	0.929475	0.294127	-0.016185
O29	O	1.262808	0.627460	0.317148
O30	O	1.596142	0.960794	0.650481
C31	C	0.793171	0.145946	-0.067100
C32	C	1.126505	0.479279	0.266234
C33	C	1.459838	0.812613	0.599567
C34	C	0.705088	0.144397	-0.060802
C35	C	1.038421	0.477730	0.272532
C36	C	1.371755	0.811064	0.605865
C37	C	0.667460	0.138673	-0.136344
C38	C	1.000793	0.472006	0.196989
C39	C	1.334127	0.805340	0.530322
C40	C	0.584694	0.137235	-0.130415
C41	C	0.918028	0.470568	0.202918
C42	C	1.251361	0.803902	0.536251
C43	C	0.539559	0.141514	-0.048942
C44	C	0.872892	0.474847	0.284391
C45	C	1.206225	0.808181	0.617724
C46	C	0.577192	0.147242	0.026606
C47	C	0.910525	0.480575	0.359939
C48	C	1.243859	0.813908	0.693273
C49	C	0.659956	0.148687	0.020675
C50	C	0.993289	0.482020	0.354009
C51	C	1.326622	0.815354	0.687342
C52	C	0.291629	0.137735	-0.022788
C53	C	0.624962	0.471068	0.310546
C54	C	0.958295	0.804401	0.643879
C55	C	0.208860	0.136286	-0.016863
C56	C	0.542193	0.469619	0.316471
C57	C	0.875527	0.802953	0.649804
C58	C	0.216368	0.126281	-0.173885
C59	C	0.549701	0.459615	0.159449
C60	C	0.883035	0.792948	0.492782
C61	C	0.299133	0.127721	-0.179808
C62	C	0.632467	0.461054	0.153526
C63	C	0.965800	0.794387	0.486859
C64	C	0.336759	0.133454	-0.104260
C65	C	0.670092	0.466787	0.229073
C66	C	1.003425	0.800121	0.562407
N67	N	0.454959	0.140041	-0.042880
N68	N	0.788292	0.473374	0.290454
N69	N	1.121626	0.806708	0.623787
N70	N	0.421356	0.134934	-0.110324
N71	N	0.754690	0.468268	0.223009
N72	N	1.088023	0.801601	0.556343
C73	C	0.942597	-0.053487	-0.061886
C74	C	1.275930	0.279846	0.271447
C75	C	1.609263	0.613180	0.604780
C76	C	0.940209	-0.169411	-0.052603
C77	C	1.273542	0.163922	0.280730
C78	C	1.606876	0.497256	0.614064
C79	C	0.943232	-0.397233	-0.192191
C80	C	1.276565	-0.063900	0.141142
C81	C	1.609898	0.269434	0.474476
C82	C	0.940989	-0.506154	-0.183473
C83	C	1.274322	-0.172821	0.149861
C84	C	1.607655	0.160512	0.483194
C85	C	0.933474	-0.496176	-0.026448
C86	C	1.266807	-0.162843	0.306885
C87	C	1.600141	0.170491	0.640218
C88	C	0.935717	-0.387255	-0.035167
C89	C	1.269050	-0.053921	0.298167
C90	C	1.602384	0.279412	0.631500
C91	C	0.940597	-0.337787	-0.118041
C92	C	1.273931	-0.004454	0.215293
C93	C	1.607264	0.328879	0.548626
C94	C	0.942846	-0.228865	-0.126759
C95	C	1.276179	0.104468	0.206575
C96	C	1.609513	0.437802	0.539908
C97	C	0.935326	-0.218888	0.030265
C98	C	1.268659	0.114446	0.363598
C99	C	1.601992	0.447779	0.696932
C100	C	0.933083	-0.327809	0.038983
C101	C	1.266416	0.005524	0.372317
C102	C	1.599749	0.338858	0.705650
C103	C	1.083148	0.129013	-0.086102
C104	C	1.416482	0.462347	0.247232
C105	C	1.749815	0.795680	0.580565
C106	C	1.171232	0.130562	-0.092405
C107	C	1.504565	0.463895	0.240928
C108	C	1.837899	0.797228	0.574261
C109	C	0.933723	0.328446	-0.091315
C110	C	1.267057	0.661779	0.242018
C111	C	1.600390	0.995113	0.575352
C112	C	0.936111	0.444370	-0.100604
C113	C	1.269444	0.777703	0.232729
C114	C	1.602778	1.111037	0.566063
N115	N	0.928346	0.150531	0.128360
N116	N	1.261679	0.483864	0.461694
N117	N	1.595013	0.817197	0.795027
N118	N	0.947980	0.124420	-0.281560
N119	N	1.281313	0.457754	0.051774
N120	N	1.614647	0.791087	0.385107
C121	C	0.979626	0.082139	0.175540
C122	C	1.312959	0.415472	0.508874
C123	C	1.646292	0.748805	0.842207
C124	C	0.975297	0.087917	0.266197
C125	C	1.308630	0.421250	0.599530
C126	C	1.641963	0.754584	0.932864
C127	C	0.919692	0.162093	0.309672
C128	C	1.253025	0.495427	0.643005
C129	C	1.586358	0.828760	0.976338
C130	C	0.868406	0.230488	0.262485
C131	C	1.201740	0.563822	0.595819
C132	C	1.535073	0.897155	0.929152
C133	C	0.872732	0.224704	0.171831
C134	C	1.206065	0.558038	0.505164
C135	C	1.539399	0.891371	0.838498
C136	C	0.901021	0.187031	0.580600
C137	C	1.234354	0.520365	0.913933
C138	C	1.567687	0.853698	1.247267
C139	C	0.896700	0.192812	0.671261
C140	C	1.230034	0.526146	1.004594
C141	C	1.563367	0.859479	1.337927
C142	C	1.003590	0.050239	0.674966
C143	C	1.336924	0.383572	1.008299
C144	C	1.670257	0.716906	1.341633
C145	C	1.007914	0.044466	0.584309
C146	C	1.341247	0.377799	0.917643
C147	C	1.674581	0.711132	1.250976
C148	C	0.956626	0.112857	0.537131
C149	C	1.289960	0.446190	0.870465
C150	C	1.623293	0.779524	1.203798
N151	N	0.915267	0.168004	0.402337
N152	N	1.248600	0.501337	0.735670
N153	N	1.581934	0.834670	1.069004
N154	N	0.961047	0.106941	0.444468
N155	N	1.294381	0.440274	0.777802
N156	N	1.627714	0.773608	1.111135
H157	H	0.335878	0.124229	-0.246151
H158	H	0.669212	0.457562	0.087182
H159	H	1.002545	0.790896	0.420516
H160	H	0.946822	-0.188591	-0.194239
H161	H	1.280156	0.144742	0.139094
H162	H	1.613489	0.478076	0.472427
H163	H	0.929494	-0.536470	0.041024
H164	H	1.262828	-0.203137	0.374358
H165	H	1.596161	0.130196	0.707691
F166	F	0.948436	-0.344586	-0.280391
F167	F	1.281769	-0.011252	0.052943
F168	F	1.615103	0.322081	0.386276
F169	F	0.837515	0.271768	0.717523
F170	F	1.170848	0.605101	1.050857
F171	F	1.504182	0.938434	1.384190
H172	H	1.053192	-0.015934	0.548914
H173	H	1.386526	0.317399	0.882248
H174	H	1.719859	0.650732	1.215581
F175	F	1.029873	0.015126	0.316410
F176	F	1.363207	0.348459	0.649743
F177	F	1.696540	0.681792	0.983077
H178	H	0.943131	-0.554551	-0.243853
H179	H	1.276464	-0.221218	0.089480
H180	H	1.609798	0.112116	0.422813
H181	H	0.704204	0.135185	-0.202688
H182	H	1.037538	0.468519	0.130645
H183	H	1.370871	0.801852	0.463978
H184	H	1.045346	-0.005443	0.713387
H185	H	1.378679	0.327890	1.046720
H186	H	1.712012	0.661224	1.380053
F187	F	0.846439	0.259820	0.530396
F188	F	1.179772	0.593154	0.863730
F189	F	1.513106	0.926487	1.197063
H190	H	0.929106	-0.368100	0.106457
H191	H	1.262440	-0.034767	0.439791
H192	H	1.595773	0.298567	0.773124
H193	H	0.185724	0.121616	-0.235391
H194	H	0.519057	0.454949	0.097942
H195	H	0.852391	0.788283	0.431275
H196	H	0.823127	0.290881	0.297888
H197	H	1.156461	0.624214	0.631221
H198	H	1.489794	0.957547	0.964555
H199	H	0.933184	-0.170476	0.090643
H200	H	1.266517	0.162858	0.423977
H201	H	1.599850	0.496191	0.757310
F202	F	1.038813	0.003194	0.129279
F203	F	1.372146	0.336528	0.462613
F204	F	1.705479	0.669861	0.795946
F205	F	0.818150	0.297494	0.121620
F206	F	1.151484	0.630827	0.454953
F207	F	1.484817	0.964161	0.788287
H208	H	0.554062	0.132574	-0.191930
H209	H	0.887395	0.465907	0.141403
H210	H	1.220728	0.799241	0.474736
H211	H	0.172110	0.139800	0.049484
H212	H	0.505443	0.473133	0.382817
H213	H	0.838776	0.806467	0.716150
F214	F	0.331662	0.143836	0.057618
F215	F	0.664995	0.477169	0.390951
F216	F	0.998329	0.810502	0.724284
F217	F	0.700001	0.154783	0.101078
F218	F	1.033335	0.488116	0.434412
F219	F	1.366668	0.821450	0.767745
H220	H	0.540435	0.150732	0.092943
H221	H	0.873769	0.484065	0.426276
H222	H	1.207102	0.817399	0.759609
