data_functionalizedCrystal
_audit_creation_method	'MofGen! by Chris Wilmer'
_symmetry_space_group_name_H-M	'P1'
_symmetry_Int_Tables_number	1
_symmetry_cell_setting	triclinic
loop_
_symmetry_equiv_pos_as_xyz
  x,y,z
_cell_length_a	12.594517
_cell_length_b	12.594516
_cell_length_c	19.805399
_cell_angle_alpha	89.977527
_cell_angle_beta	89.988081
_cell_angle_gamma	90.011773
loop_
_atom_site_label
_atom_site_type_symbol
_atom_site_fract_x
_atom_site_fract_y
_atom_site_fract_z
Zn1	Zn	1.627273	-0.423768	-0.382605
Zn2	Zn	1.627185	-0.601761	-0.269427
Zn3	Zn	1.449284	-0.423797	-0.269445
Zn4	Zn	1.449272	-0.601705	-0.382589
O5	O	1.538254	-0.512758	-0.326017
O6	O	1.776207	-0.447391	-0.367591
O7	O	1.603554	-0.578190	-0.174713
O8	O	1.472937	-0.274848	-0.284470
O9	O	1.776142	-0.578162	-0.284440
O10	O	1.603705	-0.274826	-0.367609
O11	O	1.472851	-0.447441	-0.174726
O12	O	1.300337	-0.447386	-0.284455
O13	O	1.472917	-0.578065	-0.477308
O14	O	1.300328	-0.578093	-0.367581
O15	O	1.603693	-0.447336	-0.477320
O16	O	1.603542	-0.750700	-0.284424
O17	O	1.472831	-0.750658	-0.367564
C18	C	1.261713	-0.512737	-0.326018
C19	C	1.143407	-0.512754	-0.326035
C20	C	1.538204	-0.789299	-0.326005
C21	C	1.538281	-0.907604	-0.326023
C22	C	1.003417	-0.583975	-0.371164
C23	C	1.074193	-0.609873	-0.309390
C24	C	1.074202	-0.486903	-0.387802
C25	C	1.003398	-0.538737	-0.264209
C26	C	1.003401	-0.415722	-0.342662
C27	C	1.074146	-0.441583	-0.280846
C28	C	1.609457	-0.976841	-0.280851
C29	C	1.635464	-1.047547	-0.342628
C30	C	1.512407	-1.047697	-0.264285
C31	C	1.564337	-0.976752	-0.387832
C32	C	1.441235	-0.976896	-0.309447
C33	C	1.467205	-1.047570	-0.371267
C34	C	1.815874	-0.512779	-0.326016
C35	C	1.934180	-0.512788	-0.326015
C36	C	1.538313	-0.512691	-0.502560
C37	C	1.538339	-0.512662	-0.577792
C38	C	1.538332	-0.235137	-0.326043
C39	C	1.538366	-0.116832	-0.326055
C40	C	1.606436	-0.444588	-0.613143
C41	C	1.606446	-0.444557	-0.683832
C42	C	1.538365	-0.512607	-0.719167
C43	C	1.470261	-0.580684	-0.683811
C44	C	1.470245	-0.580709	-0.613124
C45	C	1.470321	-0.580585	-0.968884
C46	C	1.470344	-0.580557	-1.039576
C47	C	1.606522	-0.444433	-1.039592
C48	C	1.606507	-0.444458	-0.968905
C49	C	1.538399	-0.512531	-0.933555
C50	C	1.538386	-0.512562	-0.856906
C51	C	1.538382	-0.512582	-0.795814
C52	C	1.538255	-0.512748	-0.150161
C53	C	1.538436	-0.512477	-0.074929
H54	H	1.105288	-0.691946	-0.295314
C55	C	1.689169	-0.823738	-0.229415
C56	C	1.690715	-0.934905	-0.229327
H57	H	1.739331	-0.797851	-0.197605
H58	H	1.706910	-0.798413	-0.273166
H59	H	1.620218	-0.799560	-0.217523
H60	H	1.759664	-0.959083	-0.241224
H61	H	1.672981	-0.960241	-0.185566
C62	C	1.621243	-0.301446	-0.533666
C63	C	1.681270	-0.369782	-0.574305
H64	H	1.667444	-0.255265	-0.509688
H65	H	1.574893	-0.260727	-0.561246
H66	H	1.580693	-0.342005	-0.502495
H67	H	1.721814	-0.329222	-0.605479
H68	H	1.727638	-0.410505	-0.546723
C69	C	1.418382	-0.760814	-0.947113
C70	C	1.395446	-0.655406	-0.930040
H71	H	1.372153	-0.807003	-0.923129
H72	H	1.408664	-0.770524	-0.994265
H73	H	1.489884	-0.776403	-0.935513
H74	H	1.323947	-0.639814	-0.941645
H75	H	1.405156	-0.645691	-0.882878
C76	C	0.899720	-0.660517	-0.198174
C77	C	0.961604	-0.568418	-0.193661
H78	H	0.873924	-0.678846	-0.154621
H79	H	0.841508	-0.648156	-0.227627
H80	H	0.941766	-0.717014	-0.215325
H81	H	0.919555	-0.511918	-0.176514
H82	H	1.019824	-0.580773	-0.164197
C83	C	1.080477	-0.532035	-0.505506
C84	C	1.116186	-0.457357	-0.458327
H85	H	1.106390	-0.513795	-0.549046
H86	H	1.105761	-0.600478	-0.493377
H87	H	1.005058	-0.532462	-0.506098
H88	H	1.191605	-0.456935	-0.457732
H89	H	1.090908	-0.388895	-0.470460
H90	H	1.414899	-0.635973	-1.068345
C91	C	1.741141	-0.309880	-1.032506
C92	C	1.681383	-0.369596	-1.078450
H93	H	1.787360	-0.263688	-1.056496
H94	H	1.694774	-0.269175	-1.004939
H95	H	1.781830	-0.356284	-1.004932
H96	H	1.640688	-0.323192	-1.106021
H97	H	1.727756	-0.410304	-1.106029
H98	H	1.414824	-0.636087	-0.712587
C99	C	1.335665	-0.715292	-0.620204
C100	C	1.395410	-0.655556	-0.574263
H101	H	1.289471	-0.761506	-0.596211
H102	H	1.294960	-0.668910	-0.647771
H103	H	1.382050	-0.755985	-0.647777
H104	H	1.349025	-0.614857	-0.546692
H105	H	1.436118	-0.701944	-0.546683
H106	H	0.972282	-0.333673	-0.356756
C107	C	1.741071	-0.310021	-0.676747
C108	C	1.681308	-0.369735	-0.722690
H109	H	1.787293	-0.263833	-0.700738
H110	H	1.694707	-0.269311	-0.649180
H111	H	1.781757	-0.356426	-0.649172
H112	H	1.640616	-0.323330	-0.750261
H113	H	1.727678	-0.410448	-0.750268
H114	H	1.717569	-1.078584	-0.356665
H115	H	1.105006	-0.381368	-0.242630
H116	H	0.972361	-0.644236	-0.409288
H117	H	1.586174	-0.945721	-0.440100
H118	H	1.407050	-1.078429	-0.409524
C119	C	1.666925	-0.384032	-0.860554
C120	C	1.681325	-0.369639	-0.930064
H121	H	1.713114	-0.337837	-0.836577
H122	H	1.595414	-0.368469	-0.848979
H123	H	1.682499	-0.455549	-0.848964
H124	H	1.665743	-0.298124	-0.941655
H125	H	1.752853	-0.385194	-0.941643
C126	C	1.303446	-0.970704	-0.225752
C127	C	1.330431	-0.934952	-0.290473
H128	H	1.235043	-0.944801	-0.214032
H129	H	1.302826	-1.046112	-0.225221
H130	H	1.354162	-0.945427	-0.194106
H131	H	1.279719	-0.960235	-0.322120
H132	H	1.331042	-0.859528	-0.291008
C133	C	1.557412	-1.054051	-0.146557
C134	C	1.482806	-1.089761	-0.193787
H135	H	1.539138	-1.080012	-0.103034
H136	H	1.625883	-1.079285	-0.158653
H137	H	1.557796	-0.978633	-0.145947
H138	H	1.482427	-1.165179	-0.194400
H139	H	1.414317	-1.064531	-0.181687
