data_functionalizedCrystal
_audit_creation_method	'MofGen! by Chris Wilmer'
_symmetry_space_group_name_H-M	'P1'
_symmetry_Int_Tables_number	1
_symmetry_cell_setting	triclinic
loop_
_symmetry_equiv_pos_as_xyz
  x,y,z
_cell_length_a	10.654550
_cell_length_b	17.038272
_cell_length_c	9.730223
_cell_angle_alpha	90.003256
_cell_angle_beta	90.000242
_cell_angle_gamma	87.798243
loop_
_atom_site_label
_atom_site_type_symbol
_atom_site_fract_x
_atom_site_fract_y
_atom_site_fract_z
O1	O	1.678042	0.109876	0.114188
O2	O	2.178042	0.609876	0.614188
O3	O	1.313536	0.120345	0.114214
O4	O	1.813536	0.620345	0.614214
O5	O	1.493623	0.001283	0.114190
O6	O	1.993623	0.501283	0.614190
O7	O	1.497955	0.228938	0.114212
O8	O	1.997955	0.728938	0.614212
O9	O	1.493609	0.001283	-0.114390
O10	O	1.993609	0.501283	0.385610
O11	O	1.313522	0.120345	-0.114366
O12	O	1.813522	0.620345	0.385634
O13	O	1.678029	0.109876	-0.114392
O14	O	2.178029	0.609876	0.385608
Zn15	Zn	1.495773	0.115111	-0.150671
Zn16	Zn	1.995773	0.615111	0.349329
Zn17	Zn	1.495791	0.115110	0.150493
Zn18	Zn	1.995791	0.615110	0.650493
O19	O	1.497942	0.228938	-0.114368
O20	O	1.997942	0.728938	0.385632
C21	C	1.266660	0.119576	-0.000073
C22	C	1.766660	0.619576	0.499927
C23	C	1.127003	0.117276	-0.000064
C24	C	1.627003	0.617276	0.499936
C25	C	1.489675	-0.027867	-0.000099
C26	C	1.989675	0.472133	0.499901
C27	C	1.477918	-0.114726	-0.000098
C28	C	1.977918	0.385274	0.499902
C29	C	1.054026	0.187378	-0.000061
C30	C	1.554026	0.687378	0.499939
C31	C	0.922805	0.185213	-0.000085
C32	C	1.422805	0.685213	0.499915
C33	C	0.937548	0.042838	-0.000109
C34	C	1.437548	0.542838	0.499891
C35	C	1.068767	0.045004	-0.000095
C36	C	1.568767	0.545004	0.499905
C37	C	1.585862	-0.164237	-0.000107
C38	C	2.085862	0.335763	0.499893
C39	C	1.574808	-0.245849	-0.000093
C40	C	2.074808	0.254151	0.499907
C41	C	1.455808	-0.277949	-0.000080
C42	C	1.955808	0.222051	0.499920
C43	C	1.347855	-0.228431	-0.000067
C44	C	1.847855	0.271569	0.499933
C45	C	1.358911	-0.146820	-0.000071
C46	C	1.858911	0.353180	0.499929
C47	C	1.416750	-0.523925	-0.000059
C48	C	1.916750	-0.023925	0.499941
C49	C	1.405702	-0.605542	-0.000059
C50	C	1.905702	-0.105542	0.499941
C51	C	1.632655	-0.622955	-0.000082
C52	C	2.132655	-0.122955	0.499918
C53	C	1.643701	-0.541341	-0.000094
C54	C	2.143701	-0.041341	0.499906
C55	C	1.535748	-0.491831	-0.000074
C56	C	2.035748	0.008169	0.499926
C57	C	1.444505	-0.361369	-0.000070
C58	C	1.944505	0.138631	0.499930
C59	C	1.547052	-0.408412	-0.000074
C60	C	2.047052	0.091588	0.499926
C61	C	1.724905	0.110645	-0.000102
C62	C	2.224905	0.610645	0.499898
C63	C	1.864561	0.112945	-0.000102
C64	C	2.364561	0.612945	0.499898
C65	C	1.501889	0.258088	-0.000076
C66	C	2.001889	0.758088	0.499924
C67	C	1.513646	0.344947	-0.000068
C68	C	2.013646	0.844947	0.499932
N69	N	1.495770	0.115110	-0.356207
N70	N	1.995770	0.615110	0.143793
C71	C	1.577048	0.163000	-0.428129
C72	C	2.077048	0.663000	0.071871
C73	C	1.577069	0.162995	-0.572012
C74	C	2.077069	0.662995	-0.072012
C75	C	1.414522	0.067210	-0.572039
C76	C	1.914522	0.567210	-0.072039
C77	C	1.414509	0.067211	-0.428158
C78	C	1.914509	0.567211	0.071842
N79	N	1.495804	0.115105	0.356029
N80	N	1.995804	0.615105	0.856029
H81	H	1.101438	0.246227	-0.000046
H82	H	1.601438	0.746227	0.499954
H83	H	1.643217	0.202002	-0.369551
H84	H	2.143217	0.702002	0.130449
H85	H	1.740603	-0.515213	-0.000105
H86	H	2.240603	-0.015213	0.499895
H87	H	0.863392	0.242297	-0.000086
H88	H	1.363392	0.742297	0.499914
H89	H	1.348360	0.028213	-0.630639
H90	H	1.848360	0.528213	-0.130639
H91	H	1.720544	-0.663274	-0.000096
H92	H	2.220544	-0.163274	0.499904
H93	H	0.890116	-0.016004	-0.000142
H94	H	1.390116	0.483996	0.499858
H95	H	1.128187	-0.012085	-0.000101
H96	H	1.628187	0.487915	0.499899
H97	H	1.682764	-0.138109	-0.000126
H98	H	2.182764	0.361891	0.499874
H99	H	1.662708	-0.286159	-0.000103
H100	H	2.162708	0.213841	0.499897
H101	H	1.308794	-0.631674	-0.000071
H102	H	1.808794	-0.131674	0.499929
H103	H	1.643255	0.201991	-0.630564
H104	H	2.143255	0.701991	-0.130564
H105	H	1.328847	-0.483623	-0.000043
H106	H	1.828847	0.016377	0.499957
H107	H	1.250963	-0.254573	-0.000048
H108	H	1.750963	0.245427	0.499952
H109	H	1.271011	-0.106509	-0.000064
H110	H	1.771011	0.393491	0.499936
H111	H	1.643941	-0.382273	-0.000054
H112	H	2.143941	0.117727	0.499946
H113	H	1.347615	-0.387514	-0.000063
H114	H	1.847615	0.112486	0.499937
H115	H	1.348321	0.028209	-0.369598
H116	H	1.848321	0.528209	0.130402
