data_functionalizedCrystal
_audit_creation_method	'MofGen! by Chris Wilmer'
_symmetry_space_group_name_H-M	'P1'
_symmetry_Int_Tables_number	1
_symmetry_cell_setting	triclinic
loop_
_symmetry_equiv_pos_as_xyz
  x,y,z
_cell_length_a	10.654541
_cell_length_b	19.288865
_cell_length_c	18.366186
_cell_angle_alpha	90.011479
_cell_angle_beta	90.007686
_cell_angle_gamma	83.810088
loop_
_atom_site_label
_atom_site_type_symbol
_atom_site_fract_x
_atom_site_fract_y
_atom_site_fract_z
O1	O	-1.665764	-0.097548	-0.060537
O2	O	-1.165764	0.402452	0.439463
O3	O	-1.300086	-0.106844	-0.060544
O4	O	-0.800086	0.393156	0.439456
O5	O	-1.493491	-0.001135	-0.060526
O6	O	-0.993491	0.498865	0.439474
O7	O	-1.472359	-0.203257	-0.060555
O8	O	-0.972359	0.296743	0.439445
O9	O	-1.493458	-0.001129	0.060574
O10	O	-0.993458	0.498871	0.560574
O11	O	-1.300053	-0.106838	0.060555
O12	O	-0.800053	0.393162	0.560555
O13	O	-1.665731	-0.097542	0.060563
O14	O	-1.165731	0.402458	0.560563
Zn15	Zn	-1.482887	-0.102189	0.079786
Zn16	Zn	-0.982887	0.397811	0.579786
Zn17	Zn	-1.482930	-0.102197	-0.079767
Zn18	Zn	-0.982930	0.397803	0.420233
O19	O	-1.472326	-0.203252	0.060544
O20	O	-0.972326	0.296748	0.560544
C21	C	-1.253286	-0.106159	0.000005
C22	C	-0.753286	0.393841	0.500005
C23	C	-1.113886	-0.104118	0.000003
C24	C	-0.613886	0.395882	0.500003
C25	C	-1.492795	0.024749	0.000026
C26	C	-0.992795	0.524749	0.500026
C27	C	-1.490754	0.101866	0.000033
C28	C	-0.990754	0.601866	0.500033
C29	C	-1.712531	-0.098227	0.000012
C30	C	-1.212531	0.401773	0.500012
C31	C	-1.851931	-0.100268	0.000009
C32	C	-1.351931	0.399732	0.500009
C33	C	-1.083210	-0.230522	-0.000024
C34	C	-0.583210	0.269478	0.499976
C35	C	-1.002383	-0.292762	-0.000041
C36	C	-0.502383	0.207238	0.499959
C37	C	-0.871406	-0.290840	-0.000041
C38	C	-0.371406	0.209160	0.499959
C39	C	-0.821254	-0.226671	-0.000023
C40	C	-0.321254	0.273329	0.499977
C41	C	-0.902081	-0.164431	-0.000007
C42	C	-0.402081	0.335569	0.499993
C43	C	-1.033059	-0.166360	-0.000008
C44	C	-0.533059	0.333640	0.499992
C45	C	-0.932757	-0.038028	0.000026
C46	C	-0.432757	0.461972	0.500026
C47	C	-1.063735	-0.039949	0.000021
C48	C	-0.563735	0.460051	0.500021
C49	C	-0.882606	0.026141	0.000044
C50	C	-0.382606	0.526141	0.500044
C51	C	-0.963433	0.088383	0.000056
C52	C	-0.463433	0.588383	0.500056
C53	C	-1.094417	0.086458	0.000055
C54	C	-0.594417	0.586458	0.500055
C55	C	-1.144561	0.022292	0.000038
C56	C	-0.644561	0.522292	0.500038
C57	C	-1.473022	-0.229135	-0.000009
C58	C	-0.973022	0.270865	0.499991
C59	C	-1.475063	-0.306252	-0.000020
C60	C	-0.975063	0.193748	0.499980
N61	N	-1.482867	-0.102184	0.188677
N62	N	-0.982867	0.397816	0.688677
C63	C	-1.604235	0.145820	0.000038
C64	C	-1.104235	0.645820	0.500038
C65	C	-1.602318	0.218279	0.000027
C66	C	-1.102318	0.718279	0.500027
C67	C	-1.486912	0.246782	0.000024
C68	C	-0.986912	0.746782	0.500024
C69	C	-1.373415	0.202818	0.000014
C70	C	-0.873415	0.702818	0.500014
C71	C	-1.375336	0.130360	0.000018
C72	C	-0.875336	0.630360	0.500018
C73	C	-1.396178	0.355665	0.042441
C74	C	-0.896178	0.855665	0.542441
C75	C	-1.394262	0.428122	0.042441
C76	C	-0.894262	0.928122	0.542441
C77	C	-1.480982	0.470266	0.000008
C78	C	-0.980982	0.970266	0.500008
C79	C	-1.569640	0.439946	-0.042417
C80	C	-1.069640	0.939946	0.457583
C81	C	-1.571561	0.367488	-0.042412
C82	C	-1.071561	0.867488	0.457588
C83	C	-1.484816	0.325350	0.000019
C84	C	-0.984816	0.825350	0.500019
C85	C	-1.592392	0.592790	-0.000000
C86	C	-1.092392	1.092790	0.500000
C87	C	-1.590470	0.665250	-0.000016
C88	C	-1.090470	1.165250	0.499984
C89	C	-1.361565	0.649788	-0.000022
C90	C	-0.861565	1.149788	0.499978
C91	C	-1.363490	0.577329	-0.000013
C92	C	-0.863490	1.077329	0.499987
C93	C	-1.478908	0.548834	0.000001
C94	C	-0.978908	1.048834	0.500001
N95	N	-1.482960	-0.102196	-0.188659
N96	N	-0.982960	0.397804	0.311341
C97	C	-1.568534	-0.055400	0.226786
C98	C	-1.068534	0.444600	0.726786
C99	C	-1.568542	-0.055396	0.303014
C100	C	-1.068542	0.444604	0.803014
C101	C	-1.482894	-0.102190	0.341130
C102	C	-0.982894	0.397810	0.841130
C103	C	-1.397211	-0.148978	0.303012
C104	C	-0.897211	0.351022	0.803012
C105	C	-1.397197	-0.148975	0.226786
C106	C	-0.897197	0.351025	0.726786
C107	C	-1.466084	-0.165368	0.461881
C108	C	-0.966084	0.334632	0.961881
C109	C	-1.466106	-0.165372	0.538106
C110	C	-0.966106	0.334628	1.038106
C111	C	-1.482930	-0.102199	0.576238
C112	C	-0.982930	0.397801	1.076238
C113	C	-1.499758	-0.039020	0.538135
C114	C	-0.999758	0.460980	1.038135
C115	C	-1.499744	-0.039017	0.461908
C116	C	-0.999744	0.460983	0.961908
C117	C	-1.482900	-0.102198	0.423785
C118	C	-0.982900	0.397802	0.923785
C119	C	-1.568611	-0.055407	0.697001
C120	C	-1.068611	0.444593	1.197001
C121	C	-1.568611	-0.055403	0.773230
C122	C	-1.068611	0.444597	1.273230
C123	C	-1.397285	-0.148991	0.773228
C124	C	-0.897285	0.351009	1.273228
C125	C	-1.397280	-0.148989	0.697000
C126	C	-0.897280	0.351011	1.197000
C127	C	-1.482949	-0.102198	0.658891
C128	C	-0.982949	0.397802	1.158891
H129	H	-1.189856	-0.232093	-0.000040
H130	H	-0.689856	0.267907	0.499960
H131	H	-1.043231	-0.345008	-0.000054
H132	H	-0.543231	0.154992	0.499946
H133	H	-1.452362	-0.216814	0.430841
H134	H	-0.952362	0.283186	0.930841
Cl135	Cl	-1.520919	0.040403	0.586063
Cl136	Cl	-1.020919	0.540403	1.086063
H137	H	-1.327544	-0.187089	0.804261
H138	H	-0.827544	0.312911	1.304261
Cl139	Cl	-1.289493	-0.207796	0.178875
Cl140	Cl	-0.789493	0.292204	0.678875
H141	H	-0.805596	-0.341522	-0.000050
H142	H	-0.305596	0.158478	0.499950
H143	H	-1.325557	0.321356	0.076999
H144	H	-0.825557	0.821356	0.576999
H145	H	-0.775956	0.027702	0.000048
H146	H	-0.275956	0.527702	0.500048
H147	H	-0.714605	-0.225111	-0.000015
H148	H	-0.214605	0.274889	0.499985
Cl149	Cl	-1.196017	0.164708	0.000082
Cl150	Cl	-0.696017	0.664708	0.500082
H151	H	-1.638365	-0.017305	0.665972
H152	H	-1.138365	0.482695	1.165972
H153	H	-0.922588	0.140624	0.000070
H154	H	-0.422588	0.640624	0.500070
Cl155	Cl	-1.309217	0.019867	0.000033
Cl156	Cl	-0.809217	0.519867	0.500033
H157	H	-1.698217	0.122625	0.000047
H158	H	-1.198217	0.622625	0.500047
Cl159	Cl	-1.744991	0.273546	0.000033
Cl160	Cl	-1.244991	0.773546	0.500033
H161	H	-1.643747	0.342805	-0.076957
H162	H	-1.143747	0.842805	0.423043
Cl163	Cl	-1.228334	0.238649	0.000005
Cl164	Cl	-0.728334	0.738649	0.500005
Cl165	Cl	-1.678667	0.492920	-0.095766
Cl166	Cl	-1.178667	0.992920	0.404234
H167	H	-1.686372	0.569588	0.000008
H168	H	-1.186372	1.069588	0.500008
H169	H	-1.327526	-0.187088	0.665970
H170	H	-0.827526	0.312912	1.165970
Cl171	Cl	-1.733146	0.720508	-0.000014
Cl172	Cl	-1.233146	1.220508	0.499986
H173	H	-1.452412	-0.216816	0.569123
H174	H	-0.952412	0.283184	1.069123
Cl175	Cl	-1.216481	0.685613	-0.000029
Cl176	Cl	-0.716481	1.185613	0.499971
H177	H	-1.271081	0.541540	-0.000013
H178	H	-0.771081	1.041540	0.499987
Cl179	Cl	-1.232662	0.075101	0.000011
Cl180	Cl	-0.732662	0.575101	0.500011
Cl181	Cl	-1.282812	0.466231	0.095776
Cl182	Cl	-0.782812	0.966231	0.595776
H183	H	-1.638289	-0.017298	0.195760
H184	H	-1.138289	0.482702	0.695760
H185	H	-1.638306	-0.017297	0.334047
H186	H	-1.138306	0.482703	0.834047
H187	H	-1.513442	0.012426	0.430888
H188	H	-1.013442	0.512426	0.930888
Cl189	Cl	-1.676309	0.003421	0.821141
Cl190	Cl	-1.176309	0.503421	1.321141
H191	H	-1.327473	-0.187077	0.334051
H192	H	-0.827473	0.312923	0.834051
