data_functionalizedCrystal
_audit_creation_method	'MofGen! by Chris Wilmer'
_symmetry_space_group_name_H-M	'P1'
_symmetry_Int_Tables_number	1
_symmetry_cell_setting	triclinic
loop_
_symmetry_equiv_pos_as_xyz
  x,y,z
_cell_length_a	19.805407
_cell_length_b	19.121063
_cell_length_c	19.120915
_cell_angle_alpha	94.738654
_cell_angle_beta	92.425914
_cell_angle_gamma	92.466276
loop_
_atom_site_label
_atom_site_type_symbol
_atom_site_fract_x
_atom_site_fract_y
_atom_site_fract_z
Zn1	Zn	1.005639	-0.297138	-0.409756
Zn2	Zn	1.505639	0.202862	0.090244
Zn3	Zn	1.005559	-0.409791	-0.297107
Zn4	Zn	1.505559	0.090209	0.202893
Zn5	Zn	0.897504	-0.292140	-0.292111
Zn6	Zn	1.397504	0.207860	0.207889
Zn7	Zn	0.887375	-0.414760	-0.414729
Zn8	Zn	1.387375	0.085240	0.085271
O9	O	0.949019	-0.353457	-0.353426
O10	O	1.449019	0.146543	0.146574
O11	O	1.100344	-0.312095	-0.394823
O12	O	1.600344	0.187905	0.105177
O13	O	0.995432	-0.390013	-0.197984
O14	O	1.495432	0.109987	0.302016
O15	O	0.916121	-0.194341	-0.303545
O16	O	1.416121	0.305659	0.196455
O17	O	1.100286	-0.394860	-0.312060
O18	O	1.600286	0.105140	0.187940
O19	O	0.995568	-0.198013	-0.389978
O20	O	1.495568	0.301987	0.110022
O21	O	0.916044	-0.303575	-0.194314
O22	O	1.416044	0.196425	0.305686
O23	O	0.801445	-0.308393	-0.308366
O24	O	1.301445	0.191607	0.191634
O25	O	0.898857	-0.403328	-0.512529
O26	O	1.398857	0.096672	-0.012529
O27	O	0.794003	-0.398481	-0.398453
O28	O	1.294003	0.101519	0.101547
O29	O	0.985745	-0.316912	-0.508876
O30	O	1.485745	0.183088	-0.008876
O31	O	0.985609	-0.508913	-0.316882
O32	O	1.485609	-0.008913	0.183118
O33	O	0.898779	-0.512563	-0.403298
O34	O	1.398779	-0.012563	0.096702
C35	C	0.773165	-0.353435	-0.353408
C36	C	1.273165	0.146565	0.146592
C37	C	0.697932	-0.353442	-0.353417
C38	C	1.197932	0.146558	0.146583
C39	C	0.662613	-0.310429	-0.396584
C40	C	1.162613	0.189571	0.103416
C41	C	0.591924	-0.310433	-0.396587
C42	C	1.091924	0.189567	0.103413
C43	C	0.556556	-0.353454	-0.353426
C44	C	1.056556	0.146546	0.146574
C45	C	0.591880	-0.396469	-0.310255
C46	C	1.091880	0.103531	0.189745
C47	C	0.662568	-0.396461	-0.310249
C48	C	1.162568	0.103539	0.189751
C49	C	0.306805	-0.396502	-0.310278
C50	C	0.806805	0.103498	0.189722
C51	C	0.236112	-0.396508	-0.310289
C52	C	0.736112	0.103492	0.189711
C53	C	0.236161	-0.310473	-0.396616
C54	C	0.736161	0.189527	0.103384
C55	C	0.306849	-0.310465	-0.396610
C56	C	0.806849	0.189535	0.103390
C57	C	0.342167	-0.353478	-0.353436
C58	C	0.842167	0.146522	0.146564
C59	C	0.418816	-0.353472	-0.353432
C60	C	0.918816	0.146528	0.146568
C61	C	0.479908	-0.353464	-0.353433
C62	C	0.979908	0.146536	0.146567
C63	C	0.941104	-0.536269	-0.361187
C64	C	1.441104	-0.036269	0.138813
C65	C	0.937779	-0.614477	-0.364531
C66	C	1.437779	-0.114477	0.135469
C67	C	0.981456	-0.649297	-0.321147
C68	C	1.481456	-0.149297	0.178853
C69	C	0.978333	-0.722783	-0.324297
C70	C	1.478333	-0.222783	0.175703
C71	C	0.931528	-0.761446	-0.370827
C72	C	1.431528	-0.261446	0.129173
C73	C	0.887849	-0.726621	-0.414215
C74	C	1.387849	-0.226621	0.085785
C75	C	0.890976	-0.653137	-0.411069
C76	C	1.390976	-0.153137	0.088931
C77	C	0.919825	-0.983417	-0.382578
C78	C	1.419825	-0.483417	0.117422
C79	C	0.916700	-1.056906	-0.385719
C80	C	1.416700	-0.556906	0.114281
C81	C	1.007185	-1.053062	-0.295801
C82	C	1.507185	-0.553062	0.204199
C83	C	1.010306	-0.979577	-0.292656
C84	C	1.510306	-0.479577	0.207344
C85	C	0.966629	-0.944758	-0.336048
C86	C	1.466629	-0.444758	0.163952
C87	C	0.928333	-0.836560	-0.374045
C88	C	1.428333	-0.336560	0.125955
C89	C	0.969828	-0.869646	-0.332832
C90	C	1.469828	-0.369646	0.167168
C91	C	1.125560	-0.353481	-0.353444
C92	C	1.625560	0.146519	0.146556
C93	C	1.200792	-0.353491	-0.353452
C94	C	1.700792	0.146509	0.146548
C95	C	0.941180	-0.361232	-0.536946
C96	C	1.441180	0.138768	-0.036946
C97	C	0.937839	-0.364545	-0.615151
C98	C	1.437839	0.135455	-0.115151
C99	C	0.956983	-0.169933	-0.345649
C100	C	1.456983	0.330067	0.154351
C101	C	0.960377	-0.091726	-0.342335
C102	C	1.460377	0.408274	0.157665
C103	C	0.916681	-0.385580	-1.057563
C104	C	1.416681	0.114420	-0.557563
C105	C	0.919817	-0.382457	-0.984080
C106	C	1.419817	0.117543	-0.484080
C107	C	0.966627	-0.335907	-0.945440
C108	C	1.466627	0.164093	-0.445440
C109	C	1.010298	-0.292473	-0.980286
C110	C	1.510298	0.207527	-0.480286
C111	C	1.007158	-0.295593	-1.053768
C112	C	1.507158	0.204407	-0.553768
C113	C	0.978370	-0.324231	-0.723479
C114	C	1.478370	0.175769	-0.223479
C115	C	0.981509	-0.321116	-0.649993
C116	C	1.481509	0.178884	-0.149993
C117	C	0.891026	-0.411099	-0.653791
C118	C	1.391026	0.088901	-0.153791
C119	C	0.887893	-0.414218	-0.727274
C120	C	1.387893	0.085782	-0.227274
C121	C	0.931561	-0.370782	-0.762114
C122	C	1.431561	0.129218	-0.262114
C123	C	0.969836	-0.332715	-0.870329
C124	C	1.469836	0.167285	-0.370329
C125	C	0.928349	-0.373971	-0.837223
C126	C	1.428349	0.126029	-0.337223
C127	C	0.956869	-0.345662	-0.170617
C128	C	1.456869	0.154338	0.329383
C129	C	0.960350	-0.342151	-0.092404
C130	C	1.460350	0.157849	0.407596
H131	H	0.335553	-0.431526	-0.275124
H132	H	0.835553	0.068474	0.224876
C133	C	0.871771	-0.430233	-0.945769
C134	C	1.371771	0.069767	-0.445769
C135	C	0.794647	-0.424901	-0.955644
C136	C	1.294647	0.075099	-0.455644
C137	C	0.746591	-0.472679	-0.917340
C138	C	1.246591	0.027321	-0.417340
C139	C	0.775660	-0.525789	-0.869161
C140	C	1.275660	-0.025789	-0.369161
C141	C	0.852788	-0.531123	-0.859283
C142	C	1.352788	-0.031123	-0.359283
C143	C	0.900843	-0.483345	-0.897587
C144	C	1.400843	0.016655	-0.397587
H145	H	0.773125	-0.385584	-0.991312
H146	H	1.273125	0.114416	-0.491312
H147	H	0.689496	-0.468730	-0.924653
H148	H	1.189496	0.031270	-0.424653
H149	H	0.740086	-0.561157	-0.840806
H150	H	1.240086	-0.061157	-0.340806
H151	H	0.874309	-0.570439	-0.823615
H152	H	1.374309	-0.070439	-0.323615
H153	H	0.957939	-0.487293	-0.890274
H154	H	1.457939	0.012707	-0.390274
H155	H	0.691324	-0.431487	-0.275098
H156	H	1.191324	0.068513	0.224902
H157	H	0.849742	-0.758107	-0.452104
H158	H	1.349742	-0.258107	0.047896
H159	H	0.691405	-0.275398	-0.431732
H160	H	1.191405	0.224602	0.068268
C161	C	1.055232	-1.091363	-0.248077
C162	C	1.555232	-0.591363	0.251923
C163	C	1.132357	-1.081437	-0.253456
C164	C	1.632357	-0.581437	0.246544
C165	C	1.180408	-1.119737	-0.205731
C166	C	1.680408	-0.619737	0.294269
C167	C	1.151334	-1.167962	-0.152627
C168	C	1.651334	-0.667962	0.347373
C169	C	1.074205	-1.177889	-0.147246
C170	C	1.574205	-0.677889	0.352754
C171	C	1.026154	-1.139589	-0.194971
C172	C	1.526154	-0.639589	0.305029
H173	H	1.153882	-1.045737	-0.292769
H174	H	1.653882	-0.545737	0.207231
H175	H	1.237504	-1.112388	-0.209715
H176	H	1.737504	-0.612388	0.290285
H177	H	1.186904	-1.196313	-0.117298
H178	H	1.686904	-0.696313	0.382702
H179	H	1.052680	-1.213590	-0.107933
H180	H	1.552680	-0.713590	0.392067
H181	H	0.969058	-1.146939	-0.190987
H182	H	1.469058	-0.646939	0.309013
H183	H	0.207396	-0.275448	-0.431767
H184	H	0.707396	0.224552	0.068233
C185	C	0.553073	-0.263119	-0.444073
C186	C	1.053073	0.236881	0.055927
C187	C	0.591975	-0.215802	-0.491553
C188	C	1.091975	0.284198	0.008447
C189	C	0.553124	-0.168485	-0.539041
C190	C	1.053124	0.331515	-0.039041
C191	C	0.475371	-0.168486	-0.539048
C192	C	0.975371	0.331514	-0.039048
C193	C	0.436464	-0.215806	-0.491566
C194	C	0.936464	0.284194	0.008434
C195	C	0.475315	-0.263122	-0.444078
C196	C	0.975315	0.236878	0.055922
H197	H	0.649537	-0.215800	-0.491550
H198	H	1.149537	0.284200	0.008450
H199	H	0.581926	-0.133457	-0.574190
H200	H	1.081926	0.366543	-0.074190
H201	H	0.446611	-0.133460	-0.574201
H202	H	0.946611	0.366540	-0.074201
H203	H	0.378902	-0.215808	-0.491569
H204	H	0.878902	0.284192	0.008431
H205	H	0.446513	-0.298151	-0.408929
H206	H	0.946513	0.201849	0.091071
C207	C	0.865188	-0.436786	-1.100063
C208	C	1.365188	0.063214	-0.600063
C209	C	0.861731	-0.440224	-1.180890
C210	C	1.361731	0.059776	-0.680890
C211	C	0.810235	-0.491430	-1.223388
C212	C	1.310235	0.008570	-0.723388
C213	C	0.762197	-0.539198	-1.185060
C214	C	1.262197	-0.039198	-0.685060
C215	C	0.765653	-0.535762	-1.104228
C216	C	1.265653	-0.035762	-0.604228
C217	C	0.817148	-0.484556	-1.061730
C218	C	1.317148	0.015444	-0.561730
H219	H	0.897293	-0.404862	-1.209267
H220	H	1.397293	0.095138	-0.709267
H221	H	0.807677	-0.493973	-1.283225
H222	H	1.307677	0.006027	-0.783225
H223	H	0.724077	-0.577103	-1.216519
H224	H	1.224077	-0.077103	-0.716519
H225	H	0.730091	-0.571124	-1.075851
H226	H	1.230091	-0.071124	-0.575851
H227	H	0.819706	-0.482013	-1.001893
H228	H	1.319706	0.017987	-0.501893
H229	H	0.207317	-0.431543	-0.275140
H230	H	0.707317	0.068457	0.224860
C231	C	1.021312	-0.827118	-0.281650
C232	C	1.521312	-0.327118	0.218350
C233	C	0.996527	-0.774303	-0.224228
C234	C	1.496527	-0.274303	0.275772
C235	C	1.048009	-0.731768	-0.173044
C236	C	1.548009	-0.231768	0.326956
C237	C	1.124276	-0.742046	-0.179282
C238	C	1.624276	-0.242046	0.320718
C239	C	1.149065	-0.794863	-0.236706
C240	C	1.649065	-0.294863	0.263294
C241	C	1.097583	-0.837398	-0.287890
C242	C	1.597583	-0.337398	0.212110
H243	H	0.940066	-0.766692	-0.219609
H244	H	1.440066	-0.266692	0.280391
H245	H	1.029658	-0.692669	-0.130535
H246	H	1.529658	-0.192669	0.369465
H247	H	1.162386	-0.710559	-0.141392
H248	H	1.662386	-0.210559	0.358608
H249	H	1.205525	-0.802473	-0.241325
H250	H	1.705525	-0.302473	0.258675
H251	H	1.115933	-0.876497	-0.330399
H252	H	1.615933	-0.376497	0.169601
C253	C	0.842994	-0.458875	-0.615463
C254	C	1.342994	0.041125	-0.115463
C255	C	0.793338	-0.426234	-0.563650
C256	C	1.293338	0.073766	-0.063650
C257	C	0.745303	-0.474011	-0.525321
C258	C	1.245303	0.025989	-0.025321
C259	C	0.746924	-0.554429	-0.538806
C260	C	1.246924	-0.054429	-0.038806
C261	C	0.796581	-0.587074	-0.590622
C262	C	1.296581	-0.087074	-0.090622
C263	C	0.844616	-0.539297	-0.628951
C264	C	1.344616	-0.039297	-0.128951
H265	H	0.792137	-0.366700	-0.553665
H266	H	1.292137	0.133300	-0.053665
H267	H	0.708543	-0.449845	-0.486963
H268	H	1.208543	0.050155	0.013037
H269	H	0.711365	-0.589796	-0.510433
H270	H	1.211365	-0.089796	-0.010433
H271	H	0.797783	-0.646608	-0.600607
H272	H	1.297783	-0.146608	-0.100607
H273	H	0.881376	-0.563463	-0.667309
H274	H	1.381376	-0.063463	-0.167309
C275	C	0.876847	-0.879095	-0.425225
C276	C	1.376847	-0.379095	0.074775
C277	C	0.822891	-0.928381	-0.396848
C278	C	1.322891	-0.428381	0.103152
C279	C	0.771409	-0.970920	-0.448029
C280	C	1.271409	-0.470920	0.051971
C281	C	0.773883	-0.964173	-0.527588
C282	C	1.273883	-0.464173	-0.027588
C283	C	0.827841	-0.914885	-0.555969
C284	C	1.327841	-0.414885	-0.055969
C285	C	0.879324	-0.872346	-0.504787
C286	C	1.379324	-0.372346	-0.004787
H287	H	0.821058	-0.933378	-0.337950
H288	H	1.321058	-0.433378	0.162050
H289	H	0.731466	-1.007407	-0.427019
H290	H	1.231466	-0.507407	0.072981
H291	H	0.735773	-0.995663	-0.565476
H292	H	1.235773	-0.495663	-0.065476
H293	H	0.829675	-0.909888	-0.614867
H294	H	1.329675	-0.409888	-0.114867
H295	H	0.919267	-0.835859	-0.525797
H296	H	1.419267	-0.335859	-0.025797
H297	H	0.335642	-0.275435	-0.431758
H298	H	0.835642	0.224565	0.068242
H299	H	0.563078	-0.431495	-0.275110
H300	H	1.063078	0.068505	0.224890
C301	C	1.061791	-0.241269	-0.937783
C302	C	1.561791	0.258731	-0.437783
C303	C	1.037024	-0.183879	-0.884923
C304	C	1.537024	0.316121	-0.384923
C305	C	1.088520	-0.132677	-0.842422
C306	C	1.588520	0.367323	-0.342422
C307	C	1.164783	-0.138863	-0.852780
C308	C	1.664783	0.361137	-0.352780
C309	C	1.189553	-0.196255	-0.905643
C310	C	1.689553	0.303745	-0.405643
C311	C	1.138057	-0.247457	-0.948145
C312	C	1.638057	0.252543	-0.448145
H313	H	0.980567	-0.179298	-0.877253
H314	H	1.480567	0.320702	-0.377253
H315	H	1.070183	-0.090192	-0.803289
H316	H	1.570183	0.409808	-0.303289
H317	H	1.202903	-0.100960	-0.821318
H318	H	1.702903	0.399040	-0.321318
H319	H	1.246010	-0.200836	-0.913313
H320	H	1.746010	0.299164	-0.413313
H321	H	1.156394	-0.289942	-0.987277
H322	H	1.656394	0.210058	-0.487277
H323	H	1.019567	-0.617822	-0.283255
H324	H	1.519567	-0.117822	0.216745
C325	C	1.032999	-0.269906	-0.607484
C326	C	1.532999	0.230094	-0.107484
C327	C	1.030514	-0.190345	-0.614192
C328	C	1.530514	0.309655	-0.114192
C329	C	1.082001	-0.139140	-0.571681
C330	C	1.582001	0.360860	-0.071681
C331	C	1.135974	-0.167497	-0.522462
C332	C	1.635974	0.332503	-0.022462
C333	C	1.138462	-0.247063	-0.515752
C334	C	1.638462	0.252937	-0.015752
C335	C	1.086974	-0.298267	-0.558263
C336	C	1.586974	0.201733	-0.058263
H337	H	0.990558	-0.169349	-0.650629
H338	H	1.490558	0.330651	-0.150629
H339	H	1.080160	-0.080240	-0.576649
H340	H	1.580160	0.419760	-0.076649
H341	H	1.174089	-0.129592	-0.490993
H342	H	1.674089	0.370408	0.009007
H343	H	1.178418	-0.268058	-0.479315
H344	H	1.678418	0.231942	0.020685
H345	H	1.088816	-0.357167	-0.553295
H346	H	1.588816	0.142833	-0.053295
H347	H	0.878593	-1.088384	-0.423622
H348	H	1.378593	-0.588384	0.076378
H349	H	1.007950	-0.294815	-0.838860
H350	H	1.507950	0.205185	-0.338860
H351	H	1.013899	-0.751130	-0.288968
H352	H	1.513899	-0.251130	0.211032
H353	H	1.048418	-0.948098	-0.254768
H354	H	1.548418	-0.448098	0.245232
H355	H	1.042716	-0.260225	-1.082134
H356	H	1.542716	0.239775	-0.582134
H357	H	0.884260	-0.955073	-0.417908
H358	H	1.384260	-0.455073	0.082092
H359	H	1.013932	-0.288866	-0.751837
H360	H	1.513932	0.211134	-0.251837
H361	H	0.855410	-0.624787	-0.446398
H362	H	1.355410	-0.124787	0.053602
H363	H	0.849776	-0.452125	-0.758730
H364	H	1.349776	0.047875	-0.258730
H365	H	0.890233	-0.411868	-0.868687
H366	H	1.390233	0.088132	-0.368687
