data_functionalizedCrystal
_audit_creation_method	'MofGen! by Chris Wilmer'
_symmetry_space_group_name_H-M	'P1'
_symmetry_Int_Tables_number	1
_symmetry_cell_setting	triclinic
loop_
_symmetry_equiv_pos_as_xyz
  x,y,z
_cell_length_a	19.288864
_cell_length_b	27.732048
_cell_length_c	17.766277
_cell_angle_alpha	89.988664
_cell_angle_beta	89.976791
_cell_angle_gamma	82.889449
loop_
_atom_site_label
_atom_site_type_symbol
_atom_site_fract_x
_atom_site_fract_y
_atom_site_fract_z
O1	O	0.920977	0.060300	-0.062844
O2	O	0.718666	0.068434	-0.062793
O3	O	0.826105	-0.006011	-0.062806
O4	O	0.813538	0.134745	-0.062831
O5	O	0.826086	-0.006014	0.062383
O6	O	0.718647	0.068430	0.062395
O7	O	0.920958	0.060296	0.062345
Cu8	Cu	0.819801	0.064363	0.073801
Cu9	Cu	0.819823	0.064367	-0.074249
O10	O	0.813519	0.134741	0.062357
C11	C	0.692781	0.068171	-0.000192
C12	C	0.615683	0.067385	-0.000172
C13	C	0.570714	0.111066	-0.000192
C14	C	0.498271	0.110328	-0.000200
C15	C	0.470801	0.065906	-0.000204
C16	C	0.515780	0.022219	-0.000180
C17	C	0.588220	0.022959	-0.000164
C18	C	0.362763	0.030987	-0.044082
C19	C	0.290324	0.030250	-0.044102
C20	C	0.247370	0.063624	-0.000249
C21	C	0.276863	0.097744	0.043615
C22	C	0.349304	0.098483	0.043631
C23	C	0.392252	0.065099	-0.000220
C24	C	0.123850	0.106507	-0.000277
C25	C	0.051406	0.105767	-0.000280
C26	C	0.068916	0.017658	-0.000267
C27	C	0.141358	0.018399	-0.000256
C28	C	0.168820	0.062825	-0.000264
C29	C	0.825831	-0.024020	-0.000209
C30	C	0.825037	-0.077678	-0.000203
C31	C	0.883526	-0.416316	-0.000256
C32	C	0.880579	-0.617985	-0.000266
O33	O	0.934063	-0.649079	-0.000312
N34	N	0.816872	-0.637301	-0.000249
C35	C	0.753897	-0.606196	-0.000235
O36	O	0.699643	-0.627253	-0.000229
C37	C	0.756845	-0.404529	-0.000231
C38	C	0.820556	-0.385216	-0.000240
C39	C	0.947232	-0.397002	-0.000266
C40	C	0.947968	-0.346588	-0.000259
C41	C	0.884998	-0.315488	-0.000243
C42	C	0.821292	-0.334801	-0.000233
C43	C	0.693871	-0.373425	-0.000222
C44	C	0.694614	-0.323006	-0.000223
C45	C	0.758325	-0.303693	-0.000232
C46	C	0.759059	-0.253287	-0.000210
N47	N	0.822766	-0.233971	-0.000227
C48	C	0.885735	-0.265071	-0.000243
C49	C	0.752354	-0.712075	-0.000236
C50	C	0.751617	-0.762492	-0.000236
C51	C	0.878299	-0.774276	-0.000268
C52	C	0.879035	-0.723859	-0.000263
C53	C	0.816061	-0.692759	-0.000253
C54	C	0.887276	-0.159197	-0.000229
C55	C	0.888007	-0.108778	-0.000219
C56	C	0.761325	-0.096998	-0.000191
C57	C	0.760595	-0.147412	-0.000197
C58	C	0.823576	-0.178511	-0.000218
O59	O	0.705603	-0.222164	-0.000172
O60	O	0.939982	-0.244005	-0.000266
C61	C	0.882790	-0.466730	-0.000263
C62	C	0.819084	-0.486044	-0.000253
C63	C	0.756114	-0.454943	-0.000236
C64	C	0.818347	-0.536461	-0.000253
C65	C	0.881317	-0.567561	-0.000269
C66	C	0.945023	-0.548245	-0.000285
C67	C	0.945760	-0.497831	-0.000279
C68	C	0.692407	-0.474260	-0.000220
C69	C	0.691676	-0.524674	-0.000226
C70	C	0.754646	-0.555775	-0.000242
C71	C	0.946842	0.060560	-0.000258
C72	C	1.023941	0.061345	-0.000282
C73	C	0.813792	0.152751	-0.000241
C74	C	0.814587	0.206408	-0.000252
N75	N	0.819790	0.064359	0.177931
N76	N	0.819839	0.064367	-0.178379
C77	C	0.867380	0.031411	0.217313
C78	C	0.867384	0.031409	0.296114
C79	C	0.819805	0.064363	0.335532
C80	C	0.772207	0.097314	0.296141
C81	C	0.772200	0.097312	0.217341
C82	C	0.810231	0.108406	0.460363
C83	C	0.810244	0.108408	0.539162
C84	C	0.819823	0.064369	0.578578
C85	C	0.829406	0.020325	0.539186
C86	C	0.829399	0.020323	0.460385
C87	C	0.819807	0.064369	0.420977
C88	C	0.867420	0.031416	0.703405
C89	C	0.867419	0.031413	0.782209
C90	C	0.772245	0.097322	0.782234
C91	C	0.772243	0.097321	0.703432
C92	C	0.819834	0.064368	0.664023
H93	H	0.938562	-0.184513	-0.000249
H94	H	0.733446	0.124143	0.185276
O95	O	0.913677	-0.000529	0.820551
C96	C	0.956255	0.025287	0.866088
H97	H	0.928178	0.063160	0.877893
H98	H	0.967466	0.005093	0.921502
H99	H	1.007550	0.028484	0.835693
O100	O	0.725997	0.129268	0.820596
C101	C	0.683419	0.103456	0.866194
H102	H	0.711493	0.065583	0.877999
H103	H	0.672215	0.123653	0.921605
H104	H	0.632121	0.100261	0.835851
O105	O	0.633483	-0.292747	-0.000111
C106	C	0.630094	-0.263250	0.064738
H107	H	0.685192	-0.260813	0.086345
H108	H	0.603803	-0.225301	0.050164
H109	H	0.598546	-0.279780	0.110142
H110	H	0.930914	-0.708138	-0.000271
H111	H	0.929571	-0.799607	-0.000281
O112	O	0.725993	0.129378	0.665289
C113	C	0.683987	0.158456	0.716974
H114	H	0.712462	0.158953	0.773130
H115	H	0.672972	0.197078	0.694197
H116	H	0.632560	0.142852	0.725388
H117	H	0.837199	-0.015539	0.428315
O118	O	0.629800	-0.543455	-0.000084
C119	C	0.625568	-0.572288	0.064735
H120	H	0.661723	-0.560452	0.110053
H121	H	0.569533	-0.567648	0.086503
H122	H	0.642025	-0.612079	0.050065
H123	H	0.802445	0.144271	0.571229
H124	H	0.906138	0.004578	0.328185
H125	H	0.906129	0.004578	0.185228
H126	H	0.701070	-0.686757	-0.000228
H127	H	0.837207	-0.015536	0.571276
O128	O	1.007605	-0.479016	-0.000394
C129	C	1.011845	-0.450209	-0.065240
H130	H	0.956966	-0.437529	-0.086840
H131	H	1.039178	-0.417256	-0.050665
H132	H	1.042818	-0.472545	-0.110650
H133	H	0.999848	-0.330868	-0.000270
H134	H	0.146211	0.142682	-0.000272
O135	O	0.597274	0.154262	-0.000159
C136	C	0.542043	0.192658	-0.000196
H137	H	0.492957	0.179214	0.023493
H138	H	0.556828	0.223681	0.036150
H139	H	0.531682	0.206127	-0.060259
O140	O	0.404382	-0.001453	-0.086759
C141	C	0.362820	-0.031728	-0.125470
H142	H	0.307263	-0.012528	-0.130773
H143	H	0.385472	-0.040027	-0.183988
H144	H	0.362116	-0.067108	-0.092952
H145	H	0.906169	0.004582	0.671317
H146	H	0.802418	0.144270	0.428277
O147	O	0.700140	-0.066803	-0.000046
C148	C	0.661398	-0.075548	0.064783
H149	H	0.698240	-0.092863	0.110098
H150	H	0.633150	-0.039719	0.086547
H151	H	0.621476	-0.101133	0.050127
H152	H	0.733467	0.124145	0.328238
O153	O	1.006175	-0.578481	-0.000437
C154	C	1.009530	-0.607993	-0.065269
H155	H	0.973816	-0.589443	-0.110572
H156	H	1.065543	-0.613780	-0.087050
H157	H	0.991944	-0.644619	-0.050610
O158	O	0.631963	-0.392153	-0.000352
C159	C	0.593626	-0.376222	-0.065174
H160	H	0.630907	-0.365811	-0.110492
H161	H	0.564404	-0.406695	-0.086939
H162	H	0.554566	-0.343278	-0.050508
H163	H	0.708716	-0.163138	-0.000169
O164	O	1.008470	-0.427140	-0.000246
C165	C	1.064847	-0.399272	-0.000275
H166	H	1.046786	-0.361608	0.023426
H167	H	1.108929	-0.417957	0.036066
H168	H	1.084413	-0.395714	-0.060337
O169	O	0.949855	-0.089961	-0.000332
C170	C	0.954090	-0.061150	-0.065175
H171	H	0.899211	-0.048474	-0.086775
H172	H	0.981418	-0.028196	-0.050597
H173	H	0.985067	-0.083483	-0.110587
O174	O	0.378043	0.131556	0.086290
C175	C	0.424846	0.107093	0.138606
H176	H	0.443310	0.068935	0.117083
H177	H	0.471746	0.127943	0.146011
H178	H	0.397331	0.104620	0.195026
H179	H	0.461651	0.145899	-0.000214
O180	O	0.689667	-0.781169	-0.000252
C181	C	0.634251	-0.742902	-0.000220
H182	H	0.653356	-0.708690	-0.023924
H183	H	0.589743	-0.753338	-0.036557
H184	H	0.614844	-0.735734	0.059843
O185	O	0.007820	0.148246	-0.000331
C186	C	0.047597	0.187613	-0.000316
H187	H	0.101814	0.175225	-0.024006
H188	H	0.020562	0.218209	-0.036674
H189	H	0.052580	0.201238	0.059740
O190	O	0.042324	-0.025524	-0.000370
C191	C	0.065372	-0.052136	-0.065208
H192	H	0.115490	-0.039071	-0.086817
H193	H	0.075853	-0.092412	-0.050619
H194	H	0.023411	-0.046445	-0.110617
H195	H	0.241891	0.124920	0.079325
H196	H	0.177973	-0.017171	-0.000244
H197	H	0.266316	0.002469	-0.079822
O198	O	0.489180	-0.020962	-0.000287
C199	C	0.512231	-0.047574	-0.065123
H200	H	0.562352	-0.034511	-0.086727
H201	H	0.522709	-0.087850	-0.050534
H202	H	0.470274	-0.041881	-0.110536
O203	O	0.631977	-0.019443	-0.000251
C204	C	0.674423	-0.021654	-0.065091
H205	H	0.677684	0.016706	-0.086711
H206	H	0.729062	-0.039779	-0.050499
H207	H	0.650847	-0.043677	-0.110492
O208	O	0.631171	-0.444121	-0.000166
C209	C	0.574792	-0.471987	-0.000172
H210	H	0.592842	-0.509658	0.023515
H211	H	0.530699	-0.453311	0.036192
H212	H	0.555243	-0.475527	-0.060226
