data_functionalizedCrystal
_audit_creation_method	'MofGen! by Chris Wilmer'
_symmetry_space_group_name_H-M	'P1'
_symmetry_Int_Tables_number	1
_symmetry_cell_setting	triclinic
loop_
_symmetry_equiv_pos_as_xyz
  x,y,z
_cell_length_a	12.827893
_cell_length_b	16.120484
_cell_length_c	12.827885
_cell_angle_alpha	92.863938
_cell_angle_beta	89.980538
_cell_angle_gamma	92.925431
loop_
_atom_site_label
_atom_site_type_symbol
_atom_site_fract_x
_atom_site_fract_y
_atom_site_fract_z
Zn1	Zn	1.576506	-0.331866	-0.611895
Zn2	Zn	2.076506	0.168134	-0.111895
Zn3	Zn	1.567506	-0.471301	-0.445998
Zn4	Zn	2.067506	0.028699	0.054002
Zn5	Zn	1.401744	-0.331907	-0.437171
Zn6	Zn	1.901744	0.168093	0.062829
Zn7	Zn	1.392843	-0.471239	-0.620694
Zn8	Zn	1.892843	0.028761	-0.120694
O9	O	1.484650	-0.401579	-0.528940
O10	O	1.984650	0.098421	-0.028940
O11	O	1.721547	-0.350372	-0.589900
O12	O	2.221547	0.149628	-0.089900
O13	O	1.545476	-0.452853	-0.298594
O14	O	2.045476	0.047147	0.201406
O15	O	1.432418	-0.215236	-0.452972
O16	O	1.932418	0.284764	0.047028
O17	O	1.714936	-0.452814	-0.468017
O18	O	2.214936	0.047186	0.031983
O19	O	1.560814	-0.215206	-0.581341
O20	O	2.060814	0.284794	-0.081341
O21	O	1.423691	-0.350441	-0.292109
O22	O	1.923691	0.149559	0.207891
O23	O	1.254328	-0.350381	-0.461505
O24	O	1.754328	0.149619	0.038495
O25	O	1.417248	-0.452708	-0.765761
O26	O	1.917248	0.047292	-0.265761
O27	O	1.247789	-0.452748	-0.596338
O28	O	1.747789	0.047252	-0.096338
O29	O	1.552184	-0.350311	-0.759296
O30	O	2.052184	0.149689	-0.259296
O31	O	1.536846	-0.587959	-0.476549
O32	O	2.036846	-0.087959	0.023451
O33	O	1.408522	-0.587913	-0.604897
O34	O	1.908522	-0.087913	-0.104897
C35	C	1.213141	-0.401562	-0.528919
C36	C	1.713141	0.098438	-0.028919
C37	C	1.096987	-0.401576	-0.528936
C38	C	1.596987	0.098424	-0.028936
C39	C	1.041989	-0.452309	-0.595563
C40	C	1.541989	0.047691	-0.095563
C41	C	0.921938	-0.452324	-0.595582
C42	C	1.421938	0.047676	-0.095582
C43	C	1.470770	-0.618186	-0.542658
C44	C	1.970770	-0.118186	-0.042658
C45	C	1.464927	-0.710851	-0.548562
C46	C	1.964927	-0.210851	-0.048562
C47	C	1.454267	-0.880512	-0.559362
C48	C	1.954267	-0.380512	-0.059362
C49	C	1.515220	-0.921804	-0.498534
C50	C	2.015220	-0.421804	0.001466
C51	C	1.509289	-1.016209	-0.504544
C52	C	2.009289	-0.516209	-0.004544
C53	C	1.460197	-0.786099	-0.553355
C54	C	1.960197	-0.286099	-0.053355
C55	C	1.757219	-0.401595	-0.528962
C56	C	2.257219	0.098405	-0.028962
C57	C	1.873372	-0.401602	-0.528971
C58	C	2.373372	0.098398	-0.028971
C59	C	1.484727	-0.401498	-0.801505
C60	C	1.984727	0.098502	-0.301505
C61	C	1.484760	-0.401464	-0.917656
C62	C	1.984760	0.098536	-0.417656
C63	C	1.498613	-0.184125	-0.515191
C64	C	1.998613	0.315875	-0.015191
C65	C	1.504563	-0.091460	-0.509332
C66	C	2.004563	0.408540	-0.009332
C67	C	1.424518	-0.350777	-0.966231
C68	C	1.924518	0.149223	-0.466231
C69	C	1.424550	-0.350741	-1.086279
C70	C	1.924550	0.149259	-0.586279
C71	C	1.484637	-0.401598	-0.257431
C72	C	1.984637	0.098402	0.242569
C73	C	1.484822	-0.401397	-0.141266
C74	C	1.984822	0.098603	0.358734
H75	H	0.874653	-0.495761	-0.652621
H76	H	1.374653	0.004239	-0.152621
H77	H	1.055196	-0.358148	-0.471913
H78	H	1.555196	0.141852	0.028087
H79	H	1.083781	-0.495730	-0.652594
H80	H	1.583781	0.004270	-0.152594
H81	H	1.536404	-0.444791	-1.099487
H82	H	2.036404	0.055209	-0.599487
N83	N	1.359780	-0.296382	-0.906904
N84	N	1.859780	0.203618	-0.406904
N85	N	1.359841	-0.296491	-0.809469
N86	N	1.859841	0.203509	-0.309469
H87	H	1.314117	-0.258074	-0.767569
H88	H	1.814117	0.241926	-0.267569
N89	N	0.932692	-0.347108	-0.457420
N90	N	1.432692	0.152892	0.042580
N91	N	0.997029	-0.294057	-0.490987
N92	N	1.497029	0.205943	0.009013
H93	H	1.038933	-0.255569	-0.440455
H94	H	1.538933	0.244431	0.059545
N95	N	1.586251	-0.877202	-0.427528
N96	N	2.086251	-0.377202	0.072472
N97	N	1.591016	-0.799465	-0.422671
N98	N	2.091016	-0.299465	0.077329
H99	H	1.641170	-0.767960	-0.372516
H100	H	2.141170	-0.267960	0.127484
H101	H	1.397632	-0.916059	-0.615947
H102	H	1.897632	-0.416059	-0.115947
N103	N	1.359862	-0.296296	-1.138705
N104	N	1.859862	0.203704	-0.638705
N105	N	1.359985	-0.296339	-1.236150
N106	N	1.859985	0.203661	-0.736150
H107	H	1.314299	-0.257885	-1.273180
H108	H	1.814299	0.242115	-0.773180
N109	N	1.549496	-0.455859	-0.976987
N110	N	2.049496	0.044141	-0.476987
N111	N	1.617929	-0.426463	-1.036062
N112	N	2.117929	0.073537	-0.536062
H113	H	1.663652	-0.464880	-1.077965
H114	H	2.163652	0.035120	-0.577965
