data_functionalizedCrystal
_audit_creation_method	'MofGen! by Chris Wilmer'
_symmetry_space_group_name_H-M	'P1'
_symmetry_Int_Tables_number	1
_symmetry_cell_setting	triclinic
loop_
_symmetry_equiv_pos_as_xyz
  x,y,z
_cell_length_a	16.992694
_cell_length_b	16.992695
_cell_length_c	16.053802
_cell_angle_alpha	92.741074
_cell_angle_beta	87.249047
_cell_angle_gamma	90.668223
loop_
_atom_site_label
_atom_site_type_symbol
_atom_site_fract_x
_atom_site_fract_y
_atom_site_fract_z
O1	O	1.053959	0.163815	-0.069325
O2	O	1.553959	0.663815	0.430675
O3	O	0.825560	0.161983	-0.069350
O4	O	1.325560	0.661983	0.430650
O5	O	0.938844	0.048699	-0.069331
O6	O	1.438844	0.548699	0.430669
O7	O	0.940676	0.277099	-0.069344
O8	O	1.440676	0.777099	0.430656
O9	O	0.932607	0.054907	0.069527
O10	O	1.432607	0.554907	0.569527
O11	O	0.819323	0.168191	0.069508
O12	O	1.319323	0.668191	0.569508
O13	O	1.047722	0.170023	0.069533
O14	O	1.547722	0.670023	0.569533
Zn15	Zn	0.932532	0.170093	0.091567
Zn16	Zn	1.432532	0.670093	0.591567
Zn17	Zn	0.940750	0.161913	-0.091384
Zn18	Zn	1.440750	0.661913	0.408616
O19	O	0.934438	0.283307	0.069514
O20	O	1.434438	0.783307	0.569514
C21	C	0.793082	0.162731	0.000076
C22	C	1.293082	0.662731	0.500076
C23	C	0.705597	0.155702	0.000067
C24	C	1.205597	0.655702	0.500067
C25	C	0.659607	0.223520	0.000064
C26	C	1.159607	0.723520	0.500064
C27	C	0.577405	0.216911	0.000076
C28	C	1.077405	0.716911	0.500076
C29	C	0.541197	0.142484	0.000085
C30	C	1.041197	0.642484	0.500085
C31	C	0.587193	0.074661	0.000091
C32	C	1.087193	0.574661	0.500091
C33	C	0.669393	0.081270	0.000085
C34	C	1.169393	0.581270	0.500085
C35	C	0.295881	0.115090	0.000109
C36	C	0.795881	0.615090	0.500109
C37	C	0.213676	0.108486	0.000112
C38	C	0.713676	0.608486	0.500112
C39	C	0.203893	0.250737	0.000099
C40	C	0.703893	0.750737	0.500099
C41	C	0.286095	0.257339	0.000088
C42	C	0.786095	0.757339	0.500088
C43	C	0.332084	0.189517	0.000098
C44	C	0.832084	0.689517	0.500098
N45	N	0.457174	0.135727	0.000094
N46	N	0.957174	0.635727	0.500094
N47	N	0.416105	0.196275	0.000094
N48	N	0.916105	0.696275	0.500094
C49	C	0.933370	0.022443	0.000098
C50	C	1.433370	0.522443	0.500098
C51	C	0.926341	-0.065042	0.000097
C52	C	1.426341	0.434958	0.500097
C53	C	0.994158	-0.111032	0.000105
C54	C	1.494158	0.388968	0.500105
C55	C	0.987550	-0.193233	0.000096
C56	C	1.487550	0.306767	0.500096
C57	C	0.913123	-0.229442	0.000086
C58	C	1.413123	0.270558	0.500086
C59	C	0.845300	-0.183446	0.000075
C60	C	1.345300	0.316554	0.500075
C61	C	0.851910	-0.101246	0.000078
C62	C	1.351910	0.398754	0.500078
C63	C	0.885729	-0.474757	0.000071
C64	C	1.385729	0.025243	0.500071
C65	C	0.879124	-0.556962	0.000071
C66	C	1.379124	-0.056962	0.500071
C67	C	1.021375	-0.566745	0.000091
C68	C	1.521375	-0.066745	0.500091
C69	C	1.027978	-0.484543	0.000099
C70	C	1.527978	0.015457	0.500099
C71	C	0.960155	-0.438554	0.000083
C72	C	1.460155	0.061446	0.500083
N73	N	0.906366	-0.313465	0.000079
N74	N	1.406366	0.186535	0.500079
N75	N	0.966913	-0.354533	0.000084
N76	N	1.466913	0.145467	0.500084
C77	C	1.080201	0.169275	0.000105
C78	C	1.580201	0.669275	0.500105
C79	C	1.167685	0.176304	0.000109
C80	C	1.667685	0.676304	0.500109
C81	C	0.939913	0.309563	0.000084
C82	C	1.439913	0.809563	0.500084
C83	C	0.946942	0.397047	0.000079
C84	C	1.446942	0.897047	0.500079
N85	N	0.926930	0.175675	0.216427
N86	N	1.426930	0.675675	0.716427
N87	N	0.946358	0.156325	-0.216243
N88	N	1.446358	0.656325	0.283757
C89	C	0.975152	0.127492	0.260129
C90	C	1.475152	0.627492	0.760129
C91	C	0.971241	0.131404	0.347535
C92	C	1.471241	0.631404	0.847535
C93	C	0.919110	0.183504	0.391237
C94	C	1.419110	0.683504	0.891237
C95	C	0.870883	0.231689	0.347529
C96	C	1.370883	0.731689	0.847529
C97	C	0.874791	0.227772	0.260125
C98	C	1.374791	0.727772	0.760125
C99	C	0.902039	0.200593	0.652644
C100	C	1.402039	0.700593	1.152644
C101	C	0.898136	0.204508	0.740055
C102	C	1.398136	0.704508	1.240055
C103	C	0.998493	0.104222	0.740054
C104	C	1.498493	0.604222	1.240054
C105	C	1.002400	0.100313	0.652648
C106	C	1.502400	0.600313	1.152648
C107	C	0.954169	0.148494	0.608948
C108	C	1.454169	0.648494	1.108948
N109	N	0.915113	0.187507	0.480580
N110	N	1.415113	0.687507	0.980580
N111	N	0.958163	0.144487	0.519606
N112	N	1.458163	0.644487	1.019606
H113	H	0.184198	0.047875	0.000119
H114	H	0.684198	0.547875	0.500119
H115	H	0.689081	0.284126	0.000056
H116	H	1.189081	0.784126	0.500056
C117	C	1.032499	0.070177	0.212064
C118	C	1.532499	0.570177	0.712064
N119	N	1.075692	0.027003	0.175864
N120	N	1.575692	0.527003	0.675864
H121	H	0.333316	0.059864	0.000118
H122	H	0.833316	0.559864	0.500118
C123	C	1.109853	-0.444720	0.000111
C124	C	1.609853	0.055280	0.500111
N125	N	1.171523	-0.414725	0.000124
N126	N	1.671523	0.085275	0.500124
C127	C	0.763429	-0.223278	0.000070
C128	C	1.263429	0.276722	0.500070
N129	N	0.701761	-0.253278	0.000072
N130	N	1.201761	0.246722	0.500072
H131	H	0.539963	0.272136	0.000072
H132	H	1.039963	0.772136	0.500072
H133	H	0.315571	0.317945	0.000071
H134	H	0.815571	0.817945	0.500071
H135	H	0.166440	0.305954	0.000092
H136	H	0.666440	0.805954	0.500092
C137	C	0.547361	-0.007210	0.000102
C138	C	1.047361	0.492790	0.500102
N139	N	0.517360	-0.068877	0.000108
N140	N	1.017360	0.431123	0.500108
C141	C	1.076035	-0.071211	0.000117
C142	C	1.576035	0.428789	0.500117
N143	N	1.137706	-0.041219	0.000122
N144	N	1.637706	0.458781	0.500122
H145	H	1.037759	0.064994	0.775643
H146	H	1.537759	0.564994	1.275643
H147	H	0.828433	0.274107	0.383117
H148	H	1.328433	0.774107	0.883117
C149	C	0.849092	0.253703	0.604585
C150	C	1.349092	0.753703	1.104585
N151	N	0.809248	0.293748	0.568384
N152	N	1.309248	0.793748	1.068384
H153	H	0.706838	0.026046	0.000087
H154	H	1.206838	0.526046	0.500087
C155	C	1.062155	-0.243819	0.000119
C156	C	1.562155	0.256181	0.500119
N157	N	1.118350	-0.281920	0.000140
N158	N	1.618350	0.218080	0.500140
H159	H	1.044848	0.057889	0.617067
H160	H	1.544848	0.557889	1.117067
C161	C	0.797245	-0.596790	0.000053
C162	C	1.297245	-0.096790	0.500053
N163	N	0.735577	-0.626789	0.000039
N164	N	1.235577	-0.126789	0.500039
C165	C	0.811121	-0.424180	0.000050
C166	C	1.311121	0.075820	0.500050
N167	N	0.754923	-0.386082	0.000032
N168	N	1.254923	0.113918	0.500032
H169	H	0.796685	-0.063801	0.000071
H170	H	1.296685	0.436199	0.500071
H171	H	0.855683	0.246937	0.775633
H172	H	1.355683	0.746937	1.275633
H173	H	1.010506	0.092170	0.383116
H174	H	1.510506	0.592170	0.883116
C175	C	0.821749	0.280784	0.212053
C176	C	1.321749	0.780784	0.712053
N177	N	0.781797	0.320715	0.175847
N178	N	1.281797	0.820715	0.675847
H179	H	1.076592	-0.604198	0.000102
H180	H	1.576592	-0.104198	0.500102
