data_functionalizedCrystal
_audit_creation_method	'MofGen! by Chris Wilmer'
_symmetry_space_group_name_H-M	'P1'
_symmetry_Int_Tables_number	1
_symmetry_cell_setting	triclinic
loop_
_symmetry_equiv_pos_as_xyz
  x,y,z
_cell_length_a	14.971482
_cell_length_b	10.654545
_cell_length_c	13.448316
_cell_angle_alpha	89.995767
_cell_angle_beta	89.993798
_cell_angle_gamma	84.049018
loop_
_atom_site_label
_atom_site_type_symbol
_atom_site_fract_x
_atom_site_fract_y
_atom_site_fract_z
O1	O	1.187840	0.163637	-0.082674
O2	O	0.927547	0.183240	-0.082678
O3	O	1.063678	-0.009365	-0.082675
O4	O	1.051709	0.356242	-0.082677
O5	O	1.063660	-0.009377	0.082709
O6	O	0.927529	0.183228	0.082706
O7	O	1.187823	0.163625	0.082710
Cu8	Cu	1.057675	0.173426	0.097809
Cu9	Cu	1.057695	0.173440	-0.097777
O10	O	1.051692	0.356230	0.082707
C11	C	0.894208	0.182359	0.000013
C12	C	0.794897	0.179734	0.000012
C13	C	0.748236	0.178491	0.090163
C14	C	0.654924	0.176005	0.090164
C15	C	0.608274	0.174770	0.000013
C16	C	0.654941	0.176009	-0.090146
C17	C	0.748252	0.178487	-0.090146
C18	C	0.460451	0.170849	-0.090140
C19	C	0.367134	0.168374	-0.090140
C20	C	0.367123	0.168367	0.090171
C21	C	0.460434	0.170845	0.090171
C22	C	0.507095	0.172086	0.000012
C23	C	1.062790	-0.056159	0.000015
C24	C	1.060160	-0.195574	0.000009
C25	C	1.060190	-0.195570	-0.180297
C26	C	1.058972	-0.261065	-0.270450
C27	C	1.056502	-0.392057	-0.270451
C28	C	1.055246	-0.457557	-0.180290
C29	C	1.056463	-0.392063	-0.090137
C30	C	1.058936	-0.261068	-0.090146
C31	C	1.056427	-0.392066	0.090167
C32	C	1.058904	-0.261075	0.090171
C33	C	1.055171	-0.457566	0.180328
C34	C	1.056395	-0.392073	0.270483
C35	C	1.058866	-0.261073	0.270481
C36	C	1.060121	-0.195580	0.180323
C37	C	1.221161	0.164507	0.000017
C38	C	1.320473	0.167132	0.000012
C39	C	1.052580	0.403025	0.000015
C40	C	1.055210	0.542440	0.000014
N41	N	1.057667	0.173415	0.235373
N42	N	1.057710	0.173440	-0.235341
C43	C	1.117965	0.088165	0.287415
C44	C	1.117970	0.088163	0.391518
C45	C	1.057681	0.173420	0.443578
C46	C	0.997377	0.258674	0.391529
C47	C	0.997368	0.258669	0.287427
C48	C	0.997402	0.258683	0.608509
C49	C	0.997412	0.258691	0.712617
C50	C	1.118004	0.088178	0.712599
C51	C	1.117995	0.088172	0.608498
C52	C	1.057692	0.173428	0.556456
H53	H	0.498413	0.171858	0.163580
H54	H	0.948284	0.328088	0.433922
H55	H	0.329153	0.167370	-0.163549
N56	N	1.055199	-0.462704	-0.367686
H57	H	0.998827	-0.506960	-0.371715
H58	H	1.056406	-0.401263	-0.424742
H59	H	1.167091	0.018756	0.566111
N60	N	0.316798	0.167033	0.187414
H61	H	0.250465	0.167044	0.173738
H62	H	0.339007	0.088780	0.226181
H63	H	0.498440	0.171860	-0.163557
N64	N	1.060307	-0.190480	-0.367721
H65	H	1.004525	-0.203226	-0.407109
H66	H	1.062084	-0.097573	-0.354019
H67	H	0.616952	0.174995	-0.163549
N68	N	1.183050	-0.003777	0.768722
H69	H	1.173907	0.009157	0.842570
H70	H	1.172172	-0.092894	0.750534
N71	N	0.798547	0.179836	0.187400
H72	H	0.754825	0.178670	0.244510
H73	H	0.844036	0.103073	0.191330
H74	H	1.053223	-0.564216	-0.180299
N75	N	0.932358	0.350630	0.552375
H76	H	0.894168	0.404645	0.601149
H77	H	0.966939	0.406226	0.509168
N78	N	0.932328	0.350610	0.231291
H79	H	0.894137	0.404622	0.280066
H80	H	0.966904	0.406208	0.188082
N81	N	1.055044	-0.462716	0.367719
H82	H	1.053292	-0.555635	0.354038
H83	H	1.110826	-0.449923	0.407085
H84	H	0.948318	0.328114	0.754999
H85	H	1.059844	-0.207752	0.343895
H86	H	0.616939	0.174972	0.163575
H87	H	0.786242	0.179501	-0.163557
N88	N	1.062786	-0.054297	0.180332
H89	H	1.118737	-0.032834	0.144945
H90	H	1.007999	-0.012741	0.144948
N91	N	1.182985	-0.003787	0.231256
H92	H	1.246558	0.010816	0.249351
H93	H	1.172056	-0.092902	0.249402
H94	H	1.062212	-0.088911	-0.180306
N95	N	1.183036	-0.003742	0.447650
H96	H	1.221242	-0.057731	0.398874
H97	H	1.222860	0.044484	0.490809
H98	H	1.053154	-0.564226	0.180321
