data_functionalizedCrystal
_audit_creation_method	'MofGen! by Chris Wilmer'
_symmetry_space_group_name_H-M	'P1'
_symmetry_Int_Tables_number	1
_symmetry_cell_setting	triclinic
loop_
_symmetry_equiv_pos_as_xyz
  x,y,z
_cell_length_a	10.489741
_cell_length_b	10.489741
_cell_length_c	8.965430
_cell_angle_alpha	89.999293
_cell_angle_beta	89.998843
_cell_angle_gamma	95.460826
loop_
_atom_site_label
_atom_site_type_symbol
_atom_site_fract_x
_atom_site_fract_y
_atom_site_fract_z
O1	O	1.694053	-0.179958	-0.123946
O2	O	1.322858	-0.196851	-0.123969
O3	O	1.516902	-0.002807	-0.123948
O4	O	1.500009	-0.374003	-0.123967
O5	O	1.516886	-0.002820	0.124130
O6	O	1.322841	-0.196864	0.124110
O7	O	1.694037	-0.179971	0.124133
Cu8	Cu	1.508438	-0.188419	0.146773
Cu9	Cu	1.508457	-0.188404	-0.146609
O10	O	1.499993	-0.374016	0.124112
C11	C	1.275318	-0.195582	0.000067
C12	C	1.133688	-0.191765	0.000059
C13	C	1.065548	-0.068300	0.000079
C14	C	0.973430	-0.126617	-0.122237
C15	C	0.973447	-0.126659	0.122349
C16	C	1.043435	-0.250133	-0.122358
C17	C	1.043462	-0.250158	0.122338
C18	C	0.951371	-0.308564	-0.000007
C19	C	1.515618	0.044718	0.000090
C20	C	1.511801	0.186348	0.000087
C21	C	1.741577	-0.181241	0.000093
C22	C	1.883206	-0.185058	0.000092
C23	C	1.501277	-0.421541	0.000070
C24	C	1.505094	-0.563170	0.000063
N25	N	1.508433	-0.188429	0.353122
C26	C	1.388336	0.254488	0.000069
C27	C	1.446652	0.346604	0.122388
C28	C	1.446697	0.346591	-0.122198
C29	C	1.570167	0.276599	0.122508
C30	C	1.570195	0.276576	-0.122189
C31	C	1.628600	0.368665	0.000161
N32	N	1.508471	-0.188384	-0.352958
C33	C	1.418666	-0.278138	0.450418
C34	C	1.534163	-0.303949	0.549838
C35	C	1.392986	-0.162629	0.549830
C36	C	1.623988	-0.214298	0.450352
C37	C	1.482735	-0.072927	0.450336
C38	C	1.598314	-0.098690	0.549711
H39	H	0.901947	-0.410168	-0.000079
H40	H	1.622355	0.245761	0.226035
O41	O	1.276544	-0.136378	0.601883
C42	C	1.248711	-0.015519	0.548978
H43	H	1.341749	0.044306	0.519498
H44	H	1.196165	0.035407	0.639207
H45	H	1.185712	-0.028539	0.445451
O46	O	0.936510	-0.064089	-0.245486
C47	C	0.995213	0.062540	-0.245071
H48	H	1.022651	0.091884	-0.126041
H49	H	0.925585	0.129724	-0.291265
H50	H	1.084869	0.068409	-0.317569
H51	H	1.115238	0.033196	-0.000069
H52	H	1.622398	0.245537	-0.225600
H53	H	1.674327	-0.022803	0.593034
H54	H	1.074270	-0.302327	-0.225883
H55	H	1.074502	-0.302361	0.225749
H56	H	0.942463	-0.074402	0.225758
O57	O	1.267215	0.195302	0.000463
C58	C	1.202579	0.230809	0.129649
H59	H	1.275494	0.263531	0.219345
H60	H	1.137749	0.145170	0.172333
H61	H	1.142227	0.312433	0.101735
O62	O	1.328345	-0.368791	0.398208
C63	C	1.387510	-0.457293	0.309591
H64	H	1.482811	-0.410564	0.265931
H65	H	1.322586	-0.488220	0.211552
H66	H	1.404975	-0.544661	0.379629
O67	O	1.384196	0.383384	-0.245528
C68	C	1.257552	0.324719	-0.245045
H69	H	1.252257	0.234566	-0.173434
H70	H	1.227229	0.298109	-0.364001
H71	H	1.190764	0.394040	-0.197313
H72	H	1.730204	0.418089	0.000235
O73	O	1.559912	-0.420536	0.601921
C74	C	1.465046	-0.514870	0.551313
H75	H	1.374121	-0.468302	0.523414
H76	H	1.443526	-0.589731	0.642322
H77	H	1.500778	-0.562858	0.447281
O78	O	1.740392	-0.240573	0.398206
C79	C	1.738945	-0.240347	0.240952
H80	H	1.636058	-0.259369	0.199829
H81	H	1.797912	-0.318341	0.197559
H82	H	1.781694	-0.143152	0.198308
O83	O	1.456581	0.043432	0.397960
C84	C	1.345135	0.028845	0.309297
H85	H	1.330229	-0.073596	0.265760
H86	H	1.356127	0.098143	0.211174
H87	H	1.258935	0.050194	0.379256
H88	H	1.394404	0.377610	0.225794
