data_functionalizedCrystal
_audit_creation_method	'MofGen! by Chris Wilmer'
_symmetry_space_group_name_H-M	'P1'
_symmetry_Int_Tables_number	1
_symmetry_cell_setting	triclinic
loop_
_symmetry_equiv_pos_as_xyz
  x,y,z
_cell_length_a	27.440280
_cell_length_b	27.440279
_cell_length_c	27.440280
_cell_angle_alpha	60.011579
_cell_angle_beta	89.999308
_cell_angle_gamma	60.007051
loop_
_atom_site_label
_atom_site_type_symbol
_atom_site_fract_x
_atom_site_fract_y
_atom_site_fract_z
Zr1	Zr	0.469675	0.533226	-0.063850
O2	O	0.391890	0.634865	-0.141635
O3	O	0.493497	0.431586	-0.040020
O4	O	0.493530	0.533215	-0.141661
O5	O	0.391859	0.533246	0.040199
O6	O	0.573732	0.533207	-0.141664
O7	O	0.391858	0.533236	-0.039994
O8	O	0.573673	0.351412	0.040153
O9	O	0.391917	0.715041	-0.141617
O10	O	0.563539	0.473386	-0.029841
O11	O	0.503686	0.473399	0.030009
O12	O	0.503725	0.593054	-0.089660
O13	O	0.443872	0.593067	-0.029810
Zr14	Zr	0.597590	0.533228	0.064045
Zr15	Zr	0.597588	0.533213	-0.063855
Zr16	Zr	0.469677	0.533241	0.064049
Zr17	Zr	0.469718	0.661097	-0.063822
Zr18	Zr	0.597547	0.405357	0.064017
O19	O	0.573769	0.634869	0.040215
O20	O	0.573766	0.634847	-0.141641
O21	O	0.391893	0.634886	0.040221
O22	O	0.675375	0.431589	0.141829
O23	O	0.675373	0.431568	-0.040027
O24	O	0.493500	0.431607	0.141836
O25	O	0.675407	0.533209	-0.040005
O26	O	0.573736	0.533240	0.141855
O27	O	0.493534	0.533248	0.141858
O28	O	0.675408	0.533218	0.040189
O29	O	0.493591	0.715031	-0.141621
O30	O	0.573675	0.351424	0.141816
O31	O	0.675348	0.351414	0.141812
O32	O	0.675347	0.351402	0.040149
O33	O	0.391919	0.715053	-0.039955
O34	O	0.493592	0.715043	-0.039958
O35	O	0.563541	0.473400	0.089854
O36	O	0.623394	0.473388	0.030005
O37	O	0.563579	0.593055	-0.029814
O38	O	0.503726	0.593068	0.030035
C39	C	0.533579	0.373280	0.000062
C40	C	0.533561	0.318995	0.000050
C41	C	0.502382	0.084243	0.031342
C42	C	0.502371	0.135273	0.031334
O43	O	0.475812	0.161655	0.057915
N44	N	0.533605	0.160792	0.000085
C45	C	0.564858	0.135272	-0.031152
O46	O	0.591425	0.161663	-0.057732
C47	C	0.564873	0.084240	-0.031140
C48	C	0.533632	0.058729	0.000105
C49	C	0.471144	0.058732	0.062585
C50	C	0.471155	0.007706	0.062592
C51	C	0.502404	-0.017808	0.031356
C52	C	0.533643	0.007703	0.000112
C53	C	0.596129	0.058718	-0.062374
C54	C	0.596142	0.007681	-0.062360
C55	C	0.564900	-0.017830	-0.031114
C56	C	0.564903	-0.068837	-0.031118
N57	N	0.533668	-0.094355	0.000131
C58	C	0.502419	-0.068841	0.031367
C59	C	0.564825	0.242444	-0.031174
C60	C	0.564807	0.293479	-0.031189
C61	C	0.502321	0.293476	0.031298
C62	C	0.502336	0.242443	0.031310
C63	C	0.533591	0.216925	0.000075
C64	C	0.502444	-0.175998	0.031379
C65	C	0.502456	-0.227026	0.031381
C66	C	0.564945	-0.227021	-0.031104
C67	C	0.564931	-0.175995	-0.031108
C68	C	0.533679	-0.150486	0.000137
O69	O	0.591450	-0.095253	-0.057683
O70	O	0.475863	-0.095244	0.057949
C71	C	0.373633	0.533243	0.000103
C72	C	0.319331	0.533248	0.000105
C73	C	-0.017367	0.533207	-0.044083
C74	C	-0.068385	0.533202	-0.044083
O75	O	-0.094761	0.533172	-0.081643
N76	N	-0.093903	0.533208	0.000095
C77	C	-0.068396	0.533213	0.044281
O78	O	-0.094784	0.533217	0.081858
C79	C	-0.017376	0.533213	0.044283
C80	C	0.008135	0.533213	0.000098
C81	C	0.008144	0.533206	-0.088264
C82	C	0.059158	0.533213	-0.088264
C83	C	0.084660	0.533219	-0.044083
C84	C	0.059149	0.533219	0.000098
C85	C	0.008132	0.533212	0.088470
C86	C	0.059155	0.533211	0.088469
C87	C	0.084666	0.533212	0.044284
C88	C	0.135665	0.533232	0.044278
N89	N	0.161182	0.533225	0.000100
C90	C	0.135679	0.533219	-0.044081
C91	C	-0.175539	0.533211	0.044273
C92	C	-0.226560	0.533216	0.044269
C93	C	-0.226546	0.533204	-0.044095
C94	C	-0.175526	0.533204	-0.044092
C95	C	-0.150022	0.533205	0.000094
C96	C	0.242812	0.533233	-0.044078
C97	C	0.293829	0.533242	-0.044076
C98	C	0.293811	0.533250	0.044289
C99	C	0.242797	0.533245	0.044285
C100	C	0.217300	0.533234	0.000099
O101	O	0.162074	0.533259	0.081821
O102	O	0.162079	0.533206	-0.081648
C103	C	0.693632	0.533212	0.000091
C104	C	0.747935	0.533206	0.000089
C105	C	0.533630	0.533208	-0.159885
C106	C	0.533630	0.533202	-0.214182
C107	C	0.533687	0.693175	0.000132
C108	C	0.533705	0.747459	0.000144
C109	C	0.502416	0.595704	-0.582141
C110	C	0.502417	0.595708	-0.633163
O111	O	0.475882	0.648832	-0.686107
N112	N	0.533639	0.533243	-0.627456
C113	C	0.564865	0.470771	-0.570721
O114	O	0.591422	0.417640	-0.570551
C115	C	0.564867	0.470768	-0.519700
C116	C	0.533638	0.533236	-0.525412
C117	C	0.471190	0.658167	-0.587850
C118	C	0.471188	0.658163	-0.536832
C119	C	0.502411	0.595696	-0.480103
C120	C	0.533636	0.533232	-0.474393
C121	C	0.596096	0.408296	-0.462967
C122	C	0.596096	0.408298	-0.411945
C123	C	0.564867	0.470767	-0.417657
C124	C	0.564856	0.470761	-0.366646
N125	N	0.533635	0.533225	-0.372354
C126	C	0.502412	0.595693	-0.429082
C127	C	0.564861	0.470782	-0.677871
C128	C	0.564856	0.470784	-0.728891
C129	C	0.502409	0.595721	-0.791329
C130	C	0.502411	0.595718	-0.740308
C131	C	0.533639	0.533246	-0.683578
C132	C	0.502409	0.595679	-0.321936
C133	C	0.502407	0.595670	-0.270910
C134	C	0.564856	0.470733	-0.208476
C135	C	0.564856	0.470742	-0.259498
C136	C	0.533631	0.533221	-0.316229
O137	O	0.591380	0.417663	-0.313684
O138	O	0.475866	0.648814	-0.429241
C139	C	0.533635	0.533246	0.160080
C140	C	0.533636	0.533252	0.214376
C141	C	0.693578	0.373264	0.000056
C142	C	0.747863	0.318974	0.000043
C143	C	0.533581	0.373299	0.160045
C144	C	0.533564	0.319020	0.214329
C145	C	0.693581	0.373283	0.160039
C146	C	0.747866	0.318999	0.214322
C147	C	0.373685	0.693171	-0.159844
C148	C	0.319400	0.747455	-0.214127
C149	C	0.373687	0.693190	0.000138
C150	C	0.319403	0.747480	0.000152
C151	C	0.533684	0.693156	-0.159850
C152	C	0.533702	0.747434	-0.214135
C153	C	0.742111	0.293479	-0.031208
C154	C	0.793112	0.242474	-0.031233
C155	C	0.849864	0.216964	-0.000003
C156	C	0.855614	0.242464	0.031248
C157	C	0.804613	0.293471	0.031269
C158	C	0.564799	0.293531	0.271066
C159	C	0.564780	0.242538	0.322077
C160	C	0.533529	0.217032	0.316350
C161	C	0.502290	0.242526	0.259608
C162	C	0.502306	0.293521	0.208598
C163	C	0.804606	0.293501	0.208572
C164	C	0.855618	0.242502	0.259572
C165	C	0.849887	0.217001	0.316320
C166	C	0.793140	0.242505	0.322068
C167	C	0.742130	0.293505	0.271069
C168	C	0.262659	0.772960	-0.208378
C169	C	0.211648	0.823974	-0.259377
C170	C	0.217379	0.849478	-0.316125
C171	C	0.274125	0.823971	-0.321873
C172	C	0.325135	0.772962	-0.270874
C173	C	0.325154	0.772981	0.031397
C174	C	0.274153	0.823999	0.031408
C175	C	0.217402	0.849512	0.000177
C176	C	0.211652	0.824009	-0.031072
C177	C	0.262652	0.772995	-0.031086
C178	C	0.564959	0.772925	-0.208389
C179	C	0.564987	0.823918	-0.259390
C180	C	0.533754	0.849424	-0.316137
C181	C	0.502496	0.823928	-0.321882
C182	C	0.502472	0.772932	-0.270881
H183	H	0.445718	-0.013062	0.088038
H184	H	0.165447	0.844733	-0.254686
C185	C	0.599169	0.321539	-0.065563
H186	H	0.617783	0.299027	-0.084160
H187	H	0.572210	0.369689	-0.095123
H188	H	0.628726	0.313195	-0.038605
C189	C	0.599169	0.321588	0.277377
H190	H	0.617759	0.299106	0.318477
H191	H	0.628736	0.313226	0.258776
H192	H	0.572207	0.369746	0.258783
C193	C	0.467925	0.214456	0.253316
H194	H	0.472400	0.180429	0.291824
H195	H	0.426830	0.251063	0.232129
H196	H	0.483358	0.194542	0.232121
H197	H	0.533522	0.175508	0.357891
H198	H	0.278847	0.844755	0.056857
C199	C	0.436839	0.726886	-0.650249
H200	H	0.441306	0.717953	-0.679825
H201	H	0.395745	0.752548	-0.654706
H202	H	0.452278	0.752550	-0.654712
H203	H	0.165438	0.844789	-0.056500
H204	H	0.695906	0.314249	-0.056646
H205	H	0.477016	0.752183	-0.275568
C206	C	0.468057	0.664386	-0.277195
H207	H	0.472521	0.655441	-0.238685
H208	H	0.483495	0.690050	-0.298381
H209	H	0.426959	0.690054	-0.298388
H210	H	0.476872	0.314268	0.162402
H211	H	0.891386	0.175430	-0.000025
C212	C	0.599199	0.214388	-0.065544
H213	H	0.617792	0.236903	-0.084158
H214	H	0.628764	0.166238	-0.038588
H215	H	0.572241	0.222730	-0.095099
C216	C	0.467950	0.321542	0.065663
H217	H	0.449343	0.299044	0.084273
H218	H	0.494906	0.313207	0.095212
H219	H	0.438386	0.369695	0.038697
C220	C	0.810922	0.321546	0.146156
H221	H	0.852024	0.299055	0.150045
H222	H	0.792318	0.313184	0.124952
H223	H	0.792331	0.369703	0.124969
H224	H	0.901819	0.221742	0.254881
H225	H	0.476995	-0.155234	0.056821
C226	C	0.906001	0.160896	0.372413
H227	H	0.940613	0.149360	0.360857
H228	H	0.906019	0.177609	0.395502
H229	H	0.905996	0.121096	0.395482
H230	H	0.476983	0.646555	-0.368124
H231	H	0.079927	0.533210	-0.124241
H232	H	0.788483	0.221733	0.368279
C233	C	0.679717	0.321546	0.277397
H234	H	0.650153	0.355576	0.238900
H235	H	0.675240	0.284924	0.298592
H236	H	0.675251	0.341449	0.298600
H237	H	0.590392	0.752166	-0.162187
C238	C	0.161307	0.905624	0.000199
H239	H	0.172866	0.917150	0.023286
H240	H	0.138235	0.945422	-0.039591
H241	H	0.138220	0.888909	0.016929
C242	C	0.214768	0.533227	-0.092685
H243	H	0.237271	0.533234	-0.118997
H244	H	0.214843	0.493265	-0.074554
H245	H	0.174888	0.573193	-0.114501
C246	C	0.599364	0.851962	-0.253060
H247	H	0.617950	0.829474	-0.211959
H248	H	0.628935	0.843595	-0.271657
H249	H	0.572408	0.900120	-0.271652
C250	C	-0.254596	0.533180	-0.092684
H251	H	-0.288629	0.533169	-0.086349
H252	H	-0.266214	0.573134	-0.130820
H253	H	-0.226249	0.493206	-0.090850
C254	C	0.161266	0.905585	-0.372221
H255	H	0.172801	0.917128	-0.406844
H256	H	0.138179	0.888866	-0.372220
H257	H	0.138203	0.945381	-0.372207
H258	H	-0.012614	0.533199	-0.124241
C259	C	0.630500	0.086765	-0.096738
H260	H	0.626020	0.120815	-0.092278
H261	H	0.671595	0.050151	-0.081311
H262	H	0.615082	0.106644	-0.137833
C263	C	0.256344	0.744922	-0.145962
H264	H	0.215242	0.767430	-0.149851
H265	H	0.274927	0.696768	-0.124767
H266	H	0.274955	0.753287	-0.124765
H267	H	0.278784	0.844744	-0.368084
H268	H	0.371335	0.752196	-0.275563
H269	H	0.477013	-0.247794	0.056824
C270	C	0.468100	0.852029	-0.384303
H271	H	0.449469	0.829556	-0.380427
H272	H	0.438563	0.900182	-0.405454
H273	H	0.495041	0.843686	-0.405536
H274	H	0.788419	0.221718	-0.056681
H275	H	0.445698	0.079499	0.088025
H276	H	0.371359	0.752213	0.056833
H277	H	0.476896	0.221675	0.056753
C278	C	0.533782	0.905519	-0.372234
H279	H	0.510708	0.917059	-0.406856
H280	H	0.517072	0.945313	-0.372222
H281	H	0.573588	0.888785	-0.372235
C282	C	0.630521	-0.020383	-0.096721
H283	H	0.649119	0.002126	-0.115333
H284	H	0.660082	-0.068533	-0.069763
H285	H	0.603564	-0.012040	-0.126279
C286	C	0.599296	-0.147933	-0.065476
H287	H	0.617911	-0.170442	-0.084075
H288	H	0.572341	-0.099782	-0.095034
H289	H	0.628853	-0.156284	-0.038511
C290	C	0.256322	0.744939	-0.065450
H291	H	0.294820	0.710905	-0.060991
H292	H	0.235111	0.725053	-0.050021
H293	H	0.235133	0.781557	-0.106544
H294	H	0.314597	0.533244	-0.080058
C295	C	0.599319	-0.255093	-0.065460
H296	H	0.617921	-0.232591	-0.084074
H297	H	0.628877	-0.303243	-0.038495
H298	H	0.572362	-0.246754	-0.095015
C299	C	-0.147464	0.533195	-0.092690
H300	H	-0.169961	0.533187	-0.118998
H301	H	-0.147533	0.573153	-0.114505
H302	H	-0.107584	0.493225	-0.074546
H303	H	-0.247333	0.533227	0.080243
H304	H	-0.154779	0.533217	0.080254
C305	C	0.599147	0.214498	0.384487
H306	H	0.594660	0.180480	0.414051
H307	H	0.640244	0.194595	0.388953
H308	H	0.583729	0.251126	0.388963
C309	C	-0.019920	0.533209	0.137074
H310	H	-0.053961	0.533212	0.130751
H311	H	0.008422	0.493248	0.175200
H312	H	-0.031537	0.573176	0.135250
C313	C	0.087203	0.533220	0.137071
H314	H	0.064696	0.533227	0.163379
H315	H	0.127084	0.493263	0.158886
H316	H	0.087120	0.573192	0.118928
H317	H	0.809304	0.314223	0.056720
C318	C	0.321873	0.533252	0.092887
H319	H	0.355914	0.533247	0.086559
H320	H	0.293538	0.573211	0.091072
H321	H	0.333493	0.493283	0.131016
C322	C	0.436843	0.726879	-0.543122
H323	H	0.418256	0.764078	-0.584218
H324	H	0.407275	0.729487	-0.524521
H325	H	0.463816	0.729473	-0.524517
C326	C	0.468067	0.664433	-0.746596
H327	H	0.449477	0.701633	-0.787691
H328	H	0.438502	0.667038	-0.727992
H329	H	0.495042	0.667025	-0.727993
C330	C	0.214728	0.533256	0.092881
H331	H	0.237225	0.533261	0.119193
H332	H	0.174847	0.573215	0.074741
H333	H	0.214810	0.493287	0.114699
C334	C	0.918042	0.214392	0.065603
H335	H	0.947587	0.180357	0.061117
H336	H	0.922542	0.250996	0.050193
H337	H	0.922514	0.194486	0.106702
H338	H	0.476985	0.646586	-0.837529
H339	H	0.590278	0.419916	-0.724232
H340	H	0.621527	0.357427	-0.458304
C341	C	0.599205	0.402058	-0.615470
H342	H	0.617792	0.364862	-0.619384
H343	H	0.628773	0.399449	-0.594261
H344	H	0.572232	0.399463	-0.594273
C345	C	0.630445	0.339577	-0.349544
H346	H	0.649037	0.302379	-0.353455
H347	H	0.660009	0.336974	-0.328338
H348	H	0.603472	0.336980	-0.328347
C349	C	0.599187	0.402029	-0.253217
H350	H	0.617778	0.364826	-0.212122
H351	H	0.572211	0.399448	-0.271829
H352	H	0.628760	0.399418	-0.271814
H353	H	0.590275	0.419874	-0.162279
