data_functionalizedCrystal
_audit_creation_method	'MofGen! by Chris Wilmer'
_symmetry_space_group_name_H-M	'P1'
_symmetry_Int_Tables_number	1
_symmetry_cell_setting	triclinic
loop_
_symmetry_equiv_pos_as_xyz
  x,y,z
_cell_length_a	6.394989
_cell_length_b	11.026607
_cell_length_c	10.065875
_cell_angle_alpha	100.697662
_cell_angle_beta	80.951547
_cell_angle_gamma	97.541864
loop_
_atom_site_label
_atom_site_type_symbol
_atom_site_fract_x
_atom_site_fract_y
_atom_site_fract_z
O1	O	-0.855566	-1.641000	-0.113474
O2	O	-0.755391	-1.286163	-0.113478
O3	O	-0.503308	-1.468618	-0.113477
O4	O	-1.107649	-1.458545	-0.113475
O5	O	-0.551624	-1.433830	0.113511
O6	O	-0.803707	-1.251375	0.113510
O7	O	-0.903882	-1.606212	0.113514
Zn8	Zn	-0.861465	-1.423270	0.149552
Zn9	Zn	-0.797807	-1.469105	-0.149516
O10	O	-1.155965	-1.423757	0.113513
C11	C	-0.761068	-1.223275	0.000015
C12	C	-0.705977	-1.087719	0.000013
C13	C	-0.898204	-1.669100	0.000018
C14	C	-0.953293	-1.804658	0.000011
N15	N	-0.904912	-1.391998	0.353657
C16	C	-0.448894	-1.449233	0.000012
C17	C	-0.210370	-1.443147	0.000011
N18	N	-0.754347	-1.500386	-0.353621
C19	C	-0.858092	-1.016240	0.000013
C20	C	-0.801156	-0.876135	0.000011
C21	C	-0.812908	-1.458216	0.421436
C22	C	-0.846365	-1.434158	0.578603
H23	H	-0.628756	-0.833618	-0.000024
H24	H	-0.533588	-1.045197	-0.000022
C25	C	-1.064809	-1.276937	0.564599
C26	C	-0.986140	-1.333568	0.657321
H27	H	-1.151085	-1.214833	0.613200
H28	H	-1.147517	-1.337514	0.508862
H29	H	-0.949169	-1.240039	0.508867
H30	H	-1.101781	-1.370474	0.713047
H31	H	-0.903429	-1.272981	0.713082
H32	H	-1.125689	-0.847177	0.000020
C33	C	-0.466431	-1.530544	0.377071
C34	C	-0.673168	-1.558801	0.342674
H35	H	-0.380172	-1.592642	0.328430
H36	H	-0.470548	-1.527602	0.472344
H37	H	-0.408354	-1.452232	0.353744
H38	H	-0.731250	-1.637110	0.366010
H39	H	-0.669059	-1.561757	0.247380
H40	H	-1.030475	-1.058766	0.000021
C41	C	-0.407792	-1.572471	0.602471
C42	C	-0.614366	-1.600938	0.567829
H43	H	-0.321319	-1.634535	0.554020
H44	H	-0.412165	-1.569408	0.697784
H45	H	-0.349786	-1.494171	0.579080
H46	H	-0.672378	-1.679235	0.591230
H47	H	-0.610001	-1.604015	0.472495
H48	H	-1.008441	-1.317490	0.411983
