data_functionalizedCrystal
_audit_creation_method	'MofGen! by Chris Wilmer'
_symmetry_space_group_name_H-M	'P1'
_symmetry_Int_Tables_number	1
_symmetry_cell_setting	triclinic
loop_
_symmetry_equiv_pos_as_xyz
  x,y,z
_cell_length_a	11.026607
_cell_length_b	14.519709
_cell_length_c	9.482900
_cell_angle_alpha	99.350820
_cell_angle_beta	78.636152
_cell_angle_gamma	96.133081
loop_
_atom_site_label
_atom_site_type_symbol
_atom_site_fract_x
_atom_site_fract_y
_atom_site_fract_z
O1	O	1.629894	0.375017	-0.120915
O2	O	1.276492	0.331026	-0.120914
O3	O	1.462561	0.220328	-0.120901
O4	O	1.443825	0.485715	-0.120927
O5	O	1.424766	0.242929	0.120889
O6	O	1.238698	0.353627	0.120876
O7	O	1.592099	0.397617	0.120875
Cu8	Cu	1.411948	0.377686	0.142953
Cu9	Cu	1.456644	0.350958	-0.142992
O10	O	1.406031	0.508316	0.120862
C11	C	1.212367	0.334211	-0.000019
C12	C	1.077600	0.310019	-0.000019
C13	C	1.003940	0.376817	-0.000026
C14	C	0.864652	0.351815	-0.000026
C15	C	1.442790	0.197125	-0.000006
C16	C	1.440173	0.094312	-0.000005
C17	C	1.430544	-0.282175	-0.000043
C18	C	1.433218	-0.177425	-0.000032
C19	C	1.435358	-0.093934	-0.000023
C20	C	1.438033	0.010822	-0.000015
C21	C	1.656226	0.394432	-0.000023
C22	C	1.790994	0.418624	-0.000033
C23	C	1.425802	0.531518	-0.000036
C24	C	1.428421	0.634330	-0.000046
N25	N	1.380519	0.396486	0.344071
N26	N	1.488082	0.332152	-0.344110
C27	C	1.447366	0.356497	0.416275
C28	C	1.421226	0.372147	0.583690
H29	H	1.037549	0.234316	-0.000048
H30	H	0.831042	0.494329	-0.000031
H31	H	1.523943	0.310669	0.354152
H32	H	0.824606	0.276108	-0.000055
O33	O	1.329781	0.426697	0.657948
C34	C	1.240886	0.373148	0.745986
H35	H	1.285312	0.310988	0.768631
H36	H	1.160203	0.346687	0.687436
C37	C	1.138197	0.510711	0.862844
C38	C	1.192765	0.434370	0.890667
H39	H	1.108508	0.548475	0.952087
H40	H	1.198083	0.546788	0.803527
H41	H	1.070968	0.488648	0.814048
H42	H	1.260001	0.456433	0.939445
H43	H	1.132888	0.398298	0.949995
O44	O	1.579173	0.277229	0.581786
C45	C	1.527246	0.201414	0.494005
H46	H	1.436092	0.220605	0.471225
H47	H	1.509197	0.137415	0.552848
C48	C	1.730000	0.155554	0.377382
C49	C	1.618047	0.179129	0.349393
H50	H	1.786011	0.141804	0.288180
H51	H	1.764984	0.206630	0.436525
H52	H	1.714942	0.102225	0.426421
H53	H	1.633104	0.232464	0.300371
H54	H	1.583067	0.128061	0.290238
O55	O	1.051615	0.467166	0.000223
C56	C	0.992463	0.523033	0.125423
H57	H	0.952243	0.477215	0.212954
H58	H	0.914556	0.558183	0.097104
C59	C	1.136821	0.654744	0.074695
C60	C	1.087430	0.598470	0.182206
H61	H	1.195398	0.701280	0.109718
H62	H	1.176670	0.617107	-0.009658
H63	H	1.071887	0.684026	0.051105
H64	H	1.152361	0.569180	0.205780
H65	H	1.047594	0.636104	0.266564
O66	O	1.289079	0.451033	0.418334
C67	C	1.200185	0.397483	0.506372
H68	H	1.244611	0.335324	0.529017
H69	H	1.119502	0.371022	0.447822
C70	C	1.097496	0.535047	0.623230
C71	C	1.152063	0.458706	0.651053
H72	H	1.067807	0.572811	0.712473
H73	H	1.157382	0.571124	0.563913
H74	H	1.030267	0.512984	0.574434
H75	H	1.219300	0.480769	0.699831
H76	H	1.092187	0.422633	0.710381
