data_functionalizedCrystal
_audit_creation_method	'MofGen! by Chris Wilmer'
_symmetry_space_group_name_H-M	'P1'
_symmetry_Int_Tables_number	1
_symmetry_cell_setting	triclinic
loop_
_symmetry_equiv_pos_as_xyz
  x,y,z
_cell_length_a	11.026607
_cell_length_b	6.394989
_cell_length_c	9.482900
_cell_angle_alpha	80.390180
_cell_angle_beta	78.636152
_cell_angle_gamma	82.458136
loop_
_atom_site_label
_atom_site_type_symbol
_atom_site_fract_x
_atom_site_fract_y
_atom_site_fract_z
O1	O	1.642135	-0.853991	-0.120875
O2	O	1.287297	-0.753816	-0.120879
O3	O	1.469753	-0.501733	-0.120878
O4	O	1.459679	-1.106074	-0.120876
O5	O	1.432696	-0.553199	0.120914
O6	O	1.250240	-0.805282	0.120913
O7	O	1.605078	-0.905458	0.120917
Cu8	Cu	1.424275	-0.860069	0.142993
Cu9	Cu	1.468099	-0.799204	-0.142955
O10	O	1.422622	-1.157541	0.120916
C11	C	1.223275	-0.761068	0.000016
C12	C	1.087719	-0.705977	0.000014
C13	C	1.016240	-0.858092	0.000014
C14	C	0.876135	-0.801156	0.000012
C15	C	1.669100	-0.898204	0.000019
C16	C	1.804658	-0.953293	0.000011
C17	C	1.449233	-0.448894	0.000013
C18	C	1.443147	-0.210371	0.000011
N19	N	1.393461	-0.902881	0.344113
N20	N	1.498923	-0.756380	-0.344074
C21	C	1.459002	-0.811817	0.416312
C22	C	1.433373	-0.847457	0.583730
H23	H	1.534084	-0.707459	0.354185
O24	O	1.588270	-0.631554	0.581601
C25	C	1.694861	-0.481382	0.346972
C26	C	1.593815	-0.623138	0.430961
H27	H	1.699360	-0.474495	0.225164
H28	H	1.788762	-0.550895	0.376466
H29	H	1.671206	-0.313669	0.377122
H30	H	1.617353	-0.790881	0.400855
H31	H	1.499944	-0.553451	0.401459
H32	H	1.045197	-0.533588	-0.000024
O33	O	1.343625	-0.971665	0.657768
C34	C	1.126302	-1.025794	0.704607
C35	C	1.227809	-0.884921	0.620693
H36	H	1.032645	-0.955741	0.674640
H37	H	1.121482	-1.032319	0.826442
H38	H	1.149656	-1.193721	0.674784
H39	H	1.204528	-0.716927	0.650394
H40	H	1.232607	-0.878576	0.498878
H41	H	1.318370	-1.007219	0.406242
H42	H	1.058766	-1.030475	0.000023
O43	O	0.825228	-0.595582	-0.000056
C44	C	0.639147	-0.351440	0.000028
C45	C	0.696643	-0.584323	0.000072
H46	H	0.535173	-0.342268	0.000162
H47	H	0.685275	-0.248248	-0.101187
H48	H	0.654423	-0.291414	0.101192
H49	H	0.681384	-0.644544	-0.101024
H50	H	0.650509	-0.687372	0.101354
H51	H	0.847177	-1.125689	0.000021
