data_functionalizedCrystal
_audit_creation_method	'MofGen! by Chris Wilmer'
_symmetry_space_group_name_H-M	'P1'
_symmetry_Int_Tables_number	1
_symmetry_cell_setting	triclinic
loop_
_symmetry_equiv_pos_as_xyz
  x,y,z
_cell_length_a	27.731996
_cell_length_b	16.098538
_cell_length_c	17.038272
_cell_angle_alpha	87.069734
_cell_angle_beta	86.866472
_cell_angle_gamma	92.693548
loop_
_atom_site_label
_atom_site_type_symbol
_atom_site_fract_x
_atom_site_fract_y
_atom_site_fract_z
O1	O	0.102901	-0.069170	1.039633
O2	O	0.352901	0.180830	1.289633
O3	O	0.602901	0.430830	1.539633
O4	O	0.852901	0.680830	1.789633
O5	O	0.101234	-0.069195	0.812024
O6	O	0.351234	0.180805	1.062024
O7	O	0.601234	0.430805	1.312024
O8	O	0.851234	0.680805	1.562024
O9	O	0.031994	-0.069164	0.932918
O10	O	0.281994	0.180836	1.182918
O11	O	0.531994	0.430836	1.432918
O12	O	0.781994	0.680836	1.682918
O13	O	0.172141	-0.069201	0.918739
O14	O	0.422141	0.180799	1.168739
O15	O	0.672141	0.430799	1.418739
O16	O	0.922141	0.680799	1.668739
O17	O	0.036021	0.069347	0.925856
O18	O	0.286021	0.319347	1.175856
O19	O	0.536021	0.569347	1.425856
O20	O	0.786021	0.819347	1.675856
O21	O	0.105262	0.069316	0.804962
O22	O	0.355262	0.319316	1.054962
O23	O	0.605262	0.569316	1.304962
O24	O	0.855262	0.819316	1.554962
O25	O	0.106928	0.069341	1.032572
O26	O	0.356928	0.319341	1.282572
O27	O	0.606928	0.569341	1.532572
O28	O	0.856928	0.819341	1.782572
Zn29	Zn	0.106734	0.091320	0.917646
Zn30	Zn	0.356734	0.341320	1.167646
Zn31	Zn	0.606734	0.591320	1.417646
Zn32	Zn	0.856734	0.841320	1.667646
Zn33	Zn	0.101428	-0.091174	0.926950
Zn34	Zn	0.351428	0.158826	1.176950
Zn35	Zn	0.601428	0.408826	1.426950
Zn36	Zn	0.851428	0.658826	1.676950
O37	O	0.176169	0.069310	0.911677
O38	O	0.426169	0.319310	1.161677
O39	O	0.676169	0.569310	1.411677
O40	O	0.926169	0.819310	1.661677
C41	C	0.101733	0.000058	0.779383
C42	C	0.351733	0.250058	1.029383
C43	C	0.601733	0.500058	1.279383
C44	C	0.851733	0.750058	1.529383
C45	C	0.097212	0.000050	0.692645
C46	C	0.347212	0.250050	0.942645
C47	C	0.597212	0.500050	1.192645
C48	C	0.847212	0.750050	1.442645
C49	C	0.015987	0.000095	0.929096
C50	C	0.265987	0.250095	1.179096
C51	C	0.515987	0.500095	1.429096
C52	C	0.765987	0.750095	1.679096
C53	C	-0.037709	0.000103	0.928218
C54	C	0.212291	0.250103	1.178218
C55	C	0.462291	0.500103	1.428218
C56	C	0.712291	0.750103	1.678218
N57	N	0.110356	0.215868	0.911301
N58	N	0.360356	0.465868	1.161301
N59	N	0.610356	0.715868	1.411301
N60	N	0.860356	0.965868	1.661301
C61	C	-0.372875	-0.075441	0.926549
C62	C	-0.122875	0.174559	1.176549
C63	C	0.127125	0.424559	1.426549
C64	C	0.377125	0.674559	1.676549
C65	C	-0.574686	-0.075456	0.923218
C66	C	-0.324686	0.174544	1.173218
C67	C	-0.074686	0.424544	1.423218
C68	C	0.175314	0.674544	1.673218
O69	O	-0.602645	-0.139668	0.926027
O70	O	-0.352645	0.110332	1.176027
O71	O	-0.102645	0.360332	1.426027
O72	O	0.147355	0.610332	1.676027
N73	N	-0.597726	0.000046	0.918955
N74	N	-0.347726	0.250046	1.168955
N75	N	-0.097726	0.500046	1.418955
N76	N	0.152274	0.750046	1.668955
C77	C	-0.570311	0.075557	0.915519
C78	C	-0.320311	0.325557	1.165519
C79	C	-0.070311	0.575557	1.415519
C80	C	0.179689	0.825557	1.665519
O81	O	-0.594539	0.139775	0.911808
O82	O	-0.344539	0.389775	1.161808
O83	O	-0.094539	0.639775	1.411808
O84	O	0.155461	0.889775	1.661808
C85	C	-0.368500	0.075571	0.918844
C86	C	-0.118500	0.325571	1.168844
C87	C	0.131500	0.575571	1.418844
C88	C	0.381500	0.825571	1.668844
C89	C	-0.345463	0.000064	0.923116
C90	C	-0.095463	0.250064	1.173116
C91	C	0.154537	0.500064	1.423116
C92	C	0.404537	0.750064	1.673116
C93	C	-0.349837	-0.150941	0.930819
C94	C	-0.099837	0.099059	1.180819
C95	C	0.150163	0.349059	1.430819
C96	C	0.400163	0.599059	1.680819
C97	C	-0.299387	-0.150937	0.931656
C98	C	-0.049387	0.099063	1.181656
C99	C	0.200613	0.349063	1.431656
C100	C	0.450613	0.599063	1.681656
C101	C	-0.271976	-0.075432	0.928223
C102	C	-0.021976	0.174568	1.178223
C103	C	0.228024	0.424568	1.428223
C104	C	0.478024	0.674568	1.678223
C105	C	-0.295013	0.000069	0.923953
C106	C	-0.045013	0.250069	1.173953
C107	C	0.204987	0.500069	1.423953
C108	C	0.454987	0.750069	1.673953
C109	C	-0.341086	0.151081	0.915403
C110	C	-0.091086	0.401081	1.165403
C111	C	0.158914	0.651081	1.415403
C112	C	0.408914	0.901081	1.665403
C113	C	-0.290630	0.151078	0.916233
C114	C	-0.040630	0.401078	1.166233
C115	C	0.209370	0.651078	1.416233
C116	C	0.459370	0.901078	1.666233
C117	C	-0.267592	0.075571	0.920504
C118	C	-0.017592	0.325571	1.170504
C119	C	0.232408	0.575571	1.420504
C120	C	0.482408	0.825571	1.670504
C121	C	-0.217152	0.075578	0.921357
C122	C	0.032848	0.325578	1.171357
C123	C	0.282848	0.575578	1.421357
C124	C	0.532848	0.825578	1.671357
N125	N	-0.194111	0.000077	0.925620
N126	N	0.055889	0.250077	1.175620
N127	N	0.305889	0.500077	1.425620
N128	N	0.555889	0.750077	1.675620
C129	C	-0.221523	-0.075428	0.929053
C130	C	0.028477	0.174572	1.179053
C131	C	0.278477	0.424572	1.429053
C132	C	0.528477	0.674572	1.679053
C133	C	-0.676264	0.075544	0.913775
C134	C	-0.426264	0.325544	1.163775
C135	C	-0.176264	0.575544	1.413775
C136	C	0.073736	0.825544	1.663775
C137	C	-0.726717	0.075541	0.912945
C138	C	-0.476717	0.325541	1.162945
C139	C	-0.226717	0.575541	1.412945
C140	C	0.023283	0.825541	1.662945
C141	C	-0.731088	-0.075472	0.920642
C142	C	-0.481088	0.174528	1.170642
C143	C	-0.231088	0.424528	1.420642
C144	C	0.018912	0.674528	1.670642
C145	C	-0.680635	-0.075468	0.921478
C146	C	-0.430635	0.174532	1.171478
C147	C	-0.180635	0.424532	1.421478
C148	C	0.069365	0.674532	1.671478
C149	C	-0.653224	0.000042	0.918038
C150	C	-0.403224	0.250042	1.168038
C151	C	-0.153224	0.500042	1.418038
C152	C	0.096776	0.750042	1.668038
C153	C	-0.115575	-0.075413	0.930811
C154	C	0.134425	0.174587	1.180811
C155	C	0.384425	0.424587	1.430811
C156	C	0.634425	0.674587	1.680811
C157	C	-0.065121	-0.075402	0.931651
C158	C	0.184879	0.174598	1.181651
C159	C	0.434879	0.424598	1.431651
C160	C	0.684879	0.674598	1.681651
C161	C	-0.060754	0.075610	0.923949
C162	C	0.189246	0.325610	1.173949
C163	C	0.439246	0.575610	1.423949
C164	C	0.689246	0.825610	1.673949
C165	C	-0.111204	0.075600	0.923113
C166	C	0.138796	0.325600	1.173113
C167	C	0.388796	0.575600	1.423113
C168	C	0.638796	0.825600	1.673113
C169	C	-0.138613	0.000081	0.926542
C170	C	0.111387	0.250081	1.176542
C171	C	0.361387	0.500081	1.426542
C172	C	0.611387	0.750081	1.676542
O173	O	-0.189162	0.139757	0.918541
O174	O	0.060838	0.389757	1.168541
O175	O	0.310838	0.639757	1.418541
O176	O	0.560838	0.889757	1.668541
O177	O	-0.197286	-0.139637	0.932746
O178	O	0.052714	0.110363	1.182746
O179	O	0.302714	0.360363	1.432746
O180	O	0.552714	0.610363	1.682746
C181	C	-0.423324	-0.075445	0.925712
C182	C	-0.173324	0.174555	1.175712
C183	C	0.076676	0.424555	1.425712
C184	C	0.326676	0.674555	1.675712
C185	C	-0.446362	0.000055	0.921442
C186	C	-0.196362	0.250055	1.171442
C187	C	0.053638	0.500055	1.421442
C188	C	0.303638	0.750055	1.671442
C189	C	-0.418950	0.075560	0.918009
C190	C	-0.168950	0.325560	1.168009
C191	C	0.081050	0.575560	1.418009
C192	C	0.331050	0.825560	1.668009
C193	C	-0.496815	0.000052	0.920612
C194	C	-0.246815	0.250052	1.170612
C195	C	0.003185	0.500052	1.420612
C196	C	0.253185	0.750052	1.670612
C197	C	-0.524226	-0.075453	0.924045
C198	C	-0.274226	0.174547	1.174045
C199	C	-0.024226	0.424547	1.424045
C200	C	0.225774	0.674547	1.674045
C201	C	-0.501186	-0.150955	0.928308
C202	C	-0.251186	0.099045	1.178308
C203	C	-0.001186	0.349045	1.428308
C204	C	0.248814	0.599045	1.678308
C205	C	-0.450736	-0.150950	0.929145
C206	C	-0.200736	0.099050	1.179145
C207	C	0.049264	0.349050	1.429145
C208	C	0.299264	0.599050	1.679145
C209	C	-0.441991	0.151062	0.913745
C210	C	-0.191991	0.401062	1.163745
C211	C	0.058009	0.651062	1.413745
C212	C	0.308009	0.901062	1.663745
C213	C	-0.492441	0.151051	0.912910
C214	C	-0.242441	0.401051	1.162910
C215	C	0.007559	0.651051	1.412910
C216	C	0.257559	0.901051	1.662910
C217	C	-0.519853	0.075546	0.916343
C218	C	-0.269853	0.325546	1.166343
C219	C	-0.019853	0.575546	1.416343
C220	C	0.230147	0.825546	1.666343
C221	C	0.192175	0.000050	0.915500
C222	C	0.442175	0.250050	1.165500
C223	C	0.692175	0.500050	1.415500
C224	C	0.942175	0.750050	1.665500
C225	C	0.245871	0.000036	0.916378
C226	C	0.495871	0.250036	1.166378
C227	C	0.745871	0.500036	1.416378
C228	C	0.995871	0.750036	1.666378
N229	N	0.097803	-0.215722	0.933300
N230	N	0.347803	0.034278	1.183300
N231	N	0.597803	0.284278	1.433300
N232	N	0.847803	0.534278	1.683300
C233	C	0.080980	0.259466	0.962632
C234	C	0.330980	0.509466	1.212632
C235	C	0.580980	0.759466	1.462632
C236	C	0.830980	1.009466	1.712632
C237	C	0.083518	0.346654	0.958201
C238	C	0.333518	0.596654	1.208201
C239	C	0.583518	0.846654	1.458201
C240	C	0.833518	1.096654	1.708201
C241	C	0.115436	0.390242	0.902443
C242	C	0.365436	0.640242	1.152443
C243	C	0.615436	0.890242	1.402443
C244	C	0.865436	1.140242	1.652443
C245	C	0.144813	0.346638	0.851107
C246	C	0.394813	0.596638	1.101107
C247	C	0.644813	0.846638	1.351107
C248	C	0.894813	1.096638	1.601107
C249	C	0.142272	0.259451	0.855534
C250	C	0.392272	0.509451	1.105534
C251	C	0.642272	0.759451	1.355534
C252	C	0.892272	1.009451	1.605534
C253	C	0.124639	0.653488	0.886392
C254	C	0.374639	0.903488	1.136392
C255	C	0.624639	1.153488	1.386392
C256	C	0.874639	1.403488	1.636392
C257	C	0.127179	0.740680	0.881970
C258	C	0.377179	0.990680	1.131970
C259	C	0.627179	1.240680	1.381970
C260	C	0.877179	1.490680	1.631970
C261	C	0.065883	0.740690	0.989064
C262	C	0.315883	0.990690	1.239064
C263	C	0.565883	1.240690	1.489064
C264	C	0.815883	1.490690	1.739064
C265	C	0.063347	0.653502	0.993490
C266	C	0.313347	0.903502	1.243490
C267	C	0.563347	1.153502	1.493490
C268	C	0.813347	1.403502	1.743490
C269	C	0.092722	0.609906	0.942151
C270	C	0.342722	0.859906	1.192151
C271	C	0.592722	1.109906	1.442151
C272	C	0.842722	1.359906	1.692151
C273	C	0.118032	0.479362	0.897914
C274	C	0.368032	0.729362	1.147914
C275	C	0.618032	0.979362	1.397914
C276	C	0.868032	1.229362	1.647914
C277	C	0.090123	0.520787	0.946676
C278	C	0.340123	0.770787	1.196676
C279	C	0.590123	1.020787	1.446676
C280	C	0.840123	1.270787	1.696676
C281	C	0.138715	0.000039	0.642035
C282	C	0.388715	0.250039	0.892035
C283	C	0.638715	0.500039	1.142035
C284	C	0.888715	0.750039	1.392035
C285	C	0.134465	0.000052	0.560534
C286	C	0.384465	0.250052	0.810534
C287	C	0.634465	0.500052	1.060534
C288	C	0.884465	0.750052	1.310534
C289	C	0.088711	0.000069	0.529646
C290	C	0.338711	0.250069	0.779646
C291	C	0.588711	0.500069	1.029646
C292	C	0.838711	0.750069	1.279646
C293	C	0.047205	0.000082	0.580262
C294	C	0.297205	0.250082	0.830262
C295	C	0.547205	0.500082	1.080262
C296	C	0.797205	0.750082	1.330262
C297	C	0.051456	0.000075	0.661761
C298	C	0.301456	0.250075	0.911761
C299	C	0.551456	0.500075	1.161761
C300	C	0.801456	0.750075	1.411761
C301	C	0.073695	0.000095	0.284066
C302	C	0.323695	0.250095	0.534066
C303	C	0.573695	0.500095	0.784066
C304	C	0.823695	0.750095	1.034066
C305	C	0.069447	0.000099	0.202561
C306	C	0.319447	0.250099	0.452561
C307	C	0.569447	0.500099	0.702561
C308	C	0.819447	0.750099	0.952561
C309	C	0.156707	0.000071	0.182839
C310	C	0.406707	0.250071	0.432839
C311	C	0.656707	0.500071	0.682839
C312	C	0.906707	0.750071	0.932839
C313	C	0.160954	0.000059	0.264340
C314	C	0.410954	0.250059	0.514340
C315	C	0.660954	0.500059	0.764340
C316	C	0.910954	0.750059	1.014340
C317	C	0.119448	0.000077	0.314949
C318	C	0.369448	0.250077	0.564949
C319	C	0.619448	0.500077	0.814949
C320	C	0.869448	0.750077	1.064949
C321	C	0.084366	0.000079	0.446340
C322	C	0.334366	0.250079	0.696340
C323	C	0.584366	0.500079	0.946340
C324	C	0.834366	0.750079	1.196340
C325	C	0.123794	0.000072	0.398253
C326	C	0.373794	0.250072	0.648253
C327	C	0.623794	0.500072	0.898253
C328	C	0.873794	0.750072	1.148253
C329	C	0.106430	0.000086	1.065213
C330	C	0.356430	0.250086	1.315213
C331	C	0.606430	0.500086	1.565213
C332	C	0.856430	0.750086	1.815213
C333	C	0.110950	0.000089	1.151951
C334	C	0.360950	0.250089	1.401951
C335	C	0.610950	0.500089	1.651951
C336	C	0.860950	0.750089	1.901951
H337	H	-0.046367	-0.136891	0.935131
H338	H	0.203633	0.113109	1.185131
H339	H	0.453633	0.363109	1.435131
H340	H	0.703633	0.613109	1.685131
Cl341	Cl	-0.256173	0.246011	0.911909
Cl342	Cl	-0.006173	0.496011	1.161909
Cl343	Cl	0.243827	0.746011	1.411909
Cl344	Cl	0.493827	0.996011	1.661909
H345	H	0.064134	0.485295	0.992072
H346	H	0.314134	0.735295	1.242072
H347	H	0.564134	0.985295	1.492072
H348	H	0.814134	1.235295	1.742072
Cl349	Cl	0.208883	0.000052	0.119212
Cl350	Cl	0.458883	0.250052	0.369212
Cl351	Cl	0.708883	0.500052	0.619212
Cl352	Cl	0.958883	0.750052	0.869212
H353	H	-0.661882	-0.136952	0.924955
H354	H	-0.411882	0.113048	1.174955
H355	H	-0.161882	0.363048	1.424955
H356	H	0.088118	0.613048	1.674955
H357	H	0.032187	0.000113	0.177416
H358	H	0.282187	0.250113	0.427416
H359	H	0.532187	0.500113	0.677416
H360	H	0.782187	0.750113	0.927416
Cl361	Cl	-0.421782	-0.245878	0.934514
Cl362	Cl	-0.171782	0.004122	1.184514
Cl363	Cl	0.078218	0.254122	1.434514
Cl364	Cl	0.328218	0.504122	1.684514
H365	H	-0.753416	-0.136951	0.923439
H366	H	-0.503416	0.113049	1.173439
H367	H	-0.253416	0.363049	1.423439
H368	H	-0.003416	0.613049	1.673439
H369	H	0.054991	0.223982	1.008040
H370	H	0.304991	0.473982	1.258040
H371	H	0.554991	0.723982	1.508040
H372	H	0.804991	0.973982	1.758040
Cl373	Cl	-0.370034	0.246010	0.910028
Cl374	Cl	-0.120034	0.496010	1.160028
Cl375	Cl	0.129966	0.746010	1.410028
Cl376	Cl	0.379966	0.996010	1.660028
H377	H	-0.038426	0.137084	0.921158
H378	H	0.211574	0.387084	1.171158
H379	H	0.461574	0.637084	1.421158
H380	H	0.711574	0.887084	1.671158
H381	H	0.153172	0.776166	0.836562
H382	H	0.403172	1.026166	1.086562
H383	H	0.653172	1.276166	1.336562
H384	H	0.903172	1.526166	1.586562
Cl385	Cl	-0.641811	0.170481	0.909446
Cl386	Cl	-0.391811	0.420481	1.159446
Cl387	Cl	-0.141811	0.670481	1.409446
Cl388	Cl	0.108189	0.920481	1.659446
Cl389	Cl	-0.535656	-0.245874	0.932628
Cl390	Cl	-0.285656	0.004126	1.182628
Cl391	Cl	-0.035656	0.254126	1.432628
Cl392	Cl	0.214344	0.504126	1.682628
Cl393	Cl	0.161570	0.598686	0.821856
Cl394	Cl	0.411570	0.848686	1.071856
Cl395	Cl	0.661570	1.098686	1.321856
Cl396	Cl	0.911570	1.348686	1.571856
H397	H	0.161046	0.000063	0.423406
H398	H	0.411046	0.250063	0.673406
H399	H	0.661046	0.500063	0.923406
H400	H	0.911046	0.750063	1.173406
H401	H	0.198211	0.000036	0.289483
H402	H	0.448211	0.250036	0.539483
H403	H	0.698211	0.500036	0.789483
H404	H	0.948211	0.750036	1.039483
H405	H	0.175972	0.000025	0.667177
H406	H	0.425972	0.250025	0.917177
H407	H	0.675972	0.500025	1.167177
H408	H	0.925972	0.750025	1.417177
Cl409	Cl	-0.384289	-0.245875	0.935137
Cl410	Cl	-0.134289	0.004125	1.185137
Cl411	Cl	0.115711	0.254125	1.435137
Cl412	Cl	0.365711	0.504125	1.685137
Cl413	Cl	-0.755673	0.170467	0.907590
Cl414	Cl	-0.505673	0.420467	1.157590
Cl415	Cl	-0.255673	0.670467	1.407590
Cl416	Cl	-0.005673	0.920467	1.657590
Cl417	Cl	0.026849	0.000097	0.407502
Cl418	Cl	0.276849	0.250097	0.657502
Cl419	Cl	0.526849	0.500097	0.907502
Cl420	Cl	0.776849	0.750097	1.157502
Cl421	Cl	0.158158	0.534162	0.827820
Cl422	Cl	0.408158	0.784162	1.077820
Cl423	Cl	0.658158	1.034162	1.327820
Cl424	Cl	0.908158	1.284162	1.577820
Cl425	Cl	0.186643	0.000034	0.496913
Cl426	Cl	0.436643	0.250034	0.746913
Cl427	Cl	0.686643	0.500034	0.996913
Cl428	Cl	0.936643	0.750034	1.246913
Cl429	Cl	-0.000722	0.000092	0.725385
Cl430	Cl	0.249278	0.250092	0.975385
Cl431	Cl	0.499278	0.500092	1.225385
Cl432	Cl	0.749278	0.750092	1.475385
Cl433	Cl	0.021515	0.000116	0.347678
Cl434	Cl	0.271515	0.250116	0.597678
Cl435	Cl	0.521515	0.500116	0.847678
Cl436	Cl	0.771515	0.750116	1.097678
H437	H	-0.137886	-0.136908	0.933599
H438	H	0.112114	0.113092	1.183599
H439	H	0.362114	0.363092	1.433599
H440	H	0.612114	0.613092	1.683599
H441	H	-0.280635	-0.212422	0.935131
H442	H	-0.030635	0.037578	1.185131
H443	H	0.219365	0.287578	1.435131
H444	H	0.469365	0.537578	1.685131
Cl445	Cl	-0.010314	0.000109	0.541431
Cl446	Cl	0.239686	0.250109	0.791431
Cl447	Cl	0.489686	0.500109	1.041431
Cl448	Cl	0.739686	0.750109	1.291431
Cl449	Cl	0.179203	0.204643	0.790998
Cl450	Cl	0.429203	0.454643	1.040998
Cl451	Cl	0.679203	0.704643	1.290998
Cl452	Cl	0.929203	0.954643	1.540998
Cl453	Cl	-0.140167	0.170523	0.917759
Cl454	Cl	0.109833	0.420523	1.167759
Cl455	Cl	0.359833	0.670523	1.417759
Cl456	Cl	0.609833	0.920523	1.667759
H457	H	-0.511193	0.212542	0.909437
H458	H	-0.261193	0.462542	1.159437
H459	H	-0.011193	0.712542	1.409437
H460	H	0.238807	0.962542	1.659437
H461	H	-0.419677	0.212548	0.910951
H462	H	-0.169677	0.462548	1.160951
H463	H	0.080323	0.712548	1.410951
H464	H	0.330323	0.962548	1.660951
H465	H	0.059597	0.382151	0.999998
H466	H	0.309597	0.632151	1.249998
H467	H	0.559597	0.882151	1.499998
H468	H	0.809597	1.132151	1.749998
Cl469	Cl	0.028954	0.795501	1.053598
Cl470	Cl	0.278954	1.045501	1.303598
Cl471	Cl	0.528954	1.295501	1.553598
Cl472	Cl	0.778954	1.545501	1.803598
Cl473	Cl	0.023222	0.598706	1.063588
Cl474	Cl	0.273222	0.848706	1.313588
Cl475	Cl	0.523222	1.098706	1.563588
Cl476	Cl	0.773222	1.348706	1.813588
H477	H	0.170799	0.382132	0.805703
H478	H	0.420799	0.632132	1.055703
H479	H	0.670799	0.882132	1.305703
H480	H	0.920799	1.132132	1.555703
