data_functionalizedCrystal
_audit_creation_method	'MofGen! by Chris Wilmer'
_symmetry_space_group_name_H-M	'P1'
_symmetry_Int_Tables_number	1
_symmetry_cell_setting	triclinic
loop_
_symmetry_equiv_pos_as_xyz
  x,y,z
_cell_length_a	8.497374
_cell_length_b	8.497374
_cell_length_c	16.959455
_cell_angle_alpha	90.002432
_cell_angle_beta	90.001960
_cell_angle_gamma	90.005237
loop_
_atom_site_label
_atom_site_type_symbol
_atom_site_fract_x
_atom_site_fract_y
_atom_site_fract_z
Zn1	Zn	0.628458	0.892136	1.208395
Zn2	Zn	0.892204	0.628402	1.208389
Zn3	Zn	0.628417	0.628360	1.076251
Zn4	Zn	0.892176	0.892130	1.076232
O5	O	0.760314	0.760257	1.142317
O6	O	0.663473	0.857171	1.319005
O7	O	0.857207	0.407634	1.190866
O8	O	0.407660	0.663336	1.093791
O9	O	0.857246	0.663407	1.319001
O10	O	0.407690	0.857131	1.190877
O11	O	0.663404	0.407603	1.093785
O12	O	0.663377	0.663330	0.965638
O13	O	0.857198	1.112893	1.093759
O14	O	0.857159	0.857120	0.965624
O15	O	0.663446	1.112898	1.190858
O16	O	1.112962	0.663401	1.190848
O17	O	1.112942	0.857161	1.093753
C18	C	0.760262	0.760221	0.936951
C19	C	0.760277	0.760243	0.849094
C20	C	1.170194	0.760280	1.142307
C21	C	1.348838	0.760254	1.142328
C22	C	0.760316	1.171737	1.142311
C23	C	0.760333	1.350381	1.142313
C24	C	0.659329	0.659561	0.477601
C25	C	0.861429	0.861043	0.477636
C26	C	0.861406	0.861034	0.560182
C27	C	0.760345	0.760284	0.601441
C28	C	0.659306	0.659545	0.560155
C29	C	0.962454	0.961760	0.601474
C30	C	0.962437	0.961753	0.684025
C31	C	0.861366	0.861011	0.725286
C32	C	0.760322	0.760268	0.683995
C33	C	0.659261	0.659519	0.725254
C34	C	0.558208	0.558783	0.683964
C35	C	0.558236	0.558802	0.601416
C36	C	0.861339	0.860992	0.807834
C37	C	0.659239	0.659503	0.807808
C38	C	0.760367	0.760294	1.348485
C39	C	0.760390	0.760310	1.436342
H40	H	0.576932	0.577469	0.841396
H41	H	0.475931	0.476747	0.717569
C42	C	0.468526	0.469381	0.474861
C43	C	0.447159	0.448089	0.556029
H44	H	0.399955	0.401027	0.446840
H45	H	0.445622	0.575407	0.461346
H46	H	0.574492	0.446121	0.461348
H47	H	0.341196	0.471361	0.569543
H48	H	0.470052	0.342039	0.569549
H49	H	0.943717	0.943059	0.444037
H50	H	0.577050	0.577549	0.443979
C51	C	1.052201	1.051246	0.474947
C52	C	1.073535	1.072498	0.556122
H53	H	1.120775	1.119623	0.446948
H54	H	1.075124	0.945230	0.461417
H55	H	0.946238	1.074500	0.461424
H56	H	1.179496	1.049232	0.569645
H57	H	1.050623	1.178538	0.569657
H58	H	1.044719	1.043779	0.717636
C59	C	1.061111	1.060143	0.799573
C60	C	0.972399	0.971714	0.853220
H61	H	1.129669	1.128510	0.827593
H62	H	1.121355	0.991321	0.767381
H63	H	0.992469	1.120591	0.767369
H64	H	1.041042	0.911257	0.885420
H65	H	0.912151	1.040545	0.885425
