data_functionalizedCrystal
_audit_creation_method	'MofGen! by Chris Wilmer'
_symmetry_space_group_name_H-M	'P1'
_symmetry_Int_Tables_number	1
_symmetry_cell_setting	triclinic
loop_
_symmetry_equiv_pos_as_xyz
  x,y,z
_cell_length_a	19.188933
_cell_length_b	19.188930
_cell_length_c	10.868271
_cell_angle_alpha	89.989749
_cell_angle_beta	89.997098
_cell_angle_gamma	83.145175
loop_
_atom_site_label
_atom_site_type_symbol
_atom_site_fract_x
_atom_site_fract_y
_atom_site_fract_z
O1	O	0.926144	0.087174	-0.102295
O2	O	0.722833	0.098907	-0.102308
O3	O	0.830355	-0.008615	-0.102277
O4	O	0.818621	0.194696	-0.102326
O5	O	0.830346	-0.008619	0.102367
O6	O	0.722824	0.098903	0.102336
O7	O	0.926135	0.087170	0.102350
Zn8	Zn	0.824478	0.093036	0.134835
Zn9	Zn	0.824490	0.093042	-0.134793
O10	O	0.818612	0.194692	0.102319
C11	C	0.696817	0.098525	0.000013
C12	C	0.619313	0.097384	0.000009
C13	C	0.066062	0.089241	-0.111528
C14	C	0.138886	0.090309	-0.111533
C15	C	0.175299	0.090844	0.000018
C16	C	0.138883	0.090293	0.111583
C17	C	0.066061	0.089218	0.111585
N18	N	0.284315	0.132261	0.083041
N19	N	0.353493	0.133284	0.083032
C20	C	0.394707	0.094082	0.000020
N21	N	0.364130	0.053827	-0.083002
N22	N	0.294945	0.052808	-0.082996
C23	C	0.254262	0.092009	0.000029
C24	C	0.510079	0.095786	-0.111543
C25	C	0.582905	0.096850	-0.111544
C26	C	0.582900	0.096841	0.111575
C27	C	0.510076	0.095770	0.111572
C28	C	0.473669	0.095246	0.000010
C29	C	0.829971	-0.034628	0.000049
C30	C	0.828830	-0.112132	0.000059
C31	C	0.891921	-0.157056	0.000069
C32	C	0.890849	-0.229880	0.000049
C33	C	0.826683	-0.257777	0.000044
C34	C	0.763584	-0.212843	0.000027
C35	C	0.764658	-0.140021	0.000035
N36	N	0.777633	-0.365783	0.069686
N37	N	0.776618	-0.434962	0.069681
C38	C	0.823445	-0.477185	0.000019
N39	N	0.871337	-0.447618	-0.069623
N40	N	0.872355	-0.378433	-0.069613
C41	C	0.825512	-0.336739	0.000035
C42	C	0.885378	-0.601073	0.000006
C43	C	0.884304	-0.673898	-0.000021
C44	C	0.757037	-0.656860	-0.000031
C45	C	0.758113	-0.584037	-0.000016
C46	C	0.822286	-0.556148	0.000008
C47	C	0.952150	0.087553	0.000026
C48	C	1.029655	0.088694	0.000022
C49	C	0.818997	0.220705	-0.000010
C50	C	0.820137	0.298210	-0.000029
N51	N	0.824475	0.093032	0.318849
N52	N	0.824498	0.093040	-0.318807
C53	C	0.824486	0.093040	0.569855
C54	C	0.824478	0.093038	0.430177
H55	H	0.168535	0.090727	0.202409
O56	O	0.026762	0.088854	0.231908
H57	H	-0.030003	0.088096	0.213168
O58	O	0.961138	-0.126984	0.000075
H59	H	0.964676	-0.094228	0.083490
H60	H	0.942227	-0.266463	0.000053
H61	H	0.711340	-0.235562	0.000020
O62	O	0.696608	-0.091560	0.000045
H63	H	0.651807	-0.123190	0.000047
H64	H	0.704792	-0.679573	-0.000041
O65	O	0.470806	0.095204	-0.231863
H66	H	0.508363	0.095749	-0.309435
O67	O	0.622179	0.097440	-0.231864
H68	H	0.584625	0.096902	-0.309434
H69	H	0.612546	0.097274	0.202403
H70	H	0.937631	-0.578365	0.000020
H71	H	0.935682	-0.710475	-0.000020
O72	O	0.690065	-0.535576	0.000004
H73	H	0.645265	-0.567207	0.000012
O74	O	0.470798	0.095193	0.231887
H75	H	0.508349	0.095752	0.309458
H76	H	0.036425	0.088811	-0.202371
H77	H	0.168535	0.090758	-0.202373
