data_functionalizedCrystal
_audit_creation_method	'MofGen! by Chris Wilmer'
_symmetry_space_group_name_H-M	'P1'
_symmetry_Int_Tables_number	1
_symmetry_cell_setting	triclinic
loop_
_symmetry_equiv_pos_as_xyz
  x,y,z
_cell_length_a	16.625546
_cell_length_b	12.759401
_cell_length_c	12.759393
_cell_angle_alpha	89.979527
_cell_angle_beta	90.035675
_cell_angle_gamma	89.976007
loop_
_atom_site_label
_atom_site_type_symbol
_atom_site_fract_x
_atom_site_fract_y
_atom_site_fract_z
Zn1	Zn	-0.320925	-1.606205	0.593986
Zn2	Zn	0.179075	-1.106205	1.093986
Zn3	Zn	-0.455781	-1.606074	0.418292
Zn4	Zn	0.044219	-1.106074	0.918292
Zn5	Zn	-0.320970	-1.430505	0.418322
Zn6	Zn	0.179030	-0.930505	0.918322
Zn7	Zn	-0.455723	-1.430472	0.593930
Zn8	Zn	0.044277	-0.930472	1.093930
O9	O	-0.388350	-1.518314	0.506132
O10	O	0.111650	-1.018314	1.006132
O11	O	-0.338820	-1.753208	0.570692
O12	O	0.161180	-1.253208	1.070692
O13	O	-0.437941	-1.582743	0.271275
O14	O	0.062059	-1.082743	0.771275
O15	O	-0.208131	-1.453881	0.441660
O16	O	0.291869	-0.953881	0.941660
O17	O	-0.437898	-1.753112	0.441610
O18	O	0.062102	-1.253112	0.941610
O19	O	-0.208099	-1.582967	0.570720
O20	O	0.291901	-1.082967	1.070720
O21	O	-0.338895	-1.453754	0.271297
O22	O	0.161105	-0.953754	0.771297
O23	O	-0.338839	-1.283480	0.441605
O24	O	0.161161	-0.783480	0.941605
O25	O	-0.437799	-1.453824	0.740958
O26	O	0.062201	-0.953824	1.240958
O27	O	-0.437842	-1.283455	0.570623
O28	O	0.062158	-0.783455	1.070623
O29	O	-0.338764	-1.582934	0.741000
O30	O	0.161236	-1.082934	1.241000
O31	O	-0.568606	-1.582711	0.441555
O32	O	-0.068606	-1.082711	0.941555
O33	O	-0.568563	-1.453697	0.570595
O34	O	-0.068563	-0.953697	1.070595
C35	C	-0.597841	-1.518214	0.506088
C36	C	-0.097841	-1.018214	1.006088
C37	C	-0.687462	-1.518268	0.506105
C38	C	-0.187462	-1.018268	1.006105
C39	C	-0.388340	-1.245346	0.506112
C40	C	0.111660	-0.745346	1.006112
C41	C	-0.388355	-1.128570	0.506128
C42	C	0.111645	-0.628570	1.006128
C43	C	-0.388270	-1.518390	0.780166
C44	C	0.111730	-1.018390	1.280166
C45	C	-0.388237	-1.518423	0.896943
C46	C	0.111763	-1.018423	1.396943
C47	C	-1.015637	-1.518451	0.506214
C48	C	-0.515637	-1.018451	1.006214
C49	C	-0.924329	-1.518397	0.506187
C50	C	-0.424329	-1.018397	1.006187
C51	C	-0.851552	-1.518359	0.506159
C52	C	-0.351552	-1.018359	1.006159
C53	C	-0.760238	-1.518306	0.506132
C54	C	-0.260238	-1.018306	1.006132
C55	C	-0.178041	-1.518442	0.506200
C56	C	0.321959	-1.018442	1.006200
C57	C	-0.088420	-1.518497	0.506228
C58	C	0.411580	-1.018497	1.006228
C59	C	-0.388360	-1.792347	0.506154
C60	C	0.111640	-1.292347	1.006154
C61	C	-0.388365	-1.909124	0.506163
C62	C	0.111635	-1.409124	1.006163
C63	C	-0.439984	-1.073723	0.573202
C64	C	0.060016	-0.573723	1.073202
C65	C	-0.439988	-0.963998	0.573223
C66	C	0.060012	-0.463998	1.073223
C67	C	-0.336730	-0.963979	0.439086
C68	C	0.163270	-0.463979	0.939086
C69	C	-0.336723	-1.073701	0.439071
C70	C	0.163277	-0.573701	0.939071
C71	C	-0.388371	-1.518298	0.233165
C72	C	0.111629	-1.018298	0.733165
C73	C	-0.388177	-1.518469	0.116389
C74	C	0.111823	-1.018469	0.616389
C75	C	-0.336630	-1.585677	1.061559
C76	C	0.163370	-1.085677	1.561559
C77	C	-0.336661	-1.585657	0.951835
C78	C	0.163339	-1.085657	1.451835
C79	C	-0.439790	-1.451212	0.951780
C80	C	0.060210	-0.951212	1.451780
C81	C	-0.439762	-1.451238	1.061502
C82	C	0.060238	-0.951238	1.561502
H83	H	-0.482024	-1.118394	0.627806
H84	H	0.017976	-0.618394	1.127806
H85	H	-0.482028	-0.919347	0.627843
H86	H	0.017972	-0.419347	1.127843
H87	H	-0.294694	-0.919291	0.384490
H88	H	0.205306	-0.419291	0.884490
H89	H	-0.294675	-1.118358	0.384451
H90	H	0.205325	-0.618358	0.884451
F91	F	-0.281799	-1.657191	0.893486
F92	F	0.218201	-1.157191	1.393486
F93	F	-0.281728	-1.657229	1.119970
F94	F	0.218272	-1.157229	1.619970
F95	F	-0.494682	-1.379658	0.893356
F96	F	0.005318	-0.879658	1.393356
H97	H	-0.481742	-1.396508	1.106146
H98	H	0.018258	-0.896508	1.606146
