data_functionalizedCrystal
_audit_creation_method	'MofGen! by Chris Wilmer'
_symmetry_space_group_name_H-M	'P1'
_symmetry_Int_Tables_number	1
_symmetry_cell_setting	triclinic
loop_
_symmetry_equiv_pos_as_xyz
  x,y,z
_cell_length_a	14.044220
_cell_length_b	15.944551
_cell_length_c	12.503572
_cell_angle_alpha	93.522593
_cell_angle_beta	86.164750
_cell_angle_gamma	88.343808
loop_
_atom_site_label
_atom_site_type_symbol
_atom_site_fract_x
_atom_site_fract_y
_atom_site_fract_z
O1	O	1.263178	0.198062	-0.089210
O2	O	0.987210	0.190753	-0.089237
O3	O	1.132730	0.072697	-0.089213
O4	O	1.117659	0.316117	-0.089234
O5	O	1.121786	0.081592	0.089427
O6	O	0.976267	0.199647	0.089403
O7	O	1.252235	0.206956	0.089430
Cu8	Cu	1.113251	0.204114	0.105728
Cu9	Cu	1.126194	0.193595	-0.105535
O10	O	1.106715	0.325012	0.089406
C11	C	0.946424	0.192001	0.000079
C12	C	0.841198	0.182459	0.000069
C13	C	0.648534	0.165017	0.000092
C14	C	0.590906	0.232688	0.000091
C15	C	0.483701	0.222983	0.000104
C16	C	0.755749	0.174721	0.000079
C17	C	1.126632	0.045804	0.000107
C18	C	1.124756	-0.047583	0.000107
C19	C	1.030073	-0.269530	0.000083
C20	C	1.068645	-0.322870	0.088168
C21	C	1.121363	-0.218563	0.000099
C22	C	1.079457	-0.331621	-0.087957
C23	C	1.118079	-0.383722	0.000086
C24	C	1.159956	-0.270669	0.088256
C25	C	1.170759	-0.279418	-0.087948
C26	C	1.209396	-0.332734	0.000158
C27	C	1.123252	-0.123419	0.000107
C28	C	1.116197	-0.478865	0.000085
C29	C	1.293021	0.205708	0.000111
C30	C	1.398247	0.215249	0.000114
C31	C	1.112813	0.351905	0.000083
C32	C	1.114689	0.445291	0.000076
N33	N	1.104155	0.211512	0.254318
N34	N	1.135297	0.186191	-0.254126
C35	C	1.090774	0.222403	0.473431
C36	C	1.148675	0.175303	0.526768
C37	C	1.141230	0.181362	0.648690
C38	C	1.098218	0.216344	0.351498
H39	H	0.617360	0.099799	0.000104
H40	H	1.213901	-0.260107	-0.162413
C41	C	0.929065	-0.232642	-0.000042
C42	C	0.920507	-0.188380	-0.092415
C43	C	0.827471	-0.154397	-0.092570
H44	H	0.915814	-0.195518	0.061868
H45	H	0.885008	-0.276746	0.000583
H46	H	0.964550	-0.144281	-0.093030
H47	H	0.933738	-0.225486	-0.154340
H48	H	0.783413	-0.198501	-0.091945
H49	H	0.814228	-0.117277	-0.030656
H50	H	0.821649	-0.124369	-0.155248
H51	H	0.622081	0.297911	0.000080
H52	H	1.025471	-0.342162	0.162629
H53	H	1.035617	0.267275	0.519330
C54	C	1.205236	-0.235055	0.187626
C55	C	1.206402	-0.147336	0.186509
C56	C	1.248090	-0.114498	0.278038
H57	H	1.268758	-0.257124	0.187982
H58	H	1.169187	-0.250203	0.250122
H59	H	1.242452	-0.132195	0.124030
H60	H	1.142892	-0.125244	0.186169
H61	H	1.212041	-0.129646	0.340534
H62	H	1.311610	-0.136573	0.278386
H63	H	1.248879	-0.054977	0.277297
H64	H	1.203838	0.130429	0.480864
H65	H	1.285235	-0.360211	0.000215
C66	C	1.034210	-0.367170	-0.187384
C67	C	1.086929	-0.344126	-0.279390
C68	C	1.045277	-0.376864	-0.370995
H69	H	0.970514	-0.345455	-0.187431
H70	H	1.033907	-0.426731	-0.187073
H71	H	1.087222	-0.284577	-0.279702
H72	H	1.150623	-0.365839	-0.279379
H73	H	1.044973	-0.436425	-0.370684
H74	H	0.981582	-0.355147	-0.371032
H75	H	1.081045	-0.361240	-0.433432
