data_functionalizedCrystal
_audit_creation_method	'MofGen! by Chris Wilmer'
_symmetry_space_group_name_H-M	'P1'
_symmetry_Int_Tables_number	1
_symmetry_cell_setting	triclinic
loop_
_symmetry_equiv_pos_as_xyz
  x,y,z
_cell_length_a	19.077312
_cell_length_b	16.625546
_cell_length_c	19.076919
_cell_angle_alpha	92.269917
_cell_angle_beta	94.668947
_cell_angle_gamma	87.728601
loop_
_atom_site_label
_atom_site_type_symbol
_atom_site_fract_x
_atom_site_fract_y
_atom_site_fract_z
Zn1	Zn	1.061663	-0.386153	-0.355260
Zn2	Zn	1.394996	-0.052820	-0.021927
Zn3	Zn	1.728329	0.280514	0.311407
Zn4	Zn	1.066322	-0.515779	-0.237376
Zn5	Zn	1.399655	-0.182446	0.095958
Zn6	Zn	1.732988	0.150888	0.429291
Zn7	Zn	0.948520	-0.375770	-0.242128
Zn8	Zn	1.281853	-0.042436	0.091206
Zn9	Zn	1.615187	0.290897	0.424539
Zn10	Zn	0.943753	-0.515746	-0.359959
Zn11	Zn	1.277086	-0.182412	-0.026625
Zn12	Zn	1.610420	0.150921	0.306708
O13	O	1.005064	-0.448362	-0.298680
O14	O	1.338398	-0.115028	0.034653
O15	O	1.671731	0.218305	0.367986
O16	O	1.160927	-0.407707	-0.335667
O17	O	1.494260	-0.074374	-0.002334
O18	O	1.827593	0.258959	0.331000
O19	O	1.054640	-0.492875	-0.139359
O20	O	1.387973	-0.159542	0.193975
O21	O	1.721306	0.173792	0.527308
O22	O	0.963574	-0.264318	-0.257157
O23	O	1.296907	0.069016	0.076176
O24	O	1.630241	0.402349	0.409509
O25	O	1.164350	-0.502943	-0.249058
O26	O	1.497683	-0.169610	0.084275
O27	O	1.831016	0.163724	0.417609
O28	O	1.046699	-0.271946	-0.340275
O29	O	1.380033	0.061387	-0.006942
O30	O	1.713366	0.394720	0.326392
O31	O	0.968091	-0.390011	-0.142850
O32	O	1.301425	-0.056677	0.190483
O33	O	1.634758	0.276656	0.523817
O34	O	0.849242	-0.389979	-0.261713
O35	O	1.182575	-0.056645	0.071620
O36	O	1.515908	0.276688	0.404953
O37	O	0.955449	-0.502886	-0.457983
O38	O	1.288783	-0.169553	-0.124649
O39	O	1.622116	0.163780	0.208684
O40	O	0.845739	-0.492818	-0.348283
O41	O	1.179073	-0.159485	-0.014950
O42	O	1.512406	0.173848	0.318384
O43	O	1.042077	-0.407675	-0.454531
O44	O	1.375410	-0.074342	-0.121197
O45	O	1.708744	0.258992	0.212136
O46	O	1.050017	-0.628604	-0.253614
O47	O	1.383351	-0.295270	0.079719
O48	O	1.716684	0.038063	0.413052
O49	O	0.959967	-0.628579	-0.343675
O50	O	1.293300	-0.295246	-0.010342
O51	O	1.626633	0.038087	0.322991
C52	C	0.821913	-0.440269	-0.306024
C53	C	1.155246	-0.106935	0.027309
C54	C	1.488579	0.226398	0.360642
C55	C	0.743559	-0.436826	-0.309183
C56	C	1.076892	-0.103493	0.024151
C57	C	1.410226	0.229840	0.357484
C58	C	1.004999	-0.657848	-0.298654
C59	C	1.338332	-0.324515	0.034680
C60	C	1.671665	0.008818	0.368013
C61	C	1.005034	-0.747472	-0.298663
C62	C	1.338368	-0.414138	0.034670
C63	C	1.671701	-0.080805	0.368004
C64	C	0.302318	-0.412074	-0.331843
C65	C	0.635651	-0.078741	0.001491
C66	C	0.968985	0.254592	0.334824
C67	C	0.375940	-0.415324	-0.328871
C68	C	0.709273	-0.081990	0.004462
C69	C	1.042606	0.251343	0.337795
C70	C	0.414527	-0.466444	-0.282220
C71	C	0.747860	-0.133111	0.051114
C72	C	1.081193	0.200223	0.384447
C73	C	0.379488	-0.514325	-0.238542
C74	C	0.712821	-0.180991	0.094791
C75	C	1.046155	0.152342	0.428125
C76	C	0.305867	-0.511079	-0.241518
C77	C	0.639201	-0.177746	0.091816
C78	C	0.972534	0.155587	0.425149
C79	C	0.634899	-0.481462	-0.268481
C80	C	0.968233	-0.148128	0.064853
C81	C	1.301566	0.185205	0.398186
C82	C	0.708525	-0.484702	-0.265507
C83	C	1.041858	-0.151368	0.067827
C84	C	1.375192	0.181965	0.401160
C85	C	0.704972	-0.385701	-0.355837
C86	C	1.038305	-0.052368	-0.022504
C87	C	1.371639	0.280965	0.310829
C88	C	0.631350	-0.382457	-0.358806
C89	C	0.964684	-0.049124	-0.025472
C90	C	1.298017	0.284210	0.307861
C91	C	0.596318	-0.430340	-0.315131
C92	C	0.929651	-0.097007	0.018203
C93	C	1.262984	0.236326	0.351536
N94	N	0.489780	-0.469764	-0.279180
N95	N	0.823113	-0.136431	0.054154
N96	N	1.156447	0.196902	0.387487
N97	N	0.521065	-0.427024	-0.318175
N98	N	0.854399	-0.093690	0.015158
N99	N	1.187732	0.239643	0.348492
C100	C	1.005154	-1.075656	-0.298732
C101	C	1.338488	-0.742322	0.034602
C102	C	1.671821	-0.408989	0.367935
C103	C	1.005119	-0.984345	-0.298715
C104	C	1.338452	-0.651012	0.034619
C105	C	1.671785	-0.317678	0.367952
C106	C	1.005094	-0.911567	-0.298697
C107	C	1.338427	-0.578233	0.034636
C108	C	1.671760	-0.244900	0.367970
C109	C	1.005059	-0.820250	-0.298681
C110	C	1.338392	-0.486917	0.034653
C111	C	1.671726	-0.153583	0.367986
C112	C	1.188931	-0.456487	-0.291308
C113	C	1.522264	-0.123154	0.042025
C114	C	1.855598	0.210180	0.375358
C115	C	1.267284	-0.459950	-0.288167
C116	C	1.600618	-0.126616	0.045166
C117	C	1.933951	0.206717	0.378500
C118	C	0.997712	-0.456435	-0.482550
C119	C	1.331045	-0.123102	-0.149217
C120	C	1.664378	0.210231	0.184117
C121	C	0.994578	-0.459876	-0.560904
C122	C	1.327912	-0.126542	-0.227571
C123	C	1.661245	0.206791	0.105762
C124	C	1.005149	-0.238059	-0.298722
C125	C	1.338482	0.095275	0.034611
C126	C	1.671815	0.428608	0.367945
C127	C	1.005185	-0.148440	-0.298740
C128	C	1.338518	0.184893	0.034594
C129	C	1.671851	0.518227	0.367927
C130	C	1.038207	-0.411923	-0.595919
C131	C	1.371540	-0.078590	-0.262586
C132	C	1.704873	0.254744	0.070747
C133	C	1.035254	-0.415152	-0.669542
C134	C	1.368587	-0.081819	-0.336208
C135	C	1.701921	0.251515	-0.002875
C136	C	0.988676	-0.466339	-0.708148
C137	C	1.322010	-0.133006	-0.374815
C138	C	1.655343	0.200328	-0.041481
C139	C	0.945043	-0.514294	-0.673128
C140	C	1.278377	-0.180960	-0.339795
C141	C	1.611710	0.152373	-0.006461
C142	C	0.947993	-0.511060	-0.599507
C143	C	1.281326	-0.177726	-0.266174
C144	C	1.614660	0.155607	0.067160
C145	C	0.975015	-0.481322	-0.928524
C146	C	1.308349	-0.147989	-0.595191
C147	C	1.641682	0.185344	-0.261858
C148	C	0.972071	-0.484555	-1.002150
C149	C	1.305404	-0.151221	-0.668817
C150	C	1.638737	0.182112	-0.335484
C151	C	1.062281	-0.385412	-0.998559
C152	C	1.395614	-0.052078	-0.665226
C153	C	1.728947	0.281255	-0.331892
C154	C	1.065229	-0.382186	-0.924937
C155	C	1.398562	-0.048852	-0.591603
C156	C	1.731896	0.284481	-0.258270
C157	C	1.021594	-0.430137	-0.889923
C158	C	1.354927	-0.096804	-0.556590
C159	C	1.688260	0.236529	-0.223256
N160	N	0.985659	-0.469643	-0.783402
N161	N	1.318992	-0.136309	-0.450069
N162	N	1.652325	0.197024	-0.116735
N163	N	1.024608	-0.426829	-0.814671
N164	N	1.357941	-0.093495	-0.481337
N165	N	1.691275	0.239838	-0.148004
C166	C	1.012429	-0.440263	-0.115525
C167	C	1.345762	-0.106930	0.217809
C168	C	1.679096	0.226403	0.551142
C169	C	1.015699	-0.436602	-0.037165
C170	C	1.349032	-0.103268	0.296168
C171	C	1.682365	0.230065	0.629502
H172	H	0.270906	-0.370441	-0.369827
H173	H	0.604239	-0.037108	-0.036494
H174	H	0.937572	0.296225	0.296839
H175	H	0.939495	-0.520380	-0.900025
H176	H	1.272828	-0.187047	-0.566692
H177	H	1.606161	0.146286	-0.233358
H178	H	0.934139	-0.526239	-1.033582
H179	H	1.267473	-0.192906	-0.700248
H180	H	1.600806	0.140428	-0.366915
C181	C	1.116461	-0.325868	-0.882475
C182	C	1.449794	0.007465	-0.549142
C183	C	1.783128	0.340799	-0.215809
N184	N	1.155049	-0.283447	-0.850494
N185	N	1.488382	0.049886	-0.517160
N186	N	1.821716	0.383219	-0.183827
H187	H	0.907116	-0.555968	-0.704567
H188	H	1.240450	-0.222634	-0.371234
H189	H	1.573783	0.110699	-0.037901
H190	H	0.912459	-0.550099	-0.570999
H191	H	1.245792	-0.216766	-0.237666
H192	H	1.579126	0.116567	0.095667
H193	H	0.410911	-0.555951	-0.200560
H194	H	0.744244	-0.222618	0.132773
H195	H	1.077578	0.110715	0.466107
H196	H	0.739941	-0.526333	-0.227516
H197	H	1.073274	-0.193000	0.105817
H198	H	1.406608	0.140334	0.439151
C199	C	0.414474	-0.362650	-0.376913
C200	C	0.747807	-0.029316	-0.043579
C201	C	1.081140	0.304017	0.289754
N202	N	0.443497	-0.322972	-0.413098
N203	N	0.776830	0.010362	-0.079765
N204	N	1.110164	0.343695	0.253568
C205	C	0.743514	-0.333037	-0.403880
C206	C	1.076847	0.000296	-0.070547
C207	C	1.410180	0.333629	0.262786
N208	N	0.772543	-0.293371	-0.440070
N209	N	1.105877	0.039962	-0.106737
N210	N	1.439210	0.373296	0.226596
C211	C	1.089446	-0.355612	-0.553459
C212	C	1.422779	-0.022279	-0.220126
C213	C	1.756112	0.311055	0.113207
N214	N	1.128038	-0.313194	-0.521480
N215	N	1.461371	0.020139	-0.188147
N216	N	1.794704	0.353473	0.145186
H217	H	0.606385	-0.520450	-0.232915
H218	H	0.939718	-0.187116	0.100418
H219	H	1.273052	0.146217	0.433751
H220	H	0.599937	-0.340832	-0.396797
H221	H	0.933271	-0.007499	-0.063464
H222	H	1.266604	0.325835	0.269870
H223	H	0.277344	-0.550066	-0.205953
H224	H	0.610677	-0.216733	0.127380
H225	H	0.944010	0.116601	0.460713
C226	C	1.083250	-0.362401	-0.708055
C227	C	1.416583	-0.029068	-0.374721
C228	C	1.749917	0.304265	-0.041388
N229	N	1.119403	-0.322667	-0.737062
N230	N	1.452736	0.010666	-0.403729
N231	N	1.786069	0.344000	-0.070395
H232	H	1.097805	-0.346371	-1.027075
H233	H	1.431138	-0.013038	-0.693742
H234	H	1.764472	0.320295	-0.360408
