data_functionalizedCrystal
_audit_creation_method	'MofGen! by Chris Wilmer'
_symmetry_space_group_name_H-M	'P1'
_symmetry_Int_Tables_number	1
_symmetry_cell_setting	triclinic
loop_
_symmetry_equiv_pos_as_xyz
  x,y,z
_cell_length_a	10.908878
_cell_length_b	19.188924
_cell_length_c	10.065875
_cell_angle_alpha	98.757069
_cell_angle_beta	83.443480
_cell_angle_gamma	71.613377
loop_
_atom_site_label
_atom_site_type_symbol
_atom_site_fract_x
_atom_site_fract_y
_atom_site_fract_z
O1	O	1.723318	-0.120358	-0.113457
O2	O	2.223318	0.379642	0.386543
O3	O	1.349147	-0.065801	-0.113470
O4	O	1.849147	0.434199	0.386530
O5	O	1.547032	-0.195970	-0.113447
O6	O	2.047032	0.304030	0.386553
O7	O	1.525433	0.009811	-0.113480
O8	O	2.025433	0.509811	0.386520
O9	O	1.509298	-0.171066	0.113538
O10	O	2.009298	0.328934	0.613538
O11	O	1.311413	-0.040897	0.113515
O12	O	1.811413	0.459103	0.613515
O13	O	1.685584	-0.095454	0.113527
O14	O	2.185584	0.404546	0.613527
Zn15	Zn	1.492507	-0.064222	0.149560
Zn16	Zn	1.992507	0.435778	0.649560
Zn17	Zn	1.542224	-0.097033	-0.149502
Zn18	Zn	2.042224	0.402967	0.350498
O19	O	1.487698	0.034715	0.113505
O20	O	1.987698	0.534715	0.613505
C21	C	1.282410	-0.048250	0.000021
C22	C	1.782410	0.451750	0.500021
C23	C	1.139772	-0.033066	0.000017
C24	C	1.639772	0.466934	0.500017
C25	C	1.091076	-0.088470	0.000025
C26	C	1.591076	0.411530	0.500025
C27	C	0.943652	-0.072778	0.000021
C28	C	1.443652	0.427222	0.500021
C29	C	1.527467	-0.209449	0.000047
C30	C	2.027467	0.290551	0.500047
C31	C	1.525370	-0.286713	0.000050
C32	C	2.025370	0.213287	0.500050
C33	C	1.544961	-0.336575	-0.123679
C34	C	2.044961	0.163425	0.376321
C35	C	1.542976	-0.409172	-0.123690
C36	C	2.042976	0.090828	0.376310
C37	C	1.521424	-0.431907	0.000036
C38	C	2.021424	0.068093	0.500036
C39	C	1.501823	-0.382034	0.123782
C40	C	2.001823	0.117966	0.623782
C41	C	1.503796	-0.309437	0.123789
C42	C	2.003796	0.190563	0.623789
N43	N	1.576137	-0.549481	0.092125
N44	N	2.076137	-0.049481	0.592125
N45	N	1.574267	-0.618447	0.092110
N46	N	2.074267	-0.118447	0.592110
C47	C	1.515474	-0.650637	0.000023
C48	C	2.015474	-0.150637	0.500023
N49	N	1.458642	-0.611261	-0.092070
N50	N	1.958642	-0.111261	0.407930
N51	N	1.460519	-0.542291	-0.092058
N52	N	1.960519	-0.042291	0.407942
C53	C	1.519281	-0.510625	0.000043
C54	C	2.019281	-0.010625	0.500043
C55	C	1.532911	-0.779217	-0.123726
C56	C	2.032911	-0.279217	0.376274
C57	C	1.530917	-0.851812	-0.123732
C58	C	2.030917	-0.351812	0.376268
C59	C	1.489776	-0.824675	0.123744
C60	C	1.989776	-0.324675	0.623744
C61	C	1.491759	-0.752079	0.123746
C62	C	1.991759	-0.252079	0.623746
C63	C	1.513333	-0.729355	0.000007
C64	C	2.013333	-0.229355	0.500007
C65	C	1.752322	-0.113005	0.000034
C66	C	2.252322	0.386995	0.500034
C67	C	1.894961	-0.128190	0.000029
C68	C	2.394961	0.371810	0.500029
C69	C	1.507265	0.048194	0.000008
C70	C	2.007265	0.548194	0.500008
C71	C	1.509362	0.125457	-0.000004
C72	C	2.009362	0.625457	0.499996
N73	N	1.458586	-0.041830	0.353661
N74	N	1.958586	0.458170	0.853661
N75	N	1.576155	-0.119431	-0.353604
N76	N	2.076155	0.380569	0.146396
C77	C	1.530414	-0.089246	0.421449
C78	C	2.030414	0.410754	0.921449
C79	C	1.504317	-0.072009	0.578613
C80	C	2.004317	0.427991	1.078613
H81	H	0.962408	-0.187246	0.000029
H82	H	1.462408	0.312754	0.500029
O83	O	1.482672	-0.255652	0.257246
O84	O	1.982672	0.244348	0.757246
H85	H	1.570148	-0.238318	0.263162
H86	H	2.070148	0.261682	0.763162
O87	O	1.556154	-0.754694	-0.257178
O88	O	2.056154	-0.254694	0.242822
H89	H	1.569419	-0.801561	-0.343220
H90	H	2.069419	-0.301561	0.156780
H91	H	0.876206	-0.013724	0.000005
H92	H	1.376206	0.486276	0.500005
H93	H	1.611224	-0.142604	0.363134
H94	H	2.111224	0.357396	0.863134
O95	O	1.683203	-0.190118	0.569172
O96	O	2.183203	0.309882	1.069172
H97	H	1.756418	-0.175172	0.504056
H98	H	2.256418	0.324828	1.004056
O99	O	1.050441	0.045159	0.000016
O100	O	1.550441	0.545159	0.500016
H101	H	0.948664	0.045210	0.000027
H102	H	1.448664	0.545210	0.500027
H103	H	1.423492	-0.018651	0.636924
H104	H	1.923492	0.481349	1.136924
O105	O	1.351544	0.028856	0.430881
O106	O	1.851544	0.528856	0.930881
H107	H	1.278331	0.013916	0.496012
H108	H	1.778331	0.513916	0.996012
O109	O	1.478600	-0.406560	0.257227
O110	O	1.978600	0.093440	0.757227
H111	H	1.389170	-0.422608	0.263140
H112	H	1.889170	0.077392	0.763140
H113	H	1.472218	-0.843184	0.224484
H114	H	1.972218	-0.343184	0.724484
O115	O	1.180402	-0.166692	0.000052
O116	O	1.680402	0.333308	0.500052
H117	H	1.282174	-0.166741	0.000066
H118	H	1.782174	0.333259	0.500066
H119	H	1.475816	-0.711481	0.224500
H120	H	1.975816	-0.211481	0.724500
H121	H	1.562525	-0.318079	-0.224437
H122	H	2.062525	0.181921	0.275563
O123	O	1.564109	-0.462961	-0.257151
O124	O	2.064109	0.037039	0.242849
H125	H	1.559103	-0.517258	-0.236364
H126	H	2.059103	-0.017258	0.263636
H127	H	1.546864	-0.892410	-0.224491
H128	H	2.046864	-0.392410	0.275509
