data_functionalizedCrystal
_audit_creation_method	'MofGen! by Chris Wilmer'
_symmetry_space_group_name_H-M	'P1'
_symmetry_Int_Tables_number	1
_symmetry_cell_setting	triclinic
loop_
_symmetry_equiv_pos_as_xyz
  x,y,z
_cell_length_a	8.597340
_cell_length_b	17.666332
_cell_length_c	8.597304
_cell_angle_alpha	97.706266
_cell_angle_beta	86.359595
_cell_angle_gamma	82.307217
loop_
_atom_site_label
_atom_site_type_symbol
_atom_site_fract_x
_atom_site_fract_y
_atom_site_fract_z
O1	O	2.085986	-0.057826	0.234298
O2	O	1.629342	-0.026870	0.252275
O3	O	1.866647	-0.057827	0.014956
O4	O	1.848681	-0.026869	0.471616
O5	O	1.866605	-0.183722	0.014943
O6	O	1.629300	-0.152764	0.252261
O7	O	2.085944	-0.183721	0.234284
Cu8	Cu	1.857618	-0.179738	0.243272
Cu9	Cu	1.857668	-0.030853	0.243288
O10	O	1.848639	-0.152764	0.471603
C11	C	1.570821	-0.086127	0.250338
C12	C	1.396511	-0.075134	0.244568
N13	N	1.857594	-0.284457	0.243260
C14	C	1.962708	-0.337773	0.138228
C15	C	1.962717	-0.417022	0.138220
C16	C	1.857627	-0.442950	0.243272
C17	C	1.752493	-0.389622	0.348312
C18	C	1.752477	-0.310376	0.348305
N19	N	1.839779	-0.557165	0.381870
N20	N	1.839804	-0.632447	0.381872
C21	C	1.857669	-0.681716	0.243295
N22	N	1.875539	-0.652861	0.104712
N23	N	1.875522	-0.577572	0.104713
C24	C	1.857633	-0.528879	0.243290
C25	C	1.962799	-0.820963	0.138246
C26	C	1.962797	-0.900213	0.138236
C27	C	1.752581	-0.872812	0.348342
C28	C	1.752575	-0.793564	0.348338
C29	C	1.857692	-0.767645	0.243292
C30	C	2.144465	-0.124462	0.236221
C31	C	2.318775	-0.135450	0.241991
C32	C	1.864695	-0.124463	-0.043552
C33	C	1.858921	-0.135451	-0.217868
N34	N	1.857704	0.073864	0.243287
C35	C	1.850591	-0.086127	0.530111
C36	C	1.856365	-0.075133	0.704427
H37	H	1.329704	-0.015078	0.242360
O38	O	1.398651	-0.207073	0.244414
C39	C	1.509053	-0.226975	0.111925
H40	H	1.538688	-0.172203	0.067529
H41	H	1.456989	-0.263813	0.014886
C42	C	1.623553	-0.340211	0.212782
C43	C	1.659961	-0.272940	0.158263
H44	H	1.716638	-0.368568	0.241361
H45	H	1.549170	-0.326805	0.302040
H46	H	1.580163	-0.370900	0.131907
H47	H	1.703331	-0.242247	0.239143
H48	H	1.734355	-0.286342	0.069019
O49	O	2.064861	-0.312728	0.036027
C50	C	2.157666	-0.376787	-0.056653
H51	H	2.093295	-0.429268	-0.059442
H52	H	2.275055	-0.389405	-0.003820
C53	C	2.266485	-0.294363	-0.222071
C54	C	2.187417	-0.358820	-0.225506
H55	H	2.284844	-0.283280	-0.326225
H56	H	2.203965	-0.251204	-0.159627
H57	H	2.364300	-0.304887	-0.178036
H58	H	2.089596	-0.348292	-0.269522
H59	H	2.249921	-0.401977	-0.287961
H60	H	1.856675	-0.195505	-0.284705
H61	H	2.048317	-0.460440	0.052687
H62	H	1.667008	-0.893922	0.433871
O63	O	2.064977	-0.952083	0.036418
C64	C	2.163123	-0.998711	0.122046
H65	H	2.102474	-0.998681	0.243888
H66	H	2.279294	-0.974918	0.134570
C67	C	2.269822	-1.081863	-0.115571
C68	C	2.195326	-1.081831	0.034072
H69	H	2.289694	-1.133135	-0.169839
H70	H	2.203704	-1.050448	-0.173262
H71	H	2.366622	-1.062032	-0.105114
H72	H	2.098519	-1.101653	0.023612
H73	H	2.261429	-1.113252	0.091760
O74	O	1.858783	-0.003504	-0.215678
C75	C	1.726287	0.016384	-0.105284
H76	H	1.681910	-0.038394	-0.075657
H77	H	1.629247	0.053198	-0.157358
C78	C	1.827092	0.129656	0.009240
C79	C	1.772595	0.062376	0.045638
H80	H	1.855652	0.158029	0.102333
H81	H	1.916354	0.116260	-0.065138
H82	H	1.746215	0.160325	-0.034158
H83	H	1.853477	0.031704	0.089016
H84	H	1.683347	0.075769	0.120027
O85	O	1.650343	-0.414900	0.450144
C86	C	1.552208	-0.459928	0.364529
H87	H	1.612853	-0.483700	0.242685
H88	H	1.436024	-0.422644	0.352009
C89	C	1.445547	-0.498169	0.602160
C90	C	1.520039	-0.527372	0.452514
H91	H	1.425697	-0.539769	0.656434
H92	H	1.511658	-0.467830	0.659842
H93	H	1.348736	-0.467099	0.591706
H94	H	1.616856	-0.558433	0.462970
H95	H	1.453943	-0.557717	0.394835
H96	H	2.048387	-0.799860	0.052706
O97	O	1.650314	-0.258683	0.450496
C98	C	1.557523	-0.298557	0.543188
H99	H	1.621910	-0.359057	0.545989
H100	H	1.440137	-0.302788	0.490357
C101	C	1.448676	-0.180364	0.708583
C102	C	1.527764	-0.254669	0.712034
H103	H	1.430311	-0.153291	0.812734
H104	H	1.511186	-0.153499	0.646132
H105	H	1.350863	-0.183900	0.664550
H106	H	1.625582	-0.251132	0.756048
H107	H	1.465269	-0.281532	0.774497
O108	O	1.650422	-0.741871	0.450530
C109	C	1.557638	-0.781746	0.543226
H110	H	1.622031	-0.842245	0.546028
H111	H	1.440252	-0.785981	0.490397
C112	C	1.448783	-0.663554	0.708619
C113	C	1.527878	-0.737857	0.712071
H114	H	1.430418	-0.636480	0.812769
H115	H	1.511288	-0.636689	0.646165
H116	H	1.350970	-0.667093	0.664587
H117	H	1.625697	-0.734317	0.756083
H118	H	1.465389	-0.764721	0.774536
