data_functionalizedCrystal
_audit_creation_method	'MofGen! by Chris Wilmer'
_symmetry_space_group_name_H-M	'P1'
_symmetry_Int_Tables_number	1
_symmetry_cell_setting	triclinic
loop_
_symmetry_equiv_pos_as_xyz
  x,y,z
_cell_length_a	31.640172
_cell_length_b	17.917603
_cell_length_c	17.917603
_cell_angle_alpha	60.138055
_cell_angle_beta	90.006769
_cell_angle_gamma	63.032812
loop_
_atom_site_label
_atom_site_type_symbol
_atom_site_fract_x
_atom_site_fract_y
_atom_site_fract_z
Zr1	Zr	0.431294	0.806770	-0.128959
O2	O	0.370647	0.951815	-0.249509
O3	O	0.446988	0.654539	-0.087304
O4	O	0.454645	0.796390	-0.242711
O5	O	0.360246	0.820659	0.023139
O6	O	0.524201	0.796376	-0.242694
O7	O	0.362989	0.809965	-0.094102
O8	O	0.510504	0.542631	0.035300
O9	O	0.373943	1.074404	-0.254855
O10	O	0.509091	0.719805	-0.075205
O11	O	0.455135	0.727796	0.012279
O12	O	0.464150	0.894807	-0.170693
O13	O	0.410194	0.902798	-0.083209
Zr14	Zr	0.537853	0.823804	0.058053
Zr15	Zr	0.542228	0.806748	-0.128933
Zr16	Zr	0.426919	0.823826	0.058027
Zr17	Zr	0.436552	1.002284	-0.137486
Zr18	Zr	0.532595	0.628290	0.066580
O19	O	0.522160	0.976035	0.016398
O20	O	0.528381	0.951783	-0.249472
O21	O	0.364425	0.976066	0.016361
O22	O	0.598501	0.678759	0.178603
O23	O	0.604722	0.654507	-0.087267
O24	O	0.440766	0.678790	0.178566
O25	O	0.608901	0.809915	-0.094045
O26	O	0.514502	0.834184	0.171805
O27	O	0.444946	0.834198	0.171788
O28	O	0.606158	0.820609	0.023196
O29	O	0.462121	1.074386	-0.254835
O30	O	0.507026	0.556188	0.183929
O31	O	0.595204	0.556170	0.183950
O32	O	0.598681	0.542613	0.035321
O33	O	0.370466	1.087961	-0.106227
O34	O	0.458644	1.087943	-0.106206
O35	O	0.504997	0.735767	0.099787
O36	O	0.558953	0.727775	0.012303
O37	O	0.514012	0.902778	-0.083185
O38	O	0.460056	0.910769	0.004299
C39	C	0.477996	0.570729	-0.024787
C40	C	0.475764	0.487728	-0.021167
C41	C	0.471686	0.335762	-0.014557
C42	C	0.497460	0.294807	-0.056347
C43	C	0.495191	0.210248	-0.052669
C44	C	0.473954	0.420329	-0.018234
C45	C	0.345812	0.815315	-0.035485
C46	C	0.298717	0.815324	-0.035496
C47	C	0.030167	0.723929	0.014409
C48	C	-0.146819	0.723913	0.014427
O49	O	-0.149755	0.646226	0.056849
N50	N	-0.192407	0.815261	-0.035418
C51	C	-0.193748	0.906621	-0.085266
O52	O	-0.236585	0.984319	-0.127654
C53	C	-0.016763	0.906637	-0.085278
C54	C	0.028825	0.815282	-0.035438
C55	C	0.075753	0.632582	0.064246
C56	C	0.119997	0.632586	0.064238
C57	C	0.118655	0.723939	0.014391
C58	C	0.073069	0.815286	-0.035447
C59	C	-0.018104	0.997996	-0.135121
C60	C	0.026147	0.997992	-0.135118
C61	C	0.071735	0.906637	-0.085277
C62	C	0.115970	0.906644	-0.085302
N63	N	0.161559	0.815295	-0.035457
C64	C	0.162901	0.723943	0.014389
C65	C	-0.286666	0.906606	-0.085258
C66	C	-0.330912	0.906602	-0.085256
C67	C	-0.283980	0.723893	0.014439
C68	C	-0.239733	0.723898	0.014431
C69	C	-0.241078	0.815257	-0.035413
C70	C	0.255814	0.723959	0.014366
C71	C	0.300060	0.723972	0.014350
C72	C	0.253123	0.906680	-0.085340
C73	C	0.208881	0.906668	-0.085328
C74	C	0.210230	0.815300	-0.035468
O75	O	0.118944	0.984290	-0.127694
O76	O	0.205742	0.646258	0.056787
C77	C	-0.014077	0.723925	0.014418
C78	C	-0.059662	0.815272	-0.035420
C79	C	-0.061005	0.906625	-0.085266
C80	C	-0.103909	0.815268	-0.035418
C81	C	-0.102566	0.723916	0.014428
C82	C	-0.056978	0.632568	0.064273
C83	C	-0.012734	0.632572	0.064264
C84	C	-0.106593	0.997973	-0.135111
C85	C	-0.150835	0.997961	-0.135099
C86	C	-0.149493	0.906608	-0.085253
C87	C	0.623335	0.815259	-0.035420
C88	C	0.670430	0.815249	-0.035409
C89	C	0.490046	0.793953	-0.269344
C90	C	0.491904	0.786712	-0.348724
C91	C	0.491151	1.059845	-0.046119
C92	C	0.493383	1.142846	-0.049739
C93	C	0.495307	0.773486	-0.494079
C94	C	0.473841	0.857083	-0.576830
C95	C	0.475735	0.849725	-0.657710
C96	C	0.493414	0.780843	-0.413190
C97	C	0.479101	0.836621	0.198438
C98	C	0.477243	0.843862	0.277818
C99	C	0.616758	0.570701	-0.024754
C100	C	0.661620	0.487690	-0.021123
C101	C	0.472524	0.592063	0.209104
C102	C	0.468434	0.516303	0.292104
C103	C	0.611285	0.592035	0.209137
C104	C	0.654290	0.516265	0.292148
C105	C	0.357862	1.038539	-0.280042
C106	C	0.314857	1.114309	-0.363054
C107	C	0.352389	1.059873	-0.046151
C108	C	0.307527	1.142884	-0.049782
C109	C	0.496624	1.038511	-0.280010
C110	C	0.500713	1.114271	-0.363010
C111	C	0.656661	0.444546	-0.065104
C112	C	0.698810	0.366559	-0.061711
C113	C	0.745918	0.331711	-0.014330
C114	C	0.750877	0.374863	0.029652
C115	C	0.708728	0.452854	0.026252
C116	C	0.492540	0.484886	0.376768
C117	C	0.488696	0.413713	0.454763
C118	C	0.460748	0.373952	0.448091
C119	C	0.436638	0.405376	0.363418
C120	C	0.440480	0.476553	0.285426
C121	C	0.702655	0.476511	0.285465
C122	C	0.743067	0.405328	0.363456
C123	C	0.735113	0.373894	0.448128
C124	C	0.686744	0.413655	0.454809
C125	C	0.646333	0.484843	0.376819
C126	C	0.266492	1.154072	-0.356372
C127	C	0.226081	1.225280	-0.434363
C128	C	0.234035	1.256718	-0.519036
C129	C	0.282404	1.216951	-0.525716
C130	C	0.322815	1.145750	-0.447725
C131	C	0.312487	1.186035	-0.005810
C132	C	0.270338	1.264042	-0.009225
C133	C	0.223231	1.298892	-0.056608
C134	C	0.218272	1.255738	-0.100586
C135	C	0.260420	1.177736	-0.097176
C136	C	0.528666	1.154010	-0.356310
C137	C	0.532518	1.225185	-0.434290
C138	C	0.508415	1.256626	-0.518970
C139	C	0.480461	1.216879	-0.525668
C140	C	0.476612	1.145700	-0.447689
H141	H	0.447917	0.307320	0.023980
O142	O	0.525857	0.328591	-0.102342
C143	C	0.549364	0.273880	-0.140501
H144	H	0.551805	0.198059	-0.101284
H145	H	0.588292	0.260743	-0.137438
H146	H	0.527006	0.318597	-0.213634
H147	H	0.256374	1.142605	-0.132982
O148	O	0.713483	0.494733	0.069057
C149	C	0.687515	0.481484	0.134011
H150	H	0.657539	0.470055	0.115220
H151	H	0.669612	0.551244	0.136545
H152	H	0.714393	0.412444	0.202788
O153	O	0.518885	0.681593	-0.482178
C154	C	0.515495	0.694615	-0.566762
H155	H	0.482233	0.772214	-0.619677
H156	H	0.510718	0.633726	-0.563326
H157	H	0.550792	0.688437	-0.585678
O158	O	0.275075	1.306083	0.033428
C159	C	0.227775	1.382387	0.020284
H160	H	0.200801	1.410903	-0.042906
H161	H	0.230163	1.447499	0.012213
H162	H	0.214114	1.350463	0.080914
O163	O	0.344301	0.635138	0.062851
C164	C	0.335993	0.554510	0.106832
H165	H	0.297051	0.583340	0.114654
H166	H	0.364385	0.493756	0.176094
H167	H	0.339827	0.521234	0.065314
H168	H	0.420851	0.502122	0.216492
H169	H	0.618308	0.472917	-0.103698
O170	O	0.796674	0.340852	0.075673
C171	C	0.832806	0.262778	0.069220
H172	H	0.815027	0.227164	0.053870
H173	H	0.863678	0.202941	0.135657
H174	H	0.848932	0.295094	0.012916
O175	O	0.290184	1.247469	-0.607926
C176	C	0.318952	1.291645	-0.619524
H177	H	0.314780	1.319503	-0.573427
H178	H	0.305762	1.358010	-0.692512
H179	H	0.359576	1.233148	-0.602013
O180	O	0.774328	0.304649	0.523954
C181	C	0.770669	0.218964	0.577858
H182	H	0.730363	0.241020	0.560525
H183	H	0.784251	0.187814	0.651858
H184	H	0.794433	0.158770	0.564780
H185	H	0.782449	0.372961	0.358001
H186	H	0.186700	1.257646	-0.428906
H187	H	0.350840	1.157667	0.032781
H188	H	0.256919	0.649559	0.054968
H189	H	0.680275	0.388051	0.523759
H190	H	0.780234	0.268204	-0.011568
O191	O	0.369818	1.106955	-0.454095
C192	C	0.393152	1.001362	-0.408943
H193	H	0.374180	0.972911	-0.356673
H194	H	0.433875	0.963970	-0.374059
H195	H	0.390269	0.981818	-0.459586
O196	O	-0.062415	1.086683	-0.183400
C197	C	-0.090836	1.097752	-0.125003
H198	H	-0.077573	1.020298	-0.061273
H199	H	-0.131561	1.135168	-0.159898
H200	H	-0.086358	1.146738	-0.106618
H201	H	0.694763	0.331434	-0.097526
H202	H	0.188915	1.362407	-0.059378
O203	O	0.599382	0.523313	0.383479
C204	C	0.601035	0.480312	0.474939
H205	H	0.637472	0.404896	0.518158
H206	H	0.568702	0.467804	0.485931
H207	H	0.598268	0.533464	0.494684
O208	O	0.710475	0.506886	0.203293
C209	C	0.761830	0.456465	0.214140
H210	H	0.783010	0.430486	0.282061
H211	H	0.770825	0.510031	0.158040
H212	H	0.773183	0.388110	0.211091
O213	O	0.164235	0.543757	0.112741
C214	C	0.155921	0.463136	0.156716
H215	H	0.116976	0.491975	0.164528
H216	H	0.184308	0.402381	0.225982
H217	H	0.159757	0.429859	0.115198
O218	O	0.457034	1.247286	-0.607857
C219	C	0.431523	1.196975	-0.597065
H220	H	0.449085	1.123986	-0.527062
H221	H	0.433871	1.178674	-0.649983
H222	H	0.390984	1.247580	-0.605422
O223	O	-0.055707	0.543864	0.112808
C224	C	-0.081342	0.544020	0.177141
H225	H	-0.082319	0.599772	0.191743
H226	H	-0.061577	0.465105	0.241828
H227	H	-0.120857	0.567306	0.149873
H228	H	0.076854	0.558188	0.104842
O229	O	0.449400	1.107168	-0.454110
C230	C	0.410925	1.129980	-0.414580
H231	H	0.421399	1.144278	-0.364145
H232	H	0.404976	1.063770	-0.378478
H233	H	0.375288	1.200337	-0.469152
O234	O	0.519619	0.523681	0.383139
C235	C	0.488710	0.629277	0.337965
H236	H	0.455128	0.657712	0.285684
H237	H	0.510227	0.666665	0.303090
H238	H	0.475782	0.648840	0.388591
O239	O	-0.195466	0.635143	0.062993
C240	C	-0.193448	0.585158	0.154679
H241	H	-0.220343	0.642525	0.168403
H242	H	-0.154189	0.545595	0.197894
H243	H	-0.204180	0.526935	0.171881
O244	O	0.512041	0.383292	0.537021
C245	C	0.476701	0.406529	0.582073
H246	H	0.438845	0.470471	0.530693
H247	H	0.488042	0.430952	0.622401
H248	H	0.474638	0.336957	0.629555
O249	O	-0.375152	0.995436	-0.133698
C250	C	-0.366841	1.076058	-0.177707
H251	H	-0.328945	1.051317	-0.140659
H252	H	-0.396837	1.143090	-0.178169
H253	H	-0.368021	1.098961	-0.249880
O254	O	-0.287910	0.995284	-0.133742
C255	C	-0.262300	0.995173	-0.198112
H256	H	-0.234816	0.913994	-0.175294
H257	H	-0.241444	1.035109	-0.205413
H258	H	-0.289928	1.036327	-0.265679
H259	H	0.260007	1.128479	-0.287434
H260	H	-0.282894	0.649510	0.055020
H261	H	0.025046	1.072390	-0.175696
O262	O	0.172527	1.289673	-0.146748
C263	C	0.170144	1.326634	-0.237871
H264	H	0.199169	1.348564	-0.255073
H265	H	0.131676	1.395701	-0.282358
H266	H	0.177657	1.265529	-0.249866
O267	O	0.456934	0.304935	0.523826
C268	C	0.406692	0.343023	0.522022
H269	H	0.385119	0.428971	0.475916
H270	H	0.403700	0.318740	0.592937
H271	H	0.390630	0.312155	0.495756
O272	O	0.164638	0.995499	-0.133779
C273	C	0.172944	1.076126	-0.177805
H274	H	0.210838	1.051399	-0.140762
H275	H	0.142945	1.143165	-0.178281
H276	H	0.171767	1.099011	-0.249973
H277	H	0.201125	1.314694	-0.582533
O278	O	0.552052	1.123651	-0.274112
C279	C	0.534140	1.207744	-0.268176
H280	H	0.517967	1.279641	-0.338723
H281	H	0.565887	1.199546	-0.228427
H282	H	0.504085	1.212046	-0.232579
O283	O	0.559666	1.263862	-0.427931
C284	C	0.557891	1.333446	-0.514910
H285	H	0.548734	1.316136	-0.563801
H286	H	0.595418	1.327176	-0.513779
H287	H	0.528087	1.413291	-0.537482
H288	H	0.511553	1.314585	-0.582458
H289	H	0.413882	0.372992	0.358000
H290	H	0.024382	0.558182	0.104852
H291	H	-0.187953	1.072358	-0.175694
H292	H	0.252039	0.981057	-0.125927
H293	H	0.454040	0.934180	-0.586932
O294	O	-0.107989	1.086804	-0.183619
C295	C	-0.157717	1.167421	-0.227588
H296	H	-0.181850	1.138576	-0.235389
H297	H	-0.160547	1.228176	-0.296858
H298	H	-0.170965	1.200700	-0.186071
