data_functionalizedCrystal
_audit_creation_method	'MofGen! by Chris Wilmer'
_symmetry_space_group_name_H-M	'P1'
_symmetry_Int_Tables_number	1
_symmetry_cell_setting	triclinic
loop_
_symmetry_equiv_pos_as_xyz
  x,y,z
_cell_length_a	11.169416
_cell_length_b	16.120490
_cell_length_c	11.169409
_cell_angle_alpha	87.080796
_cell_angle_beta	89.969126
_cell_angle_gamma	87.103007
loop_
_atom_site_label
_atom_site_type_symbol
_atom_site_fract_x
_atom_site_fract_y
_atom_site_fract_z
Zn1	Zn	-0.570970	1.274675	-0.771562
Zn2	Zn	-0.771705	1.274598	-0.570878
Zn3	Zn	-0.560839	1.135247	-0.560723
Zn4	Zn	-0.761409	1.135252	-0.761355
O5	O	-0.666231	1.204943	-0.666129
O6	O	-0.606147	1.391333	-0.753462
O7	O	-0.743803	1.256079	-0.401579
O8	O	-0.394236	1.153773	-0.588712
O9	O	-0.753626	1.391277	-0.606020
O10	O	-0.401679	1.256210	-0.743615
O11	O	-0.588880	1.153698	-0.394117
O12	O	-0.578897	1.018580	-0.578816
O13	O	-0.736078	1.153781	-0.930662
O14	O	-0.726255	1.018584	-0.726220
O15	O	-0.596164	1.256215	-0.938160
O16	O	-0.938287	1.256084	-0.596124
O17	O	-0.930723	1.153707	-0.736067
C18	C	-0.650360	0.988331	-0.650309
C19	C	-0.643599	0.895663	-0.643569
C20	C	-0.978053	1.204910	-0.666118
C21	C	-1.111458	1.204972	-0.666159
C22	C	-0.701292	0.684734	-0.701091
C23	C	-0.631266	0.726004	-0.631263
C24	C	-0.638130	0.820411	-0.638112
C25	C	-0.694429	0.590318	-0.694243
C26	C	-0.353193	1.204999	-0.666169
C27	C	-0.219795	1.205023	-0.666186
C28	C	-0.666103	1.205007	-0.979177
C29	C	-0.666048	1.205035	-1.112579
C30	C	-0.682165	1.422401	-0.682012
C31	C	-0.688955	1.515069	-0.688781
C32	C	-0.666276	1.204927	-0.354303
C33	C	-0.666005	1.205062	-0.220914
H34	H	-0.566161	0.690434	-0.566337
C35	C	-0.789248	0.732779	-0.788784
H36	H	-0.782386	0.790847	-0.781926
H37	H	-0.770778	0.718593	-0.868448
H38	H	-0.868856	0.718554	-0.770055
