data_functionalizedCrystal
_audit_creation_method	'MofGen! by Chris Wilmer'
_symmetry_space_group_name_H-M	'P1'
_symmetry_Int_Tables_number	1
_symmetry_cell_setting	triclinic
loop_
_symmetry_equiv_pos_as_xyz
  x,y,z
_cell_length_a	19.805407
_cell_length_b	19.805405
_cell_length_c	19.805399
_cell_angle_alpha	90.028022
_cell_angle_beta	90.015116
_cell_angle_gamma	90.024042
loop_
_atom_site_label
_atom_site_type_symbol
_atom_site_fract_x
_atom_site_fract_y
_atom_site_fract_z
Zn1	Zn	1.034716	-0.269518	0.382692
Zn2	Zn	1.368050	0.063815	0.716026
Zn3	Zn	1.701383	0.397149	1.049359
Zn4	Zn	1.034636	-0.382709	0.269506
Zn5	Zn	1.367969	-0.049376	0.602839
Zn6	Zn	1.701302	0.283958	0.936173
Zn7	Zn	0.921536	-0.269534	0.269520
Zn8	Zn	1.254870	0.063799	0.602854
Zn9	Zn	1.588203	0.397133	0.936187
Zn10	Zn	0.921494	-0.382665	0.382656
Zn11	Zn	1.254827	-0.049332	0.715989
Zn12	Zn	1.588160	0.284002	1.049323
O13	O	0.978095	-0.326107	0.326094
O14	O	1.311429	0.007227	0.659427
O15	O	1.644762	0.340560	0.992760
O16	O	1.129422	-0.284545	0.367687
O17	O	1.462755	0.048789	0.701020
O18	O	1.796089	0.382122	1.034354
O19	O	1.019617	-0.367721	0.174791
O20	O	1.352950	-0.034388	0.508124
O21	O	1.686284	0.298945	0.841458
O22	O	0.936601	-0.174815	0.284554
O23	O	1.269935	0.158518	0.617887
O24	O	1.603268	0.491851	0.951221
O25	O	1.129363	-0.367706	0.284529
O26	O	1.462696	-0.034372	0.617863
O27	O	1.796030	0.298961	0.951196
O28	O	1.019754	-0.174803	0.367701
O29	O	1.353087	0.158530	0.701034
O30	O	1.686421	0.491863	1.034368
O31	O	0.936523	-0.284572	0.174802
O32	O	1.269856	0.048761	0.508135
O33	O	1.603190	0.382094	0.841468
O34	O	0.826814	-0.284529	0.284519
O35	O	1.160147	0.048804	0.617852
O36	O	1.493481	0.382137	0.951186
O37	O	0.936529	-0.367631	0.477378
O38	O	1.269862	-0.034297	0.810711
O39	O	1.603196	0.299036	1.144044
O40	O	0.826783	-0.367646	0.367639
O41	O	1.160116	-0.034313	0.700973
O42	O	1.493449	0.299020	1.034306
O43	O	1.019713	-0.284502	0.477404
O44	O	1.353046	0.048831	0.810737
O45	O	1.686380	0.382165	1.144071
O46	O	1.019576	-0.477420	0.284494
O47	O	1.352909	-0.144087	0.617828
O48	O	1.686242	0.189247	0.951161
O49	O	0.936451	-0.477387	0.367625
O50	O	1.269784	-0.144054	0.700959
O51	O	1.603118	0.189279	1.034292
C52	C	0.802239	-0.326085	0.326077
C53	C	1.135573	0.007248	0.659411
C54	C	1.468906	0.340581	0.992744
C55	C	0.727007	-0.326093	0.326086
C56	C	1.060341	0.007241	0.659420
C57	C	1.393674	0.340574	0.992753
C58	C	0.691695	-0.282867	0.369452
C59	C	1.025028	0.050466	0.702785
C60	C	1.358361	0.383799	1.036119
C61	C	0.621006	-0.282871	0.369455
C62	C	0.954340	0.050463	0.702788
C63	C	1.287673	0.383796	1.036121
C64	C	0.585632	-0.326104	0.326094
C65	C	0.918965	0.007230	0.659428
C66	C	1.252299	0.340563	0.992761
C67	C	0.620950	-0.369331	0.282724
C68	C	0.954283	-0.035998	0.616057
C69	C	1.287616	0.297336	0.949390
C70	C	0.691637	-0.369323	0.282718
C71	C	1.024970	-0.035990	0.616051
C72	C	1.358303	0.297343	0.949385
C73	C	0.335876	-0.369361	0.282744
C74	C	0.669210	-0.036028	0.616078
C75	C	1.002543	0.297305	0.949411
C76	C	0.265184	-0.369367	0.282755
C77	C	0.598518	-0.036034	0.616088
C78	C	0.931851	0.297300	0.949421
C79	C	0.265246	-0.282909	0.369481
C80	C	0.598579	0.050425	0.702814
C81	C	0.931913	0.383758	1.036148
C82	C	0.335933	-0.282901	0.369476
C83	C	0.669266	0.050432	0.702809
C84	C	1.002600	0.383765	1.036142
C85	C	0.371245	-0.326126	0.326103
C86	C	0.704578	0.007208	0.659436
C87	C	1.037911	0.340541	0.992769
C88	C	0.447893	-0.326120	0.326099
C89	C	0.781226	0.007213	0.659433
C90	C	1.114560	0.340546	0.992766
C91	C	0.508985	-0.326113	0.326100
C92	C	0.842318	0.007221	0.659434
C93	C	1.175651	0.340554	0.992767
C94	C	0.978018	-0.501963	0.326069
C95	C	1.311352	-0.168629	0.659402
C96	C	1.644685	0.164704	0.992736
C97	C	0.978047	-0.577195	0.326081
C98	C	1.311381	-0.243861	0.659415
C99	C	1.644714	0.089472	0.992748
C100	C	1.021319	-0.612474	0.369410
C101	C	1.354653	-0.279141	0.702743
C102	C	1.687986	0.054192	1.036076
C103	C	1.021344	-0.683163	0.369422
C104	C	1.354677	-0.349829	0.702756
C105	C	1.688010	-0.016496	1.036089
C106	C	0.978099	-0.718570	0.326103
C107	C	1.311432	-0.385237	0.659436
C108	C	1.644766	-0.051903	0.992769
C109	C	0.934822	-0.683285	0.282772
C110	C	1.268156	-0.349952	0.616105
C111	C	1.601489	-0.016619	0.949439
C112	C	0.934795	-0.612598	0.282763
C113	C	1.268128	-0.279265	0.616097
C114	C	1.601462	0.054068	0.949430
C115	C	0.934931	-0.968359	0.282807
C116	C	1.268264	-0.635025	0.616140
C117	C	1.601598	-0.301692	0.949473
C118	C	0.934963	-1.039051	0.282817
C119	C	1.268296	-0.705717	0.616151
C120	C	1.601630	-0.372384	0.949484
C121	C	1.021480	-1.038923	0.369466
C122	C	1.354813	-0.705590	0.702799
C123	C	1.688147	-0.372256	1.036132
C124	C	1.021453	-0.968236	0.369457
C125	C	1.354786	-0.634903	0.702790
C126	C	1.688119	-0.301569	1.036124
C127	C	0.978173	-0.932957	0.326129
C128	C	1.311507	-0.599624	0.659463
C129	C	1.644840	-0.266291	0.992796
C130	C	0.978147	-0.856309	0.326117
C131	C	1.311480	-0.522976	0.659451
C132	C	1.644813	-0.189642	0.992784
C133	C	0.978129	-0.795217	0.326111
C134	C	1.311462	-0.461884	0.659444
C135	C	1.644796	-0.128551	0.992778
C136	C	1.154638	-0.326128	0.326111
C137	C	1.487971	0.007205	0.659444
C138	C	1.821305	0.340538	0.992777
C139	C	1.229870	-0.326138	0.326118
C140	C	1.563203	0.007196	0.659451
C141	C	1.896537	0.340529	0.992784
C142	C	0.978125	-0.326060	0.502636
C143	C	1.311458	0.007274	0.835970
C144	C	1.644792	0.340607	1.169303
C145	C	0.978138	-0.326040	0.577868
C146	C	1.311471	0.007294	0.911202
C147	C	1.644804	0.340627	1.244535
C148	C	0.978191	-0.149564	0.326133
C149	C	1.311525	0.183770	0.659466
C150	C	1.644858	0.517103	0.992800
C151	C	0.978232	-0.074332	0.326150
C152	C	1.311566	0.259002	0.659483
C153	C	1.644899	0.592335	0.992816
C154	C	0.978105	-0.326104	0.150238
C155	C	1.311438	0.007229	0.483571
C156	C	1.644772	0.340562	0.816904
C157	C	0.978223	-0.325934	0.075006
C158	C	1.311557	0.007400	0.408339
C159	C	1.644890	0.340733	0.741673
C160	C	0.934883	-0.282740	0.613218
C161	C	1.268217	0.050594	0.946551
C162	C	1.601550	0.383927	1.279884
C163	C	0.934893	-0.282727	0.683906
C164	C	1.268226	0.050607	1.017239
C165	C	1.601559	0.383940	1.350573
C166	C	0.978160	-0.326010	0.719244
C167	C	1.311494	0.007323	1.052577
C168	C	1.644827	0.340656	1.385911
C169	C	1.021417	-0.369315	0.683890
C170	C	1.354750	-0.035982	1.017223
C171	C	1.688084	0.297352	1.350557
C172	C	1.021404	-0.369331	0.613203
C173	C	1.354737	-0.035998	0.946536
C174	C	1.688070	0.297336	1.279869
C175	C	1.021471	-0.369252	0.968963
C176	C	1.354804	-0.035918	1.302297
C177	C	1.688137	0.297415	1.635630
C178	C	1.021482	-0.369231	1.039656
C179	C	1.354815	-0.035897	1.372989
C180	C	1.688149	0.297436	1.706322
C181	C	0.934959	-0.282647	1.039667
C182	C	1.268293	0.050686	1.373000
C183	C	1.601626	0.384020	1.706333
C184	C	0.934946	-0.282663	0.968980
C185	C	1.268280	0.050670	1.302313
C186	C	1.601613	0.384003	1.635646
C187	C	0.978200	-0.325970	0.933632
C188	C	1.311533	0.007363	1.266965
C189	C	1.644867	0.340697	1.600298
C190	C	0.978188	-0.325985	0.856983
C191	C	1.311522	0.007349	1.190316
C192	C	1.644855	0.340682	1.523650
C193	C	0.978176	-0.325993	0.795891
C194	C	1.311509	0.007341	1.129225
C195	C	1.644842	0.340674	1.462558
H196	H	0.720387	-0.404522	0.247405
H197	H	1.053721	-0.071188	0.580738
H198	H	1.387054	0.262145	0.914071
H199	H	0.592258	-0.247674	0.404769
H200	H	0.925591	0.085660	0.738102
H201	H	1.258924	0.418993	1.071436
N202	N	1.068141	-0.415925	1.077776
N203	N	1.401475	-0.082591	1.411109
N204	N	1.734808	0.250742	1.744443
H205	H	1.099531	-0.388418	1.107113
H206	H	1.432864	-0.055084	1.440446
H207	H	1.766197	0.278249	1.773780
H208	H	1.095494	-0.443357	1.044618
H209	H	1.428828	-0.110024	1.377951
H210	H	1.762161	0.223310	1.711284
H211	H	0.592142	-0.404529	0.247416
H212	H	0.925475	-0.071195	0.580749
H213	H	1.258809	0.262138	0.914082
H214	H	0.899557	-0.583874	0.247482
H215	H	1.232891	-0.250541	0.580815
H216	H	1.566224	0.082792	0.914148
N217	N	0.729846	-0.236241	0.416224
N218	N	1.063180	0.097092	0.749558
N219	N	1.396513	0.430425	1.082891
H220	H	0.696747	-0.208858	0.443696
H221	H	1.030080	0.124475	0.777029
H222	H	1.363413	0.457808	1.110362
H223	H	0.759176	-0.204880	0.388727
H224	H	1.092510	0.128454	0.722061
H225	H	1.425843	0.461787	1.055394
N226	N	1.068024	-0.721213	0.416149
N227	N	1.401357	-0.387879	0.749482
N228	N	1.734691	-0.054546	1.082816
H229	H	1.061479	-0.771365	0.409584
H230	H	1.394813	-0.438032	0.742918
H231	H	1.728146	-0.104699	1.076251
H232	H	1.057459	-0.708834	0.464479
H233	H	1.390792	-0.375501	0.797812
H234	H	1.724125	-0.042168	1.131145
H235	H	0.899609	-0.712120	0.247503
H236	H	1.232942	-0.378786	0.580836
H237	H	1.566275	-0.045453	0.914170
N238	N	0.227153	-0.236280	0.416252
N239	N	0.560486	0.097053	0.749585
N240	N	0.893819	0.430387	1.082919
H241	H	0.239470	-0.187905	0.405825
H242	H	0.572803	0.145428	0.739159
H243	H	0.906136	0.478761	1.072492
H244	H	0.239479	-0.246911	0.464575
H245	H	0.572812	0.086422	0.797909
H246	H	0.906146	0.419756	1.131242
H247	H	1.056631	-0.404585	0.584422
H248	H	1.389964	-0.071252	0.917756
H249	H	1.723298	0.262081	1.251089
N250	N	1.068096	-0.930046	0.416179
N251	N	1.401429	-0.596713	0.749512
N252	N	1.734763	-0.263380	1.082845
H253	H	1.095512	-0.963123	0.443631
H254	H	1.428845	-0.629790	0.776965
H255	H	1.762179	-0.296456	1.110298
H256	H	1.040510	-0.900722	0.447471
H257	H	1.373843	-0.567389	0.780805
H258	H	1.707177	-0.234055	1.114138
N259	N	0.227028	-0.415998	0.235985
N260	N	0.560361	-0.082664	0.569318
N261	N	0.893694	0.250669	0.902651
H262	H	0.260123	-0.443378	0.208505
H263	H	0.593456	-0.110045	0.541839
H264	H	0.926790	0.223289	0.875172
H265	H	0.197695	-0.388404	0.204718
H266	H	0.531029	-0.055071	0.538052
H267	H	0.864362	0.278262	0.871385
H268	H	1.056537	-0.583650	0.404683
H269	H	1.389870	-0.250317	0.738016
H270	H	1.723204	0.083016	1.071349
N271	N	0.888237	-0.236027	0.722034
N272	N	1.221571	0.097306	1.055367
N273	N	1.554904	0.430640	1.388700
H274	H	0.860828	-0.208607	0.688921
H275	H	1.194162	0.124726	1.022254
H276	H	1.527495	0.458060	1.355588
H277	H	0.915811	-0.204703	0.751375
H278	H	1.249144	0.128631	1.084708
H279	H	1.582478	0.461964	1.418042
H280	H	1.056718	-1.067655	0.404747
H281	H	1.390051	-0.734322	0.738081
H282	H	1.723384	-0.400989	1.071414
N283	N	0.888319	-1.077243	0.236091
N284	N	1.221653	-0.743909	0.569424
N285	N	1.554986	-0.410576	0.902758
H286	H	0.860897	-1.044168	0.208642
H287	H	1.194230	-0.710835	0.541976
H288	H	1.527563	-0.377502	0.875309
H289	H	0.856995	-1.106583	0.263621
H290	H	1.190328	-0.773249	0.596954
H291	H	1.523661	-0.439916	0.930287
N292	N	0.374087	-0.236276	0.416246
N293	N	0.707420	0.097058	0.749579
N294	N	1.040754	0.430391	1.082913
H295	H	0.340990	-0.208891	0.443719
H296	H	0.674323	0.124442	0.777052
H297	H	1.007656	0.457775	1.110385
H298	H	0.403416	-0.204915	0.388747
H299	H	0.736750	0.128418	0.722080
H300	H	1.070083	0.461752	1.055414
N301	N	1.068120	-0.415957	0.930841
N302	N	1.401454	-0.082624	1.264174
N303	N	1.734787	0.250710	1.597508
H304	H	1.095534	-0.443372	0.963954
H305	H	1.428867	-0.110039	1.297287
H306	H	1.762201	0.223295	1.630620
H307	H	1.099453	-0.388417	0.901521
H308	H	1.432786	-0.055084	1.234854
H309	H	1.766119	0.278250	1.568187
H310	H	0.899693	-0.939640	0.247527
H311	H	1.233026	-0.606307	0.580860
H312	H	1.566360	-0.272974	0.914193
N313	N	0.888222	-0.236048	0.575105
N314	N	1.221555	0.097285	0.908439
N315	N	1.554889	0.430619	1.241772
H316	H	0.860822	-0.208616	0.608228
H317	H	1.194155	0.124717	0.941561
H318	H	1.527489	0.458051	1.274895
H319	H	0.856877	-0.263599	0.545765
H320	H	1.190211	0.069735	0.879098
H321	H	1.523544	0.403068	1.212432
H322	H	0.899715	-0.247415	0.940211
H323	H	1.233049	0.085919	1.273544
H324	H	1.566382	0.419252	1.606877
N325	N	0.888293	-0.235949	1.077793
N326	N	1.221627	0.097384	1.411127
N327	N	1.554960	0.430718	1.744460
H328	H	0.915816	-0.204580	1.107139
H329	H	1.249149	0.128753	1.440472
H330	H	1.582483	0.462086	1.773805
H331	H	0.856927	-0.263501	1.107067
H332	H	1.190260	0.069832	1.440400
H333	H	1.523594	0.403166	1.773733
N334	N	0.373957	-0.415978	0.235964
N335	N	0.707291	-0.082644	0.569297
N336	N	1.040624	0.250689	0.902631
H337	H	0.340819	-0.443366	0.208499
H338	H	0.674153	-0.110033	0.541832
H339	H	1.007486	0.223300	0.875166
H340	H	0.403288	-0.447335	0.263453
H341	H	0.736622	-0.114002	0.596786
H342	H	1.069955	0.219332	0.930119
N343	N	1.068078	-0.416009	0.722001
N344	N	1.401411	-0.082675	1.055334
N345	N	1.734744	0.250658	1.388667
H346	H	1.061524	-0.409429	0.772145
H347	H	1.394857	-0.076096	1.105478
H348	H	1.728190	0.257238	1.438812
H349	H	1.116422	-0.405488	0.709652
H350	H	1.449756	-0.072155	1.042986
H351	H	1.783089	0.261179	1.376319
