data_functionalizedCrystal
_audit_creation_method	'MofGen! by Chris Wilmer'
_symmetry_space_group_name_H-M	'P1'
_symmetry_Int_Tables_number	1
_symmetry_cell_setting	triclinic
loop_
_symmetry_equiv_pos_as_xyz
  x,y,z
_cell_length_a	14.044220
_cell_length_b	14.971486
_cell_length_c	13.448316
_cell_angle_alpha	89.998199
_cell_angle_beta	90.007340
_cell_angle_gamma	91.598497
loop_
_atom_site_label
_atom_site_type_symbol
_atom_site_fract_x
_atom_site_fract_y
_atom_site_fract_z
O1	O	0.123538	-1.196679	0.082579
O2	O	0.623538	-0.696679	0.582579
O3	O	0.138332	-0.937445	0.082607
O4	O	0.638332	-0.437445	0.582607
O5	O	-0.007054	-1.063171	0.082584
O6	O	0.492946	-0.563171	0.582584
O7	O	0.268924	-1.070953	0.082602
O8	O	0.768924	-0.570953	0.582602
O9	O	-0.007063	-1.063153	-0.082800
O10	O	0.492937	-0.563153	0.417200
O11	O	0.138323	-0.937427	-0.082777
O12	O	0.638323	-0.437427	0.417223
O13	O	0.123529	-1.196661	-0.082804
O14	O	0.623529	-0.696661	0.417196
Cu15	Cu	0.130925	-1.067042	-0.097892
Cu16	Cu	0.630925	-0.567042	0.402108
Cu17	Cu	0.130936	-1.067064	0.097694
Cu18	Cu	0.630936	-0.567064	0.597694
O19	O	0.268915	-1.070935	-0.082781
O20	O	0.768915	-0.570935	0.417219
C21	C	0.137666	-0.904059	-0.000082
C22	C	0.637666	-0.404059	0.499918
C23	C	0.135683	-0.804606	-0.000072
C24	C	0.635683	-0.304606	0.499928
C25	C	-0.042377	-1.059755	-0.000108
C26	C	0.457623	-0.559755	0.499892
C27	C	-0.147614	-1.049594	-0.000108
C28	C	0.352386	-0.549594	0.499892
C29	C	0.124195	-1.230047	-0.000114
C30	C	0.624195	-0.730047	0.499886
C31	C	0.126178	-1.329501	-0.000117
C32	C	0.626178	-0.829501	0.499883
C33	C	-0.340297	-1.031018	-0.000092
C34	C	0.159703	-0.531018	0.499908
C35	C	-0.397848	-1.103085	-0.000097
C36	C	0.102152	-0.603085	0.499903
C37	C	-0.505063	-1.092748	-0.000088
C38	C	-0.005063	-0.592748	0.499912
C39	C	-0.233071	-1.041353	-0.000101
C40	C	0.266929	-0.541353	0.499899
C41	C	0.304238	-1.074351	-0.000087
C42	C	0.804238	-0.574351	0.499913
C43	C	0.409475	-1.084512	-0.000080
C44	C	0.909475	-0.584512	0.499920
N45	N	0.130917	-1.067034	-0.235456
N46	N	0.630917	-0.567034	0.264544
C47	C	0.221093	-0.754109	-0.000067
C48	C	0.721093	-0.254109	0.499933
C49	C	0.219225	-0.660662	-0.000082
C50	C	0.719225	-0.160662	0.499918
C51	C	0.131945	-0.617714	-0.000094
C52	C	0.631945	-0.117714	0.499906
C53	C	0.046528	-0.668218	-0.000102
C54	C	0.546528	-0.168218	0.499898
C55	C	0.048398	-0.761663	-0.000094
C56	C	0.548398	-0.261663	0.499906
C57	C	0.042638	-0.473449	-0.000116
C58	C	0.542638	0.026551	0.499884
C59	C	0.040767	-0.379997	-0.000122
C60	C	0.540767	0.120003	0.499878
C61	C	0.213465	-0.372448	-0.000104
C62	C	0.713465	0.127552	0.499896
C63	C	0.215334	-0.465893	-0.000096
C64	C	0.715334	0.034107	0.499904
C65	C	0.129917	-0.516390	-0.000102
C66	C	0.629917	-0.016390	0.499898
C67	C	0.066567	-1.122727	-0.287506
C68	C	0.566567	-0.622727	0.212494
C69	C	0.066566	-1.122732	-0.391610
C70	C	0.566566	-0.622732	0.108390
C71	C	0.130921	-1.067049	-0.443660
C72	C	0.630921	-0.567049	0.056340
C73	C	0.195274	-1.011350	-0.391603
C74	C	0.695274	-0.511350	0.108397
C75	C	0.195270	-1.011341	-0.287501
C76	C	0.695270	-0.511341	0.212499
C77	C	0.195281	-1.011376	-0.608583
C78	C	0.695281	-0.511376	-0.108583
C79	C	0.195287	-1.011386	-0.712691
C80	C	0.695287	-0.511386	-0.212691
C81	C	0.066577	-1.122767	-0.712691
C82	C	0.566577	-0.622767	-0.212691
C83	C	0.066572	-1.122757	-0.608590
C84	C	0.566572	-0.622757	-0.108590
C85	C	0.130927	-1.067060	-0.556539
C86	C	0.630927	-0.567060	-0.056539
N87	N	0.130936	-1.067079	0.235258
N88	N	0.630936	-0.567079	0.735258
H89	H	-0.371545	-0.961562	-0.000082
H90	H	0.128455	-0.461562	0.499918
H91	H	0.292167	-0.789070	-0.000056
H92	H	0.792167	-0.289070	0.499944
H93	H	0.014166	-1.168080	-0.433989
H94	H	0.514166	-0.668080	0.066011
O95	O	0.311345	-0.606194	-0.000078
O96	O	0.811345	-0.106194	0.499922
H97	H	0.372350	-0.651757	-0.000056
H98	H	0.872350	-0.151757	0.499944
O99	O	-0.356467	-1.195099	-0.000124
O100	O	0.143533	-0.695099	0.499876
H101	H	-0.277528	-1.188886	-0.000141
H102	H	0.222472	-0.688886	0.499859
O103	O	0.264695	-0.951308	-0.552436
O104	O	0.764695	-0.451308	-0.052436
H105	H	0.309455	-0.912598	-0.606117
H106	H	0.809455	-0.412598	-0.106117
O107	O	-0.053371	-0.333676	-0.000148
O108	O	0.446629	0.166324	0.499852
H109	H	-0.058338	-0.291282	-0.067558
H110	H	0.441662	0.208718	0.432442
H111	H	0.286405	-0.500859	-0.000077
H112	H	0.786405	-0.000859	0.499923
H113	H	-0.026919	-0.514561	-0.000122
H114	H	0.473081	-0.014561	0.499878
O115	O	-0.043728	-0.816126	-0.000098
O116	O	0.456272	-0.316126	0.499902
H117	H	-0.047010	-0.858873	-0.067510
H118	H	0.452990	-0.358873	0.432490
O119	O	-0.002832	-1.182852	-0.768820
O120	O	0.497168	-0.682852	-0.268820
H121	H	-0.076756	-1.165577	-0.748845
H122	H	0.423244	-0.665577	-0.248845
O123	O	0.305598	-0.317992	-0.000109
O124	O	0.805598	0.182008	0.499891
H125	H	0.289639	-0.245798	-0.000131
H126	H	0.789639	0.254202	0.499869
H127	H	0.247669	-0.965989	-0.245123
H128	H	0.747669	-0.465989	0.254877
H129	H	-0.024537	-0.633242	-0.000126
H130	H	0.475463	-0.133242	0.499874
H131	H	0.014166	-1.168074	-0.245134
H132	H	0.514166	-0.668074	0.254866
H133	H	0.247690	-0.966042	-0.755066
H134	H	0.747690	-0.466042	-0.255066
O135	O	-0.002839	-1.182810	-0.552443
O136	O	0.497161	-0.682810	-0.052443
H137	H	-0.047596	-1.221535	-0.606124
H138	H	0.452404	-0.721535	-0.106124
O139	O	0.264696	-0.951297	-0.447736
O140	O	0.764696	-0.451297	0.052264
H141	H	0.224724	-0.904646	-0.495190
H142	H	0.724724	-0.404646	0.004810
