data_functionalizedCrystal
_audit_creation_method	'MofGen! by Chris Wilmer'
_symmetry_space_group_name_H-M	'P1'
_symmetry_Int_Tables_number	1
_symmetry_cell_setting	triclinic
loop_
_symmetry_equiv_pos_as_xyz
  x,y,z
_cell_length_a	12.759393
_cell_length_b	17.077404
_cell_length_c	17.077402
_cell_angle_alpha	89.974547
_cell_angle_beta	89.965806
_cell_angle_gamma	90.021267
loop_
_atom_site_label
_atom_site_type_symbol
_atom_site_fract_x
_atom_site_fract_y
_atom_site_fract_z
Zn1	Zn	-0.594043	-1.200056	-0.312463
Zn2	Zn	-0.418352	-1.199953	-0.443750
Zn3	Zn	-0.418373	-1.068783	-0.312503
Zn4	Zn	-0.593984	-1.068750	-0.443692
O5	O	-0.506188	-1.134386	-0.378102
O6	O	-0.570753	-1.309889	-0.329887
O7	O	-0.271334	-1.182524	-0.426381
O8	O	-0.441709	-1.086254	-0.202651
O9	O	-0.441674	-1.309814	-0.426343
O10	O	-0.570773	-1.182699	-0.202622
O11	O	-0.271349	-1.086154	-0.329954
O12	O	-0.441652	-0.958932	-0.329897
O13	O	-0.741013	-1.086197	-0.426243
O14	O	-0.570673	-0.958907	-0.426281
O15	O	-0.741056	-1.182666	-0.329830
O16	O	-0.441617	-1.182492	-0.553589
O17	O	-0.570653	-1.086098	-0.553546
C18	C	-0.506150	-1.134301	-0.582050
C19	C	-0.506168	-1.134337	-0.669300
C20	C	-0.506159	-0.930438	-0.378088
C21	C	-0.506172	-0.843188	-0.378101
C22	C	-0.780222	-1.134439	-0.378026
C23	C	-0.896998	-1.134462	-0.377993
C24	C	-1.061565	-1.084271	-0.428146
C25	C	-0.951840	-1.084247	-0.428175
C26	C	-0.951886	-1.184700	-0.327775
C27	C	-1.061608	-1.184720	-0.327743
C28	C	-1.116401	-1.034058	-0.478336
C29	C	-1.061521	-0.983819	-0.528554
C30	C	-0.951797	-0.983795	-0.528583
C31	C	-0.896953	-1.034009	-0.478393
C32	C	-0.233221	-1.134377	-0.378121
C33	C	-0.116445	-1.134506	-0.377933
C34	C	-0.506218	-1.339130	-0.378117
C35	C	-0.506230	-1.426380	-0.378123
C36	C	-0.573245	-0.802205	-0.428364
C37	C	-0.573262	-0.720225	-0.428365
C38	C	-0.506199	-0.679228	-0.378107
C39	C	-0.439123	-0.720217	-0.327839
C40	C	-0.439112	-0.802196	-0.327834
C41	C	-0.439148	-0.549347	-0.327855
C42	C	-0.439157	-0.467362	-0.327860
C43	C	-0.573298	-0.467376	-0.428386
C44	C	-0.573287	-0.549355	-0.428381
C45	C	-0.506209	-0.590337	-0.378113
C46	C	-0.573514	-1.184691	-1.045035
C47	C	-0.573490	-1.184655	-0.963055
C48	C	-0.506231	-1.134461	-0.922149
C49	C	-0.438985	-1.084305	-0.963227
C50	C	-0.439005	-1.084345	-1.045206
C51	C	-0.438949	-1.084224	-0.792357
C52	C	-0.438930	-1.084183	-0.710372
C53	C	-0.573434	-1.184535	-0.710206
C54	C	-0.573454	-1.184575	-0.792185
C55	C	-0.506209	-1.134417	-0.833258
C56	C	-0.506250	-1.134491	-0.173358
C57	C	-0.506276	-1.134536	-0.086108
H58	H	-1.205744	-1.034073	-0.478320
F59	F	-0.645106	-1.238112	-1.088564
H60	H	-0.628186	-1.225375	-0.676760
H61	H	-0.384216	-1.043439	-0.929916
F62	F	-0.644619	-0.845830	-0.481860
H63	H	-0.628225	-1.225445	-0.825489
F64	F	-0.367333	-1.030771	-0.666838
F65	F	-0.367375	-1.030843	-0.836068
F66	F	-0.367437	-1.030966	-1.088918
H67	H	-1.106182	-0.942930	-0.569411
H68	H	-0.627918	-0.434004	-0.469313
H69	H	-1.106293	-1.225622	-0.286851
H70	H	-0.807608	-1.033983	-0.478419
F71	F	-0.893392	-0.930321	-0.582021
H72	H	-0.628240	-1.225495	-0.929614
F73	F	-0.644651	-0.676612	-0.481862
F74	F	-0.367725	-0.845812	-0.274336
H75	H	-0.907223	-1.225582	-0.286913
H76	H	-0.384561	-0.433985	-0.286927
F77	F	-0.367757	-0.592961	-0.274353
F78	F	-0.644656	-0.592985	-0.481876
H79	H	-0.384524	-0.686831	-0.286915
