data_functionalizedCrystal
_audit_creation_method	'MofGen! by Chris Wilmer'
_symmetry_space_group_name_H-M	'P1'
_symmetry_Int_Tables_number	1
_symmetry_cell_setting	triclinic
loop_
_symmetry_equiv_pos_as_xyz
  x,y,z
_cell_length_a	10.654550
_cell_length_b	10.654550
_cell_length_c	9.730223
_cell_angle_alpha	89.995747
_cell_angle_beta	89.999957
_cell_angle_gamma	84.484931
loop_
_atom_site_label
_atom_site_type_symbol
_atom_site_fract_x
_atom_site_fract_y
_atom_site_fract_z
O1	O	1.667839	0.176399	-0.114187
O2	O	2.167839	0.676399	0.385813
O3	O	1.302361	0.193205	-0.114212
O4	O	1.802361	0.693205	0.385788
O5	O	1.493503	0.002062	-0.114190
O6	O	1.993503	0.502062	0.385810
O7	O	1.476697	0.367541	-0.114209
O8	O	1.976697	0.867541	0.385791
O9	O	1.493490	0.002057	0.114390
O10	O	1.993490	0.502057	0.614390
O11	O	1.302348	0.193199	0.114368
O12	O	1.802348	0.693199	0.614368
O13	O	1.667827	0.176393	0.114393
O14	O	2.167827	0.676393	0.614393
Zn15	Zn	1.485085	0.184796	0.150672
Zn16	Zn	1.985085	0.684796	0.650672
Zn17	Zn	1.485102	0.184802	-0.150492
Zn18	Zn	1.985102	0.684802	0.349508
O19	O	1.476684	0.367536	0.114371
O20	O	1.976684	0.867536	0.614371
C21	C	1.255556	0.191968	0.000075
C22	C	1.755556	0.691968	0.500075
C23	C	1.116113	0.188276	0.000065
C24	C	1.616113	0.688276	0.500065
C25	C	1.036628	0.300818	0.000064
C26	C	1.536628	0.800818	0.500064
C27	C	0.905607	0.297341	0.000088
C28	C	1.405607	0.797341	0.500088
C29	C	0.933570	0.068772	0.000109
C30	C	1.433570	0.568772	0.500109
C31	C	1.064588	0.072250	0.000095
C32	C	1.564588	0.572250	0.500095
C33	C	1.492263	-0.044738	0.000099
C34	C	1.992263	0.455262	0.500099
C35	C	1.488571	-0.184181	0.000096
C36	C	1.988571	0.315819	0.500096
C37	C	1.601112	-0.263667	0.000104
C38	C	2.101112	0.236333	0.500104
C39	C	1.597636	-0.394688	0.000087
C40	C	2.097636	0.105312	0.500087
C41	C	1.369066	-0.366725	0.000061
C42	C	1.869066	0.133275	0.500061
C43	C	1.372544	-0.235706	0.000068
C44	C	1.872544	0.264294	0.500068
C45	C	1.714631	0.177630	0.000103
C46	C	2.214631	0.677630	0.500103
C47	C	1.854074	0.181322	0.000104
C48	C	2.354074	0.681322	0.500104
C49	C	1.477925	0.414336	0.000079
C50	C	1.977925	0.914336	0.500079
C51	C	1.481617	0.553779	0.000072
C52	C	1.981617	1.053779	0.500072
N53	N	1.485083	0.184790	0.356209
N54	N	1.985083	0.684790	0.856209
N55	N	1.485114	0.184798	-0.356028
N56	N	1.985114	0.684798	0.143972
C57	C	1.569750	0.100188	0.428144
C58	C	2.069750	0.600188	0.928144
C59	C	1.569763	0.100189	0.572027
C60	C	2.069763	0.600189	1.072027
C61	C	1.400438	0.269404	0.572026
C62	C	1.900438	0.769404	1.072026
C63	C	1.400420	0.269396	0.428146
C64	C	1.900420	0.769396	0.928146
H65	H	1.078574	0.395294	0.000049
H66	H	1.578574	0.895294	0.500049
H67	H	0.840894	0.388984	0.000089
H68	H	1.340894	0.888984	0.500089
Br69	Br	1.750378	-0.502558	0.000089
Br70	Br	2.250378	-0.002558	0.500089
H71	H	1.129309	-0.019401	0.000100
H72	H	1.629309	0.480599	0.500100
H73	H	1.280893	-0.170985	0.000058
H74	H	1.780893	0.329015	0.500058
Br75	Br	1.684666	-0.014638	0.669652
Br76	Br	2.184666	0.485362	1.169652
H77	H	1.274601	-0.408693	0.000041
H78	H	1.774601	0.091307	0.500041
H79	H	0.891602	-0.025693	0.000142
H80	H	1.391602	0.474307	0.500142
Br81	Br	1.684648	-0.014637	0.330520
Br82	Br	2.184648	0.485363	0.830520
H83	H	1.331508	0.338290	0.630612
H84	H	1.831508	0.838290	1.130612
Br85	Br	1.285497	0.384211	0.330508
Br86	Br	1.785497	0.884211	0.830508
H87	H	1.695588	-0.221720	0.000124
H88	H	2.195588	0.278280	0.500124
