data_functionalizedCrystal
_audit_creation_method	'MofGen! by Chris Wilmer'
_symmetry_space_group_name_H-M	'P1'
_symmetry_Int_Tables_number	1
_symmetry_cell_setting	triclinic
loop_
_symmetry_equiv_pos_as_xyz
  x,y,z
_cell_length_a	16.109301
_cell_length_b	14.853567
_cell_length_c	15.186229
_cell_angle_alpha	90.000050
_cell_angle_beta	89.999362
_cell_angle_gamma	83.548205
loop_
_atom_site_label
_atom_site_type_symbol
_atom_site_fract_x
_atom_site_fract_y
_atom_site_fract_z
O1	O	1.103293	0.115881	-0.073165
O2	O	1.436627	0.449214	0.260168
O3	O	1.769960	0.782547	0.593501
O4	O	0.861252	0.130302	-0.073178
O5	O	1.194585	0.463635	0.260155
O6	O	1.527918	0.796968	0.593488
O7	O	0.988738	-0.008149	-0.073174
O8	O	1.322071	0.325184	0.260159
O9	O	1.655405	0.658517	0.593492
O10	O	0.975807	0.254332	-0.073170
O11	O	1.309141	0.587665	0.260164
O12	O	1.642474	0.920998	0.593497
O13	O	0.988729	-0.008151	0.073283
O14	O	1.322063	0.325182	0.406616
O15	O	1.655396	0.658515	0.739950
O16	O	0.861243	0.130300	0.073279
O17	O	1.194577	0.463633	0.406612
O18	O	1.527910	0.796967	0.739945
O19	O	1.103285	0.115879	0.073292
O20	O	1.436618	0.449212	0.406625
O21	O	1.769952	0.782545	0.739959
Zn22	Zn	0.982263	0.123089	0.096539
Zn23	Zn	1.315596	0.456422	0.429872
Zn24	Zn	1.648929	0.789756	0.763205
Zn25	Zn	0.982274	0.123092	-0.096425
Zn26	Zn	1.315607	0.456425	0.236908
Zn27	Zn	1.648941	0.789758	0.570241
O28	O	0.975799	0.254330	0.073288
O29	O	1.309132	0.587663	0.406621
O30	O	1.642465	0.920996	0.739954
C31	C	0.830272	0.129717	0.000048
C32	C	1.163605	0.463050	0.333382
C33	C	1.496938	0.796383	0.666715
C34	C	0.737974	0.127965	0.000043
C35	C	1.071307	0.461299	0.333376
C36	C	1.404641	0.794632	0.666710
C37	C	0.515811	0.206047	0.000055
C38	C	0.849145	0.539380	0.333388
C39	C	1.182478	0.872714	0.666721
C40	C	0.429089	0.204395	0.000060
C41	C	0.762422	0.537728	0.333394
C42	C	1.095755	0.871061	0.666727
C43	C	0.448732	0.040127	0.000054
C44	C	0.782065	0.373460	0.333387
C45	C	1.115399	0.706794	0.666720
C46	C	0.535453	0.041781	0.000054
C47	C	0.868787	0.375114	0.333388
C48	C	1.202120	0.708447	0.666721
C49	C	0.568990	0.124743	0.000050
C50	C	0.902323	0.458077	0.333384
C51	C	1.235657	0.791410	0.666717
C52	C	0.395546	0.121437	0.000055
C53	C	0.728880	0.454770	0.333389
C54	C	1.062213	0.788104	0.666722
C55	C	0.301518	0.119645	0.000061
C56	C	0.634851	0.452978	0.333395
C57	C	0.968185	0.786311	0.666728
C58	C	0.663025	0.126536	0.000046
C59	C	0.996358	0.459870	0.333379
C60	C	1.329691	0.793203	0.666713
C61	C	0.988148	-0.041738	0.000052
C62	C	1.321481	0.291595	0.333385
C63	C	1.654814	0.624929	0.666718
C64	C	0.986392	-0.141819	0.000044
C65	C	1.319725	0.191515	0.333377
C66	C	1.653059	0.524848	0.666711
C67	C	0.903241	-0.554215	0.000056
C68	C	1.236574	-0.220882	0.333390
C69	C	1.569907	0.112451	0.666723
C70	C	1.054697	-0.575746	0.000064
C71	C	1.388030	-0.242413	0.333398
C72	C	1.721364	0.090920	0.666731
C73	C	1.056348	-0.481715	0.000059
C74	C	1.389681	-0.148382	0.333393
C75	C	1.723015	0.184951	0.666726
C76	C	0.981444	-0.423930	0.000054
C77	C	1.314777	-0.090596	0.333387
C78	C	1.648111	0.242737	0.666721
C79	C	0.904889	-0.460175	0.000054
C80	C	1.238223	-0.126842	0.333387
C81	C	1.571556	0.206491	0.666721
C82	C	1.132901	-0.445463	0.000068
C83	C	1.466235	-0.112129	0.333402
C84	C	1.799568	0.221204	0.666735
C85	C	1.134555	-0.351426	0.000064
C86	C	1.467889	-0.018093	0.333398
C87	C	1.801222	0.315240	0.666731
C88	C	1.059650	-0.293639	0.000053
C89	C	1.392984	0.039694	0.333386
C90	C	1.726317	0.373028	0.666719
C91	C	0.983093	-0.329890	0.000052
C92	C	1.316426	0.003444	0.333385
C93	C	1.649759	0.336777	0.666718
C94	C	0.908189	-0.272104	0.000046
C95	C	1.241522	0.061229	0.333380
C96	C	1.574855	0.394563	0.666713
C97	C	0.831630	-0.308353	0.000039
C98	C	1.164963	0.024980	0.333372
C99	C	1.498296	0.358314	0.666706
C100	C	0.829984	-0.402388	0.000042
C101	C	1.163318	-0.069054	0.333376
C102	C	1.496651	0.264279	0.666709
C103	C	1.061296	-0.199604	0.000049
C104	C	1.394629	0.133729	0.333383
C105	C	1.727963	0.467062	0.666716
C106	C	0.909837	-0.178064	0.000044
C107	C	1.243171	0.155269	0.333377
C108	C	1.576504	0.488603	0.666711
C109	C	1.134265	0.116464	0.000063
C110	C	1.467598	0.449797	0.333396
C111	C	1.800932	0.783130	0.666730
C112	C	1.226563	0.118215	0.000063
C113	C	1.559896	0.451549	0.333396
C114	C	1.893229	0.784882	0.666729
C115	C	0.976389	0.287918	0.000060
C116	C	1.309722	0.621252	0.333393
C117	C	1.643056	0.954585	0.666726
C118	C	0.978145	0.387999	0.000062
C119	C	1.311478	0.721333	0.333395
C120	C	1.644811	1.054666	0.666728
N121	N	0.982261	0.123087	0.228231
N122	N	1.315594	0.456420	0.561565
N123	N	1.648928	0.789753	0.894898
N124	N	0.982282	0.123087	-0.228118
N125	N	1.315615	0.456420	0.105215
N126	N	1.648949	0.789753	0.438549
C127	C	1.038731	0.061801	0.453956
C128	C	1.372065	0.395134	0.787289
C129	C	1.705398	0.728468	1.120623
C130	C	1.038734	0.061799	0.546146
C131	C	1.372067	0.395132	0.879479
C132	C	1.705400	0.728466	1.212812
C133	C	0.925806	0.184375	0.546151
C134	C	1.259139	0.517708	0.879484
C135	C	1.592473	0.851042	1.212818
C136	C	0.925800	0.184372	0.453963
C137	C	1.259133	0.517706	0.787296
C138	C	1.592467	0.851039	1.120630
C139	C	0.982267	0.123086	0.407868
C140	C	1.315601	0.456420	0.741201
C141	C	1.648934	0.789753	1.074535
C142	C	0.982276	0.123087	0.592246
C143	C	1.315609	0.456420	0.925579
C144	C	1.648943	0.789754	1.258912
C145	C	0.982278	0.123085	0.692202
C146	C	1.315612	0.456419	1.025535
C147	C	1.648945	0.789752	1.358868
C148	C	0.982264	0.123087	0.307905
C149	C	1.315597	0.456420	0.641239
C150	C	1.648931	0.789753	0.974572
H151	H	0.385793	0.270600	0.000066
H152	H	0.719126	0.603934	0.333399
H153	H	1.052460	0.937267	0.666732
H154	H	0.848840	-0.131020	0.000036
H155	H	1.182174	0.202313	0.333369
H156	H	1.515507	0.535646	0.666702
H157	H	1.084711	0.011894	0.583668
H158	H	1.418044	0.345227	0.917001
H159	H	1.751377	0.678561	1.250335
Cl160	Cl	0.854807	0.261418	0.396018
Cl161	Cl	1.188141	0.594751	0.729351
Cl162	Cl	1.521474	0.928085	1.062685
Cl163	Cl	1.109715	-0.015247	0.396012
Cl164	Cl	1.443049	0.318086	0.729345
Cl165	Cl	1.776382	0.651419	1.062678
H166	H	0.421415	-0.027418	0.000062
H167	H	0.754749	0.305915	0.333396
H168	H	1.088082	0.639248	0.666729
H169	H	0.543114	0.273601	0.000058
H170	H	0.876447	0.606934	0.333391
H171	H	1.209781	0.940267	0.666725
Cl172	Cl	1.157533	-0.154037	0.000075
Cl173	Cl	1.490866	0.179296	0.333408
Cl174	Cl	1.824199	0.512629	0.666742
Cl175	Cl	0.602312	-0.060439	0.000056
Cl176	Cl	0.935645	0.272895	0.333389
Cl177	Cl	1.268979	0.606228	0.666723
Cl178	Cl	0.737469	-0.235698	0.000040
Cl179	Cl	1.070802	0.097635	0.333373
Cl180	Cl	1.404136	0.430969	0.666706
Cl181	Cl	0.807000	-0.599783	0.000038
Cl182	Cl	1.140334	-0.266449	0.333372
Cl183	Cl	1.473667	0.066884	0.666705
Cl184	Cl	0.733748	-0.447964	0.000031
Cl185	Cl	1.067082	-0.114631	0.333364
Cl186	Cl	1.400415	0.218703	0.666697
Cl187	Cl	1.148857	-0.648391	0.000086
Cl188	Cl	1.482190	-0.315058	0.333419
Cl189	Cl	1.815523	0.018276	0.666752
H190	H	1.193884	-0.492518	0.000081
H191	H	1.527217	-0.159185	0.333414
H192	H	1.860551	0.174149	0.666748
Cl193	Cl	1.230798	-0.305865	0.000059
Cl194	Cl	1.564132	0.027469	0.333392
Cl195	Cl	1.897465	0.360802	0.666726
H196	H	0.879833	0.234274	0.583691
H197	H	1.213166	0.567607	0.917024
H198	H	1.546499	0.900941	1.250357
