data_functionalizedCrystal
_audit_creation_method	'MofGen! by Chris Wilmer'
_symmetry_space_group_name_H-M	'P1'
_symmetry_Int_Tables_number	1
_symmetry_cell_setting	triclinic
loop_
_symmetry_equiv_pos_as_xyz
  x,y,z
_cell_length_a	10.654556
_cell_length_b	10.654559
_cell_length_c	15.186229
_cell_angle_alpha	89.997770
_cell_angle_beta	89.998295
_cell_angle_gamma	84.488097
loop_
_atom_site_label
_atom_site_type_symbol
_atom_site_fract_x
_atom_site_fract_y
_atom_site_fract_z
O1	O	1.667840	0.176435	-0.073192
O2	O	1.302363	0.193232	-0.073201
O3	O	1.493499	0.002095	-0.073194
O4	O	1.476705	0.367572	-0.073199
O5	O	1.493486	0.002092	0.073263
O6	O	1.302351	0.193230	0.073256
O7	O	1.667828	0.176432	0.073265
Zn8	Zn	1.485087	0.184830	0.096514
Zn9	Zn	1.485104	0.184834	-0.096450
O10	O	1.476692	0.367569	0.073258
C11	C	1.255559	0.191996	0.000027
C12	C	1.116116	0.188301	0.000023
C13	C	0.919578	0.183100	-0.079804
C14	C	1.050600	0.186564	-0.079809
C15	C	1.050605	0.186561	0.079866
C16	C	0.919586	0.183087	0.079871
C17	C	1.238632	0.117860	-0.175728
C18	C	1.304137	0.119618	-0.255570
C19	C	1.252631	0.191955	-0.326058
C20	C	1.135619	0.262564	-0.316708
C21	C	1.070120	0.260817	-0.236866
C22	C	1.121627	0.188451	-0.166380
C23	C	0.731550	0.251802	0.175785
C24	C	0.666047	0.250064	0.255628
C25	C	0.717550	0.177735	0.326124
C26	C	0.834563	0.107145	0.316783
C27	C	0.900066	0.108883	0.236939
C28	C	0.848555	0.181209	0.166443
C29	C	1.492257	-0.044704	0.000034
C30	C	1.488561	-0.184147	0.000030
C31	C	1.372549	-0.235689	0.000023
C32	C	1.369083	-0.366711	0.000025
C33	C	1.597651	-0.394638	0.000036
C34	C	1.601116	-0.263618	0.000041
C35	C	1.227044	-0.528998	0.051325
C36	C	1.111026	-0.580544	0.051303
C37	C	1.011257	-0.525687	-0.000021
C38	C	1.027500	-0.419285	-0.051344
C39	C	1.143520	-0.367746	-0.051330
C40	C	1.243285	-0.422601	0.000014
C41	C	1.743146	-0.101328	-0.051266
C42	C	1.859168	-0.049787	-0.051259
C43	C	1.958948	-0.104643	0.000060
C44	C	1.942716	-0.211050	0.051370
C45	C	1.826695	-0.262592	0.051362
C46	C	1.726915	-0.207727	0.000045
C47	C	1.714632	0.177668	0.000036
C48	C	1.854075	0.181364	0.000033
C49	C	1.477934	0.414368	0.000029
C50	C	1.481630	0.553811	0.000027
N51	N	1.485085	0.184827	0.228207
N52	N	1.485116	0.184827	-0.228142
C53	C	1.569749	0.100221	0.453933
C54	C	1.569753	0.100218	0.546122
C55	C	1.400443	0.269438	0.546125
C56	C	1.400434	0.269434	0.453937
C57	C	1.485094	0.184827	0.407843
C58	C	1.485107	0.184828	0.592221
C59	C	1.485111	0.184825	0.692177
C60	C	1.485089	0.184827	0.307881
H61	H	1.280574	0.058941	-0.118340
H62	H	1.103959	0.187967	0.144868
Br63	Br	1.285554	0.384260	0.608684
Br64	Br	0.661652	0.349982	0.080113
Br65	Br	1.684641	-0.014605	0.391380
Br66	Br	1.684639	-0.014615	0.608671
H67	H	1.331492	0.338331	0.416409
H68	H	1.813485	-0.349237	0.093144
Br69	Br	1.607720	-0.026860	-0.120907
Br70	Br	1.750397	-0.502500	0.000053
H71	H	0.866243	0.181695	-0.144813
H72	H	2.023970	-0.255725	0.093151
H73	H	0.570772	0.307556	0.263232
H74	H	0.974853	0.318309	-0.229252
Br75	Br	1.058874	0.013081	0.224261
Br76	Br	2.116415	-0.034705	0.000058
H77	H	1.093698	0.321477	-0.374106
H78	H	0.946258	-0.374636	-0.093143
Br79	Br	1.219796	-0.127838	0.000011
Br80	Br	1.362436	-0.603436	0.121004
H81	H	1.305975	0.193385	-0.391066
H82	H	1.399409	0.062121	-0.263178
Br83	Br	0.904474	0.008989	0.412459
H84	H	0.664210	0.176338	0.391139
Br85	Br	0.853811	-0.595656	-0.000060
Br86	Br	1.165574	-0.223355	-0.120976
H87	H	1.872377	0.036859	-0.093041
H88	H	1.097809	-0.667178	0.093096
