data_functionalizedCrystal
_audit_creation_method	'MofGen! by Chris Wilmer'
_symmetry_space_group_name_H-M	'P1'
_symmetry_Int_Tables_number	1
_symmetry_cell_setting	triclinic
loop_
_symmetry_equiv_pos_as_xyz
  x,y,z
_cell_length_a	13.897449
_cell_length_b	11.169416
_cell_length_c	13.897449
_cell_angle_alpha	90.004562
_cell_angle_beta	90.003875
_cell_angle_gamma	90.011620
loop_
_atom_site_label
_atom_site_type_symbol
_atom_site_fract_x
_atom_site_fract_y
_atom_site_fract_z
Zn1	Zn	1.474591	-0.477981	0.545412
Zn2	Zn	1.724591	-0.227981	0.795412
Zn3	Zn	1.974591	0.022019	1.045412
Zn4	Zn	2.224591	0.272019	1.295412
Zn5	Zn	1.474554	-0.678629	0.384127
Zn6	Zn	1.724554	-0.428629	0.634127
Zn7	Zn	1.974554	-0.178629	0.884127
Zn8	Zn	2.224554	0.071371	1.134127
Zn9	Zn	1.313328	-0.477963	0.384131
Zn10	Zn	1.563328	-0.227963	0.634131
Zn11	Zn	1.813328	0.022037	0.884131
Zn12	Zn	2.063328	0.272037	1.134131
Zn13	Zn	1.313283	-0.678625	0.545380
Zn14	Zn	1.563283	-0.428625	0.795380
Zn15	Zn	1.813283	-0.178625	1.045380
Zn16	Zn	2.063283	0.071375	1.295380
O17	O	1.393939	-0.578299	0.464762
O18	O	1.643939	-0.328299	0.714762
O19	O	1.893939	-0.078299	0.964762
O20	O	2.143939	0.171701	1.214762
O21	O	1.609568	-0.504606	0.524030
O22	O	1.859568	-0.254606	0.774030
O23	O	2.109568	-0.004606	1.024030
O24	O	2.359568	0.245394	1.274030
O25	O	1.453170	-0.652005	0.249146
O26	O	1.703170	-0.402005	0.499146
O27	O	1.953170	-0.152005	0.749146
O28	O	2.203170	0.097995	0.999146
O29	O	1.334755	-0.310016	0.405540
O30	O	1.584755	-0.060016	0.655540
O31	O	1.834755	0.189984	0.905540
O32	O	2.084755	0.439984	1.155540
O33	O	1.609540	-0.652022	0.405534
O34	O	1.859540	-0.402022	0.655534
O35	O	2.109540	-0.152022	0.905534
O36	O	2.359540	0.097978	1.155534
O37	O	1.453234	-0.310029	0.524033
O38	O	1.703234	-0.060029	0.774033
O39	O	1.953234	0.189971	1.024033
O40	O	2.203234	0.439971	1.274033
O41	O	1.334718	-0.504576	0.249149
O42	O	1.584718	-0.254576	0.499149
O43	O	1.834718	-0.004576	0.749149
O44	O	2.084718	0.245424	0.999149
O45	O	1.178340	-0.504572	0.405509
O46	O	1.428340	-0.254572	0.655509
O47	O	1.678340	-0.004572	0.905509
O48	O	1.928340	0.245428	1.155509
O49	O	1.334678	-0.652015	0.680365
O50	O	1.584678	-0.402015	0.930365
O51	O	1.834678	-0.152015	1.180365
O52	O	2.084678	0.097985	1.430365
O53	O	1.178307	-0.651998	0.523977
O54	O	1.428307	-0.401998	0.773977
O55	O	1.678307	-0.151998	1.023977
O56	O	1.928307	0.098002	1.273977
O57	O	1.453190	-0.504602	0.680390
O58	O	1.703190	-0.254602	0.930390
O59	O	1.953190	-0.004602	1.180390
O60	O	2.203190	0.245398	1.430390
O61	O	1.453126	-0.846578	0.405502
O62	O	1.703126	-0.596578	0.655502
O63	O	1.953126	-0.346578	0.905502
O64	O	2.203126	-0.096578	1.155502
O65	O	1.334641	-0.846575	0.523974
O66	O	1.584641	-0.596575	0.773974
O67	O	1.834641	-0.346575	1.023974
O68	O	2.084641	-0.096575	1.273974
C69	C	1.393901	-0.890124	0.464755
C70	C	1.643901	-0.640124	0.714755
C71	C	1.893901	-0.390124	0.964755
C72	C	2.143901	-0.140124	1.214755
C73	C	1.393973	-1.023524	0.464784
C74	C	1.643973	-0.773524	0.714784
C75	C	1.893973	-0.523524	0.964784
C76	C	2.143973	-0.273524	1.214784
C77	C	1.143325	-0.578283	0.464740
C78	C	1.393325	-0.328283	0.714740
C79	C	1.643325	-0.078283	0.964740
C80	C	1.893325	0.171717	1.214740
C81	C	1.036111	-0.578305	0.464754
C82	C	1.286111	-0.328305	0.714754
C83	C	1.536111	-0.078305	0.964754
C84	C	1.786111	0.171695	1.214754
C85	C	0.839816	-0.578310	0.464779
C86	C	1.089816	-0.328310	0.714779
C87	C	1.339816	-0.078310	0.964779
C88	C	1.589816	0.171690	1.214779
C89	C	0.949048	-0.578304	0.464762
C90	C	1.199048	-0.328304	0.714762
C91	C	1.449048	-0.078304	0.964762
C92	C	1.699048	0.171696	1.214762
C93	C	1.645532	-0.578316	0.464785
C94	C	1.895532	-0.328316	0.714785
C95	C	2.145532	-0.078316	0.964785
C96	C	2.395532	0.171684	1.214785
C97	C	1.752746	-0.578324	0.464795
C98	C	2.002746	-0.328324	0.714795
C99	C	2.252746	-0.078324	0.964795
C100	C	2.502746	0.171676	1.214795
C101	C	1.393933	-0.578310	0.716355
C102	C	1.643933	-0.328310	0.966355
C103	C	1.893933	-0.078310	1.216355
C104	C	2.143933	0.171690	1.466355
C105	C	1.393931	-0.578314	0.823569
C106	C	1.643931	-0.328314	1.073569
C107	C	1.893931	-0.078314	1.323569
C108	C	2.143931	0.171686	1.573569
C109	C	1.394004	-0.265257	0.464791
C110	C	1.644004	-0.015257	0.714791
C111	C	1.894004	0.234743	0.964791
C112	C	2.144004	0.484743	1.214791
C113	C	1.394031	-0.131857	0.464803
C114	C	1.644031	0.118143	0.714803
C115	C	1.894031	0.368143	0.964803
C116	C	2.144031	0.618143	1.214803
C117	C	1.393928	-0.578319	0.910639
C118	C	1.643928	-0.328319	1.160639
C119	C	1.893928	-0.078319	1.410639
C120	C	2.143928	0.171681	1.660639
C121	C	1.393928	-0.578313	1.019872
C122	C	1.643928	-0.328313	1.269872
C123	C	1.893928	-0.078313	1.519872
C124	C	2.143928	0.171687	1.769872
C125	C	1.393935	-0.578313	1.214148
C126	C	1.643935	-0.328313	1.464148
C127	C	1.893935	-0.078313	1.714148
C128	C	2.143935	0.171687	1.964148
C129	C	1.393932	-0.578302	1.106934
C130	C	1.643932	-0.328302	1.356934
C131	C	1.893932	-0.078302	1.606934
C132	C	2.143932	0.171698	1.856934
