data_functionalizedCrystal
_audit_creation_method	'MofGen! by Chris Wilmer'
_symmetry_space_group_name_H-M	'P1'
_symmetry_Int_Tables_number	1
_symmetry_cell_setting	triclinic
loop_
_symmetry_equiv_pos_as_xyz
  x,y,z
_cell_length_a	15.944480
_cell_length_b	17.038272
_cell_length_c	15.021413
_cell_angle_alpha	90.004029
_cell_angle_beta	90.006395
_cell_angle_gamma	92.709298
loop_
_atom_site_label
_atom_site_type_symbol
_atom_site_fract_x
_atom_site_fract_y
_atom_site_fract_z
O1	O	-1.121746	0.100562	-0.074014
O2	O	-0.621746	0.600562	0.425986
O3	O	-0.878080	0.113052	-0.074020
O4	O	-0.378080	0.613052	0.425980
O5	O	-0.998465	-0.007008	-0.074010
O6	O	-0.498465	0.492992	0.425990
O7	O	-1.001361	0.220623	-0.074024
O8	O	-0.501361	0.720623	0.425976
O9	O	-0.998446	-0.006991	0.074054
O10	O	-0.498446	0.493009	0.574054
O11	O	-0.878061	0.113069	0.074044
O12	O	-0.378061	0.613069	0.574044
O13	O	-1.121727	0.100579	0.074050
O14	O	-0.621727	0.600579	0.574050
Zn15	Zn	-0.999891	0.106827	0.097556
Zn16	Zn	-0.499891	0.606827	0.597556
Zn17	Zn	-0.999916	0.106804	-0.097525
Zn18	Zn	-0.499916	0.606804	0.402475
O19	O	-1.001342	0.220640	0.074040
O20	O	-0.501342	0.720640	0.574040
C21	C	-0.846739	0.112552	0.000011
C22	C	-0.346739	0.612552	0.500011
C23	C	-0.753381	0.111027	0.000009
C24	C	-0.253381	0.611027	0.500009
C25	C	-0.995821	-0.036128	0.000022
C26	C	-0.495821	0.463872	0.500022
C27	C	-0.987962	-0.122922	0.000022
C28	C	-0.487962	0.377078	0.500022
C29	C	-0.522666	0.181704	0.000003
C30	C	-0.022666	0.681704	0.500003
C31	C	-0.469377	0.143606	0.073012
C32	C	0.030623	0.643606	0.573012
C33	C	-0.582457	0.108200	0.000010
C34	C	-0.082457	0.608200	0.500010
C35	C	-0.469400	0.143572	-0.072968
C36	C	0.030600	0.643572	0.427032
C37	C	-0.417352	0.105476	0.000007
C38	C	0.082648	0.605476	0.500007
C39	C	-0.530398	0.070123	0.073080
C40	C	-0.030398	0.570123	0.573080
C41	C	-0.530424	0.070099	-0.072966
C42	C	-0.030424	0.570099	0.427034
C43	C	-0.477164	0.031948	0.000061
C44	C	0.022836	0.531948	0.500061
C45	C	-0.677570	0.109772	0.000013
C46	C	-0.177570	0.609772	0.500013
C47	C	-0.322242	0.103899	0.000011
C48	C	0.177758	0.603899	0.500011
C49	C	-1.060120	-0.173031	0.000024
C50	C	-0.560120	0.326969	0.500024
C51	C	-1.052730	-0.254582	0.000016
C52	C	-0.552730	0.245418	0.500016
C53	C	-0.973181	-0.286022	0.000011
C54	C	-0.473181	0.213978	0.500011
C55	C	-0.901017	-0.235906	0.000005
C56	C	-0.401017	0.264094	0.500005
C57	C	-0.908408	-0.154356	0.000008
C58	C	-0.408408	0.345644	0.500008
C59	C	-0.947072	-0.531781	-0.000002
C60	C	-0.447072	-0.031781	0.499998
C61	C	-0.939687	-0.613337	-0.000002
C62	C	-0.439687	-0.113337	0.499998
C63	C	-1.091401	-0.632008	0.000007
C64	C	-0.591401	-0.132008	0.500007
C65	C	-1.098784	-0.550457	0.000015
C66	C	-0.598784	-0.050457	0.500015
C67	C	-1.026620	-0.500347	0.000005
C68	C	-0.526620	-0.000347	0.500005
C69	C	-0.965626	-0.369380	0.000005
C70	C	-0.465626	0.130620	0.500005
C71	C	-1.034176	-0.416991	0.000004
C72	C	-0.534176	0.083009	0.500004
C73	C	-0.153067	0.101090	0.000015
C74	C	0.346933	0.601090	0.500015
C75	C	-0.246423	0.102647	0.000007
C76	C	0.253577	0.602647	0.500007
C77	C	-1.003986	0.249760	0.000006
C78	C	-0.503986	0.749760	0.500006
C79	C	-1.011845	0.336553	0.000001
C80	C	-0.511845	0.836553	0.500001
N81	N	-0.999879	0.106842	0.230693
N82	N	-0.499879	0.606842	0.730693
N83	N	-0.999934	0.106783	-0.230663
N84	N	-0.499934	0.606783	0.269337
C85	C	-0.944203	0.162332	0.470372
C86	C	-0.444203	0.662332	0.970372
C87	C	-1.021188	0.177492	0.529707
C88	C	-0.521188	0.677492	1.029707
C89	C	-0.999900	0.106822	0.412300
C90	C	-0.499900	0.606822	0.912300
C91	C	-0.922936	0.091679	0.529707
C92	C	-0.422936	0.591679	1.029707
C93	C	-0.999912	0.106805	0.587724
C94	C	-0.499912	0.606805	1.087724
C95	C	-1.076926	0.122018	0.470329
C96	C	-0.576926	0.622018	0.970329
C97	C	-0.978622	0.036174	0.470323
C98	C	-0.478622	0.536174	0.970323
C99	C	-1.055660	0.051305	0.529632
C100	C	-0.555660	0.551305	1.029632
C101	C	-0.999891	0.106834	0.311243
C102	C	-0.499891	0.606834	0.811243
C103	C	-0.999929	0.106793	0.688780
C104	C	-0.499929	0.606793	1.188780
H105	H	-0.542810	0.245016	0.000067
H106	H	-0.042810	0.745016	0.500067
H107	H	-0.457175	-0.031412	0.000107
H108	H	0.042825	0.468588	0.500107
C109	C	-0.880651	0.225794	0.435208
C110	C	-0.380651	0.725794	0.935208
H111	H	-0.895915	0.275953	0.455542
H112	H	-0.395915	0.775953	0.955542
H113	H	-0.826116	0.215537	0.456409
H114	H	-0.326116	0.715537	0.956409
H115	H	-0.880732	0.225051	0.371971
H116	H	-0.380732	0.725051	0.871971
H117	H	-0.900856	-0.394987	0.000003
H118	H	-0.400856	0.105013	0.500003
C119	C	-1.045511	0.258188	0.564958
C120	C	-0.545511	0.758188	1.064958
H121	H	-1.005878	0.297578	0.544676
H122	H	-0.505878	0.797578	1.044676
H123	H	-1.099807	0.269326	0.543759
H124	H	-0.599807	0.769326	1.043759
H125	H	-1.045833	0.257446	0.628195
H126	H	-0.545833	0.757446	1.128195
C127	C	-0.433258	0.185544	0.156386
C128	C	0.066742	0.685544	0.656386
H129	H	-0.402964	0.149618	0.190761
H130	H	0.097036	0.649618	0.690761
H131	H	-0.396665	0.228379	0.138836
H132	H	0.103335	0.728379	0.638836
H133	H	-0.477872	0.204500	0.191004
H134	H	0.022128	0.704500	0.691004
H135	H	-1.142037	0.134891	0.444357
H136	H	-0.642037	0.634891	0.944357
H137	H	-1.111490	-0.295379	0.000020
H138	H	-0.611490	0.204621	0.500020
H139	H	-1.102821	0.004352	0.555488
H140	H	-0.602821	0.504352	1.055488
H141	H	-1.163562	-0.524865	0.000019
H142	H	-0.663562	-0.024865	0.500019
C143	C	-1.147625	-0.138455	0.000030
C144	C	-0.647625	0.361545	0.500030
H145	H	-1.189541	-0.179982	0.000022
H146	H	-0.689541	0.320018	0.500022
H147	H	-1.153657	-0.107028	0.051663
H148	H	-0.653657	0.392972	0.551663
H149	H	-1.153667	-0.107035	-0.051610
H150	H	-0.653667	0.392965	0.448390
C151	C	-0.852181	-0.647923	-0.000007
C152	C	-0.352181	-0.147923	0.499993
H153	H	-0.858118	-0.703668	0.000005
H154	H	-0.358118	-0.203668	0.500005
H155	H	-0.822229	-0.630731	-0.051642
H156	H	-0.322229	-0.130731	0.448358
H157	H	-0.822217	-0.630717	0.051631
H158	H	-0.322217	-0.130717	0.551631
H159	H	-1.150152	-0.672815	0.000014
H160	H	-0.650152	-0.172815	0.500014
C161	C	-0.433316	0.185507	-0.156344
C162	C	0.066684	0.685507	0.343656
H163	H	-0.403020	0.149585	-0.190722
H164	H	0.096980	0.649585	0.309278
H165	H	-0.477937	0.204461	-0.190951
H166	H	0.022063	0.704461	0.309049
H167	H	-0.396715	0.228345	-0.138791
H168	H	0.103285	0.728345	0.361209
C169	C	-0.566331	0.028233	0.156553
C170	C	-0.066331	0.528233	0.656553
H171	H	-0.625834	0.029498	0.156060
H172	H	-0.125834	0.529498	0.656060
H173	H	-0.550427	-0.024797	0.156769
H174	H	-0.050427	0.475203	0.656769
H175	H	-0.544910	0.054170	0.208330
H176	H	-0.044910	0.554170	0.708330
H177	H	-0.857844	0.078879	0.555791
H178	H	-0.357844	0.578879	1.055791
H179	H	-0.888310	-0.490992	-0.000010
H180	H	-0.388310	0.009008	0.499990
C181	C	-0.954264	-0.044497	0.435048
C182	C	-0.454264	0.455503	0.935048
H183	H	-0.899530	-0.055172	0.455342
H184	H	-0.399530	0.444828	0.955342
H185	H	-0.993274	-0.084039	0.456219
H186	H	-0.493274	0.415961	0.956219
H187	H	-0.954939	-0.044042	0.371811
H188	H	-0.454939	0.455958	0.871811
C189	C	-0.566567	0.028197	-0.156344
C190	C	-0.066567	0.528197	0.343656
H191	H	-0.545644	0.054394	-0.208168
H192	H	-0.045644	0.554394	0.291832
H193	H	-0.550270	-0.024712	-0.156866
H194	H	-0.050270	0.475288	0.343134
H195	H	-0.626091	0.029076	-0.155447
H196	H	-0.126091	0.529076	0.344553
C197	C	-0.813515	-0.270487	0.000002
C198	C	-0.313515	0.229513	0.500002
H199	H	-0.819447	-0.326232	0.000011
H200	H	-0.319447	0.173768	0.500011
H201	H	-0.783563	-0.253290	-0.051630
H202	H	-0.283563	0.246710	0.448370
H203	H	-0.783555	-0.253281	0.051643
H204	H	-0.283555	0.246719	0.551643
C205	C	-0.829036	-0.099232	0.000004
C206	C	-0.329036	0.400768	0.500004
H207	H	-0.844830	-0.046162	-0.000003
H208	H	-0.344830	0.453838	0.499997
H209	H	-0.796646	-0.108754	0.051634
H210	H	-0.296646	0.391246	0.551634
H211	H	-0.796669	-0.108765	-0.051639
H212	H	-0.296669	0.391235	0.448361
C213	C	-1.121677	-0.382414	0.000012
C214	C	-0.621677	0.117586	0.500012
H215	H	-1.163599	-0.423934	0.000010
H216	H	-0.663599	0.076066	0.500010
H217	H	-1.127699	-0.350984	0.051645
H218	H	-0.627699	0.149016	0.551645
H219	H	-1.127720	-0.350993	-0.051628
H220	H	-0.627720	0.149007	0.448372
