data_functionalizedCrystal
_audit_creation_method	'MofGen! by Chris Wilmer'
_symmetry_space_group_name_H-M	'P1'
_symmetry_Int_Tables_number	1
_symmetry_cell_setting	triclinic
loop_
_symmetry_equiv_pos_as_xyz
  x,y,z
_cell_length_a	16.120484
_cell_length_b	16.625547
_cell_length_c	16.625548
_cell_angle_alpha	89.985274
_cell_angle_beta	87.115040
_cell_angle_gamma	87.074925
loop_
_atom_site_label
_atom_site_type_symbol
_atom_site_fract_x
_atom_site_fract_y
_atom_site_fract_z
Zn1	Zn	-0.332069	-1.216277	0.472313
Zn2	Zn	-0.082069	-0.966277	0.722313
Zn3	Zn	0.167931	-0.716277	0.972313
Zn4	Zn	0.417931	-0.466277	1.222313
Zn5	Zn	-0.471454	-1.209365	0.344308
Zn6	Zn	-0.221454	-0.959365	0.594308
Zn7	Zn	0.028546	-0.709365	0.844308
Zn8	Zn	0.278546	-0.459365	1.094308
Zn9	Zn	-0.332054	-1.081469	0.337478
Zn10	Zn	-0.082054	-0.831469	0.587478
Zn11	Zn	0.167946	-0.581469	0.837478
Zn12	Zn	0.417946	-0.331469	1.087478
Zn13	Zn	-0.471442	-1.074566	0.479082
Zn14	Zn	-0.221442	-0.824566	0.729082
Zn15	Zn	0.028558	-0.574566	0.979082
Zn16	Zn	0.278558	-0.324566	1.229082
O17	O	-0.401755	-1.145419	0.408295
O18	O	-0.151755	-0.895419	0.658295
O19	O	0.098245	-0.645419	0.908295
O20	O	0.348245	-0.395419	1.158295
O21	O	-0.350569	-1.328192	0.455359
O22	O	-0.100569	-1.078192	0.705359
O23	O	0.149431	-0.828192	0.955359
O24	O	0.399431	-0.578192	1.205359
O25	O	-0.452961	-1.192396	0.230569
O26	O	-0.202961	-0.942396	0.480569
O27	O	0.047039	-0.692396	0.730569
O28	O	0.297039	-0.442396	0.980569
O29	O	-0.215389	-1.105133	0.349673
O30	O	0.034611	-0.855133	0.599673
O31	O	0.284611	-0.605133	0.849673
O32	O	0.534611	-0.355133	1.099673
O33	O	-0.452974	-1.323114	0.361314
O34	O	-0.202974	-1.073114	0.611314
O35	O	0.047026	-0.823114	0.861314
O36	O	0.297026	-0.573114	1.111314
O37	O	-0.215399	-1.204176	0.448736
O38	O	0.034601	-0.954176	0.698736
O39	O	0.284601	-0.704176	0.948736
O40	O	0.534601	-0.454176	1.198736
O41	O	-0.350545	-1.098431	0.225552
O42	O	-0.100545	-0.848431	0.475552
O43	O	0.149455	-0.598431	0.725552
O44	O	0.399455	-0.348431	0.975552
O45	O	-0.350534	-0.967721	0.356236
O46	O	-0.100534	-0.717721	0.606236
O47	O	0.149466	-0.467721	0.856236
O48	O	0.399466	-0.217721	1.106236
O49	O	-0.452955	-1.093368	0.591016
O50	O	-0.202955	-0.843368	0.841016
O51	O	0.047045	-0.593368	1.091016
O52	O	0.297045	-0.343368	1.341016
O53	O	-0.452942	-0.962650	0.460272
O54	O	-0.202942	-0.712650	0.710272
O55	O	0.047058	-0.462650	0.960272
O56	O	0.297058	-0.212650	1.210272
O57	O	-0.350558	-1.197483	0.586044
O58	O	-0.100558	-0.947483	0.836044
O59	O	0.149442	-0.697483	1.086044
O60	O	0.399442	-0.447483	1.336044
O61	O	-0.588119	-1.185703	0.367877
O62	O	-0.338119	-0.935703	0.617877
O63	O	-0.088119	-0.685703	0.867877
O64	O	0.161881	-0.435703	1.117877
O65	O	-0.588111	-1.086666	0.466895
O66	O	-0.338111	-0.836666	0.716895
O67	O	-0.088111	-0.586666	0.966895
O68	O	0.161889	-0.336666	1.216895
C69	C	-0.401736	-0.935929	0.408248
C70	C	-0.151736	-0.685929	0.658248
C71	C	0.098264	-0.435929	0.908248
C72	C	0.348264	-0.185929	1.158248
C73	C	-0.401748	-0.846308	0.408248
C74	C	-0.151748	-0.596308	0.658248
C75	C	0.098252	-0.346308	0.908248
C76	C	0.348252	-0.096308	1.158248
C77	C	-0.401748	-0.773525	0.408255
C78	C	-0.151748	-0.523525	0.658255
C79	C	0.098252	-0.273525	0.908255
C80	C	0.348252	-0.023525	1.158255
C81	C	-0.401751	-0.682217	0.408272
C82	C	-0.151751	-0.432217	0.658272
C83	C	0.098249	-0.182217	0.908272
C84	C	0.348249	0.067783	1.158272
C85	C	-0.401758	-0.609440	0.408290
C86	C	-0.151758	-0.359440	0.658290
C87	C	0.098242	-0.109440	0.908290
C88	C	0.348242	0.140560	1.158290
C89	C	-0.401763	-0.518125	0.408306
C90	C	-0.151763	-0.268125	0.658306
C91	C	0.098237	-0.018125	0.908306
C92	C	0.348237	0.231875	1.158306
C93	C	-0.618366	-1.134707	0.418879
C94	C	-0.368366	-0.884707	0.668879
C95	C	-0.118366	-0.634707	0.918879
C96	C	0.131634	-0.384707	1.168879
C97	C	-0.711033	-1.130198	0.423433
C98	C	-0.461033	-0.880198	0.673433
C99	C	-0.211033	-0.630198	0.923433
C100	C	0.038967	-0.380198	1.173433
C101	C	-0.880697	-1.121970	0.431766
C102	C	-0.630697	-0.871970	0.681766
C103	C	-0.380697	-0.621970	0.931766
C104	C	-0.130697	-0.371970	1.181766
C105	C	-0.921972	-1.169013	0.384838
C106	C	-0.671972	-0.919013	0.634838
C107	C	-0.421972	-0.669013	0.884838
C108	C	-0.171972	-0.419013	1.134838
C109	C	-1.016379	-1.164435	0.389474
C110	C	-0.766379	-0.914435	0.639474
C111	C	-0.516379	-0.664435	0.889474
C112	C	-0.266379	-0.414435	1.139474
C113	C	-0.786282	-1.126547	0.427131
C114	C	-0.536282	-0.876547	0.677131
C115	C	-0.286282	-0.626547	0.927131
C116	C	-0.036282	-0.376547	1.177131
C117	C	-0.184298	-1.156195	0.397688
C118	C	0.065702	-0.906195	0.647688
C119	C	0.315702	-0.656195	0.897688
C120	C	0.565702	-0.406195	1.147688
C121	C	-0.091630	-1.160787	0.393168
C122	C	0.158370	-0.910787	0.643168
C123	C	0.408370	-0.660787	0.893168
C124	C	0.658370	-0.410787	1.143168
C125	C	-0.401757	-1.145426	0.618604
C126	C	-0.151757	-0.895426	0.868604
C127	C	0.098243	-0.645426	1.118604
C128	C	0.348243	-0.395426	1.368604
C129	C	-0.401758	-1.145429	0.708225
C130	C	-0.151758	-0.895429	0.958225
C131	C	0.098242	-0.645429	1.208225
C132	C	0.348242	-0.395429	1.458225
C133	C	-0.401771	-0.355727	0.408333
C134	C	-0.151771	-0.105727	0.658333
C135	C	0.098229	0.144273	0.908333
C136	C	0.348229	0.394273	1.158333
C137	C	-0.401769	-0.445349	0.408324
C138	C	-0.151769	-0.195349	0.658324
C139	C	0.098231	0.054651	0.908324
C140	C	0.348231	0.304651	1.158324
C141	C	-0.401765	-1.145395	1.036401
C142	C	-0.151765	-0.895395	1.286401
C143	C	0.098235	-0.645395	1.536401
C144	C	0.348235	-0.395395	1.786401
C145	C	-0.401766	-1.145403	0.945093
C146	C	-0.151766	-0.895403	1.195093
C147	C	0.098234	-0.645403	1.445093
C148	C	0.348234	-0.395403	1.695093
C149	C	-0.401762	-1.145413	0.872316
C150	C	-0.151762	-0.895413	1.122316
C151	C	0.098238	-0.645413	1.372316
C152	C	0.348238	-0.395413	1.622316
C153	C	-0.401762	-1.145419	0.781002
C154	C	-0.151762	-0.895419	1.031002
C155	C	0.098238	-0.645419	1.281002
C156	C	0.348238	-0.395419	1.531002
C157	C	-0.401769	-1.145404	1.198805
C158	C	-0.151769	-0.895404	1.448805
C159	C	0.098231	-0.645404	1.698805
C160	C	0.348231	-0.395404	1.948805
C161	C	-0.401763	-1.145396	1.109184
C162	C	-0.151763	-0.895396	1.359184
C163	C	0.098237	-0.645396	1.609184
C164	C	0.348237	-0.395396	1.859184
H165	H	-0.886406	-1.212724	0.341180
H166	H	-0.636406	-0.962724	0.591180
H167	H	-0.386406	-0.712724	0.841180
H168	H	-0.136406	-0.462724	1.091180
H169	H	-0.916261	-1.078261	0.475419
H170	H	-0.666261	-0.828261	0.725419
H171	H	-0.416261	-0.578261	0.975419
H172	H	-0.166261	-0.328261	1.225419
