data_functionalizedCrystal
_audit_creation_method	'MofGen! by Chris Wilmer'
_symmetry_space_group_name_H-M	'P1'
_symmetry_Int_Tables_number	1
_symmetry_cell_setting	triclinic
loop_
_symmetry_equiv_pos_as_xyz
  x,y,z
_cell_length_a	12.759395
_cell_length_b	18.050589
_cell_length_c	12.759387
_cell_angle_alpha	89.970013
_cell_angle_beta	89.979491
_cell_angle_gamma	90.029758
loop_
_atom_site_label
_atom_site_type_symbol
_atom_site_fract_x
_atom_site_fract_y
_atom_site_fract_z
Zn1	Zn	1.606170	-0.295590	-0.594011
Zn2	Zn	1.606019	-0.419799	-0.418334
Zn3	Zn	1.430468	-0.295630	-0.418348
Zn4	Zn	1.430419	-0.419746	-0.593973
O5	O	1.518269	-0.357691	-0.506166
O6	O	1.753171	-0.312072	-0.570717
O7	O	1.582689	-0.403367	-0.271315
O8	O	1.453859	-0.191700	-0.441672
O9	O	1.753060	-0.403327	-0.441648
O10	O	1.582946	-0.191671	-0.570731
O11	O	1.453713	-0.312141	-0.271325
O12	O	1.283441	-0.312089	-0.441635
O13	O	1.453775	-0.403237	-0.740999
O14	O	1.283405	-0.403277	-0.570666
O15	O	1.582899	-0.312020	-0.741027
O16	O	1.582642	-0.523716	-0.441611
O17	O	1.453629	-0.523677	-0.570652
C18	C	1.245302	-0.357682	-0.506148
C19	C	1.128525	-0.357696	-0.506166
C20	C	1.128526	-0.452803	-0.640308
C21	C	1.073666	-0.500362	-0.707383
C22	C	0.963944	-0.500371	-0.707395
C23	C	0.909080	-0.452814	-0.640329
C24	C	0.963940	-0.405255	-0.573255
C25	C	1.073665	-0.405253	-0.573247
C26	C	0.963939	-0.310146	-0.439119
C27	C	1.073661	-0.310139	-0.439099
C28	C	0.909076	-0.262589	-0.372052
C29	C	0.963936	-0.215032	-0.304971
C30	C	1.073664	-0.215026	-0.304960
C31	C	1.128521	-0.262580	-0.372025
C32	C	1.518142	-0.550643	-0.506149
C33	C	1.518184	-0.633189	-0.506177
C34	C	1.448096	-0.832646	-0.576325
C35	C	1.422480	-0.882094	-0.480456
C36	C	1.518287	-0.784319	-0.506190
C37	C	1.543955	-0.881953	-0.602070
C38	C	1.518385	-0.930304	-0.506212
C39	C	1.492621	-0.832681	-0.410271
C40	C	1.614141	-0.832535	-0.531950
C41	C	1.588561	-0.881961	-0.436015
C42	C	1.518228	-0.700221	-0.506179
C43	C	1.518444	-1.014401	-0.506212
C44	C	1.792302	-0.357701	-0.506185
C45	C	1.909079	-0.357705	-0.506193
C46	C	1.518348	-0.357618	-0.780200
C47	C	1.518382	-0.357587	-0.896977
C48	C	1.518425	-0.163986	-0.506207
C49	C	1.518492	-0.081440	-0.506224
C50	C	1.652848	-0.262609	-0.897026
C51	C	1.720095	-0.215109	-0.951911
C52	C	1.720121	-0.215082	-1.061633
C53	C	1.652889	-0.262559	-1.116472
C54	C	1.585642	-0.310059	-1.061586
C55	C	1.585626	-0.310082	-0.951862
C56	C	1.451173	-0.405032	-1.061538
C57	C	1.451151	-0.405064	-0.951816
C58	C	1.383942	-0.452509	-1.116376
C59	C	1.316698	-0.500013	-1.061491
C60	C	1.316676	-0.500039	-0.951763
C61	C	1.383904	-0.452564	-0.896931
C62	C	1.518251	-0.357710	-0.233199
C63	C	1.518420	-0.357532	-0.116423
H64	H	0.819739	-0.452819	-0.640355
C65	C	1.722474	-0.725558	-0.560114
C66	C	1.723483	-0.803121	-0.561387
H67	H	1.789981	-0.707400	-0.578289
H68	H	1.672415	-0.707943	-0.609234
H69	H	1.704360	-0.708728	-0.491948
H70	H	1.741590	-0.819951	-0.629556
H71	H	1.773558	-0.820743	-0.512266
H72	H	1.118325	-0.176292	-0.250347
H73	H	1.341466	-0.903879	-0.458688
H74	H	1.565626	-0.903596	-0.683146
C75	C	1.463398	-0.726020	-0.301785
C76	C	1.463229	-0.803590	-0.300791
H77	H	1.445243	-0.708062	-0.234201
H78	H	1.531235	-0.708644	-0.320179
H79	H	1.413813	-0.708749	-0.351641
H80	H	1.512819	-0.820862	-0.250941
H81	H	1.395382	-0.820974	-0.282385
C82	C	1.734832	-0.115161	-1.185059
C83	C	1.794037	-0.162869	-1.121968
H84	H	1.780466	-0.082924	-1.222301
H85	H	1.694809	-0.143434	-1.233412
H86	H	1.689080	-0.086760	-1.142244
H87	H	1.839783	-0.191274	-1.164783
H88	H	1.834077	-0.134592	-1.073609
C89	C	1.410681	-0.523126	-1.273532
C90	C	1.383966	-0.452482	-1.236984
H91	H	1.410690	-0.523112	-1.347990
H92	H	1.478456	-0.535974	-1.248719
H93	H	1.361002	-0.558202	-1.248684
H94	H	1.433650	-0.417407	-1.261826
H95	H	1.316182	-0.439625	-1.261808
H96	H	1.647961	-0.903478	-0.376645
C97	C	0.751901	-0.210810	-0.299039
C98	C	0.788468	-0.262595	-0.372065
H99	H	0.677443	-0.210812	-0.299050
H100	H	0.776683	-0.223591	-0.231216
H101	H	0.776768	-0.162904	-0.317339
H102	H	0.763608	-0.310502	-0.353761
H103	H	0.763676	-0.249817	-0.439903
C104	C	1.062647	-0.594376	-0.839981
C105	C	1.133972	-0.552634	-0.781103
H106	H	1.099877	-0.626641	-0.885499
H107	H	1.019817	-0.622744	-0.794139
H108	H	1.019887	-0.562049	-0.880251
H109	H	1.176728	-0.584961	-0.740828
H110	H	1.176820	-0.524263	-0.826952
H111	H	1.774831	-0.176454	-0.907249
C112	C	1.310682	-0.504324	-0.739723
C113	C	1.383896	-0.452603	-0.776323
H114	H	1.310688	-0.504350	-0.665265
H115	H	1.242906	-0.491461	-0.764519
H116	H	1.328811	-0.552240	-0.764554
H117	H	1.365762	-0.404686	-0.751499
H118	H	1.451686	-0.465461	-0.751517
C119	C	1.285701	-0.210789	-0.298979
C120	C	1.249129	-0.262574	-0.372012
H121	H	1.360160	-0.210790	-0.298972
H122	H	1.260922	-0.162889	-0.317277
H123	H	1.260837	-0.223576	-0.231152
H124	H	1.273987	-0.249784	-0.439840
H125	H	1.273920	-0.310484	-0.353720
H126	H	1.652843	-0.262634	-0.807684
C127	C	1.267576	-0.828426	-0.629052
C128	C	1.367853	-0.803404	-0.656277
H129	H	1.218037	-0.810368	-0.678404
H130	H	1.266622	-0.881042	-0.629170
H131	H	1.250055	-0.810827	-0.561120
H132	H	1.385377	-0.821008	-0.724205
H133	H	1.368809	-0.750777	-0.656169
C134	C	1.265407	-0.625752	-1.095238
C135	C	1.242802	-0.552195	-1.121767
H136	H	1.219781	-0.657967	-1.132449
H137	H	1.335981	-0.636616	-1.113238
H138	H	1.255770	-0.632561	-1.022036
H139	H	1.252447	-0.545385	-1.194969
H140	H	1.172211	-0.541328	-1.103775
H141	H	0.919277	-0.539094	-0.762019
C142	C	0.930205	-0.089233	-0.254119
C143	C	0.903628	-0.162762	-0.231261
H144	H	0.892964	-0.056965	-0.208615
H145	H	1.003392	-0.082429	-0.244500
H146	H	0.912265	-0.078437	-0.324743
H147	H	0.921575	-0.173559	-0.160639
H148	H	0.830424	-0.169570	-0.240872
H149	H	1.652907	-0.262526	-1.205813
H150	H	1.217867	-0.452806	-0.640297
H151	H	1.261904	-0.538712	-0.907082
