data_functionalizedCrystal
_audit_creation_method	'MofGen! by Chris Wilmer'
_symmetry_space_group_name_H-M	'P1'
_symmetry_Int_Tables_number	1
_symmetry_cell_setting	triclinic
loop_
_symmetry_equiv_pos_as_xyz
  x,y,z
_cell_length_a	16.120490
_cell_length_b	21.295412
_cell_length_c	16.120444
_cell_angle_alpha	92.872206
_cell_angle_beta	90.165174
_cell_angle_gamma	87.081018
loop_
_atom_site_label
_atom_site_type_symbol
_atom_site_fract_x
_atom_site_fract_y
_atom_site_fract_z
Zn1	Zn	1.254503	-0.419020	-0.395701
Zn2	Zn	1.754503	0.080980	0.104299
Zn3	Zn	1.247335	-0.318800	-0.534755
Zn4	Zn	1.747335	0.181200	-0.034755
Zn5	Zn	1.115433	-0.308180	-0.388654
Zn6	Zn	1.615433	0.191820	0.111346
Zn7	Zn	1.108352	-0.418448	-0.527646
Zn8	Zn	1.608352	0.081552	-0.027646
O9	O	1.181406	-0.366112	-0.461689
O10	O	1.681406	0.133888	0.038311
O11	O	1.369918	-0.410410	-0.420071
O12	O	1.869918	0.089590	0.079929
O13	O	1.229802	-0.229301	-0.515400
O14	O	1.729802	0.270699	-0.015400
O15	O	1.139844	-0.318678	-0.273225
O16	O	1.639844	0.181322	0.226775
O17	O	1.364652	-0.336779	-0.522233
O18	O	1.864652	0.163221	-0.022233
O19	O	1.242018	-0.400112	-0.278402
O20	O	1.742018	0.099888	0.221598
O21	O	1.132894	-0.221499	-0.408060
O22	O	1.632894	0.278501	0.091940
O23	O	0.998128	-0.318123	-0.401167
O24	O	1.498128	0.181877	0.098833
O25	O	1.127776	-0.506613	-0.510117
O26	O	1.627776	-0.006613	-0.010117
O27	O	0.992926	-0.399136	-0.503284
O28	O	1.492926	0.100864	-0.003284
O29	O	1.235152	-0.507034	-0.413177
O30	O	1.735152	-0.007034	0.086823
O31	O	1.222936	-0.336224	-0.650175
O32	O	1.722936	0.163776	-0.150175
O33	O	1.120826	-0.409434	-0.644952
O34	O	1.620826	0.090566	-0.144952
C35	C	0.965354	-0.357416	-0.450690
C36	C	1.465354	0.142584	0.049310
C37	C	0.872925	-0.353711	-0.446005
C38	C	1.372925	0.146289	0.053995
C39	C	0.659958	-0.385329	-0.485985
C40	C	1.159958	0.114671	0.014015
C41	C	0.703702	-0.346947	-0.437459
C42	C	1.203702	0.153053	0.062541
C43	C	0.797866	-0.350711	-0.442215
C44	C	1.297866	0.149289	0.057785
C45	C	0.565784	-0.381566	-0.481230
C46	C	1.065784	0.118434	0.018770
C47	C	1.181473	-0.530303	-0.461640
C48	C	1.681473	-0.030303	0.038360
C49	C	1.181502	-0.600271	-0.461620
C50	C	1.681502	-0.100271	0.038380
C51	C	1.131057	-0.629066	-0.405723
C52	C	1.631057	-0.129066	0.094277
C53	C	1.131055	-0.694808	-0.405707
C54	C	1.631055	-0.194808	0.094293
C55	C	1.181513	-0.731753	-0.461581
C56	C	1.681513	-0.231753	0.038419
C57	C	1.231962	-0.702951	-0.517488
C58	C	1.731962	-0.202951	-0.017488
C59	C	1.231956	-0.637210	-0.517508
C60	C	1.731956	-0.137210	-0.017508
N61	N	1.253985	-0.838146	-0.471632
N62	N	1.753985	-0.338146	0.028368
N63	N	1.253988	-0.900597	-0.471608
N64	N	1.753988	-0.400597	0.028392
C65	C	1.181531	-0.929826	-0.461526
C66	C	1.681531	-0.429826	0.038474
N67	N	1.109071	-0.894245	-0.451452
N68	N	1.609071	-0.394245	0.048548
N69	N	1.109069	-0.831789	-0.451471
N70	N	1.609069	-0.331789	0.048529
C71	C	1.181524	-0.803038	-0.461566
C72	C	1.681524	-0.303038	0.038434
C73	C	1.131079	-1.029905	-0.405609
C74	C	1.631079	-0.529905	0.094391
C75	C	1.131075	-1.095648	-0.405599
C76	C	1.631075	-0.595648	0.094401
C77	C	1.231990	-1.103791	-0.517376
C78	C	1.731990	-0.603791	-0.017376
C79	C	1.231986	-1.038049	-0.517390
C80	C	1.731986	-0.538049	-0.017390
C81	C	1.181532	-1.001110	-0.461502
C82	C	1.681532	-0.501110	0.038498
C83	C	1.398301	-0.374843	-0.472731
C84	C	1.898301	0.125157	0.027269
C85	C	1.490729	-0.378563	-0.477436
C86	C	1.990729	0.121437	0.022564
C87	C	1.170357	-0.373934	-0.677737
C88	C	1.670357	0.126066	-0.177737
C89	C	1.165706	-0.377304	-0.770167
C90	C	1.665706	0.122696	-0.270167
C91	C	1.181389	-0.202559	-0.461679
C92	C	1.681389	0.297441	0.038321
C93	C	1.181533	-0.132589	-0.461474
C94	C	1.681533	0.367411	0.038526
C95	C	1.205734	-0.348772	-0.983141
C96	C	1.705734	0.151228	-0.483141
C97	C	1.157231	-0.383465	-0.939393
C98	C	1.657231	0.116535	-0.439393
C99	C	1.161948	-0.380036	-0.845227
C100	C	1.661948	0.119964	-0.345227
C101	C	1.201018	-0.352200	-1.077316
C102	C	1.701018	0.147800	-0.577316
C103	C	1.192520	-0.358274	-0.244798
C104	C	1.692520	0.141726	0.255202
C105	C	1.197257	-0.354934	-0.152373
C106	C	1.697257	0.145066	0.347627
H107	H	0.693225	-0.421014	-0.531099
H108	H	1.193225	0.078986	-0.031099
O109	O	1.082164	-0.593156	-0.351360
O110	O	1.582164	-0.093156	0.148640
C111	C	1.132251	-0.555089	-0.300089
C112	C	1.632251	-0.055089	0.199911
H113	H	1.198010	-0.577362	-0.298278
H114	H	1.698010	-0.077362	0.201722
H115	H	1.105453	-0.550813	-0.234566
H116	H	1.605453	-0.050813	0.265434
H117	H	1.133792	-0.506311	-0.325963
H118	H	1.633792	-0.006311	0.174037
O119	O	1.082030	-0.722686	-0.351324
O120	O	1.582030	-0.222686	0.148676
C121	C	1.037480	-0.675985	-0.302017
C122	C	1.537480	-0.175985	0.197983
H123	H	1.071680	-0.630394	-0.300888
H124	H	1.571680	-0.130394	0.199112
H125	H	1.031979	-0.692256	-0.236043
H126	H	1.531979	-0.192256	0.263957
H127	H	0.972760	-0.667543	-0.329246
H128	H	1.472760	-0.167543	0.170754
O129	O	1.103570	-0.422008	-0.979170
O130	O	1.603570	0.077992	-0.479170
C131	C	1.148418	-0.466403	-1.031726
C132	C	1.648418	0.033597	-0.531726
H133	H	1.210822	-0.447242	-1.047801
H134	H	1.710822	0.052758	-0.547801
H135	H	1.111535	-0.475635	-1.091152
H136	H	1.611535	0.024365	-0.591152
H137	H	1.159161	-0.512231	-0.998726
H138	H	1.659161	-0.012231	-0.498726
O139	O	1.281075	-0.738864	-0.571647
O140	O	1.781075	-0.238864	-0.071647
C141	C	1.337201	-0.777361	-0.527027
C142	C	1.837201	-0.277361	-0.027027
H143	H	1.345691	-0.755389	-0.461803
H144	H	1.845691	-0.255389	0.038197
H145	H	1.399655	-0.781780	-0.560359
H146	H	1.899655	-0.281780	-0.060359
H147	H	1.311644	-0.826042	-0.522837
H148	H	1.811644	-0.326042	-0.022837
O149	O	1.280888	-0.609135	-0.571775
O150	O	1.780888	-0.109135	-0.071775
C151	C	1.270083	-0.543190	-0.559792
C152	C	1.770083	-0.043190	-0.059792
H153	H	1.207305	-0.530632	-0.529293
H154	H	1.707305	-0.030632	-0.029293
H155	H	1.272529	-0.520680	-0.622371
H156	H	1.772529	-0.020680	-0.122371
H157	H	1.321676	-0.524932	-0.518026
H158	H	1.821676	-0.024932	-0.018026
H159	H	1.089996	-0.999828	-0.360102
H160	H	1.589996	-0.499828	0.139898
O161	O	1.259421	-0.310276	-0.943328
O162	O	1.759421	0.189724	-0.443328
C163	C	1.252240	-0.315388	-0.856809
C164	C	1.752240	0.184612	-0.356809
H165	H	1.188629	-0.332970	-0.841837
H166	H	1.688629	0.167030	-0.341837
H167	H	1.259524	-0.267289	-0.824046
H168	H	1.759524	0.232711	-0.324046
H169	H	1.302759	-0.350039	-0.834584
H170	H	1.802759	0.149961	-0.334584
H171	H	1.089990	-1.119091	-0.360083
H172	H	1.589990	-0.619091	0.139917
O173	O	1.281127	-1.139602	-0.571619
O174	O	1.781127	-0.639602	-0.071619
C175	C	1.364936	-1.126242	-0.557652
C176	C	1.864936	-0.626242	-0.057652
H177	H	1.368289	-1.077426	-0.525783
H178	H	1.868289	-0.577426	-0.025783
H179	H	1.399149	-1.127663	-0.619563
H180	H	1.899149	-0.627663	-0.119563
H181	H	1.395139	-1.162831	-0.516319
H182	H	1.895139	-0.662831	-0.016319
O183	O	0.663884	-0.304368	-0.383731
O184	O	1.163884	0.195632	0.116269
C185	C	0.577366	-0.310032	-0.390892
C186	C	1.077366	0.189968	0.109108
H187	H	0.562357	-0.332462	-0.454506
H188	H	1.062357	0.167538	0.045494
H189	H	0.544553	-0.261376	-0.383578
H190	H	1.044553	0.238624	0.116422
H191	H	0.555227	-0.340837	-0.340384
H192	H	1.055227	0.159163	0.159616
O193	O	1.280952	-1.010147	-0.571795
O194	O	1.780952	-0.510147	-0.071795
C195	C	1.258522	-1.028457	-0.653744
C196	C	1.758522	-0.528457	-0.153744
H197	H	1.226469	-1.074958	-0.653828
H198	H	1.726469	-0.574958	-0.153828
H199	H	1.316627	-1.034481	-0.694082
H200	H	1.816627	-0.534481	-0.194082
H201	H	1.214333	-0.990739	-0.679587
H202	H	1.714333	-0.490739	-0.179587
