data_functionalizedCrystal
_audit_creation_method	'MofGen! by Chris Wilmer'
_symmetry_space_group_name_H-M	'P1'
_symmetry_Int_Tables_number	1
_symmetry_cell_setting	triclinic
loop_
_symmetry_equiv_pos_as_xyz
  x,y,z
_cell_length_a	21.395362
_cell_length_b	17.640280
_cell_length_c	21.395355
_cell_angle_alpha	78.784922
_cell_angle_beta	89.956060
_cell_angle_gamma	78.812025
loop_
_atom_site_label
_atom_site_type_symbol
_atom_site_fract_x
_atom_site_fract_y
_atom_site_fract_z
Zn1	Zn	1.008318	-0.314390	-0.304290
Zn2	Zn	1.029429	-0.446530	-0.178373
Zn3	Zn	0.903539	-0.314427	-0.199486
Zn4	Zn	0.924713	-0.446546	-0.283075
O5	O	0.966500	-0.380473	-0.241306
O6	O	1.098793	-0.331896	-0.287630
O7	O	1.012702	-0.429015	-0.093494
O8	O	0.899742	-0.203828	-0.231102
O9	O	1.114303	-0.428979	-0.195119
O10	O	0.976723	-0.203801	-0.308102
O11	O	0.920212	-0.331959	-0.109006
O12	O	0.818673	-0.331975	-0.210531
O13	O	0.935830	-0.429007	-0.373569
O14	O	0.834230	-0.429043	-0.271944
O15	O	0.997254	-0.331912	-0.389155
O16	O	1.033234	-0.557126	-0.174548
O17	O	0.956300	-0.557138	-0.251472
C18	C	0.803719	-0.380515	-0.241227
C19	C	0.734083	-0.380552	-0.241204
C20	C	0.999372	-0.585808	-0.208431
C21	C	1.013493	-0.673651	-0.194387
C22	C	0.709497	-0.431162	-0.273111
C23	C	0.644059	-0.431143	-0.273143
C24	C	0.603210	-0.380521	-0.241254
C25	C	0.627802	-0.329901	-0.209346
C26	C	0.693239	-0.329917	-0.209321
C27	C	0.498463	-0.374155	-0.185867
C28	C	0.433029	-0.374145	-0.185890
C29	C	0.401381	-0.380470	-0.241331
C30	C	0.435178	-0.386821	-0.296749
C31	C	0.500615	-0.386836	-0.296724
C32	C	0.532254	-0.380499	-0.241278
C33	C	0.305840	-0.431062	-0.273275
C34	C	0.240399	-0.431037	-0.273308
C35	C	0.224144	-0.329800	-0.209505
C36	C	0.289583	-0.329820	-0.209478
C37	C	0.330428	-0.380456	-0.241362
C38	C	0.859485	-0.962724	-0.348219
C39	C	0.872755	-1.045266	-0.335003
C40	C	0.952916	-1.045188	-0.254983
C41	C	0.939655	-0.962645	-0.268194
C42	C	0.892939	-0.921419	-0.314813
C43	C	0.973109	-0.921340	-0.234788
C44	C	0.959847	-0.838803	-0.247996
C45	C	0.913131	-0.797572	-0.294610
C46	C	0.879677	-0.838883	-0.328021
C47	C	1.019822	-0.962567	-0.188167
C48	C	1.053276	-0.921262	-0.154760
C49	C	1.040017	-0.838724	-0.167971
C50	C	0.993301	-0.797492	-0.214586
C51	C	1.073472	-0.797413	-0.134561
C52	C	1.060209	-0.714877	-0.147769
C53	C	0.980039	-0.714956	-0.227794
C54	C	1.129916	-0.380432	-0.241386
C55	C	1.199555	-0.380414	-0.241420
C56	C	0.966549	-0.380457	-0.404732
C57	C	0.966570	-0.380450	-0.474374
C58	C	0.933515	-0.174337	-0.274324
C59	C	0.919460	-0.086494	-0.288394
C60	C	0.998552	-0.329891	-0.515205
C61	C	0.998545	-0.329857	-0.580646
C62	C	0.966566	-0.380397	-0.605251
C63	C	0.934577	-0.430960	-0.564412
C64	C	0.934579	-0.430986	-0.498974
C65	C	0.973012	-0.451559	-0.697531
C66	C	0.973014	-0.451533	-0.762968
C67	C	0.966557	-0.380313	-0.807086
C68	C	0.960109	-0.309116	-0.785758
C69	C	0.960111	-0.309143	-0.720320
C70	C	0.966560	-0.380373	-0.676208
C71	C	0.998533	-0.329712	-0.918875
C72	C	0.998522	-0.329677	-0.984317
C73	C	0.934559	-0.430787	-0.968082
C74	C	0.934565	-0.430815	-0.902642
C75	C	0.966556	-0.380279	-0.878042
C76	C	0.966477	-0.380432	-0.078525
C77	C	0.966542	-0.380216	-0.008919
H78	H	0.624037	-0.472355	-0.299127
N79	N	0.583747	-0.275312	-0.174944
H80	H	0.586123	-0.218862	-0.193780
H81	H	0.538586	-0.283056	-0.179809
N82	N	1.103655	-0.965737	-0.104478
H83	H	1.138171	-0.999938	-0.124504
H84	H	1.122788	-0.926999	-0.085333
N85	N	0.316097	-0.275236	-0.175054
H86	H	0.348335	-0.307303	-0.140832
H87	H	0.337398	-0.238673	-0.206451
H88	H	0.942002	-0.681389	-0.265760
H89	H	0.409412	-0.391970	-0.341895
H90	H	0.524225	-0.369001	-0.140718
N91	N	0.829285	-0.794412	-0.378298
H92	H	0.825961	-0.735858	-0.381593
H93	H	0.841326	-0.808806	-0.420757
N94	N	0.953157	-0.232356	-0.697321
H95	H	0.911269	-0.196992	-0.714339
H96	H	0.954168	-0.243247	-0.649173
N97	N	0.719760	-0.275322	-0.174911
H98	H	0.683954	-0.243245	-0.154717
H99	H	0.752007	-0.307440	-0.140720
H100	H	0.405517	-0.368979	-0.140765
N101	N	1.096286	-0.670319	-0.111737
H102	H	1.127894	-0.708959	-0.080202
H103	H	1.119756	-0.636025	-0.142766
H104	H	0.339097	-0.472288	-0.299240
H105	H	0.528130	-0.392005	-0.341848
H106	H	0.902330	-0.730366	-0.305359
N107	N	1.033047	-0.275331	-0.624696
H108	H	1.001728	-0.238700	-0.657688
H109	H	1.053313	-0.243374	-0.599136
N110	N	0.213882	-0.485631	-0.307722
H111	H	0.192542	-0.522193	-0.276362
H112	H	0.181673	-0.453509	-0.341947
H113	H	0.821448	-0.929157	-0.386185
N114	N	1.033053	-0.275385	-0.488672
H115	H	1.053312	-0.243350	-0.524472
H116	H	1.001699	-0.238827	-0.467354
H117	H	0.845517	-1.078894	-0.362218
N118	N	0.180090	-0.275203	-0.175111
H119	H	0.193374	-0.287397	-0.128372
H120	H	0.182491	-0.218778	-0.193998
H121	H	0.742749	-0.472392	-0.299075
H122	H	0.908527	-0.471991	-0.869396
N123	N	1.003294	-1.089655	-0.204697
H124	H	1.006618	-1.148209	-0.201396
H125	H	1.045711	-1.075170	-0.216823
H126	H	1.030620	-1.029773	-0.177416
N127	N	1.123846	-0.841890	-0.084275
H128	H	1.158363	-0.876095	-0.104297
H129	H	1.142979	-0.803153	-0.065128
N130	N	0.953150	-0.232294	-0.833333
H131	H	0.954124	-0.243076	-0.878024
H132	H	0.911267	-0.196973	-0.827517
H133	H	1.024578	-0.288559	-0.898846
N134	N	1.033005	-0.275128	-1.028362
H135	H	1.053267	-0.243118	-1.002846
H136	H	1.067143	-0.307272	-1.050397
N137	N	0.900060	-0.485292	-0.994612
H138	H	0.904909	-0.477603	-1.042263
H139	H	0.918841	-0.541739	-0.974153
H140	H	0.978268	-0.509506	-0.780327
N141	N	0.979986	-0.528380	-0.649949
H142	H	0.984079	-0.573477	-0.673387
H143	H	1.019337	-0.535709	-0.621660
N144	N	0.900073	-0.485458	-0.590949
H145	H	0.904923	-0.477768	-0.638600
H146	H	0.918847	-0.541907	-0.570491
N147	N	0.900073	-0.485509	-0.454932
H148	H	0.879807	-0.517517	-0.480448
H149	H	0.931422	-0.522093	-0.421946
