data_functionalizedCrystal
_audit_creation_method	'MofGen! by Chris Wilmer'
_symmetry_space_group_name_H-M	'P1'
_symmetry_Int_Tables_number	1
_symmetry_cell_setting	triclinic
loop_
_symmetry_equiv_pos_as_xyz
  x,y,z
_cell_length_a	16.120490
_cell_length_b	16.120444
_cell_length_c	12.759393
_cell_angle_alpha	92.864729
_cell_angle_beta	87.082653
_cell_angle_gamma	90.165174
loop_
_atom_site_label
_atom_site_type_symbol
_atom_site_fract_x
_atom_site_fract_y
_atom_site_fract_z
Zn1	Zn	1.254487	-0.395628	-0.699338
Zn2	Zn	1.754487	0.104372	-0.199338
Zn3	Zn	1.247323	-0.534700	-0.532073
Zn4	Zn	1.747323	-0.034700	-0.032073
Zn5	Zn	1.115421	-0.388601	-0.514348
Zn6	Zn	1.615421	0.111399	-0.014348
Zn7	Zn	1.108336	-0.527574	-0.698383
Zn8	Zn	1.608336	-0.027574	-0.198383
O9	O	1.181392	-0.461626	-0.611035
O10	O	1.681392	0.038374	-0.111035
O11	O	1.369902	-0.420000	-0.684968
O12	O	1.869902	0.080000	-0.184968
O13	O	1.229793	-0.515361	-0.382701
O14	O	1.729793	-0.015361	0.117299
O15	O	1.139832	-0.273170	-0.531869
O16	O	1.639832	0.226830	-0.031869
O17	O	1.364639	-0.522175	-0.562078
O18	O	1.864639	-0.022175	-0.062078
O19	O	1.242003	-0.278333	-0.667781
O20	O	1.742003	0.221667	-0.167781
O21	O	1.132885	-0.408022	-0.369679
O22	O	1.632885	0.091978	0.130321
O23	O	0.998116	-0.401112	-0.530943
O24	O	1.498116	0.098888	-0.030943
O25	O	1.127757	-0.510030	-0.845530
O26	O	1.627757	-0.010030	-0.345530
O27	O	0.992910	-0.503215	-0.666153
O28	O	1.492910	-0.003215	-0.166153
O29	O	1.235133	-0.413090	-0.846232
O30	O	1.735133	0.086910	-0.346232
O31	O	1.222923	-0.650117	-0.561152
O32	O	1.722923	-0.150117	-0.061152
O33	O	1.120810	-0.644882	-0.683340
O34	O	1.620810	-0.144882	-0.183340
C35	C	0.965341	-0.450629	-0.596521
C36	C	1.465341	0.049371	-0.096521
C37	C	0.872912	-0.445944	-0.590338
C38	C	1.372912	0.054056	-0.090338
C39	C	1.170343	-0.677672	-0.624090
C40	C	1.670343	-0.177672	-0.124090
C41	C	1.165692	-0.770102	-0.629715
C42	C	1.665692	-0.270102	-0.129715
C43	C	0.659943	-0.485919	-0.643109
C44	C	1.159943	0.014081	-0.143109
C45	C	0.703689	-0.437399	-0.579049
C46	C	1.203689	0.062601	-0.079049
C47	C	0.797853	-0.442155	-0.585332
C48	C	1.297853	0.057845	-0.085332
C49	C	0.565770	-0.481164	-0.636827
C50	C	1.065770	0.018836	-0.136827
C51	C	1.205721	-0.983081	-0.582095
C52	C	1.705721	-0.483081	-0.082095
C53	C	1.157217	-0.939327	-0.639997
C54	C	1.657217	-0.439327	-0.139997
C55	C	1.161934	-0.845161	-0.634274
C56	C	1.661934	-0.345161	-0.134274
C57	C	1.201005	-1.077255	-0.587816
C58	C	1.701005	-0.577255	-0.087816
C59	C	1.398287	-0.472666	-0.625607
C60	C	1.898287	0.027334	-0.125607
C61	C	1.490714	-0.477371	-0.631816
C62	C	1.990714	0.022629	-0.131816
C63	C	1.181453	-0.461549	-0.885068
C64	C	1.681453	0.038451	-0.385068
C65	C	1.181480	-0.461516	-1.001844
C66	C	1.681480	0.038484	-0.501844
C67	C	1.192507	-0.244737	-0.597954
C68	C	1.692507	0.255263	-0.097954
C69	C	1.197243	-0.152311	-0.592380
C70	C	1.697243	0.347689	-0.092380
C71	C	1.231943	-0.517387	-1.063483
C72	C	1.731943	-0.017387	-0.563483
C73	C	1.231970	-0.517353	-1.173207
C74	C	1.731970	-0.017353	-0.673207
C75	C	1.131063	-0.405574	-1.159642
C76	C	1.631063	0.094426	-0.659642
C77	C	1.131041	-0.405605	-1.049921
C78	C	1.631041	0.094395	-0.549921
C79	C	1.290198	-0.581924	-1.071316
C80	C	1.790198	-0.081924	-0.571316
C81	C	1.290225	-0.581890	-1.181039
C82	C	1.790225	-0.081890	-0.681039
C83	C	1.181382	-0.461644	-0.338069
C84	C	1.681382	0.038356	0.161931
C85	C	1.181528	-0.461451	-0.221290
C86	C	1.681528	0.038549	0.278710
H87	H	0.670420	-0.392288	-0.519486
H88	H	1.170420	0.107712	-0.019486
H89	H	0.693209	-0.531027	-0.702667
H90	H	1.193209	-0.031027	-0.202667
H91	H	1.112147	-0.972589	-0.693866
H92	H	1.612147	-0.472589	-0.193866
N93	N	1.262257	-0.941348	-0.514529
N94	N	1.762257	-0.441348	-0.014529
N95	N	1.266053	-0.863803	-0.509924
N96	N	1.766053	-0.363803	-0.009924
H97	H	1.305980	-0.834320	-0.462206
H98	H	1.805980	-0.334320	0.037794
H99	H	1.089956	-0.360103	-0.999738
H100	H	1.589956	0.139897	-0.499738
H101	H	1.269679	-0.645405	-1.213543
H102	H	1.769679	-0.145405	-0.713543
H103	H	1.089998	-0.360053	-1.198800
H104	H	1.589998	0.139947	-0.698800
N105	N	1.372096	-0.564417	-1.038096
N106	N	1.872096	-0.064417	-0.538096
N107	N	1.429814	-0.552050	-1.104670
N108	N	1.929814	-0.052050	-0.604670
H109	H	1.487653	-0.539686	-1.081210
H110	H	1.987653	-0.039686	-0.581210
H111	H	1.263994	-0.641938	-1.039423
H112	H	1.763994	-0.141938	-0.539423
H113	H	1.352596	-0.561932	-1.217790
H114	H	1.852596	-0.061932	-0.717790
