data_functionalizedCrystal
_audit_creation_method	'MofGen! by Chris Wilmer'
_symmetry_space_group_name_H-M	'P1'
_symmetry_Int_Tables_number	1
_symmetry_cell_setting	triclinic
loop_
_symmetry_equiv_pos_as_xyz
  x,y,z
_cell_length_a	15.455313
_cell_length_b	19.288864
_cell_length_c	16.992695
_cell_angle_alpha	93.097766
_cell_angle_beta	87.142836
_cell_angle_gamma	87.345037
loop_
_atom_site_label
_atom_site_type_symbol
_atom_site_fract_x
_atom_site_fract_y
_atom_site_fract_z
O1	O	-0.072411	-0.924177	0.101247
O2	O	-0.072352	-0.722688	0.114437
O3	O	-0.072375	-0.822625	-0.006298
O4	O	-0.072389	-0.824240	0.221982
O5	O	0.071886	-0.828334	-0.013181
O6	O	0.071909	-0.728397	0.107554
O7	O	0.071850	-0.929887	0.094364
Cu8	Cu	0.085051	-0.829663	0.100330
Cu9	Cu	-0.085554	-0.822911	0.108471
O10	O	0.071872	-0.829949	0.215099
C11	C	-0.000214	-0.699642	0.110570
C12	C	-0.000191	-0.622465	0.109295
N13	N	-0.205548	-0.818162	0.114190
C14	C	-0.000244	-0.823402	-0.038945
C15	C	-0.000242	-0.817201	-0.125967
C16	C	-0.250952	-0.860711	0.062996
C17	C	-0.341759	-0.857118	0.067320
C18	C	-0.387161	-0.810973	0.122835
C19	C	-0.341751	-0.768423	0.174035
C20	C	-0.250945	-0.772019	0.169714
C21	C	-0.658739	-0.795464	0.141483
C22	C	-0.749551	-0.791869	0.145798
C23	C	-0.749553	-0.880566	0.039084
C24	C	-0.658745	-0.884155	0.034765
C25	C	-0.613343	-0.841608	0.085967
N26	N	-0.479980	-0.807298	0.127255
N27	N	-0.520526	-0.845287	0.081551
N28	N	0.205046	-0.834417	0.094604
C29	C	-0.000290	-0.952933	0.098231
C30	C	-0.000319	-1.030109	0.099506
C31	C	-0.000209	-0.581896	0.180138
C32	C	-0.000219	-0.509379	0.178942
C33	C	-0.000228	-0.477433	0.106898
C34	C	-0.000205	-0.518010	0.036046
C35	C	-0.000187	-0.590526	0.037244
C36	C	-0.050794	-0.363869	0.052677
C37	C	-0.050818	-0.291354	0.051482
C38	C	-0.000280	-0.253769	0.103199
C39	C	0.050270	-0.288708	0.156126
C40	C	0.050288	-0.361224	0.157324
C41	C	-0.000247	-0.398802	0.105591
C42	C	-0.000307	-0.134569	0.172750
C43	C	-0.000311	-0.062051	0.171550
C44	C	-0.000306	-0.070683	0.028652
C45	C	-0.000293	-0.143200	0.029854
C46	C	-0.000298	-0.175139	0.101905
C47	C	-0.000259	-0.877028	-0.176418
C48	C	-0.000265	-0.871198	-0.258184
C49	C	-0.000249	-0.805539	-0.289497
C50	C	-0.000235	-0.745707	-0.239040
C51	C	-0.000235	-0.751538	-0.157275
C52	C	-0.000254	-0.781372	-0.533010
C53	C	-0.000252	-0.775546	-0.614781
C54	C	-0.000283	-0.901037	-0.633919
C55	C	-0.000278	-0.906862	-0.552152
C56	C	-0.000268	-0.847030	-0.501702
N57	N	-0.000253	-0.799578	-0.373075
N58	N	-0.000271	-0.852992	-0.418126
C59	C	-0.000261	-0.829173	0.247746
C60	C	-0.000268	-0.835373	0.334768
H61	H	-0.378726	-0.891765	0.025635
H62	H	-0.000293	-0.949749	-0.675004
H63	H	-0.000283	-0.176232	-0.027834
H64	H	-0.000231	-0.476342	0.236632
C65	C	-0.391686	-0.717664	0.235103
H66	H	-0.351637	-0.692844	0.264979
H67	H	-0.427093	-0.685839	0.208604
H68	H	-0.427125	-0.743000	0.269414
C69	C	-0.608810	-0.934923	-0.026293
H70	H	-0.648857	-0.959756	-0.056158
H71	H	-0.573365	-0.909599	-0.060604
H72	H	-0.573409	-0.966748	0.000221
C73	C	-0.000332	-0.017422	0.249480
H74	H	-0.000332	0.030340	0.238448
H75	H	-0.050641	-0.025558	0.281428
H76	H	0.049979	-0.029509	0.276635
C77	C	-0.201001	-0.725199	0.226009
H78	H	-0.241045	-0.697191	0.259681
H79	H	-0.165585	-0.753321	0.256953
H80	H	-0.165572	-0.696183	0.196115
H81	H	-0.000298	-0.160575	0.231418
H82	H	-0.000224	-0.491994	-0.022612
C83	C	-0.799495	-0.741103	0.206861
H84	H	-0.860078	-0.745049	0.202090
H85	H	-0.784640	-0.752042	0.258485
H86	H	-0.784590	-0.694892	0.197662
H87	H	-0.621780	-0.760818	0.183173
H88	H	-0.786527	-0.915207	-0.002601
H89	H	-0.000172	-0.623557	-0.020447
C90	C	-0.000199	-0.617026	0.259390
H91	H	-0.000202	-0.582474	0.301410
H92	H	-0.050495	-0.643165	0.265233
H93	H	0.050125	-0.647104	0.260424
H94	H	-0.213992	-0.898284	0.017787
C95	C	0.105897	-0.399655	0.215531
H96	H	0.136000	-0.366890	0.246159
H97	H	0.069468	-0.424605	0.249390
H98	H	0.146546	-0.431172	0.186946
H99	H	-0.091983	-0.262912	0.008389
C100	C	-0.000277	-0.949253	-0.141981
H101	H	-0.000296	-0.984048	-0.183741
H102	H	0.050029	-0.956130	-0.112886
H103	H	-0.050591	-0.952145	-0.108080
C104	C	-0.106397	-0.405204	-0.004210
H105	H	-0.136517	-0.374011	-0.035891
H106	H	-0.069961	-0.436837	-0.037138
H107	H	-0.147033	-0.430256	0.025312
C108	C	-0.000321	-0.035551	-0.050593
H109	H	-0.000341	0.013448	-0.041162
H110	H	0.049987	-0.051181	-0.082158
H111	H	-0.050633	-0.047235	-0.077346
C112	C	-0.000244	-0.715561	-0.477521
H113	H	-0.000258	-0.728432	-0.424339
H114	H	0.050068	-0.690812	-0.489389
H115	H	-0.050552	-0.686840	-0.484592
C116	C	0.105859	-0.247375	0.213023
H117	H	0.098617	-0.199183	0.204727
H118	H	0.088085	-0.255430	0.265932
H119	H	0.165174	-0.262002	0.203500
H120	H	-0.000277	-0.919916	-0.299259
H121	H	-0.000291	-0.960328	-0.526664
H122	H	-0.000224	-0.722077	-0.640273
C123	C	-0.000215	-0.673485	-0.273483
H124	H	-0.000207	-0.678580	-0.329405
H125	H	-0.050513	-0.646667	-0.253748
H126	H	0.050107	-0.650654	-0.258552
H127	H	-0.000221	-0.702820	-0.116198
