data_functionalizedCrystal
_audit_creation_method	'MofGen! by Chris Wilmer'
_symmetry_space_group_name_H-M	'P1'
_symmetry_Int_Tables_number	1
_symmetry_cell_setting	triclinic
loop_
_symmetry_equiv_pos_as_xyz
  x,y,z
_cell_length_a	16.109295
_cell_length_b	10.065875
_cell_length_c	16.109296
_cell_angle_alpha	98.793159
_cell_angle_beta	83.459379
_cell_angle_gamma	81.258551
loop_
_atom_site_label
_atom_site_type_symbol
_atom_site_fract_x
_atom_site_fract_y
_atom_site_fract_z
O1	O	-1.115289	0.113381	-0.094633
O2	O	-0.865289	0.363381	0.155367
O3	O	-0.615289	0.613381	0.405367
O4	O	-0.365289	0.863381	0.655367
O5	O	-0.873228	0.113402	-0.107935
O6	O	-0.623228	0.363402	0.142065
O7	O	-0.373228	0.613402	0.392065
O8	O	-0.123228	0.863402	0.642065
O9	O	-1.000912	0.113405	0.019749
O10	O	-0.750912	0.363405	0.269749
O11	O	-0.500912	0.613405	0.519749
O12	O	-0.250912	0.863405	0.769749
O13	O	-0.987606	0.113378	-0.222317
O14	O	-0.737606	0.363378	0.027683
O15	O	-0.487606	0.613378	0.277683
O16	O	-0.237606	0.863378	0.527683
O17	O	-0.976564	-0.113584	-0.004696
O18	O	-0.726564	0.136416	0.245304
O19	O	-0.476564	0.386416	0.495304
O20	O	-0.226564	0.636416	0.745304
O21	O	-0.848881	-0.113588	-0.132380
O22	O	-0.598881	0.136412	0.117620
O23	O	-0.348881	0.386412	0.367620
O24	O	-0.098881	0.636412	0.617620
O25	O	-1.090942	-0.113608	-0.119078
O26	O	-0.840942	0.136392	0.130922
O27	O	-0.590942	0.386392	0.380922
O28	O	-0.340942	0.636392	0.630922
Zn29	Zn	-0.966046	-0.149638	-0.129610
Zn30	Zn	-0.716046	0.100362	0.120390
Zn31	Zn	-0.466046	0.350362	0.370390
Zn32	Zn	-0.216046	0.600362	0.620390
Zn33	Zn	-0.998124	0.149431	-0.097403
Zn34	Zn	-0.748124	0.399431	0.152597
Zn35	Zn	-0.498124	0.649431	0.402597
Zn36	Zn	-0.248124	0.899431	0.652597
O37	O	-0.963258	-0.113612	-0.246762
O38	O	-0.713258	0.136388	0.003238
O39	O	-0.463258	0.386388	0.253238
O40	O	-0.213258	0.636388	0.503238
C41	C	-0.830080	-0.000090	-0.119619
C42	C	-0.580080	0.249910	0.130381
C43	C	-0.330080	0.499910	0.380381
C44	C	-0.080080	0.749910	0.630381
C45	C	-0.737785	-0.000081	-0.118005
C46	C	-0.487785	0.249919	0.131995
C47	C	-0.237785	0.499919	0.381995
C48	C	0.012215	0.749919	0.631995
N49	N	-0.944159	-0.353744	-0.151591
N50	N	-0.694159	-0.103744	0.098409
N51	N	-0.444159	0.146256	0.348409
N52	N	-0.194159	0.396256	0.598409
C53	C	-0.515509	-0.000104	-0.190020
C54	C	-0.265509	0.249896	0.059980
C55	C	-0.015509	0.499896	0.309980
C56	C	0.234491	0.749896	0.559980
C57	C	-0.428787	-0.000112	-0.188498
C58	C	-0.178787	0.249888	0.061502
C59	C	0.071213	0.499888	0.311502
C60	C	0.321213	0.749888	0.561502
C61	C	-0.448667	-0.000089	-0.037006
C62	C	-0.198667	0.249911	0.212994
C63	C	0.051333	0.499911	0.462994
C64	C	0.301333	0.749911	0.712994
C65	C	-0.535386	-0.000091	-0.038530
C66	C	-0.285386	0.249909	0.211470
C67	C	-0.035386	0.499909	0.461470
C68	C	0.214614	0.749909	0.711470
C69	C	-0.568805	-0.000091	-0.115038
C70	C	-0.318805	0.249909	0.134962
C71	C	-0.068805	0.499909	0.384962
C72	C	0.181195	0.749909	0.634962
C73	C	-0.395365	-0.000098	-0.111993
C74	C	-0.145365	0.249902	0.138007
C75	C	0.104635	0.499902	0.388007
C76	C	0.354635	0.749902	0.638007
C77	C	-0.301337	-0.000106	-0.110343
C78	C	-0.051337	0.249894	0.139657
C79	C	0.198663	0.499894	0.389657
C80	C	0.448663	0.749894	0.639657
C81	C	-0.662838	-0.000085	-0.116689
C82	C	-0.412838	0.249915	0.133311
C83	C	-0.162838	0.499915	0.383311
C84	C	0.087162	0.749915	0.633311
C85	C	-0.990504	-0.421521	-0.105045
C86	C	-0.740504	-0.171521	0.144955
C87	C	-0.490504	0.078479	0.394955
C88	C	-0.240504	0.328479	0.644955
C89	C	-0.973666	-0.578689	-0.121968
C90	C	-0.723666	-0.328689	0.128032
C91	C	-0.473666	-0.078689	0.378032
C92	C	-0.223666	0.171311	0.628032
C93	C	-0.134090	-0.000112	-0.107398
C94	C	0.115910	0.249888	0.142602
C95	C	0.365910	0.499888	0.392602
C96	C	0.615910	0.749888	0.642602
C97	C	-0.226384	-0.000108	-0.109026
C98	C	0.023616	0.249892	0.140974
C99	C	0.273616	0.499892	0.390974
C100	C	0.523616	0.749892	0.640974
C101	C	-0.988201	-0.000083	0.038502
C102	C	-0.738201	0.249917	0.288502
C103	C	-0.488201	0.499917	0.538502
C104	C	-0.238201	0.749917	0.788502
C105	C	-0.986589	-0.000063	0.130800
C106	C	-0.736589	0.249937	0.380800
C107	C	-0.486589	0.499937	0.630800
C108	C	-0.236589	0.749937	0.880800
N109	N	-1.020018	0.353537	-0.075416
N110	N	-0.770018	0.603537	0.174584
N111	N	-0.520018	0.853537	0.424584
N112	N	-0.270018	1.103537	0.674584
C113	C	-0.994594	0.123652	0.443192
C114	C	-0.744594	0.373652	0.693192
C115	C	-0.494594	0.623652	0.943192
C116	C	-0.244594	0.873652	1.193192
C117	C	-0.996122	0.123658	0.356473
C118	C	-0.746122	0.373658	0.606473
C119	C	-0.496122	0.623658	0.856473
C120	C	-0.246122	0.873658	1.106473
C121	C	-0.969589	-0.123818	0.329807
C122	C	-0.719589	0.126182	0.579807
C123	C	-0.469589	0.376182	0.829807
C124	C	-0.219589	0.626182	1.079807
C125	C	-0.968067	-0.123823	0.416525
C126	C	-0.718067	0.126177	0.666525
C127	C	-0.468067	0.376177	0.916525
C128	C	-0.218067	0.626177	1.166525
C129	C	-0.980565	-0.000084	0.473216
C130	C	-0.730565	0.249916	0.723216
C131	C	-0.480565	0.499916	0.973216
C132	C	-0.230565	0.749916	1.223216
C133	C	-0.983615	-0.000073	0.299778
C134	C	-0.733615	0.249927	0.549778
C135	C	-0.483615	0.499927	0.799778
C136	C	-0.233615	0.749927	1.049778
C137	C	-0.985272	-0.000067	0.205753
C138	C	-0.735272	0.249933	0.455753
C139	C	-0.485272	0.499933	0.705753
C140	C	-0.235272	0.749933	0.955753
C141	C	-0.978910	-0.000089	0.567247
C142	C	-0.728910	0.249911	0.817247
C143	C	-0.478910	0.499911	1.067247
C144	C	-0.228910	0.749911	1.317247
C145	C	-0.975972	-0.000111	0.734487
C146	C	-0.725972	0.249889	0.984487
C147	C	-0.475972	0.499889	1.234487
C148	C	-0.225972	0.749889	1.484487
C149	C	-0.977592	-0.000093	0.642194
C150	C	-0.727592	0.249907	0.892194
C151	C	-0.477592	0.499907	1.142194
C152	C	-0.227592	0.749907	1.392194
H153	H	-0.542714	-0.000114	-0.252319
H154	H	-0.292714	0.249886	-0.002319
H155	H	-0.042714	0.499886	0.247681
H156	H	0.207286	0.749886	0.497681
H157	H	-0.385396	-0.000125	-0.249556
H158	H	-0.135396	0.249875	0.000444
H159	H	0.114604	0.499875	0.250444
H160	H	0.364604	0.749875	0.500444
H161	H	-0.421445	-0.000097	0.025284
H162	H	-0.171445	0.249903	0.275284
H163	H	0.078555	0.499903	0.525284
H164	H	0.328555	0.749903	0.775284
H165	H	-0.578781	-0.000084	0.022533
H166	H	-0.328781	0.249916	0.272533
H167	H	-0.078781	0.499916	0.522533
H168	H	0.171219	0.749916	0.772533
H169	H	-1.007546	0.224416	0.332033
H170	H	-0.757546	0.474416	0.582033
H171	H	-0.507546	0.724416	0.832033
H172	H	-0.257546	0.974416	1.082033
H173	H	-1.042645	-0.363196	-0.052663
H174	H	-0.792645	-0.113196	0.197337
H175	H	-0.542645	0.136804	0.447337
H176	H	-0.292645	0.386804	0.697337
F177	F	-0.905501	-0.654917	-0.190431
F178	F	-0.655501	-0.404917	0.059569
F179	F	-0.405501	-0.154917	0.309569
F180	F	-0.155501	0.095083	0.559569
F181	F	-0.956284	-0.255502	0.269466
F182	F	-0.706284	-0.005502	0.519466
F183	F	-0.456284	0.244498	0.769466
F184	F	-0.206284	0.494498	1.019466
F185	F	-1.088318	-0.570238	-0.007087
F186	F	-0.838318	-0.320238	0.242913
F187	F	-0.588318	-0.070238	0.492913
F188	F	-0.338318	0.179762	0.742913
F189	F	-0.875997	-0.429977	-0.220050
F190	F	-0.625997	-0.179977	0.029950
F191	F	-0.375997	0.070023	0.279950
F192	F	-0.125997	0.320023	0.529950
F193	F	-1.007899	0.255346	0.503524
F194	F	-0.757899	0.505346	0.753524
F195	F	-0.507899	0.755346	1.003524
F196	F	-0.257899	1.005346	1.253524
H197	H	-0.956645	-0.224590	0.440970
H198	H	-0.706645	0.025410	0.690970
H199	H	-0.456645	0.275410	0.940970
H200	H	-0.206645	0.525410	1.190970
