data_functionalizedCrystal
_audit_creation_method	'MofGen! by Chris Wilmer'
_symmetry_space_group_name_H-M	'P1'
_symmetry_Int_Tables_number	1
_symmetry_cell_setting	triclinic
loop_
_symmetry_equiv_pos_as_xyz
  x,y,z
_cell_length_a	11.169417
_cell_length_b	13.897447
_cell_length_c	11.169409
_cell_angle_alpha	89.965697
_cell_angle_beta	89.980487
_cell_angle_gamma	90.020779
loop_
_atom_site_label
_atom_site_type_symbol
_atom_site_fract_x
_atom_site_fract_y
_atom_site_fract_z
Zn1	Zn	1.834886	-0.383905	-0.678516
Zn2	Zn	1.834743	-0.545240	-0.477826
Zn3	Zn	1.634172	-0.383964	-0.477852
Zn4	Zn	1.634147	-0.545163	-0.678472
O5	O	1.734487	-0.464568	-0.578167
O6	O	2.002816	-0.405314	-0.651902
O7	O	1.808087	-0.523904	-0.309880
O8	O	1.660867	-0.248975	-0.504499
O9	O	2.002711	-0.523846	-0.504456
O10	O	1.808331	-0.248931	-0.651927
O11	O	1.660728	-0.405416	-0.309899
O12	O	1.466219	-0.405340	-0.504457
O13	O	1.660825	-0.523714	-0.846428
O14	O	1.466200	-0.523772	-0.651852
O15	O	1.808307	-0.405238	-0.846460
O16	O	1.808063	-0.680212	-0.504413
O17	O	1.660686	-0.680155	-0.651827
C18	C	1.422662	-0.464555	-0.578153
C19	C	1.289262	-0.464573	-0.578176
C20	C	1.734389	-0.715182	-0.578139
C21	C	1.734457	-0.822396	-0.578167
C22	C	1.734515	-0.909466	-0.578194
C23	C	1.734599	-1.018699	-0.578225
C24	C	2.047529	-0.464582	-0.578181
C25	C	2.180929	-0.464588	-0.578187
C26	C	1.734579	-0.464461	-0.891209
C27	C	1.734618	-0.464415	-1.024609
C28	C	1.734617	-0.212975	-0.578221
C29	C	1.734673	-0.105761	-0.578244
C30	C	1.734464	-0.464605	-0.266342
C31	C	1.734657	-0.464379	-0.132943
