data_functionalizedCrystal
_audit_creation_method	'MofGen! by Chris Wilmer'
_symmetry_space_group_name_H-M	'P1'
_symmetry_Int_Tables_number	1
_symmetry_cell_setting	triclinic
loop_
_symmetry_equiv_pos_as_xyz
  x,y,z
_cell_length_a	14.908782
_cell_length_b	21.295417
_cell_length_c	21.295411
_cell_angle_alpha	89.978356
_cell_angle_beta	93.278219
_cell_angle_gamma	86.737741
loop_
_atom_site_label
_atom_site_type_symbol
_atom_site_fract_x
_atom_site_fract_y
_atom_site_fract_z
Zn1	Zn	1.379107	-0.306158	-0.300266
Zn2	Zn	1.879107	0.193842	0.199734
Zn3	Zn	1.378967	-0.411404	-0.194997
Zn4	Zn	1.878967	0.088596	0.305003
Zn5	Zn	1.228239	-0.300089	-0.201098
Zn6	Zn	1.728239	0.199911	0.298902
Zn7	Zn	1.228195	-0.405322	-0.306312
Zn8	Zn	1.728195	0.094678	0.193688
O9	O	1.303627	-0.355743	-0.250668
O10	O	1.803627	0.144257	0.249332
O11	O	1.505325	-0.325204	-0.281218
O12	O	2.005325	0.174796	0.218782
O13	O	1.358932	-0.396643	-0.107719
O14	O	1.858932	0.103357	0.392281
O15	O	1.248329	-0.212808	-0.214276
O16	O	1.748329	0.287192	0.285724
O17	O	1.505222	-0.402528	-0.203877
O18	O	2.005222	0.097472	0.296123
O19	O	1.359171	-0.217266	-0.287134
O20	O	1.859171	0.282734	0.212866
O21	O	1.248194	-0.314861	-0.112201
O22	O	1.748194	0.185139	0.387799
O23	O	1.101997	-0.308964	-0.220139
O24	O	1.601997	0.191036	0.279861
O25	O	1.248254	-0.392162	-0.393598
O26	O	1.748254	0.107838	0.106402
O27	O	1.101965	-0.386278	-0.297439
O28	O	1.601965	0.113722	0.202561
O29	O	1.359128	-0.319307	-0.389156
O30	O	1.859128	0.180693	0.110844
O31	O	1.358890	-0.498683	-0.209740
O32	O	1.858890	0.001317	0.290260
O33	O	1.248119	-0.494215	-0.291523
O34	O	1.748119	0.005785	0.208477
C35	C	1.069249	-0.346303	-0.260108
C36	C	1.569249	0.153697	0.239892
C37	C	0.968981	-0.342280	-0.264161
C38	C	1.468981	0.157720	0.235839
C39	C	1.303509	-0.519290	-0.250638
C40	C	1.803509	-0.019290	0.249362
C41	C	1.303541	-0.589260	-0.250643
C42	C	1.803541	-0.089260	0.249357
C43	C	0.780458	-0.415126	-0.191119
C44	C	1.280458	0.084874	0.308881
C45	C	0.686247	-0.411348	-0.194925
C46	C	1.186247	0.088652	0.305075
C47	C	0.686347	-0.330948	-0.275582
C48	C	1.186347	0.169052	0.224418
C49	C	0.780558	-0.334727	-0.271776
C50	C	1.280558	0.165273	0.228224
C51	C	0.827610	-0.376816	-0.229542
C52	C	1.327610	0.123184	0.270458
C53	C	0.921822	-0.380591	-0.225733
C54	C	1.421822	0.119409	0.274267
C55	C	0.921920	-0.300195	-0.306393
C56	C	1.421920	0.199805	0.193607
C57	C	0.827709	-0.296417	-0.310199
C58	C	1.327709	0.203583	0.189801
C59	C	1.361270	-0.624434	-0.208098
C60	C	1.861270	-0.124434	0.291902
C61	C	1.361313	-0.690178	-0.208111
C62	C	1.861313	-0.190178	0.291889
C63	C	1.303609	-0.720745	-0.250662
C64	C	1.803609	-0.220745	0.249338
C65	C	1.245875	-0.685562	-0.293215
C66	C	1.745875	-0.185562	0.206785
C67	C	1.245841	-0.619820	-0.293206
C68	C	1.745841	-0.119820	0.206794
N69	N	1.224695	-0.820837	-0.258639
N70	N	1.724695	-0.320837	0.241361
N71	N	1.224730	-0.883290	-0.258644
N72	N	1.724730	-0.383290	0.241356
C73	C	1.303710	-0.918824	-0.250694
C74	C	1.803710	-0.418824	0.249306
N75	N	1.382656	-0.889545	-0.242726
N76	N	1.882656	-0.389545	0.257274
N77	N	1.382619	-0.827087	-0.242718
N78	N	1.882619	-0.327087	0.257282
C79	C	1.303640	-0.792031	-0.250677
C80	C	1.803640	-0.292031	0.249323
C81	C	1.361491	-1.025285	-0.208160
C82	C	1.861491	-0.525285	0.291840
C83	C	1.361534	-1.091031	-0.208177
C84	C	1.861534	-0.591031	0.291823
C85	C	1.246089	-1.086414	-0.293279
C86	C	1.746089	-0.586414	0.206721
C87	C	1.246053	-1.020670	-0.293265
C88	C	1.746053	-0.520670	0.206735
C89	C	1.303753	-0.990110	-0.250702
C90	C	1.803753	-0.490110	0.249298
C91	C	1.538920	-0.365221	-0.241193
C92	C	2.038920	0.134779	0.258807
C93	C	1.639188	-0.369260	-0.237155
C94	C	2.139188	0.130740	0.262845
C95	C	1.303702	-0.355733	-0.414856
C96	C	1.803702	0.144267	0.085144
C97	C	1.303734	-0.355729	-0.484823
C98	C	1.803734	0.144271	0.015177
C99	C	1.303770	-0.191559	-0.250711
C100	C	1.803770	0.308441	0.249289
C101	C	1.303831	-0.121593	-0.250730
C102	C	1.803831	0.378407	0.249270
C103	C	1.361463	-0.317791	-0.515377
C104	C	1.861463	0.182209	-0.015377
C105	C	1.361462	-0.317763	-0.581120
C106	C	1.861462	0.182237	-0.081120
C107	C	1.303741	-0.355686	-0.616305
C108	C	1.803741	0.144314	-0.116305
C109	C	1.246000	-0.393626	-0.585743
C110	C	1.746000	0.106374	-0.085743
C111	C	1.245997	-0.393647	-0.520002
C112	C	1.745997	0.106353	-0.020002
N113	N	1.296781	-0.410473	-0.719801
N114	N	1.796781	0.089527	-0.219801
N115	N	1.296790	-0.410451	-0.782252
N116	N	1.796790	0.089549	-0.282252
C117	C	1.303747	-0.355622	-0.814379
C118	C	1.803747	0.144378	-0.314379
N119	N	1.310712	-0.300815	-0.781696
N120	N	1.810712	0.199185	-0.281696
N121	N	1.310708	-0.300838	-0.719239
N122	N	1.810708	0.199162	-0.219239
C123	C	1.303738	-0.355666	-0.687590
C124	C	1.803738	0.144334	-0.187590
C125	C	1.361478	-0.317651	-0.916220
C126	C	1.861478	0.182349	-0.416220
C127	C	1.361470	-0.317622	-0.981964
C128	C	1.861470	0.182378	-0.481964
C129	C	1.246013	-0.393491	-0.986585
C130	C	1.746013	0.106509	-0.486585
C131	C	1.246016	-0.393514	-0.920842
C132	C	1.746016	0.106486	-0.420842
C133	C	1.303753	-0.355595	-0.885664
C134	C	1.803753	0.144405	-0.385664
C135	C	1.303604	-0.355710	-0.087118
C136	C	1.803604	0.144290	0.412882
C137	C	1.303747	-0.355544	-0.017144
C138	C	1.803747	0.144456	0.482856
H139	H	0.960131	-0.414861	-0.191343
H140	H	1.460131	0.085139	0.308657
H141	H	1.199006	-0.424361	-1.015232
H142	H	1.699006	0.075639	-0.515232
H143	H	1.199110	-1.111300	-0.327928
H144	H	1.699110	-0.611300	0.172072
H145	H	0.789387	-0.262150	-0.344586
H146	H	1.289387	0.237850	0.155414
H147	H	0.647860	-0.442545	-0.163638
H148	H	1.147860	0.057455	0.336362
H149	H	1.198830	-0.591180	-0.327852
H150	H	1.698830	-0.091180	0.172148
H151	H	1.408476	-0.286913	-0.486739
H152	H	1.908476	0.213087	0.013261
H153	H	1.199041	-0.992029	-0.327907
H154	H	1.699041	-0.492029	0.172093
H155	H	1.408551	-1.119669	-0.173533
H156	H	1.908551	-0.619669	0.326467
H157	H	1.408476	-1.000403	-0.173505
H158	H	1.908476	-0.500403	0.326495
H159	H	1.408470	-0.286866	-0.606003
H160	H	1.908470	0.213134	-0.106003
H161	H	1.199012	-0.424411	-0.895965
H162	H	1.699012	0.075589	-0.395965
H163	H	1.199000	-0.424500	-0.614395
H164	H	1.699000	0.075500	-0.114395
H165	H	1.198982	-0.424540	-0.495125
H166	H	1.698982	0.075460	0.004875
H167	H	0.960321	-0.268997	-0.337677
H168	H	1.460321	0.231003	0.162323
H169	H	1.408486	-0.286772	-0.887576
H170	H	1.908486	0.213228	-0.387576
H171	H	1.408255	-0.599554	-0.173443
H172	H	1.908255	-0.099554	0.326557
H173	H	1.408479	-0.286725	-1.006840
H174	H	1.908479	0.213275	-0.506840
H175	H	1.408326	-0.718823	-0.173465
H176	H	1.908326	-0.218823	0.326535
H177	H	0.818769	-0.449393	-0.156727
H178	H	1.318769	0.050607	0.343273
H179	H	0.648021	-0.296686	-0.309972
H180	H	1.148021	0.203314	0.190028
H181	H	1.198894	-0.710454	-0.327862
H182	H	1.698894	-0.210454	0.172138
