data_functionalizedCrystal
_audit_creation_method	'MofGen! by Chris Wilmer'
_symmetry_space_group_name_H-M	'P1'
_symmetry_Int_Tables_number	1
_symmetry_cell_setting	triclinic
loop_
_symmetry_equiv_pos_as_xyz
  x,y,z
_cell_length_a	12.759401
_cell_length_b	17.638516
_cell_length_c	12.759393
_cell_angle_alpha	78.830562
_cell_angle_beta	90.019097
_cell_angle_gamma	101.242864
loop_
_atom_site_label
_atom_site_type_symbol
_atom_site_fract_x
_atom_site_fract_y
_atom_site_fract_z
Zn1	Zn	1.521590	-0.314635	0.678455
Zn2	Zn	1.485909	-0.446836	0.538261
Zn3	Zn	1.345880	-0.314675	0.502803
Zn4	Zn	1.310322	-0.446775	0.713885
O5	O	1.415925	-0.380730	0.608351
O6	O	1.663875	-0.332180	0.659870
O7	O	1.467283	-0.429347	0.386548
O8	O	1.399002	-0.204059	0.496437
O9	O	1.637661	-0.429308	0.556870
O10	O	1.528095	-0.204029	0.625487
O11	O	1.364405	-0.332250	0.360497
O12	O	1.194145	-0.332190	0.530792
O13	O	1.338398	-0.429203	0.856194
O14	O	1.168020	-0.429243	0.685872
O15	O	1.493615	-0.332120	0.830164
O16	O	1.432804	-0.557438	0.591225
O17	O	1.303801	-0.557393	0.720255
C18	C	1.142962	-0.380715	0.608330
C19	C	1.026182	-0.380727	0.608351
C20	C	1.360601	-0.586096	0.663455
C21	C	1.337029	-0.673952	0.687064
C22	C	0.875213	-0.330254	0.662123
C23	C	0.984940	-0.330244	0.662110
C24	C	0.957690	-0.431231	0.554609
C25	C	0.847964	-0.431246	0.554628
C26	C	0.833978	-0.279762	0.715877
C27	C	0.902463	-0.229259	0.769620
C28	C	1.012190	-0.229248	0.769608
C29	C	1.053432	-0.279740	0.715852
C30	C	1.595631	-0.962880	0.429077
C31	C	1.573464	-1.045435	0.451278
C32	C	1.439020	-1.045432	0.585530
C33	C	1.461173	-0.962876	0.563336
C34	C	1.539480	-0.921607	0.485109
C35	C	1.405021	-0.921603	0.619369
C36	C	1.427177	-0.839054	0.597181
C37	C	1.505483	-0.797779	0.518960
C38	C	1.561636	-0.839058	0.462921
C39	C	1.326719	-0.962874	0.697601
C40	C	1.270568	-0.921600	0.753634
C41	C	1.292718	-0.839050	0.731441
C42	C	1.371024	-0.797775	0.653219
C43	C	1.236565	-0.797771	0.787479
C44	C	1.258721	-0.715222	0.765291
C45	C	1.393180	-0.715226	0.631031
C46	C	1.689954	-0.380746	0.608373
C47	C	1.806729	-0.380753	0.608382
C48	C	1.416020	-0.380650	0.882363
C49	C	1.416061	-0.380616	0.999131
C50	C	1.471495	-0.174562	0.553055
C51	C	1.495175	-0.086706	0.529491
C52	C	1.415907	-0.380752	0.335390
C53	C	1.416130	-0.380564	0.218563
C54	C	1.496893	-0.330061	1.040439
C55	C	1.496926	-0.330032	1.150156
C56	C	1.335289	-0.431122	1.177247
C57	C	1.335253	-0.431146	1.067532
C58	C	1.577701	-0.279531	0.972038
C59	C	1.658540	-0.228972	1.013346
C60	C	1.658573	-0.228943	1.123063
C61	C	1.577766	-0.279474	1.191471
H62	H	0.744636	-0.279761	0.715887
F63	F	1.633235	-1.089358	0.391635
F64	F	0.775072	-0.485001	0.497448
H65	H	1.724324	-0.187827	0.957640
F66	F	1.577675	-0.279560	0.855269
F67	F	1.355685	-1.089363	0.668786
F68	F	0.858567	-0.175532	0.826839
H69	H	1.724390	-0.187770	1.156690
H70	H	1.172815	-0.831385	0.851179
F71	F	1.001587	-0.484963	0.497400
H72	H	1.456938	-0.681622	0.567323
F73	F	1.198960	-0.671293	0.824929
F74	F	1.644964	-0.795131	0.379646
H75	H	1.067947	-0.188131	0.813377
F76	F	1.678959	-0.918954	0.345801
F77	F	1.170214	-0.279732	0.715851
H78	H	1.577789	-0.279437	1.280806
F79	F	1.187234	-0.965531	0.836889
F80	F	1.529137	-0.709922	0.495419
F81	F	1.249298	-0.484898	1.250056
F82	F	1.302798	-1.050730	0.720870
H83	H	1.269420	-0.472301	1.033895
