data_functionalizedCrystal
_audit_creation_method	'MofGen! by Chris Wilmer'
_symmetry_space_group_name_H-M	'P1'
_symmetry_Int_Tables_number	1
_symmetry_cell_setting	triclinic
loop_
_symmetry_equiv_pos_as_xyz
  x,y,z
_cell_length_a	12.759395
_cell_length_b	19.120786
_cell_length_c	12.759387
_cell_angle_alpha	87.523566
_cell_angle_beta	89.978574
_cell_angle_gamma	92.465870
loop_
_atom_site_label
_atom_site_type_symbol
_atom_site_fract_x
_atom_site_fract_y
_atom_site_fract_z
Zn1	Zn	1.588348	-0.279582	-0.576146
Zn2	Zn	2.088348	0.220418	-0.076146
Zn3	Zn	1.580709	-0.397057	-0.392951
Zn4	Zn	2.080709	0.102943	0.107049
Zn5	Zn	1.412644	-0.279618	-0.400477
Zn6	Zn	1.912644	0.220382	0.099523
Zn7	Zn	1.405112	-0.397006	-0.568591
Zn8	Zn	1.905112	0.102994	-0.068591
O9	O	1.496704	-0.338316	-0.484541
O10	O	1.996704	0.161684	0.015459
O11	O	1.734356	-0.295172	-0.551857
O12	O	2.234356	0.204828	-0.051857
O13	O	1.558370	-0.381516	-0.246926
O14	O	2.058370	0.118484	0.253074
O15	O	1.442301	-0.181323	-0.430092
O16	O	1.942301	0.318677	0.069908
O17	O	1.728743	-0.381480	-0.417264
O18	O	2.228743	0.118520	0.082736
O19	O	1.571390	-0.181296	-0.559155
O20	O	2.071390	0.318704	-0.059155
O21	O	1.434893	-0.295234	-0.252456
O22	O	1.934893	0.204766	0.247544
O23	O	1.264624	-0.295184	-0.422766
O24	O	1.764624	0.204816	0.077234
O25	O	1.429464	-0.381392	-0.716617
O26	O	1.929464	0.118608	-0.216617
O27	O	1.259091	-0.381428	-0.546278
O28	O	1.759091	0.118572	-0.046278
O29	O	1.564087	-0.295121	-0.722167
O30	O	2.064087	0.204879	-0.222167
O31	O	1.551067	-0.495341	-0.409939
O32	O	2.051067	0.004659	0.090061
O33	O	1.422057	-0.495303	-0.538980
O34	O	1.922057	0.004697	-0.038980
C35	C	1.223737	-0.338304	-0.484520
C36	C	1.723737	0.161696	0.015480
C37	C	1.106959	-0.338317	-0.484534
C38	C	1.606959	0.161683	0.015466
C39	C	0.881802	-0.428284	-0.612960
C40	C	1.381802	0.071716	-0.112960
C41	C	0.933808	-0.473253	-0.677148
C42	C	1.433808	0.026747	-0.177148
C43	C	1.043530	-0.473244	-0.677136
C44	C	1.543530	0.026756	-0.177136
C45	C	1.101249	-0.428263	-0.612925
C46	C	1.601249	0.071737	-0.112925
C47	C	1.049243	-0.383294	-0.548736
C48	C	1.549243	0.116706	-0.048736
C49	C	0.939518	-0.383306	-0.548758
C50	C	1.439518	0.116694	-0.048758
C51	C	1.054953	-0.293348	-0.420345
C52	C	1.554953	0.206652	0.079655
C53	C	0.945232	-0.293352	-0.420362
C54	C	1.445232	0.206648	0.079638
C55	C	1.112672	-0.248367	-0.356134
C56	C	1.612672	0.251633	0.143866
C57	C	1.060667	-0.203393	-0.291950
C58	C	1.560667	0.296607	0.208050
C59	C	0.950938	-0.203403	-0.291966
C60	C	1.450938	0.296597	0.208034
C61	C	0.893226	-0.248383	-0.356174
C62	C	1.393226	0.251617	0.143826
C63	C	1.484944	-0.520808	-0.472846
C64	C	1.984944	-0.020808	0.027154
C65	C	1.480009	-0.598879	-0.467878
C66	C	1.980009	-0.098879	0.032122
C67	C	1.544851	-0.635482	-0.532794
C68	C	2.044851	-0.135482	-0.032794
C69	C	1.540210	-0.708838	-0.528128
C70	C	2.040210	-0.208838	-0.028128
C71	C	1.470732	-0.745589	-0.458539
C72	C	1.970732	-0.245589	0.041461
C73	C	1.405884	-0.708981	-0.393620
C74	C	1.905884	-0.208981	0.106380
C75	C	1.410520	-0.635626	-0.398292
C76	C	1.910520	-0.135626	0.101708
C77	C	1.453369	-0.967077	-0.441072
C78	C	1.953369	-0.467077	0.058928
C79	C	1.448739	-1.040436	-0.436402
C80	C	1.948739	-0.540436	0.063598
C81	C	1.583065	-1.040289	-0.570912
C82	C	2.083065	-0.540289	-0.070912
C83	C	1.587699	-0.966933	-0.575574
C84	C	2.087699	-0.466933	-0.075574
C85	C	1.522847	-0.930331	-0.510659
C86	C	2.022847	-0.430331	-0.010659
C87	C	1.465989	-0.820571	-0.453765
C88	C	1.965989	-0.320571	0.046235
C89	C	1.527586	-0.855350	-0.515438
C90	C	2.027586	-0.355350	-0.015438
C91	C	1.770736	-0.338328	-0.484564
C92	C	2.270736	0.161672	0.015436
C93	C	1.887513	-0.338333	-0.484573
C94	C	2.387513	0.161667	0.015427
C95	C	1.496787	-0.338247	-0.758579
C96	C	1.996787	0.161753	-0.258579
C97	C	1.496823	-0.338218	-0.875358
C98	C	1.996823	0.161782	-0.375358
C99	C	1.508538	-0.155111	-0.496305
C100	C	2.008538	0.344889	0.003695
C101	C	1.513581	-0.077040	-0.501319
C102	C	2.013581	0.422960	-0.001319
C103	C	1.637014	-0.248390	-0.881157
C104	C	2.137014	0.251610	-0.381157
C105	C	1.707125	-0.203465	-0.938918
C106	C	2.207125	0.296535	-0.438918
C107	C	1.707153	-0.203440	-1.048642
C108	C	2.207153	0.296560	-0.548642
C109	C	1.637059	-0.248342	-1.100606
C110	C	2.137059	0.251658	-0.600606
C111	C	1.566948	-0.293266	-1.042845
C112	C	2.066948	0.206734	-0.542845
C113	C	1.566931	-0.293289	-0.933119
C114	C	2.066931	0.206711	-0.433119
C115	C	1.426753	-0.383090	-1.037046
C116	C	1.926753	0.116910	-0.537046
C117	C	1.426730	-0.383120	-0.927323
C118	C	1.926730	0.116880	-0.427323
C119	C	1.356660	-0.427992	-1.089011
C120	C	1.856660	0.072008	-0.589011
C121	C	1.286552	-0.472921	-1.031249
C122	C	1.786552	0.027079	-0.531249
C123	C	1.286529	-0.472945	-0.921519
C124	C	1.786529	0.027055	-0.421519
C125	C	1.356619	-0.428044	-0.869561
C126	C	1.856619	0.071956	-0.369561
C127	C	1.496684	-0.338334	-0.211573
C128	C	1.996684	0.161666	0.288427
C129	C	1.496864	-0.338165	-0.094807
C130	C	1.996864	0.161835	0.405193
H131	H	1.202014	-0.248366	-0.356123
H132	H	1.702014	0.251634	0.143877
F133	F	1.122100	-0.155530	-0.223614
F134	F	1.622100	0.344470	0.276386
H135	H	0.908602	-0.166784	-0.239695
H136	H	1.408602	0.333216	0.260305
H137	H	1.190590	-0.428266	-0.612910
H138	H	1.690590	0.071734	-0.112910
H139	H	1.356610	-0.428063	-0.780219
H140	H	1.856610	0.071937	-0.280219
F141	F	0.872372	-0.521130	-0.745470
F142	F	1.372372	-0.021130	-0.245470
F143	F	1.356689	-0.427963	-1.205788
F144	F	1.856689	0.072037	-0.705788
H145	H	1.601431	-0.605564	-0.589456
H146	H	2.101431	-0.105564	-0.089456
H147	H	1.635862	-1.070098	-0.623764
H148	H	2.135862	-0.570098	-0.123764
H149	H	1.392157	-1.070357	-0.379734
H150	H	1.892157	-0.570357	0.120266
F151	F	1.609212	-0.747791	-0.597233
F152	F	2.109212	-0.247791	-0.097233
H153	H	1.400565	-0.937281	-0.388213
H154	H	1.900565	-0.437281	0.111787
F155	F	1.331930	-0.748096	-0.319567
F156	F	1.831930	-0.248096	0.180433
F157	F	1.661646	-0.927825	-0.649641
F158	F	2.161646	-0.427825	-0.149641
F159	F	1.341505	-0.596670	-0.329200
F160	F	1.841505	-0.096670	0.170800
F161	F	0.765026	-0.428289	-0.612991
F162	F	1.265026	0.071711	-0.112991
F163	F	1.601521	-0.816236	-0.589503
F164	F	2.101521	-0.316236	-0.089503
F165	F	1.392043	-0.859691	-0.379710
F166	F	1.892043	-0.359691	0.120290
H167	H	1.085873	-0.509863	-0.729401
H168	H	1.585873	-0.009863	-0.229401
F169	F	1.781759	-0.155617	-1.110118
F170	F	2.281759	0.344383	-0.610118
H171	H	0.803884	-0.248392	-0.356198
H172	H	1.303884	0.251608	0.143802
F173	F	1.637003	-0.248422	-0.764379
F174	F	2.137003	0.251578	-0.264379
H175	H	1.764192	-0.166906	-0.896597
H176	H	2.264192	0.333094	-0.396597
H177	H	1.637079	-0.248311	-1.189949
H178	H	2.137079	0.251689	-0.689949
H179	H	1.229483	-0.509473	-1.073568
H180	H	1.729483	-0.009473	-0.573568
H181	H	1.229425	-0.509521	-0.874497
H182	H	1.729425	-0.009521	-0.374497
