data_functionalizedCrystal
_audit_creation_method	'MofGen! by Chris Wilmer'
_symmetry_space_group_name_H-M	'P1'
_symmetry_Int_Tables_number	1
_symmetry_cell_setting	triclinic
loop_
_symmetry_equiv_pos_as_xyz
  x,y,z
_cell_length_a	15.995292
_cell_length_b	15.995350
_cell_length_c	15.186229
_cell_angle_alpha	89.998487
_cell_angle_beta	89.995469
_cell_angle_gamma	83.480495
loop_
_atom_site_label
_atom_site_type_symbol
_atom_site_fract_x
_atom_site_fract_y
_atom_site_fract_z
O1	O	1.111015	0.107694	-0.073248
O2	O	0.867233	0.121072	-0.073244
O3	O	0.995788	-0.007506	-0.073245
O4	O	0.982460	0.236272	-0.073247
O5	O	0.995779	-0.007508	0.073212
O6	O	0.867224	0.121070	0.073213
O7	O	1.111006	0.107692	0.073209
Zn8	Zn	0.989114	0.114381	0.096465
Zn9	Zn	0.989125	0.114383	-0.096499
O10	O	0.982451	0.236270	0.073211
C11	C	0.836033	0.120527	-0.000015
C12	C	0.743080	0.118894	-0.000014
C13	C	0.405341	0.112893	-0.000023
C14	C	0.428654	0.205697	-0.000351
C15	C	0.525329	0.207461	-0.000017
C16	C	0.572897	0.115871	-0.000019
C17	C	0.543791	0.069472	0.083613
C18	C	0.447000	0.068355	0.083679
C19	C	0.447154	0.066462	-0.082870
C20	C	0.543647	0.069901	-0.083972
C21	C	0.667593	0.117549	-0.000014
C22	C	0.310646	0.111212	-0.000023
C23	C	0.995232	-0.038702	-0.000018
C24	C	0.993580	-0.131652	-0.000023
C25	C	0.987648	-0.469398	-0.000020
C26	C	0.896094	-0.421945	-0.000347
C27	C	0.897746	-0.325255	-0.000017
C28	C	0.990591	-0.301838	-0.000022
C29	C	1.035744	-0.342926	0.083610
C30	C	1.033444	-0.439561	0.083680
C31	C	1.035345	-0.439918	-0.082870
C32	C	1.035323	-0.342972	-0.083975
C33	C	0.992259	-0.207141	-0.000020
C34	C	0.985983	-0.564095	-0.000016
C35	C	1.142206	0.108237	-0.000022
C36	C	1.235159	0.109870	-0.000029
C37	C	0.983006	0.267466	-0.000018
C38	C	0.984658	0.360416	-0.000019
N39	N	0.989112	0.114379	0.228157
N40	N	0.989133	0.114379	-0.228192
C41	C	1.046056	0.057463	0.453879
C42	C	1.046058	0.057461	0.546069
C43	C	0.932184	0.171297	0.546079
C44	C	0.932178	0.171294	0.453891
C45	C	0.989118	0.114378	0.407794
C46	C	0.989127	0.114379	0.592171
C47	C	0.989129	0.114377	0.692128
C48	C	0.989115	0.114379	0.307831
H49	H	0.399632	0.241269	0.059288
C50	C	0.849620	-0.287531	0.081176
C51	C	0.772087	-0.222099	0.069270
C52	C	0.724032	-0.184346	0.150497
C53	C	0.753510	-0.212024	0.243631
C54	C	0.831048	-0.277459	0.255541
C55	C	0.879103	-0.315213	0.174314
H56	H	0.750261	-0.201607	0.000323
H57	H	0.666633	-0.135906	0.141680
H58	H	0.717937	-0.184076	0.303760
H59	H	0.852874	-0.297951	0.324488
H60	H	0.936502	-0.363653	0.183131
C61	C	1.108682	-0.005149	0.403172
C62	C	1.107275	-0.100497	0.415854
C63	C	1.169902	-0.163113	0.365150
C64	C	1.233935	-0.130381	0.301763
C65	C	1.235345	-0.035028	0.289077
C66	C	1.172718	0.027588	0.339782
H67	H	1.059871	-0.124731	0.462780
H68	H	1.168858	-0.233699	0.374540
H69	H	1.280295	-0.176733	0.264228
H70	H	1.282749	-0.010793	0.242152
H71	H	1.173762	0.098175	0.330391
H72	H	0.859659	-0.441532	0.059294
H73	H	1.002310	-0.315716	-0.145844
C74	C	0.869544	0.233905	0.403189
C75	C	0.806942	0.296542	0.453889
C76	C	0.744308	0.359147	0.403185
C77	C	0.744277	0.359114	0.301782
C78	C	0.806882	0.296475	0.251077
C79	C	0.869515	0.233870	0.301780
H80	H	0.806962	0.296568	0.528958
H81	H	0.697965	0.405516	0.440721
H82	H	0.697913	0.405458	0.264248
H83	H	0.806861	0.296449	0.176007
H84	H	0.915859	0.187500	0.264244
H85	H	1.100661	-0.471823	0.087471
H86	H	0.885825	0.217637	0.583621
H87	H	0.563846	0.101692	0.145852
H88	H	1.103030	-0.327624	-0.089028
H89	H	1.102847	-0.471693	-0.083435
H90	H	1.004376	-0.314539	0.145849
H91	H	0.420179	0.100487	0.146197
H92	H	1.092421	0.011115	0.583590
H93	H	0.418831	0.095470	-0.146258
C94	C	1.127884	-0.323840	0.087832
C95	C	1.184621	-0.357984	0.164679
C96	C	1.276757	-0.338886	0.168907
C97	C	1.312156	-0.285645	0.096287
C98	C	1.255418	-0.251499	0.019434
C99	C	1.163282	-0.270596	0.015207
H100	H	1.158418	-0.397399	0.218442
H101	H	1.318758	-0.364164	0.225798
H102	H	1.380360	-0.271508	0.099416
H103	H	1.281621	-0.212083	-0.034328
H104	H	1.121280	-0.245318	-0.041685
H105	H	0.544359	0.243794	-0.059970
C106	C	0.568738	0.115537	-0.167557
C107	C	0.662034	0.124150	-0.186045
C108	C	0.687131	0.169790	-0.269627
C109	C	0.618932	0.206816	-0.334721
C110	C	0.525629	0.198204	-0.316235
C111	C	0.500532	0.152564	-0.232653
H112	H	0.712525	0.096740	-0.137856
H113	H	0.756200	0.176165	-0.283311
H114	H	0.637510	0.240601	-0.396593
H115	H	0.475138	0.225614	-0.364423
H116	H	0.431463	0.146189	-0.218969
C117	C	0.390826	0.254035	-0.081365
C118	C	0.338303	0.209835	-0.148217
C119	C	0.300466	0.258175	-0.229231
C120	C	0.315151	0.350716	-0.243393
C121	C	0.367676	0.394921	-0.176539
C122	C	0.405514	0.346581	-0.095525
H123	H	0.327430	0.141327	-0.137735
H124	H	0.261583	0.225451	-0.278721
H125	H	0.287141	0.386500	-0.303365
H126	H	0.378549	0.463429	-0.187021
H127	H	0.444397	0.379305	-0.046035
C128	C	0.994914	-0.467651	-0.168506
C129	C	0.918064	-0.517432	-0.164298
C130	C	0.877624	-0.545165	-0.249928
C131	C	0.914033	-0.523117	-0.339768
C132	C	0.990886	-0.473334	-0.343980
C133	C	1.031327	-0.445600	-0.258349
H134	H	0.891109	-0.533756	-0.097790
H135	H	0.820731	-0.582019	-0.246810
H136	H	0.884096	-0.543647	-0.403157
H137	H	1.017842	-0.457010	-0.410488
H138	H	1.088220	-0.408747	-0.261468
H139	H	1.000511	-0.457857	0.146200
H140	H	0.859504	-0.440468	-0.060321
H141	H	0.543729	0.244017	0.060035
H142	H	0.433161	-0.001848	-0.083437
H143	H	0.432449	0.000310	0.087477
H144	H	0.576617	0.003049	-0.089025
H145	H	0.862252	-0.296825	-0.059968
C146	C	0.586844	-0.021577	0.087822
C147	C	0.683463	-0.038480	0.092374
C148	C	0.726519	-0.129528	0.096581
C149	C	0.672956	-0.203675	0.096237
C150	C	0.576332	-0.186775	0.091685
C151	C	0.533276	-0.095726	0.087478
H152	H	0.723118	0.016410	0.092629
H153	H	0.798046	-0.142038	0.099951
H154	H	0.704829	-0.271075	0.099351
H155	H	0.536677	-0.241665	0.091430
H156	H	0.461748	-0.083216	0.084108
