data_functionalizedCrystal
_audit_creation_method	'MofGen! by Chris Wilmer'
_symmetry_space_group_name_H-M	'P1'
_symmetry_Int_Tables_number	1
_symmetry_cell_setting	triclinic
loop_
_symmetry_equiv_pos_as_xyz
  x,y,z
_cell_length_a	14.519709
_cell_length_b	27.732048
_cell_length_c	12.996460
_cell_angle_alpha	89.988908
_cell_angle_beta	90.000034
_cell_angle_gamma	83.161400
loop_
_atom_site_label
_atom_site_type_symbol
_atom_site_fract_x
_atom_site_fract_y
_atom_site_fract_z
O1	O	1.222766	0.063362	-0.085445
O2	O	1.722766	0.563362	0.414555
O3	O	0.954160	0.070824	-0.085477
O4	O	1.454160	0.570824	0.414523
O5	O	1.096805	-0.003264	-0.085440
O6	O	1.596805	0.496736	0.414560
O7	O	1.080121	0.137450	-0.085482
O8	O	1.580121	0.637450	0.414518
O9	O	1.096791	-0.003268	0.085693
O10	O	1.596791	0.496732	0.585693
O11	O	0.954145	0.070820	0.085656
O12	O	1.454145	0.570820	0.585656
O13	O	1.222752	0.063358	0.085689
O14	O	1.722752	0.563358	0.585689
Cu15	Cu	1.088447	0.067089	0.101299
Cu16	Cu	1.588447	0.567089	0.601299
Cu17	Cu	1.088464	0.067093	-0.101087
Cu18	Cu	1.588464	0.567093	0.398913
O19	O	1.080106	0.137446	0.085652
O20	O	1.580106	0.637446	0.585652
C21	C	0.919799	0.070474	0.000086
C22	C	1.419799	0.570474	0.500086
C23	C	0.817435	0.069432	0.000074
C24	C	1.317435	0.569432	0.500074
C25	C	0.442606	0.065596	0.000122
C26	C	0.942606	0.565596	0.500122
C27	C	0.546896	0.066661	0.000108
C28	C	1.046896	0.566661	0.500108
C29	C	0.630018	0.067514	0.000097
C30	C	1.130018	0.567514	0.500097
C31	C	0.734314	0.068579	0.000085
C32	C	1.234314	0.568579	0.500085
C33	C	1.096448	-0.021274	0.000129
C34	C	1.596448	0.478726	0.500129
C35	C	1.095393	-0.074934	0.000138
C36	C	1.595393	0.425066	0.500138
C37	C	1.173048	-0.413378	0.000094
C38	C	1.673048	0.086622	0.500094
C39	C	1.169135	-0.615057	0.000080
C40	C	1.669135	-0.115057	0.500080
O41	O	1.240145	-0.645973	0.000043
O42	O	1.740145	-0.145973	0.500043
N43	N	1.084552	-0.634585	0.000070
N44	N	1.584552	-0.134585	0.500070
C45	C	1.000941	-0.603690	0.000058
C46	C	1.500941	-0.103690	0.500058
O47	O	0.928909	-0.624927	0.000039
O48	O	1.428909	-0.124927	0.500039
C49	C	1.004855	-0.402012	0.000065
C50	C	1.504855	0.097988	0.500065
C51	C	1.089444	-0.382487	0.000085
C52	C	1.589444	0.117513	0.500085
C53	C	1.257630	-0.393853	0.000113
C54	C	1.757630	0.106147	0.500113
C55	C	1.258607	-0.343436	0.000122
C56	C	1.758607	0.156564	0.500122
C57	C	1.175003	-0.312545	0.000113
C58	C	1.675003	0.187455	0.500113
C59	C	1.090421	-0.332071	0.000094
C60	C	1.590421	0.167929	0.500094
C61	C	0.921246	-0.371118	0.000045
C62	C	1.421246	0.128882	0.500045
C63	C	0.922232	-0.320696	0.000045
C64	C	1.422232	0.179304	0.500045
C65	C	1.006820	-0.301171	0.000064
C66	C	1.506820	0.198829	0.500064
C67	C	1.007794	-0.250763	0.000094
C68	C	1.507794	0.249237	0.500094
N69	N	1.092377	-0.231235	0.000104
N70	N	1.592377	0.268765	0.500104
C71	C	1.175981	-0.262126	0.000113
C72	C	1.675981	0.237874	0.500113
C73	C	0.998893	-0.709574	0.000056
C74	C	1.498893	-0.209574	0.500056
C75	C	0.997914	-0.759993	0.000056
C76	C	1.497914	-0.259993	0.500056
C77	C	1.166108	-0.771356	0.000076
C78	C	1.666108	-0.271356	0.500076
C79	C	1.167086	-0.720936	0.000083
C80	C	1.667086	-0.220936	0.500083
C81	C	1.083476	-0.690045	0.000065
C82	C	1.583476	-0.190045	0.500065
C83	C	1.178028	-0.156247	0.000133
C84	C	1.678028	0.343753	0.500133
C85	C	1.178998	-0.105825	0.000147
C86	C	1.678998	0.394175	0.500147
C87	C	1.010804	-0.094466	0.000122
C88	C	1.510804	0.405534	0.500122
C89	C	1.009833	-0.144883	0.000114
C90	C	1.509833	0.355117	0.500114
C91	C	1.093453	-0.175773	0.000116
C92	C	1.593453	0.324227	0.500116
O93	O	0.936822	-0.219818	0.000119
O94	O	1.436822	0.280182	0.500119
O95	O	1.248004	-0.240879	0.000109
O96	O	1.748004	0.259121	0.500109
C97	C	1.172071	-0.463795	0.000085
C98	C	1.672071	0.036205	0.500085
C99	C	1.087489	-0.483320	0.000066
C100	C	1.587489	0.016680	0.500066
C101	C	1.003885	-0.452429	0.000057
C102	C	1.503885	0.047571	0.500057
C103	C	1.086510	-0.533740	0.000066
C104	C	1.586510	-0.033740	0.500066
C105	C	1.170115	-0.564631	0.000076
C106	C	1.670115	-0.064631	0.500076
C107	C	1.254698	-0.545103	0.000085
C108	C	1.754698	-0.045103	0.500085
C109	C	1.255675	-0.494686	0.000094
C110	C	1.755675	0.005314	0.500094
C111	C	0.919302	-0.471957	0.000048
C112	C	1.419302	0.028043	0.500048
C113	C	0.918331	-0.522375	0.000039
C114	C	1.418331	-0.022375	0.500039
C115	C	1.001936	-0.553266	0.000049
C116	C	1.501936	-0.053266	0.500049
C117	C	1.257113	0.063708	0.000124
C118	C	1.757113	0.563708	0.500124
C119	C	1.359476	0.064750	0.000129
C120	C	1.859476	0.564750	0.500129
C121	C	1.080464	0.155456	0.000080
C122	C	1.580464	0.655456	0.500080
C123	C	1.081518	0.209116	0.000065
C124	C	1.581518	0.709116	0.500065
N125	N	1.088442	0.067085	0.243646
N126	N	1.588442	0.567085	0.743646
N127	N	1.088477	0.067093	-0.243434
N128	N	1.588477	0.567093	0.256566
C129	C	1.088463	0.067094	0.663460
C130	C	1.588463	0.567094	1.163460
C131	C	1.088454	0.067093	0.546655
C132	C	1.588454	0.567093	1.046655
C133	C	1.088453	0.067090	0.453557
C134	C	1.588453	0.567090	0.953557
C135	C	1.088443	0.067088	0.336744
C136	C	1.588443	0.567088	0.836744
H137	H	1.247882	-0.089931	0.000166
H138	H	1.747882	0.410069	0.500166
H139	H	0.851220	-0.446810	0.000038
H140	H	1.351220	0.053190	0.500038
H141	H	0.854144	-0.295547	0.000029
H142	H	1.354144	0.204453	0.500029
O143	O	1.247238	-0.801437	0.000030
O144	O	1.747238	-0.301437	0.500030
C145	C	1.228225	-0.850123	0.000050
C146	C	1.728225	-0.350123	0.500050
H147	H	1.155813	-0.852115	-0.032344
H148	H	1.655813	-0.352115	0.467656
H149	H	1.281550	-0.872912	-0.049642
H150	H	1.781550	-0.372912	0.450358
H151	H	1.231937	-0.864711	0.082149
H152	H	1.731937	-0.364711	0.582149
H153	H	1.325714	-0.419000	0.000117
H154	H	1.825714	0.081000	0.500117
H155	H	0.930803	-0.684426	0.000042
H156	H	1.430803	-0.184426	0.500042
O157	O	1.249277	-0.701994	-0.000090
O158	O	1.749277	-0.201994	0.499910
C159	C	1.300211	-0.717779	-0.088702
C160	C	1.800211	-0.217779	0.411298
H161	H	1.250738	-0.728308	-0.150654
H162	H	1.750738	-0.228308	0.349346
H163	H	1.339008	-0.687200	-0.118453
H164	H	1.839008	-0.187200	0.381547
H165	H	1.352071	-0.750593	-0.068654
H166	H	1.852071	-0.250593	0.431346
H167	H	0.942736	-0.069306	0.000118
H168	H	1.442736	0.430694	0.500118
H169	H	0.940955	-0.160781	0.000126
H170	H	1.440955	0.339219	0.500126
O171	O	1.259338	-0.186179	0.000185
O172	O	1.759338	0.313821	0.500185
C173	C	1.334192	-0.158125	0.000179
C174	C	1.834192	0.341875	0.500179
H175	H	1.310219	-0.120523	0.032577
H176	H	1.810219	0.379477	0.532577
H177	H	1.392724	-0.176668	0.049873
H178	H	1.892724	0.323332	0.549873
H179	H	1.360164	-0.154499	-0.081917
H180	H	1.860164	0.345501	0.418083
O181	O	1.335972	-0.575066	-0.000046
O182	O	1.835972	-0.075066	0.499954
C183	C	1.387367	-0.566204	-0.088685
C184	C	1.887367	-0.066204	0.411315
H185	H	1.364177	-0.527976	-0.118228
H186	H	1.864177	-0.027976	0.381772
H187	H	1.464332	-0.569688	-0.068747
H188	H	1.964332	-0.069688	0.431253
H189	H	1.375150	-0.593783	-0.150755
H190	H	1.875150	-0.093783	0.349245
O191	O	1.340858	-0.324553	0.000087
O192	O	1.840858	0.175447	0.500087
C193	C	1.414429	-0.362638	0.000118
C194	C	1.914429	0.137362	0.500118
H195	H	1.389068	-0.396907	-0.032284
H196	H	1.889068	0.103093	0.467716
H197	H	1.473535	-0.352046	-0.049561
H198	H	1.973535	0.147954	0.450439
H199	H	1.440177	-0.369758	0.082222
H200	H	1.940177	0.130242	0.582222
O201	O	0.838994	-0.389996	-0.000024
O202	O	1.338994	0.110004	0.499976
C203	C	0.765425	-0.351911	-0.000013
C204	C	1.265425	0.148089	0.499987
H205	H	0.790797	-0.317636	-0.032400
H206	H	1.290797	0.182364	0.467600
H207	H	0.706330	-0.362491	-0.049716
H208	H	1.206330	0.137509	0.450284
H209	H	0.739658	-0.344807	0.082082
H210	H	1.239658	0.155193	0.582082
H211	H	0.929034	-0.775885	0.000058
H212	H	1.429034	-0.275885	0.500058
O213	O	0.836074	-0.541257	-0.000024
O214	O	1.336074	-0.041257	0.499976
C215	C	0.762499	-0.503175	-0.000007
C216	C	1.262499	-0.003175	0.499993
H217	H	0.787865	-0.468897	-0.032388
H218	H	1.287865	0.031103	0.467612
H219	H	0.703407	-0.513756	-0.049711
H220	H	1.203407	-0.013756	0.450289
H221	H	0.736732	-0.496076	0.082090
H222	H	1.236732	0.003924	0.582090
H223	H	1.324556	-0.478794	0.000110
H224	H	1.824556	0.021206	0.500110
