data_functionalizedCrystal
_audit_creation_method	'MofGen! by Chris Wilmer'
_symmetry_space_group_name_H-M	'P1'
_symmetry_Int_Tables_number	1
_symmetry_cell_setting	triclinic
loop_
_symmetry_equiv_pos_as_xyz
  x,y,z
_cell_length_a	17.038272
_cell_length_b	17.038272
_cell_length_c	16.098538
_cell_angle_alpha	87.079695
_cell_angle_beta	87.066048
_cell_angle_gamma	88.888444
loop_
_atom_site_label
_atom_site_type_symbol
_atom_site_fract_x
_atom_site_fract_y
_atom_site_fract_z
O1	O	1.052036	-0.167263	-0.069224
O2	O	1.552036	0.332737	0.430776
O3	O	0.824225	-0.164554	-0.069233
O4	O	1.324225	0.335446	0.430767
O5	O	0.936776	-0.052003	-0.069222
O6	O	1.436776	0.447997	0.430778
O7	O	0.939485	-0.279814	-0.069235
O8	O	1.439485	0.220186	0.430765
O9	O	0.930200	-0.058550	0.069290
O10	O	1.430200	0.441450	0.569290
O11	O	0.817648	-0.171101	0.069279
O12	O	1.317648	0.328899	0.569279
O13	O	1.045459	-0.173810	0.069288
O14	O	1.545459	0.326190	0.569288
Zn15	Zn	0.930510	-0.173495	0.091275
Zn16	Zn	1.430510	0.326505	0.591275
Zn17	Zn	0.939175	-0.164869	-0.091221
Zn18	Zn	1.439175	0.335131	0.408779
O19	O	0.932908	-0.286361	0.069277
O20	O	1.432908	0.213639	0.569277
C21	C	0.791644	-0.165365	0.000022
C22	C	1.291644	0.334635	0.500022
C23	C	0.704361	-0.158017	0.000019
C24	C	1.204361	0.341983	0.500019
C25	C	0.931025	-0.025984	0.000034
C26	C	1.431025	0.474016	0.500034
C27	C	0.923677	0.061300	0.000033
C28	C	1.423677	0.561300	0.500033
C29	C	1.078040	-0.172999	0.000031
C30	C	1.578040	0.327001	0.500031
C31	C	1.165324	-0.180347	0.000029
C32	C	1.665324	0.319653	0.500029
C33	C	1.210933	-0.112883	0.000030
C34	C	1.710933	0.387117	0.500030
C35	C	1.292945	-0.119792	0.000033
C36	C	1.792945	0.380208	0.500033
C37	C	1.329346	-0.194165	0.000028
C38	C	1.829346	0.305835	0.500028
C39	C	1.283731	-0.261634	0.000030
C40	C	1.783731	0.238366	0.500030
C41	C	1.201721	-0.254725	0.000033
C42	C	1.701721	0.245275	0.500033
C43	C	1.576735	-0.218576	0.000023
C44	C	2.076735	0.281424	0.500023
C45	C	1.658751	-0.225480	0.000018
C46	C	2.158751	0.274520	0.500018
C47	C	1.667960	-0.083638	0.000022
C48	C	2.167960	0.416362	0.500022
C49	C	1.585947	-0.076734	0.000020
C50	C	2.085947	0.423266	0.500020
C51	C	1.540339	-0.144203	0.000026
C52	C	2.040339	0.355797	0.500026
C53	C	1.413176	-0.201229	0.000028
C54	C	1.913176	0.298771	0.500028
C55	C	1.456511	-0.137139	0.000032
C56	C	1.956511	0.362861	0.500032
C57	C	0.938659	-0.312380	0.000019
C58	C	1.438659	0.187620	0.500019
C59	C	0.946008	-0.399663	0.000014
C60	C	1.446008	0.100337	0.500014
N61	N	0.924602	-0.179382	0.215824
N62	N	1.424602	0.320618	0.715824
C63	C	0.991140	0.106909	0.000037
C64	C	1.491140	0.606909	0.500037
C65	C	0.984232	0.188921	0.000029
C66	C	1.484232	0.688921	0.500029
C67	C	0.909859	0.225323	0.000023
C68	C	1.409859	0.725323	0.500023
C69	C	0.842391	0.179708	0.000017
C70	C	1.342391	0.679708	0.500017
C71	C	0.849300	0.097697	0.000019
C72	C	1.349300	0.597697	0.500019
C73	C	0.885449	0.472711	0.000010
C74	C	1.385449	0.972711	0.500010
C75	C	0.878544	0.554728	0.000011
C76	C	1.378544	1.054728	0.500011
C77	C	1.020386	0.563936	0.000021
C78	C	1.520386	1.063936	0.500021
C79	C	1.027289	0.481923	0.000028
C80	C	1.527289	0.981923	0.500028
C81	C	0.959821	0.436315	0.000018
C82	C	1.459821	0.936315	0.500018
C83	C	0.902795	0.309152	0.000017
C84	C	1.402795	0.809152	0.500017
C85	C	0.966886	0.352488	0.000017
C86	C	1.466886	0.852488	0.500017
N87	N	0.945088	-0.158976	-0.215769
N88	N	1.445088	0.341024	0.284231
C89	C	0.972393	-0.131630	0.259414
C90	C	1.472393	0.368370	0.759414
C91	C	0.968268	-0.135756	0.346602
C92	C	1.468268	0.364244	0.846602
C93	C	0.916355	-0.187639	0.390199
C94	C	1.416355	0.312361	0.890199
C95	C	0.868559	-0.235392	0.346604
C96	C	1.368559	0.264608	0.846604
C97	C	0.872680	-0.231262	0.259417
C98	C	1.372680	0.268738	0.759417
C99	C	0.901413	-0.202599	0.653448
C100	C	1.401413	0.297401	1.153448
C101	C	0.897297	-0.206728	0.740641
C102	C	1.397297	0.293272	1.240641
C103	C	0.997006	-0.107090	0.740634
C104	C	1.497006	0.392910	1.240634
C105	C	1.001126	-0.102967	0.653445
C106	C	1.501126	0.397033	1.153445
C107	C	0.953327	-0.150718	0.609857
C108	C	1.453327	0.349282	1.109857
C109	C	0.912139	-0.191859	0.479320
C110	C	1.412139	0.308141	0.979320
C111	C	0.957539	-0.146493	0.520738
C112	C	1.457539	0.353507	1.020738
H113	H	1.181302	-0.052321	0.000028
H114	H	1.681302	0.447679	0.500028
H115	H	1.051703	0.077277	0.000046
H116	H	1.551703	0.577277	0.500046
Cl117	Cl	0.832030	-0.271960	0.795443
Cl118	Cl	1.332030	0.228040	1.295443
H119	H	1.035921	-0.068213	0.776131
H120	H	1.535921	0.431787	1.276131
Cl121	Cl	0.846880	-0.257084	0.534132
Cl122	Cl	1.346880	0.242916	1.034132
Cl123	Cl	1.037662	-0.066406	0.204615
Cl124	Cl	1.537662	0.433594	0.704615
H125	H	1.087851	0.452291	0.000033
H126	H	1.587851	0.952291	0.500033
H127	H	0.862495	-0.241481	0.617965
H128	H	1.362495	0.258519	1.117965
H129	H	1.313375	-0.322191	0.000031
H130	H	1.813375	0.177809	0.500031
H131	H	0.999804	-0.104247	0.485238
H132	H	1.499804	0.395753	0.985238
Cl133	Cl	1.105198	0.621275	0.000031
Cl134	Cl	1.605198	1.121275	0.500031
Cl135	Cl	1.410748	-0.043645	0.000042
Cl136	Cl	1.910748	0.456355	0.500042
Cl137	Cl	0.803292	-0.300614	0.401410
Cl138	Cl	1.303292	0.199386	0.901410
Cl139	Cl	0.800631	0.415387	-0.000005
Cl140	Cl	1.300631	0.915387	0.499995
Cl141	Cl	1.350279	-0.034977	0.000039
Cl142	Cl	1.850279	0.465023	0.500039
H143	H	1.539610	-0.273514	0.000024
H144	H	2.039610	0.226486	0.500024
Cl145	Cl	0.812594	-0.291293	0.204619
Cl146	Cl	1.312594	0.208707	0.704619
Cl147	Cl	0.785039	0.600488	0.000009
Cl148	Cl	1.285039	1.100488	0.500009
Cl149	Cl	1.458945	-0.294724	0.000013
Cl150	Cl	1.958945	0.205276	0.500013
Cl151	Cl	1.704512	-0.318985	0.000013
Cl152	Cl	2.204512	0.181015	0.500013
H153	H	1.027441	0.322847	0.000004
H154	H	1.527441	0.822847	0.500004
Cl155	Cl	1.028349	-0.075723	0.401402
Cl156	Cl	1.528349	0.424277	0.901402
Cl157	Cl	1.540193	0.016768	-0.000004
Cl158	Cl	2.040193	0.516768	0.499996
H159	H	0.842240	0.338799	0.000014
H160	H	1.342240	0.838799	0.500014
Cl161	Cl	1.725300	0.001174	0.000021
Cl162	Cl	2.225300	0.501174	0.500021
Cl163	Cl	1.069048	0.246255	0.000035
Cl164	Cl	1.569048	0.746255	0.500035
Cl165	Cl	1.066389	-0.037744	0.598637
Cl166	Cl	1.566389	0.462256	1.098637
H167	H	0.781834	0.209352	0.000007
H168	H	1.281834	0.709352	0.500007
H169	H	1.164586	-0.309661	0.000035
H170	H	1.664586	0.190339	0.500035
H171	H	0.794364	0.060563	0.000016
H172	H	1.294364	0.560563	0.500016
