data_functionalizedCrystal
_audit_creation_method	'MofGen! by Chris Wilmer'
_symmetry_space_group_name_H-M	'P1'
_symmetry_Int_Tables_number	1
_symmetry_cell_setting	triclinic
loop_
_symmetry_equiv_pos_as_xyz
  x,y,z
_cell_length_a	19.851628
_cell_length_b	23.196402
_cell_length_c	23.196401
_cell_angle_alpha	60.008822
_cell_angle_beta	90.016862
_cell_angle_gamma	59.998845
loop_
_atom_site_label
_atom_site_type_symbol
_atom_site_fract_x
_atom_site_fract_y
_atom_site_fract_z
Zr1	Zr	0.648976	0.630934	-0.075560
O2	O	0.541388	0.751211	-0.167618
O3	O	0.681955	0.510665	-0.047343
O4	O	0.681925	0.630932	-0.167608
O5	O	0.541444	0.630943	0.047519
O6	O	0.792787	0.630921	-0.167597
O7	O	0.541417	0.630944	-0.047352
O8	O	0.792841	0.415785	0.047536
O9	O	0.541391	0.846079	-0.167613
O10	O	0.778759	0.560122	-0.035296
O11	O	0.696043	0.560129	0.035497
O12	O	0.696008	0.701728	-0.106100
O13	O	0.613293	0.701735	-0.035307
Zr14	Zr	0.825830	0.630914	0.075767
Zr15	Zr	0.825788	0.630916	-0.075541
Zr16	Zr	0.649019	0.630931	0.075749
Zr17	Zr	0.648981	0.782236	-0.075553
Zr18	Zr	0.825825	0.479611	0.075761
O19	O	0.792851	0.751183	0.047550
O20	O	0.792791	0.751186	-0.167591
O21	O	0.541448	0.751208	0.047524
O22	O	0.933419	0.510636	0.167825
O23	O	0.933359	0.510639	-0.047317
O24	O	0.682015	0.510661	0.167799
O25	O	0.933363	0.630905	-0.047312
O26	O	0.792881	0.630915	0.167816
O27	O	0.682019	0.630927	0.167804
O28	O	0.933389	0.630903	0.047560
O29	O	0.681932	0.846064	-0.167599
O30	O	0.792874	0.415783	0.167806
O31	O	0.933416	0.415769	0.167821
O32	O	0.933382	0.415771	0.047551
O33	O	0.541424	0.846077	-0.047343
O34	O	0.681966	0.846063	-0.047328
O35	O	0.778798	0.560119	0.106307
O36	O	0.861513	0.560112	0.035514
O37	O	0.778763	0.701718	-0.035290
O38	O	0.696048	0.701726	0.035503
C39	C	0.737397	0.441667	0.000096
C40	C	0.737395	0.377436	0.000093
C41	C	0.516239	0.630946	0.000081
C42	C	0.441177	0.630953	0.000073
C43	C	0.780566	0.347261	-0.036863
C44	C	0.780574	0.286900	-0.036857
C45	C	0.737395	0.256727	0.000095
C46	C	0.694222	0.286906	0.037059
C47	C	0.694222	0.347260	0.037058
C48	C	0.665055	0.194705	-0.005187
C49	C	0.665052	0.134356	-0.005191
C50	C	0.737396	0.070573	0.000102
C51	C	0.809742	0.067153	0.005385
C52	C	0.809742	0.127508	0.005384
C53	C	0.737390	0.191283	0.000100
C54	C	0.780579	-0.025053	-0.036849
C55	C	0.780590	-0.085418	-0.036839
C56	C	0.694230	-0.085406	0.037072
C57	C	0.694228	-0.025048	0.037066
C58	C	0.737400	0.005128	0.000102
C59	C	0.214714	0.708145	-0.038509
C60	C	0.192343	0.669551	-0.066486
C61	C	0.303771	0.630932	0.000093
C62	C	0.192401	0.669531	0.028057
C63	C	0.171039	0.630918	0.000112
C64	C	0.282389	0.592338	-0.027923
C65	C	0.282444	0.592329	0.066657
C66	C	0.260127	0.553679	0.038697
C67	C	0.380233	0.630943	0.000081
C68	C	0.094582	0.630901	0.000124
C69	C	0.958568	0.630901	0.000127
C70	C	1.033629	0.630894	0.000135
C71	C	0.737350	0.630927	-0.189161
C72	C	0.737332	0.630928	-0.253395
C73	C	0.737409	0.820180	0.000112
C74	C	0.737411	0.884412	0.000115
C75	C	0.694142	0.704842	-0.320527
C76	C	0.694163	0.704843	-0.380882
C77	C	0.737363	0.630926	-0.374101
C78	C	0.780563	0.557001	-0.306957
C79	C	0.780548	0.557002	-0.246604
C80	C	0.731227	0.574298	-0.441422
C81	C	0.731236	0.574300	-0.501775
C82	C	0.737415	0.630919	-0.560249
C83	C	0.743568	0.687550	-0.558369
C84	C	0.743553	0.687551	-0.498016
C85	C	0.737385	0.630916	-0.439540
C86	C	0.694245	0.704840	-0.692828
C87	C	0.694272	0.704838	-0.753183
C88	C	0.780667	0.556994	-0.679255
C89	C	0.780646	0.556998	-0.618903
C90	C	0.737430	0.630924	-0.625694
C91	C	0.737456	0.630921	0.189368
C92	C	0.737474	0.630920	0.253603
C93	C	0.958562	0.441645	0.000119
C94	C	1.033621	0.377406	0.000124
C95	C	0.737450	0.441664	0.189360
C96	C	0.737466	0.377432	0.253592
C97	C	0.958615	0.441642	0.189383
C98	C	1.033692	0.377402	0.253623
C99	C	0.516192	0.820205	-0.189175
C100	C	0.441115	0.884445	-0.253415
C101	C	0.516245	0.820202	0.000089
C102	C	0.441186	0.884442	0.000084
C103	C	0.737356	0.820183	-0.189152
C104	C	0.737341	0.884416	-0.253384
C105	C	1.025672	0.347243	-0.036842
C106	C	1.096192	0.286892	-0.036852
C107	C	1.174659	0.256700	0.000109
C108	C	1.182606	0.286869	0.037077
C109	C	1.112087	0.347223	0.037082
C110	C	0.780671	0.347262	0.320724
C111	C	0.780682	0.286917	0.381083
C112	C	0.737494	0.256738	0.374307
C113	C	0.694284	0.286914	0.307168
C114	C	0.694268	0.347262	0.246811
C115	C	1.112133	0.347230	0.246837
C116	C	1.182682	0.286878	0.307191
C117	C	1.174789	0.256694	0.374330
C118	C	1.096340	0.286872	0.381115
C119	C	1.025792	0.347227	0.320761
C120	C	0.362674	0.914625	-0.246630
C121	C	0.292124	0.974996	-0.306984
C122	C	0.300017	1.005182	-0.374123
C123	C	0.378466	0.975001	-0.380907
C124	C	0.449014	0.914635	-0.320553
C125	C	0.449134	0.914610	0.037044
C126	C	0.378615	0.974978	0.037036
C127	C	0.300148	1.005172	0.000073
C128	C	0.292201	0.975001	-0.036891
C129	C	0.362719	0.914638	-0.036888
C130	C	0.780537	0.914575	-0.246586
C131	C	0.780539	0.974921	-0.306933
C132	C	0.737338	1.005110	-0.374077
C133	C	0.694139	0.974944	-0.380874
C134	C	0.694144	0.914596	-0.320528
H135	H	0.815730	0.262328	-0.066952
H136	H	0.659121	0.262333	0.301661
H137	H	0.228304	0.999594	-0.066986
N138	N	1.087837	0.254302	0.453532
H139	H	1.027440	0.282568	0.448680
H140	H	1.115229	0.264800	0.480187
N141	N	0.140916	0.712777	-0.141040
H142	H	0.084218	0.760660	-0.152920
H143	H	0.135781	0.673705	-0.145162
H144	H	1.232073	0.207555	0.000100
N145	N	0.750229	0.748627	-0.621432
H146	H	0.749310	0.740033	-0.659950
H147	H	0.803620	0.741040	-0.607064
N148	N	0.827126	0.477278	-0.174191
H149	H	0.870578	0.473981	-0.147483
H150	H	0.854448	0.430495	-0.179108
N151	N	0.533759	0.882064	0.076905
H152	H	0.577235	0.839245	0.071304
H153	H	0.540308	0.857074	0.128589
H154	H	0.868648	0.124719	0.009688
N155	N	0.647617	0.379841	0.174405
H156	H	0.620247	0.351575	0.179278
H157	H	0.687221	0.369359	0.147718
H158	H	0.815722	0.371827	-0.066960
N159	N	0.386970	1.007558	-0.453324
H160	H	0.447366	0.979283	-0.448473
H161	H	0.359581	1.068145	-0.479973
N162	N	0.827157	0.477277	-0.299644
H163	H	0.804510	0.444961	-0.272999
H164	H	0.887564	0.445026	-0.272985
N165	N	0.647661	0.379806	0.076921
H166	H	0.620310	0.351532	0.100335
H167	H	0.604233	0.440394	0.042984
H168	H	0.242734	1.054324	0.000076
N169	N	1.120666	0.379750	0.076957
H170	H	1.181077	0.351459	0.100370
H171	H	1.093304	0.369240	0.114115
N172	N	0.354140	0.882101	-0.076753
H173	H	0.293730	0.910392	-0.100166
H174	H	0.381519	0.821516	-0.042819
N175	N	0.647547	0.784573	-0.327850
H176	H	0.604079	0.787878	-0.304479
H177	H	0.620245	0.831351	-0.379554
N178	N	0.223917	1.070283	-0.439211
H179	H	0.223867	1.049282	-0.468262
H180	H	0.223909	1.120349	-0.468209
H181	H	0.658966	0.999533	-0.435551
N182	N	0.333627	0.549142	-0.059326
H183	H	0.384331	0.549435	-0.059159
H184	H	0.299895	0.578105	-0.109441
H185	H	0.659057	0.765035	-0.698358
N186	N	0.827135	0.882023	-0.174171
H187	H	0.854499	0.910291	-0.179032
H188	H	0.870555	0.821434	-0.147519
H189	H	0.961925	0.371785	0.326296
H190	H	0.868654	0.015214	0.009704
N191	N	0.737346	1.070192	-0.439162
H192	H	0.771270	1.084712	-0.424660
H193	H	0.678830	1.120243	-0.468196
H194	H	0.153607	0.702179	0.051699
H195	H	0.356231	0.890050	-0.191967
H196	H	1.118575	0.371797	0.192175
N197	N	0.827135	1.007447	-0.299593
H198	H	0.854494	0.979167	-0.247900
H199	H	0.787482	1.068036	-0.323027
N200	N	0.284777	0.467131	0.081944
H201	H	0.318170	0.438078	0.060747
H202	H	0.233596	0.467661	0.082042
H203	H	0.658964	0.890046	-0.326073
N204	N	0.333885	0.549150	0.141188
H205	H	0.300515	0.578380	0.162266
H206	H	0.384820	0.549038	0.140579
N207	N	1.267288	0.254335	0.299865
H208	H	1.261576	0.282612	0.248174
H209	H	1.298441	0.193747	0.323299
H210	H	0.815840	0.371827	0.326255
N211	N	0.827273	0.477268	-0.671935
H212	H	0.854635	0.430441	-0.620245
H213	H	0.870696	0.474055	-0.695345
N214	N	0.827144	0.007497	-0.076713
H215	H	0.854500	-0.020785	-0.100120
H216	H	0.870567	-0.003004	-0.042777
H217	H	0.961787	0.371825	-0.066949
H218	H	0.512882	0.890064	-0.326087
H219	H	0.658990	0.765036	-0.435551
H220	H	0.815749	-0.109990	-0.066929
H221	H	0.737514	0.207599	0.423459
H222	H	1.232241	0.207549	0.423468
H223	H	1.089705	0.262336	-0.066955
H224	H	0.659073	-0.109973	0.067160
H225	H	0.748565	0.733660	-0.496488
N226	N	0.647719	0.784565	-0.825594
H227	H	0.620350	0.831392	-0.820734
H228	H	0.604307	0.787808	-0.852287
N229	N	0.207516	1.007531	-0.299662
H230	H	0.176318	1.068115	-0.323043
H231	H	0.213293	0.979181	-0.247959
N232	N	0.387190	1.007519	0.076902
H233	H	0.418351	0.961472	0.128606
H234	H	0.330583	1.050356	0.071230
N235	N	0.647665	0.007502	0.076926
H236	H	0.620312	-0.020770	0.100337
H237	H	0.604238	0.068091	0.042990
H238	H	0.196255	0.773432	-0.071200
N239	N	0.827228	0.477271	-0.546494
H240	H	0.804580	0.444959	-0.540859
H241	H	0.820652	0.488552	-0.509332
N242	N	0.587029	0.138038	-0.010859
H243	H	0.542427	0.190462	-0.056543
H244	H	0.568465	0.135959	0.030263
H245	H	0.815872	0.262356	0.435745
H246	H	0.606135	0.246648	-0.009512
H247	H	0.659066	0.262334	0.067146
N248	N	0.724617	0.513213	-0.503797
H249	H	0.720718	0.477334	-0.457592
H250	H	0.775065	0.478443	-0.511435
H251	H	0.726189	0.528193	-0.393814
H252	H	1.246503	0.262278	0.067169
