data_functionalizedCrystal
_audit_creation_method	'MofGen! by Chris Wilmer'
_symmetry_space_group_name_H-M	'P1'
_symmetry_Int_Tables_number	1
_symmetry_cell_setting	triclinic
loop_
_symmetry_equiv_pos_as_xyz
  x,y,z
_cell_length_a	17.699077
_cell_length_b	10.489716
_cell_length_c	16.776229
_cell_angle_alpha	89.997416
_cell_angle_beta	89.993415
_cell_angle_gamma	83.904856
loop_
_atom_site_label
_atom_site_type_symbol
_atom_site_fract_x
_atom_site_fract_y
_atom_site_fract_z
O1	O	1.005128	0.161261	-0.066271
O2	O	1.505128	0.661261	0.433729
O3	O	0.784885	0.182254	-0.066274
O4	O	1.284885	0.682254	0.433726
O5	O	0.900028	-0.013936	-0.066275
O6	O	1.400028	0.486064	0.433725
O7	O	0.889985	0.357451	-0.066269
O8	O	1.389985	0.857451	0.433731
O9	O	0.900012	-0.013948	0.066302
O10	O	1.400012	0.486052	0.566302
O11	O	0.784870	0.182242	0.066303
O12	O	1.284870	0.682242	0.566303
O13	O	1.005112	0.161249	0.066306
O14	O	1.505112	0.661249	0.566306
Zn15	Zn	0.894988	0.171744	0.087354
Zn16	Zn	1.394988	0.671744	0.587354
Zn17	Zn	0.895009	0.171760	-0.087321
Zn18	Zn	1.395009	0.671760	0.412679
O19	O	0.889970	0.357439	0.066307
O20	O	1.389970	0.857439	0.566307
C21	C	0.756675	0.181497	0.000014
C22	C	1.256675	0.681497	0.500014
C23	C	0.672642	0.179245	0.000013
C24	C	1.172642	0.679245	0.500013
C25	C	0.633160	0.178177	0.072281
C26	C	1.133160	0.678177	0.572281
C27	C	0.554203	0.176039	0.072282
C28	C	1.054203	0.676039	0.572282
C29	C	0.514730	0.174980	0.000013
C30	C	1.014730	0.674980	0.500013
C31	C	0.554219	0.176044	-0.072260
C32	C	1.054219	0.676044	0.427740
C33	C	0.633175	0.178172	-0.072260
C34	C	1.133175	0.678172	0.427740
C35	C	0.235800	0.167460	-0.072262
C36	C	0.735800	0.667460	0.427738
C37	C	0.156838	0.165336	-0.072256
C38	C	0.656838	0.665336	0.427744
C39	C	0.156829	0.165328	0.072280
C40	C	0.656829	0.665328	0.572280
C41	C	0.235784	0.167456	0.072280
C42	C	0.735784	0.667456	0.572280
C43	C	0.275266	0.168513	0.000007
C44	C	0.775266	0.668513	0.500007
C45	C	0.360880	0.170828	0.000007
C46	C	0.860880	0.670828	0.500007
C47	C	0.429118	0.172674	0.000013
C48	C	0.929118	0.672674	0.500013
C49	C	0.899265	-0.061460	0.000011
C50	C	1.399265	0.438540	0.500011
C51	C	0.897008	-0.203049	0.000004
C52	C	1.397008	0.296951	0.500004
C53	C	0.967617	-0.302037	0.000012
C54	C	1.467617	0.197963	0.500012
C55	C	0.930313	-0.378697	-0.065354
C56	C	1.430313	0.121303	0.434646
C57	C	0.930282	-0.378673	0.065356
C58	C	1.430282	0.121327	0.565356
C59	C	0.859734	-0.277844	-0.065416
C60	C	1.359734	0.222156	0.434584
C61	C	0.859712	-0.277814	0.065353
C62	C	1.359712	0.222186	0.565353
C63	C	0.822357	-0.354424	-0.000029
C64	C	1.322357	0.145576	0.499971
C65	C	1.033322	0.162006	0.000016
C66	C	1.533322	0.662006	0.500016
C67	C	1.117355	0.164259	0.000013
C68	C	1.617355	0.664259	0.500013
C69	C	0.890732	0.404963	0.000020
C70	C	1.390732	0.904963	0.500020
C71	C	0.892989	0.546552	0.000022
C72	C	1.392989	1.046552	0.500022
N73	N	0.894980	0.171732	0.206565
N74	N	1.394980	0.671732	0.706565
N75	N	0.895023	0.171761	-0.206533
N76	N	1.395023	0.671761	0.293467
C77	C	0.945981	0.084895	0.248282
C78	C	1.445981	0.584895	0.748282
C79	C	0.945985	0.084894	0.331734
C80	C	1.445985	0.584894	0.831734
C81	C	0.894992	0.171737	0.373468
C82	C	1.394992	0.671737	0.873468
C83	C	0.843985	0.258579	0.331746
C84	C	1.343985	0.758579	0.831746
C85	C	0.843978	0.258573	0.248295
C86	C	1.343978	0.758573	0.748295
C87	C	0.844013	0.258604	0.668293
C88	C	1.344013	0.758604	1.168293
C89	C	0.844025	0.258606	0.751749
C90	C	1.344025	0.758606	1.251749
C91	C	0.946020	0.084925	0.751732
C92	C	1.446020	0.584925	1.251732
C93	C	0.946013	0.084919	0.668281
C94	C	1.446013	0.584919	1.168281
C95	C	0.895004	0.171755	0.626566
C96	C	1.395004	0.671755	1.126566
C97	C	0.894999	0.171754	0.536078
C98	C	1.394999	0.671754	1.036078
C99	C	0.895000	0.171746	0.463955
C100	C	1.395000	0.671746	0.963955
H101	H	0.267919	0.168325	0.131128
H102	H	0.767919	0.668325	0.631128
N103	N	0.998060	-0.003817	0.205643
N104	N	1.498060	0.496183	0.705643
N105	N	0.998047	-0.003816	0.131134
N106	N	1.498047	0.496184	0.631134
H107	H	1.034828	-0.066474	0.101020
H108	H	1.534828	0.433526	0.601020
N109	N	0.116511	0.164220	0.146115
N110	N	0.616511	0.664220	0.646115
N111	N	0.151765	0.165168	0.210634
N112	N	0.651765	0.665168	0.710634
H113	H	0.123293	0.164388	0.262780
H114	H	0.623293	0.664388	0.762780
N115	N	0.791892	0.347299	0.374361
N116	N	1.291892	0.847299	0.874361
N117	N	0.746357	0.424823	0.337101
N118	N	1.246357	0.924823	0.837101
H119	H	0.709564	0.487485	0.367196
H120	H	1.209564	0.987485	0.867196
H121	H	0.267937	0.168317	-0.131111
H122	H	0.767937	0.668317	0.368889
H123	H	0.802481	0.329311	0.634335
H124	H	1.302481	0.829311	1.134335
N125	N	0.822382	-0.222854	-0.134833
N126	N	1.322382	0.277146	0.365167
N127	N	0.793991	-0.293129	-0.184266
N128	N	1.293991	0.206871	0.315734
H129	H	0.767615	-0.254293	-0.233294
H130	H	1.267615	0.245707	0.266706
N131	N	0.745253	-0.383648	-0.000053
N132	N	1.245253	0.116352	0.499947
N133	N	0.701681	-0.344987	0.055538
N134	N	1.201681	0.155013	0.555538
H135	H	0.647227	-0.365627	0.055519
H136	H	1.147227	0.134373	0.555519
H137	H	0.987552	0.014214	0.785705
H138	H	1.487552	0.514214	1.285705
N139	N	0.998106	-0.003804	0.625668
N140	N	1.498106	0.496196	1.125668
N141	N	0.996441	-0.121697	0.634998
N142	N	1.496441	0.378303	1.134998
H143	H	1.033234	-0.184363	0.604906
H144	H	1.533234	0.315637	1.104906
H145	H	0.960097	-0.422705	0.120617
H146	H	1.460097	0.077295	0.620617
N147	N	0.673518	0.179280	-0.146074
N148	N	1.173518	0.679280	0.353926
N149	N	0.744014	0.181179	-0.146065
N150	N	1.244014	0.681179	0.353935
H151	H	0.772508	0.181958	-0.198197
H152	H	1.272508	0.681958	0.301803
H153	H	0.802447	0.329283	0.214330
H154	H	1.302447	0.829283	0.714330
H155	H	0.665292	0.179050	0.131130
H156	H	1.165292	0.679050	0.631130
H157	H	0.522062	0.175148	0.131130
H158	H	1.022062	0.675148	0.631130
N159	N	0.116528	0.164256	-0.146088
N160	N	0.616528	0.664256	0.353912
N161	N	0.151787	0.165201	-0.210612
N162	N	0.651787	0.665201	0.289388
H163	H	0.123319	0.164440	-0.262753
H164	H	0.623319	0.664440	0.237247
N165	N	0.822349	-0.222543	0.134687
N166	N	1.322349	0.277457	0.634687
N167	N	0.846437	-0.255129	0.202512
N168	N	1.346437	0.244871	0.702512
H169	H	0.820055	-0.216095	0.251486
H170	H	1.320055	0.283905	0.751486
N171	N	0.791918	0.347311	0.794369
N172	N	1.291918	0.847311	1.294369
N173	N	0.721956	0.345695	0.785067
N174	N	1.221956	0.845695	1.285067
H175	H	0.685156	0.408339	0.815167
H176	H	1.185156	0.908339	1.315167
N177	N	0.513890	0.174947	-0.146075
N178	N	1.013890	0.674947	0.353925
N179	N	0.443395	0.173048	-0.146066
N180	N	0.943395	0.673048	0.353934
H181	H	0.414912	0.172275	-0.198199
H182	H	0.914912	0.672275	0.301801
N183	N	1.044666	-0.272525	-0.000074
N184	N	1.544666	0.227475	0.499926
N185	N	1.087908	-0.309509	-0.056288
N186	N	1.587908	0.190491	0.443712
H187	H	1.142323	-0.288666	-0.056352
H188	H	1.642323	0.211334	0.443648
H189	H	0.960126	-0.422742	-0.120616
H190	H	1.460126	0.077258	0.379384
N191	N	0.998084	-0.003822	0.374333
N192	N	1.498084	0.496178	0.874333
N193	N	1.043612	-0.081351	0.337062
N194	N	1.543612	0.418649	0.837062
H195	H	1.080409	-0.144013	0.367147
H196	H	1.580409	0.355987	0.867147
