data_functionalizedCrystal
_audit_creation_method	'MofGen! by Chris Wilmer'
_symmetry_space_group_name_H-M	'P1'
_symmetry_Int_Tables_number	1
_symmetry_cell_setting	triclinic
loop_
_symmetry_equiv_pos_as_xyz
  x,y,z
_cell_length_a	19.805407
_cell_length_b	21.295417
_cell_length_c	19.805399
_cell_angle_alpha	90.030843
_cell_angle_beta	90.019573
_cell_angle_gamma	90.030507
loop_
_atom_site_label
_atom_site_type_symbol
_atom_site_fract_x
_atom_site_fract_y
_atom_site_fract_z
Zn1	Zn	1.034716	-0.250624	0.382704
Zn2	Zn	1.034623	-0.355893	0.269510
Zn3	Zn	0.921531	-0.250641	0.269529
Zn4	Zn	0.921486	-0.355859	0.382656
O5	O	0.978089	-0.303254	0.326100
O6	O	1.129421	-0.264595	0.367701
O7	O	1.019601	-0.341952	0.174796
O8	O	0.936603	-0.162549	0.284570
O9	O	1.129352	-0.341935	0.284537
O10	O	1.019760	-0.162537	0.367719
O11	O	0.936513	-0.264624	0.174810
O12	O	0.826809	-0.264592	0.284523
O13	O	0.936527	-0.341878	0.477379
O14	O	0.826776	-0.341895	0.367638
O15	O	1.019717	-0.264562	0.477415
O16	O	1.019558	-0.443977	0.284491
O17	O	0.936437	-0.443953	0.367619
C18	C	0.802233	-0.303242	0.326078
C19	C	0.727001	-0.303252	0.326085
C20	C	0.978001	-0.466806	0.326062
C21	C	0.978024	-0.536774	0.326069
C22	C	0.691658	-0.343564	0.369292
C23	C	0.620969	-0.343566	0.369302
C24	C	0.585626	-0.303257	0.326100
C25	C	0.620974	-0.262940	0.282890
C26	C	0.691661	-0.262936	0.282885
C27	C	0.335901	-0.262954	0.282913
C28	C	0.265209	-0.262962	0.282920
C29	C	0.265209	-0.343583	0.369330
C30	C	0.335896	-0.343579	0.369324
C31	C	0.371238	-0.303261	0.326117
C32	C	0.447887	-0.303259	0.326109
C33	C	0.508979	-0.303261	0.326105
C34	C	1.021344	-0.569632	0.282828
C35	C	1.021376	-0.635375	0.282844
C36	C	0.978076	-0.668256	0.326092
C37	C	0.934753	-0.635390	0.369341
C38	C	0.934728	-0.569649	0.369330
N39	N	0.918865	-0.771522	0.331245
N40	N	0.918892	-0.833974	0.331252
C41	C	0.978152	-0.866331	0.326131
N42	N	1.037386	-0.833878	0.320989
N43	N	1.037358	-0.771421	0.320979
C44	C	0.978099	-0.739542	0.326110
C45	C	1.021509	-0.970475	0.282905
C46	C	1.021542	-1.036219	0.282925
C47	C	0.934914	-1.036233	0.369419
C48	C	0.934887	-0.970490	0.369402
C49	C	0.978184	-0.937615	0.326142
C50	C	1.154632	-0.303267	0.326122
C51	C	1.229864	-0.303272	0.326132
C52	C	0.978127	-0.303214	0.502643
C53	C	0.978143	-0.303198	0.577875
C54	C	0.978197	-0.139064	0.326152
C55	C	0.978243	-0.069096	0.326175
C56	C	0.978090	-0.303248	0.150244
C57	C	0.978205	-0.303088	0.075012
C58	C	1.021461	-0.262937	0.613238
C59	C	1.021468	-0.262919	0.683927
C60	C	0.978160	-0.303165	0.719250
C61	C	0.934838	-0.343427	0.683882
C62	C	0.934828	-0.343442	0.613195
C63	C	0.934876	-0.343368	0.968955
C64	C	0.934891	-0.343352	1.039647
C65	C	1.021516	-0.262846	1.039687
C66	C	1.021506	-0.262860	0.969000
C67	C	0.978182	-0.303120	0.933638
C68	C	0.978174	-0.303138	0.856989
C69	C	0.978171	-0.303150	0.795897
H70	H	0.592196	-0.376393	0.404485
H71	H	0.899573	-0.376193	0.712648
H72	H	0.899621	-0.376126	1.068406
C73	C	0.374771	-0.387917	0.416848
H74	H	0.343596	-0.411922	0.442588
H75	H	0.402323	-0.415311	0.390903
H76	H	0.402368	-0.363864	0.446386
H77	H	0.899661	-1.063004	0.404636
H78	H	1.056822	-1.062971	0.247714
C79	C	1.069027	-0.671530	0.235278
H80	H	1.062843	-0.715391	0.241484
H81	H	1.059143	-0.660795	0.189789
H82	H	1.114498	-0.660714	0.245225
H83	H	0.899609	-0.943735	0.404610
C84	C	0.226331	-0.387928	0.416864
H85	H	0.179170	-0.382154	0.410688
H86	H	0.237889	-0.430210	0.406873
H87	H	0.237943	-0.378766	0.462360
C88	C	0.887123	-0.671557	0.416912
H89	H	0.893338	-0.715416	0.410722
H90	H	0.896997	-0.660746	0.462397
H91	H	0.841646	-0.660825	0.406958
H92	H	0.364668	-0.230129	0.247726
C93	C	0.887070	-0.533503	0.416893
H94	H	0.861284	-0.562499	0.442651
H95	H	0.912933	-0.507813	0.446401
H96	H	0.857581	-0.507902	0.390962
C97	C	0.887195	-0.387743	0.574295
H98	H	0.861412	-0.411719	0.605455
H99	H	0.857711	-0.363680	0.546714
H100	H	0.913083	-0.415177	0.546724
H101	H	1.056730	-0.230166	0.584483
C102	C	0.226332	-0.218616	0.235401
H103	H	0.257504	-0.194598	0.209673
H104	H	0.198732	-0.242659	0.205863
H105	H	0.198782	-0.191224	0.261360
H106	H	0.592192	-0.230118	0.247718
H107	H	1.056774	-0.230090	0.940243
H108	H	1.056743	-0.230136	0.712717
C109	C	1.069169	-0.218556	1.078588
H110	H	1.062970	-0.224304	1.125746
H111	H	1.114637	-0.227777	1.067009
H112	H	1.059287	-0.176260	1.067013
C113	C	0.730539	-0.218592	0.235358
H114	H	0.699367	-0.194589	0.209625
H115	H	0.758138	-0.191196	0.261305
H116	H	0.758090	-0.242635	0.205813
C117	C	0.887227	-0.387655	0.930062
H118	H	0.893415	-0.381898	0.882904
H119	H	0.897107	-0.429948	0.941635
H120	H	0.841756	-0.378433	0.941644
C121	C	0.730530	-0.387904	0.416816
H122	H	0.699354	-0.411908	0.442554
H123	H	0.758081	-0.415299	0.390871
H124	H	0.758128	-0.363853	0.446355
H125	H	1.056601	-0.542868	0.247605
H126	H	1.056767	-0.943707	0.247681
