data_functionalizedCrystal
_audit_creation_method	'MofGen! by Chris Wilmer'
_symmetry_space_group_name_H-M	'P1'
_symmetry_Int_Tables_number	1
_symmetry_cell_setting	triclinic
loop_
_symmetry_equiv_pos_as_xyz
  x,y,z
_cell_length_a	42.784839
_cell_length_b	42.784841
_cell_length_c	42.778707
_cell_angle_alpha	120.004147
_cell_angle_beta	59.986569
_cell_angle_gamma	119.999863
loop_
_atom_site_label
_atom_site_type_symbol
_atom_site_fract_x
_atom_site_fract_y
_atom_site_fract_z
O1	O	0.266392	-0.214412	0.009302
O2	O	0.220947	-0.168961	-0.009255
O3	O	0.220927	-0.168960	0.054764
O4	O	0.266412	-0.214414	-0.054717
O5	O	0.168943	-0.220944	0.054764
O6	O	0.168963	-0.220946	-0.009255
O7	O	0.214408	-0.266396	0.009302
Cu8	Cu	0.186939	-0.248417	0.000023
Cu9	Cu	0.248416	-0.186940	0.000024
O10	O	0.214428	-0.266398	-0.054717
C11	C	0.079141	-0.022779	-0.028120
C12	C	0.041525	-0.041762	-0.028383
C13	C	0.079142	-0.079379	-0.028123
C14	C	0.041526	-0.098275	-0.028386
C15	C	0.022542	-0.079377	-0.028120
C16	C	0.098039	-0.041763	-0.028386
C17	C	0.170817	0.113708	-0.017868
C18	C	0.188756	0.152360	-0.014969
C19	C	0.169415	0.171750	-0.013512
C20	C	0.188861	0.213661	-0.010362
C21	C	0.132135	0.152485	-0.014957
C22	C	0.114201	0.113835	-0.017861
C23	C	0.133543	0.094446	-0.019317
C24	C	-0.113949	-0.113937	-0.017864
C25	C	-0.152602	-0.131751	-0.014965
C26	C	-0.171993	-0.169024	-0.013509
C27	C	-0.213903	-0.188341	-0.010360
C28	C	-0.152726	-0.188486	-0.014958
C29	C	-0.114073	-0.170675	-0.017864
C30	C	-0.094687	-0.133396	-0.019314
C31	C	0.170821	-0.113944	-0.017881
C32	C	0.188759	-0.131757	-0.014981
C33	C	0.169419	-0.169033	-0.013527
C34	C	0.188867	-0.188349	-0.010380
C35	C	0.132141	-0.188491	-0.014971
C36	C	0.114204	-0.170676	-0.017870
C37	C	0.133549	-0.133402	-0.019328
C38	C	0.114092	0.052537	-0.022462
C39	C	0.098589	0.019130	-0.024971
C40	C	0.098591	-0.098693	-0.024978
C41	C	0.114095	-0.114089	-0.022472
C42	C	-0.019368	-0.098690	-0.024971
C43	C	-0.052775	-0.114085	-0.022462
O44	O	-0.337180	-0.266388	0.009324
O45	O	-0.227723	-0.220936	-0.009231
O46	O	-0.291738	-0.220937	0.054788
O47	O	-0.273165	-0.266386	-0.054694
O48	O	-0.291740	-0.168952	0.054791
O49	O	-0.227724	-0.168951	-0.009228
O50	O	-0.337182	-0.214403	0.009327
Cu51	Cu	-0.282453	-0.186930	0.000050
Cu52	Cu	-0.282452	-0.248408	0.000046
O53	O	-0.273166	-0.214401	-0.054691
C54	C	-0.254215	-0.356202	-0.361631
C55	C	-0.253945	-0.393817	-0.380534
C56	C	-0.254228	-0.356203	-0.305019
C57	C	-0.253958	-0.393819	-0.324008
C58	C	-0.254213	-0.412801	-0.361633
C59	C	-0.253959	-0.337306	-0.324006
C60	C	-0.264456	-0.264522	-0.396198
C61	C	-0.267349	-0.246582	-0.414016
C62	C	-0.268794	-0.265921	-0.451301
C63	C	-0.271939	-0.246473	-0.470620
C64	C	-0.267343	-0.303201	-0.470768
C65	C	-0.264445	-0.321136	-0.452951
C66	C	-0.263001	-0.301795	-0.415665
C67	C	-0.264436	-0.549287	-0.453339
C68	C	-0.267329	-0.587938	-0.471284
C69	C	-0.268789	-0.607330	-0.451942
C70	C	-0.271930	-0.649239	-0.471394
C71	C	-0.267352	-0.588065	-0.414652
C72	C	-0.264453	-0.549413	-0.396710
C73	C	-0.262998	-0.530027	-0.416057
C74	C	-0.264508	-0.264526	-0.168494
C75	C	-0.267420	-0.246588	-0.129830
C76	C	-0.268878	-0.265929	-0.110437
C77	C	-0.272037	-0.246482	-0.068515
C78	C	-0.267428	-0.303207	-0.129707
C79	C	-0.264519	-0.321143	-0.168369
C80	C	-0.263055	-0.301798	-0.187761
C81	C	-0.259861	-0.321248	-0.396347
C82	C	-0.257357	-0.336753	-0.380949
C83	C	-0.257385	-0.336755	-0.263098
C84	C	-0.259900	-0.321251	-0.229683
C85	C	-0.257355	-0.454710	-0.381088
C86	C	-0.259858	-0.488116	-0.396597
C87	C	0.412557	-0.356211	0.028201
C88	C	0.393574	-0.393826	0.028466
C89	C	0.355960	-0.356212	0.028198
C90	C	0.337062	-0.393827	0.028463
C91	C	0.355959	-0.412810	0.028201
C92	C	0.393575	-0.337315	0.028463
C93	C	0.549046	-0.264531	0.017954
C94	C	0.587698	-0.246591	0.015057
C95	C	0.607087	-0.265930	0.013604
C96	C	0.648999	-0.246482	0.010456
C97	C	0.587821	-0.303210	0.015052
C98	C	0.549171	-0.321145	0.017953
C99	C	0.529783	-0.301805	0.019405
C100	C	0.321400	-0.549295	0.017956
C101	C	0.303586	-0.587946	0.015059
C102	C	0.266313	-0.607338	0.013601
C103	C	0.246997	-0.649247	0.010454
C104	C	0.246853	-0.588073	0.015046
C105	C	0.264663	-0.549422	0.017949
C106	C	0.301941	-0.530035	0.019402
C107	C	0.321403	-0.264536	0.017941
C108	C	0.303592	-0.246599	0.015036
C109	C	0.266317	-0.265939	0.013580
C110	C	0.247004	-0.246492	0.010429
C111	C	0.246858	-0.303217	0.015026
C112	C	0.264671	-0.321153	0.017929
C113	C	0.301944	-0.301808	0.019390
C114	C	0.487873	-0.321257	0.022548
C115	C	0.454467	-0.336762	0.025054
C116	C	0.336648	-0.336764	0.025048
C117	C	0.321254	-0.321261	0.022538
C118	C	0.336646	-0.454719	0.025054
C119	C	0.321252	-0.488124	0.022547
O120	O	0.214403	0.336934	0.009326
O121	O	0.168955	0.227482	-0.009229
O122	O	0.168939	0.291480	0.054789
O123	O	0.214418	0.272937	-0.054693
O124	O	0.220924	0.291478	0.054786
O125	O	0.220940	0.227480	-0.009232
O126	O	0.266388	0.336933	0.009322
Cu127	Cu	0.248410	0.282206	0.000045
Cu128	Cu	0.186932	0.282208	0.000049
O129	O	0.266403	0.272935	-0.054696
O130	O	-0.291599	-0.772512	-0.496953
O131	O	-0.273065	-0.663060	-0.451484
O132	O	-0.337064	-0.727059	-0.451484
O133	O	-0.227600	-0.708513	-0.496953
O134	O	-0.337052	-0.727057	-0.503481
O135	O	-0.273053	-0.663058	-0.503481
O136	O	-0.291587	-0.772509	-0.548949
Cu137	Cu	-0.282319	-0.717783	-0.530963
Cu138	Cu	-0.282333	-0.717786	-0.469471
O139	O	-0.227588	-0.708510	-0.548950
O140	O	-0.291617	-0.220930	-0.548676
O141	O	-0.273068	-0.266380	-0.503221
O142	O	-0.337074	-0.266374	-0.503203
O143	O	-0.227612	-0.220936	-0.548695
O144	O	-0.337073	-0.214386	-0.451209
O145	O	-0.273068	-0.214392	-0.451227
O146	O	-0.291617	-0.168941	-0.496683
Cu147	Cu	-0.282342	-0.186919	-0.469208
Cu148	Cu	-0.282343	-0.248402	-0.530696
O149	O	-0.227611	-0.168947	-0.496701
C150	C	0.022680	-0.079132	0.361702
C151	C	0.041658	-0.041516	0.380604
C152	C	0.079295	-0.079133	0.305089
C153	C	0.098187	-0.041518	0.324076
C154	C	0.079279	-0.022534	0.361702
C155	C	0.041674	-0.098030	0.324077
C156	C	-0.113817	-0.170809	0.396273
C157	C	-0.152473	-0.188749	0.414093
C158	C	-0.171873	-0.169408	0.451377
C159	C	-0.213790	-0.188855	0.470698
C160	C	-0.152613	-0.132128	0.470843
C161	C	-0.113958	-0.114193	0.453025
C162	C	-0.094560	-0.133536	0.415739
C163	C	0.113815	0.113954	0.453403
C164	C	0.131625	0.152606	0.471347
C165	C	0.168904	0.171996	0.452003
C166	C	0.188215	0.213906	0.471454
C167	C	0.188375	0.152730	0.414714
C168	C	0.170569	0.114078	0.396773
C169	C	0.133285	0.094693	0.416121
C170	C	0.113895	-0.170815	0.168566
C171	C	0.131719	-0.188754	0.129903
C172	C	0.169000	-0.169415	0.110508
C173	C	0.188327	-0.188863	0.068586
C174	C	0.188453	-0.132136	0.129777
C175	C	0.170628	-0.114199	0.168439
C176	C	0.133349	-0.133543	0.187832
C177	C	-0.052645	-0.114084	0.396420
C178	C	-0.019234	-0.098580	0.381021
C179	C	0.098621	-0.098583	0.263169
C180	C	0.114025	-0.114088	0.229754
C181	C	0.098587	0.019375	0.381155
C182	C	0.113978	0.052782	0.396663
C183	C	0.356318	-0.412581	-0.361655
C184	C	0.393939	-0.393599	-0.380557
C185	C	0.356303	-0.355982	-0.305042
C186	C	0.393924	-0.337085	-0.324030
C187	C	0.412917	-0.355984	-0.361656
C188	C	0.337411	-0.393597	-0.324029
C189	C	0.264648	-0.549067	-0.396222
C190	C	0.246712	-0.587719	-0.414040
C191	C	0.266062	-0.607110	-0.451325
C192	C	0.246620	-0.649021	-0.470644
C193	C	0.303348	-0.587845	-0.470791
C194	C	0.321279	-0.549195	-0.452974
C195	C	0.301927	-0.529806	-0.415688
C196	C	0.549430	-0.321426	-0.453360
C197	C	0.588087	-0.303612	-0.471305
C198	C	0.607473	-0.266338	-0.451962
C199	C	0.649388	-0.247023	-0.471413
C200	C	0.588197	-0.246877	-0.414672
C201	C	0.549540	-0.264687	-0.396730
C202	C	0.530159	-0.301966	-0.416078
C203	C	0.264586	-0.321416	-0.168519
C204	C	0.246637	-0.303602	-0.129855
C205	C	0.265972	-0.266327	-0.110461
C206	C	0.246513	-0.247010	-0.068539
C207	C	0.303256	-0.246869	-0.129731
C208	C	0.321203	-0.264684	-0.168393
C209	C	0.301863	-0.301958	-0.187785
C210	C	0.321374	-0.487897	-0.396370
C211	C	0.336874	-0.454491	-0.380972
C212	C	0.336842	-0.336667	-0.263122
C213	C	0.321329	-0.321271	-0.229707
C214	C	0.454832	-0.336671	-0.381110
C215	C	0.488243	-0.321277	-0.396619
C216	C	-0.310691	-0.022784	0.361730
C217	C	-0.310960	-0.041768	0.380631
C218	C	-0.310677	-0.079382	0.305115
C219	C	-0.310945	-0.098280	0.324102
C220	C	-0.310690	-0.079383	0.361728
C221	C	-0.310947	-0.041766	0.324105
C222	C	-0.300455	0.113703	0.396305
C223	C	-0.297563	0.152354	0.414125
C224	C	-0.296118	0.171743	0.451410
C225	C	-0.292975	0.213654	0.470732
C226	C	-0.297568	0.152477	0.470875
C227	C	-0.300465	0.113827	0.453056
C228	C	-0.301909	0.094440	0.415770
C229	C	-0.300463	-0.113948	0.453427
C230	C	-0.297570	-0.131763	0.471370
C231	C	-0.296108	-0.169036	0.452026
C232	C	-0.292966	-0.188354	0.471475
C233	C	-0.297546	-0.188496	0.414736
C234	C	-0.300446	-0.170684	0.396796
C235	C	-0.301902	-0.133406	0.416145
C236	C	-0.300398	-0.113940	0.168593
C237	C	-0.297486	-0.131752	0.129929
C238	C	-0.296026	-0.169027	0.110533
C239	C	-0.292868	-0.188341	0.068611
C240	C	-0.297475	-0.188486	0.129801
C241	C	-0.300385	-0.170673	0.168463
C242	C	-0.301849	-0.133399	0.187858
C243	C	-0.305047	0.052531	0.396450
C244	C	-0.307550	0.019125	0.381050
C245	C	-0.307520	-0.098694	0.263195
C246	C	-0.305005	-0.114089	0.229780
C247	C	-0.307547	-0.098698	0.381180
C248	C	-0.305043	-0.114093	0.396687
C249	C	0.079032	0.310311	0.361717
C250	C	0.041410	0.310573	0.380620
C251	C	0.079047	0.310320	0.305107
C252	C	0.041426	0.310582	0.324096
C253	C	0.022432	0.310312	0.361720
C254	C	0.097939	0.310581	0.324092
C255	C	0.170703	0.300056	0.396277
C256	C	0.188639	0.297155	0.414094
C257	C	0.169289	0.295695	0.451377
C258	C	0.188732	0.292543	0.470695
C259	C	0.132003	0.297139	0.470844
C260	C	0.114072	0.300045	0.453030
C261	C	0.133424	0.301503	0.415744
C262	C	-0.114081	0.300053	0.453424
C263	C	-0.152739	0.297154	0.471369
C264	C	-0.172125	0.295702	0.452028
C265	C	-0.214040	0.292553	0.471479
C266	C	-0.152849	0.297153	0.414739
C267	C	-0.114192	0.300059	0.396797
C268	C	-0.094810	0.301507	0.416143
C269	C	0.170765	0.300092	0.168585
C270	C	0.188715	0.297196	0.129923
C271	C	0.169380	0.295745	0.110530
C272	C	0.188839	0.292602	0.068609
C273	C	0.132095	0.297187	0.129800
C274	C	0.114148	0.300082	0.168461
C275	C	0.133488	0.301538	0.187852
C276	C	0.113976	0.304650	0.396429
C277	C	0.098476	0.307160	0.381032
C278	C	0.098508	0.307179	0.263187
C279	C	0.114022	0.304677	0.229773
C280	C	-0.019483	0.307163	0.381175
C281	C	-0.052894	0.304654	0.396684
O282	O	0.266258	0.337176	0.497003
O283	O	0.220816	0.227724	0.451543
O284	O	0.220818	0.291722	0.451538
O285	O	0.266256	0.273178	0.497008
O286	O	0.168820	0.291725	0.503536
O287	O	0.168817	0.227727	0.503541
O288	O	0.214260	0.337179	0.549002
Cu289	Cu	0.186791	0.282453	0.531019
Cu290	Cu	0.248285	0.282450	0.469525
O291	O	0.214257	0.273181	0.549006
C292	C	0.412666	0.254102	-0.361627
C293	C	0.393687	0.253841	-0.380526
C294	C	0.356051	0.254095	-0.305013
C295	C	0.337159	0.253834	-0.323999
C296	C	0.356066	0.254104	-0.361623
C297	C	0.393672	0.253832	-0.324002
C298	C	0.549163	0.264350	-0.396202
C299	C	0.587820	0.267249	-0.414022
C300	C	0.607220	0.268709	-0.451305
C301	C	0.649137	0.271860	-0.470626
C302	C	0.587960	0.267267	-0.470769
C303	C	0.549305	0.264363	-0.452950
C304	C	0.529906	0.262905	-0.415665
C305	C	0.321529	0.264368	-0.453316
C306	C	0.303719	0.267269	-0.471258
C307	C	0.266440	0.268723	-0.451913
C308	C	0.247128	0.271874	-0.471361
C309	C	0.246969	0.267271	-0.414625
C310	C	0.264775	0.264364	-0.396686
C311	C	0.302060	0.262914	-0.416036
C312	C	0.321451	0.264321	-0.168495
C313	C	0.303627	0.267217	-0.129833
C314	C	0.266346	0.268670	-0.110437
C315	C	0.247019	0.271812	-0.068516
C316	C	0.246892	0.267229	-0.129704
C317	C	0.264718	0.264334	-0.168365
C318	C	0.301997	0.262877	-0.187759
C319	C	0.487991	0.259759	-0.396346
C320	C	0.454581	0.257251	-0.380946
C321	C	0.336725	0.257235	-0.263094
C322	C	0.321321	0.259738	-0.229680
C323	C	0.336758	0.257255	-0.381074
C324	C	0.321367	0.259765	-0.396580
H325	H	0.116393	-0.218844	-0.013787
O326	O	0.135042	-0.023347	0.305836
C327	C	0.178913	-0.000793	0.252245
C328	C	0.137166	-0.021393	0.272855
H329	H	0.180643	0.000801	0.225580
H330	H	0.197804	-0.017302	0.243605
H331	H	0.189197	0.029400	0.272312
H332	H	0.126847	-0.051585	0.252809
H333	H	0.118301	-0.004854	0.281501
H334	H	0.115769	0.168289	0.501707
O335	O	0.245706	-0.357357	0.019351
C336	C	0.187561	-0.411628	0.019018
C337	C	0.208992	-0.370625	0.017413
H338	H	0.157877	-0.422371	0.017444
H339	H	0.184680	-0.411685	0.046965
H340	H	0.204276	-0.431195	-0.006197
H341	H	0.192296	-0.351034	0.042609
H342	H	0.211877	-0.370599	-0.010550
H343	H	-0.253568	-0.306409	-0.308752
O344	O	-0.268770	-0.321938	-0.506975
C345	C	-0.273214	-0.319391	-0.559582
C346	C	-0.271608	-0.298127	-0.518572
H347	H	-0.275500	-0.300146	-0.568973
H348	H	-0.299230	-0.346638	-0.560312
H349	H	-0.246071	-0.327123	-0.579831
H350	H	-0.298732	-0.290368	-0.498299
H351	H	-0.245575	-0.270896	-0.517872
O352	O	-0.296232	0.171276	0.507116
C353	C	-0.328240	0.174480	0.573163
C354	C	-0.329806	0.153161	0.532138
H355	H	-0.355377	0.159838	0.593403
H356	H	-0.325944	0.205412	0.582585
H357	H	-0.302220	0.173958	0.573864
H358	H	-0.355823	0.153653	0.531405
H359	H	-0.332081	0.122239	0.522733
O360	O	-0.301799	-0.189527	0.360560
C361	C	-0.272151	-0.190257	0.295338
C362	C	-0.270576	-0.168875	0.336359
H363	H	-0.246907	-0.173573	0.275759
H364	H	-0.300069	-0.193084	0.295278
H365	H	-0.270630	-0.219964	0.284604
H366	H	-0.272082	-0.139157	0.347118
H367	H	-0.242660	-0.166079	0.336395
H368	H	0.216503	-0.603862	0.013862
H369	H	0.248816	-0.533739	0.019126
O370	O	0.530161	-0.245803	0.019355
C371	C	0.470554	-0.248335	0.023849
C372	C	0.491899	-0.269590	0.022257
H373	H	0.439613	-0.267555	0.026204
H374	H	0.485145	-0.240626	-0.003305
H375	H	0.471098	-0.221074	0.049856
H376	H	0.491362	-0.296864	-0.003732
H377	H	0.477301	-0.277270	0.049429
O378	O	0.023268	0.311062	0.417495
C379	C	0.027497	0.311831	0.471984
C380	C	0.048084	0.311266	0.430222
H381	H	0.047554	0.312005	0.482290
H382	H	0.000816	0.285326	0.473754
H383	H	0.018886	0.338611	0.490836
H384	H	0.056721	0.284504	0.411345
H385	H	0.074748	0.337789	0.428483
O386	O	0.210413	-0.322551	-0.111199
C387	C	0.156155	-0.380709	-0.115397
C388	C	0.197175	-0.359290	-0.136572
H389	H	0.145443	-0.410419	-0.135900
H390	H	0.136556	-0.364041	-0.104355
H391	H	0.156111	-0.383531	-0.090248
H392	H	0.197257	-0.356463	-0.161737
H393	H	0.216757	-0.375966	-0.147586
H394	H	-0.253536	-0.409058	-0.308762
H395	H	-0.296383	0.168038	0.398275
O396	O	0.245855	0.262886	-0.360493
C397	C	0.220965	0.226726	-0.319464
C398	C	0.242388	0.228344	-0.360473
H399	H	0.218163	0.198805	-0.319433
H400	H	0.191247	0.228238	-0.308705
H401	H	0.237651	0.251956	-0.299886
H402	H	0.225735	0.203119	-0.380080
H403	H	0.272108	0.226850	-0.371201
H404	H	-0.301564	-0.186520	0.184149
O405	O	0.357612	-0.530410	0.019358
C406	C	0.410191	-0.470805	0.023850
C407	C	0.369183	-0.492149	0.022259
H408	H	0.419556	-0.439865	0.026204
H409	H	0.430470	-0.485389	-0.003304
H410	H	0.410895	-0.471354	0.049857
H411	H	0.368442	-0.491606	-0.003732
H412	H	0.348922	-0.477558	0.049430
H413	H	0.083853	-0.186524	-0.019050
H414	H	0.116252	0.295953	0.501201
O415	O	0.606411	-0.210359	0.013712
C416	C	0.641279	-0.145161	0.043325
C417	C	0.620089	-0.186175	0.044901
H418	H	0.652350	-0.125598	0.068533
H419	H	0.620794	-0.134391	0.044882
H420	H	0.666405	-0.145137	0.015373
H421	H	0.594963	-0.186230	0.072848
H422	H	0.640599	-0.196928	0.043322
O423	O	0.224581	0.171623	0.395970
C424	C	0.277176	0.231216	0.398518
C425	C	0.236170	0.209868	0.419787
H426	H	0.286561	0.262139	0.417768
H427	H	0.277919	0.230716	0.371262
H428	H	0.297418	0.216588	0.390787
H429	H	0.215904	0.224480	0.427544
H430	H	0.235458	0.210365	0.447027
O431	O	0.023406	-0.023383	0.417479
C432	C	-0.034556	-0.027622	0.471970
C433	C	-0.013936	-0.048200	0.430208
H434	H	-0.064748	-0.047680	0.482277
H435	H	-0.036150	-0.000942	0.473737
H436	H	-0.018022	-0.019015	0.490822
H437	H	-0.030454	-0.056833	0.411331
H438	H	-0.012338	-0.074863	0.428471
H439	H	-0.098166	-0.083585	-0.019047
H440	H	-0.301600	-0.083594	0.184385
H441	H	0.083715	0.301222	0.468882
O442	O	-0.311454	-0.023526	0.417504
C443	C	-0.312225	0.034425	0.471992
C444	C	-0.311660	0.013814	0.430234
H445	H	-0.312400	0.064615	0.482300
H446	H	-0.285718	0.036016	0.473754
H447	H	-0.339007	0.017887	0.490848
H448	H	-0.284896	0.030334	0.411353
H449	H	-0.338185	0.012219	0.428503
O450	O	0.322543	-0.210381	0.013651
C451	C	0.380702	-0.156124	0.013946
C452	C	0.359280	-0.197136	0.015526
H453	H	0.410411	-0.145406	0.015453
H454	H	0.364029	-0.136526	0.039175
H455	H	0.383533	-0.156090	-0.013990
H456	H	0.356444	-0.197207	0.043445
H457	H	0.375963	-0.216717	-0.009723
H458	H	-0.168411	-0.116385	0.501200
O459	O	-0.095253	0.301532	0.472258
C460	C	-0.074642	0.335308	0.527280
C461	C	-0.095968	0.333685	0.505987
H462	H	-0.075220	0.361297	0.554558
H463	H	-0.043691	0.337655	0.508078
H464	H	-0.089251	0.308152	0.534980
H465	H	-0.081391	0.360834	0.498285
H466	H	-0.126919	0.331318	0.525201
H467	H	0.409159	-0.306179	-0.308785
H468	H	0.351754	-0.248783	0.019127
H469	H	0.306499	-0.408838	-0.308786
H470	H	0.603611	-0.318952	0.013871
H471	H	0.219072	0.296019	0.114235
O472	O	-0.253411	-0.412050	-0.417420
C473	C	-0.252667	-0.470014	-0.471894
C474	C	-0.253262	-0.449408	-0.430126
H475	H	-0.252554	-0.500224	-0.482176
H476	H	-0.225873	-0.453518	-0.490779
H477	H	-0.279163	-0.471562	-0.473638
H478	H	-0.226785	-0.447855	-0.428345
H479	H	-0.280074	-0.465912	-0.411259
H480	H	-0.268610	-0.216239	-0.114141
H481	H	0.533487	-0.351497	0.019133
H482	H	-0.301632	0.097921	0.365946
O483	O	0.224850	0.295738	0.395124
C484	C	0.279139	0.296082	0.336965
C485	C	0.238128	0.297680	0.358401
H486	H	0.289889	0.297659	0.307273
H487	H	0.279200	0.268142	0.334087
H488	H	0.298699	0.321290	0.353679
H489	H	0.218544	0.272491	0.341705
H490	H	0.238097	0.325635	0.361283
O491	O	-0.301896	-0.077745	0.472284
C492	C	-0.301594	-0.023346	0.530343
C493	C	-0.299978	-0.064347	0.509038
H494	H	-0.300036	-0.012499	0.560060
H495	H	-0.329534	-0.023341	0.533158
H496	H	-0.276380	-0.003834	0.513571
H497	H	-0.325172	-0.083883	0.525792
H498	H	-0.272023	-0.064322	0.506219
O499	O	0.189599	0.301483	0.187360
C500	C	0.247659	0.301210	0.183408
C501	C	0.226374	0.299622	0.162097
H502	H	0.277399	0.299714	0.162995
H503	H	0.230931	0.275985	0.194457
H504	H	0.250413	0.329136	0.208564
H505	H	0.223615	0.271712	0.136926
H506	H	0.243111	0.324866	0.151076
H507	H	0.026432	-0.128933	0.308830
O508	O	0.112815	-0.224939	0.111149
C509	C	0.087951	-0.265961	0.058836
C510	C	0.109356	-0.224962	0.080044
H511	H	0.085155	-0.265995	0.033678
H512	H	0.058231	-0.276718	0.079313
H513	H	0.104647	-0.285531	0.047801
H514	H	0.092691	-0.205363	0.091081
H515	H	0.139077	-0.214237	0.059553
H516	H	0.319434	-0.603629	0.013881
O517	O	0.606528	0.268589	-0.395155
C518	C	0.641406	0.238980	-0.394447
C519	C	0.620223	0.237411	-0.415849
H520	H	0.652491	0.213781	-0.411172
H521	H	0.620912	0.237418	-0.364742
H522	H	0.666522	0.266926	-0.391592
H523	H	0.595107	0.209470	-0.418732
H524	H	0.640741	0.238995	-0.445540
H525	H	0.083540	-0.186567	0.184354
H526	H	-0.098500	0.301242	0.366438
O527	O	0.189659	-0.077728	-0.019276
C528	C	0.247718	-0.023345	-0.019004
C529	C	0.226427	-0.064353	-0.017413
H530	H	0.277451	-0.012521	-0.017507
H531	H	0.230986	-0.003799	0.006225
H532	H	0.250486	-0.023366	-0.046940
H533	H	0.223654	-0.064368	0.010507
H534	H	0.243168	-0.083880	-0.042662
H535	H	-0.296305	-0.115904	0.114243
H536	H	-0.296397	-0.115915	0.501730
O537	O	-0.296110	-0.224697	0.395992
C538	C	-0.291662	-0.277294	0.398539
C539	C	-0.293278	-0.236293	0.419808
H540	H	-0.289380	-0.286685	0.417789
H541	H	-0.265641	-0.278029	0.371283
H542	H	-0.318800	-0.297533	0.390808
H543	H	-0.266159	-0.216030	0.427566
H544	H	-0.319316	-0.235589	0.447048
H545	H	-0.168285	-0.115902	-0.013784
H546	H	0.186465	0.301244	0.365919
H547	H	-0.263319	-0.248772	-0.184281
O548	O	-0.296071	-0.224701	0.110910
C549	C	-0.291563	-0.277282	0.051289
C550	C	-0.293159	-0.236273	0.072638
H551	H	-0.289200	-0.286648	0.020340
H552	H	-0.318714	-0.297553	0.065877
H553	H	-0.265564	-0.277993	0.051840
H554	H	-0.319141	-0.235525	0.072093
H555	H	-0.265990	-0.216020	0.058043
H556	H	-0.301647	0.098143	0.468907
H557	H	-0.263280	-0.248770	-0.365838
H558	H	0.248874	0.263159	-0.184050
H559	H	-0.311368	-0.026523	0.308862
O560	O	0.023310	0.311113	0.305864
C561	C	0.027553	0.311852	0.247892
C562	C	0.048116	0.311257	0.268494
H563	H	0.047596	0.311960	0.217672
H564	H	0.018967	0.338645	0.264398
H565	H	0.000856	0.285360	0.246348
H566	H	0.074825	0.337730	0.270043
H567	H	0.056672	0.284446	0.251981
O568	O	0.224962	-0.112904	-0.013557
C569	C	0.277696	-0.115216	-0.009122
C570	C	0.236691	-0.136607	-0.010719
H571	H	0.287195	-0.134374	-0.006835
H572	H	0.278374	-0.087963	0.016894
H573	H	0.297889	-0.107482	-0.036274
H574	H	0.216474	-0.144368	0.016414
H575	H	0.236045	-0.163844	-0.036753
H576	H	0.216507	-0.318965	0.013839
O577	O	0.210672	0.268628	-0.110812
C578	C	0.158075	0.273117	-0.051191
C579	C	0.199089	0.271526	-0.072541
H580	H	0.148700	0.275469	-0.020243
H581	H	0.137807	0.245972	-0.065780
H582	H	0.157365	0.299118	-0.051740
H583	H	0.199836	0.245542	-0.071999
H584	H	0.219338	0.298689	-0.057945
H585	H	-0.098025	-0.186563	0.365914
O586	O	0.245850	-0.357617	-0.187417
C587	C	0.248417	-0.410213	-0.247027
C588	C	0.269672	-0.369212	-0.225672
H589	H	0.267671	-0.419604	-0.277957
H590	H	0.221168	-0.410949	-0.246528
H591	H	0.240683	-0.430453	-0.232393
H592	H	0.277432	-0.348949	-0.240289
H593	H	0.296904	-0.368507	-0.226168
H594	H	-0.168430	0.295972	0.501728
H595	H	0.128850	0.311006	0.308848
H596	H	-0.168633	0.295975	0.398993
O597	O	0.077937	0.301500	0.187128
C598	C	0.023667	0.301170	0.182923
C599	C	0.064677	0.299569	0.161740
H600	H	0.012930	0.299601	0.162405
H601	H	0.023601	0.329106	0.208057
H602	H	0.004097	0.275957	0.193987
H603	H	0.084269	0.324761	0.150651
H604	H	0.064712	0.271617	0.136626
H605	H	0.083849	0.098152	-0.019040
H606	H	0.116351	0.296004	0.114008
O607	O	0.300278	0.253310	-0.305762
C608	C	0.245802	0.252587	-0.247782
C609	C	0.287564	0.253169	-0.268391
H610	H	0.235513	0.252481	-0.217562
H611	H	0.226927	0.225797	-0.264282
H612	H	0.244060	0.279082	-0.246239
H613	H	0.289343	0.226693	-0.269940
H614	H	0.306421	0.279977	-0.251884
O615	O	0.411945	0.253372	-0.417395
C616	C	0.469920	0.252646	-0.471874
C617	C	0.449291	0.253176	-0.430123
H618	H	0.500115	0.252480	-0.482180
H619	H	0.471507	0.279161	-0.473619
H620	H	0.453397	0.225876	-0.490741
H621	H	0.465797	0.279929	-0.411231
H622	H	0.447699	0.226644	-0.428408
H623	H	-0.268532	-0.216230	-0.398164
O624	O	0.300175	-0.412036	0.029023
C625	C	0.235110	-0.443227	0.062781
C626	C	0.276869	-0.422619	0.062189
H627	H	0.216255	-0.451782	0.089597
H628	H	0.233342	-0.469935	0.036294
H629	H	0.224816	-0.423193	0.062899
H630	H	0.287190	-0.442622	0.062084
H631	H	0.278614	-0.395906	0.088673
O632	O	0.189583	-0.077991	0.187101
C633	C	0.247723	-0.023713	0.182887
C634	C	0.226304	-0.064722	0.161710
H635	H	0.277413	-0.012970	0.162365
H636	H	0.250591	-0.023645	0.208022
H637	H	0.231007	-0.004153	0.193948
H638	H	0.243002	-0.084306	0.150624
H639	H	0.223433	-0.064760	0.136594
O640	O	0.224664	-0.113399	0.110880
C641	C	0.277242	-0.115909	0.051244
C642	C	0.236244	-0.137181	0.072604
H643	H	0.286613	-0.135124	0.020293
H644	H	0.297529	-0.108183	0.065817
H645	H	0.277924	-0.088656	0.051805
H646	H	0.235524	-0.164446	0.072049
H647	H	0.215974	-0.144877	0.058024
O648	O	0.411899	0.253308	-0.305877
C649	C	0.469867	0.252594	-0.310103
C650	C	0.449269	0.253176	-0.330678
H651	H	0.500087	0.252495	-0.330143
H652	H	0.453373	0.225800	-0.301521
H653	H	0.471397	0.279085	-0.283398
H654	H	0.447734	0.226703	-0.357397
H655	H	0.465770	0.279987	-0.339232
H656	H	0.248886	-0.533284	-0.365862
H657	H	-0.168152	-0.219101	0.398241
H658	H	0.319472	0.268395	-0.114147
H659	H	-0.263263	-0.351489	-0.468803
H660	H	0.351560	-0.248838	-0.184080
H661	H	0.351806	0.263135	-0.184284
H662	H	-0.263337	-0.351496	-0.184056
H663	H	0.216355	-0.603401	-0.398188
O664	O	-0.095312	-0.077975	0.471980
C665	C	-0.099523	-0.023717	0.530154
C666	C	-0.120688	-0.064730	0.508729
H667	H	-0.120028	-0.012998	0.559872
H668	H	-0.088479	-0.004120	0.513482
H669	H	-0.074383	-0.023681	0.532976
H670	H	-0.145844	-0.064803	0.505901
H671	H	-0.131704	-0.084310	0.525409
O672	O	0.530373	0.262917	-0.359990
C673	C	0.534318	0.263224	-0.305581
C674	C	0.555643	0.264841	-0.346590
H675	H	0.554741	0.264787	-0.294731
H676	H	0.509188	0.235285	-0.305579
H677	H	0.523242	0.288433	-0.286060
H678	H	0.566744	0.239652	-0.366135
H679	H	0.580754	0.292796	-0.346562
H680	H	-0.168514	-0.218838	-0.013779
H681	H	0.319099	-0.603635	-0.501149
O682	O	-0.263005	-0.530507	-0.472194
C683	C	-0.263309	-0.534466	-0.530251
C684	C	-0.264924	-0.555779	-0.508948
H685	H	-0.264868	-0.554891	-0.559967
H686	H	-0.235371	-0.509335	-0.533064
H687	H	-0.288524	-0.523396	-0.513477
H688	H	-0.239728	-0.566873	-0.525704
H689	H	-0.292878	-0.580891	-0.506130
H690	H	0.603758	0.268453	-0.501125
H691	H	0.083459	0.098172	0.469160
O692	O	0.189529	0.095426	0.360546
C693	C	0.247704	0.099620	0.306274
C694	C	0.226272	0.120791	0.347297
H695	H	0.277418	0.120115	0.295553
H696	H	0.231044	0.088580	0.286669
H697	H	0.250523	0.074478	0.306240
H698	H	0.223448	0.145948	0.347368
H699	H	0.242941	0.131802	0.366884
O700	O	-0.268784	-0.606707	-0.507483
C701	C	-0.304962	-0.658978	-0.548495
C702	C	-0.303357	-0.637762	-0.507486
H703	H	-0.332916	-0.684085	-0.548510
H704	H	-0.279762	-0.670062	-0.568094
H705	H	-0.303406	-0.638472	-0.559239
H706	H	-0.304925	-0.658244	-0.496707
H707	H	-0.328555	-0.626671	-0.487912
H708	H	0.533625	0.263187	-0.468800
O709	O	-0.268787	-0.606959	-0.395910
C710	C	-0.273235	-0.666553	-0.398460
C711	C	-0.271619	-0.645203	-0.419727
H712	H	-0.275517	-0.697475	-0.417711
H713	H	-0.299256	-0.666054	-0.371204
H714	H	-0.246098	-0.651925	-0.390729
H715	H	-0.298737	-0.659816	-0.427486
H716	H	-0.245580	-0.645700	-0.446967
O717	O	0.412072	-0.411831	-0.417442
C718	C	0.407822	-0.469755	-0.471954
C719	C	0.387252	-0.449164	-0.430176
H720	H	0.387761	-0.499939	-0.482265
H721	H	0.434513	-0.471359	-0.473758
H722	H	0.416414	-0.453196	-0.490780
H723	H	0.378633	-0.465707	-0.411325
H724	H	0.360577	-0.447556	-0.428402
H725	H	-0.263281	-0.533730	-0.366350
O726	O	0.357501	-0.530544	-0.471931
C727	C	0.411771	-0.534738	-0.530109
C728	C	0.370755	-0.555909	-0.508681
H729	H	0.422496	-0.555235	-0.559828
H730	H	0.431367	-0.523697	-0.513440
H731	H	0.411804	-0.509598	-0.532930
H732	H	0.370684	-0.581065	-0.505854
H733	H	0.351176	-0.566923	-0.525359
H734	H	-0.268616	-0.318955	-0.113914
H735	H	0.351886	0.263187	-0.469074
O736	O	0.411811	-0.411954	0.028971
C737	C	0.469747	-0.407704	0.029771
C738	C	0.449147	-0.387134	0.029183
H739	H	0.499934	-0.387643	0.029951
H740	H	0.471353	-0.434388	0.003264
H741	H	0.453191	-0.416302	0.056563
H742	H	0.465686	-0.378510	0.002408
H743	H	0.447537	-0.360467	0.055708
H744	H	0.533652	-0.351777	-0.469116
O745	O	0.189669	0.094927	-0.019300
C746	C	0.247714	0.098885	-0.018990
C747	C	0.226413	0.120199	-0.017374
H748	H	0.277423	0.119310	-0.017425
H749	H	0.250533	0.073755	-0.046937
H750	H	0.230941	0.087813	0.006226
H751	H	0.243168	0.131295	-0.042570
H752	H	0.223590	0.145310	0.010589
O753	O	0.322696	0.268701	-0.507468
C754	C	0.380863	0.268392	-0.561747
C755	C	0.359417	0.266770	-0.520739
H756	H	0.410553	0.266824	-0.572493
H757	H	0.383732	0.296335	-0.561792
H758	H	0.364167	0.243189	-0.581328
H759	H	0.376095	0.291955	-0.501136
H760	H	0.356544	0.238812	-0.520726
O761	O	0.606758	-0.322579	-0.507517
C762	C	0.602568	-0.380729	-0.561798
C763	C	0.581379	-0.359295	-0.520787
H764	H	0.582056	-0.410414	-0.572542
H765	H	0.627690	-0.383599	-0.561850
H766	H	0.613642	-0.364025	-0.581375
H767	H	0.570281	-0.375980	-0.501186
H768	H	0.556276	-0.356420	-0.520766
O769	O	0.210763	0.268701	-0.395880
C770	C	0.158167	0.273154	-0.398425
C771	C	0.199174	0.271544	-0.419695
H772	H	0.148781	0.275445	-0.417673
H773	H	0.157424	0.299166	-0.371167
H774	H	0.137925	0.246013	-0.390696
H775	H	0.219439	0.298666	-0.427450
H776	H	0.199885	0.245515	-0.446936
O777	O	-0.095325	-0.189585	-0.019338
C778	C	-0.043016	-0.214463	-0.055500
C779	C	-0.064218	-0.193052	-0.053888
H780	H	-0.017857	-0.217266	-0.083428
H781	H	-0.063488	-0.244178	-0.053988
H782	H	-0.031992	-0.197771	-0.030262
H783	H	-0.075244	-0.209713	-0.079122
H784	H	-0.043731	-0.163336	-0.055382
O785	O	0.607051	-0.210651	-0.395939
C786	C	0.642026	-0.145517	-0.395414
C787	C	0.620692	-0.186528	-0.416675
H788	H	0.653054	-0.126001	-0.412166
H789	H	0.667184	-0.145502	-0.392639
H790	H	0.621608	-0.134684	-0.365679
H791	H	0.641080	-0.197386	-0.446420
H792	H	0.595529	-0.186520	-0.419419
O793	O	0.023364	-0.135130	-0.028843
C794	C	0.000817	-0.179006	0.003411
C795	C	0.021401	-0.137257	0.003971
H796	H	-0.000784	-0.180739	0.029943
H797	H	0.017345	-0.197880	-0.023361
H798	H	-0.029375	-0.189303	0.003249
H799	H	0.051593	-0.126925	0.004148
H800	H	0.004844	-0.118409	0.030741
O801	O	0.023408	-0.023535	-0.028919
C802	C	0.027685	0.034375	-0.029797
C803	C	0.048234	0.013795	-0.029149
H804	H	0.047751	0.064557	-0.029991
H805	H	0.000982	0.035985	-0.003305
H806	H	0.019116	0.017805	-0.056603
H807	H	0.056829	0.030348	-0.002361
H808	H	0.074921	0.012181	-0.055659
H809	H	0.128946	-0.026522	-0.028815
H810	H	0.533848	-0.248839	-0.366371
O811	O	0.411704	-0.300449	0.028955
C812	C	0.407450	-0.245977	0.029733
C813	C	0.386879	-0.287727	0.029167
H814	H	0.387385	-0.235675	0.029913
H815	H	0.434134	-0.244206	0.003218
H816	H	0.416053	-0.227130	0.056517
H817	H	0.378249	-0.306599	0.002400
H818	H	0.360211	-0.289467	0.055700
O819	O	0.322001	-0.210634	-0.110896
C820	C	0.322504	-0.145507	-0.075879
C821	C	0.301239	-0.186521	-0.097203
H822	H	0.305723	-0.126001	-0.064795
H823	H	0.352228	-0.134634	-0.096284
H824	H	0.325291	-0.145529	-0.050745
H825	H	0.298424	-0.186531	-0.122336
H826	H	0.271528	-0.197376	-0.076772
O827	O	-0.311514	-0.135172	0.305925
C828	C	-0.345220	-0.200226	0.274687
C829	C	-0.344629	-0.158465	0.295270
H830	H	-0.371987	-0.219069	0.266059
H831	H	-0.345395	-0.210554	0.294730
H832	H	-0.318698	-0.201964	0.248008
H833	H	-0.371146	-0.156694	0.321948
H834	H	-0.344435	-0.148156	0.275201
O835	O	0.224969	0.171125	-0.013574
C836	C	0.277681	0.230622	-0.009079
C837	C	0.236672	0.209414	-0.010665
H838	H	0.287153	0.261585	-0.006719
H839	H	0.297911	0.215980	-0.036237
H840	H	0.278329	0.230007	0.016923
H841	H	0.235987	0.210023	-0.036650
H842	H	0.216460	0.224063	0.016511
O843	O	0.113406	0.171345	-0.013592
C844	C	0.112885	0.206320	-0.043232
C845	C	0.134142	0.184981	-0.044818
H846	H	0.129637	0.217343	-0.068480
H847	H	0.110104	0.231478	-0.015308
H848	H	0.083158	0.185909	-0.044747
H849	H	0.163880	0.205361	-0.043319
H850	H	0.136892	0.159817	-0.072741
