data_functionalizedCrystal
_audit_creation_method	'MofGen! by Chris Wilmer'
_symmetry_space_group_name_H-M	'P1'
_symmetry_Int_Tables_number	1
_symmetry_cell_setting	triclinic
loop_
_symmetry_equiv_pos_as_xyz
  x,y,z
_cell_length_a	10.489741
_cell_length_b	11.792241
_cell_length_c	10.868271
_cell_angle_alpha	89.994719
_cell_angle_beta	89.998385
_cell_angle_gamma	84.366295
loop_
_atom_site_label
_atom_site_type_symbol
_atom_site_fract_x
_atom_site_fract_y
_atom_site_fract_z
O1	O	1.693508	0.160137	-0.102247
O2	O	1.322261	0.175169	-0.102266
O3	O	1.516893	0.002507	-0.102247
O4	O	1.498875	0.332799	-0.102265
O5	O	1.516877	0.002500	0.102397
O6	O	1.322245	0.175162	0.102379
O7	O	1.693492	0.160130	0.102398
Zn8	Zn	1.507866	0.167645	0.134880
Zn9	Zn	1.507887	0.167654	-0.134748
O10	O	1.498859	0.332792	0.102379
C11	C	1.515753	-0.039791	0.000075
C12	C	1.512366	-0.165813	0.000073
C13	C	1.274725	0.174030	0.000054
C14	C	1.133107	0.170633	0.000047
C15	C	1.506136	-0.396542	0.000052
C16	C	1.509598	-0.268148	0.000064
C17	C	1.065341	0.060774	0.000065
C18	C	0.973046	0.112674	-0.100836
C19	C	0.973064	0.112693	0.100927
C20	C	1.042676	0.222579	-0.100937
C21	C	1.042704	0.222583	0.100917
C22	C	0.950436	0.274563	-0.000008
C23	C	1.741027	0.161269	0.000075
C24	C	1.882645	0.164666	0.000074
C25	C	1.499999	0.375090	0.000055
C26	C	1.503387	0.501113	0.000048
N27	N	1.507860	0.167638	0.318894
N28	N	1.507902	0.167652	-0.318762
C29	C	1.507880	0.167652	0.569900
C30	C	1.507865	0.167648	0.430223
H31	H	0.942196	0.066193	-0.186137
O32	O	1.131488	-0.058883	-0.000073
H33	H	1.236832	-0.055339	0.000782
H34	H	1.073353	0.269029	-0.186337
O35	O	1.083628	0.284091	0.213915
H36	H	1.035752	0.372312	0.214692
O37	O	0.884566	0.394319	-0.000063
H38	H	0.912456	0.439639	-0.083898
H39	H	0.942237	0.066186	0.186231
