data_functionalizedCrystal
_audit_creation_method	'MofGen! by Chris Wilmer'
_symmetry_space_group_name_H-M	'P1'
_symmetry_Int_Tables_number	1
_symmetry_cell_setting	triclinic
loop_
_symmetry_equiv_pos_as_xyz
  x,y,z
_cell_length_a	16.176319
_cell_length_b	10.489711
_cell_length_c	17.699103
_cell_angle_alpha	83.909034
_cell_angle_beta	90.012529
_cell_angle_gamma	90.002756
loop_
_atom_site_label
_atom_site_type_symbol
_atom_site_fract_x
_atom_site_fract_y
_atom_site_fract_z
O1	O	0.068787	1.692100	0.106676
O2	O	0.568787	2.192100	0.606676
O3	O	0.068783	1.320714	0.116722
O4	O	0.568783	1.820714	0.616722
O5	O	0.068769	1.516886	0.001579
O6	O	0.568769	2.016886	0.501579
O7	O	0.068800	1.495927	0.221819
O8	O	0.568800	1.995927	0.721819
O9	O	-0.068724	1.516883	0.001568
O10	O	0.431276	2.016883	0.501568
O11	O	-0.068711	1.320710	0.116711
O12	O	0.431289	1.820710	0.616711
O13	O	-0.068707	1.692096	0.106665
O14	O	0.431293	2.192096	0.606665
Cu15	Cu	-0.081263	1.506403	0.111687
Cu16	Cu	0.418737	2.006403	0.611687
Cu17	Cu	0.081339	1.506407	0.111700
Cu18	Cu	0.581339	2.006407	0.611700
O19	O	-0.068693	1.495924	0.221808
O20	O	0.431307	1.995924	0.721808
C21	C	0.000035	1.273194	0.115963
C22	C	0.500035	1.773194	0.615963
C23	C	0.000033	1.131604	0.113707
C24	C	0.500033	1.631604	0.613707
N25	N	-0.195628	1.506409	0.111678
N26	N	0.304372	2.006409	0.611678
C27	C	0.000052	0.947939	0.182951
C28	C	0.500052	1.447939	0.682951
C29	C	0.067838	1.040725	0.148368
C30	C	0.567838	1.540725	0.648368
C31	C	-0.067720	1.040695	0.148339
C32	C	0.432280	1.540695	0.648339
C33	C	0.067891	0.972127	0.075067
C34	C	0.567891	1.472127	0.575067
C35	C	-0.067727	0.972087	0.075048
C36	C	0.432273	1.472087	0.575048
C37	C	0.000075	1.064847	0.040412
C38	C	0.500075	1.564847	0.540412
N39	N	0.195704	1.506411	0.111703
N40	N	0.695704	2.006411	0.611703
C41	C	0.238962	1.593437	0.060820
C42	C	0.738962	2.093437	0.560820
C43	C	0.325509	1.593442	0.060818
C44	C	0.825509	2.093442	0.560818
C45	C	0.368797	1.506414	0.111697
C46	C	0.868797	2.006414	0.611697
C47	C	0.325532	1.419383	0.162586
C48	C	0.825532	1.919383	0.662586
C49	C	0.238987	1.419385	0.162590
C50	C	0.738987	1.919385	0.662590
C51	C	0.674561	1.419374	0.162568
C52	C	1.174561	1.919374	0.662568
C53	C	0.761112	1.419376	0.162558
C54	C	1.261112	1.919376	0.662558
C55	C	0.761083	1.593430	0.060796
C56	C	1.261083	2.093430	0.560796
C57	C	0.674538	1.593433	0.060801
C58	C	1.174538	2.093433	0.560801
C59	C	0.631281	1.506407	0.111692
C60	C	1.131281	2.006407	0.611692
C61	C	0.537437	1.506405	0.111694
C62	C	1.037437	2.006405	0.611694
C63	C	0.462639	1.506409	0.111692
C64	C	0.962639	2.006409	0.611692
C65	C	0.000020	1.516129	-0.026628
C66	C	0.500020	2.016129	0.473372
C67	C	0.000013	1.513863	-0.110660
C68	C	0.500013	2.013863	0.389340
C69	C	0.000043	1.739616	0.107424
C70	C	0.500043	2.239616	0.607424
C71	C	0.000050	1.881206	0.109680
C72	C	0.500050	2.381206	0.609680
C73	C	0.075015	1.500006	-0.626456
C74	C	0.575015	2.000006	-0.126456
C75	C	0.075007	1.502133	-0.547499
C76	C	0.575007	2.002133	-0.047499
C77	C	0.000055	1.503192	-0.508039
C78	C	0.500055	2.003192	-0.008039
C79	C	-0.074895	1.502137	-0.547542
C80	C	0.425105	2.002137	-0.047542
C81	C	-0.074887	1.500019	-0.626498
C82	C	0.425113	2.000019	-0.126498
C83	C	-0.074930	1.510681	-0.229120
C84	C	0.425070	2.010681	0.270880
C85	C	-0.074932	1.512795	-0.150158
C86	C	0.425068	2.012795	0.349842
C87	C	0.074965	1.512795	-0.150121
C88	C	0.574965	2.012795	0.349879
C89	C	0.074973	1.510677	-0.229077
C90	C	0.574973	2.010677	0.270923
C91	C	0.000023	1.509628	-0.268573
C92	C	0.500023	2.009628	0.231427
C93	C	0.000032	1.507324	-0.354188
C94	C	0.500032	2.007324	0.145812
C95	C	0.000045	1.505487	-0.422426
C96	C	0.500045	2.005487	0.077574
C97	C	0.000058	1.496681	0.250015
C98	C	0.500058	1.996681	0.750015
C99	C	0.000070	1.498947	0.334047
C100	C	0.500070	1.998947	0.834047
H101	H	0.000128	0.897137	0.243174
H102	H	0.500128	1.397137	0.743174
H103	H	0.203723	1.664300	0.019386
H104	H	0.703723	2.164300	0.519386
H105	H	0.360782	1.348527	0.204016
H106	H	0.860782	1.848527	0.704016
H107	H	-0.135971	1.513651	-0.118032
H108	H	0.364029	2.013651	0.381968
O109	O	0.147798	1.513593	-0.111776
O110	O	0.647798	2.013593	0.388224
C111	C	0.193393	1.402663	-0.123109
C112	C	0.693393	1.902663	0.376891
H113	H	0.149531	1.324908	-0.139248
H114	H	0.649531	1.824908	0.360752
H115	H	0.227394	1.366987	-0.068504
H116	H	0.727394	1.866987	0.431496
H117	H	0.240124	1.426392	-0.170736
H118	H	0.740124	1.926392	0.329264
O119	O	0.632398	1.678024	0.011482
O120	O	1.132398	2.178024	0.511482
C121	C	0.582369	1.756457	0.052569
C122	C	1.082369	2.256457	0.552569
H123	H	0.569422	1.705297	0.111457
H124	H	1.069422	2.205297	0.611457
H125	H	0.521500	1.776828	0.021116
H126	H	1.021500	2.276828	0.521116
H127	H	0.615728	1.850666	0.058357
H128	H	1.115728	2.350666	0.558357
H129	H	-0.135923	1.503007	-0.515408
H130	H	0.364077	2.003007	-0.015408
H131	H	0.203767	1.348521	0.204025
H132	H	0.703767	1.848521	0.704025
H133	H	0.136050	1.499131	-0.658577
H134	H	0.636050	1.999131	-0.158577
O135	O	0.136105	1.077052	0.185503
O136	O	0.636105	1.577052	0.685503
C137	C	0.135862	1.016971	0.260642
C138	C	0.635862	1.516971	0.760642
H139	H	0.069903	0.989068	0.278001
H140	H	0.569903	1.489068	0.778001
H141	H	0.161362	1.085928	0.300516
H142	H	0.661362	1.585928	0.800516
H143	H	0.176125	0.927339	0.264168
H144	H	0.676125	1.427339	0.764168
H145	H	-0.135958	1.509829	-0.261269
H146	H	0.364042	2.009829	0.238731
H147	H	0.125265	0.941892	0.044098
H148	H	0.625265	1.441892	0.544098
O149	O	0.000250	1.125138	-0.031509
O150	O	0.500250	1.625138	0.468491
C151	C	0.071804	1.090160	-0.069844
C152	C	0.571804	1.590160	0.430156
H153	H	0.121543	1.056741	-0.026574
H154	H	0.621543	1.556741	0.473426
H155	H	0.095455	1.176387	-0.108417
H156	H	0.595455	1.676387	0.391583
H157	H	0.056274	1.009073	-0.105539
H158	H	0.556274	1.509073	0.394461
H159	H	-0.135915	1.499156	-0.658655
H160	H	0.364085	1.999156	-0.158655
O161	O	0.632677	1.334716	0.212028
O162	O	1.132677	1.834716	0.712028
C163	C	0.689445	1.257927	0.256943
C164	C	1.189445	1.757927	0.756943
H165	H	0.751124	1.256676	0.225887
H166	H	1.251124	1.756676	0.725887
H167	H	0.664439	1.156022	0.267801
H168	H	1.164439	1.656022	0.767801
H169	H	0.698675	1.298985	0.313459
H170	H	1.198675	1.798985	0.813459
O171	O	-0.136190	0.935781	0.038197
O172	O	0.363810	1.435781	0.538197
C173	C	-0.207524	0.970336	0.077005
C174	C	0.292476	1.470336	0.577005
H175	H	-0.191274	0.980375	0.138771
H176	H	0.308726	1.480375	0.638771
H177	H	-0.256716	0.893014	0.074717
H178	H	0.243284	1.393014	0.574717
H179	H	-0.232264	1.065558	0.048909
H180	H	0.267736	1.565558	0.548909
O181	O	0.803253	1.335014	0.212022
O182	O	1.303253	1.835014	0.712022
C183	C	0.853318	1.403025	0.259193
C184	C	1.353318	1.903025	0.759193
H185	H	0.866275	1.502989	0.229718
H186	H	1.366275	2.002989	0.729718
H187	H	0.914180	1.349731	0.270801
H188	H	1.414180	1.849731	0.770801
H189	H	0.819985	1.411350	0.315203
H190	H	1.319985	1.911350	0.815203
H191	H	0.136034	1.502998	-0.515344
H192	H	0.636034	2.002998	-0.015344
O193	O	-0.136066	1.076768	0.185430
O194	O	0.363934	1.576768	0.685430
C195	C	-0.135783	1.016664	0.260563
C196	C	0.364217	1.516664	0.760563
H197	H	-0.096093	0.926459	0.263688
H198	H	0.403907	1.426459	0.763688
H199	H	-0.201708	0.989704	0.278550
H200	H	0.298292	1.489704	0.778550
H201	H	-0.109320	1.085227	0.300204
H202	H	0.390680	1.585227	0.800204
H203	H	0.360730	1.664306	0.019386
H204	H	0.860730	2.164306	0.519386
H205	H	0.136007	1.509808	-0.261200
H206	H	0.636007	2.009808	0.238800
O207	O	0.803177	1.677781	0.011303
O208	O	1.303177	2.177781	0.511303
C209	C	0.853182	1.609739	-0.035878
C210	C	1.353182	2.109739	0.464122
H211	H	0.866174	1.509797	-0.006385
H212	H	1.366174	2.009797	0.493615
H213	H	0.914031	1.663040	-0.047541
H214	H	1.414031	2.163040	0.452459
H215	H	0.819780	1.601360	-0.091861
H216	H	1.319780	2.101360	0.408139
