data_functionalizedCrystal
_audit_creation_method	'MofGen! by Chris Wilmer'
_symmetry_space_group_name_H-M	'P1'
_symmetry_Int_Tables_number	1
_symmetry_cell_setting	triclinic
loop_
_symmetry_equiv_pos_as_xyz
  x,y,z
_cell_length_a	19.121102
_cell_length_b	21.295417
_cell_length_c	19.120904
_cell_angle_alpha	92.409419
_cell_angle_beta	90.088173
_cell_angle_gamma	87.583861
loop_
_atom_site_label
_atom_site_type_symbol
_atom_site_fract_x
_atom_site_fract_y
_atom_site_fract_z
Zn1	Zn	1.054819	-0.307921	-0.442038
Zn2	Zn	1.059730	-0.408895	-0.324794
Zn3	Zn	0.942589	-0.298968	-0.319823
Zn4	Zn	0.937541	-0.408472	-0.436996
O5	O	0.998670	-0.356064	-0.380912
O6	O	1.153575	-0.325240	-0.430676
O7	O	1.048358	-0.390743	-0.226029
O8	O	0.957533	-0.212069	-0.336065
O9	O	1.157183	-0.399425	-0.344537
O10	O	1.039988	-0.218647	-0.425856
O11	O	0.962295	-0.309980	-0.222377
O12	O	0.843814	-0.309570	-0.331175
O13	O	0.948931	-0.398704	-0.535769
O14	O	0.840106	-0.390022	-0.417262
O15	O	1.035094	-0.324829	-0.539474
O16	O	1.043464	-0.496925	-0.339648
O17	O	0.953692	-0.496614	-0.422082
C18	C	0.816522	-0.348779	-0.373133
C19	C	0.738598	-0.345678	-0.369821
C20	C	0.998582	-0.519611	-0.380873
C21	C	0.998607	-0.589580	-0.380883
C22	C	0.700080	-0.386167	-0.413015
C23	C	0.626862	-0.383245	-0.409907
C24	C	0.592163	-0.339837	-0.363600
C25	C	0.630687	-0.299344	-0.320404
C26	C	0.703903	-0.302263	-0.323516
C27	C	0.371192	-0.328921	-0.351968
C28	C	0.297970	-0.326007	-0.348857
C29	C	0.294150	-0.409907	-0.438361
C30	C	0.367368	-0.412825	-0.441467
C31	C	0.405885	-0.372330	-0.398273
C32	C	0.517323	-0.336851	-0.360421
C33	C	0.480724	-0.375313	-0.401457
C34	C	1.041515	-0.625815	-0.427668
C35	C	1.041539	-0.691559	-0.427686
C36	C	0.998663	-0.721066	-0.380907
C37	C	0.955747	-0.684823	-0.334118
C38	C	0.955719	-0.619080	-0.334106
N39	N	0.995988	-0.821870	-0.319328
N40	N	0.996019	-0.884323	-0.319341
C41	C	0.998744	-0.919145	-0.380942
N42	N	1.001450	-0.889155	-0.442531
N43	N	1.001423	-0.826696	-0.442516
C44	C	0.998688	-0.792353	-0.380915
C45	C	1.041679	-1.026667	-0.427751
C46	C	1.041698	-1.092413	-0.427771
C47	C	0.955911	-1.085675	-0.334197
C48	C	0.955888	-1.019931	-0.334183
C49	C	0.998776	-0.990431	-0.380960
C50	C	1.181528	-0.363378	-0.388723
C51	C	1.259452	-0.366495	-0.392052
C52	C	0.990902	-0.362718	-0.563770
C53	C	0.987591	-0.365554	-0.641693
C54	C	0.998776	-0.191880	-0.380968
C55	C	0.998822	-0.121915	-0.380992
C56	C	1.030895	-0.328425	-0.680232
C57	C	1.027776	-0.331087	-0.753448
C58	C	0.981357	-0.370881	-0.788125
C59	C	0.938049	-0.408011	-0.749582
C60	C	0.941165	-0.405345	-0.676366
C61	C	0.969701	-0.380849	-1.009092
C62	C	0.966590	-0.383513	-1.082313
C63	C	1.056317	-0.306588	-1.086174
C64	C	1.059432	-0.303929	-1.012957
C65	C	1.016121	-0.341057	-0.974420
C66	C	0.978169	-0.373604	-0.862965
C67	C	1.019305	-0.338330	-0.899582
C68	C	1.006448	-0.349392	-0.198768
C69	C	1.009894	-0.346385	-0.120851
H70	H	0.728326	-0.421516	-0.450721
C71	C	0.405531	-0.460570	-0.492409
H72	H	0.372104	-0.484262	-0.517694
H73	H	0.435216	-0.488120	-0.466750
H74	H	0.432810	-0.438779	-0.524220
H75	H	0.508979	-0.410653	-0.439163
H76	H	1.068696	-0.296023	-0.652003
C77	C	1.088739	-0.731428	-0.479148
H78	H	1.082610	-0.774807	-0.472458
H79	H	1.136281	-0.722129	-0.470934
H80	H	1.076436	-0.721950	-0.525806
C81	C	0.584496	-0.427819	-0.457378
H82	H	0.615648	-0.454105	-0.485383
H83	H	0.554632	-0.403794	-0.486776
H84	H	0.557080	-0.453079	-0.429246
H85	H	0.940378	-0.406007	-0.891207
H86	H	1.063040	-0.300854	-0.784823
C87	C	1.088899	-1.132274	-0.479235
H88	H	1.082768	-1.175654	-0.472549
H89	H	1.136440	-1.122976	-0.471018
H90	H	1.076596	-1.122791	-0.525892
C91	C	0.908587	-0.717277	-0.282662
H92	H	0.914754	-0.761621	-0.289365
H93	H	0.861035	-0.705030	-0.290869
H94	H	0.920886	-0.705209	-0.236002
C95	C	0.251780	-0.454442	-0.485876
H96	H	0.203205	-0.446484	-0.477397
H97	H	0.264194	-0.496824	-0.476043
H98	H	0.261794	-0.447481	-0.533511
H99	H	0.269721	-0.290652	-0.311153
C100	C	0.413552	-0.284389	-0.304444
H101	H	0.382399	-0.258127	-0.276414
H102	H	0.440995	-0.259112	-0.332524
H103	H	0.443390	-0.308460	-0.275061
H104	H	0.602429	-0.263998	-0.282703
H105	H	1.097233	-0.271527	-0.984728
C106	C	1.103949	-0.265747	-1.128566
H107	H	1.095443	-0.273028	-1.177137
H108	H	1.151557	-0.276404	-1.118579
H109	H	1.094220	-0.222604	-1.116141
H110	H	1.076599	-1.002648	-0.465842
C111	C	0.908698	-0.980071	-0.282711
H112	H	0.883170	-1.007058	-0.254849
H113	H	0.876981	-0.954191	-0.308190
H114	H	0.936834	-0.954378	-0.253327
C115	C	0.886990	-0.451784	-0.787725
H116	H	0.891340	-0.448059	-0.836849
H117	H	0.840402	-0.440252	-0.773716
H118	H	0.897738	-0.494053	-0.776148
H119	H	0.735264	-0.269290	-0.288347
C120	C	1.088689	-0.593369	-0.479120
H121	H	1.114244	-0.624369	-0.506989
H122	H	1.120382	-0.567954	-0.453625
H123	H	1.060539	-0.567772	-0.508500
C124	C	0.908524	-0.579220	-0.282636
H125	H	0.882993	-0.606206	-0.254775
H126	H	0.876809	-0.553339	-0.308116
H127	H	0.936660	-0.553529	-0.253250
C128	C	0.908745	-1.118121	-0.282741
H129	H	0.883184	-1.087122	-0.254876
H130	H	0.936892	-1.143721	-0.253368
H131	H	0.877046	-1.143533	-0.308240
C132	C	0.915525	-0.427287	-1.120457
H133	H	0.890173	-0.449013	-1.087020
H134	H	0.941110	-0.456826	-1.150154
H135	H	0.883781	-0.403019	-1.147721
C136	C	0.922048	-0.421675	-0.966710
H137	H	0.893957	-0.445755	-0.997850
H138	H	0.892736	-0.395320	-0.936861
H139	H	0.950048	-0.449142	-0.939276
C140	C	0.893548	-0.446203	-0.633975
H141	H	0.865466	-0.470293	-0.665113
H142	H	0.864229	-0.419875	-0.604107
H143	H	0.921582	-0.473662	-0.606561
H144	H	0.489063	-0.301509	-0.322716
H145	H	1.057097	-0.305927	-0.871344
