data_functionalizedCrystal
_audit_creation_method	'MofGen! by Chris Wilmer'
_symmetry_space_group_name_H-M	'P1'
_symmetry_Int_Tables_number	1
_symmetry_cell_setting	triclinic
loop_
_symmetry_equiv_pos_as_xyz
  x,y,z
_cell_length_a	15.298068
_cell_length_b	15.297327
_cell_length_c	15.299448
_cell_angle_alpha	88.404991
_cell_angle_beta	107.391632
_cell_angle_gamma	110.796215
loop_
_atom_site_label
_atom_site_type_symbol
_atom_site_fract_x
_atom_site_fract_y
_atom_site_fract_z
Zn1	Zn	1.518475	0.036078	0.767165
Zn2	Zn	1.464489	-0.146398	0.638499
Zn3	Zn	1.326662	-0.027082	0.593980
Zn4	Zn	1.335952	-0.146316	0.767017
O5	O	1.411394	-0.070930	0.691665
O6	O	1.645381	0.038271	0.768790
O7	O	1.419724	-0.157037	0.506329
O8	O	1.370812	0.107562	0.598383
O9	O	1.605717	-0.095793	0.674260
O10	O	1.511736	0.153966	0.725622
O11	O	1.318464	-0.069377	0.473622
O12	O	1.193827	-0.069298	0.598240
O13	O	1.386645	-0.095654	0.893300
O14	O	1.200652	-0.156898	0.725370
O15	O	1.520744	0.038350	0.893409
O16	O	1.428732	-0.272653	0.674117
O17	O	1.334297	-0.272593	0.768539
C18	C	1.162478	-0.119943	0.656959
C19	C	1.055991	-0.140929	0.642136
C20	C	0.838453	0.078831	0.797641
C21	C	0.938503	0.098547	0.811573
C22	C	0.967880	0.038680	0.769215
C23	C	0.897197	-0.040906	0.712922
C24	C	0.797138	-0.060628	0.698995
C25	C	0.926565	-0.100779	0.670569
C26	C	0.855882	-0.180366	0.614276
C27	C	0.755833	-0.200083	0.600350
C28	C	0.726456	-0.140216	0.642709
C29	C	1.026624	-0.081058	0.684497
C30	C	0.985309	-0.220517	0.585850
C31	C	0.885259	-0.240233	0.571918
C32	C	1.376695	-0.305353	0.726166
C33	C	1.361944	-0.405617	0.740968
C34	C	1.517279	-0.688169	0.586236
C35	C	1.531137	-0.593967	0.572324
C36	C	1.488840	-0.546875	0.614484
C37	C	1.432683	-0.593994	0.670558
C38	C	1.418817	-0.688207	0.684465
C39	C	1.390378	-0.546913	0.712713
C40	C	1.334221	-0.594032	0.768787
C41	C	1.320359	-0.688236	0.782693
C42	C	1.362656	-0.735328	0.740533
C43	C	1.404244	-0.452700	0.698806
C44	C	1.305782	-0.452738	0.797035
C45	C	1.291925	-0.546940	0.810947
C46	C	1.661283	-0.021725	0.726507
C47	C	1.767771	-0.000757	0.741355
C48	C	1.460753	-0.021598	0.927009
C49	C	1.481787	-0.000576	1.027298
C50	C	1.446260	0.164419	0.657053
C51	C	1.461117	0.264710	0.642303
C52	C	1.362292	-0.119993	0.457235
C53	C	1.341482	-0.140725	0.356934
C54	C	1.561487	0.079072	1.074468
C55	C	1.581243	0.098833	1.168692
C56	C	1.521305	0.038946	1.215757
C57	C	1.441607	-0.040707	1.168589
C58	C	1.421844	-0.060467	1.074354
C59	C	1.381662	-0.100593	1.215644
C60	C	1.301964	-0.180246	1.168475
C61	C	1.282205	-0.200002	1.074250
C62	C	1.342144	-0.140114	1.027185
C63	C	1.401424	-0.080834	1.309879
C64	C	1.261781	-0.220372	1.309765
C65	C	1.242025	-0.240134	1.215541
H66	H	1.049346	0.054740	0.780559
Br67	Br	1.025169	-0.301776	0.528368
Br68	Br	1.689432	0.206901	1.232710
Br69	Br	0.590668	-0.166967	0.623797
H70	H	0.814523	0.127562	0.832129
Br71	Br	1.480452	-0.388765	0.622706
H72	H	1.177134	-0.304988	1.177123
Br73	Br	1.607356	-0.530023	0.496236
Br74	Br	1.180425	-0.301649	1.373629
H75	H	1.610276	0.127827	1.036137
H76	H	0.698284	-0.264893	0.554521
H77	H	1.084165	-0.016257	0.730329
H78	H	1.537394	0.055041	1.292479
Br79	Br	1.034422	0.206547	0.887973
Br80	Br	0.789323	-0.348238	0.495522
Br81	Br	1.315339	-0.166935	0.899305
H82	H	1.500125	-0.470172	0.603153
Br83	Br	1.509580	0.027265	1.373880
H84	H	1.217307	-0.264859	1.035847
H85	H	1.246201	-0.585317	0.856603
Br86	Br	1.574669	-0.752084	0.529021
Br87	Br	1.244138	-0.752184	0.858785
Br88	Br	1.248365	-0.388839	0.854246
Br89	Br	1.343337	-0.863347	0.758946
