data_functionalizedCrystal
_audit_creation_method	'MofGen! by Chris Wilmer'
_symmetry_space_group_name_H-M	'P1'
_symmetry_Int_Tables_number	1
_symmetry_cell_setting	triclinic
loop_
_symmetry_equiv_pos_as_xyz
  x,y,z
_cell_length_a	21.395364
_cell_length_b	21.395363
_cell_length_c	21.395355
_cell_angle_alpha	90.004913
_cell_angle_beta	89.974702
_cell_angle_gamma	89.981608
loop_
_atom_site_label
_atom_site_type_symbol
_atom_site_fract_x
_atom_site_fract_y
_atom_site_fract_z
Zn1	Zn	-0.957985	-0.249232	0.354333
Zn2	Zn	-0.957941	-0.353992	0.249581
Zn3	Zn	-0.853200	-0.249262	0.249569
Zn4	Zn	-0.853223	-0.354006	0.354319
O5	O	-0.905587	-0.301623	0.301950
O6	O	-1.045657	-0.263110	0.340448
O7	O	-0.944019	-0.340106	0.161901
O8	O	-0.867110	-0.161581	0.263467
O9	O	-1.045625	-0.340076	0.263487
O10	O	-0.944095	-0.161558	0.340437
O11	O	-0.867067	-0.263162	0.161892
O12	O	-0.765526	-0.263176	0.263453
O13	O	-0.867148	-0.340101	0.441999
O14	O	-0.765542	-0.340130	0.340413
O15	O	-0.944116	-0.263123	0.442009
O16	O	-0.944041	-0.441671	0.263474
O17	O	-0.867105	-0.441682	0.340425
C18	C	-0.742800	-0.301658	0.301931
C19	C	-0.673159	-0.301689	0.301937
C20	C	-0.640485	-0.261679	0.342072
C21	C	-0.575049	-0.261664	0.342074
C22	C	-0.542290	-0.301671	0.301947
C23	C	-0.574972	-0.341683	0.261804
C24	C	-0.640406	-0.341692	0.261799
C25	C	-0.438594	-0.358098	0.296921
C26	C	-0.373162	-0.358090	0.296931
C27	C	-0.340470	-0.301642	0.301958
C28	C	-0.373219	-0.245200	0.306990
C29	C	-0.438653	-0.245209	0.306985
C30	C	-0.471338	-0.301665	0.301947
C31	C	-0.236843	-0.261613	0.342097
C32	C	-0.171407	-0.261597	0.342094
C33	C	-0.171330	-0.341622	0.261828
C34	C	-0.236766	-0.341632	0.261827
C35	C	-0.269518	-0.301629	0.301965
C36	C	-0.905587	-0.464411	0.301963
C37	C	-0.905644	-0.534052	0.301989
C38	C	-0.905639	-0.301610	0.465374
C39	C	-0.905662	-0.301605	0.535015
C40	C	-0.069011	-0.301595	0.301967
C41	C	-0.138652	-0.301603	0.301966
C42	C	-0.905605	-0.138200	0.301952
C43	C	-0.905612	-0.068558	0.301952
C44	C	-0.865556	-0.035855	0.342013
C45	C	-0.865562	0.029580	0.342022
C46	C	-0.905617	0.062310	0.301959
C47	C	-0.945682	0.029599	0.261895
C48	C	-0.945679	-0.035835	0.261892
C49	C	-0.910549	0.165976	0.245515
C50	C	-0.910547	0.231409	0.245517
C51	C	-0.905629	0.264131	0.301969
C52	C	-0.900700	0.231411	0.358420
C53	C	-0.900697	0.165977	0.358417
C54	C	-0.905625	0.133262	0.301958
C55	C	-0.865577	0.367786	0.342042
C56	C	-0.865588	0.433223	0.342052
C57	C	-0.945704	0.433241	0.261919
C58	C	-0.945697	0.367805	0.261915
C59	C	-0.905630	0.335082	0.301976
C60	C	-0.905572	-0.301590	0.139163
C61	C	-0.905671	-0.301419	0.069522
C62	C	-0.945738	-0.261521	0.567734
C63	C	-0.945737	-0.261494	0.633170
C64	C	-0.905666	-0.301562	0.665883
C65	C	-0.865583	-0.341649	0.633156
C66	C	-0.865580	-0.341670	0.567722
C67	C	-0.900719	-0.357979	0.769562
C68	C	-0.900726	-0.357959	0.834995
C69	C	-0.905670	-0.301496	0.867704
C70	C	-0.910621	-0.245052	0.834972
C71	C	-0.910619	-0.245073	0.769538
C72	C	-0.905664	-0.301543	0.736836
C73	C	-0.945747	-0.261380	0.971376
C74	C	-0.945742	-0.261352	1.036813
C75	C	-0.865592	-0.341512	1.036798
C76	C	-0.865594	-0.341534	0.971362
C77	C	-0.905675	-0.301469	0.938656
H78	H	-0.465314	-0.199253	0.311080
Br79	Br	-1.000061	0.323419	0.207542
Br80	Br	-1.000145	-0.206957	1.081219
Br81	Br	-0.126879	-0.395911	0.207361
H82	H	-0.548441	-0.229080	0.374756
H83	H	-0.832961	0.341142	0.374671
H84	H	-0.832959	-0.374129	1.063433
Br85	Br	-0.811196	0.073973	0.396395
H86	H	-0.914557	0.258047	0.199552
H87	H	-0.978321	0.459889	0.229301
Br88	Br	-0.894040	0.121573	0.435028
Br89	Br	-0.917337	-0.168419	0.879354
Br90	Br	-0.328860	-0.168586	0.313815
Br91	Br	-0.917230	0.121576	0.168895
Br92	Br	-0.893930	0.275810	0.435031
Br93	Br	-0.684932	-0.207388	0.396545
H94	H	-0.465207	-0.404068	0.292827
Br95	Br	-0.684752	-0.395993	0.207322
Br96	Br	-1.000131	-0.207145	0.523349
Br97	Br	-0.917334	-0.168475	0.725117
Br98	Br	-1.000048	0.074016	0.207527
H99	H	-0.548295	-0.374256	0.229132
H100	H	-0.978380	-0.228753	0.944745
Br101	Br	-1.000046	-0.080221	0.207520
Br102	Br	-0.811227	0.477607	0.396432
Br103	Br	-0.811188	-0.080263	0.396390
Br104	Br	-0.328723	-0.434690	0.290116
Br105	Br	-0.281112	-0.395930	0.207350
H106	H	-0.832955	-0.374270	0.659796
Br107	Br	-1.000114	-0.207076	0.677585
H108	H	-0.832963	-0.374178	0.944722
Br109	Br	-0.894016	-0.434560	0.879411
H110	H	-0.896525	-0.403946	0.742936
H111	H	-0.832943	-0.374310	0.541082
H112	H	-0.144805	-0.229013	0.374776
Br113	Br	-0.281297	-0.207320	0.396565
