data_functionalizedCrystal
_audit_creation_method	'MofGen! by Chris Wilmer'
_symmetry_space_group_name_H-M	'P1'
_symmetry_Int_Tables_number	1
_symmetry_cell_setting	triclinic
loop_
_symmetry_equiv_pos_as_xyz
  x,y,z
_cell_length_a	12.759401
_cell_length_b	12.759394
_cell_length_c	12.759393
_cell_angle_alpha	89.968780
_cell_angle_beta	89.979062
_cell_angle_gamma	90.016362
loop_
_atom_site_label
_atom_site_type_symbol
_atom_site_fract_x
_atom_site_fract_y
_atom_site_fract_z
Zn1	Zn	1.606265	-0.418173	-0.594015
Zn2	Zn	2.106265	0.081827	-0.094015
Zn3	Zn	1.606156	-0.593889	-0.418333
Zn4	Zn	2.106156	-0.093889	0.081667
Zn5	Zn	1.430564	-0.418229	-0.418350
Zn6	Zn	1.930564	0.081771	0.081650
Zn7	Zn	1.430556	-0.593815	-0.593970
Zn8	Zn	1.930556	-0.093815	-0.093970
O9	O	1.518385	-0.506026	-0.506167
O10	O	2.018385	-0.006026	-0.006167
O11	O	1.753272	-0.441489	-0.570722
O12	O	2.253272	0.058511	-0.070722
O13	O	1.582821	-0.570641	-0.271314
O14	O	2.082821	-0.070641	0.228686
O15	O	1.453921	-0.271200	-0.441678
O16	O	1.953921	0.228800	0.058322
O17	O	1.753192	-0.570587	-0.441649
O18	O	2.253192	-0.070587	0.058351
O19	O	1.583008	-0.271159	-0.570739
O20	O	2.083008	0.228841	-0.070739
O21	O	1.453815	-0.441585	-0.271327
O22	O	1.953815	0.058415	0.228673
O23	O	1.283542	-0.441513	-0.441635
O24	O	1.783542	0.058487	0.058365
O25	O	1.453906	-0.570462	-0.740997
O26	O	1.953906	-0.070462	-0.240997
O27	O	1.283536	-0.570516	-0.570662
O28	O	1.783536	-0.070516	-0.070662
O29	O	1.582999	-0.441418	-0.741030
O30	O	2.082999	0.058582	-0.241030
O31	O	1.582813	-0.740900	-0.441605
O32	O	2.082813	-0.240900	0.058395
O33	O	1.453800	-0.740846	-0.570645
O34	O	1.953800	-0.240846	-0.070645
C35	C	1.245418	-0.506014	-0.506146
C36	C	1.745418	-0.006014	-0.006146
C37	C	1.128641	-0.506033	-0.506162
C38	C	1.628641	-0.006033	-0.006162
C39	C	1.518322	-0.778994	-0.506141
C40	C	2.018322	-0.278994	-0.006141
C41	C	1.518391	-0.895771	-0.506166
C42	C	2.018391	-0.395771	-0.006166
C43	C	1.073804	-0.573307	-0.573241
C44	C	1.573804	-0.073307	-0.073241
C45	C	0.964080	-0.573311	-0.573262
C46	C	1.464080	-0.073311	-0.073262
C47	C	0.964041	-0.438765	-0.439116
C48	C	1.464041	0.061235	0.060884
C49	C	1.073763	-0.438756	-0.439101
C50	C	1.573763	0.061244	0.060899
C51	C	1.652833	-0.895773	-0.371897
C52	C	2.152833	-0.395773	0.128103
C53	C	1.720082	-0.950636	-0.304775
C54	C	2.220082	-0.450636	0.195225
C55	C	1.720143	-1.060357	-0.304804
C56	C	2.220143	-0.560357	0.195196
C57	C	1.652951	-1.115219	-0.371964
C58	C	2.152951	-0.615219	0.128036
C59	C	1.585703	-1.060357	-0.439086
C60	C	2.085703	-0.560357	0.060914
C61	C	1.585647	-0.950633	-0.439048
C62	C	2.085647	-0.450633	0.060952
C63	C	1.451268	-1.060354	-0.573358
C64	C	1.951268	-0.560354	-0.073358
C65	C	1.451200	-0.950632	-0.573326
C66	C	1.951200	-0.450632	-0.073326
C67	C	1.384076	-1.115216	-0.640518
C68	C	1.884076	-0.615216	-0.140518
C69	C	1.316821	-1.060354	-0.707636
C70	C	1.816821	-0.560354	-0.207636
C71	C	1.316761	-0.950626	-0.707604
C72	C	1.816761	-0.450626	-0.207604
C73	C	1.383951	-0.895770	-0.640448
C74	C	1.883951	-0.395770	-0.140448
C75	C	1.792419	-0.506040	-0.506188
C76	C	2.292419	-0.006040	-0.006188
C77	C	1.909195	-0.506046	-0.506198
C78	C	2.409195	-0.006046	-0.006198
C79	C	1.518464	-0.505925	-0.780200
C80	C	2.018464	-0.005925	-0.280200
C81	C	1.518497	-0.505883	-0.896977
C82	C	2.018497	-0.005883	-0.396977
C83	C	1.518477	-0.231993	-0.506215
C84	C	2.018477	0.268007	-0.006215
C85	C	1.518516	-0.115216	-0.506236
C86	C	2.018516	0.384784	-0.006236
C87	C	1.585721	-0.438679	-0.951858
C88	C	2.085721	0.061321	-0.451858
C89	C	1.585739	-0.438633	-1.061582
C90	C	2.085739	0.061367	-0.561582
C91	C	1.451306	-0.573005	-1.061535
C92	C	1.951306	-0.073005	-0.561535
C93	C	1.451284	-0.573044	-0.951813
C94	C	1.951284	-0.073044	-0.451813
C95	C	1.518367	-0.506051	-0.233200
C96	C	2.018367	-0.006051	0.266800
C97	C	1.518537	-0.505798	-0.116423
C98	C	2.018537	-0.005798	0.383577
H99	H	1.118483	-0.628086	-0.627849
H100	H	1.618483	-0.128086	-0.127849
H101	H	1.396535	-0.627768	-0.907128
H102	H	1.896535	-0.127768	-0.407128
H103	H	1.384136	-1.204557	-0.640541
H104	H	1.884136	-0.704557	-0.140541
Br105	Br	1.676937	-0.347530	-0.877441
Br106	Br	2.176937	0.152470	-0.377441
H107	H	1.640478	-0.383908	-1.106261
H108	H	2.140478	0.116092	-0.606261
H109	H	0.919345	-0.383991	-0.384516
H110	H	1.419345	0.116009	0.115484
Br111	Br	0.889660	-0.664611	-0.664306
Br112	Br	1.389660	-0.164611	-0.164306
H113	H	1.118413	-0.383967	-0.384478
H114	H	1.618413	0.116033	0.115522
H115	H	1.652776	-0.806432	-0.371854
H116	H	2.152776	-0.306432	0.128146
Br117	Br	1.811274	-0.876177	-0.213642
Br118	Br	2.311274	-0.376177	0.286358
H119	H	1.774908	-1.105026	-0.250152
H120	H	2.274908	-0.605026	0.249848
H121	H	1.653017	-1.204560	-0.371990
H122	H	2.153017	-0.704560	0.128010
Br123	Br	1.225499	-0.876179	-0.798712
Br124	Br	1.725499	-0.376179	-0.298712
Br125	Br	1.384213	-0.746862	-0.640736
Br126	Br	1.884213	-0.246862	-0.140736
Br127	Br	1.225652	-1.134813	-0.798782
Br128	Br	1.725652	-0.634813	-0.298782
Br129	Br	1.360096	-0.664152	-1.135961
Br130	Br	1.860096	-0.164152	-0.635961
