data_functionalizedCrystal
_audit_creation_method	'MofGen! by Chris Wilmer'
_symmetry_space_group_name_H-M	'P1'
_symmetry_Int_Tables_number	1
_symmetry_cell_setting	triclinic
loop_
_symmetry_equiv_pos_as_xyz
  x,y,z
_cell_length_a	10.654550
_cell_length_b	10.489741
_cell_length_c	9.730223
_cell_angle_alpha	89.998920
_cell_angle_beta	89.996251
_cell_angle_gamma	84.512038
loop_
_atom_site_label
_atom_site_type_symbol
_atom_site_fract_x
_atom_site_fract_y
_atom_site_fract_z
O1	O	1.667918	0.179156	-0.114402
O2	O	1.302447	0.196226	-0.114380
O3	O	1.493499	0.002089	-0.114383
O4	O	1.476867	0.373293	-0.114399
O5	O	1.493497	0.002094	0.114196
O6	O	1.302445	0.196231	0.114200
O7	O	1.667916	0.179161	0.114178
Zn8	Zn	1.485180	0.187697	0.150481
Zn9	Zn	1.485183	0.187690	-0.150683
O10	O	1.476864	0.373298	0.114181
C11	C	1.255648	0.194975	-0.000087
C12	C	1.116203	0.191225	-0.000079
C13	C	1.036771	0.305530	-0.000103
C14	C	0.905748	0.301999	-0.000127
C15	C	0.933603	0.069849	-0.000107
C16	C	1.064623	0.073381	-0.000073
C17	C	1.088351	0.423374	-0.000109
C18	C	1.008917	0.537688	-0.000135
C19	C	0.877895	0.534157	-0.000159
C20	C	0.826306	0.416312	-0.000156
C21	C	1.492241	-0.045439	-0.000094
C22	C	1.488483	-0.187067	-0.000096
C23	C	1.366923	-0.255148	-0.000099
C24	C	1.424346	-0.347296	0.112599
C25	C	1.424377	-0.347276	-0.112763
C26	C	1.545956	-0.277350	0.112695
C27	C	1.545970	-0.277319	-0.112768
C28	C	1.603481	-0.369440	-0.000043
C29	C	1.714715	0.180412	-0.000118
C30	C	1.854160	0.184162	-0.000136
C31	C	1.478122	0.420826	-0.000111
C32	C	1.481880	0.562454	-0.000118
N33	N	1.485187	0.187700	0.356017
N34	N	1.485186	0.187677	-0.356220
C35	C	1.569807	0.101766	0.427942
C36	C	1.569803	0.101751	0.571825
C37	C	1.400557	0.273615	0.571846
C38	C	1.400555	0.273623	0.427966
C39	C	1.654439	0.015843	0.355993
C40	C	1.739066	-0.070097	0.427918
C41	C	1.739063	-0.070113	0.571801
C42	C	1.654432	0.015812	0.643759
H43	H	0.719617	0.413446	-0.000154
O44	O	1.830318	-0.162780	0.350297
H45	H	1.928372	-0.145624	0.377903
O46	O	1.064545	0.664790	-0.000124
H47	H	1.123584	0.671960	-0.093284
O48	O	1.309266	0.366304	0.350401
H49	H	1.247742	0.312014	0.284877
O50	O	1.356222	-0.388348	0.238815
H51	H	1.405802	-0.358970	0.332261
O52	O	1.830341	-0.162789	0.649385
H53	H	1.889196	-0.222520	0.575178
O54	O	1.229667	0.427178	-0.000070
H55	H	1.252193	0.528322	-0.000066
O56	O	1.654424	0.015803	0.798949
H57	H	1.727488	-0.058385	0.836878
O58	O	1.309294	0.366302	0.649448
H59	H	1.323522	0.351868	0.761581
O60	O	1.614051	-0.236299	-0.239017
H61	H	1.711651	-0.283966	-0.239861
H62	H	1.129299	-0.019696	-0.000057
O63	O	1.614036	-0.236547	0.239038
H64	H	1.645107	-0.322168	0.301771
H65	H	1.266977	-0.205449	0.000020
H66	H	1.654452	0.015851	0.238837
O67	O	0.792214	0.657442	-0.000180
H68	H	0.850098	0.739974	-0.000186
O69	O	0.877969	-0.057251	-0.000116
H70	H	0.773517	-0.040503	-0.000156
H71	H	1.703518	-0.418912	0.000014
O72	O	1.356235	-0.388284	-0.238975
H73	H	1.258068	-0.342069	-0.238720
