data_functionalizedCrystal
_audit_creation_method	'MofGen! by Chris Wilmer'
_symmetry_space_group_name_H-M	'P1'
_symmetry_Int_Tables_number	1
_symmetry_cell_setting	triclinic
loop_
_symmetry_equiv_pos_as_xyz
  x,y,z
_cell_length_a	17.699077
_cell_length_b	13.330367
_cell_length_c	17.699092
_cell_angle_alpha	90.006643
_cell_angle_beta	96.716528
_cell_angle_gamma	90.006328
loop_
_atom_site_label
_atom_site_type_symbol
_atom_site_fract_x
_atom_site_fract_y
_atom_site_fract_z
O1	O	1.004085	0.083406	-0.095678
O2	O	1.504085	0.583406	0.404322
O3	O	0.783707	0.083411	-0.108135
O4	O	1.283707	0.583411	0.391865
O5	O	0.900119	0.083406	0.008282
O6	O	1.400119	0.583406	0.508282
O7	O	0.887673	0.083411	-0.212096
O8	O	1.387673	0.583411	0.287904
O9	O	0.900101	-0.083441	0.008263
O10	O	1.400101	0.416559	0.508263
O11	O	0.783689	-0.083436	-0.108154
O12	O	1.283689	0.416564	0.391846
O13	O	1.004068	-0.083441	-0.095697
O14	O	1.504068	0.416559	0.404303
Cu15	Cu	0.893877	-0.098673	-0.101927
Cu16	Cu	1.393877	0.401327	0.398073
Cu17	Cu	0.893898	0.098643	-0.101905
Cu18	Cu	1.393898	0.598643	0.398095
O19	O	0.887655	-0.083436	-0.212114
O20	O	1.387655	0.416564	0.287886
C21	C	0.755501	-0.000012	-0.107699
C22	C	1.255501	0.499988	0.392301
C23	C	0.671482	-0.000010	-0.106362
C24	C	1.171482	0.499990	0.393638
C25	C	0.632005	-0.090960	-0.105743
C26	C	1.132005	0.409040	0.394257
C27	C	0.553063	-0.090961	-0.104474
C28	C	1.053063	0.409039	0.395526
C29	C	0.513598	-0.000011	-0.103831
C30	C	1.013598	0.499989	0.396169
C31	C	0.553081	0.090945	-0.104449
C32	C	1.053081	0.590945	0.395551
C33	C	0.632023	0.090945	-0.105712
C34	C	1.132023	0.590945	0.394288
C35	C	0.234717	0.090947	-0.099356
C36	C	0.734717	0.590947	0.400644
C37	C	0.155770	0.090940	-0.098095
C38	C	0.655770	0.590940	0.401905
C39	C	0.155757	-0.090959	-0.098118
C40	C	0.655757	0.409041	0.401882
C41	C	0.234699	-0.090959	-0.099381
C42	C	0.734699	0.409041	0.400619
C43	C	0.274176	-0.000003	-0.099994
C44	C	0.774176	0.499997	0.400006
C45	C	0.359774	-0.000003	-0.101368
C46	C	0.859774	0.499997	0.398632
C47	C	0.428000	-0.000010	-0.102463
C48	C	0.928000	0.499990	0.397537
N49	N	0.893867	-0.237454	-0.101942
N50	N	1.393867	0.262546	0.398058
C51	C	0.939726	-0.710067	-0.147737
C52	C	1.439726	-0.210067	0.352263
C53	C	0.848092	-0.710056	-0.056043
C54	C	1.348092	-0.210056	0.443957
C55	C	0.848081	-0.605038	-0.056054
C56	C	1.348081	-0.105038	0.443946
C57	C	0.893894	-0.552529	-0.101907
C58	C	1.393894	-0.052529	0.398093
C59	C	0.939718	-0.605039	-0.147749
C60	C	1.439718	-0.105039	0.352251
C61	C	0.802264	-0.552520	-0.010208
C62	C	1.302264	-0.052520	0.489792
C63	C	0.802252	-0.447495	-0.010217
C64	C	1.302252	0.052505	0.489783
C65	C	0.848061	-0.394985	-0.056075
C66	C	1.348061	0.105015	0.443925
C67	C	0.893886	-0.447501	-0.101919
C68	C	1.393886	0.052499	0.398081
C69	C	0.939699	-0.394992	-0.147772
C70	C	1.439699	0.105008	0.352228
C71	C	0.985520	-0.447506	-0.193620
C72	C	1.485520	0.052494	0.306380
C73	C	0.985527	-0.552528	-0.193606
C74	C	1.485527	-0.052528	0.306394
C75	C	0.848055	-0.289963	-0.056089
C76	C	1.348055	0.210037	0.443911
C77	C	0.939691	-0.289964	-0.147783
C78	C	1.439691	0.210036	0.352217
C79	C	1.032274	-0.000016	-0.096133
C80	C	1.532274	0.499984	0.403867
C81	C	1.116292	-0.000011	-0.097470
C82	C	1.616292	0.499989	0.402530
C83	C	0.899663	-0.000016	0.036470
C84	C	1.399663	0.499984	0.536470
C85	C	0.898322	-0.000011	0.120487
C86	C	1.398322	0.499989	0.620487
N87	N	0.893913	0.237425	-0.101884
N88	N	1.393913	0.737425	0.398116
C89	C	0.888111	-0.000012	-0.240302
C90	C	1.388111	0.499988	0.259698
C91	C	0.889452	-0.000010	-0.324320
C92	C	1.389452	0.499990	0.175680
C93	C	0.897703	0.090938	0.159965
C94	C	1.397703	0.590938	0.659965
C95	C	0.896439	0.090940	0.238908
C96	C	1.396439	0.590940	0.738908
C97	C	0.895798	-0.000010	0.278373
C98	C	1.395798	0.499990	0.778373
C99	C	0.896414	-0.090966	0.238889
C100	C	1.396414	0.409034	0.738889
C101	C	0.897673	-0.090966	0.159947
C102	C	1.397673	0.409034	0.659947
C103	C	0.891334	-0.090968	0.557254
C104	C	1.391334	0.409032	1.057254
C105	C	0.890076	-0.090960	0.636202
C106	C	1.390076	0.409040	1.136202
C107	C	0.890099	0.090938	0.636215
C108	C	1.390099	0.590938	1.136215
C109	C	0.891358	0.090938	0.557273
C110	C	1.391358	0.590938	1.057273
C111	C	0.891970	-0.000018	0.517796
C112	C	1.391970	0.499982	1.017796
C113	C	0.893341	-0.000018	0.432197
C114	C	1.393341	0.499982	0.932197
C115	C	0.894433	-0.000011	0.363971
C116	C	1.394433	0.499989	0.863971
H117	H	0.976994	-0.247219	-0.185127
H118	H	1.476994	0.252781	0.314873
C119	C	0.898411	0.190982	0.116558
C120	C	1.398411	0.690982	0.616558
H121	H	0.899257	0.177959	0.063889
H122	H	1.399257	0.677959	0.563889
H123	H	0.854091	0.228355	0.123645
H124	H	1.354091	0.728355	0.623645
H125	H	0.942334	0.228347	0.135354
H126	H	1.442334	0.728347	0.635354
C127	C	0.112357	0.190986	-0.097383
C128	C	0.612357	0.690986	0.402617
H129	H	0.059687	0.177955	-0.096552
H130	H	0.559687	0.677955	0.403448
H131	H	0.131148	0.228353	-0.053465
H132	H	0.631148	0.728353	0.446535
H133	H	0.119442	0.228361	-0.141708
H134	H	0.619442	0.728361	0.358292
H135	H	0.520943	0.164998	-0.103920
H136	H	1.020943	0.664998	0.396080
H137	H	0.664131	-0.165022	-0.106272
H138	H	1.164131	0.334978	0.393728
H139	H	0.810799	-0.752815	-0.018706
H140	H	1.310799	-0.252815	0.481294
H141	H	0.889552	-0.165027	0.668332
H142	H	1.389552	0.334973	1.168332
H143	H	0.520926	-0.165021	-0.103957
H144	H	1.020926	0.334979	0.396043
C145	C	0.892007	-0.191012	0.513836
C146	C	1.392007	0.308988	1.013836
H147	H	0.892838	-0.177993	0.461166
H148	H	1.392838	0.322007	0.961166
H149	H	0.935913	-0.228389	0.532620
H150	H	1.435913	0.271611	1.032620
H151	H	0.847669	-0.228372	0.520922
H152	H	1.347669	0.271628	1.020922
C153	C	0.112336	-0.191013	-0.097436
C154	C	0.612336	0.308987	0.402564
H155	H	0.147146	-0.245177	-0.098009
H156	H	0.647146	0.254823	0.401991
H157	H	0.087395	-0.194803	-0.052825
H158	H	0.587395	0.305197	0.447175
H159	H	0.075685	-0.194790	-0.141069
H160	H	0.575685	0.305210	0.358931
C161	C	0.895712	-0.191009	0.282298
C162	C	1.395712	0.308991	0.782298
H163	H	0.894881	-0.177984	0.334969
H164	H	1.394881	0.322016	0.834969
H165	H	0.851796	-0.228382	0.263507
H166	H	1.351796	0.271618	0.763507
H167	H	0.940040	-0.228375	0.275208
H168	H	1.440040	0.271625	0.775208
C169	C	0.751852	-0.610274	0.040204
C170	C	1.251852	-0.110274	0.540204
H171	H	0.724561	-0.563960	0.067506
H172	H	1.224561	-0.063960	0.567506
H173	H	0.716972	-0.651246	0.009128
H174	H	1.216972	-0.151246	0.509128
H175	H	0.782921	-0.651240	0.075088
H176	H	1.282921	-0.151240	0.575088
C177	C	0.895745	0.190984	0.282328
C178	C	1.395745	0.690984	0.782328
H179	H	0.896312	0.245149	0.247519
H180	H	1.396312	0.745149	0.747519
H181	H	0.851129	0.194758	0.307263
H182	H	1.351129	0.694758	0.807263
H183	H	0.939373	0.194774	0.318983
H184	H	1.439373	0.694774	0.818983
C185	C	0.278107	-0.191003	-0.100084
C186	C	0.778107	0.308997	0.399916
H187	H	0.243290	-0.245171	-0.099525
H188	H	0.743290	0.254829	0.400475
H189	H	0.303050	-0.194787	-0.144694
H190	H	0.803050	0.305213	0.355306
H191	H	0.314754	-0.194778	-0.056450
H192	H	0.814754	0.305222	0.443550
C193	C	0.751845	-0.389739	0.040205
C194	C	1.251845	0.110261	0.540205
H195	H	0.724558	-0.436054	0.067510
H196	H	1.224558	0.063946	0.567510
H197	H	0.782915	-0.348743	0.075073
H198	H	1.282915	0.151257	0.575073
H199	H	0.716948	-0.348797	0.009131
H200	H	1.216948	0.151203	0.509131
C201	C	0.898356	-0.191011	0.116522
C202	C	1.398356	0.308989	0.616522
H203	H	0.897800	-0.245178	0.151331
H204	H	1.397800	0.254822	0.651331
H205	H	0.854727	-0.194790	0.079873
H206	H	1.354727	0.305210	0.579873
H207	H	0.942971	-0.194793	0.091580
H208	H	1.442971	0.305207	0.591580
C209	C	0.889414	0.190990	0.679640
C210	C	1.389414	0.690990	1.179640
H211	H	0.888564	0.177969	0.732307
H212	H	1.388564	0.677969	1.232307
H213	H	0.933744	0.228358	0.672560
H214	H	1.433744	0.728358	1.172560
H215	H	0.845501	0.228359	0.660849
H216	H	1.345501	0.728359	1.160849
H217	H	0.266850	0.165009	-0.099853
H218	H	0.766850	0.665009	0.400147
H219	H	0.664164	0.165006	-0.106218
H220	H	1.164164	0.665006	0.393782
C221	C	1.035911	-0.389740	-0.244055
C222	C	1.535911	0.110260	0.255945
H223	H	1.029339	-0.319673	-0.237494
H224	H	1.529339	0.180327	0.262506
H225	H	1.087722	-0.406933	-0.229931
H226	H	1.587722	0.093067	0.270069
H227	H	1.021746	-0.406963	-0.295862
H228	H	1.521746	0.093037	0.204138
H229	H	0.891884	0.164999	0.525145
H230	H	1.391884	0.664999	1.025145
H231	H	0.810750	-0.247211	-0.018758
H232	H	1.310750	0.252789	0.481242
H233	H	0.977030	-0.752828	-0.185068
H234	H	1.477030	-0.252828	0.314932
C235	C	1.035933	-0.610295	-0.244025
C236	C	1.535933	-0.110295	0.255975
H237	H	1.029383	-0.680361	-0.237441
H238	H	1.529383	-0.180361	0.262559
H239	H	1.021779	-0.593112	-0.295833
H240	H	1.521779	-0.093112	0.204167
H241	H	1.087743	-0.593061	-0.229889
H242	H	1.587743	-0.093061	0.270111
