data_functionalizedCrystal
_audit_creation_method	'MofGen! by Chris Wilmer'
_symmetry_space_group_name_H-M	'P1'
_symmetry_Int_Tables_number	1
_symmetry_cell_setting	triclinic
loop_
_symmetry_equiv_pos_as_xyz
  x,y,z
_cell_length_a	10.654550
_cell_length_b	13.596369
_cell_length_c	10.654559
_cell_angle_alpha	90.003377
_cell_angle_beta	84.486794
_cell_angle_gamma	90.008835
loop_
_atom_site_label
_atom_site_type_symbol
_atom_site_fract_x
_atom_site_fract_y
_atom_site_fract_z
O1	O	1.667848	0.081866	0.176400
O2	O	1.302370	0.081850	0.193206
O3	O	1.493506	0.081858	0.002065
O4	O	1.476712	0.081858	0.367542
O5	O	1.493487	-0.081725	0.002054
O6	O	1.302351	-0.081733	0.193196
O7	O	1.667829	-0.081717	0.176390
Zn8	Zn	1.485087	-0.107697	0.184791
Zn9	Zn	1.485112	0.107830	0.184805
O10	O	1.476693	-0.081725	0.367531
C11	C	1.255563	0.000056	0.191967
C12	C	1.116119	0.000050	0.188275
N13	N	1.485079	-0.254789	0.184781
C14	C	1.036637	0.000064	0.300816
C15	C	0.905616	0.000081	0.297340
C16	C	0.933572	0.000074	0.068771
C17	C	1.064591	0.000050	0.072249
C18	C	1.020496	0.000073	0.432779
C19	C	0.889475	0.000090	0.429302
C20	C	1.485111	-0.656080	0.184806
C21	C	1.485098	-0.544429	0.184803
C22	C	1.485095	-0.455438	0.184795
C23	C	1.485082	-0.343780	0.184790
C24	C	1.714637	0.000079	0.177629
C25	C	1.854080	0.000091	0.181321
C26	C	1.492261	0.000069	-0.044738
C27	C	1.488565	0.000075	-0.184181
N28	N	1.485130	0.254922	0.184805
C29	C	1.372552	0.000072	-0.235721
C30	C	1.369087	0.000065	-0.366743
C31	C	1.597656	0.000067	-0.394675
C32	C	1.601120	0.000067	-0.263655
C33	C	1.240590	0.000075	-0.219595
C34	C	1.237124	0.000068	-0.350618
C35	C	1.477938	0.000066	0.414334
C36	C	1.481635	0.000067	0.553777
H37	H	0.891601	0.000089	-0.025694
H38	H	1.195064	-0.070559	-0.386249
C39	C	1.228101	-0.084083	-0.056431
C40	C	1.151961	0.000025	-0.051458
H41	H	1.282034	-0.084100	-0.132810
H42	H	1.277537	-0.084080	0.013155
H43	H	1.176365	-0.141111	-0.053033
H44	H	1.203697	0.057053	-0.054847
H45	H	1.102521	0.000030	-0.121063
H46	H	1.049821	-0.068390	0.484384
C47	C	1.826700	0.000055	-0.304431
C48	C	1.728644	0.000059	-0.207002
H49	H	1.905430	0.000054	-0.269453
H50	H	1.820576	-0.056985	-0.354953
H51	H	1.820604	0.057105	-0.354950
H52	H	1.734735	-0.056996	-0.156488
H53	H	1.734771	0.057105	-0.156459
H54	H	1.056161	0.070698	0.474802
C55	C	0.920922	-0.157872	0.522036
C56	C	0.827798	-0.095243	0.483135
H57	H	0.882839	-0.216721	0.555274
H58	H	0.979666	-0.173206	0.452011
H59	H	0.963400	-0.126164	0.585224
H60	H	0.785325	-0.126947	0.419940
H61	H	0.769031	-0.079909	0.553168
H62	H	0.847752	0.068554	0.479028
H63	H	1.185521	0.068521	-0.379981
H64	H	1.689294	0.000060	-0.459399
H65	H	1.190851	-0.068382	-0.177852
H66	H	1.200731	0.070706	-0.173949
