data_functionalizedCrystal
_audit_creation_method	'MofGen! by Chris Wilmer'
_symmetry_space_group_name_H-M	'P1'
_symmetry_Int_Tables_number	1
_symmetry_cell_setting	triclinic
loop_
_symmetry_equiv_pos_as_xyz
  x,y,z
_cell_length_a	17.699077
_cell_length_b	14.044190
_cell_length_c	16.176319
_cell_angle_alpha	90.008093
_cell_angle_beta	90.005422
_cell_angle_gamma	88.236177
loop_
_atom_site_label
_atom_site_type_symbol
_atom_site_fract_x
_atom_site_fract_y
_atom_site_fract_z
O1	O	1.012348	0.119819	0.068745
O2	O	0.793046	0.135418	0.068750
O3	O	0.899402	-0.010359	0.068731
O4	O	0.905991	0.265595	0.068764
O5	O	0.899389	-0.010359	-0.068762
O6	O	0.793032	0.135417	-0.068743
O7	O	1.012335	0.119819	-0.068748
Cu8	Cu	0.902682	0.127618	-0.081300
Cu9	Cu	0.902698	0.127618	0.081302
O10	O	0.905978	0.265595	-0.068730
C11	C	0.764803	0.134859	0.000004
C12	C	0.680669	0.133185	0.000005
C13	C	0.641140	0.132397	-0.074943
C14	C	0.562088	0.130809	-0.074944
C15	C	0.522566	0.130016	0.000004
C16	C	0.562101	0.130803	0.074958
C17	C	0.641152	0.132384	0.074958
C18	C	0.243298	0.124425	0.074959
C19	C	0.164241	0.122846	0.074953
C20	C	0.164234	0.122850	-0.074944
C21	C	0.243285	0.124431	-0.074944
C22	C	0.282813	0.125212	0.000010
C23	C	0.368530	0.126932	0.000010
C24	C	0.436850	0.128303	0.000005
C25	C	0.896513	-0.045667	-0.000018
C26	C	0.887915	-0.150873	-0.000025
C27	C	0.933175	-0.401265	0.000007
C28	C	0.872208	-0.343494	0.000002
C29	C	0.880950	-0.236310	-0.000013
C30	C	0.924435	-0.508459	0.000022
C31	C	1.040577	0.120377	-0.000000
C32	C	1.124711	0.122051	0.000004
C33	C	0.908867	0.300903	0.000021
C34	C	0.917465	0.406109	0.000034
N35	N	0.902676	0.127617	-0.195665
C36	C	0.952452	0.185027	-0.238920
C37	C	0.952460	0.185023	-0.325467
C38	C	0.902688	0.127614	-0.368758
C39	C	0.852909	0.070198	-0.325497
C40	C	0.852905	0.070197	-0.238952
C41	C	0.852923	0.070199	-0.674525
C42	C	0.852929	0.070206	-0.761077
C43	C	0.952478	0.185025	-0.761041
C44	C	0.952474	0.185024	-0.674495
C45	C	0.902699	0.127605	-0.631242
C46	C	0.902692	0.127608	-0.537398
C47	C	0.902690	0.127615	-0.462600
N48	N	0.902710	0.127612	0.195667
H49	H	0.132065	0.122200	0.135989
H50	H	0.813447	-0.374532	0.000008
H51	H	0.991932	-0.370228	-0.000003
H52	H	0.992979	0.231781	-0.203679
C53	C	1.007191	0.248216	-0.373043
N54	N	1.048407	0.295829	-0.408877
C55	C	1.007230	0.248175	-0.626880
N56	N	1.048477	0.295738	-0.591017
C57	C	1.007239	0.248180	-0.808627
N58	N	1.048483	0.295747	-0.844467
H59	H	0.812372	0.023448	-0.203735
C60	C	0.798175	0.007045	-0.808695
N61	N	0.756937	-0.040526	-0.844561
C62	C	0.798162	0.007044	-0.626958
N63	N	0.756912	-0.040525	-0.591128
C64	C	0.518609	0.129963	-0.157394
N65	N	0.485860	0.129333	-0.219498
C66	C	0.684607	0.133267	-0.157394
N67	N	0.717344	0.133919	-0.219498
H68	H	0.812387	0.023450	-0.360751
H69	H	0.275459	0.125080	-0.135974
H70	H	0.529917	0.130151	0.135983
C71	C	0.684634	0.133254	0.157408
N72	N	0.717383	0.133906	0.219511
H73	H	0.275472	0.125058	0.135991
C74	C	0.120746	0.121979	-0.157395
N75	N	0.087992	0.121325	-0.219496
