data_functionalizedCrystal
_audit_creation_method	'MofGen! by Chris Wilmer'
_symmetry_space_group_name_H-M	'P1'
_symmetry_Int_Tables_number	1
_symmetry_cell_setting	triclinic
loop_
_symmetry_equiv_pos_as_xyz
  x,y,z
_cell_length_a	12.759401
_cell_length_b	15.297327
_cell_length_c	12.759393
_cell_angle_alpha	99.641677
_cell_angle_beta	89.980163
_cell_angle_gamma	99.708126
loop_
_atom_site_label
_atom_site_type_symbol
_atom_site_fract_x
_atom_site_fract_y
_atom_site_fract_z
Zn1	Zn	1.533805	-0.359071	-0.666327
Zn2	Zn	1.503255	-0.509959	-0.521032
Zn3	Zn	1.358097	-0.359122	-0.490673
Zn4	Zn	1.327664	-0.509893	-0.696656
O5	O	1.430705	-0.434511	-0.593672
O6	O	1.676772	-0.379092	-0.647066
O7	O	1.483950	-0.489999	-0.369994
O8	O	1.406926	-0.232869	-0.488575
O9	O	1.654327	-0.489949	-0.540319
O10	O	1.536018	-0.232832	-0.617628
O11	O	1.377303	-0.379179	-0.347689
O12	O	1.207040	-0.379115	-0.517984
O13	O	1.355058	-0.489837	-0.839644
O14	O	1.184681	-0.489886	-0.669319
O15	O	1.506509	-0.379028	-0.817362
O16	O	1.454440	-0.636195	-0.569727
O17	O	1.325435	-0.636147	-0.698757
C18	C	1.157740	-0.434500	-0.593649
C19	C	1.040960	-0.434517	-0.593668
C20	C	0.974465	-0.492283	-0.672380
C21	C	0.864741	-0.492286	-0.672402
C22	C	0.888015	-0.376755	-0.514990
C23	C	0.997738	-0.376748	-0.514974
C24	C	1.383349	-0.668905	-0.640851
C25	C	1.363185	-0.769180	-0.661069
C26	C	1.575247	-1.051814	-0.449526
C27	C	1.594191	-0.957601	-0.430525
C28	C	1.536442	-0.910491	-0.488160
C29	C	1.459745	-0.957603	-0.564799
C30	C	1.440793	-1.051826	-0.583796
C31	C	1.401987	-0.910503	-0.622429
C32	C	1.325290	-0.957616	-0.699068
C33	C	1.306343	-1.051829	-0.718063
C34	C	1.364092	-1.098939	-0.660428
C35	C	1.420939	-0.816280	-0.603432
C36	C	1.286485	-0.816293	-0.737701
C37	C	1.267541	-0.910506	-0.756703
C38	C	1.704736	-0.434523	-0.593696
C39	C	1.821512	-0.434528	-0.593706
C40	C	1.430797	-0.434420	-0.867687
C41	C	1.430836	-0.434381	-0.984456
C42	C	1.478275	-0.199201	-0.546332
C43	C	1.498546	-0.098926	-0.526159
C44	C	1.375331	-0.376667	-1.027701
C45	C	1.375361	-0.376639	-1.137420
C46	C	1.486409	-0.492042	-1.160639
C47	C	1.486372	-0.492074	-1.050923
C48	C	1.430687	-0.434537	-0.320710
C49	C	1.430903	-0.434321	-0.203890
H50	H	1.483386	-0.777930	-0.541031
H51	H	1.531626	-0.539013	-1.214769
O52	O	0.793076	-0.554642	-0.757304
H53	H	0.751244	-0.514377	-0.802790
O54	O	0.841393	-0.314478	-0.430085
H55	H	0.753921	-0.324201	-0.443303
H56	H	1.531573	-0.539075	-1.015714
H57	H	1.009653	-0.539320	-0.736461
O58	O	1.069468	-0.314454	-0.430060
H59	H	1.020979	-0.274299	-0.375328
H60	H	1.551869	-0.833778	-0.472683
H61	H	1.656636	-0.919245	-0.368125
H62	H	1.622252	-1.090179	-0.402602
O63	O	1.343645	-1.200558	-0.680916
H64	H	1.396684	-1.225396	-0.627959
O65	O	1.223616	-1.102649	-0.800716
H66	H	1.186648	-1.054066	-0.837608
O67	O	1.224181	-0.765488	-0.799856
H68	H	1.167650	-0.814076	-0.856322
O69	O	1.315506	-0.314378	-1.184056
H70	H	1.324853	-0.324049	-1.271516
H71	H	1.205093	-0.948878	-0.819103
H72	H	1.330110	-0.329689	-0.973586
