data_functionalizedCrystal
_audit_creation_method	'MofGen! by Chris Wilmer'
_symmetry_space_group_name_H-M	'P1'
_symmetry_Int_Tables_number	1
_symmetry_cell_setting	triclinic
loop_
_symmetry_equiv_pos_as_xyz
  x,y,z
_cell_length_a	19.188905
_cell_length_b	18.266242
_cell_length_c	12.837942
_cell_angle_alpha	89.994721
_cell_angle_beta	91.018252
_cell_angle_gamma	90.016163
loop_
_atom_site_label
_atom_site_type_symbol
_atom_site_fract_x
_atom_site_fract_y
_atom_site_fract_z
O1	O	0.935026	0.061002	-0.129255
O2	O	1.435026	0.561002	0.370745
O3	O	0.732909	0.060978	-0.146699
O4	O	1.232909	0.560978	0.353301
O5	O	0.829486	0.060985	0.012905
O6	O	1.329486	0.560985	0.512905
O7	O	0.838449	0.060995	-0.288859
O8	O	1.338449	0.560995	0.211141
O9	O	0.829467	-0.060777	0.012913
O10	O	1.329467	0.439223	0.512913
O11	O	0.732890	-0.060784	-0.146691
O12	O	1.232890	0.439216	0.353309
O13	O	0.935007	-0.060760	-0.129247
O14	O	1.435007	0.439240	0.370753
Zn15	Zn	0.833946	-0.080104	-0.137968
Zn16	Zn	1.333946	0.419896	0.362032
Zn17	Zn	0.833970	0.080322	-0.137979
Zn18	Zn	1.333970	0.580322	0.362021
O19	O	0.838430	-0.060767	-0.288851
O20	O	1.338430	0.439233	0.211149
C21	C	0.706850	0.000093	-0.146134
C22	C	1.206850	0.500093	0.353866
C23	C	0.629229	0.000084	-0.144452
C24	C	1.129229	0.500084	0.355548
C25	C	0.592792	0.066458	-0.143648
C26	C	1.092792	0.566458	0.356352
C27	C	0.519859	0.066467	-0.142055
C28	C	1.019859	0.566467	0.357945
C29	C	0.483366	0.000098	-0.141246
C30	C	0.983366	0.500098	0.358754
C31	C	0.519812	-0.066285	-0.142056
C32	C	1.019812	0.433715	0.357944
C33	C	0.592743	-0.066292	-0.143659
C34	C	1.092743	0.433708	0.356341
N35	N	0.370121	-0.049296	-0.079752
N36	N	0.870121	0.450704	0.420248
N37	N	0.300839	-0.049285	-0.078227
N38	N	0.800839	0.450715	0.421773
C39	C	0.263628	0.000115	-0.136418
C40	C	0.763628	0.500115	0.363582
N41	N	0.298317	0.049515	-0.196178
N42	N	0.798317	0.549515	0.303822
N43	N	0.367605	0.049506	-0.197699
N44	N	0.867605	0.549506	0.302301
C45	C	0.404284	0.000098	-0.139508
C46	C	0.904284	0.500098	0.360492
C47	C	0.148109	0.066504	-0.133889
C48	C	0.648109	0.566504	0.366111
C49	C	0.075175	0.066510	-0.132303
C50	C	0.575175	0.566510	0.367697
C51	C	0.075130	-0.066244	-0.132292
C52	C	0.575130	0.433756	0.367708
C53	C	0.148062	-0.066248	-0.133889
C54	C	0.648062	0.433752	0.366111
C55	C	0.184548	0.000128	-0.134682
C56	C	0.684548	0.500128	0.365318
N57	N	0.833934	-0.189591	-0.137960
N58	N	1.333934	0.310409	0.362040
C59	C	0.876716	-0.227897	-0.067322
C60	C	1.376716	0.272103	0.432678
C61	C	0.876720	-0.304542	-0.067317
C62	C	1.376720	0.195458	0.432683
C63	C	0.833950	-0.342878	-0.137968
C64	C	1.333950	0.157122	0.362032
C65	C	0.791159	-0.304563	-0.208611
C66	C	1.291159	0.195437	0.291389
C67	C	0.791151	-0.227920	-0.208607
C68	C	1.291151	0.272080	0.291393
N69	N	0.831166	-0.463208	-0.229706
N70	N	1.331166	0.036792	0.270294
N71	N	0.831178	-0.536016	-0.229707
N72	N	1.331178	-0.036016	0.270293
C73	C	0.833971	-0.573801	-0.137983
C74	C	1.333971	-0.073801	0.362017
N75	N	0.836764	-0.536026	-0.046256
N76	N	1.336764	-0.036026	0.453744
N77	N	0.836756	-0.463212	-0.046256
N78	N	1.336756	0.036788	0.453744
C79	C	0.833954	-0.425985	-0.137980
C80	C	1.333954	0.074015	0.362020
C81	C	0.876759	-0.695213	-0.067334
C82	C	1.376759	-0.195213	0.432666
C83	C	0.876759	-0.771860	-0.067328
C84	C	1.376759	-0.271860	0.432672
C85	C	0.791202	-0.771880	-0.208631
C86	C	1.291202	-0.271880	0.291369
C87	C	0.791198	-0.695235	-0.208628
C88	C	1.291198	-0.195235	0.291372
C89	C	0.833981	-0.656906	-0.137981
C90	C	1.333981	-0.156906	0.362019
C91	C	0.961066	0.000126	-0.129812
C92	C	1.461066	0.500126	0.370188
C93	C	1.038687	0.000141	-0.131495
C94	C	1.538687	0.500141	0.368505
C95	C	0.826448	0.000104	0.051515
C96	C	1.326448	0.500104	0.551515
C97	C	0.817417	0.000104	0.166550
C98	C	1.317417	0.500104	0.666550
N99	N	0.833987	0.189809	-0.137978
N100	N	1.333987	0.689809	0.362022
C101	C	0.841468	0.000116	-0.327462
C102	C	1.341468	0.500116	0.172538
C103	C	0.850499	0.000120	-0.442496
C104	C	1.350499	0.500120	0.057504
C105	C	0.925985	0.000133	0.408015
C106	C	1.425985	0.500133	0.908015
C107	C	0.917503	0.000133	0.516101
C108	C	1.417503	0.500133	1.016101
C109	C	0.791972	0.000110	0.490811
C110	C	1.291972	0.500110	0.990811
C111	C	0.800454	0.000110	0.382725
C112	C	1.300454	0.500110	0.882725
C113	C	0.867463	0.000120	0.341331
C114	C	1.367463	0.500120	0.841331
C115	C	0.875944	0.000115	0.233243
C116	C	1.375944	0.500115	0.733243
C117	C	0.750413	0.000097	0.207954
C118	C	1.250413	0.500097	0.707954
C119	C	0.741931	0.000097	0.316041
C120	C	1.241931	0.500097	0.816041
H121	H	0.177730	-0.120297	-0.134537
H122	H	0.677730	0.379703	0.365463
C123	C	0.632825	-0.139313	-0.144534
C124	C	1.132825	0.360687	0.355466
N125	N	0.663016	-0.194313	-0.145190
N126	N	1.163016	0.305687	0.354810
H127	H	0.737416	0.000109	0.524533
H128	H	1.237416	0.500109	1.024533
C129	C	0.744119	-0.185782	-0.286363
C130	C	1.244119	0.314218	0.213637
N131	N	0.708706	-0.154043	-0.344947
N132	N	1.208706	0.345957	0.155053
H133	H	0.687374	0.000091	0.349759
H134	H	1.187374	0.500091	0.849759
C135	C	0.744190	-0.653097	-0.286412
C136	C	1.244190	-0.153097	0.213588
N137	N	0.708797	-0.621359	-0.345025
N138	N	1.208797	-0.121359	0.154975
H139	H	0.622494	0.120507	-0.144294
H140	H	1.122494	0.620507	0.355706
H141	H	0.911550	-0.196692	-0.009794
H142	H	1.411550	0.303308	0.490206
H143	H	0.930506	0.000120	0.199542
H144	H	1.430506	0.500120	0.699542
H145	H	0.911593	-0.664005	-0.009805
H146	H	1.411593	-0.164005	0.490195
C147	C	0.686034	0.000082	0.134592
C148	C	1.186034	0.500082	0.634592
N149	N	0.637545	0.000069	0.079335
N150	N	1.137545	0.500069	0.579335
H151	H	0.490186	0.120519	-0.141402
H152	H	0.990186	0.620519	0.358598
C153	C	0.035094	0.139532	-0.131414
C154	C	0.535094	0.639532	0.368586
N155	N	0.004905	0.194533	-0.130740
N156	N	0.504905	0.694533	0.369260
C157	C	0.479669	-0.139291	-0.141163
C158	C	0.979669	0.360709	0.358837
N159	N	0.449433	-0.194282	-0.140494
N160	N	0.949433	0.305718	0.359506
C161	C	0.744154	-0.814045	-0.286349
C162	C	1.244154	-0.314045	0.213651
N163	N	0.708716	-0.845808	-0.344888
N164	N	1.208716	-0.345808	0.155112
C165	C	0.999695	0.000140	0.362480
C166	C	1.499695	0.500140	0.862480
N167	N	1.055214	0.000146	0.328184
N168	N	1.555214	0.500146	0.828184
C169	C	0.981883	0.000142	0.589451
C170	C	1.481883	0.500142	1.089451
N171	N	1.030377	0.000147	0.644698
N172	N	1.530377	0.500147	1.144698
H173	H	0.177817	0.120551	-0.134546
H174	H	0.677817	0.620551	0.365454
H175	H	0.045418	-0.120283	-0.131639
H176	H	0.545418	0.379717	0.368361
H177	H	0.911560	-0.335736	-0.009793
H178	H	1.411560	0.164264	0.490207
C179	C	0.744109	-0.346735	-0.286323
C180	C	1.244109	0.153265	0.213677
N181	N	0.708666	-0.378498	-0.344855
N182	N	1.208666	0.121502	0.155145
H183	H	0.911594	-0.803049	-0.009800
H184	H	1.411594	-0.303049	0.490200
