data_functionalizedCrystal
_audit_creation_method	'MofGen! by Chris Wilmer'
_symmetry_space_group_name_H-M	'P1'
_symmetry_Int_Tables_number	1
_symmetry_cell_setting	triclinic
loop_
_symmetry_equiv_pos_as_xyz
  x,y,z
_cell_length_a	17.077404
_cell_length_b	12.827892
_cell_length_c	17.077396
_cell_angle_alpha	90.027963
_cell_angle_beta	89.981638
_cell_angle_gamma	89.979106
loop_
_atom_site_label
_atom_site_type_symbol
_atom_site_fract_x
_atom_site_fract_y
_atom_site_fract_z
Zn1	Zn	1.200054	0.416090	-0.443822
Zn2	Zn	1.199961	0.590852	-0.312557
Zn3	Zn	1.068786	0.416119	-0.312572
Zn4	Zn	1.068754	0.590783	-0.443783
O5	O	1.134389	0.503461	-0.378183
O6	O	1.309889	0.439289	-0.426419
O7	O	1.182535	0.567715	-0.202712
O8	O	1.086252	0.269879	-0.330005
O9	O	1.309821	0.567686	-0.329979
O10	O	1.182694	0.269858	-0.426434
O11	O	1.086161	0.439339	-0.202723
O12	O	0.958935	0.439273	-0.329968
O13	O	1.086197	0.567568	-0.553635
O14	O	0.958911	0.567597	-0.426368
O15	O	1.182663	0.439222	-0.553664
O16	O	1.182504	0.737079	-0.329942
O17	O	1.086107	0.737028	-0.426353
C18	C	0.930441	0.503431	-0.378166
C19	C	0.843191	0.503444	-0.378177
C20	C	0.802238	0.436706	-0.428470
C21	C	0.720257	0.436713	-0.428473
C22	C	0.679232	0.503463	-0.378188
C23	C	0.720192	0.570204	-0.327889
C24	C	0.802170	0.570191	-0.327882
C25	C	0.549321	0.570228	-0.327909
C26	C	0.467337	0.570242	-0.327917
C27	C	0.467408	0.436750	-0.428500
C28	C	0.549387	0.436737	-0.428493
C29	C	0.590341	0.503479	-0.378195
C30	C	1.134313	0.774971	-0.378159
C31	C	1.134352	0.891124	-0.378174
C32	C	1.086636	0.942918	-0.425845
C33	C	1.086675	1.062969	-0.425862
C34	C	1.339133	0.503492	-0.378202
C35	C	1.426383	0.503505	-0.378209
C36	C	1.134437	0.503384	-0.582928
C37	C	1.134457	0.503351	-0.670178
C38	C	1.134461	1.230891	-0.378216
C39	C	1.134427	1.114738	-0.378206
C40	C	1.184688	0.436516	-0.711184
C41	C	1.184698	0.436481	-0.793164
C42	C	1.134479	0.503288	-0.834137
C43	C	1.084242	0.570126	-0.793125
C44	C	1.084229	0.570155	-0.711146
C45	C	1.084274	0.570064	-0.963995
C46	C	1.084287	0.570036	-1.045980
C47	C	1.184742	0.436389	-1.046014
C48	C	1.184729	0.436418	-0.964035
C49	C	1.134493	0.503258	-0.923028
C50	C	1.134387	0.503462	-0.174236
C51	C	1.134519	0.503201	-0.086986
H52	H	0.434060	0.382404	-0.469452
H53	H	1.225603	0.382059	-0.826548
H54	H	1.045750	0.898387	-0.466642
H55	H	0.433936	0.624597	-0.286970
O56	O	1.233497	0.371520	-0.671508
C57	C	1.333165	0.238997	-0.680203
C58	C	1.277917	0.312538	-0.725230
H59	H	1.369104	0.191306	-0.723618
H60	H	1.297177	0.184292	-0.641847
H61	H	1.374154	0.287009	-0.641800
H62	H	1.236916	0.264610	-0.763676
H63	H	1.313953	0.367245	-0.763537
O64	O	0.842043	0.635074	-0.279139
C65	C	0.934536	0.776169	-0.268385
C66	C	0.889444	0.702741	-0.323679
H67	H	0.972858	0.830911	-0.304374
H68	H	0.972961	0.728170	-0.227414
H69	H	0.891120	0.823834	-0.232428
H70	H	0.932804	0.655060	-0.359687
H71	H	0.851008	0.750800	-0.364599
O72	O	1.233537	0.371426	-0.924353
C73	C	1.333209	0.238906	-0.933033
C74	C	1.277963	0.312441	-0.978069
H75	H	1.369153	0.191213	-0.976442
H76	H	1.297219	0.184205	-0.894677
H77	H	1.374194	0.286925	-0.894629
H78	H	1.236967	0.264507	-1.016515
H79	H	1.314001	0.367146	-1.016375
O80	O	0.680306	0.635157	-0.279153
C81	C	0.587684	0.776201	-0.268416
C82	C	0.632817	0.702720	-0.323697
H83	H	0.549266	0.830830	-0.304406
H84	H	0.631003	0.823975	-0.232480
H85	H	0.549329	0.728138	-0.227423
H86	H	0.671173	0.750703	-0.364737
H87	H	0.589456	0.654943	-0.359577
O88	O	1.035528	0.635237	-0.671341
C89	C	0.997344	0.813001	-0.646248
C90	C	1.052558	0.739414	-0.691364
H91	H	1.011082	0.897242	-0.662432
H92	H	1.005969	0.801632	-0.580610
H93	H	0.934058	0.794591	-0.662343
H94	H	1.115864	0.757778	-0.675334
H95	H	1.043865	0.750796	-0.756991
O96	O	0.589119	0.371799	-0.477365
C97	C	0.580543	0.239433	-0.577160
C98	C	0.535450	0.312908	-0.521843
H99	H	0.537172	0.191816	-0.613147
H100	H	0.618897	0.184657	-0.541225
H101	H	0.618954	0.287493	-0.618102
H102	H	0.496996	0.264932	-0.480889
H103	H	0.497145	0.367687	-0.557827
H104	H	1.175284	1.070204	-0.337394
O105	O	1.233458	0.371479	-1.085964
C106	C	1.278016	0.312219	-1.212272
C107	C	1.222796	0.385762	-1.167123
H108	H	1.269426	0.323757	-1.277897
H109	H	1.264252	0.227940	-1.196215
H110	H	1.341297	0.330567	-1.196121
H111	H	1.159497	0.367509	-1.183250
H112	H	1.236628	0.470019	-1.183183
O113	O	1.183044	0.944213	-0.329396
C114	C	1.221264	0.977897	-0.195948
C115	C	1.166058	0.917721	-0.251093
H116	H	1.207561	0.956484	-0.132629
H117	H	1.212592	1.065261	-0.204582
H118	H	1.284554	0.956439	-0.209819
H119	H	1.102746	0.939092	-0.237256
H120	H	1.174798	0.830372	-0.242449
O121	O	0.589139	0.634914	-0.278968
C122	C	0.681685	0.648796	-0.172993
C123	C	0.636628	0.575417	-0.228351
H124	H	0.720103	0.600723	-0.132066
H125	H	0.638317	0.696491	-0.136999
H126	H	0.720033	0.703512	-0.208976
H127	H	0.598278	0.520637	-0.192429
H128	H	0.680039	0.527795	-0.264347
H129	H	1.045826	1.107510	-0.466677
O130	O	0.841965	0.371768	-0.477346
C131	C	0.833373	0.239409	-0.577144
C132	C	0.788288	0.312884	-0.521819
H133	H	0.789995	0.191797	-0.613128
H134	H	0.871729	0.184628	-0.541215
H135	H	0.871781	0.287469	-0.618089
H136	H	0.749838	0.264908	-0.480863
H137	H	0.749982	0.367667	-0.557798
O138	O	1.035428	0.634960	-1.085661
C139	C	0.935814	0.767556	-1.076982
C140	C	0.991093	0.694066	-1.031946
H141	H	0.899967	0.815378	-1.033573
H142	H	0.894747	0.719601	-1.115345
H143	H	0.971852	0.822149	-1.115379
H144	H	0.955119	0.639459	-0.993506
H145	H	1.032163	0.742086	-0.993632
H146	H	0.686916	0.382371	-0.469428
O147	O	1.035590	0.635045	-0.924068
C148	C	1.024994	0.776200	-0.831513
C149	C	1.080205	0.702657	-0.876673
H150	H	1.061044	0.830897	-0.793196
H151	H	0.983974	0.728290	-0.793077
H152	H	0.989084	0.823907	-0.874885
H153	H	1.116166	0.654934	-0.833358
H154	H	1.121174	0.750627	-0.915120
O155	O	1.035346	0.634912	-0.832888
C156	C	0.901809	0.685656	-0.857904
C157	C	0.957093	0.612199	-0.812841
H158	H	0.838531	0.667333	-0.841701
H159	H	0.910379	0.674156	-0.923550
H160	H	0.915602	0.769919	-0.841779
H161	H	0.943334	0.527908	-0.828900
H162	H	0.948513	0.623789	-0.747206
