data_functionalizedCrystal
_audit_creation_method	'MofGen! by Chris Wilmer'
_symmetry_space_group_name_H-M	'P1'
_symmetry_Int_Tables_number	1
_symmetry_cell_setting	triclinic
loop_
_symmetry_equiv_pos_as_xyz
  x,y,z
_cell_length_a	15.698487
_cell_length_b	12.970454
_cell_length_c	12.970454
_cell_angle_alpha	59.999776
_cell_angle_beta	89.999559
_cell_angle_gamma	60.000777
loop_
_atom_site_label
_atom_site_type_symbol
_atom_site_fract_x
_atom_site_fract_y
_atom_site_fract_z
Zr1	Zr	0.820611	1.128544	-0.135320
O2	O	0.684598	1.343630	-0.299943
O3	O	0.862307	0.913455	-0.084854
O4	O	0.862308	1.128544	-0.299945
O5	O	0.684595	1.128541	0.084815
O6	O	1.002489	1.128548	-0.299947
O7	O	0.684596	1.128540	-0.084852
O8	O	1.002487	0.743792	0.084811
O9	O	0.684598	1.513297	-0.299943
O10	O	0.984705	1.001928	-0.063334
O11	O	0.880089	1.001926	0.063289
O12	O	0.880090	1.255166	-0.189953
O13	O	0.775474	1.255164	-0.063331
Zr14	Zr	1.044182	1.128552	0.135274
Zr15	Zr	1.044184	1.128551	-0.135324
Zr16	Zr	0.820610	1.128546	0.135278
Zr17	Zr	0.820611	1.399144	-0.135322
Zr18	Zr	1.044182	0.857952	0.135275
O19	O	1.002487	1.343641	0.084808
O20	O	1.002489	1.343639	-0.299949
O21	O	0.684595	1.343632	0.084814
O22	O	1.180196	0.913466	0.299896
O23	O	1.180198	0.913464	-0.084860
O24	O	0.862305	0.913457	0.299902
O25	O	1.180198	1.128555	-0.084861
O26	O	1.002486	1.128552	0.299899
O27	O	0.862305	1.128548	0.299901
O28	O	1.180197	1.128556	0.084806
O29	O	0.862308	1.513303	-0.299947
O30	O	1.002486	0.743793	0.299901
O31	O	1.180196	0.743799	0.299897
O32	O	1.180197	0.743797	0.084807
O33	O	0.684596	1.513299	-0.084854
O34	O	0.862307	1.513304	-0.084857
O35	O	0.984704	1.001930	0.189907
O36	O	1.089320	1.001932	0.063285
O37	O	0.984705	1.255170	-0.063335
O38	O	0.880089	1.255168	0.063287
C39	C	0.932397	0.790069	-0.000021
C40	C	0.932397	0.675192	-0.000021
C41	C	0.652742	1.128540	-0.000018
C42	C	0.557829	1.128537	-0.000016
C43	C	0.384044	1.128563	-0.000028
C44	C	0.480748	1.128554	-0.000024
C45	C	1.212052	1.128556	-0.000028
C46	C	1.306965	1.128559	-0.000030
C47	C	0.932399	1.128546	-0.338501
C48	C	0.932399	1.128546	-0.453377
C49	C	0.932397	1.467027	-0.000025
C50	C	0.932397	1.581904	-0.000025
C51	C	0.932395	1.128550	0.338454
C52	C	0.932394	1.128550	0.453331
C53	C	1.212052	0.790077	-0.000027
C54	C	1.306965	0.675203	-0.000028
C55	C	0.932395	0.790071	0.338456
C56	C	0.932394	0.675194	0.453333
C57	C	1.212050	0.790079	0.338451
C58	C	1.306962	0.675205	0.453326
C59	C	0.652744	1.467017	-0.338497
C60	C	0.557832	1.581891	-0.453372
C61	C	0.652742	1.467019	-0.000020
C62	C	0.557829	1.581893	-0.000018
C63	C	0.932399	1.467025	-0.338502
C64	C	0.932400	1.581902	-0.453379
C65	C	1.296929	0.621255	-0.066133
C66	C	1.386100	0.513334	-0.066160
C67	C	1.485307	0.459355	-0.000072
C68	C	1.495341	0.513313	0.066035
C69	C	1.406170	0.621240	0.066053
C70	C	1.406152	0.621261	0.441177
C71	C	1.495340	0.513340	0.549104
C72	C	1.485336	0.459359	0.669178
C73	C	1.386136	0.513314	0.681325
C74	C	1.296950	0.621240	0.573399
C75	C	0.458642	1.635848	-0.441223
C76	C	0.369454	1.743803	-0.549150
C77	C	0.379458	1.797790	-0.669225
C78	C	0.478658	1.743828	-0.681371
C79	C	0.567844	1.635883	-0.573446
C80	C	0.567865	1.635852	0.066076
C81	C	0.478693	1.743804	0.066072
C82	C	0.379487	1.797786	-0.000019
C83	C	0.369453	1.743822	-0.066121
C84	C	0.458623	1.635881	-0.066124
H85	H	1.216158	0.665203	-0.119965
O86	O	1.591738	0.460629	0.130400
C87	C	1.646577	0.309377	0.223119
H88	H	1.588695	0.279862	0.247676
H89	H	1.695909	0.278300	0.311398
H90	H	1.699469	0.247665	0.185261
H91	H	1.216189	0.665147	0.583309
O92	O	0.664212	1.583627	-0.585206
C93	C	0.719084	1.609970	-0.526712
H94	H	0.661228	1.704537	-0.521689
H95	H	0.768364	1.638604	-0.583982
H96	H	0.772031	1.508074	-0.427170
O97	O	1.376242	0.461077	0.797875
C98	C	1.269571	0.531797	0.785475
H99	H	1.221988	0.641207	0.689164
H100	H	1.257162	0.550380	0.862899
H101	H	1.243305	0.460994	0.794336
H102	H	0.450477	1.591898	-0.343462
H103	H	1.414356	0.665151	0.119891
O104	O	1.415969	0.673400	0.324588
C105	C	1.470939	0.558168	0.310806
H106	H	1.520204	0.450230	0.407987
H107	H	1.523904	0.574444	0.253947
H108	H	1.413161	0.556651	0.259339
O109	O	1.591754	0.460689	0.537460
C110	C	1.646619	0.309448	0.595920
H111	H	1.612579	0.263651	0.669491
H112	H	1.732439	0.253551	0.643832
H113	H	1.639207	0.288844	0.521713
O114	O	0.664282	1.583457	0.130095
C115	C	0.719126	1.609859	0.045234
H116	H	0.685079	1.623277	-0.041752
H117	H	0.804951	1.513993	0.093187
H118	H	0.711699	1.713654	0.015649
H119	H	1.377910	0.469414	-0.119992
H120	H	1.557907	0.371473	-0.000096
O121	O	1.571948	0.354701	0.774047
C122	C	1.571789	0.407426	0.846384
H123	H	1.521343	0.531700	0.783029
H124	H	1.654980	0.365049	0.890083
H125	H	1.538915	0.368165	0.924534
O126	O	0.273156	1.796221	-0.537174
C127	C	0.261733	1.858651	-0.470585
H128	H	0.342017	1.809890	-0.411027
H129	H	0.214844	1.834950	-0.406407
H130	H	0.219101	1.981591	-0.540474
H131	H	0.306828	1.885685	-0.757095
H132	H	0.288667	1.787792	-0.119930
H133	H	0.486790	1.787798	-0.779149
O134	O	0.488640	1.795995	0.130408
C135	C	0.595326	1.725204	0.188724
H136	H	0.642863	1.615808	0.201796
H137	H	0.607763	1.706588	0.284743
H138	H	0.621619	1.795972	0.126792
O139	O	0.292978	1.902589	0.000173
C140	C	0.323123	1.938651	0.072664
H141	H	0.405442	1.843976	0.142541
H142	H	0.266794	1.961071	0.126481
H143	H	0.321508	2.040065	0.007590
H144	H	0.450437	1.591950	-0.119942
