data_functionalizedCrystal
_audit_creation_method	'MofGen! by Chris Wilmer'
_symmetry_space_group_name_H-M	'P1'
_symmetry_Int_Tables_number	1
_symmetry_cell_setting	triclinic
loop_
_symmetry_equiv_pos_as_xyz
  x,y,z
_cell_length_a	21.295417
_cell_length_b	21.295418
_cell_length_c	21.295411
_cell_angle_alpha	90.047857
_cell_angle_beta	89.979403
_cell_angle_gamma	89.952090
loop_
_atom_site_label
_atom_site_type_symbol
_atom_site_fract_x
_atom_site_fract_y
_atom_site_fract_z
Zn1	Zn	-0.250375	-0.962359	-0.356307
Zn2	Zn	-0.355627	-0.962263	-0.251035
Zn3	Zn	-0.250409	-0.857083	-0.251010
Zn4	Zn	-0.355644	-0.857053	-0.356224
O5	O	-0.303014	-0.909690	-0.303644
O6	O	-0.264316	-1.050436	-0.342388
O7	O	-0.341677	-0.948283	-0.162942
O8	O	-0.162315	-0.871100	-0.265002
O9	O	-0.341644	-1.050365	-0.265045
O10	O	-0.162290	-0.948447	-0.342364
O11	O	-0.264373	-0.871007	-0.162924
O12	O	-0.264390	-0.768989	-0.264921
O13	O	-0.341672	-0.871051	-0.444324
O14	O	-0.341705	-0.768968	-0.342221
O15	O	-0.264332	-0.948418	-0.444386
O16	O	-0.443718	-0.948255	-0.264964
O17	O	-0.443731	-0.870957	-0.342245
C18	C	-0.303054	-0.746138	-0.303560
C19	C	-0.303086	-0.676170	-0.303538
C20	C	-0.343399	-0.643309	-0.343726
C21	C	-0.343386	-0.577566	-0.343750
C22	C	-0.303067	-0.544687	-0.303574
C23	C	-0.262746	-0.577557	-0.263384
C24	C	-0.262756	-0.643298	-0.263366
N25	N	-0.298144	-0.441411	-0.248509
N26	N	-0.298139	-0.378960	-0.248528
C27	C	-0.303035	-0.346613	-0.303627
N28	N	-0.307949	-0.379076	-0.358707
N29	N	-0.307958	-0.441533	-0.358688
C30	C	-0.303052	-0.473402	-0.303590
C31	C	-0.343336	-0.242466	-0.343843
C32	C	-0.343319	-0.176722	-0.343868
C33	C	-0.262683	-0.176714	-0.263497
C34	C	-0.262696	-0.242456	-0.263478
C35	C	-0.303027	-0.275328	-0.303650
C36	C	-0.466565	-0.909609	-0.303612
C37	C	-0.536533	-0.909633	-0.303619
C38	C	-0.569330	-0.949884	-0.343930
C39	C	-0.635072	-0.949906	-0.343946
C40	C	-0.668016	-0.909684	-0.303639
C41	C	-0.635211	-0.869425	-0.263325
C42	C	-0.569470	-0.869399	-0.263315
N43	N	-0.771270	-0.904924	-0.248546
N44	N	-0.833721	-0.904952	-0.248557
C45	C	-0.866090	-0.909757	-0.303668
N46	N	-0.833649	-0.914546	-0.358767
N47	N	-0.771192	-0.914521	-0.358755
C48	C	-0.739301	-0.909707	-0.303646
C49	C	-0.970173	-0.950035	-0.343999
C50	C	-1.035916	-0.950053	-0.344016
C51	C	-1.036054	-0.869574	-0.263389
C52	C	-0.970312	-0.869553	-0.263378
C53	C	-0.937375	-0.909787	-0.303682
C54	C	-0.138823	-0.909787	-0.303690
C55	C	-0.068855	-0.909829	-0.303709
C56	C	-0.303000	-0.909742	-0.467834
C57	C	-0.302995	-0.909764	-0.537802
C58	C	-0.302984	-0.073880	-0.303711
C59	C	-0.302999	-0.143848	-0.303693
C60	C	-0.262722	-0.950048	-0.570702
C61	C	-0.262694	-0.950047	-0.636445
C62	C	-0.302951	-0.909769	-0.669285
C63	C	-0.343227	-0.869478	-0.636377
C64	C	-0.343249	-0.869475	-0.570636
N65	N	-0.358021	-0.904913	-0.772499
N66	N	-0.357998	-0.904919	-0.834951
C67	C	-0.302887	-0.909773	-0.867360
N68	N	-0.247799	-0.914633	-0.834958
N69	N	-0.247822	-0.914630	-0.772501
C70	C	-0.302932	-0.909767	-0.740570
C71	C	-0.262581	-0.950058	-0.971545
C72	C	-0.262553	-0.950053	-1.037289
C73	C	-0.343092	-0.869487	-1.037220
C74	C	-0.343114	-0.869488	-0.971478
C75	C	-0.302860	-0.909778	-0.938644
C76	C	-0.302981	-0.909674	-0.140092
C77	C	-0.302810	-0.909774	-0.070125
H78	H	-0.376145	-0.149968	-0.376598
C79	C	-0.387194	-0.278192	-0.387359
C80	C	-0.427508	-0.315840	-0.351632
C81	C	-0.467923	-0.348751	-0.391696
H82	H	-0.363232	-0.303946	-0.414834
H83	H	-0.411234	-0.249222	-0.411289
H84	H	-0.403470	-0.344807	-0.327712
H85	H	-0.451484	-0.290102	-0.324158
H86	H	-0.491964	-0.319780	-0.415627
H87	H	-0.443956	-0.374500	-0.419170
H88	H	-0.495286	-0.374294	-0.367462
C89	C	-0.218804	-0.993816	-0.936005
C90	C	-0.183511	-1.029080	-0.978893
C91	C	-0.143170	-1.069389	-0.946179
H92	H	-0.242815	-1.021286	-0.910380
H93	H	-0.191359	-0.969764	-0.910353
H94	H	-0.210953	-1.053129	-1.004534
H95	H	-0.159487	-1.001626	-1.004519
H96	H	-0.115725	-1.045338	-0.920527
H97	H	-0.167187	-1.096855	-0.920555
H98	H	-0.119215	-1.093316	-0.975273
C99	C	-0.218869	-0.993753	-0.672095
C100	C	-0.156592	-0.980102	-0.656088
C101	C	-0.116204	-1.020356	-0.688909
H102	H	-0.224538	-0.988023	-0.715960
H103	H	-0.228042	-1.036051	-0.661341
H104	H	-0.147421	-0.937814	-0.666846
H105	H	-0.150902	-0.985835	-0.612229
H106	H	-0.125378	-1.062655	-0.678155
H107	H	-0.121879	-1.014624	-0.732772
H108	H	-0.073945	-1.011104	-0.678049
C109	C	-0.934813	-0.825834	-0.219535
C110	C	-0.977732	-0.790624	-0.184226
C111	C	-0.945054	-0.750346	-0.143825
H112	H	-0.909185	-0.798328	-0.243503
H113	H	-0.909167	-0.849906	-0.192102
H114	H	-1.003367	-0.766554	-0.211656
H115	H	-1.003361	-0.818113	-0.160246
H116	H	-0.919408	-0.774419	-0.116392
H117	H	-0.919427	-0.722845	-0.167797
H118	H	-0.974169	-0.726456	-0.119859
H119	H	-0.229851	-0.149945	-0.230788
C120	C	-0.218908	-0.278025	-0.219770
C121	C	-0.183605	-0.235163	-0.184579
C122	C	-0.143263	-0.267906	-0.144303
H123	H	-0.191464	-0.303727	-0.243823
H124	H	-0.242938	-0.303603	-0.192257
H125	H	-0.159577	-0.209596	-0.212088
H126	H	-0.211033	-0.209460	-0.160513
H127	H	-0.167293	-0.293484	-0.116790
H128	H	-0.115823	-0.293607	-0.168361
H129	H	-0.119310	-0.238829	-0.120417
H130	H	-0.542515	-0.982643	-0.376750
H131	H	-1.062876	-0.836821	-0.230575
C132	C	-1.071444	-0.993723	-0.387886
C133	C	-1.055423	-0.979999	-0.450149
C134	C	-1.088133	-1.020223	-0.490578
H135	H	-1.115325	-0.988017	-0.382209
H136	H	-1.060610	-1.036028	-0.378758
H137	H	-1.066262	-0.937705	-0.459273
H138	H	-1.011548	-0.985709	-0.455845
H139	H	-1.077298	-1.062528	-0.481450
H140	H	-1.132012	-1.014514	-0.484896
H141	H	-1.077262	-1.010921	-0.532828
C142	C	-0.218741	-0.993684	-1.073041
C143	C	-0.178374	-0.958065	-1.110737
C144	C	-0.137998	-0.998235	-1.143674
H145	H	-0.242729	-1.021110	-1.098764
H146	H	-0.194736	-1.017663	-1.044086
H147	H	-0.202376	-0.934096	-1.139689
H148	H	-0.154372	-0.930640	-1.085030
H149	H	-0.113993	-1.022215	-1.114718
H150	H	-0.161991	-1.025660	-1.169393
H151	H	-0.110600	-0.974073	-1.169250
H152	H	-0.661780	-0.982678	-0.376779
H153	H	-0.376043	-0.836668	-0.543849
H154	H	-0.662038	-0.836674	-0.230509
C155	C	-0.533972	-0.825674	-0.219475
C156	C	-0.576890	-0.790461	-0.184169
C157	C	-0.544211	-0.750181	-0.143770
H158	H	-0.508343	-0.798171	-0.243444
H159	H	-0.508327	-0.849745	-0.192040
H160	H	-0.602524	-0.766391	-0.211600
H161	H	-0.602520	-0.817947	-0.160186
H162	H	-0.518565	-0.774253	-0.116335
H163	H	-0.518583	-0.722682	-0.167744
H164	H	-0.573325	-0.726289	-0.119805
H165	H	-0.376238	-0.670069	-0.376439
H166	H	-0.375863	-0.836685	-1.063958
H167	H	-0.943354	-0.982793	-0.376819
C168	C	-0.219107	-0.993843	-0.535012
C169	C	-0.254738	-1.034179	-0.497299
C170	C	-0.214577	-1.074528	-0.464413
H171	H	-0.191689	-0.969834	-0.509305
H172	H	-0.195119	-1.017872	-0.563997
H173	H	-0.278715	-1.010153	-0.468317
H174	H	-0.282154	-1.058203	-0.522990
H175	H	-0.190588	-1.098556	-0.493398
H176	H	-0.187161	-1.050513	-0.438709
H177	H	-0.238746	-1.101904	-0.438825
H178	H	-0.376003	-0.836681	-0.663120
C179	C	-0.387222	-0.541991	-0.387412
C180	C	-0.422550	-0.584850	-0.422581
C181	C	-0.462941	-0.552104	-0.462804
H182	H	-0.363246	-0.516399	-0.414945
H183	H	-0.414643	-0.516304	-0.363302
H184	H	-0.395132	-0.610527	-0.446689
H185	H	-0.446539	-0.610444	-0.395064
H186	H	-0.490363	-0.526417	-0.438695
H187	H	-0.438961	-0.526513	-0.490334
H188	H	-0.486920	-0.581179	-0.486667
C189	C	-0.386913	-0.825730	-0.935867
C190	C	-0.422174	-0.790465	-0.978696
C191	C	-0.462533	-0.750150	-0.945915
H192	H	-0.362916	-0.798261	-0.910198
H193	H	-0.414378	-0.849778	-0.910253
H194	H	-0.394712	-0.766419	-1.004299
H195	H	-0.446183	-0.817918	-1.004366
H196	H	-0.489998	-0.774198	-0.920300
H197	H	-0.438531	-0.722685	-0.920247
H198	H	-0.486466	-0.726223	-0.974968
H199	H	-0.229917	-0.550783	-0.230674
H200	H	-0.229926	-0.670053	-0.230640
