data_functionalizedCrystal
_audit_creation_method	'MofGen! by Chris Wilmer'
_symmetry_space_group_name_H-M	'P1'
_symmetry_Int_Tables_number	1
_symmetry_cell_setting	triclinic
loop_
_symmetry_equiv_pos_as_xyz
  x,y,z
_cell_length_a	12.645331
_cell_length_b	12.759399
_cell_length_c	12.645323
_cell_angle_alpha	90.026803
_cell_angle_beta	89.977324
_cell_angle_gamma	89.985905
loop_
_atom_site_label
_atom_site_type_symbol
_atom_site_fract_x
_atom_site_fract_y
_atom_site_fract_z
Zn1	Zn	1.620750	0.418287	-0.599432
Zn2	Zn	1.620640	0.593990	-0.422166
Zn3	Zn	1.443465	0.418322	-0.422176
Zn4	Zn	1.443455	0.593921	-0.599382
O5	O	1.532077	0.506130	-0.510789
O6	O	1.769083	0.441608	-0.575934
O7	O	1.597095	0.570731	-0.273820
O8	O	1.467033	0.271296	-0.445715
O9	O	1.769002	0.570696	-0.445698
O10	O	1.597283	0.271270	-0.575944
O11	O	1.466926	0.441668	-0.273828
O12	O	1.295116	0.441602	-0.445666
O13	O	1.467015	0.570579	-0.747736
O14	O	1.295109	0.570614	-0.575858
O15	O	1.597273	0.441541	-0.747773
O16	O	1.597085	0.741002	-0.445649
O17	O	1.466908	0.740951	-0.575848
C18	C	1.532012	0.779097	-0.510765
C19	C	1.532082	0.895874	-0.510790
C20	C	1.256648	0.506105	-0.510758
C21	C	1.138818	0.506119	-0.510770
C22	C	1.532155	0.506049	-0.787294
C23	C	1.532189	0.506014	-0.905125
C24	C	0.971223	0.424585	-0.429319
C25	C	1.093783	0.424796	-0.428960
C26	C	1.094302	0.616795	-0.480252
C27	C	0.971704	0.616350	-0.479696
C28	C	0.971667	0.478032	-0.623055
C29	C	1.094273	0.475559	-0.622432
C30	C	1.808583	0.506156	-0.510820
C31	C	1.926413	0.506167	-0.510834
C32	C	1.532171	0.232097	-0.510836
C33	C	1.532212	0.115320	-0.510857
C34	C	1.599942	0.950727	-0.443072
C35	C	1.600010	1.060451	-0.443108
C36	C	1.464348	1.060459	-0.578582
C37	C	1.464286	0.950737	-0.578551
C38	C	1.725138	1.210329	-0.405387
C39	C	1.792989	1.265186	-0.337653
C40	C	1.809298	1.229639	-0.234219
C41	C	1.757740	1.139237	-0.198498
C42	C	1.689881	1.084385	-0.266226
C43	C	1.673592	1.119931	-0.369675
C44	C	1.339157	0.800857	-0.616260
C45	C	1.271292	0.746003	-0.683984
C46	C	1.254972	0.781548	-0.787421
C47	C	1.306511	0.871954	-0.823138
C48	C	1.374377	0.926808	-0.755414
C49	C	1.390698	0.891255	-0.651979
C50	C	1.449990	0.586809	-1.072665
C51	C	1.450206	0.587209	-0.950105
C52	C	1.643890	0.536063	-0.949643
C53	C	1.643439	0.536570	-1.072242
C54	C	1.503742	0.394718	-1.072326
C55	C	1.501250	0.395384	-0.949720
C56	C	1.532061	0.506135	-0.235359
C57	C	1.532233	0.505874	-0.117530
H58	H	0.941755	0.342268	-0.448242
C59	C	0.970043	0.376203	-0.245851
C60	C	0.929577	0.449394	-0.317713
H61	H	0.944326	0.391519	-0.176953
H62	H	1.045074	0.379647	-0.245970
H63	H	0.948157	0.307804	-0.265886
H64	H	0.951471	0.517792	-0.297681
H65	H	0.854530	0.445960	-0.317590
H66	H	0.942691	0.537453	-0.683791
H67	H	1.123880	0.342725	-0.448089
H68	H	1.123061	0.443391	-0.345799
H69	H	1.419048	0.372723	-0.920621
H70	H	1.416347	1.000418	-0.784505
C71	C	1.780399	0.414610	-1.025887
C72	C	1.728973	0.460460	-1.112318
H73	H	1.833209	0.367631	-1.050627
H74	H	1.730464	0.377331	-0.984260
H75	H	1.812417	0.467775	-0.984165
H76	H	1.696949	0.407295	-1.154036
H77	H	1.778916	0.497740	-1.153962
C78	C	1.020291	0.668057	-0.303717
C79	C	0.933026	0.648547	-0.368945
H80	H	0.996414	0.687926	-0.235340
H81	H	1.061508	0.723035	-0.333109
H82	H	1.062123	0.606432	-0.298451
H83	H	0.891198	0.710175	-0.374216
H84	H	0.891792	0.593564	-0.339545
H85	H	1.655147	0.906060	-0.387899
C86	C	1.218138	0.843789	-0.988743
C87	C	1.288582	0.911030	-0.936841
H88	H	1.207072	0.867911	-1.058941
H89	H	1.152653	0.842820	-0.951939
H90	H	1.246925	0.775037	-0.990565
H91	H	1.259791	0.979781	-0.935012
H92	H	1.354078	0.912011	-0.973654
H93	H	1.668452	0.616469	-0.918952
H94	H	1.647906	1.010780	-0.237144
H95	H	1.124933	0.530645	-0.686415
H96	H	0.942062	0.679192	-0.536479
C97	C	0.873730	0.383771	-0.755019
C98	C	0.929958	0.370985	-0.660528
H99	H	0.847976	0.317682	-0.778139
H100	H	0.919153	0.412334	-0.807438
H101	H	0.815915	0.429957	-0.743554
H102	H	0.987777	0.324806	-0.671995
H103	H	0.884531	0.342408	-0.608097
C104	C	1.099928	0.676191	-0.660306
C105	C	1.133687	0.701052	-0.557876
H106	H	1.124251	0.728204	-0.708227
H107	H	1.024880	0.673617	-0.661962
H108	H	1.127776	0.609896	-0.680200
H109	H	1.105833	0.767344	-0.537979
H110	H	1.208750	0.703638	-0.556217
C111	C	1.138567	0.634398	-0.808676
C112	C	1.180370	0.721253	-0.861865
H113	H	1.092520	0.597175	-0.854640
H114	H	1.100282	0.657445	-0.748353
H115	H	1.194552	0.589661	-0.786979
H116	H	1.124385	0.765994	-0.883556
H117	H	1.218656	0.698207	-0.922208
H118	H	1.229332	0.672385	-0.654897
H119	H	1.771016	1.110308	-0.114267
C120	C	1.803780	1.250843	-0.573312
C121	C	1.707222	1.249405	-0.519091
H122	H	1.792718	1.274977	-0.643506
H123	H	1.832543	1.182092	-0.575140
H124	H	1.851558	1.296450	-0.538071
H125	H	1.659447	1.203791	-0.554328
H126	H	1.678444	1.318167	-0.517268
H127	H	1.352448	0.771901	-0.532036
C128	C	1.404196	1.228660	-0.638774
C129	C	1.389818	1.120768	-0.653051
H130	H	1.358175	1.265888	-0.684743
H131	H	1.475415	1.246570	-0.654363
H132	H	1.388728	1.246692	-0.567533
H133	H	1.405293	1.102734	-0.724290
H134	H	1.318583	1.102851	-0.637469
H135	H	1.556775	0.331895	-0.919101
H136	H	1.423708	0.367327	-1.103231
H137	H	1.667588	0.617827	-1.100850
H138	H	1.563644	0.334418	-1.101342
H139	H	1.367376	0.568405	-0.920004
C140	C	1.093416	0.339020	-0.753155
C141	C	1.133534	0.365603	-0.653498
H142	H	1.117651	0.271133	-0.772324
H143	H	1.117057	0.388593	-0.803938
H144	H	1.018331	0.339289	-0.750780
H145	H	1.208620	0.365342	-0.655875
H146	H	1.109899	0.316017	-0.602702
H147	H	1.864546	1.274311	-0.179069
C148	C	1.341215	0.473107	-1.177790
C149	C	1.337834	0.561669	-1.112442
H150	H	1.271973	0.457591	-1.202355
H151	H	1.367802	0.415154	-1.138888
H152	H	1.386152	0.486523	-1.236457
H153	H	1.292903	0.548251	-1.053770
H154	H	1.311233	0.619635	-1.151346
H155	H	1.706810	0.478978	-0.920510
C156	C	1.470028	0.697484	-1.224868
C157	C	1.475137	0.697360	-1.114257
H158	H	1.485564	0.765731	-1.250543
H159	H	1.400994	0.677756	-1.246742
H160	H	1.520077	0.649058	-1.252335
H161	H	1.425082	0.745781	-1.086789
H162	H	1.544181	0.717101	-1.092374
H163	H	1.124959	0.641064	-0.399093
C164	C	1.391492	0.735585	-0.849038
C165	C	1.475654	0.698443	-0.910532
H166	H	1.407207	0.804262	-0.824618
H167	H	1.381247	0.690449	-0.790212
H168	H	1.328945	0.737249	-0.890589
H169	H	1.538199	0.696771	-0.868979
H170	H	1.485911	0.743591	-0.969366
H171	H	1.834968	1.338792	-0.366747
