data_functionalizedCrystal
_audit_creation_method	'MofGen! by Chris Wilmer'
_symmetry_space_group_name_H-M	'P1'
_symmetry_Int_Tables_number	1
_symmetry_cell_setting	triclinic
loop_
_symmetry_equiv_pos_as_xyz
  x,y,z
_cell_length_a	10.654550
_cell_length_b	16.109304
_cell_length_c	9.730223
_cell_angle_alpha	90.000164
_cell_angle_beta	90.000242
_cell_angle_gamma	83.973784
loop_
_atom_site_label
_atom_site_type_symbol
_atom_site_fract_x
_atom_site_fract_y
_atom_site_fract_z
O1	O	1.666257	0.116772	0.114178
O2	O	1.300628	0.127897	0.114202
O3	O	1.493485	0.001364	0.114190
O4	O	1.473400	0.243306	0.114190
O5	O	1.493471	0.001364	-0.114390
O6	O	1.300614	0.127897	-0.114378
O7	O	1.666244	0.116772	-0.114402
Zn8	Zn	1.483427	0.122335	-0.150682
Zn9	Zn	1.483445	0.122335	0.150482
O10	O	1.473387	0.243306	-0.114390
C11	C	1.253834	0.127080	-0.000084
C12	C	1.114424	0.124636	-0.000075
C13	C	1.033929	0.199138	-0.000079
C14	C	0.902939	0.196836	-0.000103
C15	C	0.932953	0.045526	-0.000113
C16	C	1.063940	0.047828	-0.000099
C17	C	1.492664	-0.029616	-0.000097
C18	C	1.490223	-0.121926	-0.000087
C19	C	1.484591	-0.334297	0.124507
C20	C	1.482286	-0.421031	0.124506
C21	C	1.482277	-0.421028	-0.124704
C22	C	1.484573	-0.334295	-0.124702
C23	C	1.485736	-0.290932	-0.000092
C24	C	1.481135	-0.464399	-0.000096
C25	C	1.478636	-0.558439	-0.000098
C26	C	1.488234	-0.196885	-0.000089
C27	C	1.713037	0.117589	-0.000112
C28	C	1.852447	0.120033	-0.000113
C29	C	1.474208	0.274285	-0.000100
C30	C	1.476649	0.366595	-0.000101
N31	N	1.483424	0.122334	-0.356218
C32	C	1.559566	0.173229	-0.428145
C33	C	1.559586	0.173224	-0.572027
C34	C	1.407313	0.071428	-0.572045
C35	C	1.407300	0.071429	-0.428165
N36	N	1.483458	0.122329	0.356019
H37	H	1.129483	-0.012843	-0.000100
H38	H	1.485534	-0.298993	0.225973
N39	N	1.481049	-0.467799	-0.259100
H40	H	1.479432	-0.529326	-0.240197
H41	H	1.559261	-0.458923	-0.313495
H42	H	1.075028	0.261680	-0.000070
N43	N	1.325212	0.016530	-0.649656
H44	H	1.263734	0.052350	-0.709356
H45	H	1.277058	-0.015707	-0.582172
H46	H	1.621590	0.214667	-0.630584
H47	H	0.837404	0.257503	-0.000109
H48	H	1.485499	-0.298985	-0.226172
H49	H	1.345295	0.029980	-0.369601
N50	N	0.878502	-0.037314	-0.000146
H51	H	0.783307	-0.027469	-0.000155
H52	H	0.907943	-0.069954	0.084588
N53	N	1.481130	-0.467810	0.258894
H54	H	1.482243	-0.427179	0.337828
H55	H	1.558008	-0.510070	0.264253
H56	H	1.621551	0.214680	-0.369570
