data_functionalizedCrystal
_audit_creation_method	'MofGen! by Chris Wilmer'
_symmetry_space_group_name_H-M	'P1'
_symmetry_Int_Tables_number	1
_symmetry_cell_setting	triclinic
loop_
_symmetry_equiv_pos_as_xyz
  x,y,z
_cell_length_a	23.532361
_cell_length_b	14.044220
_cell_length_c	13.101018
_cell_angle_alpha	93.664400
_cell_angle_beta	93.336227
_cell_angle_gamma	91.990727
loop_
_atom_site_label
_atom_site_type_symbol
_atom_site_fract_x
_atom_site_fract_y
_atom_site_fract_z
O1	O	0.764365	-0.109548	0.085114
O2	O	0.599403	-0.126234	0.085139
O3	O	0.679408	0.020069	0.085116
O4	O	0.684361	-0.255851	0.085136
O5	O	0.673661	0.009563	-0.085312
O6	O	0.593656	-0.136740	-0.085290
O7	O	0.758618	-0.120055	-0.085315
Zn8	Zn	0.675225	-0.130065	-0.112362
Zn9	Zn	0.682797	-0.116223	0.112185
O10	O	0.678614	-0.266357	-0.085293
C11	C	0.575291	-0.131069	-0.000073
C12	C	0.512005	-0.129812	-0.000064
C13	C	0.241595	-0.118590	0.092831
C14	C	0.301060	-0.119779	0.092833
O15	O	0.334481	-0.115491	0.171840
N16	N	0.327665	-0.126107	-0.000068
C17	C	0.294803	-0.131236	-0.092978
O18	O	0.322894	-0.136727	-0.171997
C19	C	0.235340	-0.130040	-0.092979
C20	C	0.208738	-0.123722	-0.000072
C21	C	0.214993	-0.112271	0.185730
C22	C	0.155532	-0.111084	0.185727
C23	C	0.122675	-0.116215	0.092825
C24	C	0.149278	-0.122534	-0.000075
C25	C	0.202480	-0.135162	-0.185888
C26	C	0.143013	-0.133965	-0.185881
C27	C	0.116411	-0.127647	-0.092974
C28	C	0.056960	-0.126479	-0.092980
N29	N	0.030354	-0.120151	-0.000079
C30	C	0.063212	-0.115019	0.092823
C31	C	0.419680	-0.133746	-0.092967
C32	C	0.479142	-0.134949	-0.092967
C33	C	0.485394	-0.123490	0.092844
C34	C	0.425931	-0.122294	0.092843
C35	C	0.393075	-0.127418	-0.000066
C36	C	-0.061659	-0.112527	0.092810
C37	C	-0.121125	-0.111344	0.092799
C38	C	-0.127372	-0.122798	-0.093012
C39	C	-0.067911	-0.123986	-0.093001
C40	C	-0.035056	-0.118847	-0.000082
O41	O	0.023502	-0.130760	-0.171947
O42	O	0.035114	-0.109517	0.171829
C43	C	0.674367	0.050109	-0.000098
C44	C	0.667901	0.155272	-0.000098
C45	C	0.782731	-0.115219	-0.000101
C46	C	0.846017	-0.116476	-0.000104
N47	N	0.670061	-0.139512	-0.265609
C48	C	0.683655	-0.296397	-0.000076
C49	C	0.690121	-0.401560	-0.000069
C50	C	0.656080	0.347820	-0.000082
C51	C	0.701939	0.405898	-0.000086
C52	C	0.695362	0.513038	-0.000076
C53	C	0.662656	0.240670	-0.000091
C54	C	0.694986	-0.093913	-0.525526
C55	C	0.663041	-0.152365	-0.474644
C56	C	0.666948	-0.145212	-0.358326
C57	C	0.691080	-0.101065	-0.641854
N58	N	0.687964	-0.106769	0.265433
H59	H	-0.142782	-0.106202	0.168458
H60	H	0.746143	0.375159	-0.000023
O61	O	0.603310	0.384332	-0.000030
C62	C	0.502189	0.350778	-0.000093
C63	C	0.561916	0.309288	-0.000123
H64	H	0.468704	0.290124	-0.000190
H65	H	0.499191	0.400821	0.071251
H66	H	0.494454	0.392112	-0.071397
H67	H	0.569690	0.267909	0.071133
H68	H	0.564884	0.259297	-0.071514
O69	O	0.626868	-0.218509	-0.526726
C70	C	0.557018	-0.346440	-0.515693
C71	C	0.597945	-0.271562	-0.456579
H72	H	0.533632	-0.389367	-0.459006
H73	H	0.524790	-0.308915	-0.565905
H74	H	0.582370	-0.396519	-0.565945
H75	H	0.572642	-0.221462	-0.406272
H76	H	0.630174	-0.309150	-0.406432
H77	H	-0.046251	-0.129150	-0.168654
O78	O	0.731046	-0.027782	-0.473165
C79	C	0.740579	0.109057	-0.351883
C80	C	0.699675	0.034223	-0.411122
H81	H	0.715230	0.159221	-0.301724
H82	H	0.772750	0.071493	-0.301591
H83	H	0.764041	0.151901	-0.408546
H84	H	0.676173	-0.008642	-0.354534
H85	H	0.667540	0.071845	-0.461429
O86	O	-0.029835	-0.107578	0.183162
C87	C	-0.029925	-0.096054	0.367458
C88	C	-0.066033	-0.101664	0.265211
H89	H	-0.059175	-0.091251	0.433822
H90	H	-0.003792	-0.162650	0.372180
H91	H	-0.000068	-0.030035	0.372061
H92	H	-0.095922	-0.167642	0.260540
H93	H	-0.092128	-0.035023	0.260532
H94	H	0.133878	-0.105934	0.261382
H95	H	0.404275	-0.117149	0.168496
O96	O	0.246819	-0.107323	0.276075
C97	C	0.246725	-0.095793	0.460371
C98	C	0.210620	-0.101402	0.358122
H99	H	0.217474	-0.090984	0.526733
H100	H	0.272856	-0.162391	0.465098
H101	H	0.276585	-0.029776	0.464974
H102	H	0.180728	-0.167378	0.353451
H103	H	0.184528	-0.034759	0.353439
H104	H	0.500796	-0.140109	-0.168621
O105	O	0.517374	-0.118629	0.183029
C106	C	0.585836	-0.195433	0.290893
C107	C	0.549658	-0.201047	0.188721
H108	H	0.611938	-0.262068	0.295538
H109	H	0.615716	-0.129438	0.295538
H110	H	0.556602	-0.190661	0.357282
H111	H	0.578849	-0.205856	0.122274
H112	H	0.519773	-0.267031	0.184165
O113	O	0.387830	-0.138616	-0.183292
C114	C	0.366567	-0.065932	-0.342095
C115	C	0.402679	-0.060315	-0.239852
H116	H	0.378551	-0.002624	-0.387843
H117	H	0.374884	-0.135264	-0.387966
H118	H	0.319498	-0.064037	-0.326130
H119	H	0.449760	-0.062171	-0.255723
H120	H	0.394314	0.009010	-0.194012
O121	O	0.228336	-0.141457	-0.276111
C122	C	0.289576	-0.231480	-0.383950
C123	C	0.260317	-0.224486	-0.281740
H124	H	0.315449	-0.298594	-0.388525
H125	H	0.255893	-0.234997	-0.450383
H126	H	0.319078	-0.165976	-0.388579
H127	H	0.230818	-0.289972	-0.277012
H128	H	0.294031	-0.220923	-0.215356
H129	H	0.116264	-0.138146	-0.261541
H130	H	-0.154135	-0.126980	-0.168651
