data_functionalizedCrystal
_audit_creation_method	'MofGen! by Chris Wilmer'
_symmetry_space_group_name_H-M	'P1'
_symmetry_Int_Tables_number	1
_symmetry_cell_setting	triclinic
loop_
_symmetry_equiv_pos_as_xyz
  x,y,z
_cell_length_a	21.295418
_cell_length_b	13.897448
_cell_length_c	21.295412
_cell_angle_alpha	90.025362
_cell_angle_beta	89.964379
_cell_angle_gamma	89.966493
loop_
_atom_site_label
_atom_site_type_symbol
_atom_site_fract_x
_atom_site_fract_y
_atom_site_fract_z
Zn1	Zn	0.962361	0.383627	-0.356259
Zn2	Zn	1.462361	0.883627	0.143741
Zn3	Zn	0.962302	0.544934	-0.250995
Zn4	Zn	1.462302	1.044934	0.249005
Zn5	Zn	0.857099	0.383699	-0.250969
Zn6	Zn	1.357099	0.883699	0.249031
Zn7	Zn	0.857077	0.544926	-0.356192
Zn8	Zn	1.357077	1.044926	0.143808
O9	O	0.909710	0.464296	-0.303604
O10	O	1.409710	0.964296	0.196396
O11	O	1.050443	0.404998	-0.342335
O12	O	1.550443	0.904998	0.157665
O13	O	0.948331	0.523579	-0.162902
O14	O	1.448331	1.023579	0.337098
O15	O	0.871097	0.248708	-0.264953
O16	O	1.371097	0.748708	0.235047
O17	O	1.050399	0.523509	-0.264998
O18	O	1.550399	1.023509	0.235002
O19	O	0.948432	0.248655	-0.342309
O20	O	1.448432	0.748655	0.157691
O21	O	0.871039	0.405120	-0.162883
O22	O	1.371039	0.905120	0.337117
O23	O	0.769007	0.405113	-0.264888
O24	O	1.269007	0.905113	0.235112
O25	O	0.871059	0.523496	-0.444290
O26	O	1.371059	1.023496	0.055710
O27	O	0.768991	0.523566	-0.342194
O28	O	1.268991	1.023566	0.157806
O29	O	0.948411	0.404990	-0.444340
O30	O	1.448411	0.904990	0.055660
O31	O	0.948310	0.679914	-0.264932
O32	O	1.448310	1.179914	0.235068
O33	O	0.871002	0.679909	-0.342220
O34	O	1.371002	1.179909	0.157780
C35	C	0.746158	0.464347	-0.303531
C36	C	1.246158	0.964347	0.196469
C37	C	0.676190	0.464392	-0.303515
C38	C	1.176190	0.964392	0.196485
C39	C	0.909664	0.714911	-0.303585
C40	C	1.409664	1.214911	0.196415
C41	C	0.909702	0.822125	-0.303599
C42	C	1.409702	1.322125	0.196401
C43	C	0.909739	0.464234	-0.467794
C44	C	1.409739	0.964234	0.032206
C45	C	0.909751	0.464208	-0.537762
C46	C	1.409751	0.964208	-0.037762
C47	C	0.643332	0.526152	-0.343709
C48	C	1.143332	1.026152	0.156291
C49	C	0.577589	0.526128	-0.343737
C50	C	1.077589	1.026128	0.156263
C51	C	0.544708	0.464355	-0.303560
C52	C	1.044708	0.964355	0.196440
C53	C	0.577574	0.402583	-0.263364
C54	C	1.077574	0.902583	0.236636
C55	C	0.643316	0.402601	-0.263342
C56	C	1.143316	0.902601	0.236658
N57	N	0.441439	0.456819	-0.248502
N58	N	0.941439	0.956819	0.251498
N59	N	0.378987	0.456807	-0.248526
N60	N	0.878987	0.956807	0.251474
C61	C	0.346633	0.464293	-0.303627
C62	C	0.846633	0.964293	0.196373
N63	N	0.379090	0.471811	-0.358706
N64	N	0.879090	0.971811	0.141294
N65	N	0.441547	0.471828	-0.358682
N66	N	0.941547	0.971828	0.141318
C67	C	0.473423	0.464327	-0.303581
C68	C	0.973423	0.964327	0.196419
C69	C	0.242489	0.526031	-0.343855
C70	C	0.742489	1.026031	0.156145
C71	C	0.176745	0.526000	-0.343884
C72	C	0.676745	1.026000	0.156116
C73	C	0.176732	0.402459	-0.263506
C74	C	0.676732	0.902459	0.236494
C75	C	0.242474	0.402485	-0.263482
C76	C	0.742474	0.902485	0.236518
C77	C	0.275349	0.464276	-0.303656
C78	C	0.775349	0.964276	0.196344
C79	C	1.073900	0.464246	-0.303677
C80	C	1.573900	0.964246	0.196323
C81	C	1.143869	0.464225	-0.303708
C82	C	1.643869	0.964225	0.196292
C83	C	0.909773	0.212703	-0.303636
C84	C	1.409773	0.712703	0.196364
C85	C	0.909800	0.105489	-0.303649
C86	C	1.409800	0.605489	0.196351
C87	C	0.909768	1.018420	-0.303638
C88	C	1.409768	1.518420	0.196362
C89	C	0.909730	0.909187	-0.303618
C90	C	1.409730	1.409187	0.196382
C91	C	0.950088	0.402349	-1.037247
C92	C	1.450088	0.902349	-0.537247
C93	C	0.950083	0.402372	-0.971505
C94	C	1.450083	0.902372	-0.471505
C95	C	0.909806	0.464080	-0.938602
C96	C	1.409806	0.964080	-0.438602
C97	C	0.869542	0.525787	-0.971447
C98	C	1.369542	1.025787	-0.471447
C99	C	0.869553	0.525769	-1.037188
C100	C	1.369553	1.025769	-0.537188
N101	N	0.854686	0.471526	-0.835355
N102	N	1.354686	0.971526	-0.335355
N103	N	0.854678	0.471537	-0.772904
N104	N	1.354678	0.971537	-0.272904
C105	C	0.909773	0.464140	-0.740527
C106	C	1.409773	0.964140	-0.240527
N107	N	0.964878	0.456712	-0.772961
N108	N	1.464878	0.956712	-0.272961
N109	N	0.964886	0.456696	-0.835418
N110	N	1.464886	0.956696	-0.335418
C111	C	0.909790	0.464107	-0.867316
C112	C	1.409790	0.964107	-0.367316
C113	C	0.950032	0.402468	-0.636404
C114	C	1.450032	0.902468	-0.136404
C115	C	0.950028	0.402498	-0.570660
C116	C	1.450028	0.902498	-0.070660
C117	C	0.869482	0.525907	-0.570604
C118	C	1.369482	1.025907	-0.070604
C119	C	0.869491	0.525882	-0.636347
C120	C	1.369491	1.025882	-0.136347
C121	C	0.909765	0.464157	-0.669243
C122	C	1.409765	0.964157	-0.169243
C123	C	0.909717	0.464289	-0.140052
C124	C	1.409717	0.964289	0.359948
C125	C	0.909827	0.464043	-0.070084
C126	C	1.409827	0.964043	0.429916
H127	H	0.670094	0.576466	-0.376422
H128	H	1.170094	1.076466	0.123578
H129	H	0.836766	0.576009	-1.063924
H130	H	1.336766	1.076009	-0.563924
F131	F	0.141741	0.336709	-0.220750
F132	F	0.641741	0.836709	0.279250
F133	F	0.992886	0.336762	-0.671417
F134	F	1.492886	0.836762	-0.171417
F135	F	0.542612	0.591864	-0.386518
F136	F	1.042612	1.091864	0.113482
H137	H	0.982868	0.352129	-0.944763
H138	H	1.482868	0.852129	-0.444763
H139	H	0.269257	0.576340	-0.376570
H140	H	0.769257	1.076340	0.123430
H141	H	0.149993	0.576291	-0.376618
H142	H	0.649993	1.076291	0.123382
F143	F	0.542579	0.336835	-0.220608
F144	F	1.042579	0.836835	0.279392
F145	F	0.992886	0.336835	-0.535713
F146	F	1.492886	0.836835	-0.035713
H147	H	0.670069	0.352306	-0.230611
H148	H	1.170069	0.852306	0.269389
H149	H	0.269228	0.352198	-0.230749
H150	H	0.769228	0.852198	0.269251
H151	H	0.982886	0.352092	-1.064027
H152	H	1.482886	0.852092	-0.564027
F153	F	0.826678	0.591463	-0.936429
F154	F	1.326678	1.091463	-0.436429
F155	F	0.826621	0.591591	-0.535591
F156	F	1.326621	1.091591	-0.035591
F157	F	0.826638	0.591545	-0.671296
F158	F	1.326638	1.091545	-0.171296
