data_functionalizedCrystal
_audit_creation_method	'MofGen! by Chris Wilmer'
_symmetry_space_group_name_H-M	'P1'
_symmetry_Int_Tables_number	1
_symmetry_cell_setting	triclinic
loop_
_symmetry_equiv_pos_as_xyz
  x,y,z
_cell_length_a	18.050590
_cell_length_b	18.050589
_cell_length_c	12.759393
_cell_angle_alpha	89.963816
_cell_angle_beta	89.994032
_cell_angle_gamma	90.009701
loop_
_atom_site_label
_atom_site_type_symbol
_atom_site_fract_x
_atom_site_fract_y
_atom_site_fract_z
Zn1	Zn	1.135381	-0.295830	-0.593598
Zn2	Zn	1.135294	-0.420040	-0.417904
Zn3	Zn	1.011186	-0.295845	-0.417975
Zn4	Zn	1.011165	-0.419959	-0.593584
O5	O	1.073257	-0.357919	-0.505765
O6	O	1.239294	-0.312334	-0.570268
O7	O	1.118803	-0.403606	-0.270892
O8	O	1.027706	-0.191919	-0.441308
O9	O	1.239230	-0.403591	-0.441186
O10	O	1.118952	-0.191908	-0.570337
O11	O	1.027621	-0.312360	-0.270945
O12	O	0.907259	-0.312282	-0.441294
O13	O	1.027671	-0.403453	-0.740607
O14	O	0.907244	-0.403468	-0.570313
O15	O	1.118932	-0.312256	-0.740617
O16	O	1.118783	-0.523954	-0.441172
O17	O	1.027586	-0.523895	-0.570244
C18	C	0.880305	-0.357868	-0.505810
C19	C	0.797759	-0.357864	-0.505855
C20	C	1.073193	-0.550871	-0.505722
C21	C	1.073234	-0.633417	-0.505738
C22	C	1.122956	-0.882248	-0.435665
C23	C	1.055196	-0.832906	-0.409887
C24	C	1.073327	-0.930537	-0.505819
C25	C	1.141036	-0.832797	-0.531508
C26	C	1.073285	-0.784552	-0.505776
C27	C	1.005532	-0.882283	-0.479991
C28	C	1.091418	-0.882178	-0.601657
C29	C	1.023611	-0.832859	-0.575914
C30	C	1.073352	-1.014635	-0.505840
C31	C	1.073252	-0.700455	-0.505755
C32	C	0.598321	-0.407593	-0.575848
C33	C	0.548921	-0.339874	-0.601704
C34	C	0.646629	-0.357906	-0.505803
C35	C	0.548947	-0.425663	-0.479947
C36	C	0.500643	-0.357952	-0.505756
C37	C	0.598316	-0.290151	-0.531709
C38	C	0.598345	-0.375986	-0.409907
C39	C	0.548968	-0.308220	-0.435727
C40	C	0.730727	-0.357880	-0.505834
C41	C	0.416547	-0.357970	-0.505726
C42	C	1.266962	-0.357970	-0.505720
C43	C	1.349508	-0.357992	-0.505701
C44	C	1.073309	-0.357844	-0.779799
C45	C	1.073331	-0.357812	-0.896575
C46	C	1.073341	-0.164213	-0.505832
C47	C	1.073377	-0.081667	-0.505861
C48	C	1.025869	-0.310291	-0.951464
C49	C	1.025887	-0.310269	-1.061188
C50	C	1.120833	-0.405288	-1.061125
C51	C	1.120811	-0.405314	-0.951403
C52	C	0.938343	-0.283674	-1.211171
C53	C	0.890889	-0.236142	-1.266064
C54	C	0.879513	-0.163683	-1.230486
C55	C	0.915602	-0.138741	-1.140018
C56	C	0.963062	-0.186269	-1.085131
C57	C	0.974424	-0.258738	-1.120707
C58	C	1.208356	-0.431902	-0.801418
C59	C	1.255820	-0.479426	-0.746529
C60	C	1.267204	-0.551887	-0.782105
C61	C	1.231128	-0.576826	-0.872577
C62	C	1.183663	-0.529301	-0.927466
C63	C	1.172278	-0.456842	-0.891882
C64	C	1.073248	-0.357940	-0.232798
C65	C	1.073370	-0.357763	-0.116022
H66	H	1.039872	-0.811261	-0.328820
H67	H	0.948236	-0.903927	-0.458154
H68	H	1.106762	-0.903839	-0.682700
H69	H	1.154289	-0.549612	-1.001135
H70	H	0.981576	-0.811310	-0.635223
C71	C	0.519588	-0.319232	-0.711224
H72	H	0.490633	-0.275411	-0.706557
H73	H	0.489893	-0.358520	-0.737444
H74	H	0.560150	-0.311018	-0.757237
H75	H	0.619911	-0.232851	-0.553650
C76	C	1.218413	-0.803438	-0.560894
H77	H	1.253625	-0.820360	-0.510994
H78	H	1.217737	-0.750817	-0.561298
H79	H	1.231618	-0.821043	-0.628513
H80	H	0.619994	-0.449539	-0.635150
C81	C	0.519869	-0.251421	-0.355682
H82	H	0.536865	-0.203349	-0.374205
H83	H	0.537540	-0.263837	-0.287784
H84	H	0.467243	-0.252027	-0.355697
H85	H	0.992449	-0.165960	-1.011476
H86	H	0.620071	-0.391283	-0.328854
C87	C	1.173069	-0.457528	-1.121434
H88	H	1.201329	-0.485836	-1.073026
H89	H	1.205447	-0.429114	-1.164236
H90	H	1.144655	-0.489872	-1.164233
C91	C	0.519640	-0.503042	-0.450435
H92	H	0.536544	-0.538265	-0.500293
H93	H	0.467019	-0.502384	-0.450008
H94	H	0.537289	-0.516220	-0.382805
C95	C	0.973631	-0.258053	-0.891157
H96	H	0.945362	-0.229756	-0.939566
H97	H	1.002038	-0.225710	-0.848356
H98	H	0.941251	-0.286474	-0.848357
C99	C	0.903123	-0.059019	-1.100924
H100	H	0.869694	-0.034284	-1.146574
H101	H	0.949043	-0.033316	-1.099896
H102	H	0.882925	-0.060273	-1.032188
C103	C	1.195721	-0.352239	-0.762172
H104	H	1.162246	-0.327524	-0.807777
H105	H	1.241575	-0.326420	-0.761037
H106	H	1.175501	-0.353642	-0.693455
C107	C	0.827312	-0.111400	-1.290865
H108	H	0.807447	-0.136632	-1.349834
H109	H	0.854192	-0.069157	-1.313844
H110	H	0.788081	-0.096171	-1.246165
C111	C	0.851187	-0.263578	-1.365567
H112	H	0.864747	-0.313546	-1.378886
H113	H	0.865213	-0.233562	-1.423441
H114	H	0.799104	-0.260562	-1.355750
C115	C	0.950850	-0.363381	-1.250305
H116	H	0.922568	-0.371421	-1.312051
H117	H	0.935794	-0.397453	-1.197678
H118	H	1.001907	-0.370439	-1.265353
C119	C	1.179606	-0.911551	-0.355494
H120	H	1.215894	-0.940472	-0.390602
H121	H	1.154915	-0.941276	-0.304919
H122	H	1.202969	-0.870979	-0.321513
C123	C	1.243648	-0.656531	-0.911715
H124	H	1.277077	-0.681265	-0.866064
H125	H	1.263849	-0.655243	-0.980441
H126	H	1.197740	-0.682264	-0.912768
C127	C	1.319416	-0.604162	-0.721727
H128	H	1.339273	-0.578935	-0.662749
H129	H	1.358642	-0.619394	-0.766425
H130	H	1.292533	-0.646407	-0.698743
H131	H	1.285203	-0.459111	-0.672870
