data_functionalizedCrystal
_audit_creation_method	'MofGen! by Chris Wilmer'
_symmetry_space_group_name_H-M	'P1'
_symmetry_Int_Tables_number	1
_symmetry_cell_setting	triclinic
loop_
_symmetry_equiv_pos_as_xyz
  x,y,z
_cell_length_a	10.967874
_cell_length_b	10.489741
_cell_length_c	9.482900
_cell_angle_alpha	99.430409
_cell_angle_beta	68.707142
_cell_angle_gamma	84.625916
loop_
_atom_site_label
_atom_site_type_symbol
_atom_site_fract_x
_atom_site_fract_y
_atom_site_fract_z
O1	O	1.746329	0.087452	-0.558387
O2	O	1.368078	0.120097	-0.463630
O3	O	1.565809	-0.082180	-0.513155
O4	O	1.548598	0.289729	-0.508861
O5	O	1.525647	-0.040934	-0.261303
O6	O	1.327915	0.161343	-0.211778
O7	O	1.706167	0.128699	-0.306535
Cu8	Cu	1.513374	0.148787	-0.236160
Cu9	Cu	1.560870	0.100008	-0.534004
O10	O	1.508436	0.330976	-0.257009
C11	C	1.299561	0.141461	-0.325570
C12	C	1.155240	0.143654	-0.289415
C13	C	1.111702	0.123265	-0.403763
C14	C	0.962539	0.125531	-0.366398
C15	C	1.544428	-0.109035	-0.386905
C16	C	1.540538	-0.250503	-0.385933
C17	C	1.414729	-0.313405	-0.354426
C18	C	1.454359	-0.387666	-0.245139
C19	C	1.493985	-0.428308	-0.493453
C20	C	1.580204	-0.322883	-0.276556
C21	C	1.619831	-0.363533	-0.524977
C22	C	1.659547	-0.437765	-0.415682
C23	C	1.774684	0.107334	-0.444598
C24	C	1.919007	0.105139	-0.480763
C25	C	1.529817	0.357830	-0.383263
C26	C	1.533708	0.499296	-0.384245
N27	N	1.479977	0.183094	-0.026675
N28	N	1.594278	0.065690	-0.743492
C29	C	1.551011	0.110121	0.027732
C30	C	1.523233	0.138675	0.202107
H31	H	0.889385	0.144673	-0.240830
H32	H	1.457478	-0.474249	-0.585104
H33	H	0.992156	0.086012	-0.606331
H34	H	1.616631	-0.277054	-0.184781
C35	C	1.659367	-0.001538	-0.082198
C36	C	1.630685	-0.119820	-0.038155
C37	C	1.730469	-0.222701	-0.139413
H38	H	1.742273	0.013324	-0.078191
H39	H	1.663586	-0.005967	-0.184776
H40	H	1.626481	-0.115390	0.064396
H41	H	1.547797	-0.134723	-0.042170
H42	H	1.734688	-0.227130	-0.241990
H43	H	1.813369	-0.207827	-0.135398
H44	H	1.711016	-0.302969	-0.109552
H45	H	1.082083	0.162795	-0.163856
H46	H	1.384384	-0.399268	-0.126821
C47	C	1.797557	-0.509299	-0.449874
C48	C	1.842034	-0.455196	-0.335972
C49	C	1.969150	-0.521071	-0.367398
H50	H	1.856661	-0.500481	-0.548466
H51	H	1.794504	-0.599509	-0.449835
H52	H	1.845096	-0.365008	-0.336026
H53	H	1.782966	-0.464014	-0.237369
H54	H	1.966096	-0.611281	-0.367360
H55	H	2.028242	-0.512249	-0.465993
H56	H	1.999338	-0.484380	-0.290114
H57	H	1.441844	0.222291	0.284617
C58	C	1.712883	-0.348067	-0.682854
C59	C	1.667252	-0.401593	-0.795918
C60	C	1.752917	-0.387351	-0.941379
H61	H	1.799547	-0.392495	-0.705627
H62	H	1.715262	-0.257657	-0.682065
H63	H	1.664887	-0.491986	-0.796711
H64	H	1.580599	-0.357177	-0.773197
H65	H	1.755297	-0.296941	-0.940590
H66	H	1.839577	-0.431779	-0.964135
H67	H	1.721962	-0.423654	-1.018108
H68	H	1.675657	-0.017934	0.174000
C69	C	1.209144	0.098017	-0.571209
C70	C	1.175888	0.195073	-0.642428
C71	C	1.265630	0.171871	-0.796675
H72	H	1.205281	0.014534	-0.624606
H73	H	1.296447	0.099948	-0.574129
H74	H	1.088607	0.193130	-0.639518
H75	H	1.179760	0.278567	-0.589077
H76	H	1.352934	0.173802	-0.799595
H77	H	1.261761	0.088386	-0.850057
H78	H	1.243086	0.237726	-0.845012
C79	C	1.276704	-0.241436	-0.319398
C80	C	1.190653	-0.252663	-0.172723
C81	C	1.063502	-0.186365	-0.140389
H82	H	1.245306	-0.278748	-0.395267
H83	H	1.280221	-0.151520	-0.321065
H84	H	1.187132	-0.342562	-0.171069
H85	H	1.222007	-0.215345	-0.096824
H86	H	1.067019	-0.096449	-0.142055
H87	H	1.032118	-0.223683	-0.216266
H88	H	1.005104	-0.193964	-0.040862
H89	H	1.398593	0.266705	0.055839
