data_functionalizedCrystal
_audit_creation_method	'MofGen! by Chris Wilmer'
_symmetry_space_group_name_H-M	'P1'
_symmetry_Int_Tables_number	1
_symmetry_cell_setting	triclinic
loop_
_symmetry_equiv_pos_as_xyz
  x,y,z
_cell_length_a	19.188905
_cell_length_b	19.188924
_cell_length_c	17.666332
_cell_angle_alpha	89.991448
_cell_angle_beta	89.983521
_cell_angle_gamma	83.138260
loop_
_atom_site_label
_atom_site_type_symbol
_atom_site_fract_x
_atom_site_fract_y
_atom_site_fract_z
O1	O	0.926159	0.087086	-0.063076
O2	O	1.426159	0.587086	0.436924
O3	O	0.722845	0.098838	-0.063051
O4	O	1.222845	0.598838	0.436949
O5	O	0.830371	-0.008694	-0.063056
O6	O	1.330371	0.491306	0.436944
O7	O	0.818632	0.194619	-0.063072
O8	O	1.318632	0.694619	0.436928
O9	O	0.830352	-0.008700	0.062841
O10	O	1.330352	0.491300	0.562841
O11	O	0.722826	0.098833	0.062846
O12	O	1.222826	0.598833	0.562846
O13	O	0.926140	0.087080	0.062820
O14	O	1.426140	0.587080	0.562820
Cu15	Cu	0.824481	0.092956	0.074328
Cu16	Cu	1.324481	0.592956	0.574328
Cu17	Cu	0.824503	0.092963	-0.074559
Cu18	Cu	1.324503	0.592963	0.425441
O19	O	0.818613	0.194613	0.062825
O20	O	1.318613	0.694613	0.562825
C21	C	0.696824	0.098458	-0.000099
C22	C	1.196824	0.598458	0.499901
C23	C	0.619318	0.097324	-0.000089
C24	C	1.119318	0.597324	0.499911
C25	C	0.582937	0.096783	-0.068718
C26	C	1.082937	0.596783	0.431282
C27	C	0.510113	0.095710	-0.068727
C28	C	1.010113	0.595710	0.431273
C29	C	0.473676	0.095164	-0.000104
C30	C	0.973676	0.595164	0.499896
C31	C	0.510066	0.095710	0.068533
C32	C	1.010066	0.595710	0.568533
C33	C	0.582887	0.096790	0.068541
C34	C	1.082887	0.596790	0.568541
N35	N	0.364649	0.053733	0.050969
N36	N	0.864649	0.553733	0.550969
N37	N	0.295472	0.052706	0.050957
N38	N	0.795472	0.552706	0.550957
C39	C	0.254269	0.091911	-0.000122
C40	C	0.754269	0.591911	0.499878
N41	N	0.284858	0.132175	-0.051201
N42	N	0.784858	0.632175	0.448799
N43	N	0.354042	0.133199	-0.051191
N44	N	0.854042	0.633199	0.448809
C45	C	0.394713	0.093993	-0.000104
C46	C	0.894713	0.593993	0.499896
C47	C	0.138924	0.090207	-0.068765
C48	C	0.638924	0.590207	0.431235
C49	C	0.066098	0.089139	-0.068772
C50	C	0.566098	0.589139	0.431228
C51	C	0.066053	0.089132	0.068491
C52	C	0.566053	0.589132	0.568491
C53	C	0.138876	0.090207	0.068495
C54	C	0.638876	0.590207	0.568495
C55	C	0.175308	0.090742	-0.000135
C56	C	0.675308	0.590742	0.499865
C57	C	0.829982	-0.034708	-0.000106
C58	C	1.329982	0.465292	0.499894
C59	C	0.828844	-0.112213	-0.000104
C60	C	1.328844	0.387787	0.499896
C61	C	0.828322	-0.148609	-0.068731
C62	C	1.328322	0.351391	0.431269
C63	C	0.827243	-0.221431	-0.068736
C64	C	1.327243	0.278569	0.431264
C65	C	0.826698	-0.257857	-0.000112
C66	C	1.326698	0.242143	0.499888
C67	C	0.827215	-0.221452	0.068524
C68	C	1.327215	0.278548	0.568524
C69	C	0.828288	-0.148630	0.068528
C70	C	1.328288	0.351370	0.568528
N71	N	0.864739	-0.377526	0.050959
N72	N	1.364739	0.122474	0.550959
N73	N	0.863721	-0.446704	0.050951
N74	N	1.363721	0.053296	0.550951
C75	C	0.823464	-0.477266	-0.000119
C76	C	1.323464	0.022734	0.499881
N77	N	0.784272	-0.436037	-0.051191
N78	N	1.284272	0.063963	0.448809
N79	N	0.785293	-0.366853	-0.051185
N80	N	1.285293	0.133147	0.448815
C81	C	0.825534	-0.336821	-0.000108
C82	C	1.325534	0.163179	0.499892
C83	C	0.821771	-0.592624	-0.068756
C84	C	1.321771	-0.092624	0.431244
C85	C	0.820686	-0.665448	-0.068759
C86	C	1.320686	-0.165448	0.431241
C87	C	0.820666	-0.665468	0.068504
C88	C	1.320666	-0.165468	0.568504
C89	C	0.821743	-0.592645	0.068504
C90	C	1.321743	-0.092645	0.568504
C91	C	0.822299	-0.556228	-0.000127
C92	C	1.322299	-0.056228	0.499873
C93	C	0.952160	0.087461	-0.000133
C94	C	1.452160	0.587461	0.499867
C95	C	1.029666	0.088594	-0.000148
C96	C	1.529666	0.588594	0.499852
C97	C	0.819002	0.220627	-0.000126
C98	C	1.319002	0.720627	0.499874
C99	C	0.820141	0.298132	-0.000133
C100	C	1.320141	0.798132	0.499867
N101	N	0.824471	0.092951	0.179048
N102	N	1.324471	0.592951	0.679048
N103	N	0.824519	0.092962	-0.179279
N104	N	1.324519	0.592962	0.320721
C105	C	0.872099	0.045358	0.218656
C106	C	1.372099	0.545358	0.718656
C107	C	0.872103	0.045355	0.297903
C108	C	1.372103	0.545355	0.797903
C109	C	0.824485	0.092956	0.337540
C110	C	1.324485	0.592956	0.837540
C111	C	0.776848	0.140552	0.297923
C112	C	1.276848	0.640552	0.797923
C113	C	0.776841	0.140549	0.218677
C114	C	1.276841	0.640549	0.718677
N115	N	0.815407	0.154764	0.461954
N116	N	1.315407	0.654764	0.961954
N117	N	0.815419	0.154765	0.537235
N118	N	1.315419	0.654765	1.037235
C119	C	0.824504	0.092966	0.576304
C120	C	1.324504	0.592966	1.076304
N121	N	0.833591	0.031165	0.537249
N122	N	1.333591	0.531165	1.037249
N123	N	0.833583	0.031165	0.461961
N124	N	1.333583	0.531165	0.961961
C125	C	0.824488	0.092964	0.423469
C126	C	1.324488	0.592964	0.923469
C127	C	0.872139	0.045366	0.701841
C128	C	1.372139	0.545366	1.201841
C129	C	0.872138	0.045362	0.781090
C130	C	1.372138	0.545362	1.281090
C131	C	0.776887	0.140565	0.781108
C132	C	1.276887	0.640565	1.281108
C133	C	0.776884	0.140563	0.701861
C134	C	1.276884	0.640563	1.201861
C135	C	0.824514	0.092964	0.662232
C136	C	1.324514	0.592964	1.162232
H137	H	0.036477	0.088702	-0.124659
H138	H	0.536477	0.588702	0.375341
H139	H	0.820217	-0.695125	0.124379
H140	H	1.320217	-0.195125	0.624379
H141	H	0.738076	0.179308	0.330199
H142	H	1.238076	0.679308	0.830199
H143	H	0.738055	0.179305	0.186427
H144	H	1.238055	0.679305	0.686427
H145	H	0.822174	-0.563012	0.124388
H146	H	1.322174	-0.063012	0.624388
Cl147	Cl	0.932012	-0.014476	0.652021
Cl148	Cl	1.432012	0.485524	1.152021
H149	H	0.826814	-0.251070	-0.124622
H150	H	1.326814	0.248930	0.375378
Cl151	Cl	0.931971	-0.014482	0.168837
Cl152	Cl	1.431971	0.485518	0.668837
Cl153	Cl	0.020252	0.088453	0.154761
Cl154	Cl	0.520252	0.588453	0.654761
Cl155	Cl	0.931984	-0.014480	0.347704
Cl156	Cl	1.431984	0.485520	0.847704
H157	H	0.910921	0.006602	0.813339
H158	H	1.410921	0.506602	1.313339
H159	H	0.168499	0.090644	0.124380
H160	H	0.668499	0.590644	0.624380
H161	H	0.738104	0.179320	0.669610
H162	H	1.238104	0.679320	1.169610
Cl163	Cl	0.628732	0.097458	-0.154995
Cl164	Cl	1.128732	0.597458	0.345005
Cl165	Cl	0.464367	0.095028	-0.155009
Cl166	Cl	0.964367	0.595028	0.344991
Cl167	Cl	0.829016	-0.102830	-0.155011
Cl168	Cl	1.329016	0.397170	0.344989
H169	H	0.738113	0.179320	0.813380
H170	H	1.238113	0.679320	1.313380
Cl171	Cl	0.828943	-0.102873	0.154808
Cl172	Cl	1.328943	0.397127	0.654808
H173	H	0.612508	0.097231	0.124428
H174	H	1.112508	0.597231	0.624428
Cl175	Cl	0.464259	0.095028	0.154802
Cl176	Cl	0.964259	0.595028	0.654802
Cl177	Cl	0.826525	-0.267243	0.154795
Cl178	Cl	1.326525	0.232757	0.654795
H179	H	0.168587	0.090650	-0.124648
H180	H	0.668587	0.590650	0.375352
H181	H	0.822219	-0.562971	-0.124640
H182	H	1.322219	-0.062971	0.375360
Cl183	Cl	0.820026	-0.711202	-0.155040
Cl184	Cl	1.320026	-0.211202	0.344960
