data_functionalizedCrystal
_audit_creation_method	'MofGen! by Chris Wilmer'
_symmetry_space_group_name_H-M	'P1'
_symmetry_Int_Tables_number	1
_symmetry_cell_setting	triclinic
loop_
_symmetry_equiv_pos_as_xyz
  x,y,z
_cell_length_a	15.298708
_cell_length_b	16.625545
_cell_length_c	15.296720
_cell_angle_alpha	99.644199
_cell_angle_beta	107.326883
_cell_angle_gamma	99.719649
loop_
_atom_site_label
_atom_site_type_symbol
_atom_site_fract_x
_atom_site_fract_y
_atom_site_fract_z
Zn1	Zn	1.330609	-0.158244	-0.280173
Zn2	Zn	1.357421	-0.264890	-0.124691
Zn3	Zn	1.202025	-0.158297	-0.151554
Zn4	Zn	1.175061	-0.321279	-0.307001
O5	O	1.266279	-0.225677	-0.215855
O6	O	1.464297	-0.148770	-0.237079
O7	O	1.359313	-0.227173	0.001870
O8	O	1.219145	-0.045450	-0.168631
O9	O	1.483995	-0.227122	-0.122847
O10	O	1.313615	-0.045411	-0.263127
O11	O	1.245144	-0.148860	-0.017866
O12	O	1.068317	-0.203538	-0.194644
O13	O	1.173190	-0.323228	-0.433567
O14	O	1.048507	-0.323280	-0.308850
O15	O	1.287470	-0.203448	-0.413857
O16	O	1.333167	-0.385210	-0.148860
O17	O	1.199188	-0.426638	-0.282802
C18	C	1.024670	-0.269534	-0.257574
C19	C	0.921305	-0.288319	-0.275443
C20	C	1.266183	-0.435181	-0.215843
C21	C	1.266222	-0.524798	-0.215854
C22	C	0.671023	-0.091659	-0.088367
C23	C	0.768140	-0.074005	-0.071579
C24	C	0.806436	-0.127582	-0.122543
C25	C	0.747606	-0.198816	-0.190299
C26	C	0.650479	-0.216469	-0.207094
C27	C	0.785892	-0.252392	-0.241271
C28	C	0.727062	-0.323626	-0.309027
C29	C	0.629944	-0.341275	-0.325818
C30	C	0.591648	-0.287698	-0.274854
C31	C	0.883019	-0.234739	-0.224475
C32	C	0.862474	-0.359549	-0.343203
C33	C	0.765358	-0.377203	-0.359991
C34	C	1.266255	-0.597577	-0.215867
C35	C	1.266305	-0.688880	-0.215878
C36	C	1.266351	-0.761650	-0.215881
C37	C	1.266401	-0.852958	-0.215891
C38	C	1.508831	-0.181650	-0.173974
C39	C	1.612192	-0.162889	-0.156126
C40	C	1.224331	-0.269622	-0.458395
C41	C	1.206456	-0.288349	-0.561751
C42	C	1.266397	-0.015355	-0.215883
C43	C	1.266447	0.074273	-0.215895
C44	C	1.394073	-0.091688	-0.812046
C45	C	1.410874	-0.074093	-0.714937
C46	C	1.359771	-0.127655	-0.676635
C47	C	1.291864	-0.198815	-0.735453
C48	C	1.275067	-0.216415	-0.832571
C49	C	1.240764	-0.252383	-0.697160
C50	C	1.172857	-0.323543	-0.755978
C51	C	1.156063	-0.341139	-0.853086
C52	C	1.207166	-0.287577	-0.891388
C53	C	1.257562	-0.234783	-0.600043
C54	C	1.138555	-0.359511	-0.620568
C55	C	1.121754	-0.377105	-0.717677
C56	C	1.308117	-0.181836	0.025751
C57	C	1.326173	-0.162849	0.129137
H58	H	0.885513	-0.113203	-0.108870
O59	O	1.449189	-0.033930	-0.853360
H60	H	1.499234	0.018507	-0.796149
H61	H	0.639832	-0.048041	-0.046884
H62	H	1.066463	-0.435044	-0.765580
O63	O	0.831596	0.002804	0.001518
H64	H	0.788655	0.037085	0.034150
O65	O	0.701933	-0.454065	-0.433039
H66	H	0.707964	-0.450213	-0.502832
H67	H	1.312851	-0.176844	-0.552162
O68	O	0.903772	-0.417338	-0.398178
H69	H	0.846547	-0.469828	-0.448125
H70	H	1.373455	-0.113326	-0.597564
O71	O	1.484112	0.002650	-0.651498
H72	H	1.516821	0.036942	-0.694444
O73	O	1.189040	-0.306557	-0.996132
H74	H	1.235984	-0.257355	-1.012878
O75	O	1.083423	-0.417286	-0.579274
H76	H	1.106502	-0.393088	-0.501866
H77	H	1.100776	-0.399087	-0.900972
O78	O	0.486896	-0.306741	-0.292969
H79	H	0.470155	-0.257516	-0.246147
H80	H	0.930908	-0.176738	-0.169310
O81	O	0.566510	-0.418195	-0.398763
H82	H	0.609462	-0.452525	-0.431325
