data_functionalizedCrystal
_audit_creation_method	'MofGen! by Chris Wilmer'
_symmetry_space_group_name_H-M	'P1'
_symmetry_Int_Tables_number	1
_symmetry_cell_setting	triclinic
loop_
_symmetry_equiv_pos_as_xyz
  x,y,z
_cell_length_a	12.827893
_cell_length_b	19.121063
_cell_length_c	12.827885
_cell_angle_alpha	92.403967
_cell_angle_beta	89.980918
_cell_angle_gamma	92.469061
loop_
_atom_site_label
_atom_site_type_symbol
_atom_site_fract_x
_atom_site_fract_y
_atom_site_fract_z
Zn1	Zn	1.579836	-0.279576	-0.608533
Zn2	Zn	1.572237	-0.397043	-0.441226
Zn3	Zn	1.405075	-0.279610	-0.433810
Zn4	Zn	1.397573	-0.396991	-0.615924
O5	O	1.488680	-0.338305	-0.524873
O6	O	1.725063	-0.295165	-0.586351
O7	O	1.550022	-0.381501	-0.294009
O8	O	1.434577	-0.181322	-0.450791
O9	O	1.719480	-0.381468	-0.463431
O10	O	1.562973	-0.181296	-0.579159
O11	O	1.427209	-0.295224	-0.288560
O12	O	1.257844	-0.295174	-0.457957
O13	O	1.421791	-0.381379	-0.761177
O14	O	1.252332	-0.381413	-0.591755
O15	O	1.555699	-0.295115	-0.755748
O16	O	1.542747	-0.495320	-0.470597
O17	O	1.414422	-0.495282	-0.598946
C18	C	1.217171	-0.338292	-0.524854
C19	C	1.101017	-0.338303	-0.524871
C20	C	0.926483	-0.381054	-0.591001
C21	C	1.046534	-0.381044	-0.590985
C22	C	1.476974	-0.520785	-0.536401
C23	C	1.472062	-0.598850	-0.541368
C24	C	1.536618	-0.635522	-0.476932
C25	C	1.532005	-0.708873	-0.481609
C26	C	1.462829	-0.745551	-0.550718
C27	C	1.398270	-0.708874	-0.615161
C28	C	1.402890	-0.635524	-0.610488
C29	C	1.445540	-0.967020	-0.568172
C30	C	1.440923	-1.040375	-0.572837
C31	C	1.574660	-1.040369	-0.439286
C32	C	1.579269	-0.967018	-0.434615
C33	C	1.514714	-0.930347	-0.499062
C34	C	1.458109	-0.820528	-0.555498
C35	C	1.519440	-0.855372	-0.494287
C36	C	1.761249	-0.338318	-0.524894
C37	C	1.877402	-0.338324	-0.524903
C38	C	1.488755	-0.338237	-0.797439
C39	C	1.488787	-0.338209	-0.913591
C40	C	1.500460	-0.155112	-0.513323
C41	C	1.505480	-0.077047	-0.508401
C42	C	1.555057	-0.295514	-0.962688
C43	C	1.555092	-0.295483	-1.082737
C44	C	1.488668	-0.338321	-0.253364
C45	C	1.488851	-0.338152	-0.137201
H46	H	1.058805	-0.301716	-0.468283
N47	N	0.936191	-0.292418	-0.453907
N48	N	0.999997	-0.247727	-0.488012
H49	H	1.041517	-0.215303	-0.437871
H50	H	0.879626	-0.417648	-0.647599
H51	H	1.088753	-0.417623	-0.647579
H52	H	1.592944	-0.605664	-0.420652
H53	H	1.584573	-0.738729	-0.429138
N54	N	1.590082	-0.817911	-0.423678
N55	N	1.582671	-0.826154	-0.327769
H56	H	1.632558	-0.799692	-0.277896
H57	H	1.635597	-0.937156	-0.378342
H58	H	1.401784	-0.850399	-0.611764
H59	H	1.627218	-1.070234	-0.386819
N60	N	1.370244	-1.077831	-0.643432
N61	N	1.312607	-1.045082	-0.700963
H62	H	1.262688	-1.071535	-0.750814
N63	N	1.379594	-0.929579	-0.634007
N64	N	1.317834	-0.962338	-0.695702
H65	H	1.271255	-0.935893	-0.742202
H66	H	1.611763	-0.258982	-0.915847
N67	N	1.327608	-0.746349	-0.685741
N68	N	1.258458	-0.787335	-0.651520
H69	H	1.208548	-0.813803	-0.701366
N70	N	1.417653	-0.384001	-1.084236
N71	N	1.321518	-0.379337	-1.096044
H72	H	1.271232	-0.411716	-1.058631
N73	N	1.336947	-0.598073	-0.676322
N74	N	1.275189	-0.630827	-0.738025
H75	H	1.228617	-0.604379	-0.784527
N76	N	1.626271	-0.249636	-1.135725
N77	N	1.626202	-0.249678	-1.233169
H78	H	1.676475	-0.217297	-1.270596
N79	N	1.417635	-0.384042	-0.972326
N80	N	1.355329	-0.424181	-0.926228
H81	H	1.305072	-0.456552	-0.967706
