data_functionalizedCrystal
_audit_creation_method	'MofGen! by Chris Wilmer'
_symmetry_space_group_name_H-M	'P1'
_symmetry_Int_Tables_number	1
_symmetry_cell_setting	triclinic
loop_
_symmetry_equiv_pos_as_xyz
  x,y,z
_cell_length_a	21.395362
_cell_length_b	19.805404
_cell_length_c	21.395356
_cell_angle_alpha	89.970424
_cell_angle_beta	89.957023
_cell_angle_gamma	90.045228
loop_
_atom_site_label
_atom_site_type_symbol
_atom_site_fract_x
_atom_site_fract_y
_atom_site_fract_z
Zn1	Zn	0.957859	-0.269193	-0.354577
Zn2	Zn	1.457859	0.230807	0.145423
Zn3	Zn	0.957766	-0.382381	-0.249796
Zn4	Zn	1.457766	0.117619	0.250204
Zn5	Zn	0.853076	-0.269243	-0.249779
Zn6	Zn	1.353076	0.230757	0.250221
Zn7	Zn	0.853046	-0.382377	-0.354501
Zn8	Zn	1.353046	0.117623	0.145499
O9	O	0.905437	-0.325799	-0.302163
O10	O	1.405437	0.174201	0.197837
O11	O	1.045525	-0.284189	-0.340717
O12	O	1.545525	0.215811	0.159283
O13	O	0.943852	-0.367396	-0.162116
O14	O	1.443852	0.132604	0.337884
O15	O	0.867028	-0.174520	-0.263705
O16	O	1.367028	0.325480	0.236295
O17	O	1.045456	-0.367348	-0.263735
O18	O	1.545456	0.132652	0.236265
O19	O	0.944011	-0.174483	-0.340700
O20	O	1.444011	0.325517	0.159300
O21	O	0.866937	-0.284274	-0.162103
O22	O	1.366937	0.215726	0.337897
O23	O	0.765394	-0.284270	-0.263631
O24	O	1.265394	0.215730	0.236369
O25	O	0.866976	-0.367341	-0.442189
O26	O	1.366976	0.132659	0.057811
O27	O	0.765372	-0.367389	-0.340570
O28	O	1.265372	0.132611	0.159430
O29	O	0.943982	-0.284185	-0.442245
O30	O	1.443982	0.215815	0.057755
O31	O	0.943823	-0.477097	-0.263661
O32	O	1.443823	0.022903	0.236339
O33	O	0.866886	-0.477094	-0.340587
O34	O	1.366886	0.022906	0.159413
C35	C	0.742649	-0.325835	-0.302091
C36	C	1.242649	0.174165	0.197909
C37	C	0.673008	-0.325866	-0.302074
C38	C	1.173008	0.174134	0.197926
C39	C	0.640300	-0.369204	-0.342077
C40	C	1.140300	0.130796	0.157923
C41	C	0.574864	-0.369187	-0.342105
C42	C	1.074864	0.130813	0.157895
C43	C	0.542140	-0.325840	-0.302119
C44	C	1.042140	0.174160	0.197881
C45	C	0.574856	-0.282494	-0.262114
C46	C	1.074856	0.217506	0.237886
C47	C	0.640290	-0.282507	-0.262092
C48	C	1.140290	0.217493	0.237908
C49	C	0.438416	-0.320397	-0.245714
C50	C	0.938416	0.179603	0.254286
C51	C	0.372983	-0.320389	-0.245735
C52	C	0.872983	0.179611	0.254265
C53	C	0.340319	-0.325796	-0.302188
C54	C	0.840319	0.174204	0.197812
C55	C	0.373096	-0.331226	-0.358622
C56	C	0.873096	0.168774	0.141378
C57	C	0.438530	-0.331239	-0.358599
C58	C	0.938530	0.168761	0.141401
C59	C	0.471187	-0.325821	-0.302139
C60	C	0.971187	0.174179	0.197861
C61	C	0.236658	-0.369118	-0.342224
C62	C	0.736658	0.130882	0.157776
C63	C	0.171222	-0.369096	-0.342253
C64	C	0.671222	0.130904	0.157747
C65	C	0.171214	-0.282407	-0.262257
C66	C	0.671214	0.217593	0.237743
C67	C	0.236650	-0.282425	-0.262234
C68	C	0.736650	0.217575	0.237766
C69	C	0.269368	-0.325784	-0.302216
C70	C	0.769368	0.174216	0.197784
C71	C	0.905358	-0.501655	-0.302132
C72	C	1.405358	-0.001655	0.197868
C73	C	0.905382	-0.576887	-0.302139
C74	C	1.405382	-0.076887	0.197861
C75	C	0.945608	-1.038600	-0.342343
C76	C	1.445608	-0.538600	0.157657
C77	C	0.945583	-0.967911	-0.342329
C78	C	1.445583	-0.467911	0.157671
C79	C	0.905521	-0.932648	-0.302202
C80	C	1.405521	-0.432648	0.197798
C81	C	0.865486	-0.968078	-0.262083
C82	C	1.365486	-0.468078	0.237917
C83	C	0.865514	-1.038765	-0.262095
C84	C	1.365514	-0.538765	0.237905
C85	C	0.865371	-0.683004	-0.262035
C86	C	1.365371	-0.183004	0.237965
C87	C	0.865345	-0.612312	-0.262027
C88	C	1.365345	-0.112312	0.237973
C89	C	0.945440	-0.612151	-0.342268
C90	C	1.445440	-0.112151	0.157732
C91	C	0.945468	-0.682838	-0.342280
C92	C	1.445468	-0.182838	0.157720
C93	C	0.905436	-0.718261	-0.302159
C94	C	1.405436	-0.218261	0.197841
C95	C	0.905464	-0.794910	-0.302174
C96	C	1.405464	-0.294910	0.197826
C97	C	0.905489	-0.856001	-0.302190
C98	C	1.405489	-0.356001	0.197810
C99	C	1.068860	-0.325763	-0.302237
C100	C	1.568860	0.174237	0.197763
C101	C	1.138502	-0.325748	-0.302268
C102	C	1.638502	0.174252	0.197732
C103	C	0.905486	-0.325757	-0.465587
C104	C	1.405486	0.174243	0.034413
C105	C	0.905507	-0.325739	-0.535228
C106	C	1.405507	0.174261	-0.035228
C107	C	0.905533	-0.149256	-0.302209
C108	C	1.405533	0.350744	0.197791
C109	C	0.905574	-0.074024	-0.302228
C110	C	1.405574	0.425976	0.197772
C111	C	0.865468	-0.282452	-0.567925
C112	C	1.365468	0.217548	-0.067925
C113	C	0.865466	-0.282440	-0.633360
C114	C	1.365466	0.217560	-0.133360
C115	C	0.905514	-0.325707	-0.666096
C116	C	1.405514	0.174293	-0.166096
C117	C	0.945556	-0.369002	-0.633392
C118	C	1.445556	0.130998	-0.133392
C119	C	0.945553	-0.369018	-0.567958
C120	C	1.445553	0.130982	-0.067958
C121	C	0.961966	-0.331011	-0.769802
C122	C	1.461966	0.168989	-0.269802
C123	C	0.961971	-0.330990	-0.835235
C124	C	1.461971	0.169010	-0.335235
C125	C	0.905525	-0.325661	-0.867917
C126	C	1.405525	0.174339	-0.367917
C127	C	0.849072	-0.320338	-0.835159
C128	C	1.349072	0.179662	-0.335159
C129	C	0.849069	-0.320354	-0.769725
C130	C	1.349069	0.179646	-0.269725
C131	C	0.905522	-0.325694	-0.737049
C132	C	1.405522	0.174306	-0.237049
C133	C	0.865480	-0.282358	-0.971566
C134	C	1.365480	0.217642	-0.471566
C135	C	0.865477	-0.282351	-1.037003
C136	C	1.365477	0.217649	-0.537003
C137	C	0.945572	-0.368909	-1.037034
C138	C	1.445572	0.131091	-0.537034
C139	C	0.945570	-0.368921	-0.971598
C140	C	1.445570	0.131079	-0.471598
C141	C	0.905524	-0.325642	-0.938869
C142	C	1.405524	0.174358	-0.438869
C143	C	0.905424	-0.325792	-0.139376
C144	C	1.405424	0.174208	0.360624
C145	C	0.905524	-0.325619	-0.069735
C146	C	1.405524	0.174381	0.430265
H147	H	0.548207	-0.247200	-0.229559
H148	H	1.048207	0.252800	0.270441
H149	H	0.263299	-0.404420	-0.374784
H150	H	0.763299	0.095580	0.125216
H151	H	0.144571	-0.247110	-0.229703
H152	H	0.644571	0.252890	0.270297
O153	O	0.675575	-0.235776	-0.218933
O154	O	1.175575	0.264224	0.281067
H155	H	0.641829	-0.205635	-0.191127
H156	H	1.141829	0.294365	0.308873
H157	H	0.832867	-0.247104	-1.063623
H158	H	1.332867	0.252896	-0.563623
H159	H	0.978039	-0.583302	-0.374935
H160	H	1.478039	-0.083302	0.125065
H161	H	0.144592	-0.404386	-0.374832
H162	H	0.644592	0.095614	0.125168
H163	H	0.978088	-0.711546	-0.374957
H164	H	1.478088	-0.211546	0.125043
O165	O	0.822142	-0.574274	-0.218738
O166	O	1.322142	-0.074274	0.281262
H167	H	0.794316	-0.610781	-0.190835
H168	H	1.294316	-0.110781	0.309165
H169	H	0.548228	-0.404477	-0.374682
H170	H	1.048228	0.095523	0.125318
H171	H	1.007938	-0.335321	-0.861902
H172	H	1.507938	0.164679	-0.361902
H173	H	0.263281	-0.247138	-0.229656
H174	H	0.763281	0.252862	0.270344
H175	H	1.007935	-0.335345	-0.743197
H176	H	1.507935	0.164655	-0.243197
O177	O	0.988771	-0.415597	-0.936332
O178	O	1.488771	0.084403	-0.436332
H179	H	0.978006	-0.468720	-0.948872
H180	H	1.478006	0.031280	-0.448872
O181	O	0.822189	-0.721202	-0.218766
O182	O	1.322189	-0.221202	0.281234
H183	H	0.828941	-0.776280	-0.225507
H184	H	1.328941	-0.276280	0.274493
H185	H	0.832869	-0.939362	-0.229408
H186	H	1.332869	-0.439362	0.270592
H187	H	0.465005	-0.315991	-0.199740
H188	H	0.965005	0.184009	0.300260
O189	O	0.337631	-0.314530	-0.184873
O190	O	0.837631	0.185470	0.315127
H191	H	0.371336	-0.310756	-0.145615
H192	H	0.871336	0.189244	0.354385
H193	H	0.978163	-0.404230	-0.660050
H194	H	1.478163	0.095770	-0.160050
O195	O	0.988818	-1.076633	-0.385621
O196	O	1.488818	-0.576633	0.114379
H197	H	1.016656	-1.040122	-0.413508
H198	H	1.516656	-0.540122	0.086492
O199	O	0.822333	-1.076978	-0.218832
O200	O	1.322333	-0.576978	0.281168
H201	H	0.794466	-1.040583	-0.190932
H202	H	1.294466	-0.540583	0.309068
H203	H	0.978181	-0.939069	-0.374992
H204	H	1.478181	-0.439069	0.125008
O205	O	0.473886	-0.337080	-0.419462
O206	O	0.973886	0.162920	0.080538
H207	H	0.440185	-0.340832	-0.458724
H208	H	0.940185	0.159168	0.041276
O209	O	0.822283	-0.235771	-0.532621
O210	O	1.322283	0.264229	-0.032621
H211	H	0.794440	-0.205669	-0.566355
H212	H	1.294440	0.294331	-0.066355
H213	H	0.832862	-0.247187	-0.659987
H214	H	1.332862	0.252813	-0.159987
O215	O	0.788187	-0.314609	-0.734389
O216	O	1.288187	0.185391	-0.234389
H217	H	0.748934	-0.310900	-0.768103
H218	H	1.248934	0.189100	-0.268103
H219	H	0.666935	-0.404509	-0.374635
H220	H	1.166935	0.095491	0.125365
O221	O	0.788183	-0.314596	-0.870397
O222	O	1.288183	0.185404	-0.370397
H223	H	0.797665	-0.315489	-0.921401
H224	H	1.297665	0.184511	-0.421401
H225	H	0.832872	-0.247119	-0.944916
H226	H	1.332872	0.252881	-0.444916
O227	O	0.988770	-0.415577	-1.072332
O228	O	1.488770	0.084423	-0.572332
H229	H	0.982049	-0.408292	-1.123326
H230	H	1.482049	0.091708	-0.623326
O231	O	0.988749	-0.415696	-0.532686
O232	O	1.488749	0.084304	-0.032686
H233	H	1.016602	-0.445778	-0.566440
H234	H	1.516602	0.054222	-0.066440
H235	H	0.346503	-0.335627	-0.404591
H236	H	0.846503	0.164373	0.095409
