data_functionalizedCrystal
_audit_creation_method	'MofGen! by Chris Wilmer'
_symmetry_space_group_name_H-M	'P1'
_symmetry_Int_Tables_number	1
_symmetry_cell_setting	triclinic
loop_
_symmetry_equiv_pos_as_xyz
  x,y,z
_cell_length_a	14.519709
_cell_length_b	14.519731
_cell_length_c	7.088929
_cell_angle_alpha	83.763267
_cell_angle_beta	96.220807
_cell_angle_gamma	83.684499
loop_
_atom_site_label
_atom_site_type_symbol
_atom_site_fract_x
_atom_site_fract_y
_atom_site_fract_z
O1	O	1.214440	0.130340	-0.158746
O2	O	1.714440	0.630340	0.341254
O3	O	0.945961	0.144580	-0.158805
O4	O	1.445961	0.644580	0.341195
O5	O	1.087310	0.003222	-0.158757
O6	O	1.587310	0.503222	0.341243
O7	O	1.073091	0.271698	-0.158795
O8	O	1.573091	0.771698	0.341205
O9	O	1.106200	-0.015712	0.159225
O10	O	1.606200	0.484288	0.659225
O11	O	0.964851	0.125646	0.159177
O12	O	1.464851	0.625646	0.659177
O13	O	1.233330	0.111406	0.159236
O14	O	1.733330	0.611406	0.659236
Cu15	Cu	1.100815	0.116797	0.188240
Cu16	Cu	1.600815	0.616797	0.688240
Cu17	Cu	1.078476	0.139189	-0.187810
Cu18	Cu	1.578476	0.639189	0.312190
O19	O	1.091981	0.252765	0.159187
O20	O	1.591981	0.752765	0.659187
C21	C	1.096089	-0.040605	0.000234
C22	C	1.596089	0.459395	0.500234
C23	C	1.094093	-0.142985	0.000235
C24	C	1.594093	0.357015	0.500235
C25	C	0.921046	0.134450	0.000178
C26	C	1.421046	0.634450	0.500178
C27	C	0.818663	0.132463	0.000156
C28	C	1.318663	0.632463	0.500156
C29	C	1.092470	-0.226129	0.000230
C30	C	1.592470	0.273871	0.500230
C31	C	1.090443	-0.330436	0.000215
C32	C	1.590443	0.169564	0.500215
C33	C	1.088834	-0.413575	0.000203
C34	C	1.588834	0.086425	0.500203
C35	C	1.086807	-0.517890	0.000191
C36	C	1.586807	-0.017890	0.500191
C37	C	0.443772	0.125139	0.000244
C38	C	0.943772	0.625139	0.500244
C39	C	0.548078	0.127173	0.000219
C40	C	1.048078	0.627173	0.500219
C41	C	0.631214	0.128801	0.000199
C42	C	1.131214	0.628801	0.500199
C43	C	0.735527	0.130835	0.000177
C44	C	1.235527	0.630835	0.500177
C45	C	1.258245	0.121537	0.000248
C46	C	1.758245	0.621537	0.500248
C47	C	1.360627	0.123524	0.000257
C48	C	1.860627	0.623524	0.500257
C49	C	1.083202	0.296591	0.000192
C50	C	1.583202	0.796591	0.500192
C51	C	1.085197	0.398972	0.000179
C52	C	1.585197	0.898972	0.500179
N53	N	1.116534	0.101048	0.452734
N54	N	1.616534	0.601048	0.952734
N55	N	1.062764	0.154931	-0.452303
N56	N	1.562764	0.654931	0.047697
H57	H	1.172271	0.045212	0.534409
H58	H	1.672271	0.545212	1.034409
H59	H	1.007038	0.210770	0.466031
H60	H	1.507038	0.710770	0.966031
