data_functionalizedCrystal
_audit_creation_method	'MofGen! by Chris Wilmer'
_symmetry_space_group_name_H-M	'P1'
_symmetry_Int_Tables_number	1
_symmetry_cell_setting	triclinic
loop_
_symmetry_equiv_pos_as_xyz
  x,y,z
_cell_length_a	16.625546
_cell_length_b	12.759401
_cell_length_c	12.759393
_cell_angle_alpha	89.981504
_cell_angle_beta	90.036194
_cell_angle_gamma	89.977371
loop_
_atom_site_label
_atom_site_type_symbol
_atom_site_fract_x
_atom_site_fract_y
_atom_site_fract_z
Zn1	Zn	-0.320951	-1.606199	0.593948
Zn2	Zn	-0.455807	-1.606069	0.418253
Zn3	Zn	-0.320993	-1.430501	0.418287
Zn4	Zn	-0.455745	-1.430465	0.593895
O5	O	-0.388374	-1.518308	0.506096
O6	O	-0.338848	-1.753203	0.570649
O7	O	-0.437968	-1.582740	0.271237
O8	O	-0.208155	-1.453876	0.441625
O9	O	-0.437927	-1.753107	0.441568
O10	O	-0.208124	-1.582961	0.570682
O11	O	-0.338920	-1.453751	0.271261
O12	O	-0.338860	-1.283475	0.441574
O13	O	-0.437821	-1.453816	0.740923
O14	O	-0.437862	-1.283449	0.570592
O15	O	-0.338788	-1.582927	0.740962
O16	O	-0.568632	-1.582706	0.441517
O17	O	-0.568586	-1.453691	0.570560
C18	C	-0.388359	-1.245341	0.506081
C19	C	-0.388372	-1.128564	0.506100
C20	C	-0.597865	-1.518209	0.506052
C21	C	-0.687486	-1.518263	0.506068
C22	C	-0.388293	-1.518382	0.780129
C23	C	-0.388258	-1.518413	0.896906
C24	C	-1.015662	-1.518446	0.506177
C25	C	-0.924353	-1.518392	0.506150
C26	C	-0.851577	-1.518353	0.506122
C27	C	-0.760262	-1.518301	0.506096
C28	C	-0.178065	-1.518437	0.506163
C29	C	-0.088444	-1.518492	0.506191
C30	C	-0.388390	-1.792342	0.506111
C31	C	-0.388396	-1.909118	0.506117
C32	C	-0.440005	-1.073717	0.573169
C33	C	-0.440015	-0.963992	0.573180
C34	C	-0.336758	-0.963974	0.439045
C35	C	-0.336744	-1.073696	0.439040
C36	C	-0.491634	-1.128585	0.640229
C37	C	-0.543271	-1.073737	0.707303
C38	C	-0.543282	-0.964013	0.707314
C39	C	-0.491654	-0.909137	0.640252
C40	C	-0.388397	-1.518296	0.233128
C41	C	-0.388204	-1.518468	0.116352
C42	C	-0.336687	-1.585650	0.951790
C43	C	-0.336657	-1.585675	1.061514
C44	C	-0.439778	-1.451223	1.061461
C45	C	-0.439803	-1.451194	0.951739
C46	C	-0.285142	-1.652870	0.896957
C47	C	-0.233567	-1.720113	0.951841
C48	C	-0.233538	-1.720138	1.061565
C49	C	-0.285084	-1.652920	1.116405
H50	H	-0.491633	-1.217928	0.640226
H51	H	-0.285046	-1.652934	1.205750
Cl52	Cl	-0.491662	-0.771196	0.640277
H53	H	-0.585322	-0.919358	0.761936
H54	H	-0.294726	-0.919285	0.384446
H55	H	-0.191537	-1.774883	1.106249
Cl56	Cl	-0.271833	-1.142653	0.354723
H57	H	-0.481744	-1.396497	1.106120
Cl58	Cl	-0.608166	-1.142722	0.791610
H59	H	-0.285162	-1.652859	0.807614
Cl60	Cl	-0.168758	-1.804595	0.882901
H61	H	-0.481784	-1.396427	0.907051
