data_functionalizedCrystal
_audit_creation_method	'MofGen! by Chris Wilmer'
_symmetry_space_group_name_H-M	'P1'
_symmetry_Int_Tables_number	1
_symmetry_cell_setting	triclinic
loop_
_symmetry_equiv_pos_as_xyz
  x,y,z
_cell_length_a	15.298709
_cell_length_b	15.296118
_cell_length_c	12.759393
_cell_angle_alpha	80.281079
_cell_angle_beta	99.645272
_cell_angle_gamma	110.812486
loop_
_atom_site_label
_atom_site_type_symbol
_atom_site_fract_x
_atom_site_fract_y
_atom_site_fract_z
Zn1	Zn	1.357721	-0.123875	-0.295868
Zn2	Zn	1.330697	-0.279490	-0.094221
Zn3	Zn	1.202190	-0.150880	-0.146044
Zn4	Zn	1.175270	-0.306361	-0.295705
O5	O	1.266469	-0.215152	-0.207959
O6	O	1.484274	-0.121971	-0.247499
O7	O	1.313607	-0.262486	0.045928
O8	O	1.245397	-0.017104	-0.187675
O9	O	1.464419	-0.236300	-0.099350
O10	O	1.359665	0.002737	-0.297750
O11	O	1.219193	-0.167997	0.007854
O12	O	1.068481	-0.194052	-0.187517
O13	O	1.199516	-0.282097	-0.442750
O14	O	1.048703	-0.308283	-0.297472
O15	O	1.333562	-0.148026	-0.442870
O16	O	1.287504	-0.413249	-0.099192
O17	O	1.173312	-0.432991	-0.247221
C18	C	1.024849	-0.257015	-0.248101
C19	C	0.921479	-0.274946	-0.265295
C20	C	0.862630	-0.342934	-0.330497
C21	C	0.765510	-0.359777	-0.346662
C22	C	0.727227	-0.308639	-0.297620
C23	C	0.786075	-0.240654	-0.232410
C24	C	0.883206	-0.223804	-0.216250
C25	C	0.747803	-0.189509	-0.183373
C26	C	0.806651	-0.121524	-0.118164
C27	C	0.903772	-0.104678	-0.102006
C28	C	0.942055	-0.155816	-0.151048
C29	C	0.650672	-0.206359	-0.199534
C30	C	0.671248	-0.087229	-0.085287
C31	C	0.768368	-0.070386	-0.069122
C32	C	1.224579	-0.456873	-0.167584
C33	C	1.206744	-0.560268	-0.150333
C34	C	1.138902	-0.619248	-0.084847
C35	C	1.122148	-0.716392	-0.068643
C36	C	1.173229	-0.754567	-0.117929
C37	C	1.241068	-0.695587	-0.183422
C38	C	1.257829	-0.598433	-0.199621
C39	C	1.292156	-0.733751	-0.232703
C40	C	1.359994	-0.674772	-0.298195
C41	C	1.376751	-0.577627	-0.314392
C42	C	1.325670	-0.539453	-0.265106
C43	C	1.275395	-0.830906	-0.216503
C44	C	1.394321	-0.810090	-0.331277
C45	C	1.411075	-0.712946	-0.347481
C46	C	1.509033	-0.173126	-0.167662
C47	C	1.612399	-0.155217	-0.150489
C48	C	1.266551	-0.215046	-0.481998
C49	C	1.266585	-0.215002	-0.598777
C50	C	1.308548	0.027518	-0.248511
C51	C	1.326480	0.130930	-0.265792
C52	C	1.336392	-0.145184	-0.653702
C53	C	1.336420	-0.145146	-0.763428
C54	C	1.196830	-0.284753	-0.763293
C55	C	1.196799	-0.284786	-0.653570
C56	C	1.406179	-0.075399	-0.598909
C57	C	1.475992	-0.005576	-0.653834
C58	C	1.476020	-0.005539	-0.763560
C59	C	1.406234	-0.075324	-0.818361
C60	C	1.266454	-0.215180	0.065010
C61	C	1.266644	-0.214931	0.181775
H62	H	0.717603	-0.415131	-0.399756
H63	H	1.139944	-0.341626	-0.608853
C64	C	1.111802	-0.479560	-0.058726
C65	C	1.082761	-0.577285	-0.030677
H66	H	1.077135	-0.453657	-0.025283
H67	H	1.177040	-0.452778	-0.035685
H68	H	1.100909	-0.465971	-0.134235
H69	H	1.093660	-0.590874	0.044832
H70	H	1.017508	-0.604076	-0.053712
H71	H	0.893811	-0.384559	-0.370426
H72	H	1.406254	-0.075279	-0.907711
H73	H	1.140014	-0.341569	-0.807920
H74	H	0.816296	-0.015032	-0.016028
C75	C	1.482138	0.000558	-0.441801
C76	C	1.406147	-0.075436	-0.478298
H77	H	1.482112	0.000535	-0.367342
H78	H	1.539355	-0.005137	-0.453961
H79	H	1.476472	0.057817	-0.479336
H80	H	1.411817	-0.132696	-0.440768
H81	H	1.348916	-0.069749	-0.466128
C82	C	1.548600	0.159802	-0.638861
C83	C	1.552693	0.071134	-0.593604
H84	H	1.595950	0.207160	-0.601675
H85	H	1.558609	0.169809	-0.712060
H86	H	1.488469	0.162574	-0.633525
H87	H	1.612823	0.068359	-0.598948
H88	H	1.542692	0.061124	-0.520388
C89	C	1.065847	-0.220164	-0.086182
C90	C	1.048815	-0.137301	-0.133290
H91	H	1.131757	-0.208733	-0.075230
H92	H	1.041080	-0.239981	-0.019342
H93	H	1.036266	-0.267969	-0.132037
H94	H	1.078390	-0.089498	-0.087430
H95	H	1.073593	-0.117471	-0.200140
H96	H	0.951685	-0.049315	-0.048915
H97	H	1.339302	-0.460352	-0.278303
H98	H	0.648147	-0.322356	-0.310786
C99	C	1.125474	-0.897780	-0.198615
C100	C	1.154806	-0.861350	-0.100131
H101	H	1.114100	-0.963707	-0.187627
H102	H	1.069245	-0.886237	-0.230340
H103	H	1.173195	-0.868112	-0.244661
H104	H	1.107082	-0.891014	-0.054088
H105	H	1.211042	-0.872902	-0.068390
H106	H	1.431997	-0.529604	-0.367710
C107	C	0.612982	-0.257031	-0.374710
C108	C	0.585993	-0.281086	-0.271206
H109	H	0.573054	-0.303173	-0.418956
H110	H	0.607887	-0.197308	-0.403280
H111	H	0.676306	-0.254316	-0.372087
H112	H	0.522670	-0.283795	-0.273827
H113	H	0.591079	-0.340826	-0.242629
C114	C	1.526939	-0.702123	-0.459319
C115	C	1.485641	-0.648111	-0.419471
H116	H	1.572967	-0.662095	-0.503769
H117	H	1.556003	-0.733843	-0.401348
H118	H	1.479855	-0.747052	-0.499881
H119	H	1.532725	-0.603186	-0.378902
H120	H	1.456578	-0.616375	-0.477451
H121	H	0.640080	-0.045586	-0.045356
H122	H	1.435918	-0.841170	-0.371408
C123	C	1.006279	-0.727202	0.043170
C124	C	1.047580	-0.781220	0.003336
H125	H	0.960237	-0.767228	0.087603
H126	H	1.053352	-0.682283	0.083736
H127	H	0.977225	-0.695473	-0.014817
H128	H	1.076640	-0.812943	0.061323
H129	H	1.000499	-0.826156	-0.037231
C130	C	1.538035	0.056519	-0.931822
C131	C	1.552747	0.071216	-0.823941
H132	H	1.585403	0.103909	-0.969096
H133	H	1.540816	-0.003619	-0.937093
H134	H	1.477913	0.059315	-0.962446
H135	H	1.612866	0.068413	-0.793315
H136	H	1.549975	0.131369	-0.818665
H137	H	1.220160	-0.878918	-0.163179
