data_functionalizedCrystal
_audit_creation_method	'MofGen! by Chris Wilmer'
_symmetry_space_group_name_H-M	'P1'
_symmetry_Int_Tables_number	1
_symmetry_cell_setting	triclinic
loop_
_symmetry_equiv_pos_as_xyz
  x,y,z
_cell_length_a	14.853567
_cell_length_b	10.540539
_cell_length_c	13.930277
_cell_angle_alpha	89.997612
_cell_angle_beta	89.995755
_cell_angle_gamma	84.080211
loop_
_atom_site_label
_atom_site_type_symbol
_atom_site_fract_x
_atom_site_fract_y
_atom_site_fract_z
O1	O	1.197288	0.165727	-0.079760
O2	O	0.934938	0.185470	-0.079776
O3	O	1.072098	-0.009174	-0.079766
O4	O	1.060128	0.360371	-0.079770
O5	O	1.072079	-0.009178	0.079895
O6	O	0.934919	0.185465	0.079886
O7	O	1.197269	0.165723	0.079902
Zn8	Zn	1.066091	0.175594	0.105244
Zn9	Zn	1.066116	0.175599	-0.105118
O10	O	1.060108	0.360367	0.079892
C11	C	0.901335	0.184573	0.000053
C12	C	0.801236	0.181892	0.000047
C13	C	0.387998	0.054938	0.000069
C14	C	0.368000	0.286179	0.000066
C15	C	0.462048	0.288700	0.000063
C16	C	0.519075	0.174338	0.000062
C17	C	0.482055	0.057455	0.000063
C18	C	0.499075	0.405580	0.000052
C19	C	0.593129	0.408105	0.000048
C20	C	0.650158	0.293742	0.000053
C21	C	0.613132	0.176855	0.000056
C22	C	0.670159	0.062493	0.000054
C23	C	0.633135	-0.054396	0.000064
C24	C	0.539084	-0.056908	0.000069
C25	C	0.744209	0.296254	0.000048
C26	C	0.764216	0.065010	0.000048
C27	C	1.071191	-0.056469	0.000063
C28	C	1.068505	-0.197388	0.000057
C29	C	0.965588	-0.379682	-0.000307
C30	C	0.968311	-0.233094	0.000052
C31	C	1.116712	-0.259578	0.091235
C32	C	1.113293	-0.406085	0.091312
C33	C	1.115353	-0.406621	-0.090254
C34	C	1.116276	-0.259649	-0.091459
C35	C	1.230872	0.166620	0.000071
C36	C	1.330971	0.169300	0.000071
C37	C	1.061016	0.407662	0.000061
C38	C	1.063702	0.548580	0.000060
N39	N	1.066080	0.175589	0.248810
N40	N	1.066134	0.175594	-0.248684
C41	C	1.005379	0.261753	0.701075
C42	C	1.126878	0.089435	0.701053
C43	C	1.126867	0.089431	0.600557
C44	C	1.066112	0.175591	0.550315
C45	C	1.005368	0.261755	0.600570
C46	C	1.187617	0.003277	0.550295
C47	C	1.187609	0.003271	0.449793
C48	C	1.126849	0.089426	0.399550
C49	C	1.066102	0.175592	0.449810
C50	C	1.005347	0.261752	0.399569
C51	C	0.944594	0.347913	0.449828
C52	C	0.944608	0.347909	0.550327
C53	C	1.126835	0.089429	0.299051
C54	C	1.005336	0.261753	0.299064
H55	H	0.679579	-0.147509	0.000056
O56	O	0.913366	-0.419111	0.085817
H57	H	0.852473	-0.462694	0.061253
H58	H	0.955913	0.331901	0.741998
H59	H	0.508930	-0.152072	0.000099
H60	H	1.190292	-0.238034	0.094629
O61	O	1.192406	-0.003491	0.755234
H62	H	1.182206	0.010980	0.833561
O63	O	1.072343	-0.202667	0.181112
H64	H	0.999995	-0.220503	0.182010
H65	H	1.082933	-0.437815	-0.159360
O66	O	0.917710	-0.177226	0.086780
H67	H	0.846388	-0.199675	0.083607
O68	O	1.069627	-0.204912	-0.180816
H69	H	1.012659	-0.133653	-0.160146
O70	O	1.253145	-0.089646	0.604478
H71	H	1.242937	-0.075180	0.682805
O72	O	0.784139	0.422314	0.000037
H73	H	0.859119	0.404854	0.000029
O74	O	0.913151	-0.417003	-0.086901
H75	H	0.956453	-0.487085	-0.130604
O76	O	1.211214	-0.470234	-0.091058
H77	H	1.259221	-0.396274	-0.088704
O78	O	0.939809	0.354687	0.244875
H79	H	0.897575	0.414600	0.296708
H80	H	0.623265	0.503283	0.000040
O81	O	0.348068	-0.071127	0.000079
H82	H	0.370914	-0.126076	0.065159
O83	O	1.253120	-0.089667	0.395586
H84	H	1.295362	-0.149585	0.447408
O85	O	1.066071	-0.442937	0.181578
H86	H	1.045883	-0.356155	0.224763
H87	H	0.930378	-0.190072	-0.065308
H88	H	0.452638	0.498687	0.000043
H89	H	1.185351	-0.454846	0.095452
O90	O	0.825721	-0.058342	0.000057
H91	H	0.869055	-0.062730	-0.065018
O92	O	1.213043	-0.228647	-0.098754
H93	H	1.228673	-0.168115	-0.036986
O94	O	0.879058	0.440818	0.395624
H95	H	0.917393	0.502606	0.349818
H96	H	1.176303	0.019284	0.258135
O97	O	0.306500	0.409524	0.000078
H98	H	0.234880	0.388138	0.000090
O99	O	0.879096	0.440849	0.604530
H100	H	0.889321	0.426384	0.682854
