data_functionalizedCrystal
_audit_creation_method	'MofGen! by Chris Wilmer'
_symmetry_space_group_name_H-M	'P1'
_symmetry_Int_Tables_number	1
_symmetry_cell_setting	triclinic
loop_
_symmetry_equiv_pos_as_xyz
  x,y,z
_cell_length_a	17.038272
_cell_length_b	17.019294
_cell_length_c	15.455313
_cell_angle_alpha	88.788101
_cell_angle_beta	87.131318
_cell_angle_gamma	87.244363
loop_
_atom_site_label
_atom_site_type_symbol
_atom_site_fract_x
_atom_site_fract_y
_atom_site_fract_z
O1	O	1.041241	0.167513	-0.084532
O2	O	1.541241	0.667513	0.415468
O3	O	0.813604	0.164801	-0.084355
O4	O	1.313604	0.664801	0.415645
O5	O	0.933367	0.052131	-0.075922
O6	O	1.433367	0.552131	0.424078
O7	O	0.921478	0.280183	-0.092965
O8	O	1.421478	0.780183	0.407035
O9	O	0.926518	0.058545	0.067860
O10	O	1.426518	0.558545	0.567860
O11	O	0.806755	0.171216	0.059427
O12	O	1.306755	0.671216	0.559427
O13	O	1.034392	0.173927	0.059250
O14	O	1.534392	0.673927	0.559250
Cu15	Cu	0.919948	0.173157	0.072467
Cu16	Cu	1.419948	0.673157	0.572467
Cu17	Cu	0.928048	0.165571	-0.097572
Cu18	Cu	1.428048	0.665571	0.402428
O19	O	0.914629	0.286598	0.050817
O20	O	1.414629	0.786598	0.550817
C21	C	0.781045	0.165543	-0.012283
C22	C	1.281045	0.665543	0.487717
C23	C	0.694233	0.158186	-0.011743
C24	C	1.194233	0.658186	0.488257
C25	C	0.929357	0.026014	-0.001841
C26	C	1.429357	0.526014	0.498159
C27	C	0.927602	-0.061362	0.004683
C28	C	1.427602	0.438638	0.504683
C29	C	0.644300	0.225721	-0.016790
C30	C	1.144300	0.725721	0.483210
C31	C	0.562731	0.218806	-0.016261
C32	C	1.062731	0.718806	0.483739
C33	C	0.531095	0.144354	-0.010692
C34	C	1.031095	0.644354	0.489308
C35	C	0.581033	0.076814	-0.005642
C36	C	1.081033	0.576814	0.494358
C37	C	0.662601	0.083731	-0.006165
C38	C	1.162601	0.583731	0.493835
C39	C	0.285270	0.119919	-0.008842
C40	C	0.785270	0.619919	0.491158
C41	C	0.203696	0.113007	-0.008323
C42	C	0.703696	0.613007	0.491677
C43	C	0.185399	0.254999	-0.018940
C44	C	0.685399	0.754999	0.481060
C45	C	0.266969	0.261909	-0.019467
C46	C	0.766969	0.761909	0.480533
C47	C	0.316900	0.194369	-0.014413
C48	C	0.816900	0.694369	0.485587
C49	C	0.447718	0.137283	-0.010154
C50	C	0.947718	0.637283	0.489846
C51	C	0.400275	0.201441	-0.014945
C52	C	0.900275	0.701441	0.485055
C53	C	0.930512	-0.105903	-0.070628
C54	C	1.430512	0.394097	0.429372
C55	C	0.928858	-0.188002	-0.064495
C56	C	1.428858	0.311998	0.435505
C57	C	0.924299	-0.225558	0.016948
C58	C	1.424299	0.274442	0.516948
C59	C	0.921386	-0.181011	0.092264
C60	C	1.421386	0.318989	0.592264
C61	C	0.923035	-0.098913	0.086131
C62	C	1.423035	0.401087	0.586131
C63	C	0.919130	-0.473265	0.039388
C64	C	1.419130	0.026735	0.539388
C65	C	0.917484	-0.555369	0.045516
C66	C	1.417484	-0.055369	0.545516
C67	C	0.924955	-0.562354	-0.111244
C68	C	1.424955	-0.062354	0.388756
C69	C	0.926608	-0.480255	-0.117370
C70	C	1.426608	0.019745	0.382630
C71	C	0.923690	-0.435714	-0.042055
C72	C	1.423690	0.064286	0.457945
C73	C	0.922611	-0.309476	0.023219
C74	C	1.422611	0.190524	0.523219
C75	C	0.925373	-0.351797	-0.048326
C76	C	1.425373	0.148203	0.451674
C77	C	1.066951	0.173186	-0.012824
C78	C	1.566951	0.673186	0.487176
C79	C	1.153764	0.180542	-0.013369
C80	C	1.653764	0.680542	0.486631
C81	C	0.918639	0.312714	-0.023265
C82	C	1.418639	0.812714	0.476735
C83	C	0.920394	0.400090	-0.029795
C84	C	1.420394	0.900090	0.470205
N85	N	0.914257	0.178493	0.192063
N86	N	1.414257	0.678493	0.692063
N87	N	0.933745	0.160230	-0.217167
N88	N	1.433745	0.660230	0.282833
C89	C	0.965155	0.130646	0.241039
C90	C	1.465155	0.630646	0.741039
C91	C	0.960858	0.134689	0.331544
C92	C	1.460858	0.634689	0.831544
C93	C	0.905667	0.186583	0.373072
C94	C	1.405667	0.686583	0.873072
C95	C	0.854765	0.234431	0.324090
C96	C	1.354765	0.734431	0.824090
C97	C	0.859058	0.230383	0.233587
C98	C	1.359058	0.730383	0.733587
C99	C	0.887135	0.204031	0.643347
C100	C	1.387135	0.704031	1.143347
C101	C	0.882847	0.208076	0.733857
C102	C	1.382847	0.708076	1.233857
C103	C	0.988940	0.108333	0.741305
C104	C	1.488940	0.608333	1.241305
C105	C	0.993232	0.104294	0.650799
C106	C	1.493232	0.604294	1.150799
C107	C	0.942327	0.152139	0.601826
C108	C	1.442327	0.652139	1.101826
N109	N	0.901276	0.190718	0.465583
N110	N	1.401276	0.690718	0.965583
N111	N	0.946715	0.147999	0.509317
N112	N	1.446715	0.647999	1.009317
H113	H	0.670051	0.286348	-0.021325
H114	H	1.170051	0.786348	0.478675
H115	H	0.522079	0.273800	-0.020371
H116	H	1.022079	0.773800	0.479629
H117	H	0.913767	-0.585944	0.111840
H118	H	1.413767	-0.085944	0.611840
O119	O	0.297566	0.334294	-0.024838
O120	O	0.797566	0.834294	0.475162
C121	C	0.236003	0.392420	-0.029200
C122	C	0.736003	0.892420	0.470800
H123	H	0.179248	0.367893	-0.000051
H124	H	0.679248	0.867893	0.499949
H125	H	0.251190	0.445934	0.008682
H126	H	0.751190	0.945934	0.508682
H127	H	0.227790	0.410436	-0.099756
H128	H	0.727790	0.910436	0.400244
H129	H	0.934229	-0.075332	-0.136948
H130	H	1.434229	0.424668	0.363052
H131	H	1.038173	0.062038	0.616989
H132	H	1.538173	0.562038	1.116989
O133	O	0.927665	-0.605537	-0.184458
O134	O	1.427665	-0.105537	0.315542
C135	C	0.862657	-0.583233	-0.233943
C136	C	1.362657	-0.083233	0.266057
H137	H	0.840252	-0.521166	-0.216224
H138	H	1.340252	-0.021166	0.283776
H139	H	0.881327	-0.584617	-0.305785
H140	H	1.381327	-0.084617	0.194215
H141	H	0.813828	-0.625879	-0.219838
H142	H	1.313828	-0.125879	0.280162
O143	O	0.918094	-0.346047	0.102280
O144	O	1.418094	0.153953	0.602280
C145	C	0.849250	-0.388939	0.110197
C146	C	1.349250	0.111061	0.610197
H147	H	0.829675	-0.402801	0.042954
H148	H	1.329675	0.097199	0.542954
H149	H	0.861738	-0.446182	0.147740
H150	H	1.361738	0.053818	0.647740
H151	H	0.800669	-0.352520	0.146296
H152	H	1.300669	0.147480	0.646296
O153	O	0.837768	0.250630	0.595817
O154	O	1.337768	0.750630	1.095817
C155	C	0.849608	0.330296	0.612064
C156	C	1.349608	0.830296	1.112064
H157	H	0.911038	0.336010	0.636582
H158	H	1.411038	0.836010	1.136582
H159	H	0.843526	0.366490	0.549644
H160	H	1.343526	0.866490	1.049644
H161	H	0.803837	0.352810	0.663103
H162	H	1.303837	0.852810	1.163103
H163	H	0.809823	0.276681	0.357908
H164	H	1.309823	0.776681	0.857908
H165	H	0.837902	0.250337	0.767665
H166	H	1.337902	0.750337	1.267665
H167	H	0.144737	0.309986	-0.023052
H168	H	0.644737	0.809986	0.476948
O169	O	0.916922	-0.217363	0.171447
O170	O	1.416922	0.282637	0.671447
C171	C	0.914725	-0.160443	0.236603
C172	C	1.414725	0.339557	0.736603
H173	H	0.892260	-0.101346	0.209131
H174	H	1.392260	0.398654	0.709131
H175	H	0.873710	-0.179266	0.293005
H176	H	1.373710	0.320734	0.793005
H177	H	0.976427	-0.154688	0.260360
H178	H	1.476427	0.345312	0.760360
H179	H	0.920654	-0.062647	0.147456
H180	H	1.420654	0.437353	0.647456
O181	O	0.173092	0.040622	-0.002870
O182	O	0.673092	0.540622	0.497130
C183	C	0.234653	-0.017510	0.001456
C184	C	0.734653	0.482490	0.501456
H185	H	0.288822	0.009444	0.026755
H186	H	0.788822	0.509444	0.526755
H187	H	0.215496	-0.067297	0.047059
H188	H	0.715496	0.432703	0.547059
H189	H	0.249422	-0.041682	-0.065947
H190	H	0.749422	0.458318	0.434053
H191	H	0.817611	0.269344	0.193712
H192	H	1.317611	0.769344	0.693712
H193	H	0.929080	-0.321215	-0.114637
H194	H	1.429080	0.178785	0.385363
H195	H	0.421950	0.076665	-0.005595
H196	H	0.921950	0.576665	0.494405
O197	O	1.038459	0.061819	0.788747
O198	O	1.538459	0.561819	1.288747
C199	C	1.088074	0.015130	0.732687
C200	C	1.588074	0.515130	1.232687
H201	H	1.092101	0.044542	0.665758
H202	H	1.592101	0.544542	1.165758
H203	H	1.149250	0.008507	0.759413
H204	H	1.649250	0.508507	1.259413
H205	H	1.062992	-0.045409	0.727559
H206	H	1.562992	0.454591	1.227559
H207	H	0.325915	0.064922	-0.004726
H208	H	0.825915	0.564922	0.495274
H209	H	0.555269	0.016194	-0.001095
H210	H	1.055269	0.516194	0.498905
O211	O	0.916417	-0.429922	0.112481
O212	O	1.416417	0.070078	0.612481
C213	C	0.984818	-0.386617	0.113958
C214	C	1.484818	0.113383	0.613958
H215	H	1.010858	-0.378817	0.045097
H216	H	1.510858	0.121183	0.545097
H217	H	0.969184	-0.326420	0.142738
H218	H	1.469184	0.173580	0.642738
H219	H	1.029721	-0.419595	0.155232
H220	H	1.529721	0.080405	0.655232
O221	O	0.710998	0.018045	-0.001300
O222	O	1.210998	0.518045	0.498700
C223	C	0.665586	-0.049151	0.003747
C224	C	1.165586	0.450849	0.503747
H225	H	0.606051	-0.034484	-0.024657
H226	H	1.106051	0.465516	0.475343
H227	H	0.697537	-0.098668	-0.034436
H228	H	1.197537	0.401332	0.465564
H229	H	0.656449	-0.068638	0.074414
H230	H	1.156449	0.431362	0.574414
H231	H	0.426037	0.262060	-0.019474
H232	H	0.926037	0.762060	0.480526
H233	H	0.931232	-0.224265	-0.125821
H234	H	1.431232	0.275735	0.374179
H235	H	0.930321	-0.449683	-0.183690
H236	H	1.430321	0.050317	0.316310
H237	H	1.010100	0.088393	0.207233
H238	H	1.510100	0.588393	0.707233
O239	O	1.010391	0.088190	0.378985
O240	O	1.510391	0.588190	0.878985
C241	C	1.060018	0.041514	0.322925
C242	C	1.560018	0.541514	0.822925
H243	H	1.064027	0.070920	0.255993
H244	H	1.564027	0.570920	0.755993
H245	H	1.121198	0.034918	0.349644
H246	H	1.621198	0.534918	0.849644
H247	H	1.034959	-0.019037	0.317808
H248	H	1.534959	0.480963	0.817808
