data_functionalizedCrystal
_audit_creation_method	'MofGen! by Chris Wilmer'
_symmetry_space_group_name_H-M	'P1'
_symmetry_Int_Tables_number	1
_symmetry_cell_setting	triclinic
loop_
_symmetry_equiv_pos_as_xyz
  x,y,z
_cell_length_a	14.519709
_cell_length_b	14.519731
_cell_length_c	10.868271
_cell_angle_alpha	89.993880
_cell_angle_beta	90.001299
_cell_angle_gamma	83.684499
loop_
_atom_site_label
_atom_site_type_symbol
_atom_site_fract_x
_atom_site_fract_y
_atom_site_fract_z
O1	O	1.223876	0.120891	-0.102165
O2	O	1.557210	0.454224	0.231169
O3	O	1.890543	0.787557	0.564502
O4	O	0.955401	0.135127	-0.102203
O5	O	1.288734	0.468460	0.231131
O6	O	1.622067	0.801794	0.564464
O7	O	1.096747	-0.006228	-0.102172
O8	O	1.430080	0.327105	0.231162
O9	O	1.763413	0.660438	0.564495
O10	O	1.082531	0.262246	-0.102196
O11	O	1.415864	0.595579	0.231137
O12	O	1.749197	0.928913	0.564471
O13	O	1.096735	-0.006234	0.102473
O14	O	1.430068	0.327099	0.435806
O15	O	1.763402	0.660433	0.769140
O16	O	0.955389	0.135121	0.102442
O17	O	1.288722	0.468455	0.435775
O18	O	1.622056	0.801788	0.769109
O19	O	1.223865	0.120885	0.102480
O20	O	1.557198	0.454218	0.435813
O21	O	1.890531	0.787552	0.769147
Zn22	Zn	1.089625	0.128002	0.134953
Zn23	Zn	1.422958	0.461336	0.468286
Zn24	Zn	1.756292	0.794669	0.801619
Zn25	Zn	1.089640	0.128010	-0.134676
Zn26	Zn	1.422974	0.461343	0.198658
Zn27	Zn	1.756307	0.794676	0.531991
O28	O	1.082519	0.262240	0.102449
O29	O	1.415852	0.595574	0.435782
O30	O	1.749186	0.928907	0.769115
C31	C	0.921035	0.134461	0.000115
C32	C	1.254368	0.467794	0.333448
C33	C	1.587702	0.801127	0.666781
C34	C	0.818654	0.132473	0.000101
C35	C	1.151987	0.465806	0.333434
C36	C	1.485320	0.799139	0.666767
C37	C	1.096075	-0.040591	0.000151
C38	C	1.429408	0.292743	0.333484
C39	C	1.762741	0.626076	0.666818
C40	C	1.094079	-0.142971	0.000151
C41	C	1.427412	0.190363	0.333485
C42	C	1.760745	0.523696	0.666818
C43	C	0.443757	0.125153	0.000157
C44	C	0.777091	0.458486	0.333491
C45	C	1.110424	0.791820	0.666824
C46	C	0.548065	0.127186	0.000141
C47	C	0.881399	0.460519	0.333475
C48	C	1.214732	0.793852	0.666808
C49	C	0.631202	0.128813	0.000128
C50	C	0.964535	0.462146	0.333461
C51	C	1.297869	0.795479	0.666795
C52	C	0.735517	0.130846	0.000114
C53	C	1.068850	0.464179	0.333447
C54	C	1.402183	0.797512	0.666781
C55	C	1.092457	-0.226115	0.000148
C56	C	1.425790	0.107218	0.333482
C57	C	1.759123	0.440552	0.666815
C58	C	1.090430	-0.330424	0.000139
C59	C	1.423763	0.002910	0.333472
C60	C	1.757097	0.336243	0.666805
C61	C	1.088822	-0.413563	0.000130
C62	C	1.422155	-0.080229	0.333464
C63	C	1.755488	0.253104	0.666797
C64	C	1.086795	-0.517878	0.000123
C65	C	1.420129	-0.184545	0.333456
C66	C	1.753462	0.148789	0.666790
C67	C	1.258230	0.121551	0.000160
C68	C	1.591564	0.454885	0.333493
C69	C	1.924897	0.788218	0.666826
C70	C	1.360612	0.123539	0.000166
C71	C	1.693945	0.456873	0.333499
C72	C	2.027279	0.790206	0.666832
C73	C	1.083191	0.296603	0.000123
C74	C	1.416524	0.629936	0.333457
C75	C	1.749858	0.963269	0.666790
C76	C	1.085187	0.398983	0.000115
C77	C	1.418520	0.732316	0.333448
C78	C	1.751854	1.065649	0.666782
N79	N	1.089621	0.127997	0.318967
N80	N	1.422955	0.461330	0.652300
N81	N	1.756288	0.794664	0.985633
N82	N	1.089651	0.128008	-0.318690
N83	N	1.422985	0.461341	0.014644
N84	N	1.756318	0.794675	0.347977
C85	C	1.089636	0.128008	0.569973
C86	C	1.422969	0.461341	0.903306
C87	C	1.756302	0.794674	1.236639
C88	C	1.089625	0.128004	0.430295
C89	C	1.422958	0.461338	0.763629
C90	C	1.756291	0.794671	1.096962
