data_functionalizedCrystal
_audit_creation_method	'MofGen! by Chris Wilmer'
_symmetry_space_group_name_H-M	'P1'
_symmetry_Int_Tables_number	1
_symmetry_cell_setting	triclinic
loop_
_symmetry_equiv_pos_as_xyz
  x,y,z
_cell_length_a	25.639242
_cell_length_b	25.639239
_cell_length_c	13.897441
_cell_angle_alpha	89.966666
_cell_angle_beta	89.979296
_cell_angle_gamma	90.030990
loop_
_atom_site_label
_atom_site_type_symbol
_atom_site_fract_x
_atom_site_fract_y
_atom_site_fract_z
Zn1	Zn	0.799258	-0.208246	-0.545410
Zn2	Zn	1.299258	0.291754	-0.045410
Zn3	Zn	0.799172	-0.295688	-0.384101
Zn4	Zn	1.299172	0.204312	0.115899
Zn5	Zn	0.711824	-0.208256	-0.384123
Zn6	Zn	1.211824	0.291744	0.115877
Zn7	Zn	0.711779	-0.295641	-0.545348
Zn8	Zn	1.211779	0.204359	-0.045348
O9	O	0.755508	-0.251958	-0.464746
O10	O	1.255508	0.248042	0.035254
O11	O	0.872412	-0.219861	-0.524029
O12	O	1.372412	0.280139	-0.024029
O13	O	0.787568	-0.284113	-0.249122
O14	O	1.287568	0.215887	0.250878
O15	O	0.723478	-0.135090	-0.405553
O16	O	1.223478	0.364910	0.094447
O17	O	0.872348	-0.284104	-0.405516
O18	O	1.372348	0.215896	0.094484
O19	O	0.787715	-0.135083	-0.524050
O20	O	1.287715	0.364917	-0.024050
O21	O	0.723394	-0.219878	-0.249138
O22	O	1.223394	0.280122	0.250862
O23	O	0.638653	-0.219833	-0.405493
O24	O	1.138653	0.280167	0.094507
O25	O	0.723401	-0.284024	-0.680338
O26	O	1.223401	0.215976	-0.180338
O27	O	0.638620	-0.284034	-0.523944
O28	O	1.138620	0.215966	-0.023944
O29	O	0.787671	-0.219816	-0.680384
O30	O	1.287671	0.280184	-0.180384
O31	O	0.787524	-0.368847	-0.405456
O32	O	1.287524	0.131153	0.094544
O33	O	0.723317	-0.368812	-0.523923
O34	O	1.223317	0.131188	-0.023923
C35	C	0.619666	-0.251930	-0.464714
C36	C	1.119666	0.248070	0.035286
C37	C	0.561552	-0.251930	-0.464724
C38	C	1.061552	0.248070	0.035276
C39	C	0.310399	-0.218566	-0.526568
C40	C	0.810399	0.281434	-0.026568
C41	C	0.365004	-0.218561	-0.526562
C42	C	0.865004	0.281439	-0.026562
O43	O	0.393275	-0.190171	-0.579138
O44	O	0.893275	0.309829	-0.079138
N45	N	0.392278	-0.251952	-0.464757
N46	N	0.892278	0.248048	0.035243
C47	C	0.364945	-0.285354	-0.402959
C48	C	0.864945	0.214646	0.097041
O49	O	0.393158	-0.313755	-0.350389
O50	O	0.893158	0.186245	0.149611
C51	C	0.310342	-0.285361	-0.402970
C52	C	0.810342	0.214639	0.097030
C53	C	0.283070	-0.251964	-0.464773
C54	C	0.783070	0.248036	0.035227
C55	C	0.283128	-0.185173	-0.588367
C56	C	0.783128	0.314827	-0.088367
C57	C	0.228527	-0.185177	-0.588371
C58	C	0.728527	0.314823	-0.088371
C59	C	0.201198	-0.218575	-0.526576
C60	C	0.701198	0.281425	-0.026576
C61	C	0.228470	-0.251969	-0.464777
C62	C	0.728470	0.248031	0.035223
C63	C	0.283010	-0.318765	-0.341178
C64	C	0.783010	0.181235	0.158822
C65	C	0.228403	-0.318770	-0.341195
C66	C	0.728403	0.181230	0.158805
C67	C	0.201131	-0.285373	-0.402998
C68	C	0.701131	0.214627	0.097002
C69	C	0.146540	-0.285372	-0.402987
C70	C	0.646540	0.214628	0.097013
N71	N	0.119266	-0.251981	-0.464792
N72	N	0.619266	0.248019	0.035208
C73	C	0.146595	-0.218583	-0.526587
C74	C	0.646595	0.281417	-0.026587
C75	C	0.479615	-0.285336	-0.402942
C76	C	0.979615	0.214664	0.097058
C77	C	0.534218	-0.285327	-0.402925
C78	C	1.034218	0.214673	0.097075
C79	C	0.534273	-0.218534	-0.526530
C80	C	1.034273	0.281466	-0.026530
C81	C	0.479669	-0.218542	-0.526541
C82	C	0.979669	0.281458	-0.026541
C83	C	0.452341	-0.251945	-0.464748
C84	C	0.952341	0.248055	0.035252
C85	C	0.031930	-0.218595	-0.526590
C86	C	0.531930	0.281405	-0.026590
C87	C	-0.022676	-0.218601	-0.526586
C88	C	0.477324	0.281399	-0.026586
C89	C	-0.022726	-0.285394	-0.402985
C90	C	0.477274	0.214606	0.097015
C91	C	0.031875	-0.285387	-0.402985
C92	C	0.531875	0.214613	0.097015
C93	C	0.059201	-0.251985	-0.464796
C94	C	0.559201	0.248015	0.035204
O95	O	0.118234	-0.313749	-0.350441
O96	O	0.618234	0.186251	0.149559
O97	O	0.118375	-0.190191	-0.579158
O98	O	0.618375	0.309809	-0.079158
C99	C	0.755420	-0.387800	-0.464701
C100	C	1.255420	0.112200	0.035299
C101	C	0.755431	-0.445914	-0.464715
C102	C	1.255431	0.054086	0.035285
C103	C	0.755540	-0.251914	-0.716339
C104	C	1.255540	0.248086	-0.216339
C105	C	0.755554	-0.251895	-0.823553
C106	C	1.255554	0.248105	-0.323553
C107	C	0.891881	-0.251987	-0.464778
C108	C	1.391881	0.248013	0.035222
C109	C	0.949995	-0.251999	-0.464791
C110	C	1.449995	0.248001	0.035209
C111	C	0.789028	-0.806283	-0.403165
C112	C	1.289028	-0.306283	0.096835
C113	C	0.789048	-0.860887	-0.403178
C114	C	1.289048	-0.360887	0.096822
O115	O	0.817523	-0.889128	-0.350797
O116	O	1.317523	-0.389128	0.149203
N117	N	0.755600	-0.888197	-0.464810
N118	N	1.255600	-0.388197	0.035190
C119	C	0.722133	-0.860900	-0.526439
C120	C	1.222133	-0.360900	-0.026439
O121	O	0.693685	-0.889143	-0.578864
O122	O	1.193685	-0.389143	-0.078864
C123	C	0.722116	-0.806296	-0.526431
C124	C	1.222116	-0.306296	-0.026431
C125	C	0.755563	-0.778989	-0.464788
C126	C	1.255563	-0.278989	0.035212
C127	C	0.822472	-0.778976	-0.341528
C128	C	1.322472	-0.278976	0.158472
C129	C	0.822451	-0.724375	-0.341514
C130	C	1.322451	-0.224375	0.158486
C131	C	0.788986	-0.697082	-0.403137
C132	C	1.288986	-0.197082	0.096863
C133	C	0.755542	-0.724389	-0.464774
C134	C	1.255542	-0.224389	0.035226
C135	C	0.688652	-0.779000	-0.588065
C136	C	1.188652	-0.279000	-0.088065
C137	C	0.688638	-0.724393	-0.588051
C138	C	1.188638	-0.224393	-0.088051
C139	C	0.722085	-0.697086	-0.526408
C140	C	1.222085	-0.197086	-0.026408
C141	C	0.722055	-0.642495	-0.526383
C142	C	1.222055	-0.142495	-0.026383
N143	N	0.755503	-0.615185	-0.464751
N144	N	1.255503	-0.115185	0.035249
C145	C	0.788969	-0.642478	-0.403128
C146	C	1.288969	-0.142478	0.096872
C147	C	0.722173	-0.975570	-0.526454
C148	C	1.222173	-0.475570	-0.026454
C149	C	0.722187	-1.030172	-0.526459
C150	C	1.222187	-0.530172	-0.026459
C151	C	0.789103	-1.030156	-0.403198
C152	C	1.289103	-0.530156	0.096802
C153	C	0.789085	-0.975553	-0.403190
C154	C	1.289085	-0.475553	0.096810
C155	C	0.755621	-0.948260	-0.464822
C156	C	1.255621	-0.448260	0.035178
C157	C	0.788921	-0.527813	-0.403103
C158	C	1.288921	-0.027813	0.096897
C159	C	0.788896	-0.473208	-0.403092
C160	C	1.288896	0.026792	0.096908
C161	C	0.721982	-0.473229	-0.526356
C162	C	1.221982	0.026771	-0.026356
C163	C	0.722006	-0.527830	-0.526364
C164	C	1.222006	-0.027830	-0.026364
C165	C	0.755480	-0.555120	-0.464734
C166	C	1.255480	-0.055120	0.035266
O167	O	0.693597	-0.614219	-0.578740
O168	O	1.193597	-0.114219	-0.078740
O169	O	0.817417	-0.614229	-0.350722
O170	O	1.317417	-0.114229	0.149278
C171	C	0.755611	-0.115585	-0.464811
C172	C	1.255611	0.384415	0.035189
C173	C	0.755654	-0.057471	-0.464839
C174	C	1.255654	0.442529	0.035161
C175	C	0.755565	-0.251880	-0.910623
C176	C	1.255565	0.248120	-0.410623
C177	C	0.755580	-0.251857	-1.019855
C178	C	1.255580	0.248143	-0.519855
C179	C	0.755506	-0.251964	-0.214131
C180	C	1.255506	0.248036	0.285869
C181	C	0.755594	-0.251835	-0.106918
C182	C	1.255594	0.248165	0.393082
H183	H	0.206155	-0.345973	-0.290877
H184	H	0.706155	0.154027	0.209123
C185	C	0.651824	-0.694375	-0.655855
C186	C	1.151824	-0.194375	-0.155855
N187	N	0.624094	-0.671766	-0.706922
N188	N	1.124094	-0.171766	-0.206922
C189	C	-0.052671	-0.181862	-0.594580
C190	C	0.447329	0.318138	-0.094580
N191	N	-0.075261	-0.154192	-0.645794
N192	N	0.424739	0.345808	-0.145794
H193	H	0.849688	-0.702145	-0.291322
H194	H	1.349688	-0.202145	0.208678
H195	H	0.054080	-0.312576	-0.352652
H196	H	0.554080	0.187424	0.147348
H197	H	0.694773	-0.550064	-0.576561
H198	H	1.194773	-0.050064	-0.076561
H199	H	0.816321	-0.953323	-0.352995
H200	H	1.316321	-0.453323	0.147005
H201	H	0.054173	-0.191395	-0.576921
H202	H	0.554173	0.308605	-0.076921
C203	C	-0.052798	-0.322131	-0.335016
C204	C	0.447202	0.177869	0.164984
N205	N	-0.075450	-0.349805	-0.283826
N206	N	0.424550	0.150195	0.216174
H207	H	0.556534	-0.191340	-0.576847
H208	H	1.056534	0.308660	-0.076847
H209	H	0.816132	-0.450976	-0.352892
H210	H	1.316132	0.049024	0.147108
C211	C	0.825741	-0.557825	-0.335302
C212	C	1.325741	-0.057825	0.164698
N213	N	0.853471	-0.580430	-0.284228
N214	N	1.353471	-0.080430	0.215772
H215	H	0.849727	-0.801192	-0.291347
H216	H	1.349727	-0.301192	0.208653
C217	C	0.825920	-1.060189	-0.335419
C218	C	1.325920	-0.560189	0.164581
N219	N	0.853649	-1.082812	-0.284372
N220	N	1.353649	-0.582812	0.215628
C221	C	0.685174	-0.443196	-0.594141
C222	C	1.185174	0.056804	-0.094141
N223	N	0.657454	-0.420573	-0.645204
N224	N	1.157454	0.079427	-0.145204
H225	H	0.305205	-0.345960	-0.290852
H226	H	0.805205	0.154040	0.209148
C227	C	0.685388	-1.060204	-0.594261
C228	C	1.185388	-0.560204	-0.094261
N229	N	0.657672	-1.082822	-0.645337
N230	N	1.157672	-0.582822	-0.145337
H231	H	0.206328	-0.157984	-0.638701
H232	H	0.706328	0.342016	-0.138701
H233	H	0.556418	-0.312516	-0.352589
H234	H	1.056418	0.187484	0.147411
C235	C	0.685359	-0.945553	-0.594264
C236	C	1.185359	-0.445553	-0.094264
N237	N	0.657633	-0.922947	-0.645343
N238	N	1.157633	-0.422947	-0.145343
C239	C	0.651859	-0.809026	-0.655881
C240	C	1.151859	-0.309026	-0.155881
N241	N	0.624145	-0.831640	-0.706966
N242	N	1.124145	-0.331640	-0.206966
C243	C	0.313181	-0.148425	-0.656346
C244	C	0.813181	0.351575	-0.156346
N245	N	0.335814	-0.120741	-0.707546
N246	N	0.835814	0.379259	-0.207546
H247	H	0.457368	-0.312536	-0.352614
H248	H	0.957368	0.187464	0.147386
H249	H	0.457469	-0.191347	-0.576866
H250	H	0.957469	0.308653	-0.076866
