data_functionalizedCrystal
_audit_creation_method	'MofGen! by Chris Wilmer'
_symmetry_space_group_name_H-M	'P1'
_symmetry_Int_Tables_number	1
_symmetry_cell_setting	triclinic
loop_
_symmetry_equiv_pos_as_xyz
  x,y,z
_cell_length_a	16.109301
_cell_length_b	15.944551
_cell_length_c	14.421503
_cell_angle_alpha	89.990248
_cell_angle_beta	89.997488
_cell_angle_gamma	83.480109
loop_
_atom_site_label
_atom_site_type_symbol
_atom_site_fract_x
_atom_site_fract_y
_atom_site_fract_z
O1	O	1.103167	0.107972	-0.077055
O2	O	1.353167	0.357972	0.172945
O3	O	1.603167	0.607972	0.422945
O4	O	1.853167	0.857972	0.672945
O5	O	0.861110	0.121408	-0.077070
O6	O	1.111110	0.371408	0.172930
O7	O	1.361110	0.621408	0.422930
O8	O	1.611110	0.871408	0.672930
O9	O	0.988748	-0.007587	-0.077054
O10	O	1.238748	0.242413	0.172946
O11	O	1.488748	0.492413	0.422946
O12	O	1.738748	0.742413	0.672946
O13	O	0.975528	0.236967	-0.077071
O14	O	1.225528	0.486967	0.172929
O15	O	1.475528	0.736967	0.422929
O16	O	1.725528	0.986967	0.672929
O17	O	0.988737	-0.007600	0.077170
O18	O	1.238737	0.242400	0.327170
O19	O	1.488737	0.492400	0.577170
O20	O	1.738737	0.742400	0.827170
O21	O	0.861098	0.121395	0.077153
O22	O	1.111098	0.371395	0.327153
O23	O	1.361098	0.621395	0.577153
O24	O	1.611098	0.871395	0.827153
O25	O	1.103155	0.107958	0.077168
O26	O	1.353155	0.357958	0.327168
O27	O	1.603155	0.607958	0.577168
O28	O	1.853155	0.857958	0.827168
Cu29	Cu	0.982126	0.114675	0.091243
Cu30	Cu	1.232126	0.364675	0.341243
Cu31	Cu	1.482126	0.614675	0.591243
Cu32	Cu	1.732126	0.864675	0.841243
Cu33	Cu	0.982139	0.114692	-0.091144
Cu34	Cu	1.232139	0.364692	0.158856
Cu35	Cu	1.482139	0.614692	0.408856
Cu36	Cu	1.732139	0.864692	0.658856
O37	O	0.975517	0.236954	0.077152
O38	O	1.225517	0.486954	0.327152
O39	O	1.475517	0.736954	0.577152
O40	O	1.725517	0.986954	0.827152
C41	C	0.830129	0.120857	0.000040
C42	C	1.080129	0.370857	0.250040
C43	C	1.330129	0.620857	0.500040
C44	C	1.580129	0.870857	0.750040
C45	C	0.737833	0.119226	0.000034
C46	C	0.987833	0.369226	0.250034
C47	C	1.237833	0.619226	0.500034
C48	C	1.487833	0.869226	0.750034
C49	C	0.515584	0.191975	0.000040
C50	C	0.765584	0.441975	0.250040
C51	C	1.015584	0.691975	0.500040
C52	C	1.265584	0.941975	0.750040
C53	C	0.428863	0.190435	0.000046
C54	C	0.678863	0.440435	0.250046
C55	C	0.928863	0.690435	0.500046
C56	C	1.178863	0.940435	0.750046
C57	C	0.448688	0.037387	0.000053
C58	C	0.698688	0.287387	0.250053
C59	C	0.948688	0.537387	0.500053
C60	C	1.198688	0.787387	0.750053
C61	C	0.535407	0.038927	0.000054
C62	C	0.785407	0.288927	0.250054
C63	C	1.035407	0.538927	0.500054
C64	C	1.285407	0.788927	0.750054
C65	C	0.568853	0.116224	0.000042
C66	C	0.818853	0.366224	0.250042
C67	C	1.068853	0.616224	0.500042
C68	C	1.318853	0.866224	0.750042
C69	C	0.395412	0.113143	0.000048
C70	C	0.645412	0.363143	0.250048
C71	C	0.895412	0.613143	0.500048
C72	C	1.145412	0.863143	0.750048
C73	C	0.301386	0.111473	0.000054
C74	C	0.551386	0.361473	0.250054
C75	C	0.801386	0.611473	0.500054
C76	C	1.051386	0.861473	0.750054
C77	C	0.662885	0.117894	0.000038
C78	C	0.912885	0.367894	0.250038
C79	C	1.162885	0.617894	0.500038
C80	C	1.412885	0.867894	0.750038
C81	C	0.988194	-0.038887	0.000058
C82	C	1.238194	0.211113	0.250058
C83	C	1.488194	0.461113	0.500058
C84	C	1.738194	0.711113	0.750058
C85	C	0.986548	-0.132133	0.000059
C86	C	1.236548	0.117867	0.250059
C87	C	1.486548	0.367867	0.500059
C88	C	1.736548	0.617867	0.750059
C89	C	0.903499	-0.346962	0.000041
C90	C	1.153499	-0.096962	0.250041
C91	C	1.403499	0.153038	0.500041
C92	C	1.653499	0.403038	0.750041
C93	C	0.942059	-0.407999	0.076084
C94	C	1.192059	-0.157999	0.326084
C95	C	1.442059	0.092001	0.576084
C96	C	1.692059	0.342001	0.826084
C97	C	0.983572	-0.302858	0.000051
C98	C	1.233572	-0.052858	0.250051
C99	C	1.483572	0.197142	0.500051
C100	C	1.733572	0.447142	0.750051
C101	C	0.942089	-0.407969	-0.075968
C102	C	1.192089	-0.157969	0.174032
C103	C	1.442089	0.092031	0.424032
C104	C	1.692089	0.342031	0.674032
C105	C	0.980691	-0.467769	0.000040
C106	C	1.230691	-0.217769	0.250040
C107	C	1.480691	0.032231	0.500040
C108	C	1.730691	0.282231	0.750040
C109	C	1.022153	-0.362666	0.076158
C110	C	1.272153	-0.112666	0.326158
C111	C	1.522153	0.137334	0.576158
C112	C	1.772153	0.387334	0.826158
C113	C	1.022173	-0.362630	-0.075963
C114	C	1.272173	-0.112630	0.174037
C115	C	1.522173	0.137370	0.424037
C116	C	1.772173	0.387370	0.674037
C117	C	1.060790	-0.423649	0.000100
C118	C	1.310790	-0.173649	0.250100
C119	C	1.560790	0.076351	0.500100
C120	C	1.810790	0.326351	0.750100
C121	C	0.985229	-0.207856	0.000058
C122	C	1.235229	0.042144	0.250058
C123	C	1.485229	0.292144	0.500058
C124	C	1.735229	0.542144	0.750058
C125	C	0.979039	-0.562770	0.000040
C126	C	1.229039	-0.312770	0.250040
C127	C	1.479039	-0.062770	0.500040
C128	C	1.729039	0.187230	0.750040
C129	C	1.134136	0.108510	0.000056
C130	C	1.384136	0.358510	0.250056
C131	C	1.634136	0.608510	0.500056
C132	C	1.884136	0.858510	0.750056
C133	C	1.226432	0.110141	0.000056
C134	C	1.476432	0.360141	0.250056
C135	C	1.726432	0.610141	0.500056
C136	C	1.976432	0.860141	0.750056
C137	C	0.976071	0.268254	0.000038
C138	C	1.226071	0.518254	0.250038
C139	C	1.476071	0.768254	0.500038
C140	C	1.726071	1.018254	0.750038
C141	C	0.977717	0.361500	0.000032
C142	C	1.227717	0.611500	0.250032
C143	C	1.477717	0.861500	0.500032
C144	C	1.727717	1.111500	0.750032
N145	N	0.982122	0.114663	0.219524
N146	N	1.232122	0.364663	0.469524
N147	N	1.482122	0.614663	0.719524
N148	N	1.732122	0.864663	0.969524
N149	N	0.982150	0.114697	-0.219426
N150	N	1.232150	0.364697	0.030574
N151	N	1.482150	0.614697	0.280574
N152	N	1.732150	0.864697	0.530574
C153	C	1.040699	0.054542	0.530960
C154	C	1.290699	0.304542	0.780960
C155	C	1.540699	0.554542	1.030960
C156	C	1.790699	0.804542	1.280960
C157	C	1.057513	0.130206	0.469120
C158	C	1.307513	0.380206	0.719120
C159	C	1.557513	0.630206	0.969120
C160	C	1.807513	0.880206	1.219120
C161	C	0.982141	0.114687	0.591413
C162	C	1.232141	0.364687	0.841413
C163	C	1.482141	0.614687	1.091413
C164	C	1.732141	0.864687	1.341413
C165	C	0.965356	0.039013	0.469160
C166	C	1.215356	0.289013	0.719160
C167	C	1.465356	0.539013	0.969160
C168	C	1.715356	0.789013	1.219160
C169	C	0.982134	0.114671	0.408692
C170	C	1.232134	0.364671	0.658692
C171	C	1.482134	0.614671	0.908692
C172	C	1.732134	0.864671	1.158692
C173	C	0.998992	0.190391	0.530933
C174	C	1.248992	0.440391	0.780933
C175	C	1.498992	0.690391	1.030933
C176	C	1.748992	0.940391	1.280933
C177	C	0.906802	0.099147	0.530979
C178	C	1.156802	0.349147	0.780979
C179	C	1.406802	0.599147	1.030979
C180	C	1.656802	0.849147	1.280979
C181	C	0.923585	0.174867	0.469166
C182	C	1.173585	0.424867	0.719166
C183	C	1.423585	0.674867	0.969166
C184	C	1.673585	0.924867	1.219166
C185	C	0.982147	0.114695	0.696674
C186	C	1.232147	0.364695	0.946674
C187	C	1.482147	0.614695	1.196674
C188	C	1.732147	0.864695	1.446674
C189	C	0.982127	0.114672	0.303433
C190	C	1.232127	0.364672	0.553433
C191	C	1.482127	0.614672	0.803433
C192	C	1.732127	0.864672	1.053433
H193	H	0.385495	0.252119	0.000046
H194	H	0.635495	0.502119	0.250046
H195	H	0.885495	0.752119	0.500046
H196	H	1.135495	1.002119	0.750046
H197	H	0.908216	-0.428029	-0.140261
H198	H	1.158216	-0.178029	0.109739
H199	H	1.408216	0.071971	0.359739
H200	H	1.658216	0.321971	0.609739
F201	F	0.551176	0.274240	0.000032
F202	F	0.801176	0.524240	0.250032
F203	F	1.051176	0.774240	0.500032
F204	F	1.301176	1.024240	0.750032
H205	H	1.013254	0.254396	0.557955
H206	H	1.263254	0.504396	0.807955
H207	H	1.513254	0.754396	1.057955
H208	H	1.763254	1.004396	1.307955
H209	H	0.843113	0.085979	0.558170
H210	H	1.093113	0.335979	0.808170
H211	H	1.343113	0.585979	1.058170
H212	H	1.593113	0.835979	1.308170
F213	F	1.105472	-0.011857	0.566427
F214	F	1.355472	0.238143	0.816427
F215	F	1.605472	0.488143	1.066427
F216	F	1.855472	0.738143	1.316427
F217	F	1.140781	0.147376	0.433584
F218	F	1.390781	0.397376	0.683584
F219	F	1.640781	0.647376	0.933584
F220	F	1.890781	0.897376	1.183584
H221	H	0.421446	-0.025546	0.000068
H222	H	0.671446	0.224454	0.250068
H223	H	0.921446	0.474454	0.500068
H224	H	1.171446	0.724454	0.750068
F225	F	1.147739	-0.467021	0.000158
F226	F	1.397739	-0.217021	0.250158
F227	F	1.647739	0.032979	0.500158
F228	F	1.897739	0.282979	0.750158
H229	H	0.578781	-0.022762	0.000058
H230	H	0.828781	0.227238	0.250058
H231	H	1.078781	0.477238	0.500058
H232	H	1.328781	0.727238	0.750058
F233	F	0.858851	0.241410	0.433920
F234	F	1.108851	0.491410	0.683920
F235	F	1.358851	0.741410	0.933920
F236	F	1.608851	0.991410	1.183920
H237	H	0.951163	-0.024978	0.442023
H238	H	1.201163	0.225022	0.692023
H239	H	1.451163	0.475022	0.942023
H240	H	1.701163	0.725022	1.192023
H241	H	0.837035	-0.313632	0.000112
H242	H	1.087035	-0.063632	0.250112
H243	H	1.337035	0.186368	0.500112
H244	H	1.587035	0.436368	0.750112
H245	H	0.908186	-0.428102	0.140369
H246	H	1.158186	-0.178102	0.390369
H247	H	1.408186	0.071898	0.640369
H248	H	1.658186	0.321898	0.890369
H249	H	1.055988	-0.342693	0.140518
H250	H	1.305988	-0.092693	0.390518
H251	H	1.555988	0.157307	0.640518
H252	H	1.805988	0.407307	0.890518
H253	H	1.056016	-0.342505	-0.140251
H254	H	1.306016	-0.092505	0.109749
H255	H	1.556016	0.157495	0.359749
H256	H	1.806016	0.407495	0.609749
