data_functionalizedCrystal
_audit_creation_method	'MofGen! by Chris Wilmer'
_symmetry_space_group_name_H-M	'P1'
_symmetry_Int_Tables_number	1
_symmetry_cell_setting	triclinic
loop_
_symmetry_equiv_pos_as_xyz
  x,y,z
_cell_length_a	14.560438
_cell_length_b	23.196402
_cell_length_c	23.196401
_cell_angle_alpha	90.011712
_cell_angle_beta	119.991402
_cell_angle_gamma	120.001491
loop_
_atom_site_label
_atom_site_type_symbol
_atom_site_fract_x
_atom_site_fract_y
_atom_site_fract_z
Zr1	Zr	-1.005296	0.555335	-0.075658
O2	O	-1.196897	0.463261	-0.167704
O3	O	-0.813694	0.583562	-0.047443
O4	O	-1.005298	0.583531	-0.167711
O5	O	-1.005290	0.463314	0.047435
O6	O	-1.005301	0.678401	-0.167714
O7	O	-1.005293	0.463291	-0.047436
O8	O	-0.662555	0.678456	0.047422
O9	O	-1.348036	0.463260	-0.167701
O10	O	-0.892504	0.666399	-0.035410
O11	O	-0.892501	0.595615	0.035394
O12	O	-1.118090	0.595580	-0.106206
O13	O	-1.118087	0.524796	-0.035402
Zr14	Zr	-1.005296	0.706678	0.075645
Zr15	Zr	-1.005299	0.706641	-0.075664
Zr16	Zr	-1.005292	0.555371	0.075651
Zr17	Zr	-1.246344	0.555333	-0.075655
Zr18	Zr	-0.764247	0.706680	0.075642
O19	O	-1.196897	0.678451	0.047431
O20	O	-1.196903	0.678399	-0.167711
O21	O	-1.196892	0.463312	0.047438
O22	O	-0.813694	0.798752	0.167691
O23	O	-0.813699	0.798700	-0.047451
O24	O	-0.813689	0.583613	0.167698
O25	O	-1.005301	0.798698	-0.047448
O26	O	-1.005293	0.678481	0.167698
O27	O	-1.005290	0.583611	0.167701
O28	O	-1.005298	0.798721	0.047423
O29	O	-1.348039	0.583528	-0.167706
O30	O	-0.662552	0.678484	0.167693
O31	O	-0.662555	0.798753	0.167689
O32	O	-0.662558	0.798724	0.047418
O33	O	-1.348033	0.463288	-0.047431
O34	O	-1.348036	0.583557	-0.047435
O35	O	-0.892501	0.666433	0.106193
O36	O	-0.892504	0.737216	0.035389
O37	O	-1.118090	0.666397	-0.035407
O38	O	-1.118087	0.595613	0.035397
C39	C	-0.703780	0.631009	-0.000011
C40	C	-0.601449	0.631010	-0.000013
C41	C	-0.553376	0.667956	-0.036973
C42	C	-0.457218	0.667958	-0.036968
C43	C	-0.457218	0.594063	0.036958
C44	C	-0.553368	0.594065	0.036957
C45	C	-0.553379	0.710616	-0.079657
C46	C	-0.457222	0.710619	-0.079652
C47	C	-1.005291	0.441745	0.000000
C48	C	-1.005289	0.377511	0.000002
C49	C	-0.306811	0.631005	-0.000003
C50	C	-0.409142	0.631010	-0.000007
C51	C	-0.887539	0.384303	0.036950
C52	C	-0.887537	0.323949	0.036953
C53	C	-1.005293	0.256803	-0.000006
C54	C	-1.123058	0.250013	-0.036955
C55	C	-1.123057	0.310368	-0.036951
C56	C	-1.095510	0.132858	-0.061915
C57	C	-1.095507	0.072507	-0.061921
C58	C	-1.005302	0.070649	-0.000017
C59	C	-0.915080	0.129157	0.061893
C60	C	-0.915078	0.189511	0.061897
C61	C	-1.005307	0.191355	-0.000014
C62	C	-0.887542	0.012000	0.036938
C63	C	-0.887545	-0.048357	0.036943
C64	C	-1.123070	-0.122292	-0.036972
C65	C	-1.123063	-0.061935	-0.036970
C66	C	-1.005296	0.005209	-0.000017
C67	C	-1.005300	0.630961	-0.189271
C68	C	-1.005302	0.630946	-0.253505
C69	C	-1.005300	0.820268	-0.000013
C70	C	-1.005302	0.884501	-0.000015
C71	C	-1.123052	0.593982	-0.320633
C72	C	-1.123054	0.594000	-0.380988
C73	C	-1.005299	0.630972	-0.374212
C74	C	-0.887533	0.667943	-0.307072
C75	C	-0.887534	0.667930	-0.246719
C76	C	-0.915081	0.625723	-0.441530
C77	C	-0.915084	0.625731	-0.501884
C78	C	-1.005289	0.631016	-0.560359
C79	C	-1.095512	0.636280	-0.558481
C80	C	-1.095513	0.636267	-0.498128
C81	C	-1.005284	0.630991	-0.439651
C82	C	-1.123049	0.594071	-0.692934
C83	C	-1.123046	0.594094	-0.753289
C84	C	-0.887521	0.668032	-0.679370
C85	C	-0.887528	0.668014	-0.619017
C86	C	-1.005295	0.631029	-0.625804
C87	C	-1.005291	0.631051	0.189258
C88	C	-1.005289	0.631067	0.253493
C89	C	-0.703785	0.820270	-0.000018
C90	C	-0.601455	0.884505	-0.000022
C91	C	-0.703776	0.631054	0.189253
C92	C	-0.601442	0.631070	0.253486
C93	C	-0.703780	0.820316	0.189247
C94	C	-0.601449	0.884565	0.253477
C95	C	-1.306811	0.441697	-0.189260
C96	C	-1.409142	0.377447	-0.253490
C97	C	-1.306806	0.441742	0.000005
C98	C	-1.409136	0.377508	0.000009
C99	C	-1.306816	0.630958	-0.189266
C100	C	-1.409149	0.630942	-0.253499
C101	C	-0.553400	0.877704	-0.036986
C102	C	-0.457263	0.938053	-0.037004
C103	C	-0.409177	1.005203	-0.000052
C104	C	-0.457242	1.012002	0.036913
C105	C	-0.553383	0.951654	0.036926
C106	C	-0.553386	0.668044	0.320613
C107	C	-0.457246	0.668057	0.380973
C108	C	-0.409159	0.631099	0.374204
C109	C	-0.457225	0.594121	0.307070
C110	C	-0.553369	0.594105	0.246712
C111	C	-0.553394	0.951692	0.246682
C112	C	-0.457257	1.012068	0.307028
C113	C	-0.409168	1.005315	0.374169
C114	C	-0.457231	0.938181	0.380963
C115	C	-0.553374	0.877807	0.320617
C116	C	-1.457208	0.310320	-0.246695
C117	C	-1.553376	0.249945	-0.307041
C118	C	-1.601470	0.256698	-0.374181
C119	C	-1.553400	0.323832	-0.380976
C120	C	-1.457240	0.384206	-0.320630
C121	C	-1.457201	0.384308	0.036967
C122	C	-1.553365	0.323959	0.036968
C123	C	-1.601454	0.256810	0.000014
C124	C	-1.553385	0.250010	-0.036948
C125	C	-1.457230	0.310359	-0.036953
C126	C	-1.457206	0.667906	-0.246707
C127	C	-1.553346	0.667905	-0.307055
C128	C	-1.601434	0.630934	-0.374195
C129	C	-1.553367	0.593969	-0.380985
C130	C	-1.457222	0.593975	-0.320638
H131	H	-0.592490	0.563989	0.067063
H132	H	-0.791645	0.698031	-0.192059
Br133	Br	-0.618641	0.786580	-0.087143
H134	H	-0.418058	0.564032	0.301568
Br135	Br	-0.792645	0.268910	0.145914
H136	H	-0.791648	0.329479	0.067041
Br137	Br	-1.731952	0.174914	0.000028
H138	H	-1.218947	0.563869	-0.326165
Br139	Br	-0.792654	0.618578	-0.504431
H140	H	-1.218936	0.563996	-0.807948
H141	H	-1.418056	0.304808	-0.192031
Br142	Br	-0.278676	0.631128	0.456127
H143	H	-0.418064	0.932693	0.435637
H144	H	-0.418133	1.066726	0.301483
Br145	Br	-0.618574	0.786708	0.329853
Br146	Br	-1.618681	0.332985	-0.472101
H147	H	-1.168967	0.024874	-0.112332
Br148	Br	-1.731974	0.174754	-0.456073
H149	H	-0.330882	1.054481	0.423300
Br150	Br	-0.618583	0.960896	0.087102
H151	H	-0.592484	0.563999	0.192056
H152	H	-1.418106	0.438862	-0.326172
Br153	Br	-1.282869	0.543834	-0.472103
H154	H	-1.592498	0.195287	-0.301495
H155	H	-1.592554	0.195329	-0.067035
Br156	Br	-1.217949	0.135367	-0.145935
Br157	Br	-1.391966	0.718086	-0.155598
Br158	Br	-0.278697	1.087099	-0.000078
H159	H	-1.218948	-0.176962	-0.067065
Br160	Br	-1.618563	0.718073	-0.297823
H161	H	-1.592535	0.563869	-0.435658
Br162	Br	-0.727715	0.718167	-0.527910
Br163	Br	-0.392032	0.718246	0.472074
Br164	Br	-0.392050	0.928809	-0.087173
Br165	Br	-0.618643	0.960877	0.155570
Br166	Br	-1.391963	0.475432	0.087122
Br167	Br	-1.618578	0.333203	0.087137
Br168	Br	-1.392004	0.301116	-0.087112
Br169	Br	-1.282870	0.158888	-0.087107
Br170	Br	-0.391964	1.103139	0.087060
H171	H	-1.679721	0.630935	-0.423327
H172	H	-1.418105	0.563871	-0.326178
Br173	Br	-0.727720	0.103126	0.087090
H174	H	-0.515548	0.767134	-0.055922
Br175	Br	-0.391952	0.543931	0.087134
Br176	Br	-0.713024	0.663655	-0.170723
H177	H	-0.841606	0.127655	0.112298
H178	H	-0.361445	0.765270	-0.051499
Br179	Br	-0.520254	0.671029	-0.173833
H180	H	-0.791655	-0.042820	0.067035
Br181	Br	-0.727713	0.475423	0.087104
H182	H	-1.218948	-0.067469	-0.067062
H183	H	-1.168973	0.640554	-0.496601
Br184	Br	-1.282873	0.301149	-0.087097
H185	H	-1.168969	0.640580	-0.606095
H186	H	-0.791643	0.698136	-0.673851
Br187	Br	-1.282871	0.543896	-0.702139
Br188	Br	-0.618620	0.718210	0.329820
Br189	Br	-0.792570	0.618616	-0.362148
H190	H	-0.791656	0.698047	-0.301558
