data_functionalizedCrystal
_audit_creation_method	'MofGen! by Chris Wilmer'
_symmetry_space_group_name_H-M	'P1'
_symmetry_Int_Tables_number	1
_symmetry_cell_setting	triclinic
loop_
_symmetry_equiv_pos_as_xyz
  x,y,z
_cell_length_a	19.288867
_cell_length_b	15.186229
_cell_length_c	16.109301
_cell_angle_alpha	90.000293
_cell_angle_beta	83.299326
_cell_angle_gamma	90.004108
loop_
_atom_site_label
_atom_site_type_symbol
_atom_site_fract_x
_atom_site_fract_y
_atom_site_fract_z
O1	O	0.921597	0.073198	0.103717
O2	O	1.421597	0.573198	0.603717
O3	O	0.719370	0.073206	0.117706
O4	O	1.219370	0.573206	0.617706
O5	O	0.826038	0.073196	-0.010338
O6	O	1.326038	0.573196	0.489662
O7	O	0.814928	0.073208	0.231762
O8	O	1.314928	0.573208	0.731762
O9	O	0.826026	-0.073261	-0.010331
O10	O	1.326026	0.426739	0.489669
O11	O	0.719357	-0.073251	0.117714
O12	O	1.219357	0.426749	0.617714
O13	O	0.921584	-0.073259	0.103724
O14	O	1.421584	0.426741	0.603724
Zn15	Zn	0.820469	-0.096508	0.110720
Zn16	Zn	1.320469	0.403492	0.610720
Zn17	Zn	0.820485	0.096455	0.110711
Zn18	Zn	1.320485	0.596455	0.610711
O19	O	0.814915	-0.073249	0.231769
O20	O	1.314915	0.426751	0.731769
C21	C	0.693486	-0.000021	0.117260
C22	C	1.193486	0.499979	0.617260
C23	C	0.616379	-0.000018	0.115908
C24	C	1.116379	0.499982	0.615908
C25	C	0.060797	0.079805	0.106165
C26	C	0.560797	0.579805	0.606165
C27	C	0.133248	0.079808	0.107430
C28	C	0.633248	0.579808	0.607430
C29	C	0.169471	-0.000025	0.108071
C30	C	0.669471	0.499975	0.608071
C31	C	0.133240	-0.079868	0.107424
C32	C	0.633240	0.420132	0.607424
C33	C	0.060792	-0.079869	0.106151
C34	C	0.560792	0.420131	0.606151
C35	C	0.278914	-0.061186	0.158787
C36	C	0.778914	0.438814	0.658787
C37	C	0.351361	-0.061181	0.160065
C38	C	0.851361	0.438819	0.660065
C39	C	0.392926	-0.000025	0.111996
C40	C	0.892926	0.499975	0.611996
C41	C	0.362035	0.061141	0.062658
C42	C	0.862035	0.561141	0.562658
C43	C	0.289587	0.061140	0.061384
C44	C	0.789587	0.561140	0.561384
C45	C	0.248029	-0.000033	0.109451
C46	C	0.748029	0.499967	0.609451
C47	C	0.507708	0.079816	0.114008
C48	C	1.007708	0.579816	0.614008
C49	C	0.580161	0.079816	0.115268
C50	C	1.080161	0.579816	0.615268
C51	C	0.580151	-0.079863	0.115271
C52	C	1.080151	0.420137	0.615271
C53	C	0.507701	-0.079860	0.114002
C54	C	1.007701	0.420140	0.614002
C55	C	0.471483	-0.000018	0.113375
C56	C	0.971483	0.499982	0.613375
N57	N	0.820463	-0.228201	0.110726
N58	N	1.320463	0.271799	0.610726
C59	C	0.862588	-0.453923	0.161011
C60	C	1.362588	0.046077	0.661011
C61	C	0.862596	-0.546113	0.161005
C62	C	1.362596	-0.046113	0.661005
C63	C	0.778369	-0.546124	0.060408
C64	C	1.278369	-0.046124	0.560408
C65	C	0.778366	-0.453936	0.060410
C66	C	1.278366	0.046064	0.560410
C67	C	0.820474	-0.407838	0.110716
C68	C	1.320474	0.092162	0.610716
C69	C	0.820485	-0.592215	0.110708
C70	C	1.320485	-0.092215	0.610708
C71	C	0.820493	-0.692172	0.110701
C72	C	1.320493	-0.192172	0.610701
C73	C	0.820467	-0.307875	0.110722
C74	C	1.320467	0.192125	0.610722
C75	C	0.947468	-0.000030	0.104171
C76	C	1.447468	0.499970	0.604171
C77	C	1.024575	-0.000027	0.105523
C78	C	1.524575	0.499973	0.605523
C79	C	0.825582	-0.000032	-0.041308
C80	C	1.325582	0.499968	0.458692
C81	C	0.824233	-0.000031	-0.133599
C82	C	1.324233	0.499969	0.366401
N83	N	0.820497	0.228148	0.110698
N84	N	1.320497	0.728148	0.610698
C85	C	0.883117	-0.000018	-0.442798
C86	C	1.383117	0.499982	0.057202
C87	C	0.884391	-0.000023	-0.356082
C88	C	1.384391	0.499977	0.143918
C89	C	0.757832	-0.000030	-0.335777
C90	C	1.257832	0.499970	0.164223
C91	C	0.756559	-0.000031	-0.422491
C92	C	1.256559	0.499969	0.077509
C93	C	0.819203	-0.000021	-0.476000
C94	C	1.319203	0.499979	0.024000
C95	C	0.821751	-0.000025	-0.302570
C96	C	1.321751	0.499975	0.197430
C97	C	0.823132	-0.000030	-0.208548
C98	C	1.323132	0.499970	0.291452
C99	C	0.817822	-0.000017	-0.570027
C100	C	1.317822	0.499983	-0.070027
C101	C	0.815372	-0.000019	0.262739
C102	C	1.315372	0.499981	0.762739
C103	C	0.816721	-0.000014	0.355029
C104	C	1.316721	0.499986	0.855029
H105	H	0.478207	-0.144869	0.113483
H106	H	0.978207	0.355131	0.613483
H107	H	0.609643	-0.144865	0.115789
H108	H	1.109643	0.355135	0.615789
H109	H	0.704509	-0.000037	-0.449524
H110	H	1.204509	0.499963	0.050476
H111	H	0.896890	-0.583631	0.201958
H112	H	1.396890	-0.083631	0.701958
H113	H	0.896876	-0.416393	0.201973
H114	H	1.396876	0.083607	0.701973
Cl115	Cl	0.725431	-0.604081	-0.002824
Cl116	Cl	1.225431	-0.104081	0.497176
H117	H	0.162746	0.144820	0.107957
H118	H	0.662746	0.644820	0.607957
H119	H	0.934126	-0.000010	-0.486363
H120	H	1.434126	0.499990	0.013637
Cl121	Cl	0.414281	0.138032	0.002226
Cl122	Cl	0.914281	0.638032	0.502226
Cl123	Cl	0.964744	-0.000017	-0.314346
Cl124	Cl	1.464744	0.499983	0.185654
H125	H	0.264439	0.110942	0.021210
H126	H	0.764439	0.610942	0.521210
Cl127	Cl	0.462175	0.180186	0.113213
Cl128	Cl	0.962175	0.680186	0.613213
Cl129	Cl	0.625700	0.180187	0.116066
Cl130	Cl	1.125700	0.680187	0.616066
Cl131	Cl	0.725417	-0.395995	-0.002821
Cl132	Cl	1.225417	0.104005	0.497179
Cl133	Cl	0.226669	-0.138084	0.219213
Cl134	Cl	0.726669	0.361916	0.719213
Cl135	Cl	0.679084	-0.000035	-0.268504
Cl136	Cl	1.179084	0.499965	0.231496
Cl137	Cl	0.178777	-0.180230	0.108226
Cl138	Cl	0.678777	0.319770	0.608226
Cl139	Cl	0.390187	-0.138068	0.222097
Cl140	Cl	0.890187	0.361932	0.722097
Cl141	Cl	0.015271	0.180178	0.105369
Cl142	Cl	0.515271	0.680178	0.605369
H143	H	0.031300	-0.144880	0.105631
H144	H	0.531300	0.355120	0.605631
