data_functionalizedCrystal
_audit_creation_method	'MofGen! by Chris Wilmer'
_symmetry_space_group_name_H-M	'P1'
_symmetry_Int_Tables_number	1
_symmetry_cell_setting	triclinic
loop_
_symmetry_equiv_pos_as_xyz
  x,y,z
_cell_length_a	12.759401
_cell_length_b	15.299816
_cell_length_c	12.759393
_cell_angle_alpha	80.349878
_cell_angle_beta	90.021189
_cell_angle_gamma	80.350722
loop_
_atom_site_label
_atom_site_type_symbol
_atom_site_fract_x
_atom_site_fract_y
_atom_site_fract_z
Zn1	Zn	1.678545	-0.359003	0.666476
Zn2	Zn	1.708813	-0.509846	0.521225
Zn3	Zn	1.502856	-0.359049	0.490817
Zn4	Zn	1.533195	-0.509776	0.696844
O5	O	1.605852	-0.434419	0.593840
O6	O	1.829583	-0.379022	0.647225
O7	O	1.681463	-0.489891	0.370180
O8	O	1.500797	-0.232835	0.488683
O9	O	1.851821	-0.489846	0.540510
O10	O	1.629875	-0.232801	0.617739
O11	O	1.530147	-0.379102	0.347839
O12	O	1.359858	-0.379034	0.518130
O13	O	1.552506	-0.489727	0.839827
O14	O	1.382148	-0.489772	0.669497
O15	O	1.659294	-0.378954	0.817516
O16	O	1.710882	-0.636045	0.569956
O17	O	1.581856	-0.635993	0.698983
C18	C	1.332882	-0.434401	0.593810
C19	C	1.216108	-0.434415	0.593826
C20	C	1.063077	-0.492049	0.538190
C21	C	1.172797	-0.492033	0.538157
C22	C	1.149690	-0.376804	0.649522
C23	C	1.039970	-0.376817	0.649548
C24	C	1.076419	-0.558578	0.473899
C25	C	1.186140	-0.558562	0.473865
C26	C	1.652974	-0.668743	0.641087
C27	C	1.673229	-0.768989	0.661335
C28	C	1.461776	-1.051933	0.449485
C29	C	1.442740	-0.957748	0.430464
C30	C	1.500361	-0.910553	0.488180
C31	C	1.577021	-0.957554	0.564920
C32	C	1.596052	-1.051748	0.583949
C33	C	1.634637	-0.910368	0.622644
C34	C	1.711297	-0.957369	0.699384
C35	C	1.730326	-1.051554	0.718409
C36	C	1.672705	-1.098748	0.660693
C37	C	1.615605	-0.816174	0.603615
C38	C	1.749882	-0.815989	0.738079
C39	C	1.768918	-0.910174	0.757100
C40	C	1.879889	-0.434437	0.593872
C41	C	1.996668	-0.434445	0.593885
C42	C	1.605908	-0.434328	0.867855
C43	C	1.605931	-0.434289	0.984624
C44	C	1.558575	-0.199179	0.546432
C45	C	1.538429	-0.098933	0.526229
C46	C	1.605845	-0.434444	0.320878
C47	C	1.605974	-0.434229	0.204059
C48	C	1.661544	-0.376604	1.027870
C49	C	1.661562	-0.376571	1.137587
C50	C	1.550354	-0.491916	1.160806
C51	C	1.550330	-0.491943	1.051089
C52	C	1.725753	-0.310013	1.014466
C53	C	1.725771	-0.309981	1.124183
H54	H	0.985902	-0.329903	0.694891
Cl55	Cl	1.024530	-0.529578	0.342491
Cl56	Cl	1.476061	-0.792149	0.464633
H57	H	1.689919	-0.240167	0.970619
Cl58	Cl	1.480395	-0.564450	0.996725
Cl59	Cl	1.480460	-0.564392	1.244369
Cl60	Cl	1.044516	-0.661066	0.539383
Cl61	Cl	1.346362	-0.898669	0.334006
H62	H	1.215074	-0.533464	0.391546
Cl63	Cl	1.204136	-0.304363	0.719496
Cl64	Cl	1.660050	-0.207572	1.156099
H65	H	1.810909	-0.328688	1.157739
Cl66	Cl	1.253850	-0.666429	0.529050
Cl67	Cl	1.519238	-0.757100	0.507143
H68	H	1.414865	-1.090367	0.402506
Cl69	Cl	1.696853	-1.217158	0.684383
Cl70	Cl	1.826678	-1.110638	0.814904
H71	H	1.831334	-0.948455	0.819584
H72	H	1.808066	-0.335053	0.985484
H73	H	1.796800	-0.777564	0.785078
