data_functionalizedCrystal
_audit_creation_method	'MofGen! by Chris Wilmer'
_symmetry_space_group_name_H-M	'P1'
_symmetry_Int_Tables_number	1
_symmetry_cell_setting	triclinic
loop_
_symmetry_equiv_pos_as_xyz
  x,y,z
_cell_length_a	14.628931
_cell_length_b	23.196402
_cell_length_c	23.196401
_cell_angle_alpha	59.999265
_cell_angle_beta	90.005672
_cell_angle_gamma	60.000556
loop_
_atom_site_label
_atom_site_type_symbol
_atom_site_fract_x
_atom_site_fract_y
_atom_site_fract_z
Zr1	Zr	0.880624	0.631009	-0.075632
O2	O	0.734642	0.751291	-0.167686
O3	O	0.925372	0.510739	-0.047417
O4	O	0.925342	0.631025	-0.167691
O5	O	0.734699	0.630988	0.047467
O6	O	1.075774	0.631025	-0.167691
O7	O	0.734672	0.631005	-0.047412
O8	O	1.075828	0.415855	0.047458
O9	O	0.734646	0.846158	-0.167682
O10	O	1.056727	0.560204	-0.035378
O11	O	0.944482	0.560192	0.035428
O12	O	0.944446	0.701813	-0.106179
O13	O	0.832201	0.701801	-0.035373
Zr14	Zr	1.120591	0.630983	0.075688
Zr15	Zr	1.120546	0.631009	-0.075632
Zr16	Zr	0.880669	0.630983	0.075688
Zr17	Zr	0.880631	0.782312	-0.075626
Zr18	Zr	1.120584	0.479680	0.075682
O19	O	1.075843	0.751253	0.047473
O20	O	1.075780	0.751290	-0.167686
O21	O	0.734705	0.751254	0.047472
O22	O	1.266573	0.510701	0.167742
O23	O	1.266510	0.510738	-0.047416
O24	O	0.925435	0.510702	0.167742
O25	O	1.266515	0.631004	-0.047411
O26	O	1.075873	0.630967	0.167747
O27	O	0.925441	0.630967	0.167747
O28	O	1.266543	0.630987	0.047468
O29	O	0.925352	0.846157	-0.167682
O30	O	1.075863	0.415834	0.167738
O31	O	1.266569	0.415834	0.167738
O32	O	1.266534	0.415855	0.047458
O33	O	0.734681	0.846137	-0.047402
O34	O	0.925387	0.846137	-0.047402
O35	O	1.056768	0.560179	0.106236
O36	O	1.169013	0.560191	0.035429
O37	O	1.056733	0.701800	-0.035372
O38	O	0.944488	0.701788	0.035434
C39	C	1.000599	0.441740	0.000020
C40	C	1.000596	0.377508	0.000017
C41	C	0.700502	0.630996	0.000028
C42	C	0.598649	0.630997	0.000028
C43	C	1.059179	0.347344	-0.036946
C44	C	1.059190	0.286983	-0.036940
C45	C	1.000596	0.256800	0.000019
C46	C	0.942010	0.286968	0.036990
C47	C	0.942011	0.347322	0.036989
C48	C	0.902435	0.194771	-0.005256
C49	C	0.902432	0.134422	-0.005260
C50	C	1.000598	0.070645	0.000026
C51	C	1.098765	0.067232	0.005302
C52	C	1.098765	0.127586	0.005301
C53	C	1.000590	0.191355	0.000025
C54	C	1.059198	-0.024970	-0.036933
C55	C	1.059212	-0.085336	-0.036922
C56	C	0.942021	-0.085344	0.037004
C57	C	0.942018	-0.024985	0.036998
C58	C	1.000604	0.005201	0.000026
C59	C	0.608938	0.560749	0.035150
C60	C	0.503669	0.560748	0.035150
C61	C	1.300713	0.630995	0.000028
C62	C	1.402566	0.630995	0.000028
C63	C	1.000552	0.631028	-0.189251
C64	C	1.000533	0.631040	-0.253491
C65	C	1.000616	0.820252	0.000036
C66	C	1.000618	0.884484	0.000039
C67	C	1.083410	0.631041	-0.283654
C68	C	1.083435	0.631024	-0.344001
C69	C	1.000565	0.631023	-0.374190
C70	C	0.917681	0.631017	-0.344017
C71	C	0.917665	0.631025	-0.283668
C72	C	0.899430	0.678518	-0.493570
C73	C	0.899446	0.678515	-0.553921
C74	C	1.000615	0.630994	-0.560326
C75	C	1.101776	0.583487	-0.506379
C76	C	1.101759	0.583495	-0.446029
C77	C	1.000574	0.631014	-0.439629
C78	C	1.083525	0.630976	-0.655923
C79	C	1.083551	0.630955	-0.716269
C80	C	0.917788	0.630956	-0.716288
C81	C	0.917772	0.630969	-0.655940
C82	C	1.000640	0.630983	-0.625763
C83	C	1.000663	0.630963	0.189307
C84	C	1.000682	0.630952	0.253547
C85	C	1.300705	0.441739	0.000020
C86	C	1.402555	0.377507	0.000017
C87	C	1.000655	0.441707	0.189299
C88	C	1.000671	0.377464	0.253536
C89	C	1.300760	0.441707	0.189299
C90	C	1.402629	0.377464	0.253536
C91	C	0.700454	0.820285	-0.189243
C92	C	0.598585	0.884528	-0.253480
C93	C	0.700510	0.820253	0.000036
C94	C	0.598660	0.884485	0.000039
C95	C	1.000560	0.820285	-0.189243
C96	C	1.000544	0.884528	-0.253480
C97	C	1.391773	0.347350	-0.036951
C98	C	1.487463	0.287005	-0.036967
C99	C	1.593934	0.256815	-0.000011
C100	C	1.604714	0.286979	0.036958
C101	C	1.509025	0.347326	0.036970
C102	C	1.059291	0.347289	0.320669
C103	C	1.059301	0.286934	0.381032
C104	C	1.000698	0.256752	0.374261
C105	C	0.942071	0.286934	0.307120
C106	C	0.942054	0.347291	0.246759
C107	C	1.509069	0.347301	0.246742
C108	C	1.604795	0.286946	0.307094
C109	C	1.594079	0.256751	0.374239
C110	C	1.487628	0.286920	0.381032
C111	C	1.391905	0.347278	0.320681
C112	C	0.492146	0.914699	-0.246686
C113	C	0.396420	0.975072	-0.307038
C114	C	0.407136	1.005270	-0.374183
C115	C	0.513587	0.975097	-0.380976
C116	C	0.609310	0.914729	-0.320625
C117	C	0.609442	0.914649	0.037000
C118	C	0.513752	0.975010	0.037000
C119	C	0.407281	1.005202	0.000042
C120	C	0.396500	0.975035	-0.036924
C121	C	0.492189	0.914680	-0.036928
C122	C	1.059159	0.914690	-0.246686
C123	C	1.059166	0.975045	-0.307037
C124	C	1.000551	1.005241	-0.374182
C125	C	0.941934	0.975072	-0.380975
C126	C	0.941934	0.914714	-0.320624
H127	H	1.106887	0.371917	-0.067049
Cl128	Cl	0.868360	0.385214	0.162365
Cl129	Cl	1.187589	0.631052	-0.245715
Cl130	Cl	1.132975	0.385217	0.329201
Cl131	Cl	0.772275	0.738241	-0.621736
Cl132	Cl	1.187707	0.630988	-0.617983
Cl133	Cl	1.258098	0.385185	0.329234
Cl134	Cl	1.132858	0.876742	-0.162282
Cl135	Cl	0.464728	0.723854	-0.046394
H136	H	0.822497	0.137210	-0.009560
Cl137	Cl	0.743280	0.876710	0.083464
Cl138	Cl	1.473885	0.249094	-0.083443
Cl139	Cl	1.133015	0.249001	0.465428
Cl140	Cl	0.527330	1.012917	0.083480
H141	H	1.000721	0.207605	0.423417
Cl142	Cl	1.228925	0.523768	-0.378209
Cl143	Cl	1.714219	0.180947	-0.000032
Cl144	Cl	0.478645	0.876748	-0.162282
Cl145	Cl	1.522570	0.385253	0.162338
Cl146	Cl	0.868406	0.248980	0.298619
Cl147	Cl	0.527039	1.013066	-0.465392
H148	H	1.691463	0.262388	0.301551
Cl149	Cl	0.772242	0.738323	-0.485556
Cl150	Cl	1.714430	0.180870	0.450103
H151	H	0.309752	0.999629	-0.301493
H152	H	1.478920	0.262326	0.435709
H153	H	0.512303	0.500606	0.065215
H154	H	1.150926	0.631025	-0.368564
H155	H	1.106898	0.262418	-0.067041
H156	H	0.329374	1.054347	0.000051
Cl157	Cl	0.286785	1.081161	-0.450047
Cl158	Cl	0.743116	0.876802	-0.329178
Cl159	Cl	0.262642	1.012996	-0.083379
H160	H	1.106896	0.999603	-0.301493
H161	H	0.393923	0.691140	-0.030045
Cl162	Cl	0.478615	0.876761	-0.083394
H163	H	1.000559	1.054388	-0.423318
H164	H	1.517820	0.371873	0.067078
Cl165	Cl	0.868239	1.013048	-0.465392
H166	H	0.894199	0.890162	-0.326166
Cl167	Cl	0.868358	-0.123282	0.083467
H168	H	1.178705	0.015297	0.009615
Cl169	Cl	1.222171	0.123293	0.011938
H170	H	1.106906	-0.000395	-0.067035
H171	H	1.106924	-0.109900	-0.067018
Cl172	Cl	0.868363	0.012940	0.083467
H173	H	0.822486	0.246709	-0.009575
H174	H	0.894302	0.371882	0.067089
Cl175	Cl	1.257934	0.385293	-0.083419
H176	H	0.850176	0.631024	-0.259108
H177	H	0.894304	0.262388	0.067083
H178	H	0.695681	0.500609	0.065221
H179	H	1.691416	0.262389	0.067046
H180	H	1.151045	0.630951	-0.740825
Cl181	Cl	0.813617	0.630945	-0.754232
Cl182	Cl	1.228970	0.523747	-0.514424
Cl183	Cl	0.813574	0.630974	-0.618020
H184	H	0.850209	0.631014	-0.368599
