data_functionalizedCrystal
_audit_creation_method	'MofGen! by Chris Wilmer'
_symmetry_space_group_name_H-M	'P1'
_symmetry_Int_Tables_number	1
_symmetry_cell_setting	triclinic
loop_
_symmetry_equiv_pos_as_xyz
  x,y,z
_cell_length_a	19.288840
_cell_length_b	10.654551
_cell_length_c	17.766277
_cell_angle_alpha	89.996514
_cell_angle_beta	89.983415
_cell_angle_gamma	83.805689
loop_
_atom_site_label
_atom_site_type_symbol
_atom_site_fract_x
_atom_site_fract_y
_atom_site_fract_z
O1	O	0.922389	0.156507	-0.062716
O2	O	1.422389	0.656507	0.437284
O3	O	0.720265	0.177672	-0.062689
O4	O	1.220265	0.677672	0.437311
O5	O	0.825974	-0.015750	-0.062703
O6	O	1.325974	0.484250	0.437297
O7	O	0.816680	0.349929	-0.062701
O8	O	1.316680	0.849929	0.437299
O9	O	0.825955	-0.015760	0.062485
O10	O	1.325955	0.484240	0.562485
O11	O	0.720246	0.177662	0.062500
O12	O	1.220246	0.677662	0.562500
O13	O	0.922370	0.156497	0.062473
O14	O	1.422370	0.656497	0.562473
Cu15	Cu	0.821307	0.167079	0.073917
Cu16	Cu	1.321307	0.667079	0.573917
Cu17	Cu	0.821329	0.167090	-0.074133
Cu18	Cu	1.321329	0.667090	0.425867
O19	O	0.816661	0.349919	0.062487
O20	O	1.316661	0.849919	0.562487
C21	C	0.694374	0.176992	-0.000091
C22	C	1.194374	0.676992	0.499909
C23	C	0.617256	0.174963	-0.000081
C24	C	1.117256	0.674963	0.499919
C25	C	0.581057	0.173994	-0.068323
C26	C	1.081057	0.673994	0.431677
C27	C	0.508597	0.172074	-0.068333
C28	C	1.008597	0.672074	0.431667
C29	C	0.472342	0.171097	-0.000096
C30	C	0.972342	0.671097	0.499904
C31	C	0.508550	0.172074	0.068155
C32	C	1.008550	0.672074	0.568155
C33	C	0.581007	0.174007	0.068163
C34	C	1.081007	0.674007	0.568163
C35	C	0.362505	0.094476	0.052172
C36	C	0.862505	0.594476	0.552172
C37	C	0.290049	0.092536	0.052162
C38	C	0.790049	0.592536	0.552162
C39	C	0.248859	0.165142	-0.000115
C40	C	0.748859	0.665142	0.499885
C41	C	0.280135	0.239672	-0.052396
C42	C	0.780135	0.739672	0.447604
C43	C	0.352592	0.241605	-0.052388
C44	C	0.852592	0.741605	0.447612
C45	C	0.393774	0.169002	-0.000096
C46	C	0.893774	0.669002	0.499904
C47	C	0.134091	0.162092	-0.068372
C48	C	0.634091	0.662092	0.431628
C49	C	0.061629	0.160180	-0.068379
C50	C	0.561629	0.660180	0.431621
C51	C	0.061584	0.160168	0.068111
C52	C	0.561584	0.660168	0.568111
C53	C	0.134043	0.162093	0.068116
C54	C	0.634043	0.662093	0.568116
C55	C	0.170293	0.163049	-0.000128
C56	C	0.670293	0.663049	0.499872
C57	C	0.825282	-0.062538	-0.000111
C58	C	1.325282	0.437462	0.499889
C59	C	0.823240	-0.201937	-0.000115
C60	C	1.323240	0.298063	0.499885
C61	C	0.822292	-0.267423	-0.068354
C62	C	1.322292	0.232577	0.431646
C63	C	0.820367	-0.398402	-0.068350
C64	C	1.320367	0.101598	0.431650
C65	C	0.820341	-0.398398	0.068137
C66	C	1.320341	0.101602	0.568137
C67	C	0.822261	-0.267420	0.068132
C68	C	1.322261	0.232580	0.568132
C69	C	0.822310	-0.267427	-0.147154
C70	C	1.322310	0.232573	0.352846
C71	C	0.820386	-0.398406	-0.147150
C72	C	1.320386	0.101594	0.352850
C73	C	0.948261	0.157178	-0.000126
C74	C	1.448261	0.657178	0.499874
C75	C	1.025379	0.159206	-0.000141
C76	C	1.525379	0.659206	0.499859
C77	C	0.817353	0.396707	-0.000107
C78	C	1.317353	0.896707	0.499893
C79	C	0.819395	0.536106	-0.000107
C80	C	1.319395	1.036106	0.499893
N81	N	0.821296	0.167070	0.178047
N82	N	1.321296	0.667070	0.678047
N83	N	0.821345	0.167089	-0.178263
N84	N	1.321345	0.667089	0.321737
C85	C	0.868119	0.081464	0.217428
C86	C	1.368119	0.581464	0.717428
C87	C	0.868123	0.081459	0.296230
C88	C	1.368123	0.581459	0.796230
C89	C	0.821311	0.167080	0.335648
C90	C	1.321311	0.667080	0.835648
C91	C	0.774478	0.252692	0.296258
C92	C	1.274478	0.752692	0.796258
C93	C	0.774471	0.252687	0.217458
C94	C	1.274471	0.752687	0.717458
C95	C	0.812761	0.281502	0.460487
C96	C	1.312761	0.781502	0.960487
C97	C	0.812773	0.281509	0.539286
C98	C	1.312773	0.781509	1.039286
C99	C	0.821329	0.167095	0.578694
C100	C	1.321329	0.667095	1.078694
C101	C	0.829888	0.052669	0.539294
C102	C	1.329888	0.552669	1.039294
C103	C	0.829880	0.052664	0.460494
C104	C	1.329880	0.552664	0.960494
C105	C	0.821313	0.167094	0.421094
C106	C	1.321313	0.667094	0.921094
C107	C	0.868160	0.081476	0.703521
C108	C	1.368160	0.581476	1.203521
C109	C	0.868159	0.081469	0.782324
C110	C	1.368159	0.581469	1.282324
C111	C	0.774517	0.252713	0.782351
C112	C	1.274517	0.752713	1.282351
C113	C	0.774515	0.252709	0.703549
C114	C	1.274515	0.752709	1.203549
C115	C	0.821340	0.167092	0.664139
C116	C	1.321340	0.667092	1.164139
H117	H	0.163606	0.162884	-0.123941
H118	H	0.663606	0.662884	0.376059
H119	H	0.479118	0.171286	-0.123905
H120	H	0.979118	0.671286	0.376095
F121	F	0.917992	-0.009650	0.661577
F122	F	1.417992	0.490350	1.161577
H123	H	0.378053	0.302293	-0.094955
H124	H	0.878053	0.802293	0.405045
H125	H	0.246599	0.298800	-0.094963
H126	H	0.746599	0.798800	0.405037
H127	H	0.906254	0.011746	0.328299
H128	H	1.406254	0.511746	0.828299
H129	H	0.032156	0.159399	-0.123952
H130	H	0.532156	0.659399	0.376048
H131	H	0.819543	-0.451730	0.123702
H132	H	1.319543	0.048270	0.623702
H133	H	0.774317	-0.220109	-0.177407
H134	H	1.274317	0.279891	0.322593
F135	F	0.724633	0.343804	0.175544
F136	F	1.224633	0.843804	0.675544
F137	F	0.023003	0.159140	0.140735
F138	F	0.523003	0.659140	0.640735
F139	F	0.917951	-0.009660	0.175486
F140	F	1.417951	0.490340	0.675486
F141	F	0.724682	0.343828	0.661634
F142	F	1.224682	0.843828	1.161634
F143	F	0.724691	0.343829	0.824299
F144	F	1.224691	0.843829	1.324299
H145	H	0.906286	0.011752	0.814388
H146	H	1.406286	0.511752	1.314388
F147	F	0.172572	0.163118	0.140749
F148	F	0.672572	0.663118	0.640749
H149	H	0.805809	0.374681	0.571360
H150	H	1.305809	0.874681	1.071360
H151	H	0.264591	0.031843	0.094728
H152	H	0.764591	0.531843	0.594728
F153	F	0.838983	-0.069112	0.418564
F154	F	1.338983	0.430888	0.918564
F155	F	0.838999	-0.069108	0.581228
F156	F	1.338999	0.430892	1.081228
H157	H	0.872972	-0.238952	-0.171610
H158	H	1.372972	0.261048	0.328390
F159	F	0.803705	0.403288	0.418554
F160	F	1.303705	0.903288	0.918554
H161	H	0.736361	0.322404	0.328356
H162	H	1.236361	0.822404	0.828356
H163	H	0.396036	0.035349	0.094747
H164	H	0.896036	0.535349	0.594747
H165	H	0.610566	0.174772	-0.123893
H166	H	1.110566	0.674772	0.376107
F167	F	0.883130	-0.460269	-0.186699
F168	F	1.383130	0.039731	0.313301
F169	F	0.619535	0.175038	0.140799
F170	F	1.119535	0.675038	0.640799
F171	F	0.469963	0.171042	0.140778
F172	F	0.969963	0.671042	0.640778
F173	F	0.823250	-0.197725	0.140761
F174	F	1.323250	0.302275	0.640761
H175	H	0.769733	-0.426879	-0.171602
H176	H	1.269733	0.073121	0.328398
