data_functionalizedCrystal
_audit_creation_method	'MofGen! by Chris Wilmer'
_symmetry_space_group_name_H-M	'P1'
_symmetry_Int_Tables_number	1
_symmetry_cell_setting	triclinic
loop_
_symmetry_equiv_pos_as_xyz
  x,y,z
_cell_length_a	8.497365
_cell_length_b	19.077713
_cell_length_c	19.077105
_cell_angle_alpha	94.474671
_cell_angle_beta	92.332556
_cell_angle_gamma	92.243920
loop_
_atom_site_label
_atom_site_type_symbol
_atom_site_fract_x
_atom_site_fract_y
_atom_site_fract_z
Zn1	Zn	-1.019126	-0.323800	-1.089075
Zn2	Zn	-0.766354	-0.441731	-1.093684
Zn3	Zn	-0.744319	-0.319134	-0.971159
Zn4	Zn	-1.019046	-0.436898	-0.975877
O5	O	-0.887211	-0.380391	-1.032449
O6	O	-0.994851	-0.343419	-1.188338
O7	O	-0.542670	-0.425538	-1.077386
O8	O	-0.771585	-0.221114	-0.982898
O9	O	-0.809140	-0.430062	-1.191724
O10	O	-0.973485	-0.224542	-1.069530
O11	O	-0.526481	-0.335466	-0.987367
O12	O	-0.771507	-0.330781	-0.873134
O13	O	-1.239817	-0.421826	-0.990938
O14	O	-0.973347	-0.417301	-0.876600
O15	O	-1.239876	-0.338733	-1.074105
O16	O	-0.809062	-0.539729	-1.081960
O17	O	-0.994714	-0.536178	-0.995408
C18	C	-0.870028	-0.373011	-0.849288
C19	C	-0.862716	-0.369871	-0.770931
C20	C	-0.904306	-0.563530	-1.039715
C21	C	-0.911678	-0.641881	-1.042888
C22	C	-0.964506	-1.083098	-1.065644
C23	C	-0.957565	-1.009479	-1.062654
C24	C	-0.848911	-0.970953	-1.016091
C25	C	-0.747182	-1.006049	-0.972518
C26	C	-0.754117	-1.079667	-0.975512
C27	C	-0.816884	-0.750595	-1.002309
C28	C	-0.809960	-0.676972	-0.999318
C29	C	-1.020342	-0.680407	-1.089455
C30	C	-1.027273	-0.754026	-1.092441
C31	C	-0.925539	-0.789116	-1.048872
N32	N	-0.841817	-0.895702	-1.013032
N33	N	-0.932627	-0.864365	-1.051934
C34	C	-0.477333	-0.380466	-1.032401
C35	C	-0.298686	-0.380325	-1.032496
C36	C	-0.904462	-0.387800	-1.216325
C37	C	-0.911814	-0.390957	-1.294683
C38	C	-0.870086	-0.196537	-1.025173
C39	C	-0.862788	-0.118189	-1.022073
C40	C	-0.964217	-0.413510	-0.735945
C41	C	-0.957353	-0.410550	-0.662320
C42	C	-0.848980	-0.363954	-0.623683
C43	C	-0.747476	-0.320310	-0.658674
C44	C	-0.754348	-0.323267	-0.732298
C45	C	-0.817181	-0.350270	-0.403297
C46	C	-0.810313	-0.347318	-0.329669
C47	C	-1.020194	-0.437558	-0.333320
C48	C	-1.027050	-0.440513	-0.406944
C49	C	-0.925551	-0.396867	-0.441929
N50	N	-0.841959	-0.360929	-0.548427
N51	N	-0.932581	-0.399888	-0.517184
H52	H	-1.052999	-1.114461	-1.103554
H53	H	-1.102830	-0.473092	-0.304827
O54	O	-1.056532	-0.975501	-1.105007
C55	C	-1.153895	-1.025292	-1.146758
H56	H	-1.161553	-1.076632	-1.120012
H57	H	-1.276895	-1.004250	-1.153399
H58	H	-1.101971	-1.035257	-1.200622
H59	H	-0.722072	-0.309365	-0.298212
O60	O	-0.704623	-0.639508	-0.954009
C61	C	-0.786089	-0.595084	-0.906748
H62	H	-0.911997	-0.617043	-0.903274
H63	H	-0.723773	-0.592142	-0.852472
H64	H	-0.788371	-0.540144	-0.926279
O65	O	-0.655157	-1.113792	-0.933287
C66	C	-0.561138	-1.158014	-0.975168
H67	H	-0.554603	-1.138010	-1.029788
H68	H	-0.437383	-1.157913	-0.949723
H69	H	-0.615399	-1.213878	-0.979859
O70	O	-1.132834	-0.791343	-1.137751
C71	C	-1.221140	-0.744583	-1.175562
H72	H	-1.151831	-0.692229	-1.175862
H73	H	-1.245220	-0.768017	-1.231971
H74	H	-1.337772	-0.735691	-1.149430
H75	H	-1.103168	-0.651830	-1.124928
H76	H	-0.734522	-0.314735	-0.431773
O77	O	-0.642256	-0.275104	-0.621038
C78	C	-0.657979	-0.281838	-0.548553
H79	H	-0.713579	-0.335854	-0.540674
H80	H	-0.536765	-0.275882	-0.520343
H81	H	-0.736305	-0.239224	-0.526029
H82	H	-0.734045	-0.779156	-0.966832
H83	H	-0.671703	-0.287727	-0.760782
H84	H	-0.658706	-0.974677	-0.934608
O85	O	-1.069708	-0.458698	-0.773439
C86	C	-1.223885	-0.442639	-0.754874
H87	H	-1.224906	-0.385517	-0.732403
H88	H	-1.306896	-0.450684	-0.803557
H89	H	-1.264526	-0.478728	-0.713652
O90	O	-1.056103	-0.452845	-0.628303
C91	C	-1.150421	-0.411051	-0.584145
H92	H	-1.157267	-0.356427	-0.604127
H93	H	-1.274040	-0.436564	-0.584369
H94	H	-1.096227	-0.406365	-0.528233
H95	H	-1.115295	-0.478459	-0.438398
