data_functionalizedCrystal
_audit_creation_method	'MofGen! by Chris Wilmer'
_symmetry_space_group_name_H-M	'P1'
_symmetry_Int_Tables_number	1
_symmetry_cell_setting	triclinic
loop_
_symmetry_equiv_pos_as_xyz
  x,y,z
_cell_length_a	18.050591
_cell_length_b	19.120904
_cell_length_c	18.050589
_cell_angle_alpha	92.416977
_cell_angle_beta	90.024227
_cell_angle_gamma	92.416941
loop_
_atom_site_label
_atom_site_type_symbol
_atom_site_fract_x
_atom_site_fract_y
_atom_site_fract_z
Zn1	Zn	1.117386	-0.397248	-0.313673
Zn2	Zn	1.367386	-0.147248	-0.063673
Zn3	Zn	1.617386	0.102752	0.186327
Zn4	Zn	1.867386	0.352752	0.436327
Zn5	Zn	1.122590	-0.279810	-0.432568
Zn6	Zn	1.372590	-0.029810	-0.182568
Zn7	Zn	1.622590	0.220190	0.067432
Zn8	Zn	1.872590	0.470190	0.317432
Zn9	Zn	0.998499	-0.279802	-0.308387
Zn10	Zn	1.248499	-0.029802	-0.058387
Zn11	Zn	1.498499	0.220198	0.191613
Zn12	Zn	1.748499	0.470198	0.441613
Zn13	Zn	0.993155	-0.397206	-0.437815
Zn14	Zn	1.243155	-0.147206	-0.187815
Zn15	Zn	1.493155	0.102794	0.062185
Zn16	Zn	1.743155	0.352794	0.312185
O17	O	1.057908	-0.338516	-0.373111
O18	O	1.307908	-0.088516	-0.123111
O19	O	1.557908	0.161484	0.126889
O20	O	1.807908	0.411484	0.376889
O21	O	1.222000	-0.381691	-0.329461
O22	O	1.472000	-0.131691	-0.079461
O23	O	1.722000	0.118309	0.170539
O24	O	1.972000	0.368309	0.420539
O25	O	1.110544	-0.181526	-0.411688
O26	O	1.360544	0.068474	-0.161688
O27	O	1.610544	0.318474	0.088312
O28	O	1.860544	0.568474	0.338312
O29	O	1.014328	-0.295396	-0.205165
O30	O	1.264328	-0.045396	0.044835
O31	O	1.514328	0.204604	0.294835
O32	O	1.764328	0.454604	0.544835
O33	O	1.225824	-0.295409	-0.416813
O34	O	1.475824	-0.045409	-0.166813
O35	O	1.725824	0.204591	0.083187
O36	O	1.975824	0.454591	0.333187
O37	O	1.101674	-0.381683	-0.209048
O38	O	1.351674	-0.131683	0.040952
O39	O	1.601674	0.118317	0.290952
O40	O	1.851674	0.368317	0.540952
O41	O	1.019375	-0.181521	-0.320453
O42	O	1.269375	0.068479	-0.070453
O43	O	1.519375	0.318479	0.179547
O44	O	1.769375	0.568479	0.429547
O45	O	0.893867	-0.295354	-0.325540
O46	O	1.143867	-0.045354	-0.075540
O47	O	1.393867	0.204646	0.174460
O48	O	1.643867	0.454646	0.424460
O49	O	1.005220	-0.495493	-0.425755
O50	O	1.255220	-0.245493	-0.175755
O51	O	1.505220	0.004507	0.074245
O52	O	1.755220	0.254507	0.324245
O53	O	0.889940	-0.381611	-0.420630
O54	O	1.139940	-0.131611	-0.170630
O55	O	1.389940	0.118389	0.079370
O56	O	1.639940	0.368389	0.329370
O57	O	1.096492	-0.495525	-0.334548
O58	O	1.346492	-0.245525	-0.084548
O59	O	1.596492	0.004475	0.165452
O60	O	1.846492	0.254475	0.415452
O61	O	1.105362	-0.295368	-0.537188
O62	O	1.355362	-0.045368	-0.287188
O63	O	1.605362	0.204632	-0.037188
O64	O	1.855362	0.454632	0.212812
O65	O	1.010266	-0.381618	-0.541043
O66	O	1.260266	-0.131618	-0.291043
O67	O	1.510266	0.118382	-0.041043
O68	O	1.760266	0.368382	0.208957
C69	C	0.864957	-0.338477	-0.373081
C70	C	1.114957	-0.088477	-0.123081
C71	C	1.364957	0.161523	0.126919
C72	C	1.614957	0.411523	0.376919
C73	C	0.782411	-0.338477	-0.373087
C74	C	1.032411	-0.088477	-0.123087
C75	C	1.282411	0.161523	0.126913
C76	C	1.532411	0.411523	0.376913
C77	C	0.585070	-0.291679	-0.321325
C78	C	0.835070	-0.041679	-0.071325
C79	C	1.085070	0.208321	0.178675
C80	C	1.335070	0.458321	0.428675
C81	C	0.536429	-0.274401	-0.388283
C82	C	0.786429	-0.024401	-0.138283
C83	C	1.036429	0.225599	0.111717
C84	C	1.286429	0.475599	0.361717
C85	C	0.631280	-0.338509	-0.373111
C86	C	0.881280	-0.088509	-0.123111
C87	C	1.131280	0.161491	0.126889
C88	C	1.381280	0.411491	0.376889
C89	C	0.532839	-0.355786	-0.306177
C90	C	0.782839	-0.105786	-0.056177
C91	C	1.032839	0.144214	0.193823
C92	C	1.282839	0.394214	0.443823
C93	C	0.485293	-0.338539	-0.373129
C94	C	0.735293	-0.088539	-0.123129
C95	C	0.985293	0.161461	0.126871
C96	C	1.235293	0.411461	0.376871
C97	C	0.583728	-0.321197	-0.440103
C98	C	0.833728	-0.071197	-0.190103
C99	C	1.083728	0.178803	0.059897
C100	C	1.333728	0.428803	0.309897
C101	C	0.580141	-0.402613	-0.357953
C102	C	0.830141	-0.152613	-0.107953
C103	C	1.080141	0.097387	0.142047
C104	C	1.330141	0.347387	0.392047
C105	C	0.531521	-0.385358	-0.424959
C106	C	0.781521	-0.135358	-0.174959
C107	C	1.031521	0.114642	0.075041
C108	C	1.281521	0.364642	0.325041
C109	C	0.715379	-0.338491	-0.373100
C110	C	0.965379	-0.088491	-0.123100
C111	C	1.215379	0.161509	0.126900
C112	C	1.465379	0.411509	0.376900
C113	C	0.401196	-0.338557	-0.373147
C114	C	0.651196	-0.088557	-0.123147
C115	C	0.901196	0.161443	0.126853
C116	C	1.151196	0.411443	0.376853
C117	C	1.049679	-0.521705	-0.381326
C118	C	1.299679	-0.271705	-0.131326
C119	C	1.549679	-0.021705	0.118674
C120	C	1.799679	0.228295	0.368674
C121	C	1.046173	-0.599769	-0.384827
C122	C	1.296173	-0.349769	-0.134827
C123	C	1.546173	-0.099769	0.115173
C124	C	1.796173	0.150231	0.365173
C125	C	1.092043	-0.636462	-0.338988
C126	C	1.342043	-0.386462	-0.088988
C127	C	1.592043	-0.136462	0.161012
C128	C	1.842043	0.113538	0.411012
C129	C	1.088739	-0.709811	-0.342275
C130	C	1.338739	-0.459811	-0.092275
C131	C	1.588739	-0.209811	0.157725
C132	C	1.838739	0.040189	0.407725
C133	C	1.039568	-0.746467	-0.391405
C134	C	1.289568	-0.496467	-0.141405
C135	C	1.539568	-0.246467	0.108595
C136	C	1.789568	0.003533	0.358595
C137	C	0.993693	-0.709770	-0.437246
C138	C	1.243693	-0.459770	-0.187246
C139	C	1.493693	-0.209770	0.062754
C140	C	1.743693	0.040230	0.312754
C141	C	0.996993	-0.636422	-0.433955
C142	C	1.246993	-0.386422	-0.183955
C143	C	1.496993	-0.136422	0.066045
C144	C	1.746993	0.113578	0.316045
C145	C	1.027222	-0.967931	-0.403714
C146	C	1.277222	-0.717931	-0.153714
C147	C	1.527222	-0.467931	0.096286
C148	C	1.777222	-0.217931	0.346286
C149	C	1.023927	-1.041284	-0.407003
C150	C	1.273927	-0.791284	-0.157003
C151	C	1.523927	-0.541284	0.092997
C152	C	1.773927	-0.291284	0.342997
C153	C	1.118973	-1.041320	-0.312030
C154	C	1.368973	-0.791320	-0.062030
C155	C	1.618973	-0.541320	0.187970
C156	C	1.868973	-0.291320	0.437970
C157	C	1.122272	-0.967971	-0.308746
C158	C	1.372272	-0.717971	-0.058746
C159	C	1.622272	-0.467971	0.191254
C160	C	1.872272	-0.217971	0.441254
C161	C	1.076394	-0.931280	-0.354585
C162	C	1.326394	-0.681280	-0.104585
C163	C	1.576394	-0.431280	0.145415
C164	C	1.826394	-0.181280	0.395415
C165	C	1.036192	-0.821442	-0.394767
C166	C	1.286192	-0.571442	-0.144767
C167	C	1.536192	-0.321442	0.105233
C168	C	1.786192	-0.071442	0.355233
C169	C	1.079767	-0.856306	-0.351218
C170	C	1.329767	-0.606306	-0.101218
C171	C	1.579767	-0.356306	0.148782
C172	C	1.829767	-0.106306	0.398782
C173	C	1.251611	-0.338556	-0.373141
C174	C	1.501611	-0.088556	-0.123141
C175	C	1.751611	0.161444	0.126859
C176	C	2.001611	0.411444	0.376859
C177	C	1.334156	-0.338572	-0.373154
C178	C	1.584156	-0.088572	-0.123154
C179	C	1.834156	0.161428	0.126846
C180	C	2.084156	0.411428	0.376846
C181	C	1.057818	-0.338505	-0.566062
C182	C	1.307818	-0.088505	-0.316062
C183	C	1.557818	0.161495	-0.066062
C184	C	1.807818	0.411495	0.183938
C185	C	1.057847	-0.338523	-0.648609
C186	C	1.307847	-0.088523	-0.398609
C187	C	1.557847	0.161477	-0.148609
C188	C	1.807847	0.411477	0.101391
C189	C	1.066147	-0.156040	-0.364874
C190	C	1.316147	0.093960	-0.114874
C191	C	1.566147	0.343960	0.135126
C192	C	1.816147	0.593960	0.385126
C193	C	1.069797	-0.077976	-0.361163
C194	C	1.319797	0.172024	-0.111163
C195	C	1.569797	0.422024	0.138837
C196	C	1.819797	0.672024	0.388837
C197	C	1.006184	-0.385410	-0.850182
C198	C	1.256184	-0.135410	-0.600182
C199	C	1.506184	0.114590	-0.350182
C200	C	1.756184	0.364590	-0.100182
C201	C	0.990975	-0.321320	-0.896729
C202	C	1.240975	-0.071320	-0.646729
C203	C	1.490975	0.178680	-0.396729
C204	C	1.740975	0.428680	-0.146729
C205	C	1.057920	-0.338532	-0.799740
C206	C	1.307920	-0.088532	-0.549740
C207	C	1.557920	0.161468	-0.299740
C208	C	1.807920	0.411468	-0.049740
C209	C	1.073165	-0.402629	-0.900275
C210	C	1.323165	-0.152629	-0.650275
C211	C	1.573165	0.097371	-0.400275
C212	C	1.823165	0.347371	-0.150275
C213	C	1.057988	-0.338547	-0.945726
C214	C	1.307988	-0.088547	-0.695726
C215	C	1.557988	0.161453	-0.445726
C216	C	1.807988	0.411453	-0.195726
C217	C	1.042677	-0.274408	-0.845198
C218	C	1.292677	-0.024408	-0.595198
C219	C	1.542677	0.225592	-0.345198
C220	C	1.792677	0.475592	-0.095198
C221	C	1.124896	-0.355761	-0.848741
C222	C	1.374896	-0.105761	-0.598741
C223	C	1.624896	0.144239	-0.348741
C224	C	1.874896	0.394239	-0.098741
C225	C	1.109715	-0.291627	-0.895264
C226	C	1.359715	-0.041627	-0.645264
C227	C	1.609715	0.208373	-0.395264
C228	C	1.859715	0.458373	-0.145264
C229	C	1.057878	-0.338525	-0.715641
C230	C	1.307878	-0.088525	-0.465641
C231	C	1.557878	0.161475	-0.215641
C232	C	1.807878	0.411475	0.034359
C233	C	1.058030	-0.338547	-1.029822
C234	C	1.308030	-0.088547	-0.779822
C235	C	1.558030	0.161453	-0.529822
C236	C	1.808030	0.411453	-0.279822
C237	C	1.058017	-0.338543	-0.179406
C238	C	1.308017	-0.088543	0.070594
C239	C	1.558017	0.161457	0.320594
C240	C	1.808017	0.411457	0.570594
C241	C	1.058063	-0.338555	-0.096861
C242	C	1.308063	-0.088555	0.153139
C243	C	1.558063	0.161445	0.403139
C244	C	1.808063	0.411445	0.653139
H245	H	0.608514	-0.252034	-0.277574
H246	H	0.858514	-0.002034	-0.027574
H247	H	1.108514	0.247966	0.222426
H248	H	1.358514	0.497966	0.472426
Br249	Br	0.934733	-0.586624	-0.496164
Br250	Br	1.184733	-0.336624	-0.246164
Br251	Br	1.434733	-0.086624	0.003836
Br252	Br	1.684733	0.163376	0.253836
Br253	Br	0.620789	-0.296757	-0.534486
Br254	Br	0.870789	-0.046757	-0.284486
Br255	Br	1.120789	0.203243	-0.034486
Br256	Br	1.370789	0.453243	0.215514
H257	H	0.517134	-0.220202	-0.401117
H258	H	0.767134	0.029798	-0.151117
H259	H	1.017134	0.279798	0.098883
H260	H	1.267134	0.529798	0.348883
H261	H	0.599454	-0.456795	-0.345098
H262	H	0.849454	-0.206795	-0.095098
H263	H	1.099454	0.043205	0.154902
H264	H	1.349454	0.293205	0.404902
H265	H	0.996160	-0.851296	-0.434773
H266	H	1.246160	-0.601296	-0.184773
H267	H	1.496160	-0.351296	0.065227
H268	H	1.746160	-0.101296	0.315227
H269	H	1.132086	-0.606621	-0.298983
H270	H	1.382086	-0.356621	-0.048983
H271	H	1.632086	-0.106621	0.201017
H272	H	1.882086	0.143379	0.451017
Br273	Br	0.933168	-0.451392	-0.817067
Br274	Br	1.183168	-0.201392	-0.567067
Br275	Br	1.433168	0.048608	-0.317067
Br276	Br	1.683168	0.298608	-0.067067
H277	H	1.153498	-0.251945	-0.914990
H278	H	1.403498	-0.001945	-0.664990
H279	H	1.653498	0.248055	-0.414990
H280	H	1.903498	0.498055	-0.164990
H281	H	0.510474	-0.370363	-0.249571
H282	H	0.760474	-0.120363	0.000429
H283	H	1.010474	0.129637	0.250429
H284	H	1.260474	0.379637	0.500429
Br285	Br	1.021125	-0.184044	-0.805188
Br286	Br	1.271125	0.065956	-0.555188
Br287	Br	1.521125	0.315956	-0.305188
Br288	Br	1.771125	0.565956	-0.055188
H289	H	1.181490	-0.370351	-0.827624
H290	H	1.431490	-0.120351	-0.577624
H291	H	1.681490	0.129649	-0.327624
H292	H	1.931490	0.379649	-0.077624
Br293	Br	1.151030	-0.759605	-0.280095
Br294	Br	1.401030	-0.509605	-0.030095
Br295	Br	1.651030	-0.259605	0.219905
Br296	Br	1.901030	-0.009605	0.469905
H297	H	0.508214	-0.424973	-0.468809
H298	H	0.758214	-0.174973	-0.218809
H299	H	1.008214	0.075027	0.031191
H300	H	1.258214	0.325027	0.281191
H301	H	1.162314	-0.938130	-0.268741
H302	H	1.412314	-0.688130	-0.018741
H303	H	1.662314	-0.438130	0.231259
H304	H	1.912314	-0.188130	0.481259
H305	H	0.989876	-0.938066	-0.441050
H306	H	1.239876	-0.688066	-0.191050
H307	H	1.489876	-0.438066	0.058950
H308	H	1.739876	-0.188066	0.308950
H309	H	1.086032	-0.456830	-0.924372
H310	H	1.336032	-0.206830	-0.674372
H311	H	1.586032	0.043170	-0.424372
H312	H	1.836032	0.293170	-0.174372
H313	H	1.156323	-1.071202	-0.274710
H314	H	1.406323	-0.821202	-0.024710
H315	H	1.656323	-0.571202	0.225290
H316	H	1.906323	-0.321202	0.475290
H317	H	1.119799	-0.826457	-0.311213
H318	H	1.369799	-0.576457	-0.061213
H319	H	1.619799	-0.326457	0.188787
H320	H	1.869799	-0.076457	0.438787
Br321	Br	0.957187	-1.091032	-0.473682
Br322	Br	1.207187	-0.841032	-0.223682
Br323	Br	1.457187	-0.591032	0.026318
Br324	Br	1.707187	-0.341032	0.276318
H325	H	0.953654	-0.739621	-0.477247
H326	H	1.203654	-0.489621	-0.227247
H327	H	1.453654	-0.239621	0.022753
H328	H	1.703654	0.010379	0.272753
Br329	Br	0.896621	-0.297030	-0.931900
Br330	Br	1.146621	-0.047030	-0.681900
Br331	Br	1.396621	0.202970	-0.431900
Br332	Br	1.646621	0.452970	-0.181900
