data_functionalizedCrystal
_audit_creation_method	'MofGen! by Chris Wilmer'
_symmetry_space_group_name_H-M	'P1'
_symmetry_Int_Tables_number	1
_symmetry_cell_setting	triclinic
loop_
_symmetry_equiv_pos_as_xyz
  x,y,z
_cell_length_a	19.188930
_cell_length_b	19.188924
_cell_length_c	17.666332
_cell_angle_alpha	90.008552
_cell_angle_beta	90.023234
_cell_angle_gamma	83.143372
loop_
_atom_site_label
_atom_site_type_symbol
_atom_site_fract_x
_atom_site_fract_y
_atom_site_fract_z
O1	O	0.926147	0.087169	0.063195
O2	O	1.259481	0.420502	0.396528
O3	O	1.592814	0.753836	0.729862
O4	O	0.722836	0.098903	0.063144
O5	O	1.056169	0.432237	0.396477
O6	O	1.389503	0.765570	0.729810
O7	O	0.830361	-0.008620	0.063162
O8	O	1.163695	0.324714	0.396495
O9	O	1.497028	0.658047	0.729829
O10	O	0.818622	0.194692	0.063177
O11	O	1.151955	0.528026	0.396510
O12	O	1.485289	0.861359	0.729843
O13	O	0.830343	-0.008625	-0.062735
O14	O	1.163676	0.324708	0.270598
O15	O	1.497009	0.658041	0.603932
O16	O	0.722817	0.098898	-0.062753
O17	O	1.056150	0.432231	0.270580
O18	O	1.389484	0.765564	0.603914
O19	O	0.926129	0.087163	-0.062702
O20	O	1.259462	0.420497	0.270632
O21	O	1.592795	0.753830	0.603965
Cu22	Cu	0.824471	0.093030	-0.074223
Cu23	Cu	1.157804	0.426363	0.259111
Cu24	Cu	1.491138	0.759697	0.592444
Cu25	Cu	0.824493	0.093037	0.074665
Cu26	Cu	1.157827	0.426370	0.407998
Cu27	Cu	1.491160	0.759703	0.741331
O28	O	0.818603	0.194687	-0.062720
O29	O	1.151937	0.528020	0.270613
O30	O	1.485270	0.861353	0.603947
C31	C	0.696815	0.098521	0.000189
C32	C	1.030149	0.431854	0.333522
C33	C	1.363482	0.765187	0.666855
C34	C	0.619311	0.097380	0.000169
C35	C	0.952644	0.430713	0.333502
C36	C	1.285978	0.764047	0.666835
C37	C	0.829973	-0.034634	0.000213
C38	C	1.163306	0.298700	0.333546
C39	C	1.496639	0.632033	0.666879
C40	C	0.828834	-0.112138	0.000210
C41	C	1.162167	0.221195	0.333544
C42	C	1.495500	0.554528	0.666877
C43	C	0.574386	0.160471	0.000185
C44	C	0.907719	0.493804	0.333518
C45	C	1.241052	0.827138	0.666852
C46	C	0.501562	0.159399	0.000193
C47	C	0.834895	0.492733	0.333527
C48	C	1.168228	0.826066	0.666860
C49	C	0.473667	0.095233	0.000200
C50	C	0.807000	0.428566	0.333534
C51	C	1.140333	0.761900	0.666867
C52	C	0.518602	0.032134	0.000180
C53	C	0.851935	0.365467	0.333513
C54	C	1.185269	0.698800	0.666846
C55	C	0.591424	0.033207	0.000164
C56	C	0.924758	0.366540	0.333497
C57	C	1.258091	0.699874	0.666830
N58	N	0.365694	0.046188	0.043075
N59	N	0.699027	0.379521	0.376409
N60	N	1.032361	0.712854	0.709742
N61	N	0.296516	0.045172	0.043092
N62	N	0.629849	0.378506	0.376425
N63	N	0.963182	0.711839	0.709759
C64	C	0.254258	0.091995	0.000246
C65	C	0.587592	0.425328	0.333580
C66	C	0.920925	0.758661	0.666913
N67	N	0.283791	0.139882	-0.042607
N68	N	0.617125	0.473215	0.290726
N69	N	0.950458	0.806548	0.624060
N70	N	0.352976	0.140899	-0.042620
N71	N	0.686309	0.474233	0.290713
N72	N	1.019643	0.807566	0.624046
C73	C	0.394704	0.094062	0.000217
C74	C	0.728038	0.427395	0.333550
C75	C	1.061371	0.760729	0.666884
C76	C	0.130368	0.153928	0.000271
C77	C	0.463702	0.487262	0.333604
C78	C	0.797035	0.820595	0.666937
C79	C	0.057543	0.152854	0.000274
C80	C	0.390877	0.486187	0.333608
C81	C	0.724210	0.819521	0.666941
C82	C	0.074585	0.025586	0.000268
C83	C	0.407919	0.358920	0.333601
C84	C	0.741252	0.692253	0.666935
C85	C	0.147409	0.026663	0.000257
C86	C	0.480742	0.359996	0.333590
C87	C	0.814075	0.693329	0.666924
C88	C	0.175295	0.090835	0.000262
C89	C	0.508629	0.424169	0.333595
C90	C	0.841962	0.757502	0.666928
C91	C	0.828313	-0.148534	0.068837
C92	C	1.161646	0.184799	0.402170
C93	C	1.494979	0.518132	0.735503
C94	C	0.827233	-0.221357	0.068842
C95	C	1.160566	0.111976	0.402176
C96	C	1.493899	0.445310	0.735509
C97	C	0.826688	-0.257783	0.000217
C98	C	1.160021	0.075550	0.333551
C99	C	1.493355	0.408884	0.666884
C100	C	0.827205	-0.221378	-0.068418
C101	C	1.160539	0.111956	0.264915
C102	C	1.493872	0.445289	0.598249
C103	C	0.828278	-0.148556	-0.068421
C104	C	1.161612	0.184778	0.264912
C105	C	1.494945	0.518111	0.598245
N106	N	0.864728	-0.377448	-0.050849
N107	N	1.198062	-0.044115	0.282485
N108	N	1.531395	0.289218	0.615818
N109	N	0.863710	-0.446627	-0.050841
N110	N	1.197044	-0.113293	0.282493
N111	N	1.530377	0.220040	0.615826
C112	C	0.823454	-0.477192	0.000224
C113	C	1.156787	-0.143859	0.333557
C114	C	1.490121	0.189475	0.666891
N115	N	0.784262	-0.435967	0.051292
N116	N	1.117596	-0.102634	0.384625
N117	N	1.450929	0.230700	0.717958
N118	N	0.785283	-0.366783	0.051286
N119	N	1.118617	-0.033449	0.384619
N120	N	1.451950	0.299884	0.717953
C121	C	0.825524	-0.336746	0.000214
C122	C	1.158858	-0.003413	0.333547
C123	C	1.492191	0.329920	0.666880
C124	C	0.821761	-0.592550	0.068861
C125	C	1.155094	-0.259217	0.402194
C126	C	1.488427	0.074116	0.735528
C127	C	0.820676	-0.665374	0.068864
C128	C	1.154010	-0.332041	0.402197
C129	C	1.487343	0.001293	0.735530
C130	C	0.820656	-0.665394	-0.068399
C131	C	1.153990	-0.332061	0.264935
C132	C	1.487323	0.001272	0.598268
C133	C	0.821734	-0.592571	-0.068399
C134	C	1.155067	-0.259238	0.264934
C135	C	1.488400	0.074095	0.598267
C136	C	0.822289	-0.556154	0.000233
C137	C	1.155622	-0.222821	0.333566
C138	C	1.488956	0.110512	0.666899
C139	C	0.952149	0.087546	0.000255
C140	C	1.285482	0.420880	0.333588
C141	C	1.618816	0.754213	0.666922
C142	C	1.029654	0.088687	0.000280
C143	C	1.362987	0.422020	0.333613
C144	C	1.696320	0.755354	0.666947
C145	C	0.818992	0.220700	0.000231
C146	C	1.152325	0.554034	0.333564
C147	C	1.485659	0.887367	0.666898
C148	C	0.820131	0.298205	0.000238
C149	C	1.153464	0.631539	0.333571
C150	C	1.486797	0.964872	0.666905
N151	N	0.824461	0.093025	-0.178942
N152	N	1.157794	0.426358	0.154391
N153	N	1.491127	0.759692	0.487724
C154	C	0.872088	0.045437	-0.218544
C155	C	1.205422	0.378770	0.114789
C156	C	1.538755	0.712104	0.448123
C157	C	0.872092	0.045433	-0.297791
C158	C	1.205426	0.378767	0.035542
C159	C	1.538759	0.712100	0.368875
C160	C	0.824475	0.093030	-0.337434
C161	C	1.157809	0.426363	-0.004101
C162	C	1.491142	0.759697	0.329232
C163	C	0.776839	0.140622	-0.297823
C164	C	1.110172	0.473955	0.035510
C165	C	1.443506	0.807289	0.368843
C166	C	0.776831	0.140619	-0.218577
C167	C	1.110165	0.473953	0.114756
C168	C	1.443498	0.807286	0.448090
N169	N	0.815398	0.154838	-0.461850
N170	N	1.148731	0.488171	-0.128517
N171	N	1.482064	0.821504	0.204817
N172	N	0.815409	0.154838	-0.537130
N173	N	1.148742	0.488171	-0.203797
N174	N	1.482076	0.821505	0.129536
C175	C	0.824494	0.093040	-0.576198
C176	C	1.157827	0.426373	-0.242865
C177	C	1.491160	0.759707	0.090468
N178	N	0.833581	0.031239	-0.537142
N179	N	1.166914	0.364573	-0.203809
N180	N	1.500248	0.697906	0.129525
N181	N	0.833573	0.031240	-0.461855
N182	N	1.166907	0.364573	-0.128521
N183	N	1.500240	0.697906	0.204812
C184	C	0.824478	0.093038	-0.423363
C185	C	1.157811	0.426371	-0.090030
C186	C	1.491144	0.759705	0.243303
C187	C	0.872128	0.045444	-0.701729
C188	C	1.205462	0.378778	-0.368396
C189	C	1.538795	0.712111	-0.035063
C190	C	0.872128	0.045440	-0.780978
C191	C	1.205461	0.378773	-0.447645
C192	C	1.538794	0.712107	-0.114312
C193	C	0.776878	0.140634	-0.781009
C194	C	1.110211	0.473968	-0.447675
C195	C	1.443544	0.807301	-0.114342
C196	C	0.776875	0.140633	-0.701761
C197	C	1.110208	0.473966	-0.368428
C198	C	1.443542	0.807299	-0.035094
C199	C	0.824504	0.093038	-0.662126
C200	C	1.157837	0.426372	-0.328793
C201	C	1.491171	0.759705	0.004541
N202	N	0.824509	0.093036	0.179384
N203	N	1.157843	0.426370	0.512717
N204	N	1.491176	0.759703	0.846051
H205	H	0.597086	0.212725	0.000191
H206	H	0.930419	0.546059	0.333524
H207	H	1.263752	0.879392	0.666857
O208	O	0.195868	-0.041388	0.000242
O209	O	0.529201	0.291945	0.333575
O210	O	0.862534	0.625278	0.666909
H211	H	0.229487	-0.043941	0.051544
H212	H	0.562820	0.289393	0.384877
H213	H	0.896154	0.622726	0.718211
O214	O	0.044505	-0.043622	0.000266
O215	O	0.377838	0.289712	0.333600
O216	O	0.711172	0.623045	0.666933
H217	H	0.087983	-0.087314	0.000248
H218	H	0.421317	0.246019	0.333581
H219	H	0.754650	0.579352	0.666914
H220	H	0.826760	-0.251040	-0.124293
H221	H	1.160093	0.082293	0.209041
H222	H	1.493427	0.415626	0.542374
O223	O	0.453092	0.227449	0.000219
O224	O	0.786425	0.560782	0.333553
O225	O	1.119759	0.894116	0.666886
H226	H	0.484718	0.272252	0.000225
H227	H	0.818051	0.605585	0.333559
H228	H	1.151385	0.938918	0.666892
O229	O	0.488522	-0.037077	0.000187
O230	O	0.821856	0.296256	0.333521
O231	O	1.155189	0.629590	0.666854
H232	H	0.430336	-0.027225	0.000209
H233	H	0.763669	0.306109	0.333542
H234	H	1.097003	0.639442	0.666875
H235	H	0.822209	-0.562898	0.124745
H236	H	1.155542	-0.229564	0.458078
H237	H	1.488876	0.103769	0.791412
O238	O	0.639887	-0.034843	0.000150
O239	O	0.973220	0.298490	0.333483
O240	O	1.306554	0.631823	0.666816
H241	H	0.608259	-0.079645	0.000158
H242	H	0.941592	0.253689	0.333491
H243	H	1.274926	0.587022	0.666824
H244	H	0.828763	-0.118888	0.124722
H245	H	1.162096	0.214446	0.458056
H246	H	1.495429	0.547779	0.791389
H247	H	0.826804	-0.250996	0.124728
H248	H	1.160137	0.082338	0.458061
H249	H	1.493471	0.415671	0.791395
H250	H	0.828700	-0.118922	-0.124307
H251	H	1.162033	0.214411	0.209026
H252	H	1.495366	0.547745	0.542360
O253	O	0.820087	-0.704632	0.142885
O254	O	1.153420	-0.371298	0.476219
O255	O	1.486754	-0.037965	0.809552
H256	H	0.820651	-0.667071	0.190605
H257	H	1.153984	-0.333737	0.523938
H258	H	1.487317	-0.000404	0.857272
O259	O	0.820074	-0.704671	-0.142419
O260	O	1.153407	-0.371338	0.190914
O261	O	1.486741	-0.038004	0.524248
H262	H	0.819246	-0.761425	-0.130889
H263	H	1.152579	-0.428092	0.202444
H264	H	1.485912	-0.094758	0.535778
H265	H	0.153075	0.206181	0.000264
H266	H	0.486408	0.539515	0.333597
H267	H	0.819741	0.872848	0.666930
H268	H	0.822164	-0.562938	-0.124282
H269	H	1.155497	-0.229605	0.209051
H270	H	1.488830	0.103728	0.542384
O271	O	0.923448	-0.005903	-0.175793
O272	O	1.256781	0.327430	0.157541
O273	O	1.590115	0.660763	0.490874
H274	H	0.956562	-0.039000	-0.216650
H275	H	1.289896	0.294333	0.116684
H276	H	1.623229	0.627666	0.450017
H277	H	0.910878	0.006680	-0.330041
H278	H	1.244211	0.340013	0.003292
H279	H	1.577544	0.673347	0.336626
H280	H	0.738047	0.179372	-0.186333
H281	H	1.071380	0.512705	0.147001
H282	H	1.404713	0.846038	0.480334
H283	H	0.738067	0.179375	-0.330104
H284	H	1.071401	0.512708	0.003229
H285	H	1.404734	0.846041	0.336562
H286	H	0.020965	0.204232	0.000283
H287	H	0.354298	0.537566	0.333617
H288	H	0.687632	0.870899	0.666950
H289	H	0.910909	0.006688	-0.669457
H290	H	1.244242	0.340021	-0.336124
H291	H	1.577576	0.673355	-0.002791
H292	H	0.910910	0.006684	-0.813223
H293	H	1.244243	0.340018	-0.479889
H294	H	1.577576	0.673351	-0.146556
O295	O	0.725518	0.191975	-0.823753
O296	O	1.058851	0.525308	-0.490420
O297	O	1.392185	0.858642	-0.157086
H298	H	0.733527	0.183986	-0.885512
H299	H	1.066860	0.517319	-0.552179
H300	H	1.400193	0.850653	-0.218845
H301	H	0.738095	0.179386	-0.669515
H302	H	1.071428	0.512719	-0.336182
H303	H	1.404762	0.846053	-0.002849
