data_functionalizedCrystal
_audit_creation_method	'MofGen! by Chris Wilmer'
_symmetry_space_group_name_H-M	'P1'
_symmetry_Int_Tables_number	1
_symmetry_cell_setting	triclinic
loop_
_symmetry_equiv_pos_as_xyz
  x,y,z
_cell_length_a	13.262402
_cell_length_b	14.519709
_cell_length_c	11.804365
_cell_angle_alpha	101.851959
_cell_angle_beta	93.583660
_cell_angle_gamma	84.074946
loop_
_atom_site_label
_atom_site_type_symbol
_atom_site_fract_x
_atom_site_fract_y
_atom_site_fract_z
O1	O	1.322475	0.185900	0.329325
O2	O	1.822475	0.685900	0.829325
O3	O	1.036710	0.182072	0.236762
O4	O	1.536710	0.682072	0.736762
O5	O	1.187167	0.050228	0.285508
O6	O	1.687167	0.550228	0.785508
O7	O	1.172018	0.317743	0.280579
O8	O	1.672018	0.817743	0.780579
O9	O	1.147558	0.084900	0.470731
O10	O	1.647558	0.584900	0.970731
O11	O	0.997101	0.216743	0.421985
O12	O	1.497101	0.716743	0.921985
O13	O	1.282865	0.220572	0.514548
O14	O	1.782865	0.720572	1.014548
Cu15	Cu	1.136366	0.221823	0.485179
Cu16	Cu	1.636366	0.721823	0.985179
Cu17	Cu	1.183209	0.180820	0.266131
Cu18	Cu	1.683209	0.680820	0.766131
O19	O	1.132409	0.352415	0.465803
O20	O	1.632409	0.852415	0.965803
C21	C	0.980333	0.196432	0.317528
C22	C	1.480333	0.696432	0.817528
C23	C	0.871360	0.187555	0.282230
C24	C	1.371360	0.687555	0.782230
C25	C	0.841755	0.164483	0.164679
C26	C	1.341755	0.664483	0.664679
C27	C	0.739367	0.156152	0.131516
C28	C	1.239367	0.656152	0.631516
C29	C	0.666575	0.170885	0.215902
C30	C	1.166575	0.670885	0.715902
C31	C	0.696180	0.193950	0.333456
C32	C	1.196180	0.693950	0.833456
C33	C	0.798577	0.202290	0.366621
C34	C	1.298577	0.702290	0.866621
C35	C	0.623397	0.208691	0.417845
C36	C	1.123397	0.708691	0.917845
C37	C	0.653003	0.231757	0.535398
C38	C	1.153003	0.731757	1.035398
C39	C	0.755390	0.240094	0.568558
C40	C	1.255390	0.740094	1.068558
C41	C	0.828182	0.225362	0.484173
C42	C	1.328182	0.725362	0.984173
C43	C	0.521001	0.200352	0.384679
C44	C	1.021001	0.700352	0.884679
C45	C	0.477823	0.238158	0.586622
C46	C	0.977823	0.738158	1.086622
C47	C	0.580211	0.246490	0.619784
C48	C	1.080211	0.746490	1.119784
C49	C	1.166656	0.033160	0.377891
C50	C	1.666656	0.533160	0.877891
C51	C	1.164540	-0.069355	0.377206
C52	C	1.664540	0.430645	0.877206
C53	C	1.156755	-0.444749	0.374653
C54	C	1.656755	0.055251	0.874653
C55	C	1.158917	-0.340303	0.375363
C56	C	1.658917	0.159697	0.875363
C57	C	1.160647	-0.257055	0.375931
C58	C	1.660647	0.242945	0.875931
C59	C	1.162810	-0.152603	0.376638
C60	C	1.662810	0.347397	0.876638
C61	C	1.339243	0.206211	0.433780
C62	C	1.839243	0.706211	0.933780
C63	C	1.448218	0.215086	0.469071
C64	C	1.948218	0.715086	0.969071
C65	C	1.152920	0.369483	0.373417
C66	C	1.652920	0.869483	0.873417
C67	C	1.155038	0.471997	0.374095
C68	C	1.655038	0.971997	0.874095
N69	N	1.103427	0.250663	0.639248
N70	N	1.603427	0.750663	1.139248
N71	N	1.216157	0.151974	0.112065
N72	N	1.716157	0.651974	0.612065
C73	C	1.295257	0.082702	1.075346
C74	C	1.795257	0.582702	1.575346
C75	C	1.320174	0.060881	0.958757
C76	C	1.820174	0.560881	1.458757
C77	C	1.265989	0.108324	0.878874
C78	C	1.765989	0.608324	1.378874
C79	C	1.186883	0.177593	0.915591
C80	C	1.686883	0.677593	1.415591
C81	C	1.161968	0.199421	1.032193
C82	C	1.661968	0.699421	1.532193
C83	C	1.132701	0.225044	0.835721
C84	C	1.632701	0.725044	1.335721
C85	C	1.053594	0.294312	0.872438
C86	C	1.553594	0.794312	1.372438
C87	C	1.028683	0.316137	0.989029
C88	C	1.528683	0.816137	1.489029
C89	C	1.082868	0.268693	1.068912
C90	C	1.582868	0.768693	1.568912
C91	C	1.157616	0.203215	0.719120
C92	C	1.657616	0.703215	1.219120
C93	C	1.024327	0.319935	0.675967
C94	C	1.524327	0.819935	1.175967
C95	C	0.999409	0.341756	0.792555
C96	C	1.499409	0.841756	1.292555
H97	H	0.911558	0.232137	0.511168
H98	H	1.411558	0.732137	1.011168
C99	C	0.912391	0.417949	0.832960
C100	C	1.412391	0.917949	1.332960
N101	N	0.846848	0.475336	0.863393
N102	N	1.346848	0.975336	1.363393
H103	H	1.222024	0.146817	0.689236
H104	H	1.722024	0.646817	1.189236
H105	H	1.339372	0.044084	1.140394
H106	H	1.839372	0.544084	1.640394
H107	H	1.286281	0.090554	0.783943
H108	H	1.786281	0.590554	1.283943
H109	H	0.583207	0.164100	0.188894
H110	H	1.083207	0.664100	0.688894
H111	H	1.062578	0.286457	1.163848
H112	H	1.562578	0.786457	1.663848
C113	C	0.964717	0.372125	0.588099
C114	C	1.464717	0.872125	1.088099
N115	N	0.919824	0.411431	0.521910
N116	N	1.419824	0.911431	1.021910
C117	C	0.941668	0.392338	1.029415
C118	C	1.441668	0.892338	1.529415
N119	N	0.876126	0.449732	1.059831
N120	N	1.376126	0.949732	1.559831
H121	H	0.779489	0.258885	0.664278
H122	H	1.279489	0.758885	1.164278
C123	C	0.397756	0.254363	0.679453
C124	C	0.897756	0.754363	1.179453
N125	N	0.337443	0.266569	0.749367
N126	N	0.837443	0.766569	1.249367
H127	H	0.496907	0.181573	0.288966
H128	H	0.996907	0.681573	0.788966
H129	H	0.604331	0.265271	0.715498
H130	H	1.104331	0.765271	1.215498
C131	C	1.407183	-0.015317	0.918376
C132	C	1.907183	0.484683	1.418376
N133	N	1.472721	-0.072716	0.887960
N134	N	1.972721	0.427284	1.387960
H135	H	0.715270	0.137372	0.035804
H136	H	1.215270	0.637372	0.535804
H137	H	0.901028	0.152497	0.095985
H138	H	1.401028	0.652497	0.595985
