data_functionalizedCrystal
_audit_creation_method	'MofGen! by Chris Wilmer'
_symmetry_space_group_name_H-M	'P1'
_symmetry_Int_Tables_number	1
_symmetry_cell_setting	triclinic
loop_
_symmetry_equiv_pos_as_xyz
  x,y,z
_cell_length_a	10.723024
_cell_length_b	9.798715
_cell_length_c	10.654550
_cell_angle_alpha	90.002217
_cell_angle_beta	84.476386
_cell_angle_gamma	90.003155
loop_
_atom_site_label
_atom_site_type_symbol
_atom_site_fract_x
_atom_site_fract_y
_atom_site_fract_z
O1	O	1.657213	0.113478	0.176147
O2	O	1.294063	0.113483	0.193008
O3	O	1.483988	0.113475	0.001837
O4	O	1.467289	0.113486	0.367318
O5	O	1.483974	-0.113507	0.001836
O6	O	1.294050	-0.113499	0.193007
O7	O	1.657200	-0.113504	0.176146
Zn8	Zn	1.475623	-0.149540	0.184576
Zn9	Zn	1.475640	0.149519	0.184578
O10	O	1.467275	-0.113496	0.367317
C11	C	1.247557	-0.000008	0.191780
C12	C	1.109002	-0.000006	0.188109
N13	N	1.475620	-0.353640	0.184574
C14	C	1.395892	-0.421447	0.265192
C15	C	1.395909	-0.578609	0.265191
C16	C	1.034035	-0.000002	0.295078
C17	C	0.890831	-0.000001	0.291287
C18	C	1.703706	-0.000010	0.177373
C19	C	1.842261	-0.000003	0.181045
C20	C	1.482755	-0.000014	-0.044961
C21	C	1.479086	-0.000009	-0.184404
N22	N	1.475653	0.353619	0.184570
C23	C	1.590911	-0.000015	-0.263907
C24	C	1.587456	-0.000005	-0.394927
C25	C	1.360343	0.000010	-0.366929
C26	C	1.363799	0.000010	-0.235912
C27	C	1.722033	-0.000029	-0.280072
C28	C	1.718579	-0.000020	-0.411092
C29	C	1.468508	-0.000004	0.414115
C30	C	1.472176	0.000000	0.553558
H31	H	1.327624	-0.363150	0.334220
F32	F	1.770380	0.128075	-0.470765
F33	F	0.806635	0.000014	0.410985
H34	H	1.327646	-0.636920	0.334208
F35	F	1.244780	0.000045	-0.151303
F36	F	0.926450	0.000003	0.061341
H37	H	1.763781	-0.098036	-0.244452
F38	F	1.054326	-0.000019	0.064734
H39	H	1.543910	-0.588079	0.115541
F40	F	1.783143	-0.124176	-0.465692
H41	H	1.075871	-0.000007	0.389466
H42	H	1.543896	-0.411938	0.115556
F43	F	1.237653	0.000033	-0.421759
F44	F	1.789074	0.124119	-0.241702
