data_functionalizedCrystal
_audit_creation_method	'MofGen! by Chris Wilmer'
_symmetry_space_group_name_H-M	'P1'
_symmetry_Int_Tables_number	1
_symmetry_cell_setting	triclinic
loop_
_symmetry_equiv_pos_as_xyz
  x,y,z
_cell_length_a	19.121102
_cell_length_b	19.121063
_cell_length_c	19.121175
_cell_angle_alpha	94.951770
_cell_angle_beta	85.212968
_cell_angle_gamma	90.126902
loop_
_atom_site_label
_atom_site_type_symbol
_atom_site_fract_x
_atom_site_fract_y
_atom_site_fract_z
Zn1	Zn	1.078480	-0.345237	-0.457776
Zn2	Zn	1.578480	0.154763	0.042224
Zn3	Zn	1.068784	-0.457452	-0.344694
Zn4	Zn	1.568784	0.042548	0.155306
Zn5	Zn	0.956233	-0.334783	-0.334686
Zn6	Zn	1.456233	0.165217	0.165314
Zn7	Zn	0.956186	-0.457406	-0.457304
Zn8	Zn	1.456186	0.042594	0.042696
O9	O	1.014921	-0.398719	-0.398615
O10	O	1.514921	0.101281	0.101385
O11	O	1.175477	-0.364516	-0.447161
O12	O	1.675477	0.135484	0.052839
O13	O	1.049816	-0.436824	-0.244725
O14	O	1.549816	0.063176	0.255275
O15	O	0.976527	-0.237889	-0.347024
O16	O	1.476527	0.262111	0.152976
O17	O	1.168354	-0.446961	-0.364080
O18	O	1.668354	0.053039	0.135920
O19	O	1.066341	-0.245569	-0.437457
O20	O	1.566341	0.254431	0.062543
O21	O	0.967125	-0.346700	-0.237373
O22	O	1.467125	0.153300	0.262627
O23	O	0.857943	-0.346655	-0.346566
O24	O	1.357943	0.153345	0.153434
O25	O	0.976446	-0.446882	-0.556008
O26	O	1.476446	0.053118	-0.056008
O27	O	0.857908	-0.436746	-0.436653
O28	O	1.357908	0.063254	0.063347
O29	O	1.066295	-0.364472	-0.556354
O30	O	1.566295	0.135528	-0.056354
O31	O	1.049770	-0.555727	-0.363622
O32	O	1.549770	-0.055727	0.136378
O33	O	0.967044	-0.555693	-0.446357
O34	O	1.467044	-0.055693	0.053643
C35	C	0.832442	-0.390561	-0.390473
C36	C	1.332442	0.109439	0.109527
C37	C	0.754377	-0.387089	-0.387007
C38	C	1.254377	0.112911	0.112993
C39	C	0.717696	-0.432428	-0.432214
C40	C	1.217696	0.067572	0.067786
C41	C	0.644346	-0.429156	-0.428961
C42	C	1.144346	0.070844	0.071039
C43	C	0.607678	-0.380548	-0.380496
C44	C	1.107678	0.119452	0.119504
C45	C	0.644364	-0.335205	-0.335287
C46	C	1.144364	0.164795	0.164713
C47	C	0.717713	-0.338474	-0.338545
C48	C	1.217713	0.161526	0.161455
C49	C	0.386212	-0.368326	-0.368321
C50	C	0.886212	0.131674	0.131679
C51	C	0.312858	-0.365061	-0.365066
C52	C	0.812858	0.134939	0.134934
C53	C	0.312845	-0.459012	-0.458740
C54	C	0.812845	0.040988	0.041260
C55	C	0.386195	-0.462279	-0.461990
C56	C	0.886195	0.037721	0.038010
C57	C	0.422875	-0.416933	-0.416784
C58	C	0.922875	0.083067	0.083216
C59	C	0.532702	-0.377205	-0.377168
C60	C	1.032702	0.122795	0.122832
C61	C	0.497850	-0.420275	-0.420116
C62	C	0.997850	0.079725	0.079884
C63	C	1.007370	-0.581194	-0.406040
C64	C	1.507370	-0.081194	0.093960
C65	C	1.004204	-0.659262	-0.409244
C66	C	1.504204	-0.159262	0.090756
C67	C	1.045825	-0.695936	-0.367712
C68	C	1.545825	-0.195936	0.132288
C69	C	1.042852	-0.769289	-0.370729
C70	C	1.542852	-0.269289	0.129271
C71	C	0.998255	-0.805966	-0.415274
C72	C	1.498255	-0.305966	0.084726
C73	C	0.956634	-0.769287	-0.456810
C74	C	1.456634	-0.269287	0.043190
C75	C	0.959610	-0.695936	-0.453797
C76	C	1.459610	-0.195936	0.046203
C77	C	0.987115	-1.027440	-0.426530
C78	C	1.487115	-0.527440	0.073470
C79	C	0.984139	-1.100797	-0.429539
C80	C	1.484139	-0.600797	0.070461
C81	C	1.070359	-1.100793	-0.343458
C82	C	1.570359	-0.600793	0.156542
C83	C	1.073329	-1.027440	-0.340445
C84	C	1.573329	-0.527440	0.159555
C85	C	1.031710	-0.990768	-0.381984
C86	C	1.531710	-0.490768	0.118016
C87	C	0.995214	-0.880945	-0.418357
C88	C	1.495214	-0.380945	0.081643
C89	C	1.034755	-0.915791	-0.378904
C90	C	1.534755	-0.415791	0.121096
C91	C	1.198112	-0.406910	-0.406789
C92	C	1.698112	0.093090	0.093211
C93	C	1.276177	-0.410400	-0.410273
C94	C	1.776177	0.089600	0.089727
C95	C	1.022447	-0.406838	-0.582473
C96	C	1.522447	0.093162	-0.082473
C97	C	1.025654	-0.410297	-0.660822
C98	C	1.525654	0.089703	-0.160822
C99	C	1.022521	-0.215534	-0.391177
C100	C	1.522521	0.284466	0.108823
C101	C	1.025760	-0.137471	-0.388007
C102	C	1.525760	0.362529	0.111993
C103	C	0.984110	-0.365001	-0.693802
C104	C	1.484110	0.134999	-0.193802
C105	C	0.987121	-0.368257	-0.767419
C106	C	1.487121	0.131743	-0.267419
C107	C	1.031680	-0.416807	-0.808055
C108	C	1.531680	0.083193	-0.308055
C109	C	1.073225	-0.462109	-0.775070
C110	C	1.573225	0.037891	-0.275070
C111	C	1.070210	-0.458855	-0.701454
C112	C	1.570210	0.041145	-0.201454
C113	C	1.042933	-0.428981	-1.030520
C114	C	1.542933	0.071019	-0.530520
C115	C	1.045947	-0.432229	-1.104141
C116	C	1.545947	0.067771	-0.604141
C117	C	0.959841	-0.338378	-1.096485
C118	C	1.459841	0.161622	-0.596485
C119	C	0.956833	-0.335126	-1.022868
C120	C	1.456833	0.164874	-0.522868
C121	C	0.998376	-0.380430	-0.989889
C122	C	1.498376	0.119570	-0.489889
C123	C	1.034760	-0.420135	-0.883304
C124	C	1.534760	0.079865	-0.383304
C125	C	0.995292	-0.377105	-0.914642
C126	C	1.495292	0.122895	-0.414642
C127	C	1.007466	-0.390584	-0.215472
C128	C	1.507466	0.109416	0.284528
C129	C	1.004403	-0.386933	-0.137122
C130	C	1.504403	0.113067	0.362878
H131	H	0.282973	-0.495929	-0.495546
H132	H	0.782973	0.004071	0.004454
Br133	Br	1.133692	-0.528005	-0.830218
Br134	Br	1.633692	-0.028005	-0.330218
H135	H	0.416067	-0.331407	-0.331506
H136	H	0.916067	0.168593	0.168494
H137	H	0.527708	-0.459848	-0.459579
H138	H	1.027708	0.040152	0.040421
H139	H	1.076752	-0.465878	-1.003678
H140	H	1.576752	0.034122	-0.503678
H141	H	1.109643	-0.997579	-0.304173
H142	H	1.609643	-0.497579	0.195827
H143	H	1.104244	-1.130660	-0.309640
H144	H	1.604244	-0.630660	0.190360
Br145	Br	0.923599	-1.150572	-0.489984
Br146	Br	1.423599	-0.650572	0.010016
Br147	Br	0.903128	-0.646164	-0.510168
Br148	Br	1.403128	-0.146164	-0.010168
H149	H	0.502838	-0.337630	-0.337707
H150	H	1.002838	0.162370	0.162293
H151	H	1.076743	-0.799145	-0.336909
H152	H	1.576743	-0.299145	0.163091
H153	H	0.283005	-0.325472	-0.325604
H154	H	0.783005	0.174528	0.174396
H155	H	1.082235	-0.471766	-1.137226
H156	H	1.582235	0.028234	-0.637226
H157	H	1.071039	-0.459665	-0.916398
H158	H	1.571039	0.040335	-0.416398
Br159	Br	1.126588	-0.520337	-0.656694
Br160	Br	1.626588	-0.020337	-0.156694
H161	H	0.947830	-0.325462	-0.660721
H162	H	1.447830	0.174538	-0.160721
Br163	Br	0.896362	-0.269231	-0.967724
Br164	Br	1.396362	0.230769	-0.467724
H165	H	0.959010	-0.337578	-0.881553
H166	H	1.459010	0.162422	-0.381553
H167	H	0.747546	-0.472011	-0.471677
H168	H	1.247546	0.027989	0.028323
H169	H	0.614484	-0.466076	-0.465772
H170	H	1.114484	0.033924	0.034228
Br171	Br	0.930632	-0.977680	-0.482905
Br172	Br	1.430632	-0.477680	0.017095
H173	H	0.926019	-0.301495	-1.123345
H174	H	1.426019	0.198505	-0.623345
Br175	Br	0.896115	-0.819064	-0.517272
Br176	Br	1.396115	-0.319064	-0.017272
H177	H	0.416046	-0.501862	-0.501454
H178	H	0.916046	-0.001862	-0.001454
Br179	Br	1.095282	-0.866014	-0.318456
Br180	Br	1.595282	-0.366014	0.181544
Br181	Br	1.106345	-0.646166	-0.307248
Br182	Br	1.606345	-0.146166	0.192752
H183	H	0.953289	-0.331374	-0.794268
H184	H	1.453289	0.168626	-0.294268
Br185	Br	0.594601	-0.269230	-0.269520
Br186	Br	1.094601	0.230770	0.230480
H187	H	0.747577	-0.301551	-0.301736
H188	H	1.247577	0.198449	0.198264
H189	H	0.958902	-0.910816	-0.454624
H190	H	1.458902	-0.410816	0.045376
