data_functionalizedCrystal
_audit_creation_method	'MofGen! by Chris Wilmer'
_symmetry_space_group_name_H-M	'P1'
_symmetry_Int_Tables_number	1
_symmetry_cell_setting	triclinic
loop_
_symmetry_equiv_pos_as_xyz
  x,y,z
_cell_length_a	13.897449
_cell_length_b	18.101396
_cell_length_c	18.101398
_cell_angle_alpha	89.997269
_cell_angle_beta	90.005916
_cell_angle_gamma	89.962150
loop_
_atom_site_label
_atom_site_type_symbol
_atom_site_fract_x
_atom_site_fract_y
_atom_site_fract_z
Zn1	Zn	1.474407	0.294990	0.418774
Zn2	Zn	1.974407	0.794990	0.918774
Zn3	Zn	1.474295	0.418786	0.294938
Zn4	Zn	1.974295	0.918786	0.794938
Zn5	Zn	1.313145	0.294965	0.294944
Zn6	Zn	1.813145	0.794965	0.794944
Zn7	Zn	1.313023	0.418796	0.418734
Zn8	Zn	1.813023	0.918796	0.918734
O9	O	1.393717	0.356884	0.356848
O10	O	1.893717	0.856884	0.856848
O11	O	1.609373	0.311418	0.402361
O12	O	2.109373	0.811418	0.902361
O13	O	1.452923	0.402347	0.191306
O14	O	1.952923	0.902347	0.691306
O15	O	1.334634	0.191335	0.311390
O16	O	1.834634	0.691335	0.811390
O17	O	1.609292	0.402371	0.311379
O18	O	2.109292	0.902371	0.811379
O19	O	1.453112	0.191353	0.402367
O20	O	1.953112	0.691353	0.902367
O21	O	1.334526	0.311376	0.191310
O22	O	1.834526	0.811376	0.691310
O23	O	1.178147	0.311385	0.311351
O24	O	1.678147	0.811385	0.811351
O25	O	1.334426	0.402387	0.522373
O26	O	1.834426	0.902387	1.022373
O27	O	1.178058	0.402363	0.402299
O28	O	1.678058	0.902363	0.902299
O29	O	1.452994	0.311427	0.522402
O30	O	1.952994	0.811427	1.022402
O31	O	1.452805	0.522420	0.311340
O32	O	1.952805	1.022420	0.811340
O33	O	1.334319	0.522427	0.402293
O34	O	1.834319	1.022427	0.902293
C35	C	1.143103	0.356873	0.356822
C36	C	1.643103	0.856873	0.856822
C37	C	1.035889	0.356886	0.356828
C38	C	1.535889	0.856886	0.856828
C39	C	0.948819	0.356888	0.356841
C40	C	1.448819	0.856888	0.856841
C41	C	0.839587	0.356893	0.356863
C42	C	1.339587	0.856893	0.856863
C43	C	1.393563	0.549295	0.356828
C44	C	1.893563	1.049295	0.856828
C45	C	1.393584	0.631609	0.356844
C46	C	1.893584	1.131609	0.856844
C47	C	1.393756	0.930700	0.356887
C48	C	1.893756	1.430700	0.856887
C49	C	1.319385	0.899410	0.414254
C50	C	1.819385	1.399410	0.914254
C51	C	1.319043	0.813792	0.414074
C52	C	1.819043	1.313792	0.914074
C53	C	1.393671	0.782317	0.356867
C54	C	1.893671	1.282317	0.856867
C55	C	1.366172	0.813436	0.278817
C56	C	1.866172	1.313436	0.778817
C57	C	1.365681	0.899081	0.279161
C58	C	1.865681	1.399081	0.779161
C59	C	1.495793	0.899050	0.376883
C60	C	1.995793	1.399050	0.876883
C61	C	1.495204	0.813400	0.378594
C62	C	1.995204	1.313400	0.878594
C63	C	1.393624	0.698458	0.356850
C64	C	1.893624	1.198458	0.856850
C65	C	1.393800	1.014559	0.356899
C66	C	1.893800	1.514559	0.856899
C67	C	1.645310	0.356896	0.356874
C68	C	2.145310	0.856896	0.856874
C69	C	1.752524	0.356901	0.356885
C70	C	2.252524	0.856901	0.856885
C71	C	1.393709	0.356911	0.550009
C72	C	1.893709	0.856911	1.050009
C73	C	1.393706	0.356922	0.632324
C74	C	1.893706	0.856922	1.132324
C75	C	1.393865	1.163722	0.356886
C76	C	1.893865	1.663722	0.856886
C77	C	1.393842	1.081408	0.356910
C78	C	1.893842	1.581408	0.856910
C79	C	1.393698	0.356910	0.783032
C80	C	1.893698	0.856910	1.283032
C81	C	1.319102	0.414138	0.814367
C82	C	1.819102	0.914138	1.314367
C83	C	1.318806	0.413963	0.899986
C84	C	1.818806	0.913963	1.399986
C85	C	1.393691	0.356900	0.931415
C86	C	1.893691	0.856900	1.431415
C87	C	1.366506	0.278796	0.900329
C88	C	1.866506	0.778796	1.400329
C89	C	1.365968	0.279133	0.814684
C90	C	1.865968	0.779133	1.314684
C91	C	1.495668	0.377102	0.814602
C92	C	1.995668	0.877102	1.314602
C93	C	1.495116	0.378818	0.900253
C94	C	1.995116	0.878818	1.400253
C95	C	1.393689	0.356889	1.015274
C96	C	1.893689	0.856889	1.515274
C97	C	1.393698	0.356916	0.699173
C98	C	1.893698	0.856916	1.199173
C99	C	1.393709	0.356880	1.164437
C100	C	1.893709	0.856880	1.664437
C101	C	1.393684	0.356888	1.082123
C102	C	1.893684	0.856888	1.582123
H103	H	1.336245	0.792752	0.471947
H104	H	1.836245	1.292752	0.971947
Cl105	Cl	1.534499	0.932352	0.463258
Cl106	Cl	2.034499	1.432352	0.963258
Cl107	Cl	1.526782	0.467562	0.931620
Cl108	Cl	2.026782	0.967562	1.431620
H109	H	1.419173	0.234989	0.920686
H110	H	1.919173	0.734989	1.420686
H111	H	1.243973	0.400916	0.792841
H112	H	1.743973	0.900916	1.292841
H113	H	1.553638	0.340196	0.921650
H114	H	2.053638	0.840196	1.421650
Cl115	Cl	1.585292	0.780311	0.318790
Cl116	Cl	2.085292	1.280311	0.818790
Cl117	Cl	1.581346	0.930302	0.312387
Cl118	Cl	2.081346	1.430302	0.812387
H119	H	1.243245	0.400576	0.920471
H120	H	1.743245	0.900576	1.420471
H121	H	1.243416	0.793364	0.400828
H122	H	1.743416	1.293364	0.900828
Cl123	Cl	1.446236	0.211038	0.782676
Cl124	Cl	1.946236	0.711038	1.282676
Cl125	Cl	1.581472	0.312757	0.783312
Cl126	Cl	2.081472	0.812757	1.283312
Cl127	Cl	1.252240	0.780416	0.252196
Cl128	Cl	1.752240	1.280416	0.752196
H129	H	1.292797	0.261416	0.921776
H130	H	1.792797	0.761416	1.421776
H131	H	1.335774	0.471870	0.921003
H132	H	1.835774	0.971870	1.421003
H133	H	1.291443	0.262051	0.794705
H134	H	1.791443	0.762051	1.294705
H135	H	1.244211	0.920991	0.401176
H136	H	1.744211	1.420991	0.901176
Cl137	Cl	1.527226	0.781999	0.467277
Cl138	Cl	2.027226	1.281999	0.967277
H139	H	1.336410	0.919981	0.472315
H140	H	1.836410	1.419981	0.972315
Cl141	Cl	1.250523	0.930020	0.253012
Cl142	Cl	1.750523	1.430020	0.753012
H143	H	1.417501	0.919780	0.234961
H144	H	1.917501	1.419780	0.734961
Cl145	Cl	1.533988	0.463550	0.781262
Cl146	Cl	2.033988	0.963550	1.281262
H147	H	1.335871	0.472229	0.793773
H148	H	1.835871	0.972229	1.293773
Cl149	Cl	1.447180	0.781959	0.211022
Cl150	Cl	1.947180	1.281959	0.711022
