data_functionalizedCrystal
_audit_creation_method	'MofGen! by Chris Wilmer'
_symmetry_space_group_name_H-M	'P1'
_symmetry_Int_Tables_number	1
_symmetry_cell_setting	triclinic
loop_
_symmetry_equiv_pos_as_xyz
  x,y,z
_cell_length_a	18.050590
_cell_length_b	29.839131
_cell_length_c	18.050591
_cell_angle_alpha	90.015531
_cell_angle_beta	89.986577
_cell_angle_gamma	90.024397
loop_
_atom_site_label
_atom_site_type_symbol
_atom_site_fract_x
_atom_site_fract_y
_atom_site_fract_z
Zn1	Zn	1.135163	-0.179090	0.419547
Zn2	Zn	1.635163	0.320910	0.919547
Zn3	Zn	1.135086	-0.254189	0.295334
Zn4	Zn	1.635086	0.245811	0.795334
Zn5	Zn	1.011010	-0.179060	0.295405
Zn6	Zn	1.511010	0.320940	0.795405
Zn7	Zn	1.010916	-0.254179	0.419516
Zn8	Zn	1.510916	0.245821	0.919516
O9	O	1.073044	-0.216629	0.357451
O10	O	1.573044	0.283371	0.857451
O11	O	1.239078	-0.189069	0.403053
O12	O	1.739078	0.310931	0.903053
O13	O	1.118635	-0.244214	0.191419
O14	O	1.618635	0.255786	0.691419
O15	O	1.027551	-0.116196	0.311915
O16	O	1.527551	0.383804	0.811915
O17	O	1.239021	-0.244244	0.311794
O18	O	1.739021	0.255756	0.811794
O19	O	1.118766	-0.116219	0.403122
O20	O	1.618766	0.383781	0.903122
O21	O	1.027476	-0.189017	0.191471
O22	O	1.527476	0.310983	0.691471
O23	O	0.907073	-0.189008	0.311886
O24	O	1.407073	0.310992	0.811886
O25	O	1.027390	-0.244227	0.523445
O26	O	1.527390	0.255773	1.023445
O27	O	0.907004	-0.244198	0.403070
O28	O	1.407004	0.255802	0.903070
O29	O	1.118674	-0.189059	0.523467
O30	O	1.618674	0.310941	1.023467
O31	O	1.118543	-0.317055	0.311765
O32	O	1.618543	0.182945	0.811765
O33	O	1.027315	-0.317048	0.403001
O34	O	1.527315	0.182952	0.903001
C35	C	0.880092	-0.216599	0.357483
C36	C	1.380092	0.283401	0.857483
C37	C	0.797546	-0.216596	0.357514
C38	C	1.297546	0.283404	0.857514
C39	C	0.598079	-0.246695	0.406982
C40	C	1.098079	0.253305	0.906982
C41	C	0.548690	-0.205735	0.425270
C42	C	1.048690	0.294265	0.925270
C43	C	0.646416	-0.216621	0.357478
C44	C	1.146416	0.283379	0.857478
C45	C	0.548723	-0.257604	0.339189
C46	C	1.048723	0.242396	0.839189
C47	C	0.500431	-0.216649	0.357444
C48	C	1.000431	0.283351	0.857444
C49	C	0.598114	-0.175640	0.375801
C50	C	1.098114	0.324360	0.875801
C51	C	0.598151	-0.227537	0.289689
C52	C	1.098151	0.272463	0.789689
C53	C	0.548784	-0.186549	0.307951
C54	C	1.048784	0.313451	0.807951
C55	C	0.730514	-0.216606	0.357499
C56	C	1.230514	0.283394	0.857499
C57	C	0.416334	-0.216660	0.357423
C58	C	0.916334	0.283340	0.857423
C59	C	1.072931	-0.333352	0.357388
C60	C	1.572931	0.166648	0.857388
C61	C	1.072950	-0.383286	0.357386
C62	C	1.572950	0.116714	0.857386
C63	C	1.120529	-0.692906	0.405009
C64	C	1.620529	-0.192906	0.905009
C65	C	1.120610	-0.880580	0.405054
C66	C	1.620610	-0.380580	0.905054
O67	O	1.160952	-0.904825	0.445499
O68	O	1.660952	-0.404825	0.945499
N69	N	1.073170	-0.904071	0.357533
N70	N	1.573170	-0.404071	0.857533
C71	C	1.025703	-0.880642	0.310001
C72	C	1.525703	-0.380642	0.810001
O73	O	0.985349	-0.904930	0.269588
O74	O	1.485349	-0.404930	0.769588
C75	C	1.025620	-0.692970	0.309960
C76	C	1.525620	-0.192970	0.809960
C77	C	1.073068	-0.669481	0.357479
C78	C	1.573068	-0.169481	0.857479
C79	C	1.167973	-0.669417	0.452525
C80	C	1.667973	-0.169417	0.952525
C81	C	1.167955	-0.622501	0.452511
C82	C	1.667955	-0.122501	0.952511
C83	C	1.120494	-0.599076	0.404980
C84	C	1.620494	-0.099076	0.904980
C85	C	1.073050	-0.622565	0.357465
C86	C	1.573050	-0.122565	0.857465
C87	C	0.978150	-0.669542	0.262433
C88	C	1.478150	-0.169542	0.762433
C89	C	0.978132	-0.622621	0.262428
C90	C	1.478132	-0.122621	0.762428
C91	C	1.025580	-0.599131	0.309947
C92	C	1.525580	-0.099131	0.809947
C93	C	1.025571	-0.552224	0.309920
C94	C	1.525571	-0.052224	0.809920
N95	N	1.073010	-0.528732	0.357441
N96	N	1.573010	-0.028732	0.857441
C97	C	1.120472	-0.552158	0.404971
C98	C	1.620472	-0.052158	0.904971
C99	C	1.025752	-0.979173	0.310024
C100	C	1.525752	-0.479173	0.810024
C101	C	1.025773	-1.026091	0.310033
C102	C	1.525773	-0.526091	0.810033
C103	C	1.120679	-1.026025	0.405088
C104	C	1.620679	-0.526025	0.905088
C105	C	1.120661	-0.979106	0.405074
C106	C	1.620661	-0.479106	0.905074
C107	C	1.073191	-0.955681	0.357545
C108	C	1.573191	-0.455681	0.857545
C109	C	1.120431	-0.453632	0.404937
C110	C	1.620431	0.046368	0.904937
C111	C	1.120412	-0.406712	0.404916
C112	C	1.620412	0.093288	0.904916
C113	C	1.025504	-0.406782	0.309865
C114	C	1.525504	0.093218	0.809865
C115	C	1.025526	-0.453698	0.309883
C116	C	1.525526	0.046302	0.809883
C117	C	1.072992	-0.477121	0.357425
C118	C	1.572992	0.022879	0.857425
O119	O	0.985244	-0.527950	0.269503
O120	O	1.485244	-0.027950	0.769503
O121	O	1.160808	-0.527862	0.445390
O122	O	1.660808	-0.027862	0.945390
C123	C	1.120547	-0.739822	0.405024
C124	C	1.620547	-0.239822	0.905024
C125	C	1.073103	-0.763311	0.357508
C126	C	1.573103	-0.263311	0.857508
C127	C	1.025642	-0.739886	0.309978
C128	C	1.525642	-0.239886	0.809978
C129	C	1.073125	-0.810229	0.357517
C130	C	1.573125	-0.310229	0.857517
C131	C	1.120586	-0.833655	0.405047
C132	C	1.620586	-0.333655	0.905047
C133	C	1.168026	-0.810163	0.452569
C134	C	1.668026	-0.310163	0.952569
C135	C	1.168008	-0.763248	0.452554
C136	C	1.668008	-0.263248	0.952554
C137	C	0.978202	-0.763377	0.262457
C138	C	1.478202	-0.263377	0.762457
C139	C	0.978224	-0.810293	0.262475
C140	C	1.478224	-0.310293	0.762475
C141	C	1.025686	-0.833719	0.310005
C142	C	1.525686	-0.333719	0.810005
C143	C	1.266749	-0.216661	0.357419
C144	C	1.766749	0.283339	0.857419
C145	C	1.349295	-0.216674	0.357405
C146	C	1.849295	0.283326	0.857405
C147	C	1.073030	-0.216645	0.551156
C148	C	1.573030	0.283355	1.051156
C149	C	1.073024	-0.216652	0.633702
C150	C	1.573024	0.283348	1.133702
C151	C	1.073178	-0.099451	0.357530
C152	C	1.573178	0.400549	0.857530
C153	C	1.073235	-0.049517	0.357563
C154	C	1.573235	0.450483	0.857563
C155	C	1.023378	-0.246649	0.833140
C156	C	1.523378	0.253351	1.333140
C157	C	1.091120	-0.257647	0.882510
C158	C	1.591120	0.242353	1.382510
C159	C	1.073028	-0.216646	0.784832
C160	C	1.573028	0.283354	1.284832
C161	C	1.005290	-0.205662	0.882545
C162	C	1.505290	0.294338	1.382545
C163	C	1.073025	-0.216641	0.930817
C164	C	1.573025	0.283359	1.430817
C165	C	1.140805	-0.227666	0.833114
C166	C	1.640805	0.272334	1.333114
C167	C	1.054930	-0.175662	0.833145
C168	C	1.554930	0.324338	1.333145
C169	C	1.122719	-0.186645	0.882492
C170	C	1.622719	0.313355	1.382492
C171	C	1.073028	-0.216650	0.700734
C172	C	1.573028	0.283350	1.200734
C173	C	1.073032	-0.216637	1.014914
C174	C	1.573032	0.283363	1.514914
C175	C	1.073045	-0.216628	1.164498
C176	C	1.573045	0.283372	1.664498
C177	C	1.073029	-0.216633	1.081953
C178	C	1.573029	0.283367	1.581953
H179	H	0.526965	-0.196512	0.482583
H180	H	1.026965	0.303488	0.982583
H181	H	0.948007	-0.196375	0.904257
H182	H	1.448007	0.303625	1.404257
C183	C	0.519718	-0.152174	0.251377
C184	C	1.019718	0.347826	0.751377
H185	H	0.490760	-0.167113	0.215014
H186	H	0.990760	0.332887	0.715014
H187	H	0.490076	-0.130537	0.276105
H188	H	0.990076	0.369463	0.776105
H189	H	0.560389	-0.137668	0.228102
H190	H	1.060389	0.362332	0.728102
C191	C	0.925950	-0.695370	0.210166
C192	C	1.425950	-0.195370	0.710166
H193	H	0.897678	-0.674692	0.181870
H194	H	1.397678	-0.174692	0.681870
H195	H	0.954383	-0.713671	0.177823
H196	H	1.454383	-0.213671	0.677823
H197	H	0.893570	-0.713676	0.238566
H198	H	1.393570	-0.213676	0.738566
H199	H	0.939474	-0.603550	0.223725
H200	H	1.439474	-0.103550	0.723725
C201	C	0.627529	-0.240013	0.212289
C202	C	1.127529	0.259987	0.712289
H203	H	0.610648	-0.269147	0.199378
H204	H	1.110648	0.230853	0.699378
H205	H	0.609917	-0.218958	0.176985
H206	H	1.109917	0.281042	0.676985
H207	H	0.680154	-0.239643	0.212758
H208	H	1.180154	0.260357	0.712758
C209	C	1.218213	-0.240270	0.803916
C210	C	1.718213	0.259730	1.303916
H211	H	1.250522	-0.245513	0.844537
H212	H	1.750522	0.254487	1.344537
H213	H	1.214760	-0.266635	0.774612
H214	H	1.714760	0.233365	1.274612
H215	H	1.237117	-0.216430	0.774594
H216	H	1.737117	0.283570	1.274594
H217	H	1.159325	-1.045106	0.443788
H218	H	1.659325	-0.545106	0.943788
H219	H	0.986863	-0.387702	0.271164
H220	H	1.486863	0.112298	0.771164
H221	H	0.986896	-0.472824	0.271183
H222	H	1.486896	0.027176	0.771183
H223	H	1.206645	-0.744126	0.491249
H224	H	1.706645	-0.244126	0.991249
C225	C	0.926027	-0.836128	0.210204
C226	C	1.426027	-0.336128	0.710204
H227	H	0.932831	-0.867427	0.217013
H228	H	1.432831	-0.367427	0.717013
H229	H	0.876120	-0.828452	0.221045
H230	H	1.376120	-0.328452	0.721045
H231	H	0.936936	-0.828449	0.160307
H232	H	1.436936	-0.328449	0.660307
C233	C	0.519403	-0.304406	0.318315
C234	C	1.019403	0.195594	0.818315
H235	H	0.536286	-0.325725	0.353553
H236	H	1.036286	0.174275	0.853553
H237	H	0.466782	-0.304008	0.318014
H238	H	0.966782	0.195992	0.818014
H239	H	0.537065	-0.312363	0.270508
H240	H	1.037065	0.187637	0.770508
H241	H	0.619719	-0.140983	0.391320
H242	H	1.119719	0.359017	0.891320
C243	C	1.172600	-0.380876	0.457195
C244	C	1.672600	0.119124	0.957195
H245	H	1.200861	-0.401550	0.485510
H246	H	1.700861	0.098450	0.985510
H247	H	1.204980	-0.362567	0.428809
H248	H	1.704980	0.137433	0.928809
H249	H	1.144148	-0.362579	0.489532
H250	H	1.644148	0.137421	0.989532
H251	H	1.159078	-0.472698	0.443655
H252	H	1.659078	0.027302	0.943655
C253	C	1.220146	-0.596669	0.504784
C254	C	1.720146	-0.096669	1.004784
H255	H	1.248407	-0.617346	0.533094
H256	H	1.748407	-0.117346	1.033094
H257	H	1.252525	-0.578360	0.476397
H258	H	1.752525	-0.078360	0.976397
H259	H	1.191700	-0.578371	0.537127
H260	H	1.691700	-0.078371	1.037127
H261	H	1.206622	-0.688485	0.491234
H262	H	1.706622	-0.188485	0.991234
H263	H	1.159296	-0.959984	0.443769
H264	H	1.659296	-0.459984	0.943769
C265	C	1.220231	-0.835938	0.504852
C266	C	1.720231	-0.335938	1.004852
H267	H	1.213437	-0.867244	0.498053
H268	H	1.713437	-0.367244	0.998053
H269	H	1.270138	-0.828235	0.494020
H270	H	1.770138	-0.328235	0.994020
H271	H	1.209307	-0.828242	0.554744
H272	H	1.709307	-0.328242	1.054744
C273	C	0.973585	-1.051924	0.257758
C274	C	1.473585	-0.551924	0.757758
H275	H	0.945313	-1.031249	0.229457
H276	H	1.445313	-0.531249	0.729457
H277	H	1.002025	-1.070224	0.225419
H278	H	1.502025	-0.570224	0.725419
H279	H	0.941205	-1.070232	0.286154
H280	H	1.441205	-0.570232	0.786154
C281	C	0.973540	-0.953411	0.257732
C282	C	1.473540	-0.453411	0.757732
H283	H	0.945299	-0.974125	0.229429
H284	H	1.445299	-0.474125	0.729429
H285	H	0.941142	-0.935114	0.286106
H286	H	1.441142	-0.435114	0.786106
H287	H	1.001974	-0.935106	0.225384
H288	H	1.501974	-0.435106	0.725384
C289	C	0.966728	-0.280949	0.803859
C290	C	1.466728	0.219051	1.303859
H291	H	0.930453	-0.265950	0.774915
H292	H	1.430453	0.234050	1.274915
H293	H	0.991423	-0.302574	0.774163
H294	H	1.491423	0.197426	1.274163
H295	H	0.943351	-0.295478	0.844442
H296	H	1.443351	0.204522	1.344442
H297	H	0.939552	-0.744308	0.223753
H298	H	1.439552	-0.244308	0.723753
H299	H	1.106431	-0.292304	0.904194
H300	H	1.606431	0.207696	1.404194
C301	C	1.179500	-0.152368	0.911589
C302	C	1.679500	0.347632	1.411589
H303	H	1.227573	-0.160242	0.894572
H304	H	1.727573	0.339758	1.394572
H305	H	1.167056	-0.123344	0.893939
H306	H	1.667056	0.376656	1.393939
H307	H	1.178909	-0.152380	0.964216
H308	H	1.678909	0.347620	1.464216
C309	C	0.627331	-0.280991	0.463592
C310	C	1.127331	0.219009	0.963592
H311	H	0.656298	-0.302915	0.438742
H312	H	1.156298	0.197085	0.938742
H313	H	0.657000	-0.266067	0.499386
H314	H	1.157000	0.233933	0.999386
H315	H	0.586737	-0.295155	0.487566
H316	H	1.086737	0.204845	0.987566
C317	C	1.034221	-0.128858	0.803822
C318	C	1.534221	0.371142	1.303822
H319	H	0.986053	-0.121100	0.820717
H320	H	1.486053	0.378900	1.320717
H321	H	1.068997	-0.107468	0.821455
H322	H	1.568997	0.392532	1.321455
H323	H	1.034817	-0.129136	0.751197
H324	H	1.534817	0.370864	1.251197
