data_functionalizedCrystal
_audit_creation_method	'MofGen! by Chris Wilmer'
_symmetry_space_group_name_H-M	'P1'
_symmetry_Int_Tables_number	1
_symmetry_cell_setting	triclinic
loop_
_symmetry_equiv_pos_as_xyz
  x,y,z
_cell_length_a	14.971486
_cell_length_b	10.489741
_cell_length_c	14.048226
_cell_angle_alpha	89.993872
_cell_angle_beta	89.998499
_cell_angle_gamma	84.076651
loop_
_atom_site_label
_atom_site_type_symbol
_atom_site_fract_x
_atom_site_fract_y
_atom_site_fract_z
O1	O	1.187893	0.166222	-0.079050
O2	O	0.927606	0.186127	-0.079076
O3	O	1.063672	-0.009492	-0.079057
O4	O	1.051827	0.361841	-0.079070
O5	O	1.063656	-0.009503	0.079264
O6	O	0.927590	0.186116	0.079245
O7	O	1.187876	0.166211	0.079271
Zn8	Zn	1.057730	0.176161	0.104395
Zn9	Zn	1.057752	0.176177	-0.104200
O10	O	1.051810	0.361830	0.079252
C11	C	0.894268	0.185232	0.000081
C12	C	0.794956	0.182564	0.000071
C13	C	0.738385	0.297485	0.000069
C14	C	0.645071	0.294971	0.000083
C15	C	0.608330	0.177534	0.000093
C16	C	0.664909	0.062604	0.000098
C17	C	0.758221	0.065120	0.000091
C18	C	0.470416	0.057369	0.000112
C19	C	0.377098	0.054853	0.000117
C20	C	0.357267	0.287220	0.000104
C21	C	0.450579	0.289736	0.000096
C22	C	0.507151	0.174805	0.000100
C23	C	1.062769	-0.057019	0.000103
C24	C	1.060093	-0.198617	0.000101
C25	C	0.973518	-0.265755	0.000085
C26	C	1.014407	-0.358357	0.078150
C27	C	1.014444	-0.358320	-0.077942
C28	C	1.101017	-0.289354	0.078230
C29	C	1.101042	-0.289308	-0.077933
C30	C	1.141994	-0.381882	0.000151
C31	C	1.221215	0.167106	0.000111
C32	C	1.320527	0.169774	0.000115
C33	C	1.052713	0.409357	0.000090
C34	C	1.055390	0.550955	0.000085
N35	N	1.057722	0.176150	0.246755
N36	N	1.057768	0.176178	-0.246561
C37	C	1.117991	0.089566	0.296582
C38	C	1.117997	0.089565	0.396240
C39	C	1.057738	0.176156	0.446069
C40	C	0.997462	0.262744	0.396235
C41	C	0.997452	0.262738	0.296580
C42	C	0.997488	0.262754	0.603950
C43	C	0.997498	0.262762	0.703612
C44	C	1.118033	0.089581	0.703610
C45	C	1.118023	0.089574	0.603954
C46	C	1.057748	0.176165	0.554127
H47	H	0.634987	-0.033015	0.000120
O48	O	1.176467	0.005159	0.555700
C49	C	1.161020	-0.121042	0.580241
H50	H	1.089373	-0.121660	0.607581
H51	H	1.170912	-0.185210	0.514804
H52	H	1.210282	-0.158307	0.638180
O53	O	0.970558	-0.394777	0.156806
C54	C	0.881765	-0.335045	0.156536
H55	H	0.861191	-0.307362	0.080570
H56	H	0.834653	-0.404131	0.186017
H57	H	0.877648	-0.245346	0.202800
H58	H	0.977808	-0.388855	-0.143946
O59	O	0.939061	0.346920	0.555441
C60	C	0.987463	0.425739	0.497798
H61	H	1.057125	0.375098	0.482867
H62	H	0.950255	0.445825	0.427721
H63	H	0.994148	0.520026	0.536192
O64	O	1.144585	-0.252794	-0.156757
C65	C	1.098731	-0.287560	-0.238907
H66	H	1.025739	-0.297940	-0.220212
H67	H	1.101418	-0.210220	-0.295552
H68	H	1.131956	-0.382629	-0.267386
O69	O	1.176707	0.005592	0.751966
C70	C	1.265375	0.026529	0.727584
H71	H	1.266456	0.128652	0.700175
H72	H	1.310175	0.011976	0.793118
H73	H	1.291195	-0.044109	0.669744
H74	H	1.167065	0.019059	0.256018
O75	O	0.341554	-0.059333	0.000171
C76	C	0.411493	-0.160235	0.000156
H77	H	0.475103	-0.124390	0.030126
H78	H	0.391463	-0.242214	0.046127
H79	H	0.424466	-0.195692	-0.075796
O80	O	1.144758	-0.252957	0.156957
C81	C	1.220259	-0.192050	0.129112
H82	H	1.209758	-0.152949	0.053778
H83	H	1.229406	-0.109802	0.180045
H84	H	1.282664	-0.264146	0.130997
H85	H	0.516476	-0.036219	0.000116
H86	H	1.167073	0.019061	0.436808
H87	H	1.213239	-0.432131	0.000202
H88	H	0.948428	0.333272	0.744178
H89	H	0.902336	-0.215280	0.000157
H90	H	0.948393	0.333244	0.436812
O91	O	0.938999	0.347025	0.248217
C92	C	0.954332	0.473329	0.272567
H93	H	1.025949	0.474127	0.299951
H94	H	0.944446	0.537313	0.207022
H95	H	0.905002	0.510679	0.330415
H96	H	0.599014	0.388551	0.000080
O97	O	0.773922	0.411676	0.000100
C98	C	0.703977	0.512567	0.000078
H99	H	0.640371	0.476709	0.030059
H100	H	0.724001	0.594547	0.046038
H101	H	0.690998	0.548028	-0.075877
O102	O	0.486122	0.403922	0.000127
C103	C	0.416184	0.504823	0.000103
H104	H	0.352574	0.468977	0.030083
H105	H	0.436215	0.586801	0.046062
H106	H	0.403209	0.540284	-0.075853
O107	O	0.302189	0.398748	0.000142
C108	C	0.211951	0.371352	0.000129
H109	H	0.207729	0.271164	0.030118
H110	H	0.170155	0.444602	0.046086
H111	H	0.184998	0.376136	-0.075824
H112	H	0.804281	-0.028461	0.000092
