data_functionalizedCrystal
_audit_creation_method	'MofGen! by Chris Wilmer'
_symmetry_space_group_name_H-M	'P1'
_symmetry_Int_Tables_number	1
_symmetry_cell_setting	triclinic
loop_
_symmetry_equiv_pos_as_xyz
  x,y,z
_cell_length_a	10.540510
_cell_length_b	14.044220
_cell_length_c	13.101039
_cell_angle_alpha	93.667477
_cell_angle_beta	86.608574
_cell_angle_gamma	88.851094
loop_
_atom_site_label
_atom_site_type_symbol
_atom_site_fract_x
_atom_site_fract_y
_atom_site_fract_z
O1	O	1.705807	0.128358	-0.085224
O2	O	2.205807	0.628358	0.414776
O3	O	1.337666	0.140983	-0.085225
O4	O	1.837666	0.640983	0.414775
O5	O	1.516210	-0.003350	-0.085215
O6	O	2.016210	0.496650	0.414785
O7	O	1.527263	0.272692	-0.085235
O8	O	2.027263	0.772692	0.414765
O9	O	1.503401	0.007023	0.085215
O10	O	2.003401	0.507023	0.585215
O11	O	1.324857	0.151356	0.085204
O12	O	1.824857	0.651356	0.585204
O13	O	1.692999	0.138731	0.085205
O14	O	2.192999	0.638731	0.585205
Zn15	Zn	1.506894	0.146691	0.112264
Zn16	Zn	2.006894	0.646691	0.612264
Zn17	Zn	1.523770	0.133024	-0.112284
Zn18	Zn	2.023770	0.633024	0.387716
O19	O	1.514455	0.283065	0.085194
O20	O	2.014455	0.783065	0.585194
C21	C	1.283863	0.145229	-0.000011
C22	C	1.783863	0.645229	0.499989
C23	C	1.142628	0.142414	-0.000011
C24	C	1.642628	0.642414	0.499989
C25	C	1.504968	-0.033510	0.000000
C26	C	2.004968	0.466490	0.500000
C27	C	1.490538	-0.138833	0.000002
C28	C	1.990538	0.361167	0.500002
C29	C	1.464158	-0.331671	-0.000013
C30	C	1.964158	0.168329	0.499987
C31	C	1.566501	-0.388620	-0.000016
C32	C	2.066501	0.111380	0.499984
C33	C	1.551823	-0.495922	-0.000024
C34	C	2.051823	0.004078	0.499976
C35	C	1.478834	-0.224359	-0.000005
C36	C	1.978834	0.275641	0.499995
C37	C	0.935340	0.242658	-0.000410
C38	C	1.435340	0.742658	0.499590
C39	C	1.082210	0.245684	-0.000019
C40	C	1.582210	0.745684	0.499981
C41	C	1.085210	0.095473	0.097314
C42	C	1.585210	0.595473	0.597314
C43	C	0.938213	0.093207	0.097390
C44	C	1.438213	0.593207	0.597390
C45	C	0.952755	0.079260	-0.096420
C46	C	1.452755	0.579260	0.403580
C47	C	1.099688	0.084080	-0.097700
C48	C	1.599688	0.584080	0.402300
C49	C	1.746802	0.134486	-0.000012
C50	C	2.246802	0.634486	0.499988
C51	C	1.888037	0.137300	-0.000019
C52	C	2.388037	0.637300	0.499981
C53	C	1.525697	0.313225	-0.000023
C54	C	2.025697	0.813225	0.499977
C55	C	1.540127	0.418547	-0.000031
C56	C	2.040127	0.918547	0.499969
N57	N	1.495386	0.156018	0.265512
N58	N	1.995386	0.656018	0.765512
N59	N	1.535287	0.123690	-0.265532
N60	N	2.035287	0.623690	0.234468
C61	C	1.479730	0.168716	0.474553
C62	C	1.979730	0.668716	0.974553
C63	C	1.550939	0.110995	0.525433
C64	C	2.050939	0.610995	1.025433
C65	C	1.542228	0.118060	0.641751
C66	C	2.042228	0.618060	1.141751
C67	C	1.488440	0.161652	0.358225
C68	C	1.988440	0.661652	0.858225
H69	H	1.665149	-0.356793	-0.000085
H70	H	2.165149	0.143207	0.499915
H71	H	1.412230	0.223436	0.518346
H72	H	1.912230	0.723436	1.018346
H73	H	0.922811	0.001685	-0.097072
H74	H	1.422811	0.501685	0.402928
H75	H	1.120980	0.282795	-0.069789
H76	H	1.620980	0.782795	0.430211
H77	H	1.618446	0.056272	0.481635
H78	H	2.118446	0.556272	0.981635
H79	H	1.365524	-0.363501	-0.000016
H80	H	1.865524	0.136499	0.499984
H81	H	0.902699	0.278643	-0.070207
H82	H	1.402699	0.778643	0.429793
H83	H	1.109568	0.291546	0.069858
H84	H	1.609568	0.791546	0.569858
H85	H	0.890661	0.286883	0.068986
H86	H	1.390661	0.786883	0.568986
H87	H	0.907077	0.016236	0.101816
H88	H	1.407077	0.516236	0.601816
H89	H	0.896182	0.133762	0.170136
H90	H	1.396182	0.633762	0.670136
H91	H	0.919043	0.107337	-0.170187
H92	H	1.419043	0.607337	0.329813
H93	H	1.114333	0.136595	0.169738
H94	H	1.614333	0.636595	0.669738
H95	H	1.124641	0.019668	0.100939
H96	H	1.624641	0.519668	0.600939
H97	H	1.141574	0.008328	-0.103572
H98	H	1.641574	0.508328	0.396428
H99	H	1.137606	0.118162	-0.169701
H100	H	1.637606	0.618162	0.330299
