data_functionalizedCrystal
_audit_creation_method	'MofGen! by Chris Wilmer'
_symmetry_space_group_name_H-M	'P1'
_symmetry_Int_Tables_number	1
_symmetry_cell_setting	triclinic
loop_
_symmetry_equiv_pos_as_xyz
  x,y,z
_cell_length_a	19.288835
_cell_length_b	17.766277
_cell_length_c	19.288865
_cell_angle_alpha	89.989546
_cell_angle_beta	83.130103
_cell_angle_gamma	89.982126
loop_
_atom_site_label
_atom_site_type_symbol
_atom_site_fract_x
_atom_site_fract_y
_atom_site_fract_z
O1	O	-0.921367	0.062750	-0.086548
O2	O	-0.421367	0.562750	0.413452
O3	O	-0.719103	0.062721	-0.098259
O4	O	-0.219103	0.562721	0.401741
O5	O	-0.826079	0.062721	0.008728
O6	O	-0.326079	0.562721	0.508728
O7	O	-0.814390	0.062750	-0.193534
O8	O	-0.314390	0.562750	0.306466
O9	O	-0.826060	-0.062467	0.008731
O10	O	-0.326060	0.437533	0.508731
O11	O	-0.719084	-0.062468	-0.098256
O12	O	-0.219084	0.437532	0.401744
O13	O	-0.921347	-0.062438	-0.086545
O14	O	-0.421347	0.437562	0.413455
Cu15	Cu	-0.820214	-0.073884	-0.092400
Cu16	Cu	-0.320214	0.426116	0.407600
Cu17	Cu	-0.820237	0.074166	-0.092404
Cu18	Cu	-0.320237	0.574166	0.407596
O19	O	-0.814371	-0.062439	-0.193531
O20	O	-0.314371	0.437561	0.306469
C21	C	-0.693217	0.000122	-0.097884
C22	C	-0.193217	0.500122	0.402116
C23	C	-0.616112	0.000110	-0.096763
C24	C	-0.116112	0.500110	0.403237
N25	N	-0.820203	-0.178014	-0.092397
N26	N	-0.320203	0.321986	0.407603
C27	C	-0.579919	0.068352	-0.096226
C28	C	-0.079919	0.568352	0.403774
C29	C	-0.507472	0.068359	-0.095166
C30	C	-0.007472	0.568359	0.404834
C31	C	-0.471222	0.000121	-0.094628
C32	C	0.028778	0.500121	0.405372
C33	C	-0.507424	-0.068129	-0.095168
C34	C	-0.007424	0.431871	0.404832
C35	C	-0.579869	-0.068134	-0.096236
C36	C	-0.079869	0.431866	0.403764
C37	C	-0.361886	-0.052156	-0.052251
C38	C	0.138114	0.447844	0.447749
C39	C	-0.289444	-0.052148	-0.051179
C40	C	0.210556	0.447852	0.448821
C41	C	-0.247778	0.000135	-0.091338
C42	C	0.252222	0.500135	0.408662
C43	C	-0.278566	0.052422	-0.132560
C44	C	0.221434	0.552422	0.367440
C45	C	-0.351011	0.052417	-0.133628
C46	C	0.148989	0.552417	0.366372
C47	C	-0.392668	0.000119	-0.093470
C48	C	0.107332	0.500119	0.406530
C49	C	-0.133029	0.068389	-0.089652
C50	C	0.366971	0.568389	0.410348
C51	C	-0.060580	0.068393	-0.088595
C52	C	0.439420	0.568393	0.411405
C53	C	-0.060535	-0.068097	-0.088591
C54	C	0.439465	0.431903	0.411409
C55	C	-0.132982	-0.068099	-0.089655
C56	C	0.367018	0.431901	0.410345
C57	C	-0.169225	0.000146	-0.090181
C58	C	0.330775	0.500146	0.409819
C59	C	-0.862191	-0.217382	-0.134416
C60	C	-0.362191	0.282618	0.365584
C61	C	-0.862202	-0.296184	-0.134414
C62	C	-0.362202	0.203816	0.365586
C63	C	-0.820212	-0.335615	-0.092401
C64	C	-0.320212	0.164385	0.407599
C65	C	-0.778221	-0.296237	-0.050373
C66	C	-0.278221	0.203763	0.449627
C67	C	-0.778217	-0.217437	-0.050371
C68	C	-0.278217	0.282563	0.449629
C69	C	-0.757599	-0.460484	-0.090651
C70	C	-0.257599	0.039516	0.409349
C71	C	-0.757602	-0.539283	-0.090658
C72	C	-0.257602	-0.039283	0.409342
C73	C	-0.820226	-0.578661	-0.092403
C74	C	-0.320226	-0.078661	0.407597
C75	C	-0.882849	-0.539231	-0.094156
C76	C	-0.382849	-0.039231	0.405844
C77	C	-0.882845	-0.460430	-0.094154
C78	C	-0.382845	0.039570	0.405846
C79	C	-0.820213	-0.421060	-0.092398
C80	C	-0.320213	0.078940	0.407602
C81	C	-0.862230	-0.703475	-0.134423
C82	C	-0.362230	-0.203475	0.365577
C83	C	-0.862242	-0.782278	-0.134416
C84	C	-0.362242	-0.282278	0.365584
C85	C	-0.778255	-0.782330	-0.050379
C86	C	-0.278255	-0.282330	0.449621
C87	C	-0.778249	-0.703528	-0.050382
C88	C	-0.278249	-0.203528	0.449618
C89	C	-0.820236	-0.664105	-0.092407
C90	C	-0.320236	-0.164105	0.407593
C91	C	0.052767	0.000156	-0.086924
C92	C	0.552767	0.500156	0.413076
C93	C	-0.024336	0.000155	-0.088059
C94	C	0.475664	0.500155	0.411941
C95	C	-0.825694	0.000125	0.034606
C96	C	-0.325694	0.500125	0.534606
C97	C	-0.824565	0.000118	0.111709
C98	C	-0.324565	0.500118	0.611709
N99	N	-0.820253	0.178297	-0.092401
N100	N	-0.320253	0.678297	0.407599
C101	C	-0.814757	0.000159	-0.219409
C102	C	-0.314757	0.500159	0.280591
C103	C	-0.815886	0.000171	-0.296513
C104	C	-0.315886	0.500171	0.203487
C105	C	-0.887333	0.000124	0.156412
C106	C	-0.387333	0.500124	0.656412
C107	C	-0.886273	0.000135	0.228859
C108	C	-0.386273	0.500135	0.728859
C109	C	-0.822440	0.000127	0.256600
C110	C	-0.322440	0.500127	0.756600
C111	C	-0.759663	0.000125	0.211887
C112	C	-0.259663	0.500125	0.711887
C113	C	-0.760725	0.000121	0.139441
C114	C	-0.260725	0.500121	0.639441
C115	C	-0.772253	-0.043732	0.364883
C116	C	-0.272253	0.456268	0.864883
C117	C	-0.771193	-0.043732	0.437327
C118	C	-0.271193	0.456268	0.937327
C119	C	-0.819160	0.000143	0.480045
C120	C	-0.319160	0.500143	0.980045
C121	C	-0.868199	0.044009	0.450311
C122	C	-0.368199	0.544009	0.950311
C123	C	-0.869261	0.044004	0.377866
C124	C	-0.369261	0.544004	0.877866
C125	C	-0.821280	0.000132	0.335154
C126	C	-0.321280	0.500132	0.835154
C127	C	-0.880783	0.000162	0.603304
C128	C	-0.380783	0.500162	1.103304
C129	C	-0.879720	0.000179	0.675752
C130	C	-0.379720	0.500179	1.175752
C131	C	-0.753108	0.000161	0.658778
C132	C	-0.253108	0.500161	1.158778
C133	C	-0.754173	0.000152	0.586332
C134	C	-0.254173	0.500152	1.086332
C135	C	-0.818012	0.000149	0.558599
C136	C	-0.318012	0.500149	1.058599
H137	H	-0.609424	0.123922	-0.096656
H138	H	-0.109424	0.623922	0.403344
Br139	Br	-0.721279	-0.835835	0.006652
Br140	Br	-0.221279	-0.335835	0.506652
Br141	Br	-0.704646	-0.103268	0.477674
Br142	Br	-0.204646	0.396732	0.977674
Br143	Br	-0.707149	-0.103282	0.306915
Br144	Br	-0.207149	0.396718	0.806915
H145	H	-0.709609	0.000116	0.103043
H146	H	-0.209609	0.500116	0.603043
Br147	Br	-0.721225	-0.164005	0.006656
Br148	Br	-0.221225	0.335995	0.506656
H149	H	-0.162451	-0.123669	-0.090087
H150	H	0.337549	0.376331	0.409913
Br151	Br	-0.666475	0.000156	0.696418
Br152	Br	-0.166475	0.500156	1.196418
H153	H	-0.744055	-0.671475	-0.016168
H154	H	-0.244055	-0.171475	0.483832
H155	H	-0.706610	-0.571381	-0.089235
H156	H	-0.206610	-0.071381	0.410765
H157	H	-0.477997	0.123931	-0.094730
H158	H	0.022003	0.623931	0.405270
H159	H	-0.244643	0.094993	-0.165264
H160	H	0.255357	0.594993	0.334736
Br161	Br	-0.247665	-0.123122	0.004748
Br162	Br	0.252335	0.376878	0.504748
H163	H	-0.930836	0.000187	0.712149
H164	H	-0.430836	0.500187	1.212149
Br165	Br	-0.919237	-0.835708	-0.191441
Br166	Br	-0.419237	-0.335708	0.308559
Br167	Br	-0.668982	0.000144	0.525659
Br168	Br	-0.168982	0.500144	1.025659
H169	H	-0.896418	-0.671375	-0.168642
H170	H	-0.396418	-0.171375	0.331358
Br171	Br	-0.182220	0.161004	-0.090372
Br172	Br	0.317780	0.661004	0.409628
H173	H	-0.707689	0.000120	0.234478
H174	H	-0.207689	0.500120	0.734478
Br175	Br	-0.418425	-0.123120	0.002253
Br176	Br	0.081575	0.376880	0.502253
H177	H	-0.031113	0.123966	-0.088163
H178	H	0.468887	0.623966	0.411837
H179	H	-0.376074	0.094989	-0.167194
H180	H	0.123926	0.594989	0.332806
H181	H	-0.477905	-0.123689	-0.094732
H182	H	0.022095	0.376311	0.405268
H183	H	-0.706598	-0.428429	-0.089235
H184	H	-0.206598	0.071571	0.410765
Br185	Br	-0.967828	-0.406920	-0.096533
Br186	Br	-0.467828	0.093080	0.403467
H187	H	-0.896394	-0.328243	-0.168633
H188	H	-0.396394	0.171757	0.331367
H189	H	-0.609337	-0.123706	-0.096674
H190	H	-0.109337	0.376294	0.403326
H191	H	-0.031021	-0.123657	-0.088157
H192	H	0.468979	0.376343	0.411843
H193	H	-0.896382	-0.185289	-0.168634
H194	H	-0.396382	0.314711	0.331366
Br195	Br	-0.935807	0.103537	0.337513
Br196	Br	-0.435807	0.603537	0.837513
Br197	Br	-0.967846	-0.592662	-0.096527
Br198	Br	-0.467846	-0.092662	0.403473
H199	H	-0.939316	0.000124	0.133837
H200	H	-0.439316	0.500124	0.633837
Br201	Br	-0.971465	0.000146	0.289539
Br202	Br	-0.471465	0.500146	0.789539
Br203	Br	-0.721239	-0.349748	0.006650
Br204	Br	-0.221239	0.150252	0.506650
Br205	Br	-0.933303	0.103557	0.508276
Br206	Br	-0.433303	0.603557	1.008276
Br207	Br	-0.967420	0.000151	0.565662
Br208	Br	-0.467420	0.500151	1.065662
