data_functionalizedCrystal
_audit_creation_method	'MofGen! by Chris Wilmer'
_symmetry_space_group_name_H-M	'P1'
_symmetry_Int_Tables_number	1
_symmetry_cell_setting	triclinic
loop_
_symmetry_equiv_pos_as_xyz
  x,y,z
_cell_length_a	15.297327
_cell_length_b	21.395362
_cell_length_c	21.395356
_cell_angle_alpha	90.042977
_cell_angle_beta	99.650480
_cell_angle_gamma	80.274117
loop_
_atom_site_label
_atom_site_type_symbol
_atom_site_fract_x
_atom_site_fract_y
_atom_site_fract_z
Zn1	Zn	-0.358826	-0.914748	-0.397682
Zn2	Zn	0.141174	-0.414748	0.102318
Zn3	Zn	-0.509702	-0.896527	-0.311025
Zn4	Zn	-0.009702	-0.396527	0.188975
Zn5	Zn	-0.358892	-0.809956	-0.292891
Zn6	Zn	0.141108	-0.309956	0.207109
Zn7	Zn	-0.509697	-0.791807	-0.415729
Zn8	Zn	-0.009697	-0.291807	0.084271
O9	O	-0.434279	-0.853260	-0.354332
O10	O	0.065721	-0.353260	0.145668
O11	O	-0.378815	-1.000011	-0.386223
O12	O	0.121185	-0.500011	0.113777
O13	O	-0.489727	-0.885013	-0.220945
O14	O	0.010273	-0.385013	0.279055
O15	O	-0.232629	-0.839078	-0.291650
O16	O	0.267371	-0.339078	0.208350
O17	O	-0.489663	-0.986625	-0.322557
O18	O	0.010337	-0.486625	0.177443
O19	O	-0.232581	-0.916067	-0.368639
O20	O	0.267419	-0.416067	0.131361
O21	O	-0.378928	-0.821410	-0.207622
O22	O	0.121072	-0.321410	0.292378
O23	O	-0.378922	-0.719868	-0.309150
O24	O	0.121078	-0.219868	0.190850
O25	O	-0.489653	-0.808146	-0.501009
O26	O	0.010347	-0.308146	-0.001009
O27	O	-0.489717	-0.706534	-0.399398
O28	O	0.010283	-0.206534	0.100602
O29	O	-0.378809	-0.898469	-0.487750
O30	O	0.121191	-0.398469	0.012250
O31	O	-0.635956	-0.867415	-0.340056
O32	O	-0.135956	-0.367415	0.159944
O33	O	-0.635952	-0.790478	-0.416982
O34	O	-0.135952	-0.290478	0.083018
C35	C	-0.434327	-0.690466	-0.354265
C36	C	0.065673	-0.190466	0.145735
C37	C	-0.434369	-0.620820	-0.354254
C38	C	0.065631	-0.120820	0.145746
C39	C	-0.668690	-0.825017	-0.382459
C40	C	-0.168690	-0.325017	0.117541
C41	C	-0.768972	-0.812992	-0.394513
C42	C	-0.268972	-0.312992	0.105487
C43	C	-0.434223	-0.853316	-0.517748
C44	C	0.065777	-0.353316	-0.017748
C45	C	-0.434200	-0.853339	-0.587387
C46	C	0.065800	-0.353339	-0.087387
C47	C	-1.051533	-0.939462	-0.268395
C48	C	-0.551533	-0.439462	0.231605
C49	C	-0.957313	-0.950760	-0.257066
C50	C	-0.457313	-0.450760	0.242934
C51	C	-0.910223	-0.916319	-0.291427
C52	C	-0.410223	-0.416319	0.208573
C53	C	-0.957362	-0.870578	-0.337118
C54	C	-0.457362	-0.370578	0.162882
C55	C	-1.051591	-0.859276	-0.348444
C56	C	-0.551591	-0.359276	0.151556
C57	C	-0.910281	-0.836133	-0.371476
C58	C	-0.410281	-0.336133	0.128524
C59	C	-0.957420	-0.790392	-0.417167
C60	C	-0.457420	-0.290392	0.082833
C61	C	-1.051640	-0.779092	-0.428491
C62	C	-0.551640	-0.279092	0.071509
C63	C	-1.098730	-0.813533	-0.394131
C64	C	-0.598730	-0.313533	0.105869
C65	C	-0.816052	-0.847435	-0.360150
C66	C	-0.316052	-0.347435	0.139850
C67	C	-0.816111	-0.767249	-0.440200
C68	C	-0.316111	-0.267249	0.059800
C69	C	-0.910330	-0.755951	-0.451528
C70	C	-0.410330	-0.255951	0.048472
C71	C	-0.198953	-0.881630	-0.326109
C72	C	0.301047	-0.381630	0.173891
C73	C	-0.098672	-0.893719	-0.314081
C74	C	0.401328	-0.393719	0.185919
C75	C	-0.434232	-1.016689	-0.354399
C76	C	0.065768	-0.516689	0.145601
C77	C	-0.434212	-1.086332	-0.354428
C78	C	0.065788	-0.586332	0.145572
C79	C	-0.492137	-0.581171	-0.401195
C80	C	0.007863	-0.081171	0.098805
C81	C	-0.492115	-0.515738	-0.401221
C82	C	0.007885	-0.015738	0.098779
C83	C	-0.434334	-0.489956	-0.354294
C84	C	0.065666	0.010044	0.145706
C85	C	-0.376556	-0.529614	-0.307348
C86	C	0.123444	-0.029614	0.192652
C87	C	-0.376573	-0.595046	-0.307328
C88	C	0.123427	-0.095046	0.192672
C89	C	-0.427079	-0.387103	-0.297018
C90	C	0.072921	0.112897	0.202982
C91	C	-0.427068	-0.321672	-0.297037
C92	C	0.072932	0.178328	0.202963
C93	C	-0.434276	-0.288142	-0.354356
C94	C	0.065724	0.211858	0.145644
C95	C	-0.441513	-0.320050	-0.411659
C96	C	0.058487	0.179950	0.088341
C97	C	-0.441530	-0.385482	-0.411639
C98	C	0.058470	0.114518	0.088361
C99	C	-0.434309	-0.419006	-0.354311
C100	C	0.065691	0.080994	0.145689
C101	C	-0.492022	-0.177543	-0.401329
C102	C	0.007978	0.322457	0.098671
C103	C	-0.491994	-0.112110	-0.401355
C104	C	0.008006	0.387890	0.098645
C105	C	-0.376440	-0.125986	-0.307477
C106	C	0.123560	0.374014	0.192523
C107	C	-0.376463	-0.191419	-0.307457
C108	C	0.123537	0.308581	0.192543
C109	C	-0.434259	-0.217193	-0.354382
C110	C	0.065741	0.282807	0.145618
C111	C	-0.376500	-0.820233	-0.613152
C112	C	0.123500	-0.320233	-0.113152
C113	C	-0.376483	-0.820233	-0.678586
C114	C	0.123517	-0.320233	-0.178586
C115	C	-0.434157	-0.853352	-0.718250
C116	C	0.065843	-0.353352	-0.218250
C117	C	-0.491868	-0.886460	-0.692478
C118	C	0.008132	-0.386460	-0.192478
C119	C	-0.491889	-0.886454	-0.627047
C120	C	0.008111	-0.386454	-0.127047
C121	C	-0.441227	-0.908954	-0.822805
C122	C	0.058773	-0.408954	-0.322805
C123	C	-0.441200	-0.908962	-0.888234
C124	C	0.058800	-0.408962	-0.388234
C125	C	-0.434096	-0.853369	-0.920064
C126	C	0.065904	-0.353369	-0.420064
C127	C	-0.427001	-0.797769	-0.886453
C128	C	0.072999	-0.297769	-0.386453
C129	C	-0.427022	-0.797763	-0.821021
C130	C	0.072978	-0.297763	-0.321021
C131	C	-0.434140	-0.853361	-0.789201
C132	C	0.065860	-0.353361	-0.289201
C133	C	-0.376375	-0.820259	-1.016779
C134	C	0.123625	-0.320259	-0.516779
C135	C	-0.376364	-0.820257	-1.082214
C136	C	0.123636	-0.320257	-0.582214
C137	C	-0.491744	-0.886491	-1.096105
C138	C	0.008256	-0.386491	-0.596105
C139	C	-0.491759	-0.886486	-1.030672
C140	C	0.008241	-0.386486	-0.530672
C141	C	-0.434070	-0.853372	-0.991012
C142	C	0.065930	-0.353372	-0.491012
C143	C	-0.434270	-0.853248	-0.191543
C144	C	0.065730	-0.353248	0.308457
C145	C	-0.434040	-0.853376	-0.121875
C146	C	0.065960	-0.353376	0.378125
H147	H	-0.777680	-0.884678	-0.322948
H148	H	-0.277680	-0.384678	0.177052
H149	H	-0.421210	-0.752501	-0.912366
H150	H	0.078790	-0.252501	-0.412366
H151	H	-0.329493	-0.793275	-0.699567
H152	H	0.170507	-0.293275	-0.199567
H153	H	-0.446972	-0.954235	-0.915595
H154	H	0.053028	-0.454235	-0.415595
H155	H	-0.948724	-0.718708	-0.488730
H156	H	-0.448724	-0.218708	0.011270
Br157	Br	-0.298013	-0.091004	-0.243795
Br158	Br	0.201987	0.408996	0.256205
H159	H	-0.539079	-0.198530	-0.439541
H160	H	-0.039079	0.301470	0.060459
H161	H	-0.833505	-0.925520	-0.282200
H162	H	-0.333505	-0.425520	0.217800
Br163	Br	-0.298210	-0.775290	-0.559331
Br164	Br	0.201790	-0.275290	-0.059331
H165	H	-0.777771	-0.739203	-0.468178
H166	H	-0.277771	-0.239203	0.031822
H167	H	-0.329509	-0.508618	-0.269141
H168	H	0.170491	-0.008618	0.230859
H169	H	-1.090018	-0.741839	-0.465689
H170	H	-0.590018	-0.241839	0.034311
H171	H	-0.447380	-0.292751	-0.458334
H172	H	0.052620	0.207249	0.041666
Br173	Br	-0.570392	-0.058299	-0.465071
Br174	Br	-0.070392	0.441701	0.034929
Br175	Br	-0.298060	-0.245232	-0.243746
Br176	Br	0.201940	0.254768	0.256254
H177	H	-0.539198	-0.602152	-0.439407
H178	H	-0.039198	-0.102152	0.060593
Br179	Br	-0.570147	-0.931401	-0.746308
Br180	Br	-0.070147	-0.431401	-0.246308
H181	H	-0.447421	-0.411459	-0.458297
H182	H	0.052579	0.088541	0.041703
H183	H	-0.329381	-0.793293	-1.103191
H184	H	0.170619	-0.293293	-0.603191
H185	H	-1.089882	-0.967495	-0.240419
H186	H	-0.589882	-0.467495	0.259581
H187	H	-0.421181	-0.295697	-0.250379
H188	H	0.078819	0.204303	0.249621
Br189	Br	-0.450879	-0.984407	-0.779616
Br190	Br	0.049121	-0.484407	-0.279616
H191	H	-0.421247	-0.752491	-0.793658
H192	H	0.078753	-0.252491	-0.293658
H193	H	-0.538701	-0.913458	-1.128399
H194	H	-0.038701	-0.413458	-0.628399
H195	H	-0.421206	-0.414399	-0.250338
H196	H	0.078794	0.085601	0.249662
Br197	Br	-0.893344	-1.012839	-0.195065
Br198	Br	-0.393344	-0.512839	0.304935
Br199	Br	-0.570517	-0.461919	-0.464933
Br200	Br	-0.070517	0.038081	0.035067
H201	H	-1.175452	-0.804338	-0.403353
H202	H	-0.675452	-0.304338	0.096647
Br203	Br	-0.298166	-0.648859	-0.243618
Br204	Br	0.201834	-0.148859	0.256382
Br205	Br	-0.570202	-0.931387	-0.592077
Br206	Br	-0.070202	-0.431387	-0.092077
H207	H	-0.538742	-0.913447	-1.009694
H208	H	-0.038742	-0.413447	-0.509694
Br209	Br	-0.298088	-0.775317	-0.962952
Br210	Br	0.201912	-0.275317	-0.462952
