data_functionalizedCrystal
_audit_creation_method	'MofGen! by Chris Wilmer'
_symmetry_space_group_name_H-M	'P1'
_symmetry_Int_Tables_number	1
_symmetry_cell_setting	triclinic
loop_
_symmetry_equiv_pos_as_xyz
  x,y,z
_cell_length_a	19.188931
_cell_length_b	14.971486
_cell_length_c	13.448316
_cell_angle_alpha	90.006811
_cell_angle_beta	89.994767
_cell_angle_gamma	96.620545
loop_
_atom_site_label
_atom_site_type_symbol
_atom_site_fract_x
_atom_site_fract_y
_atom_site_fract_z
O1	O	0.926506	-0.111671	-0.082657
O2	O	0.723243	-0.126703	-0.082666
O3	O	0.830323	0.011042	-0.082654
O4	O	0.819427	-0.249416	-0.082669
O5	O	0.830309	0.011050	0.082730
O6	O	0.723230	-0.126695	0.082717
O7	O	0.926493	-0.111662	0.082727
Cu8	Cu	0.824860	-0.119178	0.097823
Cu9	Cu	0.824876	-0.119188	-0.097762
O10	O	0.819413	-0.249407	0.082715
C11	C	0.697224	-0.126212	0.000024
C12	C	0.619715	-0.124751	0.000021
C13	C	0.952512	-0.112153	0.000034
C14	C	1.030021	-0.113615	0.000031
C15	C	0.829829	0.044368	0.000037
C16	C	0.828369	0.143658	0.000036
C17	C	1.074685	-0.032790	0.000027
C18	C	1.147513	-0.034163	0.000033
C19	C	1.175675	-0.116365	0.000023
C20	C	1.131001	-0.197200	0.000033
C21	C	1.058174	-0.195825	0.000037
N22	N	1.283876	-0.179201	-0.056280
N23	N	1.353059	-0.180502	-0.056286
C24	C	1.395097	-0.120513	0.000013
N25	N	1.365339	-0.059161	0.056306
N26	N	1.296150	-0.057857	0.056308
C27	C	1.254642	-0.117865	0.000020
C28	C	1.518730	-0.041172	0.000017
C29	C	1.591559	-0.042548	0.000029
C30	C	1.575045	-0.205587	0.000019
C31	C	1.502217	-0.204209	0.000017
C32	C	1.474064	-0.121999	0.000011
C33	C	0.819907	-0.282734	0.000021
C34	C	0.821368	-0.382023	0.000016
N35	N	0.824854	-0.119170	0.235387
C36	C	0.891275	0.201215	0.000040
C37	C	0.889899	0.294507	0.000030
C38	C	0.825615	0.330240	0.000023
C39	C	0.762704	0.272675	0.000017
C40	C	0.764081	0.179385	0.000020
C41	C	0.759839	0.467123	0.000013
C42	C	0.758461	0.560419	0.000012
C43	C	0.885656	0.582245	0.000023
C44	C	0.887033	0.488955	0.000026
C45	C	0.824122	0.431396	0.000022
N46	N	0.824888	-0.119188	-0.235327
C47	C	0.872284	-0.058202	0.287433
C48	C	0.872288	-0.058201	0.391537
C49	C	0.824866	-0.119174	0.443592
C50	C	0.777431	-0.180145	0.391539
C51	C	0.777424	-0.180141	0.287438
C52	C	0.777450	-0.180151	0.608519
C53	C	0.777458	-0.180157	0.712628
C54	C	0.872314	-0.058211	0.712618
C55	C	0.872307	-0.058207	0.608517
C56	C	0.824873	-0.119180	0.556471
H57	H	1.051768	0.034152	0.000026
H58	H	0.936881	0.629114	0.000024
Cl59	Cl	0.931907	0.018451	0.222003
Cl60	Cl	0.717810	-0.256794	0.456978
Cl61	Cl	1.203673	0.067452	0.000025
H62	H	1.495806	0.025768	0.000017
Cl63	Cl	0.681890	0.317597	-0.000004
Cl64	Cl	0.967847	0.444035	0.000030
Cl65	Cl	0.717793	-0.256788	0.222009
H66	H	1.153934	-0.264129	0.000027
H67	H	1.465851	-0.270025	0.000014
Cl68	Cl	1.647709	0.059069	0.000035
Cl69	Cl	0.968985	0.366862	0.000038
Cl70	Cl	1.002022	-0.297441	0.000039
Cl71	Cl	0.677647	0.605339	0.000004
H72	H	0.943622	0.172130	0.000052
Cl73	Cl	1.610440	-0.308928	0.000022
Cl74	Cl	0.680749	0.394764	0.000006
H75	H	0.712856	0.132522	0.000016
H76	H	0.910908	-0.008555	0.433912
Cl77	Cl	0.931928	0.018439	0.543073
Cl78	Cl	0.717816	-0.256803	0.543094
H79	H	0.910936	-0.008565	0.755000
H80	H	0.738841	-0.229806	0.755006
