data_functionalizedCrystal
_audit_creation_method	'MofGen! by Chris Wilmer'
_symmetry_space_group_name_H-M	'P1'
_symmetry_Int_Tables_number	1
_symmetry_cell_setting	triclinic
loop_
_symmetry_equiv_pos_as_xyz
  x,y,z
_cell_length_a	11.792241
_cell_length_b	12.376457
_cell_length_c	13.339070
_cell_angle_alpha	75.589755
_cell_angle_beta	99.911355
_cell_angle_gamma	101.354533
loop_
_atom_site_label
_atom_site_type_symbol
_atom_site_fract_x
_atom_site_fract_y
_atom_site_fract_z
O1	O	0.554298	-0.094048	1.364732
O2	O	0.479486	-0.094041	1.069793
O3	O	0.353927	-0.094037	1.224419
O4	O	0.679857	-0.094053	1.210107
O5	O	0.385262	0.093974	1.185776
O6	O	0.510821	0.093970	1.031151
O7	O	0.585633	0.093963	1.326090
Zn8	Zn	0.553202	0.123817	1.172485
Zn9	Zn	0.511917	-0.123896	1.223398
O10	O	0.711191	0.093958	1.171464
C11	C	0.327027	-0.000032	1.204198
C12	C	0.200184	-0.000033	1.201507
C13	C	0.482516	-0.000035	1.012713
C14	C	0.444848	-0.000032	0.900204
N15	N	0.581379	0.292874	1.137745
C16	C	-0.032056	-0.000052	1.196562
C17	C	0.097178	-0.000042	1.199310
C18	C	0.738092	-0.000049	1.191685
C19	C	0.864933	-0.000056	1.194378
N20	N	0.483733	-0.292953	1.258146
C21	C	0.418302	0.647865	1.338788
C22	C	0.398579	0.529526	1.363097
C23	C	0.444277	0.470357	1.306760
C24	C	0.509702	0.529539	1.226112
C25	C	0.529435	0.647890	1.201806
C26	C	0.555410	0.470382	1.169779
C27	C	0.620835	0.529564	1.089130
C28	C	0.640564	0.647903	1.064828
C29	C	0.594866	0.707072	1.121164
C30	C	0.535677	0.352031	1.194085
C31	C	0.646810	0.352056	1.057103
C32	C	0.666533	0.470396	1.032794
C33	C	0.737736	-0.000064	0.537024
C34	C	0.773131	-0.000070	0.642733
C35	C	0.691063	-0.000060	0.707105
C36	C	0.573595	-0.000045	0.665760
C37	C	0.538195	-0.000047	0.560044
C38	C	0.491522	-0.000044	0.730125
C39	C	0.374054	-0.000028	0.688780
C40	C	0.338661	-0.000030	0.583073
C41	C	0.420728	-0.000040	0.518700
C42	C	0.526922	-0.000041	0.835841
C43	C	0.327381	-0.000025	0.858861
C44	C	0.291986	-0.000018	0.753152
C45	C	0.582602	-0.000046	1.383170
C46	C	0.620269	-0.000057	1.495681
H47	H	0.482408	0.303856	1.259749
O48	O	0.424960	0.355403	1.330471
C49	C	0.357439	0.315855	1.413749
H50	H	0.306666	0.384057	1.417056
H51	H	0.293803	0.236694	1.401236
H52	H	0.417245	0.294832	1.490292
O53	O	0.817453	-0.000279	0.474578
C54	C	0.870585	-0.097644	0.513438
H55	H	0.810600	-0.165691	0.563233
H56	H	0.887101	-0.130341	0.445416
H57	H	0.957015	-0.075632	0.563086
H58	H	0.243008	-0.000030	0.549416
O59	O	0.704139	0.705570	0.986553
C60	C	0.711730	0.822709	0.977163
H61	H	0.697359	0.838856	1.054182
H62	H	0.801768	0.867684	0.957116
H63	H	0.642204	0.856309	0.912602
O64	O	0.373724	0.705221	1.393479
C65	C	0.251156	0.676346	1.382306
H66	H	0.224641	0.590423	1.360904
H67	H	0.218521	0.672301	1.458999
H68	H	0.211195	0.742962	1.317983
O69	O	0.691082	0.294418	1.002447
C70	C	0.659661	0.177275	1.041208
H71	H	0.578523	0.161112	1.081906
H72	H	0.640601	0.132311	0.973774
H73	H	0.734447	0.143676	1.099286
O74	O	0.177860	-0.000212	0.712978
C75	C	0.135199	-0.097570	0.672510
H76	H	0.191136	-0.165632	0.711830
H77	H	0.041107	-0.130248	0.688204
H78	H	0.138855	-0.075558	0.584777
H79	H	0.260553	-0.000021	0.911274
H80	H	0.610920	0.803434	1.101370
O81	O	0.729943	0.528017	0.954391
C82	C	0.660727	0.596469	0.877477
H83	H	0.587451	0.614185	0.913718
H84	H	0.716991	0.679694	0.844616
H85	H	0.621769	0.550882	0.811903
H86	H	0.345312	0.481344	1.428760
O87	O	0.725648	-0.000009	0.809755
C88	C	0.846920	-0.000051	0.832450
H89	H	0.888950	0.035530	0.757695
H90	H	0.885764	0.054538	0.891247
H91	H	0.864109	-0.090252	0.866761
H92	H	0.391916	-0.000035	0.432622
H93	H	0.622565	-0.000049	0.869493
H94	H	0.868772	-0.000091	0.676390
