data_functionalizedCrystal
_audit_creation_method	'MofGen! by Chris Wilmer'
_symmetry_space_group_name_H-M	'P1'
_symmetry_Int_Tables_number	1
_symmetry_cell_setting	triclinic
loop_
_symmetry_equiv_pos_as_xyz
  x,y,z
_cell_length_a	17.038272
_cell_length_b	16.098538
_cell_length_c	17.038272
_cell_angle_alpha	92.920305
_cell_angle_beta	88.888444
_cell_angle_gamma	92.930266
loop_
_atom_site_label
_atom_site_type_symbol
_atom_site_fract_x
_atom_site_fract_y
_atom_site_fract_z
O1	O	1.052033	0.069152	-0.167266
O2	O	1.385366	0.402486	0.166067
O3	O	1.718699	0.735819	0.499401
O4	O	0.824222	0.069177	-0.164557
O5	O	1.157556	0.402510	0.168776
O6	O	1.490889	0.735844	0.502110
O7	O	0.936773	0.069158	-0.052006
O8	O	1.270106	0.402492	0.281327
O9	O	1.603440	0.735825	0.614661
O10	O	0.939482	0.069171	-0.279817
O11	O	1.272815	0.402504	0.053516
O12	O	1.606148	0.735838	0.386850
O13	O	0.930197	-0.069354	-0.058553
O14	O	1.263530	0.263980	0.274780
O15	O	1.596863	0.597313	0.608114
O16	O	0.817646	-0.069335	-0.171104
O17	O	1.150979	0.263998	0.162229
O18	O	1.484312	0.597332	0.495563
O19	O	1.045456	-0.069359	-0.173813
O20	O	1.378789	0.263974	0.159520
O21	O	1.712123	0.597307	0.492854
Zn22	Zn	0.930507	-0.091339	-0.173498
Zn23	Zn	1.263840	0.241994	0.159835
Zn24	Zn	1.597173	0.575328	0.493169
Zn25	Zn	0.939172	0.091156	-0.164872
Zn26	Zn	1.272505	0.424490	0.168461
Zn27	Zn	1.605838	0.757823	0.501795
O28	O	0.932905	-0.069341	-0.286364
O29	O	1.266238	0.263993	0.046969
O30	O	1.599572	0.597326	0.380303
C31	C	0.791641	-0.000076	-0.165367
C32	C	1.124975	0.333257	0.167966
C33	C	1.458308	0.666591	0.501299
C34	C	0.704358	-0.000067	-0.158019
C35	C	1.037692	0.333267	0.175314
C36	C	1.371025	0.666600	0.508648
N37	N	0.924599	-0.215887	-0.179385
N38	N	1.257932	0.117446	0.153948
N39	N	1.591266	0.450780	0.487282
C40	C	0.658749	-0.000064	-0.225482
C41	C	0.992082	0.333270	0.107851
C42	C	1.325416	0.666603	0.441184
C43	C	0.576737	-0.000075	-0.218574
C44	C	0.910070	0.333258	0.114759
C45	C	1.243403	0.666591	0.448093
C46	C	0.540335	-0.000085	-0.144201
C47	C	0.873668	0.333249	0.189132
C48	C	1.207002	0.666582	0.522466
C49	C	0.585950	-0.000090	-0.076733
C50	C	0.919284	0.333243	0.256601
C51	C	1.252617	0.666576	0.589934
C52	C	0.667961	-0.000084	-0.083642
C53	C	1.001294	0.333249	0.249691
C54	C	1.334627	0.666582	0.583025
C55	C	0.292946	-0.000108	-0.119792
C56	C	0.626279	0.333225	0.213542
C57	C	0.959613	0.666558	0.546875
C58	C	0.210929	-0.000112	-0.112887
C59	C	0.544263	0.333222	0.220446
C60	C	0.877596	0.666555	0.553780
C61	C	0.201722	-0.000098	-0.254729
C62	C	0.535055	0.333235	0.078604
C63	C	0.868388	0.666568	0.411937
C64	C	0.283734	-0.000088	-0.261632
C65	C	0.617068	0.333246	0.071701
C66	C	0.950401	0.666579	0.405035
C67	C	0.329342	-0.000098	-0.194164
C68	C	0.662675	0.333236	0.139170
C69	C	0.996009	0.666569	0.472503
C70	C	0.456505	-0.000094	-0.137138
C71	C	0.789839	0.333239	0.196196
C72	C	1.123172	0.666573	0.529529
C73	C	0.413170	-0.000094	-0.201228
C74	C	0.746503	0.333239	0.132105
C75	C	1.079837	0.666573	0.465439
C76	C	0.972390	-0.259480	-0.131633
C77	C	1.305723	0.073853	0.201700
C78	C	1.639057	0.407187	0.535034
C79	C	0.968265	-0.346668	-0.135759
C80	C	1.301598	-0.013335	0.197574
C81	C	1.634932	0.319998	0.530907
C82	C	0.916352	-0.390262	-0.187642
C83	C	1.249686	-0.056929	0.145692
C84	C	1.583019	0.276405	0.479025
C85	C	0.868556	-0.346663	-0.235395
C86	C	1.201889	-0.013330	0.097938
C87	C	1.535223	0.320004	0.431271
C88	C	0.872678	-0.259476	-0.231265
C89	C	1.206011	0.073857	0.102069
C90	C	1.539344	0.407190	0.435402
C91	C	0.901410	-0.653510	-0.202602
C92	C	1.234744	-0.320176	0.130731
C93	C	1.568077	0.013157	0.464065
C94	C	0.897294	-0.740702	-0.206731
C95	C	1.230628	-0.407369	0.126602
C96	C	1.563961	-0.074036	0.459936
C97	C	0.997003	-0.740702	-0.107093
C98	C	1.330336	-0.407368	0.226240
C99	C	1.663669	-0.074035	0.559573
C100	C	1.001123	-0.653513	-0.102971
C101	C	1.334456	-0.320180	0.230363
C102	C	1.667789	0.013153	0.563696
C103	C	0.953324	-0.609922	-0.150721
C104	C	1.286657	-0.276589	0.182612
C105	C	1.619990	0.056745	0.515945
C106	C	0.912136	-0.479383	-0.191862
C107	C	1.245470	-0.146049	0.141471
C108	C	1.578803	0.187284	0.474804
C109	C	0.957536	-0.520803	-0.146496
C110	C	1.290869	-0.187470	0.186837
C111	C	1.624203	0.145864	0.520170
C112	C	1.078037	-0.000105	-0.173002
C113	C	1.411370	0.333229	0.160331
C114	C	1.744704	0.666562	0.493664
C115	C	1.165320	-0.000108	-0.180351
C116	C	1.498654	0.333225	0.152983
C117	C	1.831987	0.666558	0.486316
C118	C	0.931022	-0.000097	-0.025987
C119	C	1.264355	0.333236	0.307347
C120	C	1.597689	0.666569	0.640680
C121	C	0.923674	-0.000096	0.061297
C122	C	1.257007	0.333237	0.394630
C123	C	1.590341	0.666570	0.727964
N124	N	0.945085	0.215705	-0.158979
N125	N	1.278419	0.549038	0.174354
N126	N	1.611752	0.882371	0.507688
C127	C	0.938656	-0.000083	-0.312383
C128	C	1.271990	0.333250	0.020950
C129	C	1.605323	0.666583	0.354284
C130	C	0.946005	-0.000079	-0.399666
C131	C	1.279338	0.333254	-0.066333
C132	C	1.612671	0.666588	0.267000
C133	C	0.991137	-0.000104	0.106906
C134	C	1.324471	0.333229	0.440239
C135	C	1.657804	0.666562	0.773572
C136	C	0.984229	-0.000096	0.188918
C137	C	1.317562	0.333238	0.522251
C138	C	1.650895	0.666571	0.855585
C139	C	0.909856	-0.000085	0.225320
C140	C	1.243189	0.333248	0.558653
C141	C	1.576523	0.666582	0.891986
C142	C	0.842388	-0.000074	0.179705
C143	C	1.175721	0.333259	0.513038
C144	C	1.509054	0.666592	0.846372
C145	C	0.849297	-0.000077	0.097694
C146	C	1.182631	0.333256	0.431028
C147	C	1.515964	0.666590	0.764361
C148	C	0.885446	-0.000071	0.472708
C149	C	1.218779	0.333262	0.806042
C150	C	1.552113	0.666596	1.139375
C151	C	0.878541	-0.000071	0.554725
C152	C	1.211875	0.333263	0.888058
C153	C	1.545208	0.666596	1.221391
C154	C	1.020383	-0.000091	0.563932
C155	C	1.353716	0.333243	0.897266
C156	C	1.687050	0.666576	1.230599
C157	C	1.027286	-0.000098	0.481920
C158	C	1.360619	0.333235	0.815253
C159	C	1.693953	0.666568	1.148586
C160	C	0.959818	-0.000083	0.436312
C161	C	1.293151	0.333250	0.769646
C162	C	1.626485	0.666583	1.102979
C163	C	0.902792	-0.000079	0.309149
C164	C	1.236126	0.333255	0.642483
C165	C	1.569459	0.666588	0.975816
C166	C	0.966882	-0.000084	0.352485
C167	C	1.300216	0.333250	0.685818
C168	C	1.633549	0.666583	1.019151
H169	H	0.688381	-0.000056	-0.286045
H170	H	1.021714	0.333278	0.047289
H171	H	1.355048	0.666611	0.380622
H172	H	0.705095	-0.000086	-0.028706
H173	H	1.038429	0.333247	0.304627
H174	H	1.371762	0.666580	0.637961
H175	H	1.087848	-0.000107	0.452287
H176	H	1.421181	0.333226	0.785621
H177	H	1.754515	0.666559	1.118954
H178	H	0.826283	-0.382162	-0.277636
H179	H	1.159617	-0.048829	0.055697
H180	H	1.492950	0.284505	0.389030
H181	H	1.007180	-0.382161	-0.096876
H182	H	1.340513	-0.048828	0.236458
H183	H	1.673846	0.284505	0.569791
H184	H	1.043394	-0.618021	-0.060724
H185	H	1.376727	-0.284688	0.272609
H186	H	1.710061	0.048646	0.605943
H187	H	0.862492	-0.618024	-0.241484
H188	H	1.195825	-0.284691	0.091849
H189	H	1.529158	0.048642	0.425182
H190	H	0.999800	-0.485307	-0.104250
H191	H	1.333134	-0.151973	0.229083
H192	H	1.666467	0.181360	0.562416
H193	H	0.869870	-0.514884	-0.234107
H194	H	1.203203	-0.181550	0.099226
H195	H	1.536536	0.151783	0.432559
H196	H	0.833760	-0.223984	-0.270148
H197	H	1.167093	0.109350	0.063185
H198	H	1.500427	0.442683	0.396519
H199	H	1.075312	-0.000101	0.601075
H200	H	1.408645	0.333232	0.934408
H201	H	1.741978	0.666565	1.267741
H202	H	0.330070	-0.000117	-0.064854
H203	H	0.663404	0.333216	0.268480
H204	H	0.996737	0.666550	0.601813
H205	H	0.781832	-0.000060	0.209350
H206	H	1.115165	0.333273	0.542683
H207	H	1.448499	0.666606	0.876016
H208	H	0.426857	-0.000125	-0.076584
H209	H	0.760190	0.333208	0.256749
H210	H	1.093524	0.666542	0.590083
H211	H	0.539605	-0.000072	-0.273510
H212	H	0.872938	0.333261	0.059823
H213	H	1.206272	0.666595	0.393156
H214	H	1.051699	-0.000118	0.077274
H215	H	1.385033	0.333215	0.410607
H216	H	1.718366	0.666548	0.743940
H217	H	1.039165	-0.000104	0.226050
H218	H	1.372498	0.333229	0.559383
H219	H	1.705831	0.666562	0.892716
H220	H	0.817975	-0.000075	0.584359
H221	H	1.151308	0.333258	0.917693
H222	H	1.484641	0.666591	1.251026
H223	H	0.794361	-0.000070	0.060560
H224	H	1.127695	0.333263	0.393894
H225	H	1.461028	0.666596	0.727227
H226	H	0.181294	-0.000118	-0.052321
H227	H	0.514628	0.333215	0.281012
H228	H	0.847961	0.666548	0.614346
H229	H	0.830508	-0.000059	0.435584
H230	H	1.163842	0.333274	0.768918
H231	H	1.497175	0.666608	1.102251
H232	H	1.027437	-0.000074	0.322844
H233	H	1.360771	0.333259	0.656177
H234	H	1.694104	0.666593	0.989510
H235	H	0.313367	-0.000070	-0.322194
H236	H	0.646700	0.333263	0.011140
H237	H	0.980034	0.666596	0.344473
H238	H	0.164579	-0.000092	-0.309658
H239	H	0.497912	0.333241	0.023676
H240	H	0.831246	0.666575	0.357009
H241	H	0.842238	-0.000072	0.338796
H242	H	1.175571	0.333262	0.672130
H243	H	1.508904	0.666595	1.005463
H244	H	0.556305	-0.000110	-0.016177
H245	H	0.889638	0.333224	0.317156
H246	H	1.222972	0.666557	0.650490
H247	H	0.442811	-0.000091	-0.261782
H248	H	0.776145	0.333242	0.071551
H249	H	1.109478	0.666575	0.404884
H250	H	1.014666	-0.223992	-0.089389
H251	H	1.347999	0.109341	0.243945
H252	H	1.681333	0.442675	0.577278
H253	H	0.855019	-0.776192	-0.248983
H254	H	1.188352	-0.442859	0.084350
H255	H	1.521685	-0.109526	0.417684
H256	H	1.035918	-0.776202	-0.068216
H257	H	1.369251	-0.442869	0.265117
H258	H	1.702584	-0.109535	0.598451
