data_functionalizedCrystal
_audit_creation_method	'MofGen! by Chris Wilmer'
_symmetry_space_group_name_H-M	'P1'
_symmetry_Int_Tables_number	1
_symmetry_cell_setting	triclinic
loop_
_symmetry_equiv_pos_as_xyz
  x,y,z
_cell_length_a	17.038272
_cell_length_b	14.044220
_cell_length_c	15.500361
_cell_angle_alpha	86.905595
_cell_angle_beta	86.961141
_cell_angle_gamma	87.849783
loop_
_atom_site_label
_atom_site_type_symbol
_atom_site_fract_x
_atom_site_fract_y
_atom_site_fract_z
O1	O	-1.048513	0.211123	-0.071831
O2	O	-0.715179	0.544456	0.261502
O3	O	-0.381846	0.877789	0.594836
O4	O	-0.820651	0.207837	-0.071856
O5	O	-0.487317	0.541171	0.261477
O6	O	-0.153984	0.874504	0.594810
O7	O	-0.931162	0.071219	-0.071840
O8	O	-0.597828	0.404553	0.261493
O9	O	-0.264495	0.737886	0.594826
O10	O	-0.938002	0.347741	-0.071847
O11	O	-0.604668	0.681074	0.261486
O12	O	-0.271335	1.014407	0.594820
O13	O	-0.937832	0.062955	0.072046
O14	O	-0.604499	0.396289	0.405380
O15	O	-0.271166	0.729622	0.738713
O16	O	-0.827321	0.199573	0.072030
O17	O	-0.493988	0.532907	0.405364
O18	O	-0.160655	0.866240	0.738697
O19	O	-1.055183	0.202859	0.072056
O20	O	-0.721850	0.536192	0.405389
O21	O	-0.388517	0.869525	0.738722
Cu22	Cu	-0.941861	0.200461	0.085181
Cu23	Cu	-0.608528	0.533795	0.418514
Cu24	Cu	-0.275195	0.867128	0.751848
Cu25	Cu	-0.933973	0.210235	-0.084982
Cu26	Cu	-0.600639	0.543568	0.248352
Cu27	Cu	-0.267306	0.876901	0.581685
O28	O	-0.944672	0.339477	0.072039
O29	O	-0.611339	0.672810	0.405373
O30	O	-0.278006	1.006143	0.738706
C31	C	-0.794649	0.200716	0.000084
C32	C	-0.461315	0.534049	0.333417
C33	C	-0.127982	0.867383	0.666750
C34	C	-0.707231	0.191797	0.000074
C35	C	-0.373898	0.525131	0.333407
C36	C	-0.040565	0.858464	0.666741
C37	C	-0.931503	0.031532	0.000102
C38	C	-0.598169	0.364865	0.333435
C39	C	-0.264836	0.698198	0.666769
C40	C	-0.922571	-0.074414	0.000098
C41	C	-0.589238	0.258919	0.333432
C42	C	-0.255904	0.592252	0.666765
C43	C	-1.081185	0.209980	0.000114
C44	C	-0.747852	0.543314	0.333447
C45	C	-0.414519	0.876647	0.666780
C46	C	-1.168602	0.218899	0.000118
C47	C	-0.835269	0.552232	0.333451
C48	C	-0.501936	0.885566	0.666784
C49	C	-0.662846	0.273686	0.000072
C50	C	-0.329512	0.607019	0.333406
C51	C	0.003821	0.940352	0.666739
C52	C	-0.580709	0.265299	0.000085
C53	C	-0.247376	0.598632	0.333418
C54	C	0.085958	0.931966	0.666751
C55	C	-0.542959	0.175023	0.000092
C56	C	-0.209626	0.508357	0.333425
C57	C	0.123708	0.841690	0.666759
C58	C	-0.587351	0.093129	0.000096
C59	C	-0.254017	0.426462	0.333429
C60	C	0.079316	0.759795	0.666763
C61	C	-0.669486	0.101516	0.000090
C62	C	-0.336153	0.434849	0.333423
C63	C	-0.002820	0.768183	0.666757
C64	C	-0.295129	0.145392	0.000116
C65	C	0.038204	0.478725	0.333449
C66	C	0.371537	0.812059	0.666782
C67	C	-0.212988	0.137011	0.000119
C68	C	0.120345	0.470344	0.333453
C69	C	0.453679	0.803677	0.666786
C70	C	-0.206352	0.309182	0.000110
C71	C	0.126981	0.642515	0.333443
C72	C	0.460315	0.975849	0.666776
C73	C	-0.288489	0.317562	0.000098
C74	C	0.044844	0.650895	0.333432
C75	C	0.378178	0.984228	0.666765
C76	C	-0.332874	0.235667	0.000107
C77	C	0.000460	0.569000	0.333440
C78	C	0.333793	0.902333	0.666774
C79	C	-0.459002	0.166448	0.000102
C80	C	-0.125669	0.499782	0.333435
C81	C	0.207664	0.833115	0.666768
C82	C	-0.416829	0.244242	0.000103
C83	C	-0.083496	0.577575	0.333437
C84	C	0.249837	0.910909	0.666770
C85	C	-0.944331	0.379165	0.000095
C86	C	-0.610998	0.712498	0.333429
C87	C	-0.277665	1.045831	0.666762
C88	C	-0.953263	0.485111	0.000093
C89	C	-0.619929	0.818444	0.333427
C90	C	-0.286596	1.151777	0.666760
N91	N	-0.947415	0.193587	0.204864
N92	N	-0.614082	0.526921	0.538197
N93	N	-0.280749	0.860254	0.871531
C94	C	-0.969591	0.679088	0.000099
C95	C	-0.636258	1.012422	0.333432
C96	C	-0.302925	1.345755	0.666766
C97	C	-0.906246	0.731614	0.000093
C98	C	-0.572913	1.064947	0.333426
C99	C	-0.239579	1.398281	0.666759
C100	C	-0.915331	0.839550	0.000096
C101	C	-0.581998	1.172883	0.333429
C102	C	-0.248665	1.506216	0.666762
C103	C	-0.960507	0.571143	0.000096
C104	C	-0.627174	0.904476	0.333429
C105	C	-0.293840	1.237809	0.666763
N106	N	-0.928424	0.217102	-0.204665
N107	N	-0.595091	0.550435	0.128668
N108	N	-0.261758	0.883768	0.462002
C109	C	-0.900577	0.251453	0.250155
C110	C	-0.567244	0.584786	0.583488
C111	C	-0.233910	0.918119	0.916822
C112	C	-0.904800	0.246252	0.340727
C113	C	-0.571466	0.579585	0.674060
C114	C	-0.238133	0.912919	1.007393
C115	C	-0.955857	0.183180	0.386006
C116	C	-0.622524	0.516514	0.719339
C117	C	-0.289191	0.849847	1.052672
C118	C	-1.002701	0.125313	0.340708
C119	C	-0.669367	0.458646	0.674042
C120	C	-0.336034	0.791980	1.007375
C121	C	-0.998482	0.130519	0.250138
C122	C	-0.665148	0.463853	0.583472
C123	C	-0.331815	0.797186	0.916805
C124	C	-0.971049	0.164440	0.659468
C125	C	-0.637715	0.497774	0.992801
C126	C	-0.304382	0.831107	1.326135
C127	C	-0.975263	0.159236	0.750044
C128	C	-0.641929	0.492570	1.083377
C129	C	-0.308596	0.825903	1.416711
C130	C	-0.877362	0.280177	0.750056
C131	C	-0.544029	0.613511	1.083390
C132	C	-0.210696	0.946844	1.416723
C133	C	-0.873144	0.285374	0.659485
C134	C	-0.539811	0.618707	0.992818
C135	C	-0.206477	0.952040	1.326151
C136	C	-0.919991	0.227510	0.614195
C137	C	-0.586657	0.560843	0.947529
C138	C	-0.253324	0.894177	1.280862
C139	C	-0.960173	0.177861	0.478584
C140	C	-0.626840	0.511194	0.811918
C141	C	-0.293506	0.844528	1.145251
C142	C	-0.915679	0.232835	0.521618
C143	C	-0.582345	0.566168	0.854952
C144	C	-0.249012	0.899502	1.188285
H145	H	-0.693575	0.347198	0.000066
H146	H	-0.360242	0.680531	0.333399
H147	H	-0.026909	1.013865	0.666733
H148	H	-1.030642	0.715180	0.000109
H149	H	-0.697308	1.048514	0.333443
H150	H	-0.363975	1.381847	0.666776
Cl151	Cl	-0.350917	0.042437	0.000126
Cl152	Cl	-0.017583	0.375770	0.333459
Cl153	Cl	0.315750	0.709103	0.666792
H154	H	-0.845191	0.695520	0.000086
H155	H	-0.511858	1.028853	0.333420
H156	H	-0.178524	1.362186	0.666753
Cl157	Cl	-0.539894	-0.020362	0.000111
Cl158	Cl	-0.206560	0.312971	0.333444
Cl159	Cl	0.126773	0.646304	0.666777
Cl160	Cl	-0.836383	0.330742	0.193243
Cl161	Cl	-0.503050	0.664075	0.526576
Cl162	Cl	-0.169716	0.997409	0.859909
Cl163	Cl	-0.725286	-0.001434	0.000095
Cl164	Cl	-0.391952	0.331899	0.333429
Cl165	Cl	-0.058619	0.665232	0.666762
Cl166	Cl	-0.851497	0.312126	0.464696
Cl167	Cl	-0.518164	0.645459	0.798029
Cl168	Cl	-0.184830	0.978792	1.131362
Cl169	Cl	-0.818476	0.352920	0.806995
Cl170	Cl	-0.485143	0.686253	1.140329
Cl171	Cl	-0.151809	1.019586	1.473662
Cl172	Cl	-1.029937	0.091695	0.602539
Cl173	Cl	-0.696603	0.425029	0.935872
Cl174	Cl	-0.363270	0.758362	1.269205
H175	H	-0.866661	0.293371	0.377602
H176	H	-0.533328	0.626704	0.710936
H177	H	-0.199994	0.960038	1.044269
Cl178	Cl	-1.057370	0.057774	0.193202
Cl179	Cl	-0.724037	0.391108	0.526535
Cl180	Cl	-0.390704	0.724441	0.859869
H181	H	-1.016842	0.107872	0.786906
H182	H	-0.683508	0.441206	1.120239
H183	H	-0.350175	0.774539	1.453573
H184	H	-0.831569	0.336731	0.622620
H185	H	-0.498236	0.670065	0.955954
H186	H	-0.164903	1.003398	1.289287
Cl187	Cl	-0.335940	0.431056	0.000083
Cl188	Cl	-0.002606	0.764389	0.333417
Cl189	Cl	0.330727	1.097723	0.666750
H190	H	-0.447569	0.317744	0.000102
H191	H	-0.114236	0.651077	0.333436
H192	H	0.219098	0.984411	0.666769
Cl193	Cl	-0.524913	0.368250	0.000078
Cl194	Cl	-0.191580	0.701584	0.333411
Cl195	Cl	0.141754	1.034917	0.666744
Cl196	Cl	-0.411538	0.052962	0.000107
Cl197	Cl	-0.078205	0.386296	0.333440
Cl198	Cl	0.255129	0.719629	0.666774
H199	H	-1.044277	0.073962	0.377580
H200	H	-0.710944	0.407296	0.710913
H201	H	-0.377610	0.740629	1.044246
H202	H	-1.001743	0.126505	0.515458
H203	H	-0.668410	0.459838	0.848791
H204	H	-0.335077	0.793172	1.182124
H205	H	-0.170205	0.375856	0.000104
H206	H	0.163128	0.709189	0.333438
H207	H	0.496461	1.042522	0.666771
H208	H	-0.182255	0.063494	0.000124
H209	H	0.151079	0.396827	0.333458
H210	H	0.484412	0.730161	0.666791
