data_functionalizedCrystal
_audit_creation_method	'MofGen! by Chris Wilmer'
_symmetry_space_group_name_H-M	'P1'
_symmetry_Int_Tables_number	1
_symmetry_cell_setting	triclinic
loop_
_symmetry_equiv_pos_as_xyz
  x,y,z
_cell_length_a	23.196402
_cell_length_b	19.851628
_cell_length_c	23.196401
_cell_angle_alpha	90.016862
_cell_angle_beta	60.007332
_cell_angle_gamma	60.002583
loop_
_atom_site_label
_atom_site_type_symbol
_atom_site_fract_x
_atom_site_fract_y
_atom_site_fract_z
Zr1	Zr	0.630912	0.649030	-0.075563
O2	O	0.751186	0.541452	-0.167622
O3	O	0.510647	0.681999	-0.047346
O4	O	0.630910	0.681980	-0.167612
O5	O	0.630921	0.541498	0.047516
O6	O	0.630899	0.792841	-0.167600
O7	O	0.630923	0.541472	-0.047356
O8	O	0.415771	0.792876	0.047534
O9	O	0.846050	0.541463	-0.167618
O10	O	0.560103	0.778807	-0.035299
O11	O	0.560110	0.696092	0.035494
O12	O	0.701704	0.696069	-0.106104
O13	O	0.701711	0.613354	-0.035311
Zr14	Zr	0.630892	0.825884	0.075764
Zr15	Zr	0.630895	0.825842	-0.075545
Zr16	Zr	0.630910	0.649073	0.075746
Zr17	Zr	0.782210	0.649048	-0.075558
Zr18	Zr	0.479595	0.825867	0.075758
O19	O	0.751157	0.792916	0.047546
O20	O	0.751160	0.792856	-0.167596
O21	O	0.751182	0.541512	0.047520
O22	O	0.510619	0.933463	0.167822
O23	O	0.510622	0.933403	-0.047319
O24	O	0.510644	0.682059	0.167796
O25	O	0.630883	0.933417	-0.047315
O26	O	0.630894	0.792935	0.167812
O27	O	0.630905	0.682073	0.167801
O28	O	0.630882	0.933443	0.047556
O29	O	0.846036	0.682005	-0.167604
O30	O	0.415769	0.792910	0.167804
O31	O	0.415755	0.933452	0.167819
O32	O	0.415757	0.933418	0.047548
O33	O	0.846048	0.541497	-0.047348
O34	O	0.846034	0.682039	-0.047333
O35	O	0.560100	0.778846	0.106304
O36	O	0.560093	0.861561	0.035511
O37	O	0.701695	0.778823	-0.035293
O38	O	0.701702	0.696108	0.035499
C39	C	0.441652	0.737435	0.000093
C40	C	0.377423	0.737428	0.000091
C41	C	0.294987	0.798517	0.052358
C42	C	0.234627	0.798523	0.052364
C43	C	0.256707	0.737445	0.000093
C44	C	0.339157	0.676344	-0.052179
C45	C	0.399514	0.676336	-0.052180
C46	C	0.201123	0.718411	-0.063701
C47	C	0.140764	0.718425	-0.063700
C48	C	0.070545	0.737467	0.000096
C49	C	0.060684	0.756513	0.063896
C50	C	0.121041	0.756504	0.063895
C51	C	0.191265	0.737447	0.000088
C52	C	-0.077344	0.798567	0.052374
C53	C	-0.137703	0.798567	0.052381
C54	C	-0.033171	0.676391	-0.052167
C55	C	0.027186	0.676388	-0.052169
C56	C	0.005094	0.737480	0.000102
C57	C	0.630924	0.516293	0.000077
C58	C	0.630932	0.441232	0.000069
C59	C	0.708121	0.214775	-0.038513
C60	C	0.669528	0.192401	-0.066489
C61	C	0.630911	0.303825	0.000090
C62	C	0.669509	0.192458	0.028053
C63	C	0.630896	0.171093	0.000109
C64	C	0.592318	0.282440	-0.027926
C65	C	0.592309	0.282495	0.066654
C66	C	0.553660	0.260174	0.038694
C67	C	0.630922	0.380287	0.000077
C68	C	0.630879	0.094636	0.000120
C69	C	0.820152	0.737480	0.000107
C70	C	0.884382	0.737487	0.000110
C71	C	0.630905	0.737405	-0.189164
C72	C	0.630906	0.737387	-0.253399
C73	C	0.630880	0.958622	0.000123
C74	C	0.630872	1.033683	0.000131
C75	C	0.704818	0.694202	-0.320531
C76	C	0.704819	0.694223	-0.380886
C77	C	0.630904	0.737417	-0.374105
C78	C	0.556982	0.780611	-0.306960
C79	C	0.556983	0.780596	-0.246607
C80	C	0.574279	0.731276	-0.441425
C81	C	0.574281	0.731285	-0.501778
C82	C	0.630898	0.737469	-0.560253
C83	C	0.687527	0.743628	-0.558373
C84	C	0.687528	0.743612	-0.498020
C85	C	0.630895	0.737439	-0.439544
C86	C	0.704816	0.694306	-0.692832
C87	C	0.704814	0.694333	-0.753187
C88	C	0.556975	0.780715	-0.679259
C89	C	0.556979	0.780694	-0.618906
C90	C	0.630902	0.737485	-0.625697
C91	C	0.630899	0.737510	0.189365
C92	C	0.630898	0.737528	0.253599
C93	C	0.441630	0.958600	0.000116
C94	C	0.377393	1.033653	0.000122
C95	C	0.441649	0.737488	0.189358
C96	C	0.377419	0.737498	0.253590
C97	C	0.441627	0.958653	0.189381
C98	C	0.377389	1.033724	0.253621
C99	C	0.820177	0.516262	-0.189180
C100	C	0.884415	0.441191	-0.253420
C101	C	0.820174	0.516315	0.000084
C102	C	0.884411	0.441262	0.000079
C103	C	0.820155	0.737427	-0.189157
C104	C	0.884386	0.737416	-0.253389
C105	C	0.347231	1.025702	-0.036844
C106	C	0.286882	1.096216	-0.036853
C107	C	0.256691	1.174681	0.000108
C108	C	0.286859	1.182630	0.037075
C109	C	0.347211	1.112117	0.037080
C110	C	0.347251	0.780700	0.320722
C111	C	0.286907	0.780707	0.381081
C112	C	0.256730	0.737516	0.374306
C113	C	0.286904	0.694309	0.307166
C114	C	0.347250	0.694298	0.246809
C115	C	0.347218	1.112162	0.246835
C116	C	0.286868	1.182707	0.307190
C117	C	0.256686	1.174811	0.374329
C118	C	0.286862	1.096365	0.381113
C119	C	0.347215	1.025822	0.320759
C120	C	0.914593	0.362752	-0.246635
C121	C	0.974962	0.292208	-0.306989
C122	C	1.005148	0.300103	-0.374128
C123	C	0.974968	0.378550	-0.380912
C124	C	0.914604	0.449093	-0.320559
C125	C	0.914579	0.449213	0.037039
C126	C	0.974945	0.378699	0.037031
C127	C	1.005138	0.300234	0.000067
C128	C	0.974968	0.292285	-0.036897
C129	C	0.914607	0.362798	-0.036893
C130	C	0.914544	0.780616	-0.246591
C131	C	0.974888	0.780622	-0.306938
C132	C	1.005076	0.737424	-0.374083
C133	C	0.974911	0.694223	-0.380880
C134	C	0.914565	0.694222	-0.320533
H135	H	0.167495	0.848271	0.094928
H136	H	0.999553	0.384969	-0.435584
C137	C	0.363444	0.609159	-0.109678
N138	N	0.381739	0.558552	-0.152987
C139	C	0.380395	0.939541	0.328235
N140	N	0.405384	0.874556	0.333871
C141	C	1.071460	0.737432	-0.440459
N142	N	1.121463	0.737439	-0.490452
H143	H	0.488322	0.278782	0.071339
H144	H	0.890033	0.512959	-0.326092
C145	C	0.490201	0.609133	-0.109684
N146	N	0.558508	0.558517	-0.152998
H147	H	0.496792	0.815855	-0.564242
C148	C	0.190289	1.252419	0.440714
N149	N	0.140276	1.310876	0.490712
C150	C	0.253719	0.828250	0.454928
N151	N	0.228721	0.864061	0.510548
C152	C	0.253646	1.087693	0.454973
N153	N	0.228621	1.081165	0.510606
C154	C	0.253695	0.646806	0.299725
N155	N	0.228676	0.611032	0.294122
H156	H	0.702161	0.153579	-0.122774
C157	C	0.548280	0.334952	0.142667
N158	N	0.515129	0.374464	0.199919
C159	C	0.881406	0.354047	-0.172787
N160	N	0.856417	0.347483	-0.117166
C161	C	1.008148	0.205925	-0.299511
N162	N	1.033142	0.140938	-0.293876
C163	C	0.380434	0.939398	-0.077512
N164	N	0.405443	0.874395	-0.108150
C165	C	0.380420	0.646779	0.172964
N166	N	0.405399	0.610987	0.117345
H167	H	1.054300	0.242656	-0.423267
C168	C	0.881382	0.535517	0.077701
N169	N	0.856386	0.600520	0.108325
H170	H	0.999500	0.385187	0.067134
H171	H	0.528175	0.726234	-0.393817
H172	H	0.371784	1.118607	0.192173
C173	C	-0.101643	0.865761	0.109878
N174	N	-0.119947	0.916372	0.153192
C175	C	1.008178	0.205966	-0.077543
N176	N	1.033187	0.140948	-0.108150
C177	C	0.749809	0.750434	-0.622691
N178	N	0.796718	0.755560	-0.671138
C179	C	-0.228389	0.865783	0.109875
N180	N	-0.296696	0.916416	0.153176
H181	H	0.113009	0.772009	0.115842
H182	H	0.371815	0.815872	0.326253
C183	C	0.881408	0.646684	-0.328023
N184	N	0.856439	0.610873	-0.333669
H185	H	0.559709	0.321124	-0.051632
H186	H	0.702155	0.153667	0.051695
C187	C	0.278362	0.697463	-0.133886
N188	N	0.336536	0.681687	-0.186748
C189	C	0.253677	1.268990	0.299712
N190	N	0.228678	1.333977	0.294077
C191	C	1.071533	0.222675	0.000074
N192	N	1.121540	0.164260	0.000084
H193	H	0.999441	0.815800	-0.301391
H194	H	0.496793	0.815762	-0.191943
H195	H	0.148798	0.702920	-0.115649
C196	C	0.796314	0.189856	-0.082677
N197	N	0.862739	0.171090	-0.115944
H198	H	0.371761	1.118602	0.067186
C199	C	0.881345	0.828146	-0.172738
N200	N	0.856338	0.863953	-0.117113
H201	H	0.890046	0.356312	-0.066988
C202	C	1.008098	0.646742	-0.454745
N203	N	1.033088	0.610989	-0.510383
C204	C	0.253702	1.087453	-0.077514
N205	N	0.228710	1.080851	-0.108138
H206	H	0.003512	0.772013	0.115844
C207	C	0.270681	0.865716	0.109861
N208	N	0.252374	0.916329	0.153174
H209	H	-0.015191	0.626659	-0.094727
H210	H	0.733635	0.748628	-0.496492
C211	C	0.475675	0.828122	-0.299502
N212	N	0.414432	0.863910	-0.293883
H213	H	0.765012	0.659022	-0.326067
C214	C	0.117871	0.609191	-0.109674
N215	N	0.186178	0.558575	-0.152989
H216	H	0.207548	1.232091	0.000099
H217	H	0.765009	0.659123	-0.698362
C218	C	0.786132	0.646715	-0.454743
N219	N	0.847377	0.610931	-0.510370
H220	H	0.765005	0.659170	-0.807850
C221	C	0.511991	0.724507	-0.503842
N222	N	0.465073	0.719401	-0.505393
C223	C	0.253634	1.268949	0.077736
N224	N	0.228603	1.333967	0.108366
H225	H	0.207592	0.737532	0.423458
H226	H	0.496792	0.815886	-0.673736
