data_functionalizedCrystal
_audit_creation_method	'MofGen! by Chris Wilmer'
_symmetry_space_group_name_H-M	'P1'
_symmetry_Int_Tables_number	1
_symmetry_cell_setting	triclinic
loop_
_symmetry_equiv_pos_as_xyz
  x,y,z
_cell_length_a	29.839134
_cell_length_b	12.759394
_cell_length_c	12.759387
_cell_angle_alpha	89.968340
_cell_angle_beta	90.032625
_cell_angle_gamma	89.990301
loop_
_atom_site_label
_atom_site_type_symbol
_atom_site_fract_x
_atom_site_fract_y
_atom_site_fract_z
Zn1	Zn	0.686850	0.418355	0.594338
Zn2	Zn	0.686803	0.594072	0.418656
Zn3	Zn	0.611719	0.418392	0.418638
Zn4	Zn	0.611715	0.593977	0.594258
O5	O	0.649272	0.506199	0.506473
O6	O	0.749711	0.441689	0.571075
O7	O	0.676825	0.570823	0.271633
O8	O	0.621706	0.271366	0.441971
O9	O	0.749676	0.570787	0.442002
O10	O	0.676905	0.271339	0.571057
O11	O	0.621661	0.441751	0.271619
O12	O	0.548851	0.441659	0.441893
O13	O	0.621700	0.570625	0.741290
O14	O	0.548849	0.570661	0.570921
O15	O	0.676901	0.441596	0.741349
O16	O	0.676821	0.741080	0.441924
O17	O	0.621655	0.741011	0.570938
C18	C	0.649245	0.779166	0.506447
C19	C	0.649274	0.895943	0.506472
C20	C	0.532549	0.506154	0.506397
C21	C	0.482615	0.506161	0.506389
C22	C	0.649306	0.506096	0.780506
C23	C	0.649320	0.506052	0.897283
C24	C	0.172979	0.573469	0.573575
C25	C	-0.014694	0.573499	0.573622
O26	O	-0.038951	0.630678	0.630700
N27	N	-0.038170	0.506237	0.506552
C28	C	-0.014726	0.438959	0.439470
O29	O	-0.039001	0.381742	0.382432
C30	C	0.172946	0.438925	0.439430
C31	C	0.196421	0.506198	0.506496
C32	C	0.196454	0.640737	0.640637
C33	C	0.243369	0.640732	0.640620
C34	C	0.266810	0.573461	0.573542
C35	C	0.243336	0.506194	0.506480
C36	C	0.196390	0.371642	0.372355
C37	C	0.243311	0.371637	0.372352
C38	C	0.266785	0.438911	0.439419
C39	C	0.313692	0.438919	0.439385
N40	N	0.337169	0.506180	0.506455
C41	C	0.313728	0.573452	0.573533
C42	C	-0.113257	0.438983	0.439495
C43	C	-0.160175	0.438993	0.439504
C44	C	-0.160139	0.573532	0.573656
C45	C	-0.113220	0.573526	0.573642
C46	C	-0.089780	0.506244	0.506565
C47	C	0.412254	0.573439	0.573493
C48	C	0.459174	0.573432	0.573468
C49	C	0.459134	0.438889	0.439319
C50	C	0.412218	0.438900	0.439340
C51	C	0.388780	0.506178	0.506436
O52	O	0.337979	0.381762	0.382345
O53	O	0.338011	0.630644	0.630580
C54	C	0.126064	0.573473	0.573591
C55	C	0.102590	0.506206	0.506529
C56	C	0.126031	0.438935	0.439451
C57	C	0.055672	0.506216	0.506538
C58	C	0.032231	0.573487	0.573616
C59	C	0.055708	0.640749	0.640686
C60	C	0.102623	0.640745	0.640670
C61	C	0.102554	0.371673	0.372381
C62	C	0.055638	0.371684	0.372402
C63	C	0.032197	0.438955	0.439481
C64	C	0.766450	0.506244	0.506549
C65	C	0.816384	0.506264	0.506582
C66	C	0.649311	0.232165	0.506521
C67	C	0.649328	0.115389	0.506542
C68	C	0.706762	0.895963	0.372230
C69	C	0.735518	0.950833	0.305122
C70	C	0.735544	1.060555	0.305150
C71	C	0.706813	1.115408	0.372297
C72	C	0.678057	1.060538	0.439405
C73	C	0.678033	0.950814	0.439367
C74	C	0.620572	1.060518	0.573650
C75	C	0.620543	0.950797	0.573618
C76	C	0.591840	1.115372	0.640797
C77	C	0.563082	1.060501	0.707901
C78	C	0.563056	0.950773	0.707869
C79	C	0.591787	0.895926	0.640726
C80	C	0.649264	0.506226	0.233505
C81	C	0.649336	0.505974	0.116729
C82	C	0.706805	0.371703	0.897364
C83	C	0.735553	0.304513	0.952266
C84	C	0.735564	0.304475	1.061987
C85	C	0.706823	0.371632	1.116810
C86	C	0.678074	0.438822	1.061909
C87	C	0.678067	0.438855	0.952185
C88	C	0.620588	0.573164	1.061828
C89	C	0.620578	0.573209	0.952106
C90	C	0.591846	0.640320	1.116650
C91	C	0.563099	0.707517	1.061749
C92	C	0.563089	0.707554	0.952021
C93	C	0.591830	0.640399	0.897204
H94	H	0.393176	0.628221	0.628131
H95	H	0.591866	1.204713	0.640820
C96	C	0.706894	1.234535	0.372144
C97	C	0.738221	1.270848	0.298990
C98	C	0.738304	1.380581	0.298813
H99	H	0.714672	1.259413	0.439907
H100	H	0.677921	1.259463	0.353862
H101	H	0.767188	1.245930	0.317278
H102	H	0.730451	1.245998	0.231216
H103	H	0.709330	1.405509	0.280531
H104	H	0.746081	1.405449	0.366580
H105	H	0.759555	1.405233	0.249173
H106	H	0.706830	0.371586	1.206151
H107	H	0.036530	0.316903	0.317779
H108	H	0.262478	0.695511	0.695235
C109	C	0.531908	1.120245	0.780682
C110	C	0.538081	1.228078	0.766333
C111	C	0.509367	1.283150	0.833350
H112	H	0.538435	1.102316	0.851326
H113	H	0.501711	1.102395	0.765218
H114	H	0.568271	1.245920	0.781805
H115	H	0.531551	1.246038	0.695703
H116	H	0.479170	1.265300	0.817886
H117	H	0.515897	1.265212	0.903990
H118	H	0.513549	1.356319	0.823617
H119	H	0.706803	0.371738	0.808023
C120	C	0.531788	0.891392	0.780777
C121	C	0.506628	0.962920	0.839565
C122	C	0.477815	0.908262	0.906732
H123	H	0.548906	0.848519	0.826672
H124	H	0.512184	0.848679	0.740559
H125	H	0.526229	1.005615	0.879781
H126	H	0.489501	1.005796	0.793698
H127	H	0.458211	0.865548	0.866513
H128	H	0.494937	0.865390	0.952620
H129	H	0.460738	0.956784	0.946621
H130	H	0.121635	0.316892	0.317757
H131	H	0.591855	0.640280	1.205992
C132	C	-0.087678	0.646389	0.646526
C133	C	-0.060716	0.586978	0.713952
C134	C	-0.037179	0.654063	0.781103
H135	H	-0.108311	0.686476	0.686572
H136	H	-0.069361	0.692100	0.606288
H137	H	-0.079031	0.541284	0.754186
H138	H	-0.040075	0.546892	0.673935
H139	H	-0.018862	0.699775	0.740865
H140	H	-0.057815	0.694148	0.821141
H141	H	-0.018879	0.613763	0.826852
H142	H	0.706738	0.806621	0.372186
C143	C	0.766744	0.231724	0.892554
C144	C	0.760593	0.246157	0.784713
C145	C	0.789322	0.179133	0.729679
H146	H	0.760215	0.161079	0.910416
H147	H	0.796936	0.247131	0.910502
H148	H	0.730408	0.230743	0.766772
H149	H	0.767125	0.316788	0.766820
H150	H	0.819514	0.194540	0.747627
H151	H	0.782791	0.108491	0.747549
H152	H	0.785156	0.188923	0.656504
C153	C	0.591677	0.776799	0.640806
C154	C	0.560338	0.740481	0.713929
C155	C	0.560222	0.630747	0.714019
H156	H	0.620633	0.751785	0.659068
H157	H	0.583892	0.752012	0.572999
H158	H	0.568126	0.765257	0.781721
H159	H	0.531378	0.765467	0.695683
H160	H	0.552437	0.605960	0.646213
H161	H	0.589180	0.605743	0.732280
H162	H	0.538957	0.606091	0.763625
C163	C	-0.185618	0.646390	0.646623
C164	C	-0.212522	0.586965	0.714074
C165	C	-0.235997	0.654034	0.781315
H166	H	-0.203972	0.692145	0.606485
H167	H	-0.164935	0.686431	0.686636
H168	H	-0.233203	0.546942	0.674064
H169	H	-0.194180	0.541213	0.754235
H170	H	-0.215314	0.694075	0.821329
H171	H	-0.254349	0.699786	0.741169
H172	H	-0.254251	0.613725	0.827095
H173	H	0.758971	0.249757	1.106688
H174	H	0.758912	0.906162	0.250453
C175	C	0.531946	0.780383	1.121459
C176	C	0.538113	0.765979	1.229299
C177	C	0.509427	0.833097	1.284340
H178	H	0.501743	0.765066	1.103579
H179	H	0.538512	0.851008	1.103536
H180	H	0.531544	0.695370	1.247215
H181	H	0.568309	0.781304	1.247210
H182	H	0.515993	0.903722	1.266416
H183	H	0.479227	0.817774	1.266451
H184	H	0.513611	0.823340	1.357514
H185	H	0.177373	0.695517	0.695266
H186	H	0.539674	0.762257	0.907326
H187	H	0.591827	0.640426	0.807863
C188	C	0.484635	0.646342	0.646467
C189	C	0.473262	0.623565	0.750459
C190	C	0.496711	0.690695	0.817734
H191	H	0.476956	0.716953	0.631113
H192	H	0.515940	0.636702	0.636926
H193	H	0.441964	0.633214	0.759995
H194	H	0.480943	0.552967	0.765846
H195	H	0.528016	0.681055	0.808194
H196	H	0.489030	0.761301	0.802370
H197	H	0.489001	0.675244	0.888300
C198	C	-0.185577	0.365846	0.366639
C199	C	-0.155000	0.306915	0.307919
C200	C	-0.178382	0.239504	0.240798
H201	H	-0.203896	0.405862	0.320700
H202	H	-0.203856	0.320060	0.406887
H203	H	-0.136729	0.352695	0.267674
H204	H	-0.136680	0.266877	0.353831
H205	H	-0.196662	0.193718	0.281046
H206	H	-0.196701	0.279529	0.194865
H207	H	-0.157640	0.199505	0.200955
H208	H	-0.094176	0.384193	0.384868
H209	H	0.177285	0.316863	0.317739
H210	H	0.393105	0.384122	0.384727
C211	C	0.268678	0.298553	0.299400
C212	C	0.238074	0.239668	0.240654
C213	C	0.261425	0.172347	0.173427
H214	H	0.286998	0.252726	0.339540
H215	H	0.286954	0.338665	0.253489
H216	H	0.219807	0.199559	0.286560
H217	H	0.219753	0.285467	0.200493
H218	H	0.279701	0.212459	0.127516
H219	H	0.279745	0.126528	0.213576
H220	H	0.240664	0.132393	0.133554
H221	H	0.121732	0.695525	0.695283
C222	C	0.484671	0.365891	0.366612
C223	C	0.530783	0.380271	0.380985
C224	C	0.554322	0.313027	0.314042
H225	H	0.477018	0.381107	0.295950
H226	H	0.477017	0.295297	0.382130
H227	H	0.538434	0.450848	0.365460
H228	H	0.538449	0.365047	0.451633
H229	H	0.546668	0.242433	0.329560
H230	H	0.546666	0.328248	0.243384
H231	H	0.585612	0.322767	0.323791
H232	H	0.036614	0.695526	0.695301
H233	H	0.758962	1.105230	0.250510
