data_functionalizedCrystal
_audit_creation_method	'MofGen! by Chris Wilmer'
_symmetry_space_group_name_H-M	'P1'
_symmetry_Int_Tables_number	1
_symmetry_cell_setting	triclinic
loop_
_symmetry_equiv_pos_as_xyz
  x,y,z
_cell_length_a	16.625548
_cell_length_b	12.759400
_cell_length_c	12.759393
_cell_angle_alpha	90.031564
_cell_angle_beta	89.978332
_cell_angle_gamma	89.984247
loop_
_atom_site_label
_atom_site_type_symbol
_atom_site_fract_x
_atom_site_fract_y
_atom_site_fract_z
Zn1	Zn	1.232733	0.418174	-0.594070
Zn2	Zn	1.232652	0.593893	-0.418390
Zn3	Zn	1.097892	0.418232	-0.418400
Zn4	Zn	1.097883	0.593815	-0.594022
O5	O	1.165290	0.506029	-0.506221
O6	O	1.345554	0.441492	-0.570782
O7	O	1.214745	0.570648	-0.271371
O8	O	1.115817	0.271203	-0.441727
O9	O	1.345495	0.570592	-0.441711
O10	O	1.214883	0.271161	-0.570791
O11	O	1.115738	0.441591	-0.271378
O12	O	0.985059	0.441515	-0.441680
O13	O	1.115802	0.570459	-0.741050
O14	O	0.985052	0.570515	-0.570709
O15	O	1.214875	0.441417	-0.741085
O16	O	1.214737	0.740904	-0.441664
O17	O	1.115723	0.740847	-0.570700
C18	C	1.165242	0.778996	-0.506199
C19	C	1.165295	0.895773	-0.506225
C20	C	0.955799	0.506014	-0.506191
C21	C	0.866178	0.506033	-0.506204
C22	C	1.165346	0.505923	-0.780254
C23	C	1.165371	0.505878	-0.897031
C24	C	0.538002	0.506039	-0.506249
C25	C	0.629311	0.506035	-0.506233
C26	C	0.702087	0.506037	-0.506225
C27	C	0.793402	0.506031	-0.506211
C28	C	1.375599	0.506045	-0.506251
C29	C	1.465220	0.506051	-0.506264
C30	C	1.165360	0.231995	-0.506266
C31	C	1.165390	0.115219	-0.506285
C32	C	1.216909	0.950630	-0.439110
C33	C	1.216959	1.060354	-0.439142
C34	C	1.113774	1.060354	-0.573407
C35	C	1.113729	0.950632	-0.573379
C36	C	1.276480	0.950630	-0.361590
C37	C	1.276529	1.060354	-0.361622
C38	C	1.216965	0.438679	-0.951913
C39	C	1.216984	0.438641	-1.061637
C40	C	1.113812	0.573010	-1.061587
C41	C	1.113789	0.573041	-0.951865
C42	C	1.276533	0.361105	-0.951943
C43	C	1.276552	0.361067	-1.061667
C44	C	1.165280	0.506058	-0.233253
C45	C	1.165412	0.505808	-0.116477
H46	H	1.071709	0.905968	-0.628039
C47	C	1.057818	1.120108	-0.646196
C48	C	1.068891	1.227940	-0.631842
C49	C	1.017348	1.283015	-0.698868
H50	H	1.069531	1.102180	-0.716838
H51	H	1.003623	1.102259	-0.630741
H52	H	1.123073	1.245781	-0.647304
H53	H	1.057171	1.245899	-0.561215
H54	H	0.963154	1.265166	-0.683414
H55	H	1.029066	1.265078	-0.769506
H56	H	1.024849	1.356184	-0.689132
C57	C	1.359785	0.910951	-0.390593
C58	C	1.415810	0.947688	-0.317380
C59	C	1.492558	0.911168	-0.344071
H60	H	1.359872	0.836505	-0.390555
H61	H	1.373763	0.935723	-0.458399
H62	H	1.401836	0.922911	-0.249592
H63	H	1.415749	1.022130	-0.317407
H64	H	1.506535	0.935940	-0.411877
H65	H	1.492636	0.836723	-0.344034
H66	H	1.530581	0.936097	-0.294407
H67	H	1.071773	0.627757	-0.907184
C68	C	1.246699	0.905557	-0.258386
C69	C	1.227007	0.987542	-0.190049
C70	C	1.199580	0.946059	-0.094964
H71	H	1.200405	0.863705	-0.270659
H72	H	1.287757	0.863666	-0.227959
H73	H	1.185952	1.029414	-0.220470
H74	H	1.273289	1.029400	-0.177745
H75	H	1.240638	0.904169	-0.064537
H76	H	1.153288	0.904208	-0.107248
H77	H	1.186223	1.001679	-0.048582
H78	H	1.335857	1.094298	-0.390838
H79	H	1.259847	1.090217	-0.280240
H80	H	1.071815	0.627690	-1.106247
C81	C	1.254086	0.252658	-0.912314
C82	C	1.177385	0.226125	-0.948997
C83	C	1.156676	0.126242	-0.912501
H84	H	1.292117	0.202910	-0.937123
H85	H	1.254023	0.252657	-0.837854
H86	H	1.177454	0.226118	-1.023441
H87	H	1.139338	0.275845	-0.924191
H88	H	1.156612	0.126240	-0.838042
H89	H	1.194711	0.076503	-0.937313
H90	H	1.104629	0.108230	-0.937377
C91	C	1.355682	0.399962	-0.906756
C92	C	1.408136	0.425683	-0.988666
C93	C	1.481057	0.461469	-0.947079
H94	H	1.346187	0.460266	-0.864849
H95	H	1.379069	0.346472	-0.864901
H96	H	1.384753	0.479168	-1.030503
H97	H	1.417654	0.365395	-1.030580
H98	H	1.504444	0.407979	-0.905224
H99	H	1.471554	0.521770	-0.905172
H100	H	1.516659	0.478916	-1.002648
H101	H	1.254209	0.283758	-1.095713
H102	H	1.339001	0.382858	-1.091450
