data_functionalizedCrystal
_audit_creation_method	'MofGen! by Chris Wilmer'
_symmetry_space_group_name_H-M	'P1'
_symmetry_Int_Tables_number	1
_symmetry_cell_setting	triclinic
loop_
_symmetry_equiv_pos_as_xyz
  x,y,z
_cell_length_a	23.532407
_cell_length_b	15.944551
_cell_length_c	14.421503
_cell_angle_alpha	90.003340
_cell_angle_beta	89.997762
_cell_angle_gamma	83.173708
loop_
_atom_site_label
_atom_site_type_symbol
_atom_site_fract_x
_atom_site_fract_y
_atom_site_fract_z
O1	O	0.755658	0.101953	-0.076998
O2	O	0.589852	0.116706	-0.077025
O3	O	0.677283	-0.012983	-0.077003
O4	O	0.668227	0.231642	-0.077021
O5	O	0.677268	-0.012964	0.077221
O6	O	0.589837	0.116726	0.077198
O7	O	0.755643	0.101972	0.077225
Cu8	Cu	0.672739	0.109351	0.091294
Cu9	Cu	0.672756	0.109328	-0.091094
O10	O	0.668213	0.231662	0.077203
C11	C	0.676899	-0.044265	0.000109
C12	C	0.675772	-0.137501	0.000110
C13	C	0.568627	0.116340	0.000083
C14	C	0.505406	0.115211	0.000073
C15	C	0.618885	-0.351879	0.000087
C16	C	0.645294	-0.413109	0.076133
C17	C	0.673733	-0.308210	0.000102
C18	C	0.645322	-0.413111	-0.075919
C19	C	0.671760	-0.473106	0.000091
C20	C	0.700158	-0.368212	0.076211
C21	C	0.700178	-0.368208	-0.075910
C22	C	0.726627	-0.429421	0.000155
C23	C	0.674869	-0.213217	0.000109
C24	C	0.670629	-0.568097	0.000090
C25	C	0.106572	0.184874	0.000109
C26	C	0.047168	0.183824	0.000115
O27	O	0.010674	0.248403	0.000144
N28	N	0.024243	0.106724	0.000119
C29	C	0.060726	0.030668	0.000127
O30	O	0.035772	-0.035009	0.000132
C31	C	0.120129	0.031718	0.000128
C32	C	0.143051	0.108823	0.000114
C33	C	0.129494	0.261973	0.000097
C34	C	0.188894	0.263022	0.000089
C35	C	0.225373	0.186971	0.000094
C36	C	0.202451	0.109872	0.000107
C37	C	0.156611	-0.044337	0.000143
C38	C	0.216018	-0.043281	0.000144
C39	C	0.238939	0.033825	0.000131
C40	C	0.298329	0.034871	0.000105
N41	N	0.321254	0.111971	0.000100
C42	C	0.284776	0.188022	0.000095
C43	C	-0.064025	0.028468	0.000127
C44	C	-0.123427	0.027417	0.000119
C45	C	-0.136981	0.180574	0.000109
C46	C	-0.077578	0.181624	0.000110
C47	C	-0.041100	0.105569	0.000123
C48	C	0.409521	0.190219	0.000079
C49	C	0.468927	0.191261	0.000067
C50	C	0.482476	0.038104	0.000083
C51	C	0.423075	0.037062	0.000089
C52	C	0.386599	0.113126	0.000090
O53	O	0.334859	-0.029673	0.000080
O54	O	0.309738	0.253687	0.000103
C55	C	0.776868	0.102338	0.000115
C56	C	0.840090	0.103468	0.000119
C57	C	0.668596	0.262943	0.000089
C58	C	0.669723	0.356179	0.000082
N59	N	0.672731	0.109366	0.219575
N60	N	0.672769	0.109306	-0.219375
C61	C	0.632296	0.169308	0.469218
C62	C	0.683757	0.185182	0.531028
C63	C	0.672745	0.109346	0.408736
C64	C	0.621298	0.093492	0.531020
C65	C	0.672754	0.109328	0.591458
C66	C	0.724232	0.125257	0.469185
C67	C	0.661739	0.033535	0.469172
C68	C	0.713237	0.049376	0.530954
C69	C	0.672739	0.109358	0.303475
C70	C	0.672766	0.109315	0.696717
H71	H	0.573358	-0.318187	0.000156
H72	H	-0.142084	-0.035370	0.000116
H73	H	0.598124	0.220056	0.442111
C74	C	-0.177112	0.264231	0.000111
H75	H	-0.154957	0.310305	0.000100
H76	H	-0.200568	0.267006	0.053892
H77	H	-0.200566	0.266995	-0.053677
H78	H	0.404412	-0.025724	0.000087
H79	H	0.767753	0.138736	0.442138
H80	H	-0.034327	-0.033470	0.000129
H81	H	0.207551	0.325809	0.000078
H82	H	0.137960	-0.107125	0.000154
C83	C	0.562518	0.075376	0.567703
H84	H	0.533823	0.118036	0.546552
H85	H	0.563042	0.074983	0.633566
H86	H	0.554422	0.021935	0.545602
H87	H	0.099799	0.323906	0.000096
C88	C	0.256140	-0.126944	0.000148
H89	H	0.233977	-0.173010	0.000147
H90	H	0.279598	-0.129716	0.053924
H91	H	0.279592	-0.129725	-0.053645
C92	C	0.494140	0.276078	0.000052
H93	H	0.534743	0.265816	0.000040
H94	H	0.481620	0.307379	0.053830
H95	H	0.481617	0.307358	-0.053739
C96	C	0.759499	-0.019137	0.567355
H97	H	0.796009	-0.007739	0.546067
H98	H	0.751988	-0.072849	0.545239
H99	H	0.759046	-0.019075	0.633225
H100	H	0.512187	-0.023814	0.000083
H101	H	0.693074	0.249286	0.558197
C102	C	0.649130	-0.053032	0.432429
H103	H	0.612538	-0.064206	0.453562
H104	H	0.677492	-0.095742	0.454485
H105	H	0.649566	-0.052547	0.366562
H106	H	0.723331	-0.348409	0.140572
H107	H	0.723363	-0.348281	-0.140196
C108	C	0.369405	0.273887	0.000068
H109	H	0.391572	0.319949	0.000049
H110	H	0.345947	0.276682	0.053847
H111	H	0.345954	0.276652	-0.053722
H112	H	0.772194	-0.462964	0.000205
C113	C	0.613949	-0.440005	0.162971
H114	H	0.575675	-0.413181	0.162874
H115	H	0.633060	-0.423876	0.216972
H116	H	0.613763	-0.499552	0.162627
H117	H	0.622122	-0.433001	-0.140214
C118	C	-0.052369	0.266439	0.000103
H119	H	-0.082607	0.311577	0.000105
H120	H	-0.029475	0.270030	-0.053675
H121	H	-0.029483	0.270042	0.053894
