data_functionalizedCrystal
_audit_creation_method	'MofGen! by Chris Wilmer'
_symmetry_space_group_name_H-M	'P1'
_symmetry_Int_Tables_number	1
_symmetry_cell_setting	triclinic
loop_
_symmetry_equiv_pos_as_xyz
  x,y,z
_cell_length_a	10.723023
_cell_length_b	10.489741
_cell_length_c	9.798715
_cell_angle_alpha	90.003103
_cell_angle_beta	89.996380
_cell_angle_gamma	95.496639
loop_
_atom_site_label
_atom_site_type_symbol
_atom_site_fract_x
_atom_site_fract_y
_atom_site_fract_z
O1	O	-1.657297	0.178902	0.113496
O2	O	-1.294155	0.196028	0.113497
O3	O	-1.483989	0.001862	0.113489
O4	O	-1.467463	0.373068	0.113505
O5	O	-1.483976	0.001860	-0.113494
O6	O	-1.294142	0.196026	-0.113485
O7	O	-1.657284	0.178900	-0.113486
Zn8	Zn	-1.475710	0.187463	-0.149524
Zn9	Zn	-1.475728	0.187465	0.149535
O10	O	-1.467449	0.373066	-0.113477
C11	C	-1.247648	0.194781	0.000007
C12	C	-1.109091	0.191053	0.000007
C13	C	-1.047311	0.189390	-0.117576
C14	C	-0.904106	0.185537	-0.117579
C15	C	-1.482734	-0.045670	-0.000002
C16	C	-1.479000	-0.187297	0.000001
C17	C	-1.358214	-0.255360	0.000011
C18	C	-1.415265	-0.347519	-0.111903
C19	C	-1.415307	-0.347493	0.111884
C20	C	-1.536101	-0.277592	-0.112006
C21	C	-1.536126	-0.277555	0.111881
C22	C	-1.593265	-0.369688	-0.000060
C23	C	-0.703791	0.180147	0.000005
C24	C	-0.842347	0.183875	0.000005
C25	C	-1.468704	0.420598	0.000016
C26	C	-1.472439	0.562225	0.000023
N27	N	-1.475708	0.187461	-0.353623
C28	C	-1.555611	0.105759	-0.578559
C29	C	-1.555594	0.105761	-0.421396
N30	N	-1.475741	0.187457	0.353635
H31	H	-1.100439	0.190812	-0.218242
F32	F	-1.228410	-0.190380	-0.000129
H33	H	-1.055965	0.189620	0.100672
F34	F	-1.602879	-0.237017	0.235557
H35	H	-1.407319	0.257405	-0.411925
H36	H	-1.364153	-0.378499	-0.206518
H37	H	-0.895467	0.185313	0.100677
F38	F	-1.386349	0.278890	-0.570169
H39	H	-0.850976	0.184114	-0.218246
H40	H	-1.624010	0.035817	-0.636856
H41	H	-1.587158	-0.246793	-0.206727
F42	F	-1.723185	-0.434375	-0.000138
H43	H	-1.364190	-0.378423	0.206507
H44	H	-1.623970	0.035811	-0.363086
