data_functionalizedCrystal
_audit_creation_method	'MofGen! by Chris Wilmer'
_symmetry_space_group_name_H-M	'P1'
_symmetry_Int_Tables_number	1
_symmetry_cell_setting	triclinic
loop_
_symmetry_equiv_pos_as_xyz
  x,y,z
_cell_length_a	10.654549
_cell_length_b	15.455313
_cell_length_c	10.654550
_cell_angle_alpha	92.691149
_cell_angle_beta	95.515146
_cell_angle_gamma	92.706116
loop_
_atom_site_label
_atom_site_type_symbol
_atom_site_fract_x
_atom_site_fract_y
_atom_site_fract_z
O1	O	1.673297	0.072111	-0.170953
O2	O	1.307819	0.072117	-0.187759
O3	O	1.498961	0.072108	0.003383
O4	O	1.482155	0.072119	-0.362095
O5	O	1.488030	-0.072154	-0.007502
O6	O	1.296888	-0.072145	-0.198644
O7	O	1.662366	-0.072151	-0.181838
Cu8	Cu	1.478629	-0.085320	-0.191235
Cu9	Cu	1.491556	0.085286	-0.178362
O10	O	1.471225	-0.072142	-0.372980
C11	C	1.255556	-0.000013	-0.191967
C12	C	1.116112	-0.000011	-0.188275
C13	C	0.905598	-0.000011	-0.297339
C14	C	1.036619	-0.000006	-0.300817
C15	C	1.064580	-0.000013	-0.072248
C16	C	0.933562	-0.000012	-0.068771
N17	N	1.469546	-0.205315	-0.200288
C18	C	1.550779	-0.250713	-0.119114
C19	C	1.543921	-0.341521	-0.125973
C20	C	1.455837	-0.386929	-0.214011
C21	C	1.374596	-0.341525	-0.295188
C22	C	1.381448	-0.250719	-0.288323
C23	C	1.426260	-0.658509	-0.243611
C24	C	1.419416	-0.749321	-0.250472
C25	C	1.588741	-0.749311	-0.081254
C26	C	1.595591	-0.658503	-0.074402
C27	C	1.514345	-0.613107	-0.155574
N28	N	1.448828	-0.479749	-0.221027
N29	N	1.521349	-0.520289	-0.148552
C30	C	1.714630	-0.000019	-0.177629
C31	C	1.854073	-0.000016	-0.181321
C32	C	1.492261	-0.000022	0.044739
C33	C	1.488569	-0.000021	0.184182
N34	N	1.500649	0.205281	-0.169299
C35	C	1.477924	-0.000010	-0.414335
C36	C	1.481616	-0.000006	-0.553778
C37	C	1.601111	-0.000022	0.263667
C38	C	1.597635	-0.000012	0.394689
C39	C	1.369066	-0.000002	0.366726
C40	C	1.372544	-0.000006	0.235708
H41	H	1.622512	-0.213748	-0.047429
C42	C	1.058709	0.074156	-0.491114
C43	C	1.093244	-0.000002	-0.428354
H44	H	1.093658	0.074156	-0.569857
H45	H	1.089743	0.124453	-0.440936
H46	H	0.969300	0.074144	-0.505129
H47	H	1.182652	0.000013	-0.414330
H48	H	1.062215	-0.050312	-0.478543
C49	C	0.796806	-0.074169	0.062143
C50	C	0.876911	-0.000015	0.058764
H51	H	0.761827	-0.074163	0.140871
H52	H	0.843526	-0.124469	0.052255
H53	H	0.730725	-0.074158	-0.004397
H54	H	0.942998	-0.000030	0.125299
H55	H	0.830189	0.050298	0.068665
H56	H	1.280893	-0.000002	0.170987
H57	H	1.695586	-0.000033	0.221720
C58	C	1.233773	0.074136	0.062032
C59	C	1.151962	-0.000018	0.051459
H60	H	1.287722	0.074126	0.138401
H61	H	1.185893	0.124436	0.062443
H62	H	1.283203	0.074129	-0.007572
H63	H	1.102525	-0.000007	0.121058
H64	H	1.199847	-0.050331	0.051058
C65	C	1.797012	0.074134	0.464427
C66	C	1.721347	-0.000017	0.482056
H67	H	1.873393	0.074128	0.518359
H68	H	1.753304	0.124436	0.483950
H69	H	1.815671	0.074118	0.379016
H70	H	1.702680	0.000003	0.567465
H71	H	1.765064	-0.050332	0.462541
H72	H	1.347684	-0.786288	-0.322169
H73	H	0.840881	-0.000014	-0.388984
C74	C	1.712011	-0.332390	0.041944
C75	C	1.633235	-0.391422	-0.036764
H76	H	1.767159	-0.363198	0.097011
H77	H	1.662026	-0.296991	0.090298
H78	H	1.760289	-0.296954	-0.008102
H79	H	1.584949	-0.426853	0.013283
H80	H	1.683225	-0.426836	-0.085122
H81	H	1.274602	0.000009	0.408695
C82	C	1.669190	-0.631065	0.144524
C83	C	1.692383	-0.608826	0.022659
H84	H	1.728937	-0.600461	0.204525
H85	H	1.676524	-0.691680	0.151736
H86	H	1.586382	-0.616122	0.159965
H87	H	1.775188	-0.623775	0.007214
H88	H	1.685060	-0.548198	0.015443
C89	C	1.803403	-0.777245	-0.011619
C90	C	1.678030	-0.799210	0.007982
H91	H	1.858522	-0.808054	0.043475
H92	H	1.820077	-0.716673	0.005066
H93	H	1.816638	-0.792125	-0.096691
H94	H	1.664792	-0.784324	0.093052
H95	H	1.661349	-0.859796	-0.008693
C96	C	1.263282	-0.556418	-0.261583
C97	C	1.336976	-0.608612	-0.332849
H98	H	1.208160	-0.525615	-0.316683
H99	H	1.316717	-0.516385	-0.208174
H100	H	1.214975	-0.591862	-0.211574
H101	H	1.385291	-0.573167	-0.382851
H102	H	1.283535	-0.648650	-0.386279
H103	H	1.302869	-0.378501	-0.366867
C104	C	1.213403	-0.259844	-0.456287
C105	C	1.292161	-0.200814	-0.377557
H106	H	1.158283	-0.229034	-0.511380
H107	H	1.165105	-0.295272	-0.406267
H108	H	1.263412	-0.295250	-0.504625
H109	H	1.242152	-0.165412	-0.329213
H110	H	1.340463	-0.165371	-0.427583
