data_functionalizedCrystal
_audit_creation_method	'MofGen! by Chris Wilmer'
_symmetry_space_group_name_H-M	'P1'
_symmetry_Int_Tables_number	1
_symmetry_cell_setting	triclinic
loop_
_symmetry_equiv_pos_as_xyz
  x,y,z
_cell_length_a	19.288840
_cell_length_b	10.654546
_cell_length_c	18.366186
_cell_angle_alpha	90.001264
_cell_angle_beta	89.983729
_cell_angle_gamma	96.195229
loop_
_atom_site_label
_atom_site_type_symbol
_atom_site_fract_x
_atom_site_fract_y
_atom_site_fract_z
O1	O	0.922388	-0.156507	-0.060664
O2	O	1.422388	0.343493	0.439336
O3	O	0.720263	-0.177672	-0.060637
O4	O	1.220263	0.322328	0.439363
O5	O	0.825974	0.015750	-0.060655
O6	O	1.325974	0.515750	0.439345
O7	O	0.816677	-0.349929	-0.060646
O8	O	1.316677	0.150071	0.439354
O9	O	0.825956	0.015760	0.060444
O10	O	1.325956	0.515760	0.560444
O11	O	0.720245	-0.177663	0.060462
O12	O	1.220245	0.322337	0.560462
O13	O	0.922369	-0.156497	0.060436
O14	O	1.422369	0.343503	0.560436
Zn15	Zn	0.821304	-0.167079	0.079676
Zn16	Zn	1.321304	0.332921	0.579676
Zn17	Zn	0.821328	-0.167091	-0.079878
Zn18	Zn	1.321328	0.332909	0.420122
O19	O	0.816659	-0.349920	0.060454
O20	O	1.316659	0.150080	0.560454
C21	C	0.694373	-0.176992	-0.000084
C22	C	1.194373	0.323008	0.499916
C23	C	0.617255	-0.174963	-0.000075
C24	C	1.117255	0.325037	0.499925
C25	C	0.581055	-0.173994	-0.066088
C26	C	1.081055	0.326006	0.433912
C27	C	0.508595	-0.172074	-0.066097
C28	C	1.008595	0.327926	0.433903
C29	C	0.472340	-0.171098	-0.000089
C30	C	0.972340	0.328902	0.499911
C31	C	0.508549	-0.172075	0.065933
C32	C	1.008549	0.327925	0.565933
C33	C	0.581006	-0.174007	0.065940
C34	C	1.081006	0.325993	0.565940
C35	C	0.362504	-0.094477	0.050470
C36	C	0.862504	0.405523	0.550470
C37	C	0.290049	-0.092536	0.050460
C38	C	0.790049	0.407464	0.550460
C39	C	0.248858	-0.165142	-0.000108
C40	C	0.748858	0.334858	0.499892
C41	C	0.280132	-0.239673	-0.050679
C42	C	0.780132	0.260327	0.449321
C43	C	0.352590	-0.241605	-0.050672
C44	C	0.852590	0.258395	0.449328
C45	C	0.393773	-0.169003	-0.000089
C46	C	0.893773	0.330997	0.499911
C47	C	0.134089	-0.162093	-0.066136
C48	C	0.634089	0.337907	0.433864
C49	C	0.061628	-0.160180	-0.066142
C50	C	0.561628	0.339820	0.433858
C51	C	0.061583	-0.160168	0.065890
C52	C	0.561583	0.339832	0.565890
C53	C	0.134042	-0.162093	0.065894
C54	C	0.634042	0.337907	0.565894
C55	C	0.170291	-0.163049	-0.000121
C56	C	0.670291	0.336951	0.499879
C57	C	0.825282	0.062538	-0.000108
C58	C	1.325282	0.562538	0.499892
C59	C	0.823242	0.201938	-0.000116
C60	C	1.323242	0.701938	0.499884
C61	C	0.885482	0.282766	-0.000125
C62	C	1.385482	0.782766	0.499875
C63	C	0.883560	0.413745	-0.000134
C64	C	1.383560	0.913745	0.499866
C65	C	0.757152	0.383056	-0.000124
C66	C	1.257152	0.883056	0.499876
C67	C	0.759075	0.252079	-0.000119
C68	C	1.259075	0.752079	0.499881
C69	C	0.949649	0.232625	-0.000121
C70	C	1.449649	0.732625	0.499879
C71	C	1.011895	0.313455	-0.000129
C72	C	1.511895	0.813455	0.499871
C73	C	1.009973	0.444434	-0.000139
C74	C	1.509973	0.944434	0.499861
C75	C	0.945806	0.494584	-0.000141
C76	C	1.445806	0.994584	0.499859
C77	C	0.948260	-0.157178	-0.000119
C78	C	1.448260	0.342822	0.499881
C79	C	1.025377	-0.159207	-0.000133
C80	C	1.525377	0.340793	0.499867
N81	N	0.821293	-0.167069	0.188567
N82	N	1.321293	0.332931	0.688567
C83	C	0.817351	0.603292	-0.000105
C84	C	1.317351	1.103292	0.499895
C85	C	0.819397	0.463894	-0.000130
C86	C	1.319397	0.963894	0.499870
N87	N	0.821345	-0.167090	-0.188769
N88	N	1.321345	0.332910	0.311231
C89	C	0.868117	-0.081464	0.226660
C90	C	1.368117	0.418536	0.726660
C91	C	0.868122	-0.081458	0.302887
C92	C	1.368122	0.418542	0.802887
C93	C	0.821308	-0.167080	0.341020
C94	C	1.321308	0.332920	0.841020
C95	C	0.774475	-0.252692	0.302918
C96	C	1.274475	0.247308	0.802918
C97	C	0.774467	-0.252687	0.226692
C98	C	1.274467	0.247313	0.726692
C99	C	0.812759	-0.281503	0.461784
C100	C	1.312759	0.218497	0.961784
C101	C	0.812771	-0.281509	0.538009
C102	C	1.312771	0.218491	1.038009
C103	C	0.821328	-0.167095	0.576127
C104	C	1.321328	0.332905	1.076127
C105	C	0.829887	-0.052670	0.538012
C106	C	1.329887	0.447330	1.038012
C107	C	0.829880	-0.052664	0.461785
C108	C	1.329880	0.447336	0.961785
C109	C	0.821311	-0.167094	0.423675
C110	C	1.321311	0.332906	0.923675
C111	C	0.868160	-0.081477	0.696875
C112	C	1.368160	0.418523	1.196875
C113	C	0.868159	-0.081469	0.773104
C114	C	1.368159	0.418531	1.273104
C115	C	0.774516	-0.252714	0.773133
C116	C	1.274516	0.247286	1.273133
C117	C	0.774513	-0.252710	0.696906
C118	C	1.274513	0.247290	1.196906
C119	C	0.821339	-0.167093	0.658781
C120	C	1.321339	0.332907	1.158781
H121	H	0.163517	-0.162874	0.119649
H122	H	0.663517	0.337126	0.619649
H123	H	0.805778	-0.374678	0.430754
H124	H	1.305778	0.125322	0.930754
H125	H	0.396036	-0.035349	0.091653
H126	H	0.896036	0.464651	0.591653
H127	H	0.944246	0.601238	-0.000157
H128	H	1.444246	1.101238	0.499843
H129	H	0.704910	0.423899	-0.000124
H130	H	1.204910	0.923899	0.499876
H131	H	0.610564	-0.174773	-0.119842
H132	H	1.110564	0.325227	0.380158
H133	H	0.736387	-0.322424	0.665889
H134	H	1.236387	0.177576	1.165889
H135	H	0.479115	-0.171286	-0.119854
H136	H	0.979115	0.328714	0.380146
H137	H	0.246596	-0.298801	-0.091854
H138	H	0.746596	0.201199	0.408146
H139	H	1.064138	0.272613	-0.000146
H140	H	1.564138	0.772613	0.499854
H141	H	0.378050	-0.302293	-0.091847
H142	H	0.878050	0.197707	0.408153
H143	H	0.163603	-0.162884	-0.119889
H144	H	0.663603	0.337116	0.380111
H145	H	1.060657	0.510243	-0.000153
H146	H	1.560657	1.010243	0.499847
H147	H	0.805806	-0.374682	0.569037
H148	H	1.305806	0.125318	1.069037
H149	H	0.032154	-0.159399	-0.119900
H150	H	0.532154	0.340601	0.380100
H151	H	0.032064	-0.159381	0.119635
H152	H	0.532064	0.340619	0.619635
H153	H	0.479025	-0.171283	0.119677
H154	H	0.979025	0.328717	0.619677
H155	H	0.906286	-0.011758	0.665832
H156	H	1.406286	0.488242	1.165832
H157	H	0.836855	0.040497	0.569046
H158	H	1.336855	0.540497	1.069046
H159	H	0.708393	0.186266	-0.000111
H160	H	1.208393	0.686266	0.499889
H161	H	0.906287	-0.011752	0.804119
H162	H	1.406287	0.488248	1.304119
H163	H	0.906244	-0.011746	0.195621
H164	H	1.406244	0.488254	0.695621
H165	H	0.736358	-0.322404	0.333970
H166	H	1.236358	0.177596	0.833970
H167	H	0.264591	-0.031843	0.091635
H168	H	0.764591	0.468157	0.591635
H169	H	0.610479	-0.174798	0.119697
H170	H	1.110479	0.325202	0.619697
H171	H	0.951221	0.125977	-0.000111
H172	H	1.451221	0.625977	0.499889
H173	H	0.736397	-0.322424	0.804180
H174	H	1.236397	0.177576	1.304180
H175	H	0.906253	-0.011745	0.333908
H176	H	1.406253	0.488255	0.833908
H177	H	0.836847	0.040505	0.430754
H178	H	1.336847	0.540505	0.930754
H179	H	0.736336	-0.322398	0.195676
H180	H	1.236336	0.177602	0.695676
