data_functionalizedCrystal
_audit_creation_method	'MofGen! by Chris Wilmer'
_symmetry_space_group_name_H-M	'P1'
_symmetry_Int_Tables_number	1
_symmetry_cell_setting	triclinic
loop_
_symmetry_equiv_pos_as_xyz
  x,y,z
_cell_length_a	12.759401
_cell_length_b	18.101395
_cell_length_c	12.759393
_cell_angle_alpha	90.031271
_cell_angle_beta	90.019814
_cell_angle_gamma	90.032629
loop_
_atom_site_label
_atom_site_type_symbol
_atom_site_fract_x
_atom_site_fract_y
_atom_site_fract_z
Zn1	Zn	1.606135	-0.294772	0.594006
Zn2	Zn	1.605979	-0.418629	0.418321
Zn3	Zn	1.430437	-0.294809	0.418342
Zn4	Zn	1.430375	-0.418579	0.593958
O5	O	1.518232	-0.356697	0.506157
O6	O	1.753135	-0.311207	0.570713
O7	O	1.582654	-0.402240	0.271302
O8	O	1.453835	-0.191171	0.441673
O9	O	1.753021	-0.402204	0.441637
O10	O	1.582919	-0.191144	0.570733
O11	O	1.453684	-0.311270	0.271318
O12	O	1.283408	-0.311222	0.441626
O13	O	1.453730	-0.402120	0.740986
O14	O	1.283362	-0.402156	0.570651
O15	O	1.582859	-0.311159	0.741021
O16	O	1.582594	-0.522255	0.441590
O17	O	1.453578	-0.522219	0.570630
C18	C	1.245264	-0.356688	0.506136
C19	C	1.128488	-0.356702	0.506152
C20	C	1.518091	-0.549108	0.506126
C21	C	1.518127	-0.631422	0.506148
C22	C	1.073630	-0.404123	0.573229
C23	C	0.963905	-0.404126	0.573250
C24	C	0.963907	-0.309284	0.439107
C25	C	1.073629	-0.309278	0.439092
C26	C	0.813996	-0.430701	0.697109
C27	C	0.759134	-0.478134	0.764177
C28	C	0.794702	-0.550406	0.780122
C29	C	0.885131	-0.575261	0.728983
C30	C	0.939987	-0.527832	0.661907
C31	C	0.904420	-0.455549	0.645982
C32	C	1.223541	-0.282711	0.315232
C33	C	1.278399	-0.235286	0.248150
C34	C	1.242833	-0.163012	0.232194
C35	C	1.152401	-0.138160	0.283315
C36	C	1.097543	-0.185585	0.350397
C37	C	1.133117	-0.257858	0.366354
C38	C	1.518358	-0.930513	0.506204
C39	C	1.437373	-0.899195	0.587594
C40	C	1.436988	-0.813578	0.587340
C41	C	1.518243	-0.782130	0.506177
C42	C	1.488263	-0.813287	0.395451
C43	C	1.487741	-0.898933	0.395938
C44	C	1.629500	-0.898853	0.534565
C45	C	1.628847	-0.813202	0.536994
C46	C	1.518180	-0.698271	0.506155
C47	C	1.518418	-1.014372	0.506219
C48	C	1.792265	-0.356707	0.506178
C49	C	1.909042	-0.356711	0.506187
C50	C	1.518305	-0.356630	0.780190
C51	C	1.518336	-0.356601	0.896967
C52	C	1.518401	-0.163535	0.506211
C53	C	1.518474	-0.081221	0.506234
C54	C	1.518219	-0.356711	0.233189
C55	C	1.518392	-0.356531	0.116413
C56	C	1.585494	-0.403948	0.951825
C57	C	1.585525	-0.403911	1.061549
C58	C	1.451230	-0.309179	1.061548
C59	C	1.451206	-0.309212	0.951826
C60	C	1.709440	-0.430332	1.211510
C61	C	1.776589	-0.477690	1.266372
C62	C	1.792646	-0.549963	1.230751
C63	C	1.741539	-0.574891	1.140271
C64	C	1.674382	-0.527537	1.085415
C65	C	1.658345	-0.455254	1.121034
C66	C	1.327289	-0.282799	0.801862
C67	C	1.260126	-0.235448	0.747005
C68	C	1.244059	-0.163174	0.782623
C69	C	1.295148	-0.138248	0.873107
C70	C	1.362310	-0.185600	0.927965
C71	C	1.378380	-0.257873	0.892339
H72	H	1.013611	-0.548068	0.620270
H73	H	1.282064	-0.079397	0.902109
H74	H	0.685508	-0.457890	0.805816
H75	H	0.919228	-0.270675	0.384508
C76	C	1.325702	-0.785980	0.561950
C77	C	1.266567	-0.737225	0.641216
C78	C	1.155277	-0.709627	0.615820
C79	C	1.103124	-0.730783	0.511157
C80	C	1.162259	-0.779540	0.431884
C81	C	1.273549	-0.807138	0.457280
H82	H	1.305174	-0.721562	0.718700
H83	H	1.111501	-0.673533	0.674503
H84	H	1.020741	-0.710352	0.492357
H85	H	1.123652	-0.795203	0.354400
H86	H	1.317325	-0.843231	0.398596
C87	C	1.565433	-0.785771	0.311287
C88	C	1.577915	-0.702364	0.291090
C89	C	1.655086	-0.674846	0.206928
C90	C	1.719775	-0.730735	0.142963
C91	C	1.707295	-0.814147	0.163158
C92	C	1.630124	-0.841665	0.247320
H93	H	1.530026	-0.660987	0.338443
H94	H	1.664324	-0.613099	0.191979
H95	H	1.776902	-0.710365	0.080661
H96	H	1.755184	-0.855524	0.115805
H97	H	1.620886	-0.903413	0.262269
C98	C	1.377985	-0.926019	0.363491
C99	C	1.333043	-0.904988	0.255535
C100	C	1.223283	-0.932070	0.223090
C101	C	1.158465	-0.980182	0.298601
C102	C	1.203406	-1.001215	0.406563
C103	C	1.313166	-0.974134	0.439008
H104	H	1.381026	-0.869370	0.199631
H105	H	1.190015	-0.916499	0.143168
H106	H	1.077214	-1.000229	0.274583
H107	H	1.155423	-1.036833	0.462467
H108	H	1.346433	-0.989704	0.518930
C109	C	1.714704	-0.784312	0.462754
C110	C	1.780331	-0.839057	0.397760
C111	C	1.866198	-0.810183	0.323513
C112	C	1.886438	-0.726565	0.314260
C113	C	1.820809	-0.671816	0.379256
C114	C	1.734942	-0.700689	0.453503
H115	H	1.765350	-0.900960	0.404608
H116	H	1.914780	-0.850712	0.275399
H117	H	1.950001	-0.705191	0.259298
H118	H	1.835790	-0.609912	0.372409
H119	H	1.686360	-0.660160	0.501618
H120	H	1.818202	-0.457386	1.340040
C121	C	1.170176	-0.111086	0.722280
C122	C	1.113965	-0.138498	0.622758
C123	C	1.040087	-0.086409	0.562420
C124	C	1.022421	-0.006908	0.601604
C125	C	1.078633	0.020508	0.701131
C126	C	1.152511	-0.031581	0.761470
H127	H	1.127041	-0.197353	0.593747
H128	H	0.998475	-0.106705	0.488743
H129	H	0.967733	0.031651	0.556938
H130	H	1.065557	0.079363	0.730142
H131	H	1.194123	-0.011286	0.835147
H132	H	1.651455	-0.792834	0.618482
C133	C	1.691790	-0.350825	1.250687
C134	C	1.747996	-0.323413	1.350212
C135	C	1.730345	-0.243906	1.389395
C136	C	1.656489	-0.191811	1.329053
C137	C	1.600278	-0.219222	1.229522
C138	C	1.617928	-0.298729	1.190339
H139	H	1.802673	-0.361978	1.394887
H140	H	1.771956	-0.223615	1.463075
H141	H	1.643422	-0.132955	1.358058
H142	H	1.545600	-0.180657	1.184847
H143	H	1.576317	-0.319020	1.116659
H144	H	1.396574	-0.270598	1.106227
H145	H	1.218518	-0.255752	0.673334
H146	H	1.287504	-0.124401	0.177561
C147	C	1.563943	-0.926935	0.311209
C148	C	1.546253	-0.906164	0.195528
C149	C	1.622442	-0.934165	0.110792
C150	C	1.716322	-0.982937	0.141735
C151	C	1.734016	-1.003711	0.257421
C152	C	1.657827	-0.975710	0.342158
H153	H	1.476754	-0.870058	0.172617
H154	H	1.609343	-0.918787	0.025153
H155	H	1.772721	-1.003666	0.079008
H156	H	1.803515	-1.039817	0.280332
H157	H	1.670926	-0.991088	0.427796
H158	H	1.340373	-0.341650	0.772849
C159	C	1.666429	-0.927951	0.641784
C160	C	1.596127	-0.980843	0.704958
C161	C	1.633042	-1.009942	0.812180
C162	C	1.740259	-0.986150	0.856228
C163	C	1.810568	-0.933255	0.793053
C164	C	1.773653	-0.904156	0.685831
H165	H	1.516752	-0.998458	0.672352
H166	H	1.580994	-1.049098	0.858947
H167	H	1.767586	-1.007691	0.935600
H168	H	1.889943	-0.915640	0.825659
H169	H	1.825701	-0.865000	0.639064
H170	H	1.407879	-0.791905	0.370996
C171	C	0.734359	-0.602582	0.853901
C172	C	0.634896	-0.575249	0.910146
C173	C	0.574551	-0.627419	0.983929
C174	C	0.613669	-0.706923	1.001467
C175	C	0.713138	-0.734260	0.945221
C176	C	0.773483	-0.682090	0.871437
H177	H	0.605933	-0.516392	0.897165
H178	H	0.500917	-0.607182	1.025567
H179	H	0.568998	-0.745543	1.056086
H180	H	0.742101	-0.793117	0.958202
H181	H	0.847117	-0.702327	0.829800
H182	H	1.355492	-0.920784	0.569045
C183	C	0.924248	-0.654767	0.746515
C184	C	0.853416	-0.720726	0.718148
C185	C	0.892537	-0.800234	0.735683
C186	C	1.002490	-0.813782	0.781587
C187	C	1.073328	-0.747822	0.809958
C188	C	1.034207	-0.668314	0.792422
H189	H	0.772017	-0.710699	0.684164
H190	H	0.840098	-0.849062	0.714681
H191	H	1.031450	-0.872638	0.794568
H192	H	1.154728	-0.757849	0.843941
H193	H	1.086647	-0.619486	0.813424
C194	C	1.759195	-0.654397	1.101092
C195	C	1.665899	-0.708019	1.091918
C196	C	1.683558	-0.787525	1.052734
C197	C	1.794515	-0.813408	1.022723
C198	C	1.887819	-0.759784	1.031896
C199	C	1.870159	-0.680279	1.071080
H200	H	1.583755	-0.688860	1.114135
H201	H	1.614488	-0.827221	1.045944
H202	H	1.807588	-0.872263	0.993716
H203	H	1.969963	-0.778944	1.009679
H204	H	1.939230	-0.640583	1.077870
C205	C	1.133975	-0.456281	0.647001
C206	C	1.209342	-0.514383	0.601325
C207	C	1.269685	-0.566540	0.675102
C208	C	1.254661	-0.560596	0.794555
C209	C	1.179291	-0.502492	0.840237
C210	C	1.118948	-0.450334	0.766460
H211	H	1.220467	-0.518786	0.512894
H212	H	1.325479	-0.609553	0.641284
H213	H	1.299330	-0.599206	0.849169
H214	H	1.168166	-0.498089	0.928668
H215	H	1.063154	-0.407322	0.800277
H216	H	1.352033	-0.255527	0.206524
C217	C	1.462319	-0.785109	0.698254
C218	C	1.466921	-0.701449	0.719749
C219	C	1.492246	-0.672985	0.830670
C220	C	1.512969	-0.728180	0.920095
C221	C	1.508367	-0.811845	0.898602
C222	C	1.483042	-0.840310	0.787682
H223	H	1.451580	-0.660585	0.653549
H224	H	1.495653	-0.611050	0.846580
H225	H	1.531716	-0.707110	1.002205
H226	H	1.523707	-0.852709	0.964802
H227	H	1.479635	-0.902244	0.771772
H228	H	0.785035	-0.371848	0.684144
H229	H	1.689837	-0.919104	0.475286
H230	H	1.023914	-0.165343	0.392029
H231	H	1.403923	-0.165295	1.001632
H232	H	1.252514	-0.341561	0.328226
C233	C	1.462457	-0.926951	0.698870
C234	C	1.380976	-0.972840	0.759591
C235	C	1.406065	-1.000602	0.870869
C236	C	1.512634	-0.982476	0.921425
C237	C	1.594122	-0.936585	0.860704
C238	C	1.569033	-0.908822	0.749426
H239	H	1.302080	-0.986260	0.722166
H240	H	1.345741	-1.034574	0.915818
H241	H	1.531206	-1.003028	1.003799
H242	H	1.673018	-0.923164	0.898128
H243	H	1.629357	-0.874850	0.704476
H244	H	1.640166	-0.442528	0.907162
H245	H	1.123430	-0.079313	0.270307
H246	H	1.847314	-0.588524	1.275432
H247	H	1.632768	-0.547834	1.011750
