data_functionalizedCrystal
_audit_creation_method	'MofGen! by Chris Wilmer'
_symmetry_space_group_name_H-M	'P1'
_symmetry_Int_Tables_number	1
_symmetry_cell_setting	triclinic
loop_
_symmetry_equiv_pos_as_xyz
  x,y,z
_cell_length_a	10.654550
_cell_length_b	10.654551
_cell_length_c	17.766277
_cell_angle_alpha	89.991230
_cell_angle_beta	90.006571
_cell_angle_gamma	95.514913
loop_
_atom_site_label
_atom_site_type_symbol
_atom_site_fract_x
_atom_site_fract_y
_atom_site_fract_z
O1	O	-0.176406	1.667849	-0.062585
O2	O	-0.193211	1.302371	-0.062589
O3	O	-0.002069	1.493513	-0.062581
O4	O	-0.367548	1.476707	-0.062593
O5	O	-0.002059	1.493479	0.062607
O6	O	-0.193201	1.302337	0.062600
O7	O	-0.176396	1.667815	0.062603
Cu8	Cu	-0.184797	1.485073	0.074032
Cu9	Cu	-0.184809	1.485113	-0.074018
O10	O	-0.367538	1.476673	0.062596
C11	C	-0.191972	1.255556	0.000005
C12	C	-0.188279	1.116113	0.000004
C13	C	-0.183056	0.919562	0.068245
C14	C	-0.186537	1.050583	0.068245
C15	C	-0.186554	1.050614	-0.068242
C16	C	-0.183083	0.919595	-0.068242
C17	C	-0.181301	0.854041	0.136491
C18	C	-0.183028	0.919530	0.204737
C19	C	-0.186508	1.050550	0.204737
C20	C	-0.188262	1.116081	0.136491
C21	C	-0.414341	1.477924	0.000000
C22	C	-0.553784	1.481616	-0.000004
C23	C	-0.633269	1.369074	0.000002
C24	C	-0.764290	1.372551	0.000007
C25	C	-0.736327	1.601120	0.000004
C26	C	-0.605309	1.597642	-0.000007
C27	C	-0.581744	1.253048	0.000005
C28	C	-0.661231	1.140497	0.000012
C29	C	-0.792252	1.143974	0.000017
C30	C	-0.843786	1.260001	0.000016
C31	C	0.044734	1.492262	0.000013
C32	C	0.184177	1.488570	0.000012
C33	C	-0.177635	1.714630	0.000008
C34	C	-0.181327	1.854073	0.000004
N35	N	-0.184788	1.485054	0.178163
N36	N	-0.184809	1.485142	-0.178148
C37	C	-0.100193	1.569720	0.217553
C38	C	-0.100187	1.569727	0.296355
C39	C	-0.184799	1.485080	0.335763
C40	C	-0.269400	1.400399	0.296363
C41	C	-0.269395	1.400385	0.217563
C42	C	-0.299037	1.469621	0.460598
C43	C	-0.299043	1.469643	0.539396
C44	C	-0.184814	1.485114	0.578809
C45	C	-0.070573	1.500590	0.539414
C46	C	-0.070568	1.500576	0.460614
C47	C	-0.184813	1.485085	0.421209
C48	C	-0.100205	1.569792	0.703646
C49	C	-0.100198	1.569791	0.782449
C50	C	-0.269422	1.400469	0.782456
C51	C	-0.269419	1.400464	0.703654
C52	C	-0.184812	1.485133	0.664254
H53	H	-0.187927	1.103867	0.260307
H54	H	-0.181610	0.866165	0.260300
N55	N	-0.188432	1.121282	-0.141849
H56	H	-0.267586	1.166143	-0.144895
H57	H	-0.112100	1.185077	-0.144843
H58	H	-0.031303	1.638732	0.814521
N59	N	-0.008949	1.661047	0.338858
H60	H	0.080330	1.645823	0.325160
H61	H	-0.024359	1.750262	0.325115
H62	H	-0.181679	0.866272	-0.123809
H63	H	-0.338309	1.331543	0.814542
H64	H	-0.619262	1.046032	0.000007
H65	H	-0.031298	1.638659	0.185475
N66	N	-0.440431	1.249299	0.000008
H67	H	-0.419848	1.158723	0.000012
H68	H	-0.403482	1.293397	-0.046403
N69	N	-0.877986	1.022589	0.000015
H70	H	-0.825459	0.948564	0.000015
H71	H	-0.932941	1.019044	0.046427
H72	H	0.022451	1.513174	0.428541
N73	N	-0.360681	1.309152	0.661172
H74	H	-0.416734	1.357618	0.628465
H75	H	-0.312082	1.253143	0.628535
H76	H	-0.191110	1.222765	0.136497
N77	N	-0.985101	1.263755	0.000011
H78	H	-1.027638	1.174854	0.000011
H79	H	-1.011054	1.309506	0.046421
H80	H	-0.778298	1.695584	-0.000008
H81	H	-0.540590	1.689284	-0.000016
H82	H	-0.392062	1.457001	0.428514
N83	N	0.052643	1.517285	0.581911
H84	H	0.035311	1.514939	0.637808
H85	H	0.105598	1.447010	0.568149
H86	H	-0.031309	1.638731	0.671564
H87	H	-0.392065	1.457050	0.571466
H88	H	-0.338290	1.331476	0.328454
H89	H	-0.338284	1.331439	0.185491
H90	H	-0.178464	0.747358	0.136498
