data_functionalizedCrystal
_audit_creation_method	'MofGen! by Chris Wilmer'
_symmetry_space_group_name_H-M	'P1'
_symmetry_Int_Tables_number	1
_symmetry_cell_setting	triclinic
loop_
_symmetry_equiv_pos_as_xyz
  x,y,z
_cell_length_a	19.077105
_cell_length_b	12.827892
_cell_length_c	19.076919
_cell_angle_alpha	92.275535
_cell_angle_beta	90.076224
_cell_angle_gamma	87.711903
loop_
_atom_site_label
_atom_site_type_symbol
_atom_site_fract_x
_atom_site_fract_y
_atom_site_fract_z
Zn1	Zn	1.058323	-0.505562	-0.440440
Zn2	Zn	1.558323	-0.005562	0.059560
Zn3	Zn	1.062981	-0.673587	-0.322941
Zn4	Zn	1.562981	-0.173587	0.177059
Zn5	Zn	0.945540	-0.491563	-0.318233
Zn6	Zn	1.445540	0.008437	0.181767
Zn7	Zn	0.940802	-0.672957	-0.435693
Zn8	Zn	1.440802	-0.172957	0.064307
O9	O	1.001912	-0.585917	-0.379327
O10	O	1.501912	-0.085917	0.120673
O11	O	1.157274	-0.533973	-0.428810
O12	O	1.657274	-0.033973	0.071190
O13	O	1.051334	-0.643846	-0.223985
O14	O	1.551334	-0.143846	0.276015
O15	O	0.960534	-0.347187	-0.334460
O16	O	1.460534	0.152813	0.165540
O17	O	1.160695	-0.657421	-0.342484
O18	O	1.660695	-0.157421	0.157516
O19	O	1.043396	-0.357472	-0.424245
O20	O	1.543396	0.142528	0.075755
O21	O	0.965050	-0.510114	-0.220526
O22	O	1.465050	-0.010114	0.279474
O23	O	0.846579	-0.509503	-0.329857
O24	O	1.346579	-0.009503	0.170143
O25	O	0.952460	-0.656347	-0.534655
O26	O	1.452460	-0.156347	-0.034655
O27	O	0.843098	-0.642772	-0.416155
O28	O	1.343098	-0.142772	0.083845
O29	O	1.038802	-0.533362	-0.538142
O30	O	1.538802	-0.033362	-0.038142
O31	O	1.046740	-0.819737	-0.337881
O32	O	1.546740	-0.319737	0.162119
O33	O	0.956976	-0.819274	-0.420720
O34	O	1.456976	-0.319274	0.079280
C35	C	0.819342	-0.574551	-0.371981
C36	C	1.319342	-0.074551	0.128019
C37	C	0.741237	-0.569714	-0.368855
C38	C	1.241237	-0.069714	0.131145
C39	C	0.702753	-0.636925	-0.412246
C40	C	1.202753	-0.136925	0.087754
C41	C	0.629365	-0.632367	-0.409312
C42	C	1.129365	-0.132367	0.090688
C43	C	0.594463	-0.560602	-0.362983
C44	C	1.094463	-0.060602	0.137017
C45	C	0.632953	-0.493385	-0.319590
C46	C	1.132953	0.006615	0.180410
C47	C	0.706339	-0.497938	-0.322528
C48	C	1.206339	0.002062	0.177472
C49	C	0.375174	-0.539528	-0.349389
C50	C	0.875174	-0.039528	0.150611
C51	C	0.301782	-0.534981	-0.346453
C52	C	0.801782	-0.034981	0.153547
C53	C	0.298199	-0.673963	-0.436177
C54	C	0.798199	-0.173963	0.063823
C55	C	0.371587	-0.678514	-0.439108
C56	C	0.871587	-0.178514	0.060892
C57	C	0.410071	-0.611293	-0.395717
C58	C	0.910071	-0.111293	0.104283
N59	N	0.519449	-0.555944	-0.359982
N60	N	1.019449	-0.055944	0.140018
N61	N	0.485083	-0.615947	-0.398723
N62	N	0.985083	-0.115947	0.101277
C63	C	1.001868	-0.857424	-0.379313
C64	C	1.501868	-0.357424	0.120687
C65	C	1.001913	-0.973581	-0.379333
C66	C	1.501913	-0.473581	0.120667
C67	C	1.046380	-1.025566	-0.338391
C68	C	1.546380	-0.525566	0.161609
C69	C	1.046427	-1.145620	-0.338411
C70	C	1.546427	-0.645620	0.161589
C71	C	1.185194	-0.597329	-0.386702
C72	C	1.685194	-0.097329	0.113298
C73	C	1.263298	-0.602192	-0.389845
C74	C	1.763298	-0.102192	0.110155
C75	C	0.994583	-0.596346	-0.562607
C76	C	1.494583	-0.096346	-0.062607
C77	C	0.991460	-0.600790	-0.640711
C78	C	1.491460	-0.100790	-0.140711
C79	C	1.001974	-0.313353	-0.379357
C80	C	1.501974	0.186647	0.120643
C81	C	1.002000	-0.197202	-0.379370
C82	C	1.502000	0.302798	0.120630
C83	C	1.034945	-0.538849	-0.679221
C84	C	1.534945	-0.038849	-0.179221
C85	C	1.032002	-0.543020	-0.752607
C86	C	1.532002	-0.043020	-0.252607
C87	C	0.985578	-0.609138	-0.787481
C88	C	1.485578	-0.109138	-0.287481
C89	C	0.942089	-0.671081	-0.748966
C90	C	1.442089	-0.171081	-0.248966
C91	C	0.945028	-0.666904	-0.675581
C92	C	1.445028	-0.166904	-0.175581
C93	C	0.971962	-0.628492	-1.006763
C94	C	1.471962	-0.128492	-0.506763
C95	C	0.969027	-0.632667	-1.080153
C96	C	1.469027	-0.132667	-0.580153
C97	C	1.058939	-0.504604	-1.083789
C98	C	1.558939	-0.004604	-0.583789
C99	C	1.061878	-0.500438	-1.010402
C100	C	1.561878	-0.000438	-0.510402
C101	C	1.018386	-0.562376	-0.971894
C102	C	1.518386	-0.062376	-0.471894
N103	N	0.982570	-0.613406	-0.862494
N104	N	1.482570	-0.113406	-0.362494
N105	N	1.021391	-0.558103	-0.896882
N106	N	1.521391	-0.058103	-0.396882
C107	C	1.009252	-0.575456	-0.196761
C108	C	1.509252	-0.075456	0.303239
C109	C	1.012511	-0.570727	-0.118663
C110	C	1.512511	-0.070727	0.381337
H111	H	0.737673	-0.443203	-0.287198
H112	H	1.237673	0.056797	0.212802
F113	F	0.952233	-1.138779	-0.425185
F114	F	1.452233	-0.638779	0.074815
F115	F	0.739891	-0.713312	-0.461553
F116	F	1.239891	-0.213312	0.038447
F117	F	0.408727	-0.754898	-0.488416
F118	F	0.908727	-0.254898	0.011584
F119	F	1.096099	-0.967573	-0.292559
F120	F	1.596099	-0.467573	0.207441
H121	H	0.936558	-0.678943	-0.975419
H122	H	1.436558	-0.178943	-0.475419
F123	F	0.588410	-0.703902	-0.455496
F124	F	1.088410	-0.203902	0.044504
F125	F	0.257238	-0.745501	-0.482352
F126	F	0.757238	-0.245501	0.017648
H127	H	1.099683	-0.446600	-0.982013
H128	H	1.599683	0.053400	-0.482013
H129	H	0.963881	-1.017954	-0.414402
H130	H	1.463881	-0.517954	0.085598
H131	H	0.909612	-0.717331	-0.644227
H132	H	1.409612	-0.217331	-0.144227
H133	H	0.273368	-0.476530	-0.308731
H134	H	0.773368	0.023470	0.191269
F135	F	0.416121	-0.467981	-0.303211
F136	F	0.916121	0.032019	0.196789
H137	H	1.072750	-0.485012	-0.650831
H138	H	1.572750	0.014988	-0.150831
F139	F	0.595806	-0.417001	-0.270287
F140	F	1.095806	0.082999	0.229713
F141	F	1.078308	-0.477132	-0.793589
F142	F	1.578308	0.022868	-0.293589
F143	F	0.892678	-0.741445	-0.786085
F144	F	1.392678	-0.241445	-0.286085
H145	H	1.084495	-1.190325	-0.303357
H146	H	1.584495	-0.690325	0.196643
F147	F	1.105221	-0.438687	-1.124778
F148	F	1.605221	0.061313	-0.624778
H149	H	0.931220	-0.686511	-1.108546
H150	H	1.431220	-0.186511	-0.608546
