data_functionalizedCrystal
_audit_creation_method	'MofGen! by Chris Wilmer'
_symmetry_space_group_name_H-M	'P1'
_symmetry_Int_Tables_number	1
_symmetry_cell_setting	triclinic
loop_
_symmetry_equiv_pos_as_xyz
  x,y,z
_cell_length_a	16.959455
_cell_length_b	25.639240
_cell_length_c	16.959447
_cell_angle_alpha	89.963308
_cell_angle_beta	89.982507
_cell_angle_gamma	90.029705
loop_
_atom_site_label
_atom_site_type_symbol
_atom_site_fract_x
_atom_site_fract_y
_atom_site_fract_z
Zn1	Zn	1.208339	-0.208201	-0.446854
Zn2	Zn	1.541672	0.125132	-0.113521
Zn3	Zn	1.875005	0.458465	0.219813
Zn4	Zn	1.208225	-0.295637	-0.314653
Zn5	Zn	1.541558	0.037697	0.018681
Zn6	Zn	1.874891	0.371030	0.352014
Zn7	Zn	1.076160	-0.208212	-0.314692
Zn8	Zn	1.409493	0.125121	0.018642
Zn9	Zn	1.742827	0.458454	0.351975
Zn10	Zn	1.076103	-0.295603	-0.446791
Zn11	Zn	1.409436	0.037730	-0.113458
Zn12	Zn	1.742769	0.371064	0.219875
O13	O	1.142207	-0.251913	-0.380747
O14	O	1.475540	0.081420	-0.047414
O15	O	1.808873	0.414753	0.285919
O16	O	1.318935	-0.219809	-0.429327
O17	O	1.652268	0.113524	-0.095994
O18	O	1.985601	0.446857	0.237339
O19	O	1.190682	-0.284058	-0.204047
O20	O	1.524016	0.049275	0.129287
O21	O	1.857349	0.382608	0.462620
O22	O	1.093765	-0.135046	-0.332266
O23	O	1.427099	0.198288	0.001067
O24	O	1.760432	0.531621	0.334401
O25	O	1.318851	-0.284048	-0.332199
O26	O	1.652184	0.049286	0.001134
O27	O	1.985517	0.382619	0.334467
O28	O	1.190877	-0.135038	-0.429365
O29	O	1.524210	0.198296	-0.096032
O30	O	1.857543	0.531629	0.237302
O31	O	1.093655	-0.219828	-0.204075
O32	O	1.426988	0.113505	0.129258
O33	O	1.760321	0.446839	0.462591
O34	O	0.965541	-0.219795	-0.332205
O35	O	1.298875	0.113538	0.001128
O36	O	1.632208	0.446871	0.334462
O37	O	1.093668	-0.283990	-0.557410
O38	O	1.427001	0.049343	-0.224077
O39	O	1.760335	0.382676	0.109256
O40	O	0.965499	-0.284001	-0.429258
O41	O	1.298833	0.049332	-0.095925
O42	O	1.632166	0.382666	0.237409
O43	O	1.190821	-0.219777	-0.557457
O44	O	1.524154	0.113557	-0.224123
O45	O	1.857488	0.446890	0.109210
O46	O	1.190627	-0.368797	-0.332138
O47	O	1.523960	-0.035464	0.001195
O48	O	1.857293	0.297869	0.334528
O49	O	1.093557	-0.368773	-0.429220
O50	O	1.426891	-0.035439	-0.095887
O51	O	1.760224	0.297894	0.237447
C52	C	0.936840	-0.251896	-0.380729
C53	C	1.270174	0.081437	-0.047396
C54	C	1.603507	0.414771	0.285937
C55	C	0.848984	-0.251901	-0.380740
C56	C	1.182317	0.081432	-0.047407
C57	C	1.515650	0.414765	0.285926
C58	C	0.477506	-0.218454	-0.330317
C59	C	0.810839	0.114879	0.003016
C60	C	1.144172	0.448212	0.336349
C61	C	0.477511	-0.285416	-0.431222
C62	C	0.810844	0.047918	-0.097889
C63	C	1.144177	0.381251	0.235444
C64	C	0.560056	-0.285408	-0.431218
C65	C	0.893390	0.047925	-0.097884
C66	C	1.226723	0.381259	0.235449
C67	C	0.601331	-0.251924	-0.380761
C68	C	0.934664	0.081410	-0.047428
C69	C	1.267997	0.414743	0.285906
C70	C	0.560059	-0.218447	-0.330309
C71	C	0.893392	0.114887	0.003024
C72	C	1.226726	0.448220	0.336357
C73	C	0.601334	-0.318888	-0.481663
C74	C	0.934668	0.014445	-0.148329
C75	C	1.268001	0.347778	0.185004
C76	C	0.683885	-0.318882	-0.481659
C77	C	1.017218	0.014451	-0.148326
C78	C	1.350552	0.347784	0.185007
C79	C	0.725161	-0.285395	-0.431206
C80	C	1.058494	0.047938	-0.097873
C81	C	1.391828	0.381272	0.235460
C82	C	0.683884	-0.251916	-0.380753
C83	C	1.017218	0.081417	-0.047420
C84	C	1.350551	0.414750	0.285914
C85	C	0.725159	-0.218432	-0.330296
C86	C	1.058492	0.114901	0.003037
C87	C	1.391825	0.448235	0.336370
C88	C	0.683883	-0.184950	-0.279847
C89	C	1.017217	0.148383	0.053487
C90	C	1.350550	0.481717	0.386820
C91	C	0.601335	-0.184959	-0.279856
C92	C	0.934668	0.148374	0.053477
C93	C	1.268002	0.481707	0.386811
C94	C	0.807709	-0.285386	-0.431197
C95	C	1.141043	0.047948	-0.097863
C96	C	1.474376	0.381281	0.235470
C97	C	0.807712	-0.218424	-0.330288
C98	C	1.141045	0.114909	0.003045
C99	C	1.474379	0.448242	0.336378
C100	C	1.142095	-0.387756	-0.380685
C101	C	1.475428	-0.054423	-0.047352
C102	C	1.808761	0.278911	0.285981
C103	C	1.142119	-0.445870	-0.380685
C104	C	1.475453	-0.112537	-0.047352
C105	C	1.808786	0.220797	0.285981
C106	C	1.192797	-0.806190	-0.431398
C107	C	1.526131	-0.472857	-0.098065
C108	C	1.859464	-0.139524	0.235269
C109	C	1.192821	-0.860795	-0.431414
C110	C	1.526154	-0.527461	-0.098081
C111	C	1.859487	-0.194128	0.235252
O112	O	1.235776	-0.888995	-0.474468
O113	O	1.569110	-0.555662	-0.141135
O114	O	1.902443	-0.222328	0.192198
N115	N	1.142316	-0.888152	-0.380824
N116	N	1.475650	-0.554819	-0.047490
N117	N	1.808983	-0.221486	0.285843
C118	C	1.091779	-0.860903	-0.330220
C119	C	1.425113	-0.527570	0.003114
C120	C	1.758446	-0.194236	0.336447
O121	O	1.048823	-0.889187	-0.287190
O122	O	1.382156	-0.555854	0.046143
O123	O	1.715490	-0.222520	0.379476
C124	C	1.091753	-0.806300	-0.330208
C125	C	1.425086	-0.472966	0.003125
C126	C	1.758419	-0.139633	0.336459
C127	C	1.142266	-0.778945	-0.380796
C128	C	1.475600	-0.445611	-0.047463
C129	C	1.808933	-0.112278	0.285870
C130	C	1.243306	-0.778835	-0.481983
C131	C	1.576640	-0.445502	-0.148649
C132	C	1.909973	-0.112169	0.184684
C133	C	1.243284	-0.724235	-0.481965
C134	C	1.576617	-0.390902	-0.148632
C135	C	1.909950	-0.057568	0.184701
C136	C	1.192753	-0.696989	-0.431364
C137	C	1.526086	-0.363656	-0.098030
C138	C	1.859419	-0.030323	0.235303
C139	C	1.142244	-0.724344	-0.380779
C140	C	1.475577	-0.391011	-0.047446
C141	C	1.808910	-0.057678	0.285888
C142	C	1.041212	-0.779051	-0.279609
C143	C	1.374546	-0.445718	0.053725
C144	C	1.707879	-0.112385	0.387058
C145	C	1.041190	-0.724444	-0.279602
C146	C	1.374523	-0.391111	0.053732
C147	C	1.707856	-0.057778	0.387065
C148	C	1.091703	-0.697089	-0.330190
C149	C	1.425036	-0.363756	0.003143
C150	C	1.758370	-0.030423	0.336477
C151	C	1.091690	-0.642498	-0.330160
C152	C	1.425023	-0.309165	0.003174
C153	C	1.758357	0.024168	0.336507
N154	N	1.142195	-0.615140	-0.380750
N155	N	1.475528	-0.281807	-0.047417
N156	N	1.808861	0.051526	0.285917
C157	C	1.192726	-0.642386	-0.431352
C158	C	1.526059	-0.309053	-0.098019
C159	C	1.859392	0.024281	0.235315
C160	C	1.091838	-0.975574	-0.330249
C161	C	1.425172	-0.642240	0.003085
C162	C	1.758505	-0.308907	0.336418
C163	C	1.091868	-1.030176	-0.330255
C164	C	1.425202	-0.696843	0.003078
C165	C	1.758535	-0.363509	0.336411
C166	C	1.192909	-1.030064	-0.431451
C167	C	1.526242	-0.696730	-0.098118
C168	C	1.859576	-0.363397	0.235215
C169	C	1.192882	-0.975461	-0.431440
C170	C	1.526216	-0.642127	-0.098107
C171	C	1.859549	-0.308794	0.235227
C172	C	1.142343	-0.948216	-0.380839
C173	C	1.475676	-0.614883	-0.047506
C174	C	1.809010	-0.281549	0.285828
C175	C	1.192675	-0.527721	-0.431311
C176	C	1.526009	-0.194388	-0.097978
C177	C	1.859342	0.138946	0.235355
C178	C	1.192651	-0.473116	-0.431287
C179	C	1.525984	-0.139782	-0.097954
C180	C	1.859317	0.193551	0.235379
C181	C	1.091607	-0.473232	-0.330095
C182	C	1.424941	-0.139899	0.003239
C183	C	1.758274	0.193434	0.336572
C184	C	1.091635	-0.527833	-0.330116
C185	C	1.424968	-0.194500	0.003218
C186	C	1.758301	0.138834	0.336551
C187	C	1.142171	-0.555076	-0.380730
C188	C	1.475505	-0.221743	-0.047397
C189	C	1.808838	0.111591	0.285936
O190	O	1.048754	-0.614263	-0.287130
O191	O	1.382087	-0.280930	0.046204
O192	O	1.715421	0.052404	0.379537
O193	O	1.235668	-0.614095	-0.474381
O194	O	1.569001	-0.280762	-0.141048
O195	O	1.902334	0.052571	0.192285
C196	C	1.348375	-0.251931	-0.380766
C197	C	1.681708	0.081402	-0.047433
C198	C	2.015041	0.414736	0.285901
C199	C	1.436231	-0.251939	-0.380774
C200	C	1.769565	0.081395	-0.047441
C201	C	2.102898	0.414728	0.285893
C202	C	1.142251	-0.251879	-0.586916
C203	C	1.475584	0.081455	-0.253582
C204	C	1.808918	0.414788	0.079751
C205	C	1.142270	-0.251864	-0.674772
C206	C	1.475603	0.081470	-0.341439
C207	C	1.808936	0.414803	-0.008106
C208	C	1.142340	-0.115540	-0.380827
C209	C	1.475674	0.217793	-0.047493
C210	C	1.809007	0.551126	0.285840
C211	C	1.142397	-0.057426	-0.380861
C212	C	1.475730	0.275907	-0.047527
C213	C	1.809064	0.609240	0.285806
C214	C	1.091696	-0.285290	-0.716024
C215	C	1.425030	0.048043	-0.382690
C216	C	1.758363	0.381376	-0.049357
C217	C	1.192856	-0.218420	-0.716074
C218	C	1.526190	0.114913	-0.382741
C219	C	1.859523	0.448247	-0.049408
C220	C	1.192873	-0.218403	-0.798620
C221	C	1.526206	0.114931	-0.465287
C222	C	1.859539	0.448264	-0.131954
C223	C	1.142299	-0.251829	-0.839872
C224	C	1.475633	0.081504	-0.506539
C225	C	1.808966	0.414837	-0.173205
C226	C	1.091710	-0.285273	-0.798577
C227	C	1.425043	0.048060	-0.465244
C228	C	1.758376	0.381393	-0.131911
C229	C	1.243456	-0.184956	-0.839921
C230	C	1.576789	0.148377	-0.506588
C231	C	1.910123	0.481711	-0.173254
C232	C	1.243474	-0.184937	-0.922472
C233	C	1.576807	0.148396	-0.589139
C234	C	1.910141	0.481730	-0.255805
C235	C	1.192904	-0.218367	-0.963725
C236	C	1.526237	0.114967	-0.630392
C237	C	1.859570	0.448300	-0.297058
C238	C	1.142313	-0.251812	-0.922425
C239	C	1.475646	0.081521	-0.589092
C240	C	1.808979	0.414854	-0.255759
C241	C	1.091739	-0.285239	-0.963677
C242	C	1.425072	0.048094	-0.630344
C243	C	1.758406	0.381428	-0.297010
C244	C	1.041151	-0.318687	-0.922379
C245	C	1.374485	0.014646	-0.589046
C246	C	1.707818	0.347979	-0.255712
C247	C	1.041139	-0.318703	-0.839830
C248	C	1.374473	0.014630	-0.506497
C249	C	1.707806	0.347964	-0.173164
C250	C	1.192916	-0.218351	-1.046274
C251	C	1.526249	0.114982	-0.712940
C252	C	1.859582	0.448315	-0.379607
C253	C	1.091752	-0.285222	-1.046231
C254	C	1.425086	0.048112	-0.712897
C255	C	1.758419	0.381445	-0.379564
C256	C	1.142208	-0.251910	-0.175381
C257	C	1.475541	0.081423	0.157952
C258	C	1.808875	0.414756	0.491286
C259	C	1.142342	-0.251778	-0.087525
C260	C	1.475676	0.081555	0.245808
C261	C	1.809009	0.414889	0.579142
H262	H	0.567723	-0.346153	-0.522736
H263	H	0.901056	-0.012820	-0.189403
H264	H	1.234389	0.320514	0.143931
H265	H	1.234014	-0.953191	-0.472633
H266	H	1.567348	-0.619858	-0.139300
H267	H	1.900681	-0.286525	0.194033
H268	H	0.717484	-0.346145	-0.522739
H269	H	1.050818	-0.012812	-0.189406
H270	H	1.384151	0.320522	0.143927
H271	H	1.050509	-0.550107	-0.288916
H272	H	1.383842	-0.216773	0.044417
H273	H	1.717175	0.116560	0.377750
H274	H	1.050511	-0.312525	-0.682395
H275	H	1.383844	0.020808	-0.349062
H276	H	1.717178	0.354142	-0.015729
H277	H	1.050468	-0.451041	-0.288893
H278	H	1.383801	-0.117707	0.044441
H279	H	1.717134	0.215626	0.377774
H280	H	1.050685	-0.953394	-0.289037
H281	H	1.384019	-0.620060	0.044297
H282	H	1.717352	-0.286727	0.377630
H283	H	1.050572	-0.312444	-1.079812
H284	H	1.383905	0.020889	-0.746478
H285	H	1.717238	0.354223	-0.413145
H286	H	1.284667	-0.157702	-0.956090
H287	H	1.618000	0.175631	-0.622757
H288	H	1.951333	0.508965	-0.289423
H289	H	1.234027	-0.191203	-0.682483
H290	H	1.567361	0.142130	-0.349149
H291	H	1.900694	0.475463	-0.015816
H292	H	0.567721	-0.157701	-0.238782
H293	H	0.901055	0.175632	0.094552
H294	H	1.234388	0.508966	0.427885
H295	H	1.234053	-1.052257	-0.472656
H296	H	1.567386	-0.718924	-0.139322
H297	H	1.900720	-0.385590	0.194011
H298	H	1.000032	-0.702264	-0.238397
H299	H	1.333365	-0.368931	0.094936
H300	H	1.666698	-0.035598	0.428269
H301	H	1.284455	-0.801013	-0.523194
H302	H	1.617788	-0.467680	-0.189860
H303	H	1.951121	-0.134346	0.143473
H304	H	0.443896	-0.191193	-0.289245
H305	H	0.777229	0.142141	0.044089
H306	H	1.110562	0.475474	0.377422
H307	H	0.999970	-0.345900	-0.955977
H308	H	1.333303	-0.012567	-0.622643
H309	H	1.666637	0.320766	-0.289310
H310	H	1.050744	-1.052444	-0.289053
H311	H	1.384077	-0.719110	0.044280
H312	H	1.717410	-0.385777	0.377614
H313	H	0.841312	-0.191154	-0.289205
H314	H	1.174645	0.142180	0.044129
H315	H	1.507978	0.475513	0.377462
H316	H	1.000079	-0.801314	-0.238414
H317	H	1.333412	-0.467981	0.094919
H318	H	1.666746	-0.134648	0.428253
H319	H	0.999953	-0.345934	-0.806198
H320	H	1.333286	-0.012601	-0.472865
H321	H	1.666620	0.320732	-0.139531
H322	H	0.841312	-0.312648	-0.472270
H323	H	1.174645	0.020686	-0.138936
H324	H	1.507979	0.354019	0.194397
H325	H	1.284627	-0.157740	-0.806328
H326	H	1.617961	0.175593	-0.472995
H327	H	1.951294	0.508927	-0.139661
H328	H	1.233788	-0.450845	-0.472482
H329	H	1.567121	-0.117512	-0.139149
H330	H	1.900454	0.215822	0.194185
H331	H	0.717500	-0.157689	-0.238762
H332	H	1.050833	0.175644	0.094572
H333	H	1.384166	0.508977	0.427905
H334	H	0.443900	-0.312680	-0.472297
H335	H	0.777233	0.020653	-0.138964
H336	H	1.110567	0.353986	0.194369
H337	H	1.233821	-0.549896	-0.472532
H338	H	1.567155	-0.216562	-0.139199
H339	H	1.900488	0.116771	0.194135
H340	H	1.234097	-0.191114	-1.079895
H341	H	1.567431	0.142219	-0.746561
H342	H	1.900764	0.475553	-0.413228
H343	H	1.284414	-0.701966	-0.523161
H344	H	1.617747	-0.368632	-0.189827
H345	H	1.951080	-0.035299	0.143506
