data_functionalizedCrystal
_audit_creation_method	'MofGen! by Chris Wilmer'
_symmetry_space_group_name_H-M	'P1'
_symmetry_Int_Tables_number	1
_symmetry_cell_setting	triclinic
loop_
_symmetry_equiv_pos_as_xyz
  x,y,z
_cell_length_a	13.032831
_cell_length_b	25.639240
_cell_length_c	13.032268
_cell_angle_alpha	82.852470
_cell_angle_beta	89.113023
_cell_angle_gamma	82.836816
loop_
_atom_site_label
_atom_site_type_symbol
_atom_site_fract_x
_atom_site_fract_y
_atom_site_fract_z
Zn1	Zn	1.498307	-0.353084	0.780812
Zn2	Zn	1.520011	-0.430981	0.608827
Zn3	Zn	1.348176	-0.331243	0.587055
Zn4	Zn	1.326260	-0.428154	0.758952
O5	O	1.423188	-0.385866	0.683912
O6	O	1.645101	-0.373741	0.776258
O7	O	1.515471	-0.409793	0.462023
O8	O	1.368179	-0.260983	0.612793
O9	O	1.661047	-0.430971	0.649902
O10	O	1.478480	-0.277030	0.755146
O11	O	1.389225	-0.336516	0.446026
O12	O	1.201353	-0.333775	0.591597
O13	O	1.330828	-0.426153	0.905768
O14	O	1.185252	-0.404975	0.717890
O15	O	1.457229	-0.371000	0.921829
O16	O	1.494221	-0.503763	0.628705
O17	O	1.351873	-0.501686	0.739002
C18	C	1.155987	-0.366699	0.650009
C19	C	1.041673	-0.358513	0.635530
C20	C	0.982782	-0.390138	0.691468
C21	C	0.864633	-0.381678	0.676505
C22	C	1.423049	-0.521697	0.683870
C23	C	1.423080	-0.579814	0.683898
C24	C	1.480607	-0.839323	0.758101
C25	C	1.480577	-0.784716	0.758089
O26	O	1.529376	-0.763539	0.821130
N27	N	1.423190	-0.749097	0.683925
C28	C	1.365838	-0.768087	0.609762
O29	O	1.317024	-0.732777	0.546678
C30	C	1.365874	-0.822694	0.609770
C31	C	1.423257	-0.858310	0.683945
C32	C	1.537986	-0.874939	0.832270
C33	C	1.538014	-0.929542	0.832282
C34	C	1.480664	-0.948529	0.758126
C35	C	1.423285	-0.912913	0.683958
C36	C	1.308528	-0.841683	0.535603
C37	C	1.308570	-0.896294	0.535617
C38	C	1.365953	-0.931910	0.609792
C39	C	1.365962	-0.986504	0.609814
N40	N	1.423350	-1.022123	0.683978
C41	C	1.480700	-1.003135	0.758134
C42	C	1.365767	-0.653412	0.609750
C43	C	1.365724	-0.598806	0.609745
C44	C	1.480466	-0.615439	0.758072
C45	C	1.480502	-0.670045	0.758080
C46	C	1.423154	-0.689030	0.683914
C47	C	1.480754	-1.117805	0.758156
C48	C	1.480774	-1.172412	0.758164
C49	C	1.366037	-1.155775	0.609835
C50	C	1.366013	-1.101173	0.609829
C51	C	1.423379	-1.082190	0.683994
O52	O	1.317192	-1.007719	0.546803
O53	O	1.529517	-1.038452	0.821199
C54	C	1.691433	-0.405107	0.717947
C55	C	1.805743	-0.413307	0.732451
C56	C	1.389163	-0.400697	0.952158
C57	C	1.374663	-0.407018	1.066468
C58	C	1.423353	-0.249507	0.683979
C59	C	1.423423	-0.191400	0.684008
C60	C	1.457141	-0.371058	0.416716
C61	C	1.471840	-0.364604	0.302432
C62	C	1.430740	-0.382547	1.125378
C63	C	1.415755	-0.389079	1.243524
H64	H	1.004623	-0.325174	0.576565
C65	C	1.336571	-0.423631	1.400868
C66	C	1.335967	-0.423896	1.293501
H67	H	1.287320	-0.445129	1.431721
H68	H	1.319343	-0.388393	1.416524
H69	H	1.403458	-0.437199	1.427173
H70	H	1.269082	-0.410324	1.267194
H71	H	1.353188	-0.459141	1.277837
C72	C	0.994007	-0.427731	0.869715
C73	C	1.032789	-0.435143	0.771080
H74	H	1.024884	-0.455514	0.918865
H75	H	0.921179	-0.427955	0.870098
H76	H	1.009674	-0.394700	0.887082
H77	H	1.017116	-0.468172	0.753710
H78	H	1.105634	-0.434924	0.770695
C79	C	0.837716	-0.287988	0.622521
C80	C	0.814625	-0.336671	0.596892
H81	H	0.806834	-0.260205	0.573375
H82	H	0.910545	-0.287768	0.622121
H83	H	0.811412	-0.282972	0.689445
H84	H	0.840936	-0.341689	0.529971
H85	H	0.741781	-0.336892	0.597281
H86	H	1.530941	-0.338813	1.265405
H87	H	1.527499	-1.201410	0.818573
C88	C	1.508330	-0.611785	0.938595
C89	C	1.543515	-0.594561	0.839583
H90	H	1.547249	-0.598891	0.988911
H91	H	1.516573	-0.649399	0.949217
H92	H	1.437310	-0.598737	0.944808
H93	H	1.614533	-0.607612	0.833367
H94	H	1.535282	-0.556939	0.828957
C95	C	0.816953	-0.450904	0.910701
C96	C	0.855740	-0.458316	0.812067
H97	H	0.847824	-0.478689	0.959851
H98	H	0.744125	-0.451125	0.911079
H99	H	0.832624	-0.417874	0.928070
H100	H	0.840062	-0.491344	0.794694
H101	H	0.928585	-0.458100	0.811686
C102	C	1.594155	-1.139745	0.904788
C103	C	1.543799	-1.096944	0.839688
H104	H	1.633064	-1.126865	0.955129
H105	H	1.639223	-1.161375	0.865011
H106	H	1.544322	-1.160017	0.938386
H107	H	1.593632	-1.076675	0.806084
H108	H	1.498726	-1.075305	0.879470
C109	C	1.320270	-0.493775	1.093340
C110	C	1.294872	-0.441831	1.116444
H111	H	1.271005	-0.515266	1.124186
H112	H	1.387140	-0.507341	1.119665
H113	H	1.319873	-0.493944	1.020498
H114	H	1.295277	-0.441661	1.189286
H115	H	1.227985	-0.428261	1.090124
H116	H	1.584750	-0.958537	0.892677
H117	H	1.261803	-0.812691	0.475202
H118	H	1.319341	-1.171245	0.549461
C119	C	1.651387	-0.896878	0.978890
C120	C	1.601026	-0.854075	0.913797
H121	H	1.690297	-0.883999	1.029232
H122	H	1.696455	-0.918506	0.939109
H123	H	1.601557	-0.917151	1.012487
H124	H	1.650857	-0.833804	0.880194
H125	H	1.555955	-0.832438	0.953584
H126	H	1.527223	-0.699041	0.818484
C127	C	1.559512	-0.326355	1.152458
C128	C	1.510528	-0.347733	1.075398
H129	H	1.608766	-0.304859	1.121601
H130	H	1.593548	-0.354254	1.199335
H131	H	1.509441	-0.305444	1.188687
H132	H	1.560598	-0.368647	1.039173
H133	H	1.476492	-0.319830	1.028503
C134	C	1.252313	-0.587865	0.463134
C135	C	1.302639	-0.559660	0.528216
H136	H	1.213375	-0.563698	0.412794
H137	H	1.207274	-0.608826	0.502924
H138	H	1.302163	-0.610193	0.429534
H139	H	1.252788	-0.537334	0.561822
H140	H	1.347681	-0.538690	0.488420
C141	C	1.229289	-0.704164	0.577808
C142	C	1.302707	-0.674278	0.528232
H143	H	1.190364	-0.717046	0.527481
H144	H	1.184235	-0.682527	0.617584
H145	H	1.263480	-0.733194	0.621968
H146	H	1.268515	-0.645245	0.484078
H147	H	1.347767	-0.695916	0.488438
C148	C	1.140846	-0.897924	0.463284
C149	C	1.245525	-0.917163	0.454094
H150	H	1.101925	-0.910810	0.412961
H151	H	1.132628	-0.860310	0.452662
H152	H	1.116992	-0.909612	0.530460
H153	H	1.269381	-0.905471	0.386921
H154	H	1.253748	-0.954784	0.464708
C155	C	1.252584	-1.090220	0.463228
C156	C	1.302923	-1.062020	0.528308
H157	H	1.213643	-1.066050	0.412894
H158	H	1.207547	-1.111181	0.503020
H159	H	1.302428	-1.112548	0.429619
H160	H	1.253078	-1.039694	0.561922
H161	H	1.347963	-1.041050	0.488510
