data_functionalizedCrystal
_audit_creation_method	'MofGen! by Chris Wilmer'
_symmetry_space_group_name_H-M	'P1'
_symmetry_Int_Tables_number	1
_symmetry_cell_setting	triclinic
loop_
_symmetry_equiv_pos_as_xyz
  x,y,z
_cell_length_a	17.640112
_cell_length_b	13.033615
_cell_length_c	13.032268
_cell_angle_alpha	89.080892
_cell_angle_beta	106.658984
_cell_angle_gamma	109.639026
loop_
_atom_site_label
_atom_site_type_symbol
_atom_site_fract_x
_atom_site_fract_y
_atom_site_fract_z
Zn1	Zn	1.170173	-0.136110	-0.261324
Zn2	Zn	1.174531	-0.284984	-0.066528
Zn3	Zn	1.050579	-0.149798	-0.116776
Zn4	Zn	1.015801	-0.353834	-0.274834
O5	O	1.102771	-0.231182	-0.179866
O6	O	1.287230	-0.121317	-0.208801
O7	O	1.174466	-0.243966	0.074477
O8	O	1.079174	-0.000288	-0.151326
O9	O	1.290432	-0.230693	-0.065685
O10	O	1.167039	0.009768	-0.257525
O11	O	1.083399	-0.144645	0.037560
O12	O	0.929486	-0.211406	-0.164426
O13	O	1.019901	-0.348038	-0.420713
O14	O	0.903935	-0.361311	-0.280550
O15	O	1.133317	-0.188078	-0.410787
O16	O	1.140744	-0.441811	-0.078785
O17	O	1.024127	-0.492395	-0.231826
C18	C	0.886509	-0.295316	-0.229407
C19	C	0.793986	-0.322782	-0.250623
C20	C	0.556072	-0.022507	-0.018698
C21	C	0.469130	-0.048340	-0.038646
C22	C	0.442588	-0.204585	-0.159314
C23	C	0.529530	-0.178762	-0.139380
C24	C	0.586266	-0.087723	-0.069070
C25	C	0.559724	-0.243978	-0.189752
C26	C	0.646659	-0.218161	-0.169815
C27	C	0.703400	-0.127128	-0.099506
C28	C	0.673201	-0.061906	-0.049133
C29	C	0.502987	-0.335021	-0.260056
C30	C	0.533180	-0.400237	-0.310428
C31	C	0.620116	-0.374416	-0.290497
C32	C	0.676857	-0.283383	-0.220188
C33	C	0.650315	-0.439638	-0.340870
C34	C	0.737250	-0.413821	-0.320933
C35	C	0.763792	-0.257566	-0.200251
C36	C	1.079155	-0.505395	-0.151337
C37	C	1.069124	-0.622688	-0.139150
C38	C	1.072243	-0.274211	-0.455110
C39	C	1.059234	-0.292548	-0.572403
C40	C	1.319877	-0.166798	-0.130131
C41	C	1.412395	-0.139362	-0.108938
C42	C	1.126499	0.044106	-0.208524
C43	C	1.136611	0.161417	-0.220736
C44	C	1.097645	0.208743	-0.173636
C45	C	1.108095	0.329990	-0.186257
C46	C	1.109551	-0.221577	-0.619784
C47	C	1.096106	-0.240528	-0.741012
C48	C	1.133234	-0.188229	0.094311
C49	C	1.146430	-0.169547	0.211609
H50	H	0.774187	-0.106111	-0.083272
C51	C	0.770465	-0.485558	-0.376351
N52	N	0.795482	-0.539593	-0.418092
H53	H	1.177704	0.210660	-0.270409
C54	C	0.826207	-0.157414	-0.122911
N55	N	0.873218	-0.081985	-0.064658
H56	H	1.056545	0.159496	-0.123972
C57	C	0.987588	-0.393585	-0.638843
N58	N	0.933621	-0.469689	-0.688885
H59	H	0.486975	-0.474364	-0.367671
H60	H	1.149191	0.379229	-0.235933
H61	H	1.028018	0.328069	-0.089486
C62	C	0.618488	0.077644	0.058643
N63	N	0.665498	0.153073	0.116895
C64	C	1.181192	-0.120535	-0.553346
N65	N	1.235155	-0.044427	-0.503305
H66	H	1.043067	-0.315317	-0.790194
H67	H	0.719399	0.012240	0.008103
C68	C	0.435922	0.023412	0.016772
N69	N	0.410909	0.077453	0.058514
C70	C	0.587895	-0.539782	-0.418203
N71	N	0.540880	-0.615212	-0.476451
C72	C	0.380170	-0.304723	-0.236655
N73	N	0.333156	-0.380147	-0.294913
C74	C	1.218079	-0.068502	-0.721957
N75	N	1.272045	0.007603	-0.671918
H76	H	0.432199	-0.356039	-0.276286
