data_functionalizedCrystal
_audit_creation_method	'MofGen! by Chris Wilmer'
_symmetry_space_group_name_H-M	'P1'
_symmetry_Int_Tables_number	1
_symmetry_cell_setting	triclinic
loop_
_symmetry_equiv_pos_as_xyz
  x,y,z
_cell_length_a	30.570277
_cell_length_b	30.570279
_cell_length_c	30.570330
_cell_angle_alpha	59.997668
_cell_angle_beta	89.998668
_cell_angle_gamma	60.000192
loop_
_atom_site_label
_atom_site_type_symbol
_atom_site_fract_x
_atom_site_fract_y
_atom_site_fract_z
O1	O	-0.372836	-0.313095	0.013011
O2	O	-0.309225	-0.223519	-0.012953
O3	O	-0.309223	-0.313094	0.076622
O4	O	-0.372839	-0.223520	-0.076564
O5	O	-0.236468	-0.385848	0.076622
O6	O	-0.236471	-0.296273	-0.012953
O7	O	-0.300082	-0.385850	0.013011
Cu8	Cu	-0.261633	-0.347704	0.000029
Cu9	Cu	-0.347674	-0.261664	0.000029
O10	O	-0.300084	-0.296275	-0.076564
C11	C	-0.188654	-0.082303	-0.027139
C12	C	-0.215647	-0.028318	-0.023422
C13	C	-0.136009	-0.108501	-0.027507
C14	C	-0.188656	-0.161512	-0.027144
C15	C	-0.215651	-0.192218	-0.023433
C16	C	-0.136010	-0.187591	-0.027512
C17	C	-0.109441	-0.161515	-0.027139
C18	C	-0.051740	-0.192225	-0.023422
C19	C	-0.215103	-0.108498	-0.027512
C20	C	-0.005122	-0.217036	-0.020418
C21	C	-0.237454	0.015296	-0.020418
C22	C	-0.237459	-0.217026	-0.020433
C23	C	0.053362	-0.248162	-0.016650
C24	C	-0.264813	0.070012	-0.016651
C25	C	-0.264819	-0.248149	-0.016672
C26	C	-0.528835	-0.481158	0.031534
C27	C	-0.502268	-0.534173	0.031905
C28	C	-0.449624	-0.481155	0.031530
C29	C	-0.423176	-0.534171	0.031901
C30	C	-0.449623	-0.560370	0.031533
C31	C	-0.502268	-0.455079	0.031901
C32	C	-0.614448	-0.395339	0.025106
C33	C	-0.668545	-0.366177	0.021050
C34	C	-0.695677	-0.391210	0.019017
C35	C	-0.754333	-0.359592	0.014617
C36	C	-0.668716	-0.445410	0.021045
C37	C	-0.614621	-0.474572	0.025103
C38	C	-0.587489	-0.449534	0.027131
C39	C	-0.449828	-0.639557	0.025109
C40	C	-0.424894	-0.689598	0.021053
C41	C	-0.372730	-0.714694	0.019016
C42	C	-0.345693	-0.768949	0.014615
C43	C	-0.345492	-0.689758	0.021040
C44	C	-0.370425	-0.639721	0.025098
C45	C	-0.422593	-0.614621	0.027130
C46	C	-0.449831	-0.395334	0.025098
C47	C	-0.424899	-0.366164	0.021031
C48	C	-0.372736	-0.391195	0.018994
C49	C	-0.345699	-0.359574	0.014590
C50	C	-0.345499	-0.445391	0.021019
C51	C	-0.370429	-0.474560	0.025084
C52	C	-0.422594	-0.449529	0.027123
C53	C	-0.449629	-0.128223	-0.400622
C54	C	-0.502274	-0.075208	-0.427071
C55	C	-0.449630	-0.128223	-0.321410
C56	C	-0.502275	-0.075207	-0.347979
C57	C	-0.528843	-0.049010	-0.400624
C58	C	-0.423182	-0.154300	-0.347977
C59	C	-0.370237	-0.214043	-0.400414
C60	C	-0.345131	-0.243207	-0.425348
C61	C	-0.372198	-0.218175	-0.477512
C62	C	-0.344980	-0.249795	-0.504549
C63	C	-0.424371	-0.163975	-0.504752
C64	C	-0.449476	-0.134812	-0.479820
C65	C	-0.422408	-0.159848	-0.427652
C66	C	-0.614455	0.030175	-0.480016
C67	C	-0.668553	0.080216	-0.505123
C68	C	-0.695686	0.105313	-0.478056
C69	C	-0.754343	0.159568	-0.505274
C70	C	-0.668725	0.080378	-0.425883
C71	C	-0.614630	0.030342	-0.400778
C72	C	-0.587497	0.005241	-0.427845
C73	C	-0.370239	-0.214042	-0.235795
C74	C	-0.345135	-0.243209	-0.181695
C75	C	-0.372203	-0.218177	-0.154563
C76	C	-0.344985	-0.249796	-0.095906
C77	C	-0.424374	-0.163982	-0.181523
C78	C	-0.449480	-0.134814	-0.235621
C79	C	-0.422410	-0.159847	-0.262755
O80	O	0.226322	-0.385862	0.013031
O81	O	0.073137	-0.296286	-0.012932
O82	O	0.162706	-0.385864	0.076642
O83	O	0.136754	-0.296283	-0.076544
O84	O	0.162707	-0.313113	0.076647
O85	O	0.073139	-0.223534	-0.012927
O86	O	0.226324	-0.313110	0.013035
Cu87	Cu	0.149732	-0.261680	0.000054
Cu88	Cu	0.149730	-0.347717	0.000049
O89	O	0.136756	-0.223532	-0.076539
O90	O	-0.300077	0.213289	0.013034
O91	O	-0.236463	0.086067	-0.012928
O92	O	-0.236466	0.086060	0.076646
O93	O	-0.300074	0.213297	-0.076541
O94	O	-0.309222	0.086062	0.076641
O95	O	-0.309219	0.086070	-0.012933
O96	O	-0.372833	0.213292	0.013029
Cu97	Cu	-0.347669	0.149681	0.000047
Cu98	Cu	-0.261627	0.149678	0.000053
O99	O	-0.372830	0.213300	-0.076546
O100	O	-0.926872	0.304555	-0.541036
O101	O	-0.773688	0.177328	-0.477419
O102	O	-0.863257	0.177325	-0.477417
O103	O	-0.837303	0.304558	-0.541038
O104	O	-0.863255	0.177323	-0.550170
O105	O	-0.773686	0.177326	-0.550173
O106	O	-0.926870	0.304553	-0.613790
Cu107	Cu	-0.850278	0.240940	-0.588624
Cu108	Cu	-0.850280	0.240942	-0.502585
O109	O	-0.837301	0.304556	-0.613792
O110	O	-0.309222	-0.313094	-0.613776
O111	O	-0.372836	-0.223523	-0.550164
O112	O	-0.372834	-0.313097	-0.550160
O113	O	-0.309224	-0.223521	-0.613781
O114	O	-0.300079	-0.385852	-0.477404
O115	O	-0.300081	-0.296279	-0.477409
O116	O	-0.236467	-0.385850	-0.541021
Cu117	Cu	-0.261631	-0.347707	-0.502572
Cu118	Cu	-0.347672	-0.261666	-0.588613
O119	O	-0.236469	-0.296276	-0.541025
C120	C	-0.109443	-0.527076	0.338416
C121	C	-0.051741	-0.581062	0.365410
C122	C	-0.136011	-0.500878	0.364863
C123	C	-0.188656	-0.447863	0.259202
C124	C	-0.215650	-0.417154	0.201500
C125	C	-0.215104	-0.421785	0.285770
C126	C	-0.188656	-0.447863	0.338415
C127	C	-0.215649	-0.417155	0.365408
C128	C	-0.136011	-0.500878	0.285771
C129	C	-0.237457	-0.392345	0.387215
C130	C	-0.005124	-0.624677	0.387218
C131	C	-0.237457	-0.392344	0.154883
C132	C	-0.264816	-0.361220	0.414573
C133	C	0.053360	-0.679395	0.414577
C134	C	-0.264817	-0.361219	0.096399
C135	C	0.176900	-0.447894	0.338441
C136	C	0.173185	-0.417189	0.365437
C137	C	0.177268	-0.500910	0.364887
C138	C	0.176902	-0.447889	0.259226
C139	C	0.173189	-0.417178	0.201523
C140	C	0.177270	-0.500904	0.285792
C141	C	0.176898	-0.527104	0.338437
C142	C	0.173181	-0.581091	0.365429
C143	C	0.177272	-0.421814	0.285795
C144	C	0.170177	-0.624706	0.387234
C145	C	0.170183	-0.392382	0.387246
C146	C	0.170189	-0.392365	0.154906
C147	C	0.166409	-0.679423	0.414591
C148	C	0.166417	-0.361260	0.414607
C149	C	0.166425	-0.361238	0.096422
C150	C	-0.188656	-0.161565	0.338427
C151	C	-0.215650	-0.192274	0.365416
C152	C	-0.136010	-0.187647	0.364876
C153	C	-0.188655	-0.082342	0.259219
C154	C	-0.215648	-0.028347	0.201519
C155	C	-0.136009	-0.108545	0.285789
C156	C	-0.109441	-0.161568	0.338432
C157	C	-0.051739	-0.192281	0.365427
C158	C	-0.215103	-0.108542	0.285783
C159	C	-0.005121	-0.217095	0.387236
C160	C	-0.237458	-0.217086	0.387220
C161	C	-0.237456	0.015274	0.154902
C162	C	0.053363	-0.248225	0.414596
C163	C	-0.264818	-0.248212	0.414575
C164	C	-0.264815	0.070001	0.096420
C165	C	0.118261	-0.049006	-0.400600
C166	C	0.117891	-0.075201	-0.427049
C167	C	0.118257	-0.128221	-0.321388
C168	C	0.117887	-0.154296	-0.347958
C169	C	0.118259	-0.128216	-0.400603
C170	C	0.117889	-0.075206	-0.347955
C171	C	0.124691	0.030176	-0.400391
C172	C	0.128750	0.080217	-0.425324
C173	C	0.130788	0.105316	-0.477489
C174	C	0.135192	0.159570	-0.504524
C175	C	0.128762	0.080383	-0.504729
C176	C	0.124700	0.030348	-0.479798
C177	C	0.122667	0.005244	-0.427629
C178	C	0.124689	-0.134434	-0.479996
C179	C	0.128747	-0.163423	-0.505104
C180	C	0.130780	-0.217623	-0.478038
C181	C	0.135182	-0.249059	-0.505257
C182	C	0.128752	-0.242837	-0.425864
C183	C	0.124692	-0.213848	-0.400759
C184	C	0.122664	-0.159648	-0.427825
C185	C	0.124683	-0.134448	-0.235773
C186	C	0.128745	-0.163447	-0.181672
C187	C	0.130779	-0.217647	-0.154541
C188	C	0.135178	-0.249089	-0.095884
C189	C	0.128755	-0.242857	-0.181502
C190	C	0.124695	-0.213862	-0.235600
C191	C	0.122659	-0.159658	-0.262733
O192	O	0.136720	-0.296316	0.522623
O193	O	0.162693	-0.385890	0.459012
O194	O	0.073116	-0.296315	0.459000
O195	O	0.226297	-0.385891	0.522635
O196	O	0.073125	-0.223561	0.386249
O197	O	0.162702	-0.313136	0.386260
O198	O	0.136728	-0.223562	0.449871
Cu199	Cu	0.149716	-0.261706	0.411423
Cu200	Cu	0.149706	-0.347746	0.497460
O201	O	0.226306	-0.313137	0.449883
C202	C	-0.528835	0.518896	-0.400596
C203	C	-0.502267	0.544976	-0.427040
C204	C	-0.449621	0.439671	-0.321383
C205	C	-0.423173	0.465871	-0.347947
C206	C	-0.449621	0.518894	-0.400591
C207	C	-0.502267	0.465874	-0.347953
C208	C	-0.614449	0.525120	-0.400395
C209	C	-0.668547	0.554117	-0.425332
C210	C	-0.695679	0.608323	-0.477494
C211	C	-0.754336	0.639767	-0.504533
C212	C	-0.668718	0.633538	-0.504729
C213	C	-0.614622	0.604542	-0.479795
C214	C	-0.587490	0.550335	-0.427628
C215	C	-0.449826	0.604722	-0.479976
C216	C	-0.424890	0.633887	-0.505078
C217	C	-0.372726	0.608850	-0.478008
C218	C	-0.345687	0.640471	-0.505221
C219	C	-0.345487	0.554643	-0.425836
C220	C	-0.370420	0.525478	-0.400737
C221	C	-0.422590	0.550520	-0.427807
C222	C	-0.449827	0.360475	-0.235774
C223	C	-0.424895	0.310431	-0.181675
C224	C	-0.372730	0.285329	-0.154541
C225	C	-0.345693	0.231066	-0.095885
C226	C	-0.345493	0.310267	-0.181496
C227	C	-0.370424	0.360310	-0.235593
C228	C	-0.422591	0.385412	-0.262730
H229	H	-0.114681	-0.086573	-0.028104
H230	H	-0.523597	0.587640	-0.470296
C231	C	-0.698565	-0.472946	0.018805
C232	C	-0.678974	-0.538824	0.065510
C233	C	-0.708819	-0.566363	0.063271
C234	C	-0.758255	-0.528025	0.014327
C235	C	-0.777848	-0.462143	-0.032382
C236	C	-0.748003	-0.434603	-0.030143
H237	H	-0.642377	-0.567209	0.101745
H238	H	-0.694315	-0.615134	0.097848
H239	H	-0.780348	-0.548411	0.012670
H240	H	-0.814445	-0.433758	-0.068616
H241	H	-0.762507	-0.385833	-0.064720
C242	C	-0.107195	-0.530498	0.256956
C243	C	-0.130301	-0.554064	0.236451
C244	C	-0.101486	-0.583682	0.207639
C245	C	-0.049565	-0.589735	0.199331
C246	C	-0.026456	-0.566169	0.219836
C247	C	-0.055271	-0.536550	0.248649
H248	H	-0.168739	-0.549584	0.242601
H249	H	-0.118593	-0.601128	0.192459
H250	H	-0.028234	-0.611661	0.178002
H251	H	0.011982	-0.570649	0.213687
H252	H	-0.038164	-0.519105	0.263828
H253	H	-0.447080	-0.322039	0.019384
H254	H	-0.258359	-0.086568	-0.028112
H255	H	-0.592678	0.010046	-0.358301
C256	C	-0.340466	0.387743	-0.265247
C257	C	-0.321242	0.414711	-0.245503
C258	C	-0.291284	0.442145	-0.275156
C259	C	-0.280549	0.442611	-0.324554
C260	C	-0.299772	0.415643	-0.344300
C261	C	-0.329731	0.388209	-0.314646
H262	H	-0.329189	0.414367	-0.208934
H263	H	-0.277053	0.462109	-0.260539
H264	H	-0.258372	0.462919	-0.346505
H265	H	-0.291826	0.415987	-0.380869
H266	H	-0.343961	0.368245	-0.329264
H267	H	-0.302652	-0.287333	-0.403167
C268	C	-0.531077	0.436246	-0.319135
C269	C	-0.551595	0.412698	-0.342252
C270	C	-0.580401	0.383068	-0.313432
C271	C	-0.588689	0.376988	-0.261497
C272	C	-0.568170	0.400537	-0.238378
C273	C	-0.539364	0.430166	-0.267197
H274	H	-0.545461	0.417198	-0.380700
H275	H	-0.595591	0.365636	-0.330547
H276	H	-0.610012	0.355054	-0.240163
H277	H	-0.574304	0.396036	-0.199930
H278	H	-0.524174	0.447598	-0.250083
C279	C	0.122467	-0.241579	-0.343369
C280	C	0.169181	-0.307510	-0.297171
C281	C	0.166958	-0.335242	-0.239780
C282	C	0.118021	-0.297042	-0.228587
C283	C	0.071303	-0.231107	-0.274787
C284	C	0.073526	-0.203376	-0.332178
H285	H	0.205410	-0.335791	-0.305455
H286	H	0.201541	-0.384051	-0.205580
H287	H	0.116376	-0.317571	-0.186103
H288	H	0.035074	-0.202826	-0.266503
H289	H	0.038943	-0.154566	-0.366378
C290	C	0.130991	-0.302481	-0.151658
C291	C	0.176585	-0.360441	-0.146798
C292	C	0.178819	-0.420063	-0.116954
C293	C	0.135460	-0.421724	-0.091970
C294	C	0.089863	-0.363762	-0.096830
C295	C	0.087629	-0.304140	-0.126674
H296	H	0.208685	-0.359213	-0.165294
H297	H	0.212573	-0.462970	-0.113357
H298	H	0.137114	-0.465859	-0.069878
H299	H	0.057762	-0.364990	-0.078334
H300	H	0.053874	-0.261233	-0.130270
H301	H	0.123035	-0.090300	-0.502039
H302	H	-0.258358	-0.086616	0.264453
C303	C	0.117072	-0.045590	-0.319133
C304	C	0.162923	-0.083156	-0.267196
C305	C	0.162101	-0.053541	-0.238373
C306	C	0.115428	0.013640	-0.261489
C307	C	0.069573	0.051210	-0.313429
C308	C	0.070396	0.021595	-0.342252
H309	H	0.197477	-0.132891	-0.250082
H310	H	0.196045	-0.081353	-0.199923
H311	H	0.114819	0.035563	-0.240153
H312	H	0.035020	0.100945	-0.330543
H313	H	0.036451	0.049408	-0.380702
H314	H	0.123031	0.009743	-0.357914
C315	C	-0.107187	-0.078930	0.256983
C316	C	-0.130292	-0.011751	0.236475
C317	C	-0.101468	0.017860	0.207674
C318	C	-0.049539	-0.019708	0.199381
C319	C	-0.026431	-0.086891	0.219889
C320	C	-0.055255	-0.116502	0.248691
H321	H	-0.168736	0.016063	0.242614
H322	H	-0.118575	0.067593	0.192492
H323	H	-0.028202	0.002212	0.178060
H324	H	0.012013	-0.114705	0.213751
H325	H	-0.038148	-0.166235	0.263872
H326	H	-0.303016	0.289827	-0.159398
C327	C	-0.454856	-0.717024	0.018826
C328	C	-0.431676	-0.785323	0.062191
C329	C	-0.461634	-0.812754	0.059965
C330	C	-0.514772	-0.771885	0.014374
C331	C	-0.537955	-0.703582	-0.028993
C332	C	-0.507997	-0.676151	-0.026767
H333	H	-0.392337	-0.815581	0.095942
H334	H	-0.444472	-0.863317	0.092068
H335	H	-0.536949	-0.792191	0.012726
H336	H	-0.577294	-0.673325	-0.062745
H337	H	-0.525159	-0.625588	-0.058871
C338	C	0.130969	-0.135712	-0.152021
C339	C	0.176551	-0.128147	-0.147315
C340	C	0.178778	-0.100413	-0.117661
C341	C	0.135423	-0.080243	-0.092714
C342	C	0.089838	-0.087807	-0.097420
C343	C	0.087611	-0.115541	-0.127074
H344	H	0.208647	-0.143079	-0.165782
H345	H	0.212523	-0.094814	-0.114178
H346	H	0.137072	-0.059713	-0.070763
H347	H	0.057742	-0.072876	-0.078953
H348	H	0.053865	-0.121141	-0.130557
H349	H	0.123049	-0.234393	-0.257550
C350	C	-0.273539	-0.364157	0.256958
C351	C	-0.302758	-0.335336	0.198925
C352	C	-0.361192	-0.277711	0.170116
C353	C	-0.390407	-0.248907	0.199340
C354	C	-0.361188	-0.277728	0.257375
C355	C	-0.302754	-0.335353	0.286185
H356	H	-0.281132	-0.356659	0.177289
H357	H	-0.382821	-0.256376	0.127154
H358	H	-0.433663	-0.206249	0.178013
H359	H	-0.382814	-0.256405	0.279011
H360	H	-0.281124	-0.356688	0.329147
H361	H	-0.690817	0.677680	-0.547206
H362	H	0.117290	-0.196956	-0.326627
H363	H	0.177873	-0.522830	0.264460
C364	C	0.178072	-0.530536	0.423323
C365	C	0.178469	-0.501725	0.452543
C366	C	0.179274	-0.531352	0.510977
C367	C	0.179682	-0.589790	0.540190
C368	C	0.179285	-0.618605	0.510969
C369	C	0.178480	-0.588978	0.452535
H370	H	0.178168	-0.458463	0.430919
H371	H	0.179569	-0.510022	0.532608
H372	H	0.180278	-0.611722	0.583445
H373	H	0.179586	-0.661867	0.532593
H374	H	0.178186	-0.610308	0.430904
H375	H	0.177867	-0.379153	0.264468
C376	C	-0.107193	-0.245219	-0.028319
C377	C	-0.136406	-0.274038	-0.028720
C378	C	-0.107589	-0.331663	-0.029527
C379	C	-0.049560	-0.360470	-0.029934
C380	C	-0.020344	-0.331650	-0.029534
C381	C	-0.049161	-0.274025	-0.028726
H382	H	-0.179365	-0.252714	-0.028419
H383	H	-0.129217	-0.352997	-0.029824
H384	H	-0.028228	-0.403128	-0.030532
H385	H	0.022616	-0.352975	-0.029835
H386	H	-0.027533	-0.252691	-0.028430
H387	H	-0.114684	-0.230310	0.408133
H388	H	-0.379922	-0.556092	0.032492
H389	H	0.123059	0.010043	-0.501975
C390	C	-0.531074	-0.563801	0.032709
C391	C	-0.551590	-0.587364	0.079375
C392	C	-0.580392	-0.616993	0.080178
C393	C	-0.588678	-0.623061	0.034315
C394	C	-0.568162	-0.599498	-0.012355
C395	C	-0.539360	-0.569868	-0.013157
H396	H	-0.545456	-0.582873	0.113329
H397	H	-0.595579	-0.634436	0.114726
H398	H	-0.609999	-0.644995	0.034909
H399	H	-0.574296	-0.603989	-0.046308
H400	H	-0.524173	-0.552425	-0.047705
H401	H	-0.446407	-0.143596	-0.547231
H402	H	-0.523602	-0.412416	0.032492
C403	C	-0.507213	-0.367798	0.027340
C404	C	-0.519579	-0.360290	0.072933
C405	C	-0.576964	-0.332751	0.075170
C406	C	-0.621983	-0.312719	0.031813
C407	C	-0.609619	-0.320226	-0.013783
C408	C	-0.552234	-0.347766	-0.016020
H409	H	-0.486252	-0.375120	0.105031
H410	H	-0.586117	-0.327193	0.108923
H411	H	-0.664463	-0.292332	0.033469
H412	H	-0.642946	-0.305397	-0.045881
H413	H	-0.543081	-0.353323	-0.049774
C414	C	0.117089	-0.045585	-0.485484
C415	C	0.070426	0.021598	-0.529559
C416	C	0.069625	0.051210	-0.587991
C417	C	0.115487	0.013637	-0.602349
C418	C	0.162154	-0.053550	-0.558274
C419	C	0.162955	-0.083162	-0.499841
H420	H	0.036473	0.049415	-0.518932
H421	H	0.035078	0.100947	-0.620619
H422	H	0.114893	0.035557	-0.645604
H423	H	0.196106	-0.081367	-0.568901
H424	H	0.197501	-0.132899	-0.467214
H425	H	-0.348242	0.481343	-0.358259
C426	C	-0.698201	-0.306560	0.018818
C427	C	-0.678462	-0.307072	0.065525
C428	C	-0.708120	-0.247455	0.063297
C429	C	-0.757516	-0.187328	0.014361
C430	C	-0.777257	-0.186814	-0.032350
C431	C	-0.747600	-0.246430	-0.030121
H432	H	-0.641894	-0.351584	0.101754
H433	H	-0.693506	-0.247836	0.097875
H434	H	-0.779471	-0.143196	0.012711
H435	H	-0.813826	-0.142302	-0.068578
H436	H	-0.762214	-0.246050	-0.064699
H437	H	-0.690825	0.100822	-0.403847
C438	C	-0.288108	-0.717365	0.018797
C439	C	-0.277011	-0.717856	-0.030147
C440	C	-0.219628	-0.745461	-0.032388
C441	C	-0.173342	-0.772575	0.014316
C442	C	-0.184438	-0.772085	0.063263
C443	C	-0.241821	-0.744480	0.065504
H444	H	-0.311276	-0.697784	-0.064723
H445	H	-0.211414	-0.745824	-0.068622
H446	H	-0.130863	-0.793010	0.012657
H447	H	-0.150173	-0.792157	0.097839
H448	H	-0.250035	-0.744118	0.101739
C449	C	-0.454855	0.283000	-0.152029
C450	C	-0.474068	0.256022	-0.171768
C451	C	-0.504029	0.228590	-0.142119
C452	C	-0.514778	0.228136	-0.092730
C453	C	-0.495565	0.255115	-0.072987
C454	C	-0.465603	0.282547	-0.102637
H455	H	-0.466111	0.256357	-0.208332
H456	H	-0.518251	0.208619	-0.156734
H457	H	-0.536957	0.207830	-0.070782
H458	H	-0.503521	0.254780	-0.036424
H459	H	-0.451381	0.302518	-0.088022
C460	C	-0.340470	-0.612289	0.027326
C461	C	-0.287329	-0.653158	0.072912
C462	C	-0.257374	-0.625724	0.075141
C463	C	-0.280561	-0.557421	0.031782
C464	C	-0.333705	-0.516548	-0.013808
C465	C	-0.363660	-0.543982	-0.016036
H466	H	-0.270162	-0.703724	0.105012
H467	H	-0.218034	-0.655982	0.108890
H468	H	-0.258387	-0.537113	0.033431
H469	H	-0.350872	-0.465982	-0.045908
H470	H	-0.403000	-0.513724	-0.049785
C471	C	-0.288115	-0.472930	0.018778
C472	C	-0.277016	-0.434590	-0.030165
C473	C	-0.219631	-0.462129	-0.032403
C474	C	-0.173346	-0.528008	0.014302
C475	C	-0.184444	-0.566351	0.063248
C476	C	-0.241829	-0.538813	0.065487
H477	H	-0.311280	-0.385820	-0.064741
H478	H	-0.211416	-0.433744	-0.068637
H479	H	-0.130867	-0.548393	0.012645
H480	H	-0.150180	-0.615122	0.097825
H481	H	-0.250044	-0.567198	0.101720
H482	H	-0.492303	0.380909	-0.257867
C483	C	-0.584960	0.632270	-0.509746
C484	C	-0.604685	0.698197	-0.528955
C485	C	-0.575021	0.725924	-0.558905
C486	C	-0.525632	0.687726	-0.569646
C487	C	-0.505904	0.621795	-0.550437
C488	C	-0.535568	0.594068	-0.520487
H489	H	-0.641248	0.726477	-0.521005
H490	H	-0.589625	0.774730	-0.573125
H491	H	-0.503673	0.708251	-0.591817
H492	H	-0.469341	0.593515	-0.558387
H493	H	-0.520964	0.545262	-0.506267
H494	H	0.123023	-0.090311	-0.257863
C495	C	0.130983	0.107638	-0.395362
C496	C	0.176574	0.066765	-0.342223
C497	C	0.178805	0.094191	-0.312262
C498	C	0.135444	0.162489	-0.335441
C499	C	0.089850	0.203366	-0.388582
C500	C	0.087619	0.175940	-0.418543
H501	H	0.208676	0.016203	-0.325063
H502	H	0.212557	0.063931	-0.272923
H503	H	0.137095	0.182791	-0.313262
H504	H	0.057748	0.253928	-0.405742
H505	H	0.053867	0.206200	-0.457882
H506	H	-0.302656	-0.287335	-0.159749
H507	H	-0.592359	-0.374950	0.026761
H508	H	0.130421	0.100827	-0.547207
H509	H	-0.592670	-0.518703	0.026754
C510	C	-0.698203	0.526383	-0.395376
C511	C	-0.678466	0.460451	-0.376158
C512	C	-0.708124	0.432717	-0.346204
C513	C	-0.757519	0.470914	-0.335468
C514	C	-0.777258	0.536850	-0.354686
C515	C	-0.747600	0.564585	-0.384640
H516	H	-0.641899	0.432172	-0.384105
H517	H	-0.693512	0.383907	-0.331978
H518	H	-0.779473	0.450384	-0.313295
H519	H	-0.813825	0.565130	-0.346739
H520	H	-0.762213	0.613395	-0.398866
H521	H	-0.492305	-0.619125	0.026767
H522	H	-0.592359	0.480981	-0.357920
C523	C	0.130979	-0.135688	-0.562491
C524	C	0.084273	-0.069751	-0.608690
C525	C	0.086505	-0.042020	-0.666078
C526	C	0.135443	-0.080225	-0.677267
C527	C	0.182152	-0.146165	-0.631066
C528	C	0.179920	-0.173897	-0.573678
H529	H	0.048044	-0.041466	-0.600409
H530	H	0.051928	0.006794	-0.700279
H531	H	0.137095	-0.059696	-0.719748
H532	H	0.218381	-0.174450	-0.639347
H533	H	0.214497	-0.222710	-0.539477
H534	H	0.130406	-0.286972	-0.403829
H535	H	-0.114679	-0.522807	0.408119
H536	H	-0.379918	0.443941	-0.326613
H537	H	-0.348250	-0.518687	0.026730
C538	C	-0.454853	0.693510	-0.562463
C539	C	-0.507990	0.751369	-0.574727
C540	C	-0.537948	0.810992	-0.632114
C541	C	-0.514771	0.812758	-0.677235
C542	C	-0.461631	0.754898	-0.664972
C543	C	-0.431672	0.695274	-0.607586
H544	H	-0.525150	0.750063	-0.541325
H545	H	-0.577286	0.853824	-0.641191
H546	H	-0.536948	0.856895	-0.719716
H547	H	-0.444471	0.756203	-0.698375
H548	H	-0.392335	0.652442	-0.598508
H549	H	-0.523604	-0.053284	-0.326647
C550	C	-0.506863	-0.075196	-0.509776
C551	C	-0.553062	-0.075710	-0.528991
C552	C	-0.610451	-0.016094	-0.558946
C553	C	-0.621640	0.044036	-0.569686
C554	C	-0.575440	0.044552	-0.550471
C555	C	-0.518051	-0.015064	-0.520516
H556	H	-0.544781	-0.120223	-0.521041
H557	H	-0.644652	-0.016476	-0.573170
H558	H	-0.664123	0.088167	-0.591860
H559	H	-0.583722	0.089066	-0.558421
H560	H	-0.483851	-0.014682	-0.506292
C561	C	-0.364739	-0.211914	-0.319155
C562	C	-0.320681	-0.209288	-0.342275
C563	C	-0.262237	-0.266891	-0.313451
C564	C	-0.247851	-0.327120	-0.261508
C565	C	-0.291910	-0.329748	-0.238385
C566	C	-0.350354	-0.272145	-0.267209
H567	H	-0.331329	-0.164701	-0.380729
H568	H	-0.229621	-0.264945	-0.330568
H569	H	-0.204587	-0.369761	-0.240171
H570	H	-0.281262	-0.374335	-0.199931
H571	H	-0.382970	-0.274091	-0.250092
C572	C	-0.288102	0.527102	-0.396058
C573	C	-0.243082	0.507078	-0.419384
C574	C	-0.185697	0.479533	-0.389603
C575	C	-0.173332	0.472013	-0.336496
C576	C	-0.218353	0.492038	-0.313166
C577	C	-0.275738	0.519582	-0.342947
H578	H	-0.252234	0.512644	-0.458700
H579	H	-0.152370	0.464710	-0.406874
H580	H	-0.130852	0.451623	-0.314450
H581	H	-0.209201	0.486471	-0.273851
H582	H	-0.309066	0.534406	-0.325677
C583	C	-0.698207	0.107639	-0.562510
C584	C	-0.702928	0.066768	-0.574776
C585	C	-0.732586	0.094197	-0.632163
C586	C	-0.757523	0.162496	-0.677285
C587	C	-0.752802	0.203371	-0.665020
C588	C	-0.723144	0.175942	-0.607632
H589	H	-0.684467	0.016206	-0.541373
H590	H	-0.736080	0.063938	-0.641242
H591	H	-0.779477	0.182800	-0.719767
H592	H	-0.771263	0.253934	-0.698423
H593	H	-0.719650	0.206201	-0.598553
C594	C	-0.506868	-0.075199	-0.265280
C595	C	-0.553064	-0.075714	-0.245543
C596	C	-0.610453	-0.016099	-0.275201
C597	C	-0.621645	0.044032	-0.324596
C598	C	-0.575448	0.044550	-0.344335
C599	C	-0.518059	-0.015066	-0.314677
H600	H	-0.544780	-0.120228	-0.208976
H601	H	-0.644651	-0.016482	-0.260589
H602	H	-0.664128	0.088163	-0.346551
H603	H	-0.583732	0.089064	-0.380903
H604	H	-0.483860	-0.014682	-0.329290
C605	C	-0.454155	-0.136442	-0.151679
C606	C	-0.464756	-0.174782	-0.102238
C607	C	-0.494534	-0.147242	-0.072394
C608	C	-0.513710	-0.081363	-0.091989
C609	C	-0.503108	-0.043019	-0.141432
C610	C	-0.473331	-0.070558	-0.171277
H611	H	-0.450561	-0.223553	-0.087730
H612	H	-0.502382	-0.175628	-0.035792
H613	H	-0.535753	-0.060977	-0.069896
H614	H	-0.517304	0.005752	-0.155940
H615	H	-0.465483	-0.042173	-0.207878
H616	H	-0.523599	-0.053278	-0.470330
H617	H	-0.492302	0.625111	-0.502024
H618	H	-0.348193	-0.234430	-0.357937
H619	H	-0.348193	-0.234426	-0.257886
H620	H	-0.592365	0.009742	-0.502060
