data_functionalizedCrystal
_audit_creation_method	'MofGen! by Chris Wilmer'
_symmetry_space_group_name_H-M	'P1'
_symmetry_Int_Tables_number	1
_symmetry_cell_setting	triclinic
loop_
_symmetry_equiv_pos_as_xyz
  x,y,z
_cell_length_a	10.654543
_cell_length_b	12.503572
_cell_length_c	14.044190
_cell_angle_alpha	86.160597
_cell_angle_beta	91.163024
_cell_angle_gamma	86.452278
loop_
_atom_site_label
_atom_site_type_symbol
_atom_site_fract_x
_atom_site_fract_y
_atom_site_fract_z
O1	O	-1.687861	0.089217	0.127768
O2	O	-1.323660	0.089245	0.140466
O3	O	-1.500287	0.089210	-0.003903
O4	O	-1.511233	0.089252	0.272136
O5	O	-1.487006	-0.089429	0.006973
O6	O	-1.310378	-0.089394	0.151341
O7	O	-1.674579	-0.089423	0.138643
Cu8	Cu	-1.491266	-0.105720	0.145985
Cu9	Cu	-1.506973	0.105542	0.133124
O10	O	-1.497952	-0.089388	0.283012
C11	C	-1.270128	-0.000071	0.144972
C12	C	-1.130405	-0.000061	0.142186
N13	N	-1.480228	-0.254310	0.155031
C14	C	-1.059464	-0.000050	0.227188
C15	C	-0.928178	-0.000066	0.224565
C16	C	-0.938785	-0.000100	0.051931
C17	C	-1.070068	-0.000092	0.054555
C18	C	-1.463991	-0.473422	0.168345
C19	C	-1.534253	-0.526763	0.110759
C20	C	-1.525219	-0.648684	0.118168
C21	C	-1.473024	-0.351489	0.160938
C22	C	-0.728112	-0.000099	0.134141
C23	C	-0.867835	-0.000086	0.136940
C24	C	-1.488859	-0.000112	-0.033811
C25	C	-1.474580	-0.000120	-0.139130
N26	N	-1.518020	0.254132	0.124071
C27	C	-1.549748	-0.000084	-0.388926
C28	C	-1.448497	-0.000084	-0.331960
C29	C	-1.463013	-0.000104	-0.224660
C30	C	-1.535234	-0.000064	-0.496236
C31	C	-1.509380	-0.000063	0.312919
C32	C	-1.523660	-0.000048	0.418238
H33	H	-0.870424	-0.000059	0.293783
H34	H	-1.397058	-0.519316	0.223207
H35	H	-1.647325	-0.000103	-0.357111
H36	H	-1.127830	-0.000104	-0.014668
C37	C	-1.318478	-0.000124	-0.374554
C38	C	-1.329734	-0.000136	-0.474055
C39	C	-1.209992	-0.000191	-0.513328
H40	H	-1.278630	0.062153	-0.357935
H41	H	-1.269467	-0.062447	-0.350328
H42	H	-1.378726	0.062180	-0.498272
H43	H	-1.369560	-0.062408	-0.490700
H44	H	-1.160981	-0.062514	-0.489101
H45	H	-1.170154	0.062086	-0.496702
H46	H	-1.217612	-0.000209	-0.580841
H47	H	-1.601193	-0.480863	0.055895
C48	C	-1.125210	0.000031	0.322229
C49	C	-1.255370	0.000067	0.306336
C50	C	-1.315972	0.000155	0.393866
H51	H	-1.097046	-0.062243	0.361131
H52	H	-1.106206	0.062356	0.353477
H53	H	-1.274365	-0.062252	0.275103
H54	H	-1.283570	0.062336	0.267448
H55	H	-1.296968	0.062480	0.425114
H56	H	-1.287798	-0.062120	0.432763
H57	H	-1.404292	0.000189	0.383095
H58	H	-0.889642	-0.000132	-0.019414
