data_functionalizedCrystal
_audit_creation_method	'MofGen! by Chris Wilmer'
_symmetry_space_group_name_H-M	'P1'
_symmetry_Int_Tables_number	1
_symmetry_cell_setting	triclinic
loop_
_symmetry_equiv_pos_as_xyz
  x,y,z
_cell_length_a	18.050590
_cell_length_b	18.050590
_cell_length_c	11.169409
_cell_angle_alpha	90.037983
_cell_angle_beta	90.007496
_cell_angle_gamma	90.007719
loop_
_atom_site_label
_atom_site_type_symbol
_atom_site_fract_x
_atom_site_fract_y
_atom_site_fract_z
Zn1	Zn	1.135403	-0.295814	0.678101
Zn2	Zn	1.135317	-0.420029	0.477398
Zn3	Zn	1.011204	-0.295834	0.477478
Zn4	Zn	1.011191	-0.419943	0.678086
O5	O	1.073279	-0.357905	0.577766
O6	O	1.239316	-0.312319	0.651449
O7	O	1.118822	-0.403599	0.309459
O8	O	1.027721	-0.191907	0.504131
O9	O	1.239253	-0.403579	0.503994
O10	O	1.118969	-0.191892	0.651527
O11	O	1.027637	-0.312353	0.309518
O12	O	0.907278	-0.312270	0.504117
O13	O	1.027699	-0.403433	0.846038
O14	O	0.907268	-0.403452	0.651502
O15	O	1.118957	-0.312236	0.846048
O16	O	1.118809	-0.523942	0.503980
O17	O	1.027615	-0.523879	0.651424
C18	C	0.880327	-0.357854	0.577817
C19	C	0.797781	-0.357851	0.577868
C20	C	0.598346	-0.407578	0.657826
C21	C	0.548945	-0.339858	0.687361
C22	C	0.646650	-0.357892	0.577809
C23	C	0.548971	-0.425651	0.548273
C24	C	0.500665	-0.357938	0.577755
C25	C	0.598336	-0.290136	0.607402
C26	C	0.598366	-0.375975	0.468262
C27	C	0.548987	-0.308208	0.497756
C28	C	0.730749	-0.357867	0.577844
C29	C	0.416569	-0.357956	0.577720
C30	C	1.073222	-0.550857	0.577718
C31	C	1.073265	-0.633403	0.577737
C32	C	1.122960	-0.832861	0.497669
C33	C	1.141105	-0.882186	0.607199
C34	C	1.073307	-0.784533	0.577785
C35	C	1.055238	-0.882290	0.468305
C36	C	1.073349	-0.930519	0.577822
C37	C	1.091487	-0.832771	0.687373
C38	C	1.005588	-0.832871	0.548405
C39	C	1.023708	-0.882174	0.658010
C40	C	1.073285	-0.700435	0.577763
C41	C	1.073372	-1.014615	0.577857
C42	C	1.266984	-0.357957	0.577714
C43	C	1.349530	-0.357979	0.577693
C44	C	1.073336	-0.357823	0.890808
C45	C	1.073360	-0.357788	1.024208
C46	C	1.073356	-0.164200	0.577840
C47	C	1.073389	-0.081654	0.577871
C48	C	1.073265	-0.357934	0.265941
C49	C	1.073384	-0.357760	0.132541
H50	H	0.527283	-0.482933	0.523316
O51	O	1.173008	-0.806898	0.416936
C52	C	1.171859	-0.728797	0.417269
H53	H	1.116221	-0.708616	0.452881
H54	H	1.218257	-0.707119	0.477044
C55	C	1.251423	-0.724814	0.245042
C56	C	1.183084	-0.700027	0.288772
H57	H	1.258351	-0.707066	0.165781
H58	H	1.252200	-0.777432	0.244820
H59	H	1.290080	-0.706748	0.294866
H60	H	1.144429	-0.718101	0.238957
H61	H	1.182301	-0.647411	0.288983
O62	O	1.036890	-0.908326	0.357928
C63	C	0.971847	-0.951283	0.366125
H64	H	0.965242	-0.972531	0.461621
H65	H	0.921909	-0.915784	0.341406
C66	C	0.985291	-0.991363	0.162183
C67	C	0.977182	-1.017465	0.279470
H68	H	0.988580	-1.032185	0.108727
H69	H	1.029110	-0.962420	0.156658
H70	H	0.943674	-0.961780	0.141601
H71	H	1.018803	-1.047039	0.300055
H72	H	0.933370	-1.046414	0.284997
H73	H	0.620021	-0.449522	0.725569
H74	H	0.948318	-0.811192	0.523499
H75	H	0.527236	-0.324579	0.779980
O76	O	1.209490	-0.908002	0.636677
C77	C	1.261654	-0.882868	0.551986
H78	H	1.232145	-0.869064	0.464561
H79	H	1.290457	-0.831165	0.587698
C80	C	1.355835	-0.960855	0.636709
C81	C	1.319591	-0.943907	0.529329
H82	H	1.391575	-0.998505	0.622736
H83	H	1.320692	-0.977786	0.693770
H84	H	1.379831	-0.917765	0.666457
H85	H	1.295588	-0.986995	0.499590
H86	H	1.354731	-0.926984	0.472262
H87	H	1.106731	-0.811112	0.780054
O88	O	0.973719	-0.907814	0.739106
C89	C	0.993058	-0.882427	0.854354
H90	H	1.054668	-0.868611	0.856698
H91	H	0.959560	-0.830679	0.876595
C92	C	0.900536	-0.960229	0.944156
C93	C	0.976208	-0.943266	0.947037
H94	H	0.890139	-0.997755	1.001329
H95	H	0.887504	-0.977331	0.866511
H96	H	0.872630	-0.917101	0.962687
H97	H	1.004112	-0.986391	0.928491
H98	H	0.989244	-0.926173	1.024681
H99	H	0.527450	-0.266162	0.430066
O100	O	0.624379	-0.394310	0.357895
C101	C	0.667301	-0.459365	0.366077
H102	H	0.688553	-0.465978	0.461589
H103	H	0.631773	-0.509293	0.341275
C104	C	0.707370	-0.445926	0.162190
C105	C	0.733478	-0.454046	0.279497
H106	H	0.748189	-0.442648	0.108780
H107	H	0.678451	-0.402099	0.156675
H108	H	0.677763	-0.487535	0.141538
H109	H	0.763076	-0.412434	0.300153
H110	H	0.762404	-0.497866	0.285014
H111	H	0.619929	-0.232836	0.632466
