data_functionalizedCrystal
_audit_creation_method	'MofGen! by Chris Wilmer'
_symmetry_space_group_name_H-M	'P1'
_symmetry_Int_Tables_number	1
_symmetry_cell_setting	triclinic
loop_
_symmetry_equiv_pos_as_xyz
  x,y,z
_cell_length_a	20.875621
_cell_length_b	21.606444
_cell_length_c	21.606444
_cell_angle_alpha	59.998659
_cell_angle_beta	87.030131
_cell_angle_gamma	58.317150
loop_
_atom_site_label
_atom_site_type_symbol
_atom_site_fract_x
_atom_site_fract_y
_atom_site_fract_z
Zr1	Zr	0.617957	0.677451	-0.112180
O2	O	0.515536	0.806572	-0.205877
O3	O	0.649352	0.548332	-0.083456
O4	O	0.649350	0.677456	-0.212579
O5	O	0.515543	0.677445	0.025100
O6	O	0.754909	0.677456	-0.217866
O7	O	0.515537	0.677449	-0.076754
O8	O	0.754912	0.446478	0.013112
O9	O	0.515540	0.908423	-0.205878
O10	O	0.741523	0.601440	-0.075152
O11	O	0.662749	0.601437	0.004806
O12	O	0.662747	0.753463	-0.147220
O13	O	0.583974	0.753459	-0.067261
Zr14	Zr	0.786320	0.677445	0.041833
Zr15	Zr	0.786312	0.677452	-0.120612
Zr16	Zr	0.617966	0.677444	0.050266
Zr17	Zr	0.617964	0.839891	-0.112181
Zr18	Zr	0.786314	0.515006	0.041834
O19	O	0.754926	0.806564	0.013109
O20	O	0.754914	0.806574	-0.217867
O21	O	0.515548	0.806563	0.025099
O22	O	0.888742	0.548324	0.135530
O23	O	0.888730	0.548334	-0.095446
O24	O	0.649364	0.548322	0.147520
O25	O	0.888735	0.677451	-0.095447
O26	O	0.754928	0.677441	0.142232
O27	O	0.649369	0.677440	0.147519
O28	O	0.888741	0.677447	0.006407
O29	O	0.649359	0.908424	-0.212580
O30	O	0.754919	0.446473	0.142234
O31	O	0.888738	0.446474	0.135531
O32	O	0.888732	0.446479	0.006409
O33	O	0.515546	0.908417	-0.076755
O34	O	0.649366	0.908418	-0.083458
O35	O	0.741531	0.601434	0.076873
O36	O	0.820304	0.601437	-0.003086
O37	O	0.741529	0.753460	-0.075153
O38	O	0.662755	0.753456	0.004805
C39	C	0.702131	0.474261	-0.035172
C40	C	0.702128	0.405301	-0.035171
C41	C	0.743269	-0.018005	-0.076911
C42	C	0.743264	0.046795	-0.076914
C43	C	0.702142	0.079190	-0.035176
C44	C	0.661017	0.046788	0.006561
C45	C	0.661019	-0.018007	0.006559
C46	C	0.661009	0.308099	0.006569
C47	C	0.661013	0.372896	0.006569
C48	C	0.743254	0.372901	-0.076905
C49	C	0.743256	0.308106	-0.076906
C50	C	0.702127	0.275712	-0.035172
C51	C	0.702133	0.205450	-0.035171
C52	C	0.702141	0.149447	-0.035173
C53	C	0.491553	0.677447	-0.024625
C54	C	0.420082	0.677446	-0.021045
C55	C	0.386502	0.677451	-0.075477
C56	C	0.319350	0.677446	-0.072110
C57	C	0.285776	0.677443	-0.014313
C58	C	0.319362	0.677436	0.040124
C59	C	0.386517	0.677434	0.036759
C60	C	0.084936	0.677441	0.001771
C61	C	0.017776	0.677445	0.005130
C62	C	0.017769	0.677454	-0.107103
C63	C	0.084922	0.677458	-0.110466
C64	C	0.118505	0.677446	-0.056026
N65	N	0.217134	0.677441	-0.010871
N66	N	0.187148	0.677442	-0.059466
C67	C	0.912725	0.677449	-0.045722
C68	C	0.984196	0.677450	-0.049301
C69	C	0.702128	0.677457	-0.238367
C70	C	0.702125	0.677460	-0.307330
C71	C	0.702147	0.880635	-0.035175
C72	C	0.702150	0.949595	-0.035175
C73	C	0.661004	0.756813	-0.377347
C74	C	0.661011	0.756811	-0.442142
C75	C	0.702134	0.677454	-0.436918
C76	C	0.743260	0.598094	-0.366894
C77	C	0.743257	0.598098	-0.302100
C78	C	0.743272	0.598079	-0.628197
C79	C	0.743270	0.598082	-0.692998
C80	C	0.661026	0.756792	-0.768239
C81	C	0.661023	0.756796	-0.703446
C82	C	0.702152	0.677437	-0.633427
C83	C	0.702145	0.677440	-0.563169
C84	C	0.702137	0.677450	-0.507174
C85	C	0.702150	0.677439	0.168021
C86	C	0.702153	0.677436	0.236983
C87	C	0.912717	0.474262	-0.045720
C88	C	0.984185	0.405303	-0.049299
C89	C	0.702142	0.474252	0.168022
C90	C	0.702143	0.405290	0.236985
C91	C	0.912728	0.474254	0.157474
C92	C	0.984199	0.405291	0.222857
C93	C	0.491550	0.880643	-0.227821
C94	C	0.420079	0.949605	-0.293204
C95	C	0.491561	0.880634	-0.024627
C96	C	0.420093	0.949593	-0.021047
C97	C	0.702136	0.880644	-0.238369
C98	C	0.702135	0.949607	-0.307332
C99	C	0.976624	0.372920	-0.088605
C100	C	1.043770	0.308135	-0.091983
C101	C	1.118475	0.275728	-0.056051
C102	C	1.126035	0.308117	-0.016744
C103	C	1.058890	0.372906	-0.013371
C104	C	0.743266	0.372903	0.306995
C105	C	0.743264	0.308114	0.371799
C106	C	0.702143	0.275709	0.366591
C107	C	0.661014	0.308102	0.296574
C108	C	0.661012	0.372894	0.231771
C109	C	1.058889	0.372908	0.211823
C110	C	1.126051	0.308119	0.273251
C111	C	1.118521	0.275711	0.345711
C112	C	1.043823	0.308101	0.356743
C113	C	0.976663	0.372893	0.295317
C114	C	0.345389	0.981996	-0.282170
C115	C	0.278227	1.046805	-0.343598
C116	C	0.285757	1.079216	-0.416058
C117	C	0.360454	1.046822	-0.427090
C118	C	0.427615	0.982019	-0.365663
C119	C	0.427654	0.981983	0.018252
C120	C	0.360508	1.046786	0.021612
C121	C	0.285803	1.079195	-0.014323
C122	C	0.278243	1.046803	-0.053627
C123	C	0.345388	0.982005	-0.056991
C124	C	0.743265	0.981991	-0.302100
C125	C	0.743279	1.046780	-0.366892
C126	C	0.702159	1.079188	-0.436915
C127	C	0.661028	1.046798	-0.442146
C128	C	0.661019	0.982005	-0.377354
H129	H	0.627523	0.281729	0.040554
H130	H	0.627527	0.399255	0.174768
Br131	Br	0.702153	0.187776	0.454546
H132	H	0.488477	0.955600	0.047520
Br133	Br	0.194684	1.167136	-0.009750
H134	H	0.112256	0.677461	-0.157528
Br135	Br	0.605218	1.090797	-0.537184
Br136	Br	0.432095	0.677419	0.110638
Br137	Br	0.432054	0.677465	-0.153924
H138	H	1.065035	0.399285	0.152828
H139	H	-0.009580	0.677462	-0.151425
Br140	Br	0.194602	1.167165	-0.499416
Br141	Br	1.227416	0.264173	0.258261
H142	H	0.366576	1.073220	-0.486095
Br143	Br	0.335112	0.938052	-0.110326
Br144	Br	1.209676	0.187779	0.429070
H145	H	1.037599	0.281771	-0.123991
Br146	Br	1.069166	0.416842	0.039982
H147	H	1.037704	0.281705	0.415749
H148	H	0.915850	0.399251	0.304311
Br149	Br	0.176850	1.090793	-0.102389
H150	H	0.776750	0.955614	-0.245089
Br151	Br	0.370786	1.090731	0.074958
Br152	Br	0.528977	0.938063	-0.380651
Br153	Br	0.335148	0.938021	-0.183838
H154	H	0.217411	1.073169	-0.334601
Br155	Br	-0.027787	0.677446	0.083573
H156	H	0.776753	0.399279	0.311250
Br157	Br	0.799100	1.090729	-0.359776
H158	H	0.627531	0.073173	0.040541
Br159	Br	0.605210	0.264114	0.289518
H160	H	0.702173	1.131947	-0.489667
Br161	Br	0.799078	0.490400	-0.207075
Br162	Br	0.799090	-0.061973	-0.133550
Br163	Br	0.799065	0.090771	-0.133565
Br164	Br	0.605187	0.938070	-0.384468
H165	H	0.776740	0.399285	-0.110890
Br166	Br	0.605202	0.416860	0.063219
Br167	Br	0.799064	0.264145	-0.133554
Br168	Br	0.130509	0.677427	0.075649
Br169	Br	0.605188	0.864518	-0.384445
H170	H	0.627533	-0.044384	0.040543
H171	H	0.292009	0.677449	-0.116432
H172	H	0.627533	0.821416	-0.707706
Br173	Br	0.273806	0.677422	0.118569
Br174	Br	0.605202	0.864510	-0.537166
H175	H	0.627539	0.821410	-0.825258
H176	H	1.186869	0.281723	0.012510
H177	H	0.776760	0.533456	-0.688737
Br178	Br	0.799054	0.490378	-0.533179
H179	H	0.915801	0.399305	-0.117876
Br180	Br	1.209594	0.187799	-0.060636
Br181	Br	0.799074	0.490394	-0.359803
H182	H	0.776759	0.281747	0.428804
