data_functionalizedCrystal
_audit_creation_method	'MofGen! by Chris Wilmer'
_symmetry_space_group_name_H-M	'P1'
_symmetry_Int_Tables_number	1
_symmetry_cell_setting	triclinic
loop_
_symmetry_equiv_pos_as_xyz
  x,y,z
_cell_length_a	13.339071
_cell_length_b	11.804365
_cell_length_c	10.654551
_cell_angle_alpha	78.050178
_cell_angle_beta	100.057320
_cell_angle_gamma	105.124167
loop_
_atom_site_label
_atom_site_type_symbol
_atom_site_fract_x
_atom_site_fract_y
_atom_site_fract_z
O1	O	1.367020	0.099022	0.612843
O2	O	1.071912	0.099023	0.530004
O3	O	1.226251	0.099023	0.390975
O4	O	1.212682	0.099022	0.751872
O5	O	1.185619	-0.099033	0.427525
O6	O	1.031280	-0.099033	0.566554
O7	O	1.326389	-0.099034	0.649393
Cu8	Cu	1.175124	-0.117117	0.611310
Cu9	Cu	1.223176	0.117107	0.568086
O10	O	1.172050	-0.099034	0.788422
C11	C	1.013809	-0.000004	0.534286
C12	C	0.901214	-0.000004	0.492576
C13	C	0.859603	-0.000008	0.362507
C14	C	0.753816	-0.000001	0.323313
C15	C	0.689629	-0.000001	0.414186
C16	C	0.731239	-0.000005	0.544260
C17	C	0.837038	-0.000002	0.583455
C18	C	0.667064	0.000005	0.635135
C19	C	0.708674	0.000001	0.765209
C20	C	0.814462	0.000003	0.804398
C21	C	0.878649	0.000002	0.713525
C22	C	0.561265	0.000002	0.595939
C23	C	0.538700	0.000008	0.816888
C24	C	0.644487	0.000001	0.856082
N25	N	1.141335	-0.281858	0.641714
C26	C	1.338115	-0.655807	0.464641
C27	C	1.363676	-0.531145	0.441635
C28	C	1.308093	-0.468817	0.491653
C29	C	1.226945	-0.531163	0.564681
C30	C	1.201387	-0.655837	0.587697
C31	C	1.171364	-0.468847	0.614709
C32	C	1.090216	-0.531193	0.687737
C33	C	1.064662	-0.655855	0.710749
C34	C	1.120246	-0.718183	0.660732
C35	C	1.196922	-0.344174	0.591692
C36	C	1.060194	-0.344204	0.714748
C37	C	1.034633	-0.468866	0.737754
C38	C	1.384492	-0.000003	0.645110
C39	C	1.497089	0.000004	0.686819
C40	C	1.204939	-0.000002	0.362115
C41	C	1.201959	0.000006	0.221664
N42	N	1.256974	0.281847	0.537675
C43	C	1.222709	0.107964	0.135756
C44	C	1.219897	0.107959	0.003788
C45	C	1.175590	-0.107973	0.043648
C46	C	1.178394	-0.107966	0.175613
C47	C	1.248294	0.232631	0.112743
C48	C	1.245482	0.232625	-0.019225
C49	C	1.193362	-0.000006	0.817281
C50	C	1.196344	-0.000006	0.957731
H51	H	0.486439	0.000009	0.890885
Cl52	Cl	0.932622	-0.547256	0.829560
Cl53	Cl	0.940299	-0.000001	0.248281
H54	H	1.262993	-0.293422	0.532233
Cl55	Cl	1.152275	-0.243690	0.283601
H56	H	1.383369	-0.706562	0.423932
H57	H	1.179460	0.271319	-0.080906
Cl58	Cl	1.155264	0.306538	0.134036
Cl59	Cl	1.011671	0.000122	0.762769
H60	H	0.998595	-0.706617	0.770224
Cl61	Cl	0.866774	0.000020	0.967915
Cl62	Cl	0.556638	0.000005	0.364912
Cl63	Cl	1.088106	-0.874908	0.689648
Cl64	Cl	0.990317	-0.265857	0.777637
H65	H	1.325382	0.280491	-0.050687
H66	H	1.330191	0.271311	0.160145
Cl67	Cl	0.701520	0.000032	0.159795
Cl68	Cl	0.508968	0.000005	0.432425
Cl69	Cl	1.340224	-0.312097	0.462726
Cl70	Cl	0.696810	0.000001	1.019597
Cl71	Cl	1.145964	-0.243701	-0.014255
Cl72	Cl	1.465685	-0.452770	0.349835
