data_functionalizedCrystal
_audit_creation_method	'MofGen! by Chris Wilmer'
_symmetry_space_group_name_H-M	'P1'
_symmetry_Int_Tables_number	1
_symmetry_cell_setting	triclinic
loop_
_symmetry_equiv_pos_as_xyz
  x,y,z
_cell_length_a	12.759401
_cell_length_b	12.759400
_cell_length_c	12.759393
_cell_angle_alpha	90.031564
_cell_angle_beta	90.018496
_cell_angle_gamma	90.014845
loop_
_atom_site_label
_atom_site_type_symbol
_atom_site_fract_x
_atom_site_fract_y
_atom_site_fract_z
Zn1	Zn	-1.606255	0.418200	-0.593981
Zn2	Zn	-1.606150	0.593919	-0.418301
Zn3	Zn	-1.430557	0.418255	-0.418321
Zn4	Zn	-1.430546	0.593838	-0.593943
O5	O	-1.518377	0.506053	-0.506137
O6	O	-1.753262	0.441520	-0.570685
O7	O	-1.582818	0.570673	-0.271283
O8	O	-1.453913	0.271226	-0.441647
O9	O	-1.753185	0.570620	-0.441614
O10	O	-1.582998	0.271186	-0.570704
O11	O	-1.453811	0.441614	-0.271297
O12	O	-1.283535	0.441535	-0.441609
O13	O	-1.453894	0.570482	-0.740969
O14	O	-1.283527	0.570536	-0.570638
O15	O	-1.582987	0.441442	-0.740997
O16	O	-1.582807	0.740929	-0.441577
O17	O	-1.453791	0.740870	-0.570620
C18	C	-1.245410	0.506033	-0.506122
C19	C	-1.128633	0.506050	-0.506141
C20	C	-1.518315	0.779020	-0.506115
C21	C	-1.518384	0.895797	-0.506140
C22	C	-1.792410	0.506073	-0.506152
C23	C	-1.909187	0.506082	-0.506158
C24	C	-1.073794	0.573328	-0.573215
C25	C	-0.964070	0.573342	-0.573227
C26	C	-0.964034	0.438796	-0.439081
C27	C	-1.073756	0.438778	-0.439075
C28	C	-1.073815	0.651010	-0.650660
C29	C	-0.964091	0.651024	-0.650672
C30	C	-1.518451	0.505947	-0.780170
C31	C	-1.518482	0.505902	-0.896947
C32	C	-1.518468	0.232019	-0.506182
C33	C	-1.518507	0.115243	-0.506201
C34	C	-1.585637	0.950655	-0.439022
C35	C	-1.585702	1.060379	-0.439054
C36	C	-1.451252	1.060377	-0.573327
C37	C	-1.451193	0.950655	-0.573299
C38	C	-1.663258	0.950657	-0.361498
C39	C	-1.663322	1.060381	-0.361530
C40	C	-1.585710	0.438704	-0.951825
C41	C	-1.585735	0.438666	-1.061549
C42	C	-1.451301	0.573033	-1.061507
C43	C	-1.451272	0.573064	-0.951785
C44	C	-1.663328	0.361131	-0.951851
C45	C	-1.663353	0.361093	-1.061575
C46	C	-1.518364	0.506083	-0.233169
C47	C	-1.518537	0.505832	-0.116393
H48	H	-1.118401	0.383987	-0.384464
C49	C	-1.399913	0.916783	-0.751153
C50	C	-1.377269	0.890359	-0.647083
H51	H	-1.354267	0.879564	-0.796704
H52	H	-1.470476	0.898724	-0.766572
H53	H	-1.390334	0.989984	-0.760763
H54	H	-1.386856	0.817159	-0.637471
H55	H	-1.306689	0.908412	-0.631659
H56	H	-0.930093	0.621980	-0.728024
H57	H	-1.740626	1.094325	-0.390742
H58	H	-1.641559	0.279767	-0.922095
C59	C	-1.762354	0.398556	-0.796293
C60	C	-1.767639	0.400502	-0.905891
H61	H	-1.826749	0.422871	-0.767921
H62	H	-1.749845	0.328874	-0.773329
H63	H	-1.706893	0.442620	-0.773302
H64	H	-1.823095	0.356432	-0.928882
H65	H	-1.780160	0.470195	-0.928864
C66	C	-0.795820	0.379090	-0.379517
C67	C	-0.903708	0.364866	-0.365352
H68	H	-0.758582	0.333453	-0.333990
H69	H	-0.777871	0.363791	-0.450125
H70	H	-0.777838	0.449670	-0.364024
H71	H	-0.921692	0.294288	-0.380852
H72	H	-0.921664	0.380158	-0.294728
C73	C	-1.009201	0.827421	-0.603076
C74	C	-0.923857	0.760835	-0.621057
H75	H	-0.984359	0.895208	-0.584788
H76	H	-1.050580	0.831916	-0.664803
H77	H	-1.050532	0.800304	-0.547428
H78	H	-0.882529	0.787948	-0.676710
H79	H	-0.882461	0.756344	-0.559322
H80	H	-1.744723	0.382886	-1.091353
H81	H	-1.396548	1.105056	-0.628005
C82	C	-1.175024	0.703863	-0.800236
C83	C	-1.114060	0.621721	-0.760554
H84	H	-1.199862	0.685783	-0.868081
H85	H	-1.232902	0.715900	-0.755013
H86	H	-1.133643	0.765612	-0.804543
H87	H	-1.155444	0.559974	-0.756240
H88	H	-1.056174	0.609672	-0.805790
C89	C	-1.399986	0.750963	-0.917955
C90	C	-1.377357	0.646917	-0.891465
H91	H	-1.354352	0.796555	-0.880712
H92	H	-1.390389	0.760547	-0.991142
H93	H	-1.470563	0.766354	-0.899959
H94	H	-1.306782	0.631524	-0.909468
H95	H	-1.386946	0.637329	-0.818262
C96	C	-1.839718	0.995631	-0.408935
C97	C	-1.773061	0.910339	-0.391004
H98	H	-1.907501	0.970738	-0.427156
H99	H	-1.844196	1.037030	-0.347209
H100	H	-1.812667	1.036960	-0.464614
H101	H	-1.800108	0.869014	-0.335319
H102	H	-1.768586	0.868923	-0.452737
H103	H	-1.634133	0.916710	-0.284172
C104	C	-1.616094	1.015416	-0.185020
C105	C	-1.633968	1.100705	-0.251678
H106	H	-1.597964	1.040312	-0.117208
H107	H	-1.677812	0.974016	-0.180629
H108	H	-1.560368	0.974087	-0.212011
H109	H	-1.689699	1.142030	-0.224690
H110	H	-1.572243	1.142122	-0.256066
C111	C	-1.391656	0.632648	-1.229686
C112	C	-1.377435	0.646864	-1.121789
H113	H	-1.346058	0.678237	-1.266897
H114	H	-1.376305	0.562060	-1.247677
H115	H	-1.462250	0.648024	-1.247657
H116	H	-1.306843	0.631480	-1.103816
H117	H	-1.392779	0.717469	-1.103790
C118	C	-1.521337	0.238260	-1.073626
C119	C	-1.624063	0.256726	-1.107540
H120	H	-1.497083	0.173827	-1.101998
H121	H	-1.477266	0.293671	-1.096607
H122	H	-1.519998	0.234742	-0.999272
H123	H	-1.625400	0.260252	-1.181894
H124	H	-1.668144	0.201301	-1.084565
H125	H	-1.107829	0.728262	-0.621376
