data_functionalizedCrystal
_audit_creation_method	'MofGen! by Chris Wilmer'
_symmetry_space_group_name_H-M	'P1'
_symmetry_Int_Tables_number	1
_symmetry_cell_setting	triclinic
loop_
_symmetry_equiv_pos_as_xyz
  x,y,z
_cell_length_a	21.295419
_cell_length_b	21.295417
_cell_length_c	18.050583
_cell_angle_alpha	89.963359
_cell_angle_beta	89.981783
_cell_angle_gamma	90.045308
loop_
_atom_site_label
_atom_site_type_symbol
_atom_site_fract_x
_atom_site_fract_y
_atom_site_fract_z
Zn1	Zn	0.962316	-0.250339	-0.419891
Zn2	Zn	1.462316	0.249661	0.080109
Zn3	Zn	0.962230	-0.355619	-0.295692
Zn4	Zn	1.462230	0.144381	0.204308
Zn5	Zn	0.857051	-0.250394	-0.295715
Zn6	Zn	1.357051	0.249606	0.204285
Zn7	Zn	0.857009	-0.355602	-0.419840
Zn8	Zn	1.357009	0.144398	0.080160
O9	O	0.909652	-0.302988	-0.357784
O10	O	1.409652	0.197012	0.142216
O11	O	1.050394	-0.264289	-0.403427
O12	O	1.550394	0.235711	0.096573
O13	O	0.948260	-0.341691	-0.191770
O14	O	1.448260	0.158309	0.308230
O15	O	0.871068	-0.162298	-0.312218
O16	O	1.371068	0.337702	0.187782
O17	O	1.050331	-0.341637	-0.312178
O18	O	1.550331	0.158363	0.187822
O19	O	0.948406	-0.162257	-0.403450
O20	O	1.448406	0.337743	0.096550
O21	O	0.870985	-0.264383	-0.191787
O22	O	1.370985	0.235617	0.308213
O23	O	0.768956	-0.264366	-0.312169
O24	O	1.268956	0.235634	0.187831
O25	O	0.870997	-0.341608	-0.523772
O26	O	1.370997	0.158392	-0.023772
O27	O	0.768925	-0.341662	-0.403363
O28	O	1.268925	0.158338	0.096637
O29	O	0.948365	-0.264272	-0.523809
O30	O	1.448365	0.235728	-0.023809
O31	O	0.948219	-0.443706	-0.312129
O32	O	1.448219	0.056294	0.187871
O33	O	0.870913	-0.443693	-0.403341
O34	O	1.370913	0.056307	0.096659
C35	C	0.746100	-0.303019	-0.357764
C36	C	1.246100	0.196981	0.142236
C37	C	0.676132	-0.303047	-0.357772
C38	C	1.176132	0.196953	0.142228
C39	C	0.643321	-0.262837	-0.405359
C40	C	1.143321	0.237163	0.094641
C41	C	0.577578	-0.262820	-0.405362
C42	C	1.077578	0.237180	0.094638
C43	C	0.544649	-0.303024	-0.357786
C44	C	1.044649	0.196976	0.142214
C45	C	0.577469	-0.343236	-0.310190
C46	C	1.077469	0.156764	0.189810
C47	C	0.643210	-0.343248	-0.310183
C48	C	1.143210	0.156752	0.189817
N49	N	0.441375	-0.358103	-0.351982
N50	N	0.941375	0.141897	0.148018
N51	N	0.378923	-0.358090	-0.351993
N52	N	0.878923	0.141910	0.148007
C53	C	0.346575	-0.302992	-0.357802
C54	C	0.846575	0.197008	0.142198
N55	N	0.379037	-0.247905	-0.363615
N56	N	0.879037	0.252095	0.136385
N57	N	0.441494	-0.247918	-0.363608
N58	N	0.941494	0.252082	0.136392
C59	C	0.473364	-0.303016	-0.357788
C60	C	0.973364	0.196984	0.142212
C61	C	0.242478	-0.262760	-0.405394
C62	C	0.742478	0.237240	0.094606
C63	C	0.176734	-0.262742	-0.405392
C64	C	0.676734	0.237258	0.094608
C65	C	0.176626	-0.343164	-0.310224
C66	C	0.676626	0.156836	0.189776
C67	C	0.242368	-0.343176	-0.310223
C68	C	0.742368	0.156824	0.189777
C69	C	0.275290	-0.302975	-0.357812
C70	C	0.775290	0.197025	0.142188
C71	C	0.909569	-0.466540	-0.357743
C72	C	1.409569	0.033460	0.142257
C73	C	0.909591	-0.536508	-0.357751
C74	C	1.409591	-0.036508	0.142249
C75	C	0.949880	-0.569360	-0.310305
C76	C	1.449880	-0.069360	0.189695
C77	C	0.949910	-0.635103	-0.310322
C78	C	1.449910	-0.135103	0.189678
C79	C	0.909639	-0.667991	-0.357776
C80	C	1.409639	-0.167991	0.142224
C81	C	0.869348	-0.635131	-0.405231
C82	C	1.369348	-0.135131	0.094769
C83	C	0.869324	-0.569389	-0.405218
C84	C	1.369324	-0.069389	0.094782
N85	N	0.854572	-0.771270	-0.363431
N86	N	1.354572	-0.271270	0.136569
N87	N	0.854596	-0.833722	-0.363439
N88	N	1.354596	-0.333722	0.136561
C89	C	0.909710	-0.866065	-0.357819
C90	C	1.409710	-0.366065	0.142181
N91	N	0.964799	-0.833598	-0.352176
N92	N	1.464799	-0.333598	0.147824
N93	N	0.964774	-0.771141	-0.352165
N94	N	1.464774	-0.271141	0.147835
C95	C	0.909661	-0.739276	-0.357796
C96	C	1.409661	-0.239276	0.142204
C97	C	0.950034	-0.970203	-0.310389
C98	C	1.450034	-0.470203	0.189611
C99	C	0.950065	-1.035947	-0.310411
C100	C	1.450065	-0.535947	0.189589
C101	C	0.869497	-1.035973	-0.405316
C102	C	1.369497	-0.535973	0.094684
C103	C	0.869472	-0.970231	-0.405298
C104	C	1.369472	-0.470231	0.094702
C105	C	0.909739	-0.937350	-0.357830
C106	C	1.409739	-0.437350	0.142170
C107	C	1.073842	-0.302959	-0.357806
C108	C	1.573842	0.197041	0.142194
C109	C	1.143810	-0.302946	-0.357815
C110	C	1.643810	0.197054	0.142185
C111	C	0.909686	-0.302932	-0.551490
C112	C	1.409686	0.197068	-0.051490
C113	C	0.909700	-0.302908	-0.634036
C114	C	1.409700	0.197092	-0.134036
C115	C	0.909752	-0.138798	-0.357842
C116	C	1.409752	0.361202	0.142158
C117	C	0.909794	-0.068830	-0.357867
C118	C	1.409794	0.431170	0.142133
C119	C	0.951813	-0.260810	-0.882882
C120	C	1.451813	0.239190	-0.382882
C121	C	0.967171	-0.318245	-0.833463
C122	C	1.467171	0.181755	-0.333463
C123	C	0.909741	-0.302868	-0.931157
C124	C	1.409741	0.197132	-0.431157
C125	C	0.894392	-0.245457	-0.833494
C126	C	1.394392	0.254543	-0.333494
C127	C	0.909723	-0.302885	-0.785171
C128	C	1.409723	0.197115	-0.285171
C129	C	0.925129	-0.360333	-0.882825
C130	C	1.425129	0.139667	-0.382825
C131	C	0.852324	-0.287506	-0.882860
C132	C	1.352324	0.212494	-0.382860
C133	C	0.867660	-0.344980	-0.833463
C134	C	1.367660	0.155020	-0.333463
C135	C	0.909753	-0.302858	-1.015255
C136	C	1.409753	0.197142	-0.515255
C137	C	0.909710	-0.302902	-0.701075
C138	C	1.409710	0.197098	-0.201075
C139	C	0.909654	-0.302999	-0.164832
C140	C	1.409654	0.197001	0.335168
C141	C	0.909761	-0.302846	-0.082287
C142	C	1.409761	0.197154	0.417713
H143	H	0.669925	-0.375992	-0.271431
H144	H	1.169925	0.124008	0.228569
H145	H	0.982720	-0.661856	-0.271687
H146	H	1.482720	-0.161856	0.228313
F147	F	0.141585	-0.385949	-0.259585
F148	F	0.641585	0.114051	0.240415
H149	H	0.836710	-1.062750	-0.443957
H150	H	1.336710	-0.562750	0.056043
H151	H	0.836662	-0.943481	-0.443929
H152	H	1.336662	-0.443481	0.056071
F153	F	0.998361	-0.214371	-0.911245
F154	F	1.498361	0.285629	-0.411245
H155	H	1.015720	-0.331248	-0.811763
H156	H	1.515720	0.168752	-0.311763
H157	H	0.938173	-0.408901	-0.904404
H158	H	1.438173	0.091099	-0.404404
F159	F	0.821144	-0.391529	-0.805281
F160	F	1.321144	0.108471	-0.305281
F161	F	0.788885	-0.270486	-0.911246
F162	F	1.288885	0.229514	-0.411246
H163	H	0.881419	-0.196899	-0.811822
H164	H	1.381419	0.303101	-0.311822
H165	H	0.982670	-0.542591	-0.271657
H166	H	1.482670	-0.042591	0.228343
F167	F	0.678355	-0.220051	-0.456007
F168	F	1.178355	0.279949	0.043993
F169	F	0.826491	-0.670133	-0.455737
F170	F	1.326491	-0.170133	0.044263
F171	F	0.277518	-0.219972	-0.456038
F172	F	0.777518	0.280028	0.043962
F173	F	0.826441	-0.534425	-0.455718
F174	F	1.326441	-0.034425	0.044282
H175	H	0.550858	-0.230074	-0.444111
H176	H	1.050858	0.269926	0.055889
F177	F	0.141814	-0.219941	-0.456040
F178	F	0.641814	0.280059	0.043960
F179	F	0.992952	-1.070910	-0.259916
F180	F	1.492952	-0.570910	0.240084
H181	H	0.269084	-0.375922	-0.271476
H182	H	0.769084	0.124078	0.228524
H183	H	0.550654	-0.375970	-0.271453
H184	H	1.050654	0.124030	0.228547
H185	H	0.982825	-0.943430	-0.271741
H186	H	1.482825	-0.443430	0.228259
