data_functionalizedCrystal
_audit_creation_method	'MofGen! by Chris Wilmer'
_symmetry_space_group_name_H-M	'P1'
_symmetry_Int_Tables_number	1
_symmetry_cell_setting	triclinic
loop_
_symmetry_equiv_pos_as_xyz
  x,y,z
_cell_length_a	19.077236
_cell_length_b	16.959447
_cell_length_c	19.077068
_cell_angle_alpha	92.264979
_cell_angle_beta	94.708605
_cell_angle_gamma	87.680436
loop_
_atom_site_label
_atom_site_type_symbol
_atom_site_fract_x
_atom_site_fract_y
_atom_site_fract_z
Zn1	Zn	1.066448	-0.505826	-0.237430
Zn2	Zn	1.566448	-0.005826	0.262570
Zn3	Zn	1.061621	-0.378739	-0.355331
Zn4	Zn	1.561621	0.121261	0.144669
Zn5	Zn	0.948559	-0.368547	-0.242185
Zn6	Zn	1.448559	0.131453	0.257815
Zn7	Zn	0.943784	-0.505760	-0.360009
Zn8	Zn	1.443784	-0.005760	0.139991
O9	O	1.005103	-0.439718	-0.298739
O10	O	1.505103	0.060282	0.201261
O11	O	1.164460	-0.493260	-0.249122
O12	O	1.664460	0.006740	0.250878
O13	O	1.046602	-0.266776	-0.340354
O14	O	1.546602	0.233224	0.159646
O15	O	0.968216	-0.382519	-0.142902
O16	O	1.468216	0.117481	0.357098
O17	O	1.160914	-0.399890	-0.335744
O18	O	1.660914	0.100110	0.164256
O19	O	1.054828	-0.483377	-0.139409
O20	O	1.554828	0.016623	0.360591
O21	O	0.963536	-0.259288	-0.257226
O22	O	1.463536	0.240712	0.242774
O23	O	0.849274	-0.382455	-0.261762
O24	O	1.349274	0.117545	0.238238
O25	O	0.960077	-0.616379	-0.343716
O26	O	1.460077	-0.116379	0.156284
O27	O	0.845766	-0.483265	-0.348327
O28	O	1.345766	0.016735	0.151673
O29	O	1.050198	-0.616427	-0.253658
O30	O	1.550198	-0.116427	0.246342
O31	O	1.041972	-0.399826	-0.454604
O32	O	1.541972	0.100174	0.045396
O33	O	0.955397	-0.493148	-0.458041
O34	O	1.455397	0.006852	0.041959
C35	C	0.821940	-0.431747	-0.306069
C36	C	1.321940	0.068253	0.193931
C37	C	0.743582	-0.428357	-0.309222
C38	C	1.243582	0.071643	0.190778
C39	C	0.708613	-0.475457	-0.265675
C40	C	1.208613	0.024543	0.234325
C41	C	0.634987	-0.472265	-0.268634
C42	C	1.134987	0.027735	0.231366
C43	C	0.596331	-0.421976	-0.315144
C44	C	1.096331	0.078024	0.184856
C45	C	0.631305	-0.374870	-0.358692
C46	C	1.131305	0.125130	0.141308
C47	C	0.704930	-0.378059	-0.355729
C48	C	1.204930	0.121941	0.144271
C49	C	0.375938	-0.407213	-0.328830
C50	C	0.875938	0.092787	0.171170
C51	C	0.302308	-0.404029	-0.331792
C52	C	0.802308	0.095971	0.168208
C53	C	0.305995	-0.501423	-0.241732
C54	C	0.805995	-0.001423	0.258268
C55	C	0.379621	-0.504611	-0.238777
C56	C	0.879621	-0.004611	0.261223
C57	C	0.414589	-0.457503	-0.282322
C58	C	0.914589	0.042497	0.217678
N59	N	0.521073	-0.418713	-0.318171
N60	N	1.021073	0.081287	0.181829
N61	N	0.489846	-0.460762	-0.279291
N62	N	0.989846	0.039238	0.220709
C63	C	1.005143	-0.645885	-0.298679
C64	C	1.505143	-0.145885	0.201321
C65	C	1.005160	-0.733741	-0.298653
C66	C	1.505160	-0.233741	0.201347
C67	C	0.961977	-1.101324	-0.255295
C68	C	1.461977	-0.601324	0.244705
C69	C	1.048474	-1.109109	-0.341857
C70	C	1.548474	-0.609109	0.158143
C71	C	1.048461	-1.026564	-0.341874
C72	C	1.548461	-0.526564	0.158126
C73	C	1.005205	-0.981394	-0.298602
C74	C	1.505205	-0.481394	0.201398
C75	C	0.961961	-1.018771	-0.255312
C76	C	1.461961	-0.518771	0.244688
C77	C	1.091699	-0.989181	-0.385168
C78	C	1.591699	-0.489181	0.114832
C79	C	1.091687	-0.906630	-0.385187
C80	C	1.591687	-0.406630	0.114813
C81	C	1.048434	-0.861459	-0.341911
C82	C	1.548434	-0.361459	0.158089
C83	C	1.005189	-0.898841	-0.298619
C84	C	1.505189	-0.398841	0.201381
C85	C	0.961932	-0.853671	-0.255346
C86	C	1.461932	-0.353671	0.244654
C87	C	0.918691	-0.891051	-0.212050
C88	C	1.418691	-0.391051	0.287950
C89	C	0.918708	-0.973600	-0.212036
C90	C	1.418708	-0.473600	0.287964
C91	C	1.048417	-0.778911	-0.341925
C92	C	1.548417	-0.278911	0.158075
C93	C	0.961917	-0.771118	-0.255364
C94	C	1.461917	-0.271118	0.244636
C95	C	1.188981	-0.447720	-0.291381
C96	C	1.688981	0.052280	0.208619
C97	C	1.267339	-0.451130	-0.288245
C98	C	1.767339	0.048870	0.211755
C99	C	0.997662	-0.447604	-0.481901
C100	C	1.497662	0.052396	0.018099
C101	C	0.994543	-0.451007	-0.560256
C102	C	1.494543	0.048993	-0.060256
C103	C	1.005106	-0.234352	-0.298746
C104	C	1.505106	0.265648	0.201254
C105	C	1.005233	-0.146493	-0.298568
C106	C	1.505233	0.353507	0.201432
C107	C	1.038187	-0.404062	-0.595253
C108	C	1.538187	0.095938	-0.095253
C109	C	1.035257	-0.407268	-0.668875
C110	C	1.535257	0.092732	-0.168875
C111	C	0.988680	-0.457415	-0.707500
C112	C	1.488680	0.042585	-0.207500
C113	C	0.945033	-0.504366	-0.672498
C114	C	1.445033	-0.004366	-0.172498
C115	C	0.947967	-0.501164	-0.598876
C116	C	1.447967	-0.001164	-0.098876
C117	C	0.975072	-0.472201	-0.927879
C118	C	1.475072	0.027799	-0.427879
C119	C	0.972141	-0.475398	-1.001506
C120	C	1.472141	0.024602	-0.501506
C121	C	1.062366	-0.378300	-0.997879
C122	C	1.562366	0.121700	-0.497879
C123	C	1.065292	-0.375099	-0.924256
C124	C	1.565292	0.124901	-0.424256
C125	C	1.021649	-0.422053	-0.889260
C126	C	1.521649	0.077947	-0.389260
N127	N	0.985683	-0.460691	-0.782754
N128	N	1.485683	0.039309	-0.282754
N129	N	1.024650	-0.418781	-0.814007
N130	N	1.524650	0.081219	-0.314007
C131	C	1.012593	-0.431819	-0.114861
C132	C	1.512593	0.068181	0.385139
C133	C	1.015785	-0.428452	-0.036503
C134	C	1.515785	0.071548	0.463497
H135	H	0.277516	-0.539775	-0.206279
H136	H	0.777516	-0.039775	0.293721
H137	H	1.083686	-1.145891	-0.377093
H138	H	1.583686	-0.645891	0.122907
H139	H	0.883468	-0.854264	-0.176821
H140	H	1.383468	-0.354264	0.323179
Cl141	Cl	0.757202	-0.538685	-0.207206
Cl142	Cl	1.257202	-0.038685	0.292794
H143	H	1.103219	-0.334265	-0.892809
H144	H	1.603219	0.165735	-0.392809
Cl145	Cl	1.117233	-0.319282	-1.041877
Cl146	Cl	1.617233	0.180718	-0.541877
H147	H	0.270836	-0.363078	-0.369669
H148	H	0.770836	0.136922	0.130331
Cl149	Cl	0.864349	-1.020596	-0.157615
Cl150	Cl	1.364349	-0.520596	0.342385
Cl151	Cl	0.920204	-0.531227	-0.883894
Cl152	Cl	1.420204	-0.031227	-0.383894
H153	H	1.126908	-1.025964	-0.420407
H154	H	1.626908	-0.525964	0.079593
H155	H	1.076112	-0.363223	-0.563810
H156	H	1.576112	0.136777	-0.063810
Cl157	Cl	0.913572	-0.538434	-1.050062
Cl158	Cl	1.413572	-0.038434	-0.550062
H159	H	0.404400	-0.368855	-0.364289
H160	H	0.904400	0.131145	0.135711
H161	H	0.926773	-1.131762	-0.220043
H162	H	1.426773	-0.631762	0.279957
Cl163	Cl	1.102768	-0.731922	-0.396355
Cl164	Cl	1.602768	-0.231922	0.103645
Cl165	Cl	0.582709	-0.311644	-0.417158
Cl166	Cl	1.082709	0.188356	0.082842
Cl167	Cl	1.090130	-0.348250	-0.712869
Cl168	Cl	1.590130	0.151750	-0.212869
H169	H	0.907112	-0.545200	-0.703951
H170	H	1.407112	-0.045200	-0.203951
H171	H	0.411090	-0.545565	-0.200906
H172	H	0.911090	-0.045565	0.299094
H173	H	0.606518	-0.510620	-0.233175
H174	H	1.106518	-0.010620	0.266825
Cl175	Cl	0.748891	-0.318845	-0.410476
Cl176	Cl	1.248891	0.181155	0.089524
Cl177	Cl	0.907538	-0.714340	-0.200956
Cl178	Cl	1.407538	-0.214340	0.299044
Cl179	Cl	1.146051	-0.859646	-0.439612
Cl180	Cl	1.646051	-0.359646	0.060388
Cl181	Cl	0.893100	-0.560186	-0.554879
Cl182	Cl	1.393100	-0.060186	-0.054879
