data_functionalizedCrystal
_audit_creation_method	'MofGen! by Chris Wilmer'
_symmetry_space_group_name_H-M	'P1'
_symmetry_Int_Tables_number	1
_symmetry_cell_setting	triclinic
loop_
_symmetry_equiv_pos_as_xyz
  x,y,z
_cell_length_a	15.995343
_cell_length_b	15.995350
_cell_length_c	15.186229
_cell_angle_alpha	89.998487
_cell_angle_beta	90.000963
_cell_angle_gamma	83.490779
loop_
_atom_site_label
_atom_site_type_symbol
_atom_site_fract_x
_atom_site_fract_y
_atom_site_fract_z
O1	O	1.110988	0.107894	-0.073136
O2	O	0.867212	0.121229	-0.073156
O3	O	0.995764	-0.007326	-0.073145
O4	O	0.982436	0.236449	-0.073147
O5	O	0.995755	-0.007328	0.073313
O6	O	0.867204	0.121227	0.073301
O7	O	1.110980	0.107893	0.073321
Zn8	Zn	0.989090	0.114559	0.096564
Zn9	Zn	0.989102	0.114562	-0.096399
O10	O	0.982428	0.236448	0.073310
C11	C	0.836013	0.120678	0.000070
C12	C	0.743062	0.119028	0.000062
C13	C	0.572876	0.116035	0.000073
C14	C	0.549530	0.023238	0.000074
C15	C	0.452852	0.021492	0.000412
C16	C	0.405316	0.113086	0.000084
C17	C	0.434403	0.159745	0.083551
C18	C	0.531195	0.160846	0.083616
C19	C	0.531115	0.162207	-0.082939
C20	C	0.434621	0.158781	-0.084031
C21	C	0.310618	0.111425	0.000093
C22	C	0.667574	0.117699	0.000070
C23	C	0.995209	-0.038522	0.000082
C24	C	0.993557	-0.131472	0.000077
C25	C	0.987625	-0.469220	0.000080
C26	C	0.896072	-0.421783	-0.000257
C27	C	0.897725	-0.325093	0.000074
C28	C	0.990567	-0.301659	0.000078
C29	C	1.035719	-0.342739	0.083714
C30	C	1.033419	-0.439375	0.083784
C31	C	1.035320	-0.439731	-0.082765
C32	C	1.035299	-0.342785	-0.083870
C33	C	0.992235	-0.206962	0.000080
C34	C	0.985960	-0.563917	0.000083
C35	C	1.142179	0.108444	0.000094
C36	C	1.235130	0.110093	0.000096
C37	C	0.982983	0.267643	0.000081
C38	C	0.984635	0.360594	0.000080
N39	N	0.989089	0.114557	0.228257
N40	N	0.989110	0.114557	-0.228092
C41	C	1.046031	0.057652	0.453985
C42	C	1.046034	0.057650	0.546175
C43	C	0.932162	0.171465	0.546173
C44	C	0.932156	0.171462	0.453986
C45	C	0.989095	0.114557	0.407894
C46	C	0.989104	0.114558	0.592271
C47	C	0.989106	0.114556	0.692227
C48	C	0.989092	0.114557	0.307931
H49	H	0.434412	-0.014863	0.060595
N50	N	0.564786	0.120784	0.162191
N51	N	0.516718	0.092207	0.216598
H52	H	0.540437	0.063912	0.272094
N53	N	0.873996	0.229581	0.593259
N54	N	0.822030	0.202986	0.644705
H55	H	0.780950	0.244031	0.677959
H56	H	0.885788	0.217801	0.416455
H57	H	0.402556	0.227156	0.086420
N58	N	0.548682	0.247896	-0.083972
N59	N	0.489598	0.306146	-0.082085
H60	H	0.502006	0.366664	-0.082811
N61	N	1.104184	-0.000492	0.406919
N62	N	1.156176	0.026056	0.355471
H63	H	1.197247	-0.015020	0.322242
N64	N	0.997791	-0.465506	-0.162293
N65	N	0.994311	-0.541913	-0.177052
H66	H	0.967801	-0.560119	-0.233216
N67	N	0.429003	-0.024322	-0.074639
N68	N	0.483812	-0.055229	-0.127634
H69	H	0.466974	-0.087589	-0.180641
N70	N	1.120005	-0.479559	-0.083488
N71	N	1.180052	-0.435933	-0.081391
H72	H	1.239859	-0.464062	-0.081898
H73	H	1.092395	0.011312	0.583700
N74	N	0.584665	-0.021876	-0.075010
N75	N	0.627326	0.013833	-0.129398
H76	H	0.652144	-0.018027	-0.182430
H77	H	1.100635	-0.471625	0.087582
H78	H	0.578511	-0.012146	0.059841
H79	H	0.862232	-0.296669	-0.059881
H80	H	0.414307	0.127730	0.145904
N81	N	0.549470	0.246215	0.088086
N82	N	0.490761	0.304793	0.091153
H83	H	0.503664	0.365084	0.094317
N84	N	0.566606	0.125547	-0.162351
N85	N	0.643574	0.124764	-0.177087
H86	H	0.668650	0.098888	-0.233175
N87	N	1.120233	-0.323511	-0.090187
N88	N	1.171516	-0.345402	-0.030118
H89	H	1.231504	-0.331786	-0.034571
H90	H	0.401664	0.225613	-0.089330
H91	H	0.859483	-0.440313	-0.060234
N92	N	0.411335	0.116155	-0.161492
N93	N	0.373296	0.052359	-0.154842
H94	H	0.356843	0.022254	-0.209547
H95	H	0.859639	-0.441377	0.059381
H96	H	0.861986	-0.297228	0.060124
N97	N	0.992083	-0.462337	0.162194
N98	N	0.926631	-0.497969	0.156993
H99	H	0.897433	-0.514182	0.212370
H100	H	1.103928	-0.328615	0.086828
N101	N	0.996364	-0.307132	0.161785
N102	N	0.935073	-0.251513	0.156044
H103	H	0.907273	-0.226365	0.211180
H104	H	1.002287	-0.315535	-0.145742
