data_functionalizedCrystal
_audit_creation_method	'MofGen! by Chris Wilmer'
_symmetry_space_group_name_H-M	'P1'
_symmetry_Int_Tables_number	1
_symmetry_cell_setting	triclinic
loop_
_symmetry_equiv_pos_as_xyz
  x,y,z
_cell_length_a	10.540535
_cell_length_b	9.616153
_cell_length_c	10.654551
_cell_angle_alpha	90.003695
_cell_angle_beta	84.504502
_cell_angle_gamma	89.999812
loop_
_atom_site_label
_atom_site_type_symbol
_atom_site_fract_x
_atom_site_fract_y
_atom_site_fract_z
O1	O	1.685823	0.115560	0.176969
O2	O	1.316403	0.115579	0.193651
O3	O	1.509606	0.115570	0.002573
O4	O	1.492620	0.115569	0.368046
O5	O	1.509598	-0.115722	0.002560
O6	O	1.316396	-0.115713	0.193637
O7	O	1.685815	-0.115731	0.176955
Zn8	Zn	1.501104	-0.152445	0.185294
Zn9	Zn	1.501114	0.152292	0.185312
O10	O	1.492613	-0.115722	0.368033
C11	C	1.269097	-0.000065	0.192394
C12	C	1.128150	-0.000057	0.188655
N13	N	1.501107	-0.360419	0.185281
C14	C	1.091529	-0.000063	0.049145
C15	C	0.944930	-0.000601	0.045210
C16	C	0.918787	-0.131896	0.252331
C17	C	1.065551	-0.131993	0.255299
C18	C	1.065443	0.131038	0.257345
C19	C	0.919099	0.132757	0.250893
C20	C	1.604844	-0.580751	0.083421
C21	C	1.604564	-0.419583	0.083032
C22	C	1.368412	-0.418943	0.155474
C23	C	1.369029	-0.580161	0.154760
C24	C	1.528903	-0.580295	0.317306
C25	C	1.531898	-0.419067	0.316443
C26	C	1.733122	-0.000085	0.178212
C27	C	1.874069	-0.000083	0.181951
C28	C	1.508355	-0.000073	-0.044232
C29	C	1.504623	-0.000063	-0.183676
N30	N	1.501122	0.360266	0.185315
C31	C	1.502876	0.126011	-0.249181
C32	C	1.499358	0.126005	-0.380203
C33	C	1.499339	-0.126162	-0.380203
C34	C	1.502848	-0.126154	-0.249183
C35	C	1.504651	0.252102	-0.183675
C36	C	1.502905	0.378187	-0.249180
C37	C	1.499388	0.378180	-0.380202
C38	C	1.497615	0.252089	-0.445718
C39	C	1.493864	-0.000077	0.414838
C40	C	1.497596	-0.000077	0.554282
H41	H	1.133520	0.094449	-0.004422
N42	N	1.497636	0.506968	-0.447114
N43	N	1.585015	0.535081	-0.530994
H44	H	1.583790	0.626043	-0.578249
H45	H	1.105736	-0.230902	0.207758
H46	H	1.461334	-0.378790	0.395907
H47	H	1.494732	0.252095	-0.552402
N48	N	1.269216	-0.629145	0.244217
N49	N	1.251886	-0.756842	0.259621
H50	H	1.181389	-0.791435	0.322792
H51	H	1.623659	-0.620949	0.345665
H52	H	0.887899	-0.230368	0.204034
N53	N	1.094387	-0.139047	0.383599
N54	N	1.006150	-0.143892	0.470664
H55	H	1.026509	-0.148887	0.561274
N56	N	1.269165	-0.370872	0.246001
N57	N	1.156407	-0.406981	0.237399
H58	H	1.086313	-0.373030	0.301334
H59	H	1.507518	0.252121	-0.076991
N60	N	1.497525	-0.254963	-0.447103
N61	N	1.408586	-0.339375	-0.421694
H62	H	1.407305	-0.430346	-0.468940
N63	N	1.093208	0.132673	0.386115
N64	N	1.004399	0.129692	0.472684
H65	H	1.024010	0.130840	0.563626
H66	H	1.504336	0.480845	-0.195827
H67	H	1.135002	-0.094449	-0.003537
N68	N	1.338564	-0.627364	0.033952
N69	N	1.416176	-0.700863	-0.032752
H70	H	1.394662	-0.734196	-0.118077
H71	H	0.916493	-0.095648	-0.009573
N72	N	0.883229	0.255084	0.186641
N73	N	0.824716	0.244578	0.090432
H74	H	0.799371	0.330970	0.045052
H75	H	0.871395	-0.136426	0.353010
N76	N	1.434020	-0.628144	0.412435
N77	N	1.346275	-0.705682	0.383324
H78	H	1.279258	-0.739480	0.450499
N79	N	1.504625	-0.254919	-0.182238
N80	N	1.417255	-0.283025	-0.098348
H81	H	1.418505	-0.373967	-0.051063
N82	N	0.908164	0.117920	-0.023832
N83	N	0.990851	0.201613	-0.069443
H84	H	0.964893	0.285322	-0.118209
H85	H	1.107921	0.230982	0.213817
N86	N	0.857583	0.143256	0.376112
N87	N	0.882215	0.243088	0.444894
H88	H	0.838772	0.250495	0.533337
H89	H	1.703164	-0.380014	0.100957
H90	H	1.703774	-0.619516	0.101077
N91	N	1.582765	-0.631572	-0.038741
N92	N	1.666265	-0.702178	-0.100895
H93	H	1.650668	-0.738072	-0.187172
H94	H	1.586693	-0.381028	-0.014900
N95	N	1.337187	-0.368352	0.036024
N96	N	1.234651	-0.403299	-0.004991
H97	H	1.212603	-0.367575	-0.089358
N98	N	1.654363	-0.371077	0.344774
N99	N	1.718793	-0.293964	0.268716
H100	H	1.805285	-0.260061	0.288720
