data_functionalizedCrystal
_audit_creation_method	'MofGen! by Chris Wilmer'
_symmetry_space_group_name_H-M	'P1'
_symmetry_Int_Tables_number	1
_symmetry_cell_setting	triclinic
loop_
_symmetry_equiv_pos_as_xyz
  x,y,z
_cell_length_a	18.215407
_cell_length_b	19.121063
_cell_length_c	18.215399
_cell_angle_alpha	92.409843
_cell_angle_beta	89.982632
_cell_angle_gamma	92.466339
loop_
_atom_site_label
_atom_site_type_symbol
_atom_site_fract_x
_atom_site_fract_y
_atom_site_fract_z
Zn1	Zn	1.112557	-0.279669	-0.428551
Zn2	Zn	1.612557	0.220331	0.071449
Zn3	Zn	1.107209	-0.397123	-0.310727
Zn4	Zn	1.607209	0.102877	0.189273
Zn5	Zn	0.989489	-0.279686	-0.305504
Zn6	Zn	1.489489	0.220314	0.194496
Zn7	Zn	0.984201	-0.397078	-0.433755
Zn8	Zn	1.484201	0.102922	0.066245
O9	O	1.048364	-0.338389	-0.369634
O10	O	1.548364	0.161611	0.130366
O11	O	1.214831	-0.295261	-0.412929
O12	O	1.714831	0.204739	0.087071
O13	O	1.091568	-0.381571	-0.207051
O14	O	1.591568	0.118429	0.292949
O15	O	1.010265	-0.181399	-0.317462
O16	O	1.510265	0.318601	0.182538
O17	O	1.210902	-0.381555	-0.326364
O18	O	1.710902	0.118445	0.173636
O19	O	1.100682	-0.181386	-0.407864
O20	O	1.600682	0.318614	0.092136
O21	O	1.005079	-0.295290	-0.203214
O22	O	1.505079	0.204710	0.296786
O23	O	0.885803	-0.295246	-0.322509
O24	O	1.385803	0.204754	0.177491
O25	O	1.001253	-0.381478	-0.536048
O26	O	1.501253	0.118522	-0.036048
O27	O	0.881919	-0.381494	-0.416735
O28	O	1.381919	0.118506	0.083265
O29	O	1.095555	-0.295217	-0.532224
O30	O	1.595555	0.204783	-0.032224
O31	O	1.086441	-0.495402	-0.331411
O32	O	1.586441	0.004598	0.168589
O33	O	0.996067	-0.495369	-0.421799
O34	O	1.496067	0.004631	0.078201
C35	C	0.857159	-0.338367	-0.369620
C36	C	1.357159	0.161633	0.130380
C37	C	0.775359	-0.338375	-0.369633
C38	C	1.275359	0.161625	0.130367
C39	C	0.589206	-0.293535	-0.414785
C40	C	1.089206	0.206465	0.085215
C41	C	0.512347	-0.293541	-0.414788
C42	C	1.012347	0.206459	0.085212
C43	C	0.508273	-0.383263	-0.324497
C44	C	1.008273	0.116737	0.175503
C45	C	0.585131	-0.383253	-0.324491
C46	C	1.085131	0.116747	0.175509
C47	C	0.625595	-0.338390	-0.369639
C48	C	1.125595	0.161610	0.130361
C49	C	0.471878	-0.338406	-0.369648
C50	C	0.971878	0.161594	0.130352
C51	C	0.388544	-0.338413	-0.369651
C52	C	0.888544	0.161587	0.130349
C53	C	0.708934	-0.338382	-0.369636
C54	C	1.208934	0.161618	0.130364
C55	C	1.040120	-0.520869	-0.377753
C56	C	1.540120	-0.020869	0.122247
C57	C	1.036661	-0.598935	-0.381250
C58	C	1.536661	-0.098935	0.118750
C59	C	1.082125	-0.635605	-0.335872
C60	C	1.582125	-0.135605	0.164128
C61	C	1.078876	-0.708956	-0.339166
C62	C	1.578876	-0.208956	0.160834
C63	C	1.030158	-0.745636	-0.387835
C64	C	1.530158	-0.245636	0.112165
C65	C	0.984692	-0.708962	-0.433218
C66	C	1.484692	-0.208962	0.066782
C67	C	0.987946	-0.635612	-0.429927
C68	C	1.487946	-0.135612	0.070073
C69	C	1.017983	-0.967106	-0.400126
C70	C	1.517983	-0.467106	0.099874
C71	C	1.014731	-1.040461	-0.403412
C72	C	1.514731	-0.540461	0.096588
C73	C	1.108916	-1.040450	-0.309361
C74	C	1.608916	-0.540450	0.190639
C75	C	1.112162	-0.967099	-0.306071
C76	C	1.612162	-0.467099	0.193929
C77	C	1.066699	-0.930430	-0.351457
C78	C	1.566699	-0.430430	0.148543
C79	C	1.026834	-0.820613	-0.391201
C80	C	1.526834	-0.320613	0.108799
C81	C	1.070027	-0.855455	-0.348094
C82	C	1.570027	-0.355455	0.151906
C83	C	1.240316	-0.338411	-0.369649
C84	C	1.740316	0.161589	0.130351
C85	C	1.322114	-0.338421	-0.369655
C86	C	1.822114	0.161579	0.130345
C87	C	1.048411	-0.338341	-0.561585
C88	C	1.548411	0.161659	-0.061585
C89	C	1.048431	-0.338320	-0.643383
C90	C	1.548431	0.161680	-0.143383
C91	C	1.056660	-0.155196	-0.361500
C92	C	1.556660	0.344804	0.138500
C93	C	1.060195	-0.077130	-0.358034
C94	C	1.560195	0.422870	0.141966
C95	C	1.097553	-0.293362	-0.829585
C96	C	1.597553	0.206638	-0.329585
C97	C	1.097563	-0.293342	-0.906443
C98	C	1.597563	0.206658	-0.406443
C99	C	0.999366	-0.383169	-0.910414
C100	C	1.499366	0.116831	-0.410414
C101	C	0.999353	-0.383185	-0.833557
C102	C	1.499353	0.116815	-0.333557
C103	C	1.048451	-0.338283	-0.793145
C104	C	1.548451	0.161717	-0.293145
C105	C	1.048473	-0.338246	-0.946859
C106	C	1.548473	0.161754	-0.446859
C107	C	1.048483	-0.338224	-1.030192
C108	C	1.548483	0.161776	-0.530192
C109	C	1.048440	-0.338304	-0.709807
C110	C	1.548440	0.161696	-0.209807
C111	C	1.048362	-0.338387	-0.178428
C112	C	1.548362	0.161613	0.321572
C113	C	1.048493	-0.338209	-0.096621
C114	C	1.548493	0.161791	0.403379
H115	H	0.475317	-0.419790	-0.287739
H116	H	0.975317	0.080210	0.212261
H117	H	0.614759	-0.419780	-0.287724
H118	H	1.114759	0.080220	0.212276
N119	N	0.632849	-0.245147	-0.463479
N120	N	1.132849	0.254853	0.036521
H121	H	0.663457	-0.273730	-0.498806
H122	H	1.163457	0.226270	0.001194
H123	H	0.598081	-0.216745	-0.492029
H124	H	1.098081	0.283255	0.007971
H125	H	0.482723	-0.257014	-0.451549
H126	H	0.982723	0.242986	0.048451
H127	H	1.121792	-0.605744	-0.296238
H128	H	1.621792	-0.105744	0.203762
H129	H	0.959363	-0.419765	-0.803887
H130	H	1.459363	0.080235	-0.303887
H131	H	1.115897	-0.738809	-0.302214
H132	H	1.615897	-0.238809	0.197786
N133	N	1.164717	-0.927537	-0.253589
N134	N	1.664717	-0.427537	0.246411
H135	H	1.193031	-0.961898	-0.225346
H136	H	1.693031	-0.461898	0.274654
H137	H	1.200104	-0.897065	-0.282221
H138	H	1.700104	-0.397065	0.217779
N139	N	1.157945	-1.079998	-0.260408
N140	N	1.657945	-0.579998	0.239592
H141	H	1.148493	-1.132031	-0.269874
H142	H	1.648493	-0.632031	0.230126
H143	H	1.211070	-1.067132	-0.271329
H144	H	1.711070	-0.567132	0.228671
N145	N	0.938913	-0.596057	-0.478873
N146	N	1.438913	-0.096057	0.021127
H147	H	0.907556	-0.630423	-0.510203
H148	H	1.407556	-0.130423	-0.010203
H149	H	0.906220	-0.565667	-0.447525
H150	H	1.406220	-0.065667	0.052475
N151	N	0.962184	-1.080022	-0.455910
N152	N	1.462184	-0.580022	0.044090
H153	H	0.990726	-1.110414	-0.491398
H154	H	1.490726	-0.610414	0.008602
H155	H	0.926755	-1.110455	-0.427283
H156	H	1.426755	-0.610455	0.072717
H157	H	0.980963	-0.937256	-0.437080
H158	H	1.480963	-0.437256	0.062920
N159	N	0.932149	-0.748520	-0.485714
N160	N	1.432149	-0.248520	0.014286
H161	H	0.936983	-0.800551	-0.480912
H162	H	1.436983	-0.300551	0.019088
H163	H	0.880163	-0.735742	-0.473640
H164	H	1.380163	-0.235742	0.026360
N165	N	1.122572	-0.815893	-0.295608
N166	N	1.622572	-0.315893	0.204392
H167	H	1.094028	-0.785503	-0.260118
H168	H	1.594028	-0.285503	0.239882
H169	H	1.150871	-0.850292	-0.267406
H170	H	1.650871	-0.350292	0.232594
N171	N	0.974283	-0.860173	-0.443689
N172	N	1.474283	-0.360173	0.056311
H173	H	1.002823	-0.890562	-0.479182
H174	H	1.502823	-0.390562	0.020818
H175	H	0.938861	-0.890611	-0.415058
H176	H	1.438861	-0.390611	0.084942
H177	H	1.137529	-0.256798	-0.796684
H178	H	1.637529	0.243202	-0.296684
H179	H	1.137545	-0.256762	-0.936109
H180	H	1.637545	0.243238	-0.436109
H181	H	0.959394	-0.419728	-0.943327
H182	H	1.459394	0.080272	-0.443327
