data_functionalizedCrystal
_audit_creation_method	'MofGen! by Chris Wilmer'
_symmetry_space_group_name_H-M	'P1'
_symmetry_Int_Tables_number	1
_symmetry_cell_setting	triclinic
loop_
_symmetry_equiv_pos_as_xyz
  x,y,z
_cell_length_a	14.971482
_cell_length_b	14.044220
_cell_length_c	13.448316
_cell_angle_alpha	89.992660
_cell_angle_beta	89.993798
_cell_angle_gamma	88.400743
loop_
_atom_site_label
_atom_site_type_symbol
_atom_site_fract_x
_atom_site_fract_y
_atom_site_fract_z
O1	O	1.196680	0.123521	-0.082682
O2	O	1.530014	0.456854	0.250652
O3	O	1.863347	0.790188	0.583985
O4	O	0.937445	0.138319	-0.082687
O5	O	1.270779	0.471652	0.250646
O6	O	1.604112	0.804985	0.583980
O7	O	1.063172	-0.007069	-0.082675
O8	O	1.396505	0.326264	0.250659
O9	O	1.729838	0.659598	0.583992
O10	O	1.070954	0.268909	-0.082694
O11	O	1.404287	0.602242	0.250639
O12	O	1.737621	0.935575	0.583973
O13	O	1.063154	-0.007078	0.082709
O14	O	1.396487	0.326255	0.416043
O15	O	1.729820	0.659589	0.749376
O16	O	0.937427	0.138310	0.082697
O17	O	1.270761	0.471643	0.416030
O18	O	1.604094	0.804976	0.749364
O19	O	1.196662	0.123512	0.082702
O20	O	1.529996	0.456845	0.416035
O21	O	1.863329	0.790179	0.749369
Cu22	Cu	1.067043	0.130910	0.097800
Cu23	Cu	1.400376	0.464243	0.431134
Cu24	Cu	1.733710	0.797577	0.764467
Cu25	Cu	1.067064	0.130921	-0.097785
Cu26	Cu	1.400398	0.464254	0.235548
Cu27	Cu	1.733731	0.797587	0.568881
O28	O	1.070936	0.268900	0.082690
O29	O	1.404269	0.602233	0.416023
O30	O	1.737603	0.935567	0.749356
C31	C	0.904059	0.137653	0.000004
C32	C	1.237393	0.470986	0.333338
C33	C	1.570726	0.804320	0.666671
C34	C	0.804606	0.135672	0.000003
C35	C	1.137939	0.469005	0.333336
C36	C	1.471273	0.802338	0.666669
C37	C	0.757878	0.134734	0.090155
C38	C	1.091212	0.468067	0.423488
C39	C	1.424545	0.801400	0.756821
C40	C	0.664432	0.132857	0.090156
C41	C	0.997765	0.466190	0.423489
C42	C	1.331099	0.799524	0.756823
C43	C	0.617715	0.131925	0.000004
C44	C	0.951048	0.465258	0.333337
C45	C	1.284382	0.798592	0.666671
C46	C	0.664450	0.132860	-0.090155
C47	C	0.997783	0.466194	0.243179
C48	C	1.331116	0.799527	0.576512
C49	C	0.757894	0.134730	-0.090155
C50	C	1.091228	0.468064	0.243179
C51	C	1.424561	0.801397	0.576512
C52	C	0.469681	0.128965	-0.090148
C53	C	0.803014	0.462299	0.243185
C54	C	1.136347	0.795632	0.576519
C55	C	0.376229	0.127097	-0.090148
C56	C	0.709563	0.460430	0.243185
C57	C	1.042896	0.793764	0.576518
C58	C	0.376218	0.127092	0.090163
C59	C	0.709552	0.460425	0.423496
C60	C	1.042885	0.793759	0.756829
C61	C	0.469663	0.128962	0.090163
C62	C	0.802996	0.462295	0.423496
C63	C	1.136330	0.795629	0.756829
C64	C	0.516391	0.129899	0.000003
C65	C	0.849725	0.463232	0.333337
C66	C	1.183058	0.796565	0.666670
C67	C	1.059756	-0.042392	0.000018
C68	C	1.393089	0.290941	0.333351
C69	C	1.726423	0.624275	0.666684
C70	C	1.049595	-0.147629	0.000019
C71	C	1.382928	0.185704	0.333352
C72	C	1.716262	0.519038	0.666685
C73	C	1.031018	-0.340311	0.000004
C74	C	1.364352	-0.006978	0.333337
C75	C	1.697685	0.326356	0.666671
C76	C	1.103085	-0.397864	0.000002
C77	C	1.436419	-0.064530	0.333336
C78	C	1.769752	0.268803	0.666669
C79	C	1.092749	-0.505079	-0.000006
C80	C	1.426082	-0.171745	0.333328
C81	C	1.759416	0.161588	0.666661
C82	C	1.041353	-0.233086	0.000012
C83	C	1.374687	0.100247	0.333346
C84	C	1.708020	0.433581	0.666679
C85	C	1.230048	0.124178	0.000009
C86	C	1.563381	0.457511	0.333342
C87	C	1.896715	0.790844	0.666675
C88	C	1.329501	0.126159	0.000004
C89	C	1.662835	0.459492	0.333337
C90	C	1.996168	0.792826	0.666670
C91	C	1.074351	0.304223	-0.000005
C92	C	1.407685	0.637556	0.333329
C93	C	1.741018	0.970889	0.666662
C94	C	1.084513	0.409460	-0.000012
C95	C	1.417846	0.742793	0.333321
C96	C	1.751179	1.076126	0.666654
N97	N	1.067035	0.130902	0.235365
N98	N	1.400368	0.464235	0.568698
N99	N	1.733701	0.797569	0.902031
N100	N	1.067079	0.130921	-0.235349
N101	N	1.400413	0.464255	0.097984
N102	N	1.733746	0.797588	0.431317
C103	C	1.122727	0.066551	0.287410
C104	C	1.456061	0.399884	0.620744
C105	C	1.789394	0.733217	0.954077
C106	C	1.122733	0.066550	0.391514
C107	C	1.456066	0.399883	0.724847
C108	C	1.789399	0.733217	1.058180
C109	C	1.067050	0.130906	0.443569
C110	C	1.400383	0.464239	0.776903
C111	C	1.733716	0.797572	1.110236
C112	C	1.011351	0.195260	0.391516
C113	C	1.344684	0.528593	0.724849
C114	C	1.678018	0.861927	1.058183
C115	C	1.011341	0.195255	0.287415
C116	C	1.344675	0.528589	0.620748
C117	C	1.678008	0.861922	0.954081
C118	C	1.011376	0.195266	0.608496
C119	C	1.344710	0.528600	0.941830
C120	C	1.678043	0.861933	1.275163
C121	C	1.011387	0.195272	0.712605
C122	C	1.344720	0.528606	1.045938
C123	C	1.678053	0.861939	1.379271
C124	C	1.122768	0.066561	0.712595
C125	C	1.456101	0.399894	1.045928
C126	C	1.789434	0.733228	1.379262
C127	C	1.122758	0.066556	0.608494
C128	C	1.456091	0.399890	0.941827
C129	C	1.789425	0.733223	1.275160
C130	C	1.067060	0.130912	0.556448
C131	C	1.400394	0.464246	0.889781
C132	C	1.733727	0.797579	1.223115
H133	H	0.626391	0.132077	0.163567
H134	H	0.959724	0.465411	0.496900
H135	H	1.293058	0.798744	0.830233
F136	F	1.181999	-0.001942	0.232019
F137	F	1.515332	0.331391	0.565352
F138	F	1.848665	0.664724	0.898686
H139	H	1.168081	0.014150	0.433889
H140	H	1.501415	0.347483	0.767222
H141	H	1.834748	0.680817	1.100556
F142	F	0.940233	-0.381153	-0.000003
F143	F	1.273566	-0.047820	0.333330
F144	F	1.606900	0.285514	0.666664
F145	F	1.182027	-0.001932	0.553092
F146	F	1.515360	0.331402	0.886425
F147	F	1.848694	0.664735	1.219759
F148	F	1.193877	-0.357022	0.000012
F149	F	1.527210	-0.023689	0.333345
F150	F	1.860544	0.309644	0.666679
F151	F	1.182046	-0.001929	0.767990
F152	F	1.515379	0.331404	1.101324
F153	F	1.848712	0.664737	1.434657
H154	H	0.966043	0.247677	0.754983
H155	H	1.299376	0.581010	1.088316
H156	H	1.632710	0.914343	1.421650
F157	F	0.952092	0.263759	0.553109
F158	F	1.285426	0.597093	0.886443
F159	F	1.618759	0.930426	1.219776
H160	H	0.966008	0.247657	0.433906
H161	H	1.299341	0.580990	0.767239
H162	H	1.632675	0.914323	1.100572
H163	H	0.965990	0.247656	0.245040
H164	H	1.299323	0.580989	0.578373
H165	H	1.632656	0.914322	0.911707
H166	H	0.507697	0.129726	0.163572
H167	H	0.841031	0.463060	0.496905
H168	H	1.174364	0.796393	0.830239
F169	F	0.807589	0.135732	0.186108
F170	F	1.140923	0.469065	0.519442
F171	F	1.474256	0.802398	0.852775
F172	F	0.326511	0.126104	-0.186098
F173	F	0.659845	0.459437	0.147236
F174	F	0.993178	0.792770	0.480569
H175	H	0.338168	0.126329	0.163574
H176	H	0.671501	0.459663	0.496907
H177	H	1.004834	0.792996	0.830240
H178	H	0.626405	0.132095	-0.163558
H179	H	0.959739	0.465428	0.169776
H180	H	1.293072	0.798762	0.503109
F181	F	0.519410	0.129959	-0.186106
F182	F	0.852744	0.463292	0.147227
F183	F	1.186077	0.796626	0.480560
F184	F	0.807625	0.135725	-0.186107
F185	F	1.140959	0.469058	0.147227
F186	F	1.474292	0.802392	0.480560
