data_functionalizedCrystal
_audit_creation_method	'MofGen! by Chris Wilmer'
_symmetry_space_group_name_H-M	'P1'
_symmetry_Int_Tables_number	1
_symmetry_cell_setting	triclinic
loop_
_symmetry_equiv_pos_as_xyz
  x,y,z
_cell_length_a	16.625548
_cell_length_b	12.645330
_cell_length_c	16.625539
_cell_angle_alpha	89.975749
_cell_angle_beta	89.979432
_cell_angle_gamma	90.018760
loop_
_atom_site_label
_atom_site_type_symbol
_atom_site_fract_x
_atom_site_fract_y
_atom_site_fract_z
Zn1	Zn	1.232707	-0.422007	-0.455932
Zn2	Zn	1.566041	-0.088674	-0.122599
Zn3	Zn	1.899374	0.244659	0.210735
Zn4	Zn	1.232622	-0.599293	-0.321109
Zn5	Zn	1.565955	-0.265960	0.012224
Zn6	Zn	1.899288	0.067373	0.345558
Zn7	Zn	1.097869	-0.422048	-0.321113
Zn8	Zn	1.431202	-0.088714	0.012221
Zn9	Zn	1.764536	0.244619	0.345554
Zn10	Zn	1.097851	-0.599232	-0.455899
Zn11	Zn	1.431184	-0.265899	-0.122565
Zn12	Zn	1.764517	0.067434	0.210768
O13	O	1.165262	-0.510645	-0.388513
O14	O	1.498595	-0.177312	-0.055180
O15	O	1.831929	0.156022	0.278154
O16	O	1.345528	-0.445533	-0.438060
O17	O	1.678862	-0.112200	-0.104727
O18	O	2.012195	0.221133	0.228607
O19	O	1.214718	-0.575824	-0.208277
O20	O	1.548052	-0.242490	0.125056
O21	O	1.881385	0.090843	0.458390
O22	O	1.115799	-0.273695	-0.339012
O23	O	1.449132	0.059638	-0.005679
O24	O	1.782466	0.392972	0.327654
O25	O	1.345465	-0.575784	-0.339006
O26	O	1.678799	-0.242451	-0.005672
O27	O	2.012132	0.090882	0.327661
O28	O	1.214864	-0.273665	-0.438064
O29	O	1.548197	0.059668	-0.104730
O30	O	1.881531	0.393001	0.228603
O31	O	1.115716	-0.445602	-0.208280
O32	O	1.449049	-0.112269	0.125054
O33	O	1.782383	0.221065	0.458387
O34	O	0.985034	-0.445543	-0.338980
O35	O	1.318368	-0.112210	-0.005647
O36	O	1.651701	0.221124	0.327687
O37	O	1.115768	-0.575681	-0.568736
O38	O	1.449101	-0.242347	-0.235402
O39	O	1.782434	0.090986	0.097931
O40	O	0.985021	-0.575720	-0.438007
O41	O	1.318354	-0.242387	-0.104673
O42	O	1.651687	0.090947	0.228660
O43	O	1.214846	-0.445474	-0.568760
O44	O	1.548180	-0.112141	-0.235427
O45	O	1.881513	0.221192	0.097907
O46	O	1.214701	-0.747632	-0.338973
O47	O	1.548034	-0.414299	-0.005640
O48	O	1.881367	-0.080966	0.327693
O49	O	1.115685	-0.747588	-0.438003
O50	O	1.449018	-0.414254	-0.104670
O51	O	1.782352	-0.080921	0.228664
C52	C	0.955771	-0.510630	-0.388491
C53	C	1.289105	-0.177297	-0.055157
C54	C	1.622438	0.156037	0.278176
C55	C	0.866150	-0.510649	-0.388500
C56	C	1.199484	-0.177316	-0.055167
C57	C	1.532817	0.156018	0.278167
C58	C	1.165203	-0.786075	-0.388502
C59	C	1.498537	-0.452742	-0.055168
C60	C	1.831870	-0.119408	0.278165
C61	C	1.165252	-0.903905	-0.388524
C62	C	1.498585	-0.570572	-0.055191
C63	C	1.831919	-0.237238	0.278143
C64	C	0.537975	-0.510656	-0.388534
C65	C	0.871308	-0.177323	-0.055201
C66	C	1.204641	0.156011	0.278132
C67	C	0.629283	-0.510651	-0.388522
C68	C	0.962616	-0.177318	-0.055189
C69	C	1.295950	0.156016	0.278144
C70	C	0.702059	-0.510653	-0.388517
C71	C	1.035393	-0.177320	-0.055183
C72	C	1.368726	0.156014	0.278150
C73	C	0.793374	-0.510647	-0.388506
C74	C	1.126707	-0.177314	-0.055172
C75	C	1.460040	0.156020	0.278161
C76	C	1.103218	-1.071485	-0.451015
C77	C	1.436551	-0.738152	-0.117682
C78	C	1.769885	-0.404818	0.215651
C79	C	1.102901	-0.948925	-0.450815
C80	C	1.436234	-0.615592	-0.117481
C81	C	1.769567	-0.282259	0.215852
C82	C	1.142250	-0.948498	-0.303549
C83	C	1.475584	-0.615165	0.029785
C84	C	1.808917	-0.281832	0.363118
C85	C	1.141872	-1.071097	-0.303928
C86	C	1.475205	-0.737763	0.029405
C87	C	1.808538	-0.404430	0.362739
C88	C	1.250667	-1.070992	-0.410318
C89	C	1.584000	-0.737659	-0.076985
C90	C	1.917334	-0.404326	0.256348
C91	C	1.250144	-0.948386	-0.412177
C92	C	1.583477	-0.615052	-0.078843
C93	C	1.916810	-0.281719	0.254490
C94	C	1.375571	-0.510661	-0.388536
C95	C	1.708904	-0.177328	-0.055203
C96	C	2.042238	0.156006	0.278131
C97	C	1.465192	-0.510668	-0.388546
C98	C	1.798525	-0.177335	-0.055213
C99	C	2.131859	0.155999	0.278121
C100	C	1.165315	-0.510566	-0.598822
C101	C	1.498648	-0.177233	-0.265489
C102	C	1.831981	0.156101	0.067845
C103	C	1.165337	-0.510533	-0.688443
C104	C	1.498670	-0.177199	-0.355110
C105	C	1.832004	0.156134	-0.021777
C106	C	1.165343	-0.234140	-0.388542
C107	C	1.498677	0.099193	-0.055209
C108	C	1.832010	0.432527	0.278125
C109	C	1.165378	-0.116310	-0.388554
C110	C	1.498711	0.217024	-0.055221
C111	C	1.832044	0.550357	0.278112
C112	C	1.165374	-0.510414	-1.016619
C113	C	1.498707	-0.177080	-0.683286
C114	C	1.832041	0.156253	-0.349952
C115	C	1.165362	-0.510450	-0.925311
C116	C	1.498695	-0.177117	-0.591977
C117	C	1.832028	0.156216	-0.258644
C118	C	1.165356	-0.510474	-0.852534
C119	C	1.498689	-0.177141	-0.519201
C120	C	1.832023	0.156193	-0.185867
C121	C	1.165343	-0.510509	-0.761220
C122	C	1.498676	-0.177175	-0.427886
C123	C	1.832009	0.156158	-0.094553
C124	C	1.165256	-0.510647	-0.179022
C125	C	1.498590	-0.177314	0.154311
C126	C	1.831923	0.156019	0.487644
C127	C	1.165390	-0.510382	-0.089402
C128	C	1.498724	-0.177049	0.243932
C129	C	1.832057	0.156284	0.577265
H130	H	1.117292	-0.918772	-0.513823
H131	H	1.450625	-0.585439	-0.180490
H132	H	1.783958	-0.252105	0.152844
H133	H	1.267490	-0.919236	-0.474714
H134	H	1.600823	-0.585902	-0.141380
H135	H	1.934157	-0.252569	0.191953
H136	H	1.185181	-1.100752	-0.255803
H137	H	1.518515	-0.767419	0.077531
H138	H	1.851848	-0.434086	0.410864
H139	H	1.186089	-0.919338	-0.255739
H140	H	1.519422	-0.586005	0.077595
H141	H	1.852756	-0.252672	0.410928
C142	C	1.190426	-1.176473	-0.533889
C143	C	1.523760	-0.843140	-0.200556
C144	C	1.857093	-0.509807	0.132777
C145	C	1.122453	-1.111201	-0.536356
C146	C	1.455787	-0.777867	-0.203023
C147	C	1.789120	-0.444534	0.130311
H148	H	1.202296	-1.201003	-0.586576
H149	H	1.535630	-0.867670	-0.253243
H150	H	1.868963	-0.534337	0.080090
H151	H	1.234916	-1.137529	-0.513719
H152	H	1.568249	-0.804195	-0.180385
H153	H	1.901582	-0.470862	0.152948
H154	H	1.180158	-1.235166	-0.499709
H155	H	1.513491	-0.901833	-0.166376
H156	H	1.846825	-0.568499	0.166957
H157	H	1.132724	-1.052503	-0.570531
H158	H	1.466057	-0.719170	-0.237198
H159	H	1.799391	-0.385837	0.096135
H160	H	1.077954	-1.150146	-0.556538
H161	H	1.411288	-0.816813	-0.223204
H162	H	1.744621	-0.483479	0.110129
H163	H	1.271650	-1.101837	-0.471229
H164	H	1.604983	-0.768503	-0.137896
H165	H	1.938316	-0.435170	0.195438
C166	C	1.018310	-1.223803	-0.435719
C167	C	1.351643	-0.890470	-0.102385
C168	C	1.684977	-0.557136	0.230948
C169	C	1.018392	-1.113194	-0.431797
C170	C	1.351725	-0.779861	-0.098464
C171	C	1.685059	-0.446527	0.234869
H172	H	0.965944	-1.249552	-0.423846
H173	H	1.299277	-0.916218	-0.090513
H174	H	1.632610	-0.582885	0.242821
H175	H	1.033421	-1.245626	-0.488251
H176	H	1.366754	-0.912292	-0.154918
H177	H	1.700087	-0.578959	0.178415
H178	H	1.055502	-1.251245	-0.397706
H179	H	1.388836	-0.917912	-0.064373
H180	H	1.722169	-0.584578	0.268961
H181	H	0.981204	-1.085751	-0.469814
H182	H	1.314537	-0.752418	-0.136481
H183	H	1.647871	-0.419085	0.196853
H184	H	1.003271	-1.091361	-0.379257
H185	H	1.336605	-0.758028	-0.045923
H186	H	1.669938	-0.424695	0.287410
C187	C	0.989002	-0.847961	-0.495309
C188	C	1.322335	-0.514628	-0.161976
C189	C	1.655668	-0.181295	0.171358
C190	C	1.017544	-0.909456	-0.431345
C191	C	1.350877	-0.576123	-0.098012
C192	C	1.684211	-0.242789	0.235322
H193	H	0.936302	-0.823603	-0.483287
H194	H	1.269635	-0.490270	-0.149954
H195	H	1.602968	-0.156936	0.183379
H196	H	1.023637	-0.789095	-0.503126
H197	H	1.356970	-0.455762	-0.169793
H198	H	1.690303	-0.122428	0.163540
H199	H	0.987697	-0.889490	-0.542891
H200	H	1.321031	-0.556157	-0.209557
H201	H	1.654364	-0.222823	0.123776
H202	H	1.018854	-0.867925	-0.383764
H203	H	1.352187	-0.534591	-0.050431
H204	H	1.685521	-0.201258	0.282902
H205	H	0.982900	-0.968331	-0.423518
H206	H	1.316233	-0.634997	-0.090185
H207	H	1.649567	-0.301664	0.243149
H208	H	1.298894	-0.917733	-0.369996
H209	H	1.632228	-0.584400	-0.036663
H210	H	1.965561	-0.251067	0.296671
C211	C	1.008096	-1.022613	-0.263939
C212	C	1.341429	-0.689280	0.069395
C213	C	1.674762	-0.355946	0.402728
C214	C	1.057705	-1.109839	-0.279047
C215	C	1.391038	-0.776506	0.054286
C216	C	1.724372	-0.443173	0.387620
H217	H	0.956132	-1.046530	-0.248584
H218	H	1.289466	-0.713196	0.084749
H219	H	1.622799	-0.379863	0.418082
H220	H	1.030532	-0.981416	-0.221781
H221	H	1.363866	-0.648083	0.111553
H222	H	1.697199	-0.314750	0.444886
H223	H	1.003968	-0.980747	-0.311212
H224	H	1.337301	-0.647413	0.022122
H225	H	1.670634	-0.314080	0.355455
H226	H	1.061838	-1.151702	-0.231772
H227	H	1.395171	-0.818369	0.101561
H228	H	1.728504	-0.485035	0.434895
H229	H	1.035263	-1.151053	-0.321208
H230	H	1.368596	-0.817720	0.012125
H231	H	1.701929	-0.484387	0.345458
H232	H	1.080553	-0.917888	-0.284778
H233	H	1.413886	-0.584555	0.048555
H234	H	1.747220	-0.251222	0.381888
H235	H	1.296977	-1.099979	-0.364825
H236	H	1.630311	-0.766645	-0.031492
H237	H	1.963644	-0.433312	0.301841
