data_functionalizedCrystal
_audit_creation_method	'MofGen! by Chris Wilmer'
_symmetry_space_group_name_H-M	'P1'
_symmetry_Int_Tables_number	1
_symmetry_cell_setting	triclinic
loop_
_symmetry_equiv_pos_as_xyz
  x,y,z
_cell_length_a	19.188930
_cell_length_b	10.065875
_cell_length_c	10.967953
_cell_angle_alpha	110.815185
_cell_angle_beta	83.947357
_cell_angle_gamma	81.269268
loop_
_atom_site_label
_atom_site_type_symbol
_atom_site_fract_x
_atom_site_fract_y
_atom_site_fract_z
O1	O	0.934326	-0.080359	0.142753
O2	O	0.730684	-0.075133	0.164570
O3	O	0.841158	-0.122166	-0.035209
O4	O	0.823852	-0.033326	0.342532
O5	O	0.820090	0.113827	0.003039
O6	O	0.709616	0.160860	0.202818
O7	O	0.913257	0.155634	0.181000
Zn8	Zn	0.808091	0.195716	0.197981
Zn9	Zn	0.835850	-0.115215	0.147589
O10	O	0.802783	0.202667	0.380779
C11	C	0.694148	0.042710	0.182990
C12	C	0.616671	0.042249	0.180876
N13	N	0.789152	0.407918	0.232372
C14	C	0.830957	-0.015537	-0.064413
C15	C	0.831941	-0.049410	-0.208413
C16	C	0.570020	0.069795	0.298092
C17	C	0.497227	0.069311	0.296098
C18	C	0.471091	0.041251	0.176878
C19	C	0.517752	0.013709	0.059648
C20	C	0.590542	0.014208	0.061648
N21	N	0.371631	-0.060557	0.072725
N22	N	0.302483	-0.061032	0.070833
C23	C	0.251779	0.039749	0.170848
N24	N	0.272835	0.141010	0.272842
N25	N	0.341990	0.141480	0.274737
C26	C	0.392164	0.040708	0.174697
C27	C	0.126197	0.066774	0.285910
C28	C	0.053402	0.066298	0.283913
C29	C	0.073929	0.010681	0.047457
C30	C	0.146721	0.011173	0.049460
C31	C	0.172851	0.039213	0.168689
C32	C	0.949793	0.037788	0.162580
C33	C	1.027271	0.038240	0.164692
N34	N	0.854795	-0.327419	0.113187
C35	C	0.829256	0.458552	0.159546
C36	C	0.814685	0.621953	0.186024
C37	C	0.822478	0.022750	-0.401628
C38	C	0.821463	0.057755	-0.252798
C39	C	0.812985	0.096035	0.409982
C40	C	0.812001	0.129899	0.553981
H41	H	0.591290	0.092625	0.395177
H42	H	0.811746	0.175412	-0.180624
H43	H	0.147471	0.089628	0.382997
N44	N	0.885822	0.361098	0.056702
N45	N	0.872145	0.259352	-0.036870
H46	H	0.912084	0.190492	-0.109515
N47	N	0.799815	0.277486	-0.355468
N48	N	0.799011	0.305712	-0.234697
H49	H	0.790405	0.409949	-0.170745
N50	N	0.844153	-0.197007	-0.298964
N51	N	0.844971	-0.225239	-0.419739
H52	H	0.853600	-0.329478	-0.483694
H53	H	0.052658	-0.012254	-0.049629
H54	H	0.459236	0.091747	0.391553
H55	H	0.496469	-0.009157	-0.037425
H56	H	0.832202	-0.094900	-0.473807
H57	H	0.899917	0.594964	0.031225
H58	H	0.628526	-0.008225	-0.033807
N59	N	0.005754	0.094458	0.403668
N60	N	0.029097	0.119494	0.510105
H61	H	-0.004554	0.139383	0.594686
H62	H	0.184707	-0.011266	-0.045991
N63	N	0.758073	0.719327	0.288825
N64	N	0.746314	0.851924	0.310184
H65	H	0.706332	0.920698	0.382784
H66	H	0.744028	0.485536	0.314320
