data_functionalizedCrystal
_audit_creation_method	'MofGen! by Chris Wilmer'
_symmetry_space_group_name_H-M	'P1'
_symmetry_Int_Tables_number	1
_symmetry_cell_setting	triclinic
loop_
_symmetry_equiv_pos_as_xyz
  x,y,z
_cell_length_a	16.992694
_cell_length_b	15.944551
_cell_length_c	16.053802
_cell_angle_alpha	92.564789
_cell_angle_beta	87.249047
_cell_angle_gamma	87.083481
loop_
_atom_site_label
_atom_site_type_symbol
_atom_site_fract_x
_atom_site_fract_y
_atom_site_fract_z
O1	O	1.043704	0.174798	-0.069327
O2	O	0.815419	0.172843	-0.069352
O3	O	0.935795	0.051964	-0.069332
O4	O	0.923328	0.295677	-0.069348
O5	O	0.929169	0.058588	0.069526
O6	O	0.808793	0.179467	0.069506
O7	O	1.037078	0.181422	0.069530
Zn8	Zn	0.921884	0.181497	0.091565
Zn9	Zn	0.930613	0.172769	-0.091386
O10	O	0.916702	0.302301	0.069510
C11	C	0.782894	0.173641	0.000074
C12	C	0.695850	0.166141	0.000065
C13	C	0.931964	0.023948	0.000097
C14	C	0.930413	-0.069402	0.000098
C15	C	0.645613	0.238506	0.000061
C16	C	0.563826	0.231454	0.000073
C17	C	0.532276	0.152037	0.000083
C18	C	0.582519	0.079667	0.000089
C19	C	0.664305	0.086719	0.000083
C20	C	0.288676	0.122807	0.000107
C21	C	0.206884	0.115759	0.000111
C22	C	0.188196	0.267548	0.000095
C23	C	0.269984	0.274593	0.000084
C24	C	0.320220	0.202223	0.000095
N25	N	0.448677	0.144827	0.000092
N26	N	0.403818	0.209434	0.000092
C27	C	0.852090	-0.289513	0.000078
C28	C	0.885194	-0.344825	0.068547
C29	C	0.927606	-0.240317	0.000091
C30	C	0.891744	-0.351338	-0.068356
C31	C	0.924889	-0.405412	0.000081
C32	C	0.960728	-0.294396	0.068617
C33	C	0.967271	-0.300907	-0.068348
C34	C	1.000429	-0.356196	0.000138
C35	C	0.929169	-0.145209	0.000098
C36	C	0.923332	-0.500518	0.000080
C37	C	1.069603	0.180624	0.000103
C38	C	1.156648	0.188124	0.000106
C39	C	0.920533	0.330318	0.000079
C40	C	0.922085	0.423667	0.000073
N41	N	0.915931	0.187453	0.216424
N42	N	0.936572	0.166806	-0.216246
C43	C	0.967170	0.136040	0.260127
C44	C	0.963014	0.140215	0.347533
C45	C	0.907622	0.195808	0.391235
C46	C	0.856378	0.247223	0.347526
C47	C	0.860531	0.243043	0.260121
C48	C	0.889481	0.214042	0.652641
C49	C	0.885333	0.218220	0.740052
C50	C	0.991968	0.111209	0.740053
C51	C	0.996120	0.107038	0.652646
C52	C	0.944873	0.158450	0.608945
N53	N	0.903374	0.200078	0.480578
N54	N	0.949118	0.154175	0.519604
H55	H	0.671294	0.303176	0.000052
C56	C	1.057047	0.045883	0.604572
C57	C	1.113413	-0.010678	0.652635
C58	C	1.174342	-0.071831	0.604557
C59	C	1.178905	-0.076422	0.508416
C60	C	1.122538	-0.019859	0.460347
C61	C	1.061609	0.041293	0.508425
H62	H	1.110036	-0.007281	0.723810
H63	H	1.216068	-0.113702	0.640142
H64	H	1.224009	-0.121690	0.472826
H65	H	1.125914	-0.023256	0.389172
H66	H	1.019882	0.083165	0.472840
H67	H	0.556825	0.015004	0.000110
H68	H	1.012279	0.090773	0.224550
H69	H	0.181201	0.051085	0.000118
H70	H	0.329568	0.063878	0.000117
H71	H	0.705207	0.027792	0.000086
C72	C	0.508569	0.311060	0.000068
C73	C	0.515532	0.371196	-0.072045
C74	C	0.460277	0.450807	-0.072046
C75	C	0.398058	0.470281	0.000066
C76	C	0.391092	0.410144	0.072185
C77	C	0.446347	0.330533	0.072186
H78	H	0.561593	0.356781	-0.125432
H79	H	0.465434	0.495324	-0.125434
H80	H	0.357155	0.529214	0.000066
H81	H	0.345031	0.424559	0.125572
H82	H	0.441190	0.286015	0.125574
H83	H	0.295666	0.339262	0.000066
H84	H	1.004736	0.098349	0.383115
C85	C	0.795445	0.308378	0.395593
C86	C	0.790910	0.313025	0.491735
C87	C	0.729977	0.374183	0.539799
C88	C	0.673580	0.430695	0.491722
C89	C	0.678113	0.426050	0.395575
C90	C	0.739046	0.364891	0.347511
H91	H	0.832660	0.271190	0.527329
H92	H	0.726621	0.377622	0.610974
H93	H	0.628474	0.475968	0.527302
H94	H	0.636363	0.467885	0.359981
H95	H	0.742401	0.361453	0.276336
H96	H	0.818806	0.284908	0.224539
C97	C	1.000104	-0.260774	0.146906
C98	C	0.953630	-0.198824	0.209725
C99	C	0.993002	-0.165200	0.288015
C100	C	1.078847	-0.193526	0.303486
C101	C	1.125326	-0.255479	0.240665
C102	C	1.085954	-0.289103	0.162375
H103	H	0.890077	-0.177852	0.198274
H104	H	0.958595	-0.119337	0.334519
H105	H	1.107993	-0.168635	0.361440
H106	H	1.188879	-0.276451	0.252116
H107	H	1.120361	-0.334966	0.115872
H108	H	0.147286	0.326467	0.000088
C109	C	1.014115	-0.274541	-0.146539
C110	C	0.986590	-0.298418	-0.234065
C111	C	1.033427	-0.272049	-0.312264
C112	C	1.107789	-0.221803	-0.302937
C113	C	1.135317	-0.197923	-0.215408
C114	C	1.088480	-0.224291	-0.137209
H115	H	0.931540	-0.335616	-0.240972
H116	H	1.013049	-0.289727	-0.377059
H117	H	1.142460	-0.202283	-0.360825
H118	H	1.190367	-0.160725	-0.208500
H119	H	1.108858	-0.206613	-0.072414
H120	H	1.063164	-0.385145	0.000184
H121	H	0.789404	-0.260406	0.000139
H122	H	0.850491	-0.364314	0.126426
C123	C	1.048332	0.054652	0.788124
C124	C	1.014840	-0.008793	0.848225
C125	C	1.071204	-0.065356	0.896295
C126	C	1.161060	-0.058475	0.884264
C127	C	1.194557	0.004972	0.824160
C128	C	1.138193	0.061535	0.776090
H129	H	0.948319	-0.013889	0.857134
H130	H	1.046407	-0.112324	0.940788
H131	H	1.202784	-0.100347	0.919849
H132	H	1.261078	0.010068	0.815252
H133	H	1.162989	0.108503	0.731597
H134	H	0.840224	0.263494	0.775630
H135	H	0.862556	-0.376319	-0.126245
H136	H	0.847755	0.255905	0.617067
