data_functionalizedCrystal
_audit_creation_method	'MofGen! by Chris Wilmer'
_symmetry_space_group_name_H-M	'P1'
_symmetry_Int_Tables_number	1
_symmetry_cell_setting	triclinic
loop_
_symmetry_equiv_pos_as_xyz
  x,y,z
_cell_length_a	10.489716
_cell_length_b	22.010155
_cell_length_c	10.489741
_cell_angle_alpha	89.995414
_cell_angle_beta	84.534155
_cell_angle_gamma	90.008171
loop_
_atom_site_label
_atom_site_type_symbol
_atom_site_fract_x
_atom_site_fract_y
_atom_site_fract_z
O1	O	1.694081	0.050520	0.179801
O2	O	1.322881	0.050522	0.196727
O3	O	1.516928	0.050517	0.002665
O4	O	1.500035	0.050525	0.373863
O5	O	1.516892	-0.050533	0.002694
O6	O	1.322846	-0.050528	0.196756
O7	O	1.694046	-0.050530	0.179830
Cu8	Cu	1.508443	-0.059756	0.188296
Cu9	Cu	1.508484	0.059748	0.188261
O10	O	1.499999	-0.050526	0.373892
C11	C	1.275332	-0.000003	0.195470
C12	C	1.133701	-0.000002	0.191665
C13	C	1.036027	0.000002	0.310669
C14	C	0.958663	-0.049825	0.247799
C15	C	0.958705	0.049802	0.247742
C16	C	1.058203	-0.049870	0.128845
C17	C	1.058249	0.049802	0.128805
C18	C	0.980935	-0.000037	0.065848
N19	N	1.508423	-0.143809	0.188319
C20	C	1.594413	-0.563590	0.102343
C21	C	1.594419	-0.627198	0.102335
O22	O	1.667480	-0.660091	0.029251
N23	N	1.508483	-0.659016	0.188235
C24	C	1.422527	-0.627223	0.274140
O25	O	1.349432	-0.660127	0.347203
C26	C	1.422517	-0.563616	0.274142
C27	C	1.508467	-0.531802	0.188245
C28	C	1.680355	-0.531775	0.016453
C29	C	1.680351	-0.468172	0.016463
C30	C	1.594404	-0.436384	0.102365
C31	C	1.508462	-0.468198	0.188255
C32	C	1.336555	-0.531825	0.360040
C33	C	1.336551	-0.468214	0.360034
C34	C	1.422501	-0.436399	0.274137
C35	C	1.422511	-0.372807	0.274168
N36	N	1.508447	-0.340989	0.188268
C37	C	1.594393	-0.372777	0.102366
C38	C	1.422556	-0.760800	0.274129
C39	C	1.422572	-0.824406	0.274135
C40	C	1.594462	-0.824376	0.102327
C41	C	1.594451	-0.760770	0.102329
C42	C	1.508491	-0.728983	0.188229
C43	C	1.594378	-0.239206	0.102396
C44	C	1.594369	-0.175597	0.102418
C45	C	1.422475	-0.175632	0.274220
C46	C	1.422488	-0.239235	0.274203
C47	C	1.508444	-0.271021	0.188281
O48	O	1.349483	-0.339873	0.347211
O49	O	1.667465	-0.339865	0.029304
C50	C	1.741596	-0.000004	0.181087
C51	C	1.883227	-0.000001	0.184892
C52	C	1.515634	-0.000007	-0.044852
C53	C	1.511817	-0.000006	-0.186481
N54	N	1.508515	0.143800	0.188228
C55	C	1.388351	-0.000001	-0.254610
C56	C	1.446658	-0.049825	-0.346723
C57	C	1.446722	0.049803	-0.346727
C58	C	1.570175	-0.049871	-0.276729
C59	C	1.570221	0.049802	-0.276722
C60	C	1.628618	-0.000034	-0.368808
C61	C	1.501293	0.000000	0.421409
C62	C	1.505110	0.000003	0.563038
H63	H	1.060696	-0.000043	0.414185
H64	H	1.664365	-0.149695	0.032470
H65	H	1.101504	-0.092037	0.078649
H66	H	1.730222	-0.000062	-0.418241
H67	H	0.956505	-0.000068	-0.037744
H68	H	1.352512	-0.265139	0.344161
C69	C	1.066572	0.158793	0.123562
C70	C	1.117022	0.106667	0.061040
H71	H	1.102867	0.193901	0.081738
H72	H	0.976278	0.159403	0.121287
H73	H	1.086377	0.158428	0.210060
H74	H	1.097209	0.107029	-0.025456
H75	H	1.207336	0.106056	0.063302
H76	H	1.266567	-0.557719	0.429984
C77	C	1.252665	-0.818030	0.443953
C78	C	1.328099	-0.859372	0.368562
H79	H	1.194332	-0.839617	0.502240
H80	H	1.306182	-0.793223	0.490352
H81	H	1.206307	-0.793219	0.390394
H82	H	1.374465	-0.884180	0.422120
H83	H	1.274576	-0.884190	0.322160
H84	H	1.394402	-0.091946	-0.377718
C85	C	1.767744	-0.310708	0.076362
C86	C	1.688866	-0.274138	0.007953
H87	H	1.826074	-0.332276	0.018059
H88	H	1.814095	-0.285894	0.129906
H89	H	1.716555	-0.338765	0.127501
H90	H	1.740055	-0.246078	-0.043178
H91	H	1.642511	-0.298954	-0.045613
H92	H	1.750335	-0.442272	-0.053485
C93	C	1.850268	-0.525340	-0.153348
C94	C	1.774847	-0.566710	-0.077974
H95	H	1.908617	-0.546906	-0.211636
H96	H	1.796745	-0.500540	-0.199746
H97	H	1.896609	-0.500526	-0.099778
H98	H	1.728498	-0.591522	-0.131545
H99	H	1.828377	-0.591521	-0.031574
H100	H	1.394480	0.091929	-0.377698
C101	C	0.927331	0.106574	0.443655
C102	C	0.900054	0.106672	0.315558
H103	H	0.891136	0.141685	0.485521
H104	H	0.891882	0.071204	0.485069
H105	H	1.017477	0.106778	0.447246
H106	H	0.809908	0.106463	0.311967
H107	H	0.935498	0.142052	0.274133
C108	C	1.575888	0.158792	-0.269771
C109	C	1.640703	0.106665	-0.234818
H110	H	1.619391	0.193900	-0.243889
H111	H	1.573301	0.159404	-0.360026
H112	H	1.491019	0.158428	-0.229082
H113	H	1.725570	0.107027	-0.275515
H114	H	1.643305	0.106054	-0.144545
H115	H	1.622356	-0.092040	-0.245889
H116	H	0.915166	-0.091948	0.298048
H117	H	1.286838	-0.000051	-0.204950
H118	H	1.664438	-0.734870	0.032383
C119	C	1.252563	-0.182035	0.444041
C120	C	1.328005	-0.140682	0.368641
H121	H	1.194243	-0.160456	0.502333
H122	H	1.206200	-0.206844	0.390498
H123	H	1.306085	-0.206842	0.490446
H124	H	1.274483	-0.115877	0.322230
H125	H	1.374370	-0.115863	0.422192
C126	C	1.667349	-0.843946	-0.117789
C127	C	1.688934	-0.859324	0.007890
H128	H	1.725675	-0.865520	-0.176083
H129	H	1.582101	-0.854377	-0.132452
H130	H	1.679654	-0.801511	-0.130068
H131	H	1.676619	-0.901759	0.020173
H132	H	1.774202	-0.848897	0.022559
H133	H	1.266548	-0.442336	0.429983
C134	C	1.396447	-0.689287	0.447491
C135	C	1.328078	-0.725862	0.368576
H136	H	1.338119	-0.667718	0.505792
H137	H	1.449962	-0.714099	0.493874
H138	H	1.447612	-0.661233	0.396324
H139	H	1.276920	-0.753919	0.419744
H140	H	1.274541	-0.701048	0.322190
