data_functionalizedCrystal
_audit_creation_method	'MofGen! by Chris Wilmer'
_symmetry_space_group_name_H-M	'P1'
_symmetry_Int_Tables_number	1
_symmetry_cell_setting	triclinic
loop_
_symmetry_equiv_pos_as_xyz
  x,y,z
_cell_length_a	19.077114
_cell_length_b	19.077300
_cell_length_c	19.076919
_cell_angle_alpha	85.332737
_cell_angle_beta	85.527261
_cell_angle_gamma	89.941502
loop_
_atom_site_label
_atom_site_type_symbol
_atom_site_fract_x
_atom_site_fract_y
_atom_site_fract_z
Zn1	Zn	0.337088	-1.047514	-0.369401
Zn2	Zn	0.837088	-0.547514	0.130599
Zn3	Zn	0.450238	-1.047425	-0.256253
Zn4	Zn	0.950238	-0.547425	0.243747
Zn5	Zn	0.328023	-0.934752	-0.255886
Zn6	Zn	0.828023	-0.434752	0.244114
Zn7	Zn	0.450207	-0.924857	-0.378831
Zn8	Zn	0.950207	-0.424857	0.121169
O9	O	0.391389	-0.988637	-0.315093
O10	O	0.891389	-0.488637	0.184907
O11	O	0.355905	-1.145989	-0.350599
O12	O	0.855905	-0.645989	0.149401
O13	O	0.430245	-1.036582	-0.157399
O14	O	0.930245	-0.536582	0.342601
O15	O	0.230737	-0.953889	-0.266844
O16	O	0.730737	-0.453889	0.233156
O17	O	0.439035	-1.145923	-0.267470
O18	O	0.939035	-0.645923	0.232530
O19	O	0.237397	-1.036735	-0.350243
O20	O	0.737397	-0.536735	0.149757
O21	O	0.340454	-0.953802	-0.157129
O22	O	0.840454	-0.453802	0.342871
O23	O	0.340424	-0.834954	-0.275988
O24	O	0.840424	-0.334954	0.224012
O25	O	0.438983	-0.937025	-0.476386
O26	O	0.938983	-0.437025	0.023614
O27	O	0.430192	-0.827684	-0.366315
O28	O	0.930192	-0.327684	0.133685
O29	O	0.355874	-1.027140	-0.469458
O30	O	0.855874	-0.527140	0.030542
O31	O	0.548722	-1.026987	-0.276614
O32	O	1.048722	-0.526987	0.223386
O33	O	0.548700	-0.936938	-0.366671
O34	O	1.048700	-0.436938	0.133329
C35	C	0.384322	-0.805782	-0.322135
C36	C	0.884322	-0.305782	0.177865
C37	C	0.381316	-0.727555	-0.325166
C38	C	0.881316	-0.227555	0.174834
C39	C	0.359703	-0.287221	-0.346908
C40	C	0.859703	0.212779	0.153092
C41	C	0.362540	-0.360724	-0.344057
C42	C	0.862540	0.139276	0.155943
C43	C	0.407164	-0.397438	-0.299275
C44	C	0.907164	0.102562	0.200725
C45	C	0.448958	-0.360645	-0.257345
C46	C	0.948958	0.139355	0.242655
C47	C	0.446124	-0.287144	-0.260200
C48	C	0.946124	0.212856	0.239800
C49	C	0.420276	-0.617260	-0.286091
C50	C	0.920276	-0.117260	0.213909
C51	C	0.423105	-0.690767	-0.283238
C52	C	0.923105	-0.190767	0.216762
C53	C	0.336688	-0.690841	-0.369951
C54	C	0.836688	-0.190841	0.130049
C55	C	0.333855	-0.617338	-0.372799
C56	C	0.833855	-0.117338	0.127201
C57	C	0.375652	-0.580551	-0.330872
C58	C	0.875652	-0.080551	0.169128
N59	N	0.410063	-0.472570	-0.296358
N60	N	0.910063	0.027430	0.203642
N61	N	0.372756	-0.505421	-0.333793
N62	N	0.872756	-0.005421	0.166207
C63	C	0.574249	-0.980897	-0.322720
C64	C	1.074249	-0.480897	0.177280
C65	C	0.652481	-0.977650	-0.326004
C66	C	1.152481	-0.477650	0.173996
C67	C	0.689226	-1.023041	-0.280695
C68	C	1.189226	-0.523041	0.219305
C69	C	0.762733	-1.019990	-0.283788
C70	C	1.262733	-0.519990	0.216212
C71	C	0.799494	-0.971544	-0.332187
C72	C	1.299494	-0.471544	0.167813
C73	C	0.762744	-0.926151	-0.377501
C74	C	1.262744	-0.426151	0.122499
C75	C	0.689238	-0.929205	-0.374411
C76	C	1.189238	-0.429205	0.125589
C77	C	1.019334	-0.957381	-0.346455
C78	C	1.519334	-0.457381	0.153545
C79	C	1.092844	-0.954328	-0.349540
C80	C	1.592844	-0.454328	0.150460
C81	C	1.092828	-1.048169	-0.255828
C82	C	1.592828	-0.548169	0.244172
C83	C	1.019321	-1.051217	-0.252739
C84	C	1.519321	-0.551217	0.247261
C85	C	0.982578	-1.005826	-0.298056
C86	C	1.482578	-0.505826	0.201944
N87	N	0.874630	-0.968423	-0.335348
N88	N	1.374630	-0.468423	0.164652
N89	N	0.907443	-1.008950	-0.294898
N90	N	1.407443	-0.508950	0.205102
C91	C	1.207816	-0.996419	-0.307460
C92	C	1.707816	-0.496419	0.192540
C93	C	1.129589	-0.999720	-0.304231
C94	C	1.629589	-0.499720	0.195769
C95	C	0.398436	-0.980989	-0.499257
C96	C	0.898436	-0.480989	0.000743
C97	C	0.401439	-0.977730	-0.577737
C98	C	0.901439	-0.477730	-0.077737
C99	C	0.398481	-0.172206	-0.308016
C100	C	0.898481	0.327794	0.191984
C101	C	0.401492	-0.250434	-0.304980
C102	C	0.901492	0.249566	0.195020
C103	C	0.359582	-1.023114	-0.611001
C104	C	0.859582	-0.523114	-0.111001
C105	C	0.362401	-1.020043	-0.684742
C106	C	0.862401	-0.520043	-0.184742
C107	C	0.407081	-0.971591	-0.725217
C108	C	0.907081	-0.471591	-0.225217
C109	C	0.448940	-0.926201	-0.691948
C110	C	0.948940	-0.426201	-0.191948
C111	C	0.446117	-0.929269	-0.618209
C112	C	0.946117	-0.429269	-0.118209
C113	C	0.420160	-0.957381	-0.946140
C114	C	0.920160	-0.457381	-0.446140
C115	C	0.422981	-0.954318	-1.019884
C116	C	0.922981	-0.454318	-0.519884
C117	C	0.336441	-1.048159	-1.012673
C118	C	0.836441	-0.548159	-0.512673
C119	C	0.333625	-1.051226	-0.938933
C120	C	0.833625	-0.551226	-0.438933
C121	C	0.375481	-1.005834	-0.905670
C122	C	0.875481	-0.505834	-0.405670
N123	N	0.409965	-0.968452	-0.800591
N124	N	0.909965	-0.468452	-0.300591
N125	N	0.372593	-1.008970	-0.830297
N126	N	0.872593	-0.508970	-0.330297
C127	C	0.384320	-0.996298	-0.131641
C128	C	0.884320	-0.496298	0.368359
C129	C	0.381124	-0.999702	-0.053148
C130	C	0.881124	-0.499702	0.446852
H131	H	0.485294	-0.390544	-0.220885
H132	H	0.985294	0.109456	0.279115
O133	O	0.466357	-0.726468	-0.239655
O134	O	0.966357	-0.226468	0.260345
C135	C	0.475230	-0.813017	-0.141504
C136	C	0.975230	-0.313017	0.358496
C137	C	0.426172	-0.772624	-0.190800
C138	C	0.926172	-0.272624	0.309200
H139	H	0.442762	-0.850354	-0.102002
H140	H	0.942762	-0.350354	0.397998
H141	H	0.504603	-0.774131	-0.111977
H142	H	1.004603	-0.274131	0.388023
H143	H	0.514658	-0.844505	-0.174076
H144	H	1.014658	-0.344505	0.325924
H145	H	0.386704	-0.741135	-0.158280
H146	H	0.886704	-0.241135	0.341720
H147	H	0.396849	-0.811546	-0.220329
H148	H	0.896849	-0.311546	0.279671
O149	O	0.460878	-0.913251	-0.913947
O150	O	0.960878	-0.413251	-0.413947
C151	C	0.546954	-0.819796	-0.928888
C152	C	1.046954	-0.319796	-0.428888
C153	C	0.500896	-0.869753	-0.965440
C154	C	1.000896	-0.369753	-0.465440
H155	H	0.579309	-0.784606	-0.970503
H156	H	1.079309	-0.284606	-0.470503
H157	H	0.583735	-0.851927	-0.894667
H158	H	1.083735	-0.351927	-0.394667
H159	H	0.511871	-0.785839	-0.894425
H160	H	1.011871	-0.285839	-0.394425
H161	H	0.535924	-0.903721	-0.999939
H162	H	1.035924	-0.403721	-0.499939
H163	H	0.464110	-0.837581	-0.999618
H164	H	0.964110	-0.337581	-0.499618
H165	H	0.454308	-0.587318	-0.251949
H166	H	0.954308	-0.087318	0.248051
H167	H	0.485316	-0.886747	-0.724908
H168	H	0.985316	-0.386747	-0.224908
O169	O	0.486887	-0.885261	-0.585922
O170	O	0.986887	-0.385261	-0.085922
C171	C	0.604423	-0.846945	-0.569679
C172	C	1.104423	-0.346945	-0.069679
C173	C	0.558334	-0.896833	-0.606277
C174	C	1.058334	-0.396833	-0.106277
H175	H	0.662195	-0.856273	-0.586134
H176	H	1.162195	-0.356273	-0.086134
H177	H	0.594789	-0.857466	-0.510019
H178	H	1.094789	-0.357466	-0.010019
H179	H	0.590395	-0.790120	-0.585828
H180	H	1.090395	-0.290120	-0.085828
H181	H	0.572333	-0.953676	-0.590185
H182	H	1.072333	-0.453676	-0.090185
H183	H	0.567974	-0.886252	-0.665931
H184	H	1.067974	-0.386252	-0.165931
H185	H	0.792681	-0.886708	-0.416911
H186	H	1.292681	-0.386708	0.083089
H187	H	0.659322	-0.892244	-0.411307
H188	H	1.159322	-0.392244	0.088693
O189	O	0.316118	-1.070203	-0.571793
O190	O	0.816118	-0.570203	-0.071793
C191	C	0.230608	-1.162982	-0.572432
C192	C	0.730608	-0.662982	-0.072432
C193	C	0.279791	-1.109677	-0.616918
C194	C	0.779791	-0.609677	-0.116918
H195	H	0.201235	-1.194921	-0.608897
H196	H	0.701235	-0.694921	-0.108897
H197	H	0.191192	-1.133703	-0.537636
H198	H	0.691192	-0.633703	-0.037636
H199	H	0.263030	-1.199818	-0.537822
H200	H	0.763030	-0.699818	-0.037822
H201	H	0.247427	-1.072827	-0.651569
H202	H	0.747427	-0.572827	-0.151569
H203	H	0.319210	-1.139002	-0.651668
H204	H	0.819210	-0.639002	-0.151668
H205	H	0.297244	-1.090683	-0.905983
H206	H	0.797244	-0.590683	-0.405983
O207	O	0.316371	-0.251453	-0.390349
O208	O	0.816371	0.248547	0.109651
C209	C	0.273738	-0.138254	-0.433214
C210	C	0.773738	0.361746	0.066786
C211	C	0.322829	-0.178672	-0.383970
C212	C	0.822829	0.321328	0.116030
H213	H	0.278953	-0.079402	-0.428085
H214	H	0.778953	0.420598	0.071915
H215	H	0.217036	-0.155565	-0.417985
H216	H	0.717036	0.344435	0.082015
H217	H	0.288921	-0.149877	-0.490074
H218	H	0.788921	0.350123	0.009926
H219	H	0.307710	-0.167068	-0.327096
H220	H	0.807710	0.332932	0.172904
H221	H	0.379519	-0.161355	-0.399260
H222	H	0.879519	0.338645	0.100740
O223	O	0.321657	-1.064030	-0.717081
O224	O	0.821657	-0.564030	-0.217081
C225	C	0.230199	-1.074060	-0.796030
C226	C	0.730199	-0.574060	-0.296030
C227	C	0.276293	-1.024166	-0.759442
C228	C	0.776293	-0.524166	-0.259442
H229	H	0.193521	-1.041850	-0.830299
H230	H	0.693521	-0.541850	-0.330299
H231	H	0.197733	-1.109202	-0.754460
H232	H	0.697733	-0.609202	-0.254460
H233	H	0.265260	-1.108070	-0.830457
H234	H	0.765260	-0.608070	-0.330457
H235	H	0.241285	-0.990111	-0.725018
H236	H	0.741285	-0.490111	-0.225018
H237	H	0.308764	-0.989071	-0.801049
H238	H	0.808764	-0.489071	-0.301049
H239	H	0.302363	-1.085114	-1.039764
H240	H	0.802363	-0.585114	-0.539764
H241	H	0.480155	-0.257192	-0.226059
H242	H	0.980155	0.242808	0.273941
O243	O	0.296027	-0.726468	-0.410707
O244	O	0.796027	-0.226468	0.089293
C245	C	0.210057	-0.718780	-0.497058
C246	C	0.710057	-0.218780	0.002942
C247	C	0.256054	-0.678347	-0.450922
C248	C	0.756054	-0.178347	0.049078
H249	H	0.177738	-0.679890	-0.529595
H250	H	0.677738	-0.179890	-0.029595
H251	H	0.173243	-0.756068	-0.461870
H252	H	0.673243	-0.256068	0.038130
H253	H	0.245182	-0.750319	-0.533904
H254	H	0.745182	-0.250319	-0.033904
H255	H	0.220984	-0.646767	-0.414070
H256	H	0.720984	-0.146767	0.085930
H257	H	0.292873	-0.641100	-0.486153
H258	H	0.792873	-0.141100	0.013847
O259	O	0.321871	-0.396353	-0.384805
O260	O	0.821871	0.103647	0.115195
C261	C	0.235877	-0.388668	-0.471132
C262	C	0.735877	0.111332	0.028868
C263	C	0.281888	-0.348232	-0.425011
C264	C	0.781888	0.151768	0.074989
H265	H	0.203551	-0.349779	-0.503662
H266	H	0.703551	0.150221	-0.003662
H267	H	0.199070	-0.425954	-0.435933
H268	H	0.699070	0.074046	0.064067
H269	H	0.270992	-0.420210	-0.507984
H270	H	0.770992	0.079790	-0.007984
H271	H	0.246829	-0.316650	-0.388153
H272	H	0.746829	0.183350	0.111847
H273	H	0.318701	-0.310989	-0.460253
H274	H	0.818701	0.189011	0.039747
H275	H	0.459367	-0.914859	-1.052837
H276	H	0.959367	-0.414859	-0.552837
O277	O	0.983503	-1.098215	-0.205745
O278	O	1.483503	-0.598215	0.294255
C279	C	0.870259	-1.144533	-0.159480
C280	C	1.370259	-0.644533	0.340520
C281	C	0.910734	-1.091266	-0.212726
C282	C	1.410734	-0.591266	0.287274
H283	H	0.811419	-1.138942	-0.165116
H284	H	1.311419	-0.638942	0.334884
H285	H	0.882040	-1.133982	-0.103602
H286	H	1.382040	-0.633982	0.396398
H287	H	0.887364	-1.200149	-0.170336
H288	H	1.387364	-0.700149	0.329664
H289	H	0.893653	-1.035629	-0.201935
H290	H	1.393653	-0.535629	0.298065
H291	H	0.898951	-1.101878	-0.268586
H292	H	1.398951	-0.601878	0.231414
O293	O	1.128632	-1.092238	-0.211891
O294	O	1.628632	-0.592238	0.288109
C295	C	1.241863	-1.129109	-0.175099
C296	C	1.741863	-0.629109	0.324901
C297	C	1.201404	-1.079165	-0.224907
C298	C	1.701404	-0.579165	0.275093
H299	H	1.300705	-1.118548	-0.185595
H300	H	1.800705	-0.618548	0.314405
H301	H	1.230072	-1.185945	-0.184761
H302	H	1.730072	-0.685945	0.315239
H303	H	1.224752	-1.119778	-0.118027
H304	H	1.724752	-0.619778	0.381973
H305	H	1.218491	-1.088433	-0.281997
H306	H	1.718491	-0.588433	0.218003
H307	H	1.213197	-1.022346	-0.215184
H308	H	1.713197	-0.522346	0.284816
O309	O	0.653629	-1.070163	-0.233657
O310	O	1.153629	-0.570163	0.266343
C311	C	0.661378	-1.162889	-0.141005
C312	C	1.161378	-0.662889	0.358995
C313	C	0.701776	-1.109566	-0.194253
C314	C	1.201776	-0.609566	0.305747
H315	H	0.700286	-1.194750	-0.109123
H316	H	1.200286	-0.694750	0.390877
H317	H	0.629599	-1.199796	-0.170550
H318	H	1.129599	-0.699796	0.329450
H319	H	0.624331	-1.133557	-0.103888
H320	H	1.124331	-0.633557	0.396112
H321	H	0.738859	-1.138840	-0.231384
H322	H	1.238859	-0.638840	0.268616
H323	H	0.733508	-1.072661	-0.164663
H324	H	1.233508	-0.572661	0.335337
H325	H	0.297520	-0.587450	-0.409268
H326	H	0.797520	-0.087450	0.090732
H327	H	0.792647	-1.056953	-0.246892
H328	H	1.292647	-0.556953	0.253108
H329	H	1.122774	-0.914885	-0.388964
H330	H	1.622774	-0.414885	0.111036
H331	H	0.989423	-0.920420	-0.383352
H332	H	1.489423	-0.420420	0.116648
