data_functionalizedCrystal
_audit_creation_method	'MofGen! by Chris Wilmer'
_symmetry_space_group_name_H-M	'P1'
_symmetry_Int_Tables_number	1
_symmetry_cell_setting	triclinic
loop_
_symmetry_equiv_pos_as_xyz
  x,y,z
_cell_length_a	8.559648
_cell_length_b	8.597340
_cell_length_c	7.088929
_cell_angle_alpha	103.954719
_cell_angle_beta	95.334324
_cell_angle_gamma	102.376322
loop_
_atom_site_label
_atom_site_type_symbol
_atom_site_fract_x
_atom_site_fract_y
_atom_site_fract_z
O1	O	-0.219475	2.074471	0.182797
O2	O	-0.245563	1.606591	0.105726
O3	O	0.000135	1.881746	0.151003
O4	O	-0.465174	1.799316	0.137519
O5	O	0.033045	1.918527	0.475031
O6	O	-0.212654	1.643372	0.429753
O7	O	-0.186566	2.111251	0.506824
Cu8	Cu	-0.196605	1.880670	0.497875
Cu9	Cu	-0.235524	1.837172	0.114675
O10	O	-0.432265	1.836096	0.461547
C11	C	-0.228140	1.565637	0.257963
C12	C	-0.225236	1.388811	0.228832
C13	C	0.076127	1.906382	0.314030
C14	C	0.253528	1.924973	0.317044
C15	C	0.491738	1.811454	0.298462
C16	C	0.314319	1.792842	0.295272
C17	C	-0.203989	2.152205	0.354583
C18	C	-0.206895	2.329029	0.383701
N19	N	-0.169230	1.911275	0.767399
N20	N	-0.262886	1.806581	-0.154847
H21	H	-0.193403	1.413127	0.538584
O22	O	-0.241605	1.288349	0.044068
C23	C	-0.379407	1.156001	0.012084
H24	H	-0.466750	1.193055	0.116498
H25	H	-0.441679	1.124472	-0.146398
H26	H	-0.341224	1.043457	0.040285
H27	H	-0.072181	2.019796	0.866913
H28	H	0.230646	1.665495	0.274317
O29	O	-0.378758	1.677316	0.726282
C30	C	-0.489063	1.737571	0.620464
H31	H	-0.428208	1.866797	0.611922
H32	H	-0.528954	1.651680	0.465496
H33	H	-0.599219	1.742957	0.698401
H34	H	0.337212	2.052331	0.338022
