data_functionalizedCrystal
_audit_creation_method	'MofGen! by Chris Wilmer'
_symmetry_space_group_name_H-M	'P1'
_symmetry_Int_Tables_number	1
_symmetry_cell_setting	triclinic
loop_
_symmetry_equiv_pos_as_xyz
  x,y,z
_cell_length_a	20.919331
_cell_length_b	20.919319
_cell_length_c	20.875652
_cell_angle_alpha	59.954731
_cell_angle_beta	93.148711
_cell_angle_gamma	64.539700
loop_
_atom_site_label
_atom_site_type_symbol
_atom_site_fract_x
_atom_site_fract_y
_atom_site_fract_z
Zr1	Zr	0.646724	0.695224	-0.072732
O2	O	0.553404	0.820805	-0.181190
O3	O	0.671585	0.564374	-0.036232
O4	O	0.681326	0.688145	-0.169421
O5	O	0.540241	0.704457	0.053363
O6	O	0.786494	0.688553	-0.163836
O7	O	0.543663	0.697035	-0.048001
O8	O	0.769070	0.467151	0.074415
O9	O	0.557666	0.925859	-0.184888
O10	O	0.765200	0.620451	-0.020425
O11	O	0.684161	0.625684	0.051053
O12	O	0.695629	0.771408	-0.105760
O13	O	0.614589	0.776642	-0.034281
Zr14	Zr	0.808998	0.707712	0.097840
Zr15	Zr	0.814456	0.695875	-0.063823
Zr16	Zr	0.641266	0.707060	0.088932
Zr17	Zr	0.653521	0.862772	-0.078629
Zr18	Zr	0.802201	0.540164	0.103738
O19	O	0.784137	0.838562	0.061341
O20	O	0.791897	0.821732	-0.168524
O21	O	0.545644	0.837635	0.048675
O22	O	0.902318	0.582131	0.206299
O23	O	0.910078	0.565301	-0.023566
O24	O	0.663825	0.581204	0.193633
O25	O	0.915481	0.698479	-0.028254
O26	O	0.774396	0.714791	0.194530
O27	O	0.669228	0.714383	0.188945
O28	O	0.912059	0.705901	0.073110
O29	O	0.690990	0.926377	-0.177807
O30	O	0.764732	0.476559	0.202916
O31	O	0.898056	0.477077	0.209997
O32	O	0.902394	0.467669	0.081496
O33	O	0.553328	0.935267	-0.056387
O34	O	0.686652	0.935785	-0.049306
O35	O	0.760093	0.631528	0.130868
O36	O	0.841133	0.626294	0.059390
O37	O	0.771561	0.777251	-0.025945
O38	O	0.690521	0.782485	0.045534
C39	C	0.719359	0.491890	0.019932
C40	C	0.716474	0.420762	0.022435
C41	C	0.698283	0.018345	0.038784
C42	C	0.700957	0.085218	0.036381
C43	C	0.744592	0.115924	-0.002137
C44	C	0.785562	0.079747	-0.038247
C45	C	0.782892	0.012871	-0.035840
C46	C	0.754774	0.317708	-0.011268
C47	C	0.757439	0.384591	-0.013675
C48	C	0.672834	0.390057	0.060955
C49	C	0.670165	0.323182	0.063355
C50	C	0.711138	0.287008	0.027248
C51	C	0.747324	0.184282	-0.004595
C52	C	0.708409	0.218647	0.029712
C53	C	0.518054	0.700653	0.001412
C54	C	0.446848	0.700376	-0.002370
C55	C	0.411508	0.704332	0.051695
C56	C	0.344600	0.704076	0.048133
C57	C	0.313036	0.699858	-0.009491
C58	C	0.348380	0.695905	-0.063561
C59	C	0.415283	0.696167	-0.060002
C60	C	0.111122	0.698868	-0.023033
C61	C	0.044214	0.698604	-0.026586
C62	C	0.040438	0.706777	0.085108
C63	C	0.107346	0.707034	0.088664
C64	C	0.142682	0.703084	0.034591
C65	C	0.244647	0.699594	-0.013131
C66	C	0.211067	0.703355	0.038229
C67	C	0.937668	0.702283	0.023697
C68	C	1.008874	0.702560	0.027479
C69	C	0.734688	0.686662	-0.189662
C70	C	0.737005	0.681637	-0.258293
C71	C	0.736363	0.911045	0.005177
C72	C	0.739248	0.982174	0.002673
C73	C	0.753946	0.644864	-0.639812
C74	C	0.751771	0.649592	-0.575330
C75	C	0.714363	0.730756	-0.587636
C76	C	0.679134	0.807196	-0.664431
C77	C	0.681313	0.802467	-0.728911
C78	C	0.703955	0.753349	-0.399568
C79	C	0.701776	0.758072	-0.335080
C80	C	0.774415	0.600468	-0.245982
C81	C	0.776587	0.595746	-0.310468
C82	C	0.741361	0.672186	-0.387257
N83	N	0.712138	0.735591	-0.521727
N84	N	0.743592	0.667350	-0.453165
C85	C	0.721034	0.716274	0.214771
C86	C	0.718717	0.721299	0.283401
C87	C	0.929166	0.492705	0.031074
C88	C	0.997487	0.421853	0.037360
C89	C	0.712532	0.506696	0.222148
C90	C	0.707330	0.440592	0.293282
C91	C	0.922339	0.507511	0.233291
C92	C	0.988343	0.441684	0.308207
C93	C	0.533383	0.895425	-0.208182
C94	C	0.467379	0.961252	-0.283098
C95	C	0.526556	0.910230	-0.005966
C96	C	0.458235	0.981083	-0.012251
C97	C	0.743190	0.896240	-0.197039
C98	C	0.748392	0.962344	-0.268174
C99	C	0.989936	0.385530	-0.001358
C100	C	1.054125	0.318965	0.004532
C101	C	1.125865	0.288720	0.049145
C102	C	1.133415	0.325051	0.087864
C103	C	1.069226	0.391619	0.081969
C104	C	0.744522	0.412600	0.368357
C105	C	0.739631	0.350498	0.435201
C106	C	0.697552	0.316385	0.426969
C107	C	0.660355	0.344384	0.351886
C108	C	0.665242	0.406489	0.285043
C109	C	1.061648	0.408039	0.306078
C110	C	1.123673	0.346196	0.376463
C111	C	1.112391	0.317995	0.448977
C112	C	1.039078	0.351647	0.451104
C113	C	0.977055	0.413493	0.380719
C114	C	0.394074	0.994905	-0.280969
C115	C	0.332050	1.056769	-0.351355
C116	C	0.343332	1.084973	-0.423869
C117	C	0.416645	1.051318	-0.425996
C118	C	0.478667	0.989460	-0.355611
C119	C	0.465787	1.017413	0.026460
C120	C	0.401599	1.083995	0.020551
C121	C	0.329859	1.114241	-0.024064
C122	C	0.322309	1.077908	-0.062780
C123	C	0.386497	1.011331	-0.056875
C124	C	0.790478	0.996437	-0.259916
C125	C	0.795381	1.058540	-0.326747
C126	C	0.758193	1.086553	-0.401835
C127	C	0.716106	1.052453	-0.410091
C128	C	0.711208	0.990347	-0.343261
H129	H	0.639477	0.419516	0.090353
H130	H	0.816251	-0.016580	-0.065243
H131	H	0.380337	0.981753	-0.088397
H132	H	1.183362	0.318803	0.374717
H133	H	0.788134	0.288261	-0.040670
H134	H	0.931528	0.410153	-0.037695
H135	H	0.444056	0.692947	-0.104028
H136	H	1.047963	0.289392	-0.026998
H137	H	0.272361	1.084161	-0.349608
H138	H	0.917369	0.440879	0.382464
H139	H	0.538354	0.962059	-0.357354
H140	H	1.029903	0.328676	0.510154
H141	H	0.807051	0.529654	-0.300438
H142	H	0.292823	1.135342	-0.481175
H143	H	0.648679	0.873281	-0.674447
H144	H	0.769925	0.327710	0.496330
H145	H	0.384873	0.971944	-0.221931
H146	H	0.322674	0.692475	-0.110483
H147	H	0.425822	1.074290	-0.485046
H148	H	0.634957	0.429271	0.223917
H149	H	0.524195	0.992792	0.062795
H150	H	0.693579	0.265816	0.481403
H151	H	0.821095	0.104748	-0.069606
H152	H	0.407761	1.113567	0.052082
H153	H	0.820761	0.973639	-0.198782
H154	H	0.803095	0.538234	-0.183456
H155	H	0.634633	0.298185	0.094722
H156	H	0.626094	0.316600	0.345195
H157	H	0.236766	0.706794	0.085143
H158	H	0.778788	0.440368	0.375075
H159	H	1.162901	0.267635	0.506283
H160	H	0.437205	0.707762	0.098621
H161	H	0.762187	1.137125	-0.456246
H162	H	0.792974	0.409589	-0.045043
H163	H	0.277600	1.168453	-0.028865
H164	H	0.672884	0.193641	0.061076
H165	H	0.829651	1.086299	-0.320010
H166	H	0.652627	0.864708	-0.791435
H167	H	0.263890	1.102545	-0.099105
H168	H	0.667603	0.114661	0.065791
H169	H	0.685829	1.075271	-0.471237
H170	H	1.191834	0.300416	0.124186
H171	H	0.676934	0.962594	-0.349995
H172	H	1.178125	0.234515	0.053939
H173	H	1.075385	0.421186	0.113502
H174	H	0.671308	0.824168	-0.345109
H175	H	0.662747	-0.006647	0.070144
H176	H	0.782851	0.209290	-0.035959
H177	H	0.133044	0.710468	0.135586
H178	H	0.011661	0.709994	0.129130
H179	H	0.315826	0.707299	0.092156
H180	H	0.018519	0.695168	-0.073513
H181	H	0.139888	0.695650	-0.067060
H182	H	0.218943	0.696157	-0.060048
H183	H	1.070849	0.430991	0.247040
H184	H	0.784403	0.578772	-0.629782
H185	H	0.780461	0.587351	-0.512808
H186	H	0.675271	0.815592	-0.462084
