data_functionalizedCrystal
_audit_creation_method	'MofGen! by Chris Wilmer'
_symmetry_space_group_name_H-M	'P1'
_symmetry_Int_Tables_number	1
_symmetry_cell_setting	triclinic
loop_
_symmetry_equiv_pos_as_xyz
  x,y,z
_cell_length_a	14.519709
_cell_length_b	15.995350
_cell_length_c	13.596369
_cell_angle_alpha	89.996243
_cell_angle_beta	90.000291
_cell_angle_gamma	83.586260
loop_
_atom_site_label
_atom_site_type_symbol
_atom_site_fract_x
_atom_site_fract_y
_atom_site_fract_z
O1	O	1.223669	0.109760	-0.081658
O2	O	0.955169	0.122685	-0.081688
O3	O	1.096759	-0.005654	-0.081671
O4	O	1.082079	0.238099	-0.081675
O5	O	1.096744	-0.005661	0.081912
O6	O	0.955155	0.122679	0.081895
O7	O	1.223655	0.109753	0.081925
Zn8	Zn	1.089403	0.116215	0.107882
Zn9	Zn	1.089421	0.116224	-0.107645
O10	O	1.082065	0.238093	0.081908
C11	C	0.920803	0.122080	0.000100
C12	C	0.818425	0.120275	0.000088
C13	C	0.443541	0.113629	0.000133
C14	C	0.547846	0.115475	0.000120
C15	C	0.630980	0.116952	0.000110
C16	C	0.735291	0.118797	0.000099
C17	C	1.096145	-0.036853	0.000118
C18	C	1.094325	-0.129806	0.000112
C19	C	1.087791	-0.467563	0.000115
C20	C	0.986954	-0.420280	-0.000263
C21	C	0.988773	-0.323587	0.000106
C22	C	1.091032	-0.299998	0.000113
C23	C	1.140761	-0.341005	0.093531
C24	C	1.138228	-0.437644	0.093609
C25	C	1.140327	-0.437992	-0.092415
C26	C	1.140303	-0.341046	-0.093650
C27	C	1.092869	-0.205298	0.000115
C28	C	1.085957	-0.562264	0.000119
C29	C	1.258021	0.110359	0.000135
C30	C	1.360399	0.112164	0.000140
C31	C	1.082679	0.269292	0.000116
C32	C	1.084498	0.362245	0.000116
N33	N	1.089397	0.116208	0.254974
N34	N	1.089434	0.116224	-0.254737
C35	C	1.089420	0.116225	0.656265
C36	C	1.089411	0.116223	0.544614
C37	C	1.089409	0.116217	0.455623
C38	C	1.089399	0.116214	0.343965
H39	H	0.946656	-0.438870	-0.067255
H40	H	1.212261	-0.469782	0.097852
H41	H	1.107364	-0.458578	-0.163220
H42	H	1.214674	-0.469641	-0.093038
H43	H	0.949409	-0.295784	0.067177
H44	H	1.215888	-0.326767	0.097010
H45	H	0.949683	-0.295221	-0.066860
O46	O	1.099410	-0.307301	0.176435
C47	C	1.005554	-0.322300	0.177495
H48	H	0.996136	-0.378920	0.129104
H49	H	0.960764	-0.264589	0.148185
C50	C	0.987825	-0.270614	0.343050
C51	C	0.976259	-0.340161	0.283621
H52	H	0.969753	-0.281628	0.408513
H53	H	1.051057	-0.260506	0.342335
H54	H	0.950499	-0.222528	0.318613
H55	H	1.013594	-0.388242	0.308051
H56	H	0.913033	-0.350278	0.284343
H57	H	0.946823	-0.439937	0.066347
O58	O	1.094849	-0.459639	0.176804
C59	C	1.015814	-0.498703	0.151290
H60	H	1.024509	-0.525578	0.073770
H61	H	0.951860	-0.450430	0.154044
C62	C	0.993445	-0.537273	0.319627
C63	C	1.004128	-0.570287	0.224418
H64	H	0.986232	-0.581426	0.364738
H65	H	1.046690	-0.510952	0.336818
H66	H	0.940151	-0.497045	0.321908
H67	H	1.057426	-0.610506	0.222135
H68	H	0.950890	-0.596616	0.207229
O69	O	1.096909	-0.308429	-0.176003
C70	C	1.022286	-0.248785	-0.149012
H71	H	1.034893	-0.223945	-0.072159
H72	H	0.955282	-0.279761	-0.149359
C73	C	0.998769	-0.205853	-0.317271
C74	C	1.014257	-0.175339	-0.222881
H75	H	0.993813	-0.160550	-0.362839
H76	H	1.049042	-0.246039	-0.335457
H77	H	0.942934	-0.231667	-0.317546
H78	H	1.070097	-0.149536	-0.222605
H79	H	0.963994	-0.135147	-0.204697
O80	O	1.229258	-0.322598	-0.100583
C81	C	1.270733	-0.360630	-0.185625
H82	H	1.214561	-0.372814	-0.240707
H83	H	1.312420	-0.422791	-0.164925
C84	C	1.404595	-0.286779	-0.164427
C85	C	1.335604	-0.301738	-0.232082
H86	H	1.444614	-0.250455	-0.193082
H87	H	1.376655	-0.261159	-0.107130
H88	H	1.439324	-0.338585	-0.147182
H89	H	1.300869	-0.249934	-0.249317
H90	H	1.363540	-0.327348	-0.289384
