data_functionalizedCrystal
_audit_creation_method	'MofGen! by Chris Wilmer'
_symmetry_space_group_name_H-M	'P1'
_symmetry_Int_Tables_number	1
_symmetry_cell_setting	triclinic
loop_
_symmetry_equiv_pos_as_xyz
  x,y,z
_cell_length_a	18.050590
_cell_length_b	21.295417
_cell_length_c	18.050582
_cell_angle_alpha	89.974292
_cell_angle_beta	90.000767
_cell_angle_gamma	90.018869
loop_
_atom_site_label
_atom_site_type_symbol
_atom_site_fract_x
_atom_site_fract_y
_atom_site_fract_z
Zn1	Zn	1.135285	-0.250831	-0.419585
Zn2	Zn	1.135192	-0.356092	-0.295389
Zn3	Zn	1.011104	-0.250821	-0.295444
Zn4	Zn	1.011049	-0.356047	-0.419571
O5	O	1.073157	-0.303448	-0.357497
O6	O	1.239197	-0.264818	-0.403093
O7	O	1.118716	-0.342143	-0.191471
O8	O	1.027639	-0.162733	-0.311940
O9	O	1.239129	-0.342153	-0.311847
O10	O	1.118874	-0.162741	-0.403147
O11	O	1.027549	-0.264801	-0.191512
O12	O	0.907172	-0.264756	-0.311926
O13	O	1.027545	-0.342075	-0.523498
O14	O	0.907132	-0.342065	-0.403122
O15	O	1.118820	-0.264773	-0.523508
O16	O	1.118663	-0.444176	-0.311833
O17	O	1.027455	-0.444142	-0.403069
C18	C	0.880205	-0.303405	-0.357529
C19	C	0.797660	-0.303402	-0.357560
C20	C	0.598208	-0.345562	-0.407035
C21	C	0.548817	-0.288165	-0.425314
C22	C	0.646529	-0.303437	-0.357524
C23	C	0.548839	-0.360867	-0.339245
C24	C	0.500544	-0.303476	-0.357491
C25	C	0.598225	-0.246009	-0.375838
C26	C	0.598251	-0.318749	-0.289738
C27	C	0.548882	-0.261313	-0.307991
C28	C	0.730627	-0.303415	-0.357545
C29	C	0.416448	-0.303491	-0.357469
C30	C	1.073063	-0.467000	-0.357460
C31	C	1.073090	-0.536968	-0.357468
C32	C	1.120569	-0.569781	-0.404994
C33	C	1.120595	-0.635523	-0.405012
C34	C	1.073150	-0.668450	-0.357492
C35	C	1.025662	-0.635629	-0.309963
C36	C	1.025632	-0.569888	-0.309952
N37	N	1.067546	-0.771706	-0.292499
N38	N	1.067579	-0.834158	-0.292512
C39	C	1.073237	-0.866525	-0.357525
N40	N	1.078875	-0.834081	-0.422526
N41	N	1.078846	-0.771624	-0.422512
C42	C	1.073178	-0.739735	-0.357499
C43	C	1.120747	-0.970624	-0.405074
C44	C	1.120768	-1.036367	-0.405094
C45	C	1.025839	-1.036472	-0.310039
C46	C	1.025814	-0.970729	-0.310026
C47	C	1.073272	-0.937809	-0.357542
C48	C	1.266863	-0.303492	-0.357465
C49	C	1.349409	-0.303510	-0.357452
C50	C	1.073187	-0.303420	-0.551203
C51	C	1.073199	-0.303408	-0.633749
C52	C	1.073273	-0.139258	-0.357551
C53	C	1.073322	-0.069290	-0.357574
C54	C	1.023601	-0.345387	-0.833194
C55	C	1.091356	-0.360785	-0.882566
C56	C	1.073236	-0.303360	-0.784879
C57	C	1.005518	-0.287944	-0.882589
C58	C	1.073265	-0.303315	-0.930864
C59	C	1.141026	-0.318788	-0.833164
C60	C	1.055142	-0.245921	-0.833183
C61	C	1.122944	-0.261297	-0.882532
C62	C	1.073218	-0.303388	-0.700781
C63	C	1.073291	-0.303287	-1.014961
C64	C	1.073171	-0.303430	-0.164545
C65	C	1.073303	-0.303265	-0.082000
H66	H	0.527360	-0.225664	-0.266107
Br67	Br	1.185151	-0.925943	-0.469561
H68	H	0.527103	-0.275226	-0.482625
H69	H	0.619869	-0.381124	-0.448952
H70	H	0.527142	-0.409418	-0.323800
H71	H	0.987155	-0.944011	-0.271323
H72	H	0.986968	-0.543170	-0.271250
H73	H	0.981666	-0.380974	-0.811530
H74	H	0.619828	-0.197444	-0.391350
Br75	Br	1.116896	-0.441714	-0.918720
Br76	Br	1.029574	-0.165012	-0.796999
Br77	Br	1.236524	-0.340587	-0.797137
H78	H	1.159210	-0.542979	-0.443686
H79	H	0.948238	-0.274925	-0.904300
Br80	Br	0.634442	-0.340330	-0.194225
Br81	Br	1.185039	-0.680066	-0.469511
Br82	Br	1.193001	-0.202027	-0.918418
H83	H	0.987031	-0.662442	-0.271274
Br84	Br	0.961444	-1.081150	-0.245550
Br85	Br	1.185198	-1.080901	-0.469610
