data_functionalizedCrystal
_audit_creation_method	'MofGen! by Chris Wilmer'
_symmetry_space_group_name_H-M	'P1'
_symmetry_Int_Tables_number	1
_symmetry_cell_setting	triclinic
loop_
_symmetry_equiv_pos_as_xyz
  x,y,z
_cell_length_a	10.654556
_cell_length_b	14.421503
_cell_length_c	10.654551
_cell_angle_alpha	89.992837
_cell_angle_beta	84.486385
_cell_angle_gamma	90.008120
loop_
_atom_site_label
_atom_site_type_symbol
_atom_site_fract_x
_atom_site_fract_y
_atom_site_fract_z
O1	O	1.667845	0.077115	0.176418
O2	O	2.167845	0.577115	0.676418
O3	O	1.302368	0.077114	0.193216
O4	O	1.802368	0.577114	0.693216
O5	O	1.493509	0.077115	0.002078
O6	O	1.993509	0.577115	0.502078
O7	O	1.476704	0.077114	0.367556
O8	O	1.976704	0.577114	0.867556
O9	O	1.493477	-0.077109	0.002106
O10	O	1.993477	0.422891	0.502106
O11	O	1.302336	-0.077110	0.193244
O12	O	1.802336	0.422890	0.693244
O13	O	1.667813	-0.077109	0.176446
O14	O	2.167813	0.422891	0.676446
Cu15	Cu	1.485072	-0.091191	0.184848
Cu16	Cu	1.985072	0.408809	0.684848
Cu17	Cu	1.485109	0.091196	0.184814
Cu18	Cu	1.985109	0.591196	0.684814
O19	O	1.476672	-0.077110	0.367584
O20	O	1.976672	0.422890	0.867584
C21	C	1.255554	0.000002	0.191995
C22	C	1.755554	0.500002	0.691995
C23	C	1.116111	0.000002	0.188300
C24	C	1.616111	0.500002	0.688300
N25	N	1.485054	-0.219472	0.184871
N26	N	1.985054	0.280528	0.684871
C27	C	0.919598	0.084077	0.183085
C28	C	1.419598	0.584077	0.683085
C29	C	1.050620	0.084073	0.186550
C30	C	1.550620	0.584073	0.686550
C31	C	1.050574	-0.084070	0.186573
C32	C	1.550574	0.415930	0.686573
C33	C	0.919555	-0.084065	0.183100
C34	C	1.419555	0.415935	0.683100
C35	C	0.919625	0.181153	0.183077
C36	C	1.419625	0.681153	0.683077
C37	C	1.050647	0.181149	0.186541
C38	C	1.550647	0.681149	0.686541
C39	C	1.396655	-0.469126	0.273213
C40	C	1.896655	0.030874	0.773213
C41	C	1.510351	-0.530929	0.298580
C42	C	2.010351	-0.030929	0.798580
C43	C	1.485085	-0.408634	0.184841
C44	C	1.985085	0.091366	0.684841
C45	C	1.371417	-0.530925	0.159504
C46	C	1.871417	-0.030925	0.659504
C47	C	1.485104	-0.591355	0.184815
C48	C	1.985104	-0.091355	0.684815
C49	C	1.598839	-0.469075	0.210265
C50	C	2.098839	0.030925	0.710265
C51	C	1.459830	-0.469066	0.071139
C52	C	1.959830	0.030934	0.571139
C53	C	1.573608	-0.530841	0.096459
C54	C	2.073608	-0.030841	0.596459
C55	C	1.485072	-0.303372	0.184859
C56	C	1.985072	0.196628	0.684859
C57	C	1.485130	-0.696614	0.184796
C58	C	1.985130	-0.196614	0.684796
C59	C	1.714627	0.000005	0.177667
C60	C	2.214627	0.500005	0.677667
C61	C	1.854070	0.000011	0.181362
C62	C	2.354070	0.500011	0.681362
C63	C	1.492259	0.000005	-0.044706
C64	C	1.992259	0.500005	0.455294
C65	C	1.488566	0.000011	-0.184149
C66	C	1.988566	0.500011	0.315851
N67	N	1.485136	0.219477	0.184782
N68	N	1.985136	0.719477	0.684782
C69	C	1.486851	0.084077	-0.249676
C70	C	1.986851	0.584077	0.250324
C71	C	1.483371	0.084073	-0.380697
C72	C	1.983371	0.584073	0.119303
C73	C	1.483326	-0.084070	-0.380651
C74	C	1.983326	0.415930	0.119349
C75	C	1.486797	-0.084065	-0.249632
C76	C	1.986797	0.415935	0.250368
C77	C	1.486883	0.181153	-0.249704
C78	C	1.986883	0.681153	0.250296
C79	C	1.483402	0.181149	-0.380725
C80	C	1.983402	0.681149	0.119275
C81	C	1.477922	0.000002	0.414368
C82	C	1.977922	0.500002	0.914368
C83	C	1.481615	0.000002	0.553811
C84	C	1.981615	0.500002	1.053811
H85	H	0.866210	-0.152519	0.181671
H86	H	1.366210	0.347481	0.681671
H87	H	1.438416	-0.441872	-0.024975
H88	H	1.938416	0.058128	0.475025
H89	H	1.103908	-0.152522	0.187988
H90	H	1.603908	0.347478	0.687988
C91	C	1.359667	0.221846	-0.420686
C92	C	1.859667	0.721846	0.079314
N93	N	1.266470	0.252495	-0.450786
N94	N	1.766470	0.752495	0.049214
H95	H	1.321950	-0.442029	0.348007
H96	H	1.821950	0.057971	0.848007
H97	H	1.481883	-0.152522	-0.433984
H98	H	1.981883	0.347478	0.066016
H99	H	1.570201	0.218422	-0.427021
H100	H	2.070201	0.718422	0.072979
H101	H	0.894808	0.218430	0.094396
H102	H	1.394808	0.718430	0.594396
H103	H	0.867926	0.211274	0.272515
H104	H	1.367926	0.711274	0.772515
C105	C	1.120514	0.221847	0.065701
C106	C	1.620514	0.721847	0.565701
N107	N	1.173140	0.252497	-0.025316
N108	N	1.673140	0.752497	0.474684
C109	C	1.084213	0.231494	0.306332
C110	C	1.584213	0.731494	0.806332
N111	N	1.109495	0.269412	0.396555
N112	N	1.609495	0.769412	0.896555
C113	C	1.610634	0.221846	-0.209760
C114	C	2.110634	0.721846	0.290240
N115	N	1.703845	0.252495	-0.179673
N116	N	2.203845	0.752495	0.320327
H117	H	1.531730	-0.558101	0.394725
H118	H	2.031730	-0.058101	0.894725
C119	C	1.728741	-0.432530	0.239364
C120	C	2.228741	0.067470	0.739364
N121	N	1.826580	-0.405002	0.261287
N122	N	2.326580	0.094998	0.761287
C123	C	1.674758	-0.567235	-0.004511
C124	C	2.174758	-0.067235	0.495489
N125	N	1.750948	-0.594653	-0.080553
N126	N	2.250948	-0.094653	0.419447
C127	C	1.369642	0.231505	-0.187187
C128	C	1.869642	0.731505	0.312813
N129	N	1.281337	0.269427	-0.140099
N130	N	1.781337	0.769427	0.359901
H131	H	1.275283	-0.558095	0.138085
H132	H	1.775283	-0.058095	0.638085
H133	H	1.488187	-0.152519	-0.196284
H134	H	1.988187	0.347481	0.303716
