data_functionalizedCrystal
_audit_creation_method	'MofGen! by Chris Wilmer'
_symmetry_space_group_name_H-M	'P1'
_symmetry_Int_Tables_number	1
_symmetry_cell_setting	triclinic
loop_
_symmetry_equiv_pos_as_xyz
  x,y,z
_cell_length_a	15.538191
_cell_length_b	14.044220
_cell_length_c	14.185569
_cell_angle_alpha	75.620253
_cell_angle_beta	97.875798
_cell_angle_gamma	70.230486
loop_
_atom_site_label
_atom_site_type_symbol
_atom_site_fract_x
_atom_site_fract_y
_atom_site_fract_z
O1	O	1.205756	-0.271175	-0.083422
O2	O	0.940435	-0.164802	-0.083425
O3	O	1.069115	-0.354606	-0.083414
O4	O	1.077076	-0.081371	-0.083433
O5	O	1.107129	-0.410672	0.083424
O6	O	0.978449	-0.220867	0.083413
O7	O	1.243770	-0.327240	0.083415
Cu8	Cu	1.114580	-0.279173	0.098648
Cu9	Cu	1.069625	-0.212869	-0.098657
O10	O	1.115089	-0.137436	0.083404
C11	C	0.925281	-0.181705	-0.000006
C12	C	0.823493	-0.148554	-0.000006
C13	C	0.508030	-0.477901	0.000002
C14	C	0.412383	-0.446726	-0.000001
C15	C	0.404671	-0.271379	-0.000014
C16	C	0.500321	-0.302540	-0.000006
C17	C	0.551993	-0.405802	0.000001
C18	C	0.544283	-0.230442	-0.000007
C19	C	0.639923	-0.261599	-0.000004
C20	C	0.691600	-0.364855	-0.000001
C21	C	0.647632	-0.436960	0.000003
C22	C	0.492608	-0.127178	-0.000020
C23	C	0.536570	-0.055080	-0.000021
C24	C	0.632213	-0.086239	-0.000012
C25	C	0.683891	-0.189495	-0.000008
C26	C	0.676181	-0.014135	-0.000016
C27	C	0.771821	-0.045293	-0.000013
C28	C	0.779531	-0.220653	-0.000005
C29	C	1.084636	-0.416754	0.000006
C30	C	1.074236	-0.518402	0.000007
C31	C	1.055220	-0.704517	-0.000008
C32	C	1.128978	-0.787527	-0.000010
C33	C	1.118398	-0.891087	-0.000018
C34	C	1.065800	-0.600946	0.000000
C35	C	1.258923	-0.310336	-0.000005
C36	C	1.360709	-0.343485	-0.000012
C37	C	1.099568	-0.075288	-0.000017
C38	C	1.109966	0.026363	-0.000025
N39	N	1.146206	-0.325810	0.237422
N40	N	1.038005	-0.166242	-0.237431
C41	C	0.945085	-0.029261	0.605054
C42	C	0.969048	-0.064584	0.710078
C43	C	1.083023	-0.232618	0.710049
C44	C	1.059066	-0.197311	0.605023
C45	C	0.990097	-0.095631	0.552534
C46	C	1.104079	-0.263681	0.552503
C47	C	1.080128	-0.228374	0.447486
C48	C	1.011163	-0.126697	0.394990
C49	C	0.966146	-0.060324	0.447518
C50	C	1.173053	-0.365358	0.604994
C51	C	1.218065	-0.431728	0.552473
C52	C	1.194109	-0.396424	0.447455
C53	C	1.125145	-0.294747	0.394959
C54	C	1.239127	-0.462797	0.394927
C55	C	1.215175	-0.427490	0.289911
C56	C	1.101193	-0.259440	0.289942
H57	H	0.362586	-0.187302	-0.000023
N58	N	0.966051	-0.712956	0.000008
N59	N	0.958318	-0.781118	0.070336
H60	H	0.895345	-0.787093	0.070352
N61	N	0.394910	-0.095329	-0.000037
N62	N	0.334482	-0.018646	-0.070373
H63	H	0.265482	0.003848	-0.070388
H64	H	0.807618	0.013414	-0.000005
H65	H	0.494485	0.028997	-0.000031
N66	N	0.874623	0.074602	0.551444
N67	N	0.834430	0.133853	0.598346
H68	H	0.784669	0.207203	0.560485
H69	H	0.550106	-0.561989	0.000013
H70	H	1.200055	-0.780793	-0.000077
N71	N	0.623376	0.091342	-0.000042
N72	N	0.537982	0.119152	-0.000058
H73	H	0.500687	0.193647	-0.000080
H74	H	1.295289	-0.545582	0.437677
H75	H	1.045025	-0.176647	0.247203
H76	H	0.991666	-0.097950	0.309479
N77	N	1.261038	-0.495370	0.236271
N78	N	1.322528	-0.586203	0.283147
H79	H	1.354875	-0.634175	0.245265
N80	N	0.895684	0.043538	0.393908
N81	N	0.855491	0.102789	0.440809
H82	H	0.805730	0.176140	0.402948
N83	N	0.923051	0.003228	0.763711
N84	N	0.861473	0.094006	0.716830
H85	H	0.828986	0.141898	0.754707
N86	N	1.153480	-0.336467	0.763684
N87	N	1.174866	-0.367977	0.857448
H88	H	1.224629	-0.441321	0.895329
N89	N	1.197496	-0.401432	0.712266
N90	N	1.136170	-0.408155	0.759142
H91	H	1.153429	-0.433639	0.834904
N92	N	1.288522	-0.535577	0.606109
N93	N	1.309908	-0.567086	0.699873
H94	H	1.359671	-0.640431	0.737753
H95	H	0.769473	-0.390217	-0.000012
N96	N	0.832342	-0.326133	0.000017
N97	N	0.902596	-0.386702	0.070348
H98	H	0.939897	-0.461194	0.070364
N99	N	0.700433	-0.542449	0.000041
N100	N	0.708364	-0.621307	0.070382
H101	H	0.745657	-0.695806	0.070412
N102	N	0.367490	-0.520392	-0.000004
N103	N	0.413640	-0.612581	-0.000001
H104	H	0.381934	-0.664607	-0.000006
