data_functionalizedCrystal
_audit_creation_method	'MofGen! by Chris Wilmer'
_symmetry_space_group_name_H-M	'P1'
_symmetry_Int_Tables_number	1
_symmetry_cell_setting	triclinic
loop_
_symmetry_equiv_pos_as_xyz
  x,y,z
_cell_length_a	17.038272
_cell_length_b	10.489741
_cell_length_c	9.565339
_cell_angle_alpha	89.999484
_cell_angle_beta	90.001814
_cell_angle_gamma	92.174635
loop_
_atom_site_label
_atom_site_type_symbol
_atom_site_fract_x
_atom_site_fract_y
_atom_site_fract_z
O1	O	1.038971	-0.277138	-0.116084
O2	O	0.811315	-0.272737	-0.116125
O3	O	0.930323	-0.089824	-0.116095
O4	O	0.919963	-0.460051	-0.116114
O5	O	0.930314	-0.089835	0.116425
O6	O	0.811306	-0.272748	0.116395
O7	O	1.038962	-0.277149	0.116436
Zn8	Zn	0.925132	-0.274950	0.153333
Zn9	Zn	0.925145	-0.274936	-0.153022
O10	O	0.919954	-0.460062	0.116406
C11	C	0.782159	-0.268740	0.000130
C12	C	0.695297	-0.256798	0.000114
N13	N	0.925129	-0.274960	0.362413
C14	C	0.929536	-0.042225	0.000164
C15	C	0.927195	0.099624	0.000161
C16	C	0.645818	-0.366437	0.000110
C17	C	0.564202	-0.355208	0.000130
C18	C	0.532067	-0.234341	0.000144
C19	C	0.581553	-0.124695	0.000153
C20	C	0.663167	-0.135924	0.000143
C21	C	0.286080	-0.194670	0.000183
C22	C	0.204459	-0.183449	0.000189
C23	C	0.187114	-0.413964	0.000169
C24	C	0.268730	-0.425183	0.000150
C25	C	0.318209	-0.315536	0.000166
C26	C	0.448643	-0.222861	0.000160
C27	C	0.401631	-0.327017	0.000161
C28	C	1.068118	-0.281146	0.000178
C29	C	1.154980	-0.293088	0.000185
C30	C	0.920741	-0.507661	0.000144
C31	C	0.923082	-0.649510	0.000138
C32	C	0.851474	0.174846	0.000137
C33	C	0.887239	0.263618	0.114788
C34	C	0.887266	0.263602	-0.114459
C35	C	0.962992	0.186527	0.114906
C36	C	0.963008	0.186502	-0.114443
C37	C	0.998829	0.275241	0.000236
N38	N	0.925154	-0.274916	-0.362101
C39	C	0.870075	-0.359520	0.453602
C40	C	0.940910	-0.391955	0.546792
C41	C	0.854325	-0.242537	0.546777
C42	C	0.996000	-0.307457	0.453551
C43	C	0.909369	-0.157984	0.453528
C44	C	0.980254	-0.190377	0.546677
H45	H	0.523919	-0.444488	0.000125
H46	H	0.794437	-0.215134	0.587732
H47	H	0.855221	0.297568	-0.211397
H48	H	0.789216	0.131018	0.000241
H49	H	0.178299	-0.085020	0.000199
H50	H	0.326356	-0.105388	0.000197
O51	O	0.808461	-0.454327	0.399446
H52	H	0.821749	-0.551340	0.436800
O53	O	1.081365	0.333011	0.000326
H54	H	1.112594	0.302053	0.095589
H55	H	0.954257	-0.490861	0.587757
O56	O	0.680477	-0.496801	0.000108
H57	H	0.632356	-0.571152	0.000127
O58	O	0.436283	-0.457382	0.000151
H59	H	0.473043	-0.468002	-0.094630
H60	H	1.055902	-0.334979	0.412773
H61	H	1.026874	-0.118850	0.587287
H62	H	0.294888	-0.523606	0.000123
H63	H	0.995025	0.152468	-0.211366
O64	O	1.005390	0.141716	0.243443
H65	H	1.066361	0.182922	0.243740
H66	H	0.422470	-0.124451	0.000211
H67	H	0.855196	0.297621	0.211706
O68	O	0.891670	-0.027009	0.399209
H69	H	0.837880	-0.033365	0.333731
O70	O	0.133751	-0.532223	0.000181
H71	H	0.071600	-0.504115	0.000207
O72	O	0.546900	0.005674	0.000173
H73	H	0.481835	-0.004934	0.000166
H74	H	0.703453	-0.046645	0.000145
