data_functionalizedCrystal
_audit_creation_method	'MofGen! by Chris Wilmer'
_symmetry_space_group_name_H-M	'P1'
_symmetry_Int_Tables_number	1
_symmetry_cell_setting	triclinic
loop_
_symmetry_equiv_pos_as_xyz
  x,y,z
_cell_length_a	13.635800
_cell_length_b	11.102193
_cell_length_c	11.102291
_cell_angle_alpha	88.050288
_cell_angle_beta	108.605752
_cell_angle_gamma	71.396037
loop_
_atom_site_label
_atom_site_type_symbol
_atom_site_fract_x
_atom_site_fract_y
_atom_site_fract_z
V1	V	2.055765	-0.175855	0.396258
O2	O	2.035286	0.008434	0.388716
O3	O	2.044149	-0.348674	0.393548
O4	O	2.044157	-0.173157	0.569081
O5	O	2.035277	-0.168299	0.211968
V6	V	2.294316	-0.153811	0.374216
O7	O	2.193435	-0.224210	0.444611
O8	O	2.381745	-0.105456	0.325864
O9	O	2.194329	0.019009	0.376926
O10	O	2.373494	-0.338100	0.381759
O11	O	2.373502	-0.161367	0.558507
O12	O	2.194321	-0.156509	0.201394
V13	V	2.555765	-0.175855	0.396258
O14	O	2.535286	0.008434	0.388716
O15	O	2.544149	-0.348674	0.393548
O16	O	2.544157	-0.173157	0.569081
O17	O	2.535277	-0.168299	0.211968
V18	V	2.794316	-0.153811	0.374216
O19	O	2.693435	-0.224210	0.444611
O20	O	2.881745	-0.105456	0.325864
O21	O	2.694329	0.019009	0.376926
O22	O	2.873494	-0.338100	0.381759
O23	O	2.873502	-0.161367	0.558507
O24	O	2.694321	-0.156509	0.201394
C25	C	1.969303	-0.390804	0.387297
C26	C	2.000533	-0.532087	0.386232
C27	C	1.923204	-0.591993	0.379399
C28	C	1.952554	-0.724744	0.378402
C29	C	2.136569	-0.737671	0.391077
C30	C	2.107216	-0.604921	0.392065
C31	C	1.816520	-0.519159	0.373567
C32	C	1.739184	-0.579065	0.366735
C33	C	1.768534	-0.711816	0.365737
C34	C	1.875221	-0.784660	0.371572
C35	C	1.969313	-0.166912	0.611205
C36	C	2.000548	-0.165850	0.752488
C37	C	2.100846	0.061132	0.383174
C38	C	2.059236	0.202413	0.384247
C39	C	2.100836	-0.162757	0.159263
C40	C	2.059220	-0.163813	0.017979
C41	C	2.469303	-0.390804	0.387297
C42	C	2.500533	-0.532087	0.386232
C43	C	2.469313	-0.166912	0.611205
C44	C	2.500548	-0.165850	0.752488
C45	C	2.107225	-0.171689	0.825336
C46	C	2.136560	-0.170666	0.958082
C47	C	1.952532	-0.157969	0.945121
C48	C	1.923196	-0.158983	0.812375
C49	C	2.213474	-0.179026	0.832821
C50	C	2.242809	-0.178003	0.965567
C51	C	2.600846	0.061132	0.383174
C52	C	2.559236	0.202413	0.384247
C53	C	2.600836	-0.162757	0.159263
C54	C	2.559220	-0.163813	0.017979
C55	C	2.607225	-0.171689	0.825336
C56	C	2.636560	-0.170666	0.958082
C57	C	2.452532	-0.157969	0.945121
C58	C	2.423196	-0.158983	0.812375
C59	C	2.713474	-0.179026	0.832821
C60	C	2.742809	-0.178003	0.965567
C61	C	2.485118	-0.580317	0.269352
C62	C	2.514469	-0.713069	0.268367
C63	C	2.574646	-0.749351	0.501153
C64	C	2.545302	-0.616601	0.502137
C65	C	2.450371	-0.559370	0.134955
C66	C	2.479722	-0.692123	0.133969
H67	H	1.652319	-0.519745	0.361975
C68	C	2.267460	-0.056118	1.004901
H69	H	2.286910	-0.059564	1.095419
H70	H	2.326895	-0.051186	0.980352
H71	H	2.203763	0.017593	0.963214
C72	C	2.253918	-0.817799	0.397514
H73	H	2.260328	-0.905442	0.395961
H74	H	2.267674	-0.787099	0.325828
H75	H	2.306154	-0.810305	0.474751
C76	C	2.192271	-0.539017	0.399567
H77	H	2.260014	-0.601407	0.402912
H78	H	2.165386	-0.475896	0.325753
H79	H	2.203898	-0.499103	0.474678
H80	H	2.761042	-0.087765	0.994669
H81	H	2.723213	-0.092764	0.785725
C82	C	2.277899	-0.307057	0.799761
H83	H	2.326895	-0.363367	0.876897
H84	H	2.227580	-0.345381	0.752013
H85	H	2.318986	-0.291408	0.749991
C86	C	2.339862	-0.302138	1.036967
H87	H	2.359862	-0.353890	0.976251
H88	H	2.401150	-0.280849	1.087120
H89	H	2.318434	-0.348270	1.091565
H90	H	2.761169	-0.273804	0.808357
C91	C	1.683471	-0.777710	0.358220
H92	H	1.615736	-0.715317	0.354898
H93	H	1.671842	-0.817618	0.283113
H94	H	1.710351	-0.840835	0.432038
H95	H	2.814655	-0.269897	1.018414
C96	C	2.562268	-0.563552	0.630705
H97	H	2.593124	-0.632900	0.699587
H98	H	2.610929	-0.516661	0.639978
H99	H	2.493206	-0.508381	0.631877
H100	H	2.499700	-0.520273	0.088482
C101	C	2.623879	-0.842318	0.628636
H102	H	2.639142	-0.928287	0.611312
H103	H	2.690290	-0.832158	0.680681
H104	H	2.572560	-0.823873	0.672557
C105	C	1.907504	-0.930682	0.370473
H106	H	1.846171	-0.955932	0.365572
H107	H	1.928880	-0.951493	0.298135
H108	H	1.967371	-0.974709	0.447059
H109	H	1.792612	-0.411066	0.374381
C110	C	2.325065	-0.488027	0.072247
H111	H	2.289569	-0.548117	0.043635
H112	H	2.297435	-0.444844	0.133372
H113	H	2.310885	-0.427117	0.001029
C114	C	2.575897	-0.745898	0.083988
H115	H	2.598413	-0.677982	0.062404
H116	H	2.636104	-0.808718	0.148864
H117	H	2.552496	-0.784152	0.009841
C118	C	2.377046	-0.723227	0.057340
H119	H	2.314900	-0.645937	0.026505
H120	H	2.389203	-0.763479	-0.013331
H121	H	2.363684	-0.779445	0.111589
C122	C	2.226626	-0.062503	0.769183
H123	H	2.206730	-0.063207	0.679105
H124	H	2.180038	0.014541	0.785180
H125	H	2.301239	-0.066977	0.803993
H126	H	1.836332	-0.154230	0.753067
H127	H	1.889559	-0.152376	0.993897
H128	H	2.336332	-0.154230	0.753067
H129	H	2.389559	-0.152376	0.993897
