data_functionalizedCrystal
_audit_creation_method	'MofGen! by Chris Wilmer'
_symmetry_space_group_name_H-M	'P1'
_symmetry_Int_Tables_number	1
_symmetry_cell_setting	triclinic
loop_
_symmetry_equiv_pos_as_xyz
  x,y,z
_cell_length_a	12.759401
_cell_length_b	19.077068
_cell_length_c	12.759393
_cell_angle_alpha	92.262348
_cell_angle_beta	89.979062
_cell_angle_gamma	92.328499
loop_
_atom_site_label
_atom_site_type_symbol
_atom_site_fract_x
_atom_site_fract_y
_atom_site_fract_z
Zn1	Zn	1.589374	-0.280138	-0.610771
Zn2	Zn	2.089374	0.219862	-0.110771
Zn3	Zn	1.582167	-0.397851	-0.442129
Zn4	Zn	2.082167	0.102149	0.057871
Zn5	Zn	1.413670	-0.280175	-0.435108
Zn6	Zn	1.913670	0.219825	0.064892
Zn7	Zn	1.406569	-0.397802	-0.617763
Zn8	Zn	1.906569	0.102198	-0.117763
O9	O	1.497945	-0.338992	-0.526443
O10	O	1.997945	0.161008	-0.026443
O11	O	1.735438	-0.295758	-0.588412
O12	O	2.235438	0.204242	-0.088412
O13	O	1.559771	-0.382278	-0.294179
O14	O	2.059771	0.117722	0.205821
O15	O	1.442966	-0.181680	-0.452545
O16	O	1.942966	0.318320	0.047455
O17	O	1.730143	-0.382241	-0.464512
O18	O	2.230143	0.117759	0.035488
O19	O	1.572054	-0.181652	-0.581604
O20	O	2.072054	0.318348	-0.081604
O21	O	1.435977	-0.295822	-0.289020
O22	O	1.935977	0.204178	0.210980
O23	O	1.265708	-0.295774	-0.459326
O24	O	1.765708	0.204226	0.040674
O25	O	1.430863	-0.382158	-0.763855
O26	O	1.930863	0.117842	-0.263855
O27	O	1.260490	-0.382194	-0.593522
O28	O	1.760490	0.117806	-0.093522
O29	O	1.565169	-0.295710	-0.758717
O30	O	2.065169	0.204290	-0.258717
O31	O	1.552885	-0.496336	-0.471292
O32	O	2.052885	0.003664	0.028708
O33	O	1.423874	-0.496300	-0.600330
O34	O	1.923874	0.003700	-0.100330
C35	C	1.224978	-0.338983	-0.526421
C36	C	1.724978	0.161017	-0.026421
C37	C	1.108201	-0.338996	-0.526438
C38	C	1.608201	0.161004	-0.026438
C39	C	1.050645	-0.384064	-0.596212
C40	C	1.550645	0.115936	-0.096212
C41	C	0.940921	-0.384066	-0.596233
C42	C	1.440921	0.115934	-0.096233
C43	C	0.946317	-0.293932	-0.456697
C44	C	1.446317	0.206068	0.043303
C45	C	1.056040	-0.293927	-0.456682
C46	C	1.556040	0.206073	0.043318
C47	C	1.486856	-0.521855	-0.537355
C48	C	1.986856	-0.021855	-0.037355
C49	C	1.482208	-0.600085	-0.542058
C50	C	1.982208	-0.100085	-0.042058
C51	C	1.547245	-0.636833	-0.477141
C52	C	2.047245	-0.136833	0.022859
C53	C	1.542880	-0.710338	-0.481570
C54	C	2.042880	-0.210338	0.018430
C55	C	1.473471	-0.747094	-0.550913
C56	C	1.973471	-0.247094	-0.050913
C57	C	1.408431	-0.710341	-0.615838
C58	C	1.908431	-0.210341	-0.115838
C59	C	1.412802	-0.636837	-0.611413
C60	C	1.912802	-0.136837	-0.111413
C61	C	1.453194	-0.966927	-0.571352
C62	C	1.953194	-0.466927	-0.071352
C63	C	1.448825	-1.040436	-0.575770
C64	C	1.948825	-0.540436	-0.075770
C65	C	1.583276	-1.040429	-0.441503
C66	C	2.083276	-0.540429	0.058497
C67	C	1.587637	-0.966923	-0.437080
C68	C	2.087637	-0.466923	0.062920
C69	C	1.522600	-0.930177	-0.502008
C70	C	2.022600	-0.430177	-0.002008
N71	N	1.469005	-0.822228	-0.555441
N72	N	1.969005	-0.322228	-0.055441
N73	N	1.527073	-0.855044	-0.497485
N74	N	2.027073	-0.355044	0.002515
C75	C	1.771978	-0.339001	-0.526465
C76	C	2.271978	0.160999	-0.026465
C77	C	1.888754	-0.339005	-0.526474
C78	C	2.388754	0.160995	-0.026474
C79	C	1.498028	-0.338924	-0.800472
C80	C	1.998028	0.161076	-0.300472
C81	C	1.498063	-0.338895	-0.917247
C82	C	1.998063	0.161105	-0.417247
C83	C	1.509106	-0.155414	-0.515511
C84	C	2.009106	0.344586	-0.015511
C85	C	1.513862	-0.077184	-0.510853
C86	C	2.013862	0.422816	-0.010853
C87	C	1.568001	-0.293875	-0.969435
C88	C	2.068001	0.206125	-0.469435
C89	C	1.568021	-0.293845	-1.079158
C90	C	2.068021	0.206155	-0.579158
C91	C	1.428160	-0.383861	-1.084494
C92	C	1.928160	0.116139	-0.584494
C93	C	1.428136	-0.383887	-0.974774
C94	C	1.928136	0.116113	-0.474774
C95	C	1.497926	-0.339008	-0.253476
C96	C	1.997926	0.160992	0.246524
C97	C	1.498106	-0.338839	-0.136690
C98	C	1.998106	0.161161	0.363310
H99	H	1.093112	-0.420761	-0.653015
H100	H	1.593112	0.079239	-0.153015
H101	H	1.102903	-0.257223	-0.399863
H102	H	1.602903	0.242777	0.100137
O103	O	1.333553	-0.749979	-0.690621
O104	O	1.833553	-0.249979	-0.190621
H105	H	1.341426	-0.807265	-0.682781
H106	H	1.841426	-0.307265	-0.182781
O107	O	0.878835	-0.432752	-0.671377
O108	O	1.378835	0.067248	-0.171377
H109	H	0.933542	-0.464120	-0.719832
H110	H	1.433542	0.035880	-0.219832
O111	O	1.662503	-0.927290	-0.362280
O112	O	2.162503	-0.427290	0.137720
H113	H	1.617489	-0.893866	-0.306766
H114	H	2.117489	-0.393866	0.193234
O115	O	1.352667	-0.432434	-0.918489
O116	O	1.852667	0.067566	-0.418489
H117	H	1.367308	-0.487675	-0.942822
H118	H	1.867308	0.012325	-0.442822
O119	O	1.643457	-0.245281	-1.135435
O120	O	2.143457	0.254719	-0.635435
H121	H	1.598619	-0.209450	-1.183267
H122	H	2.098619	0.290550	-0.683267
O123	O	0.890058	-0.245346	-0.381427
O124	O	1.390058	0.254654	0.118573
H125	H	0.804090	-0.252932	-0.393141
H126	H	1.304090	0.247068	0.106859
H127	H	1.603761	-0.606911	-0.420670
H128	H	2.103761	-0.106911	0.079330
O129	O	1.643414	-0.245349	-0.907382
O130	O	2.143414	0.254651	-0.407382
H131	H	1.628753	-0.190104	-0.925140
H132	H	2.128753	0.309896	-0.425140
H133	H	1.392316	-1.070361	-0.632256
H134	H	1.892316	-0.570361	-0.132256
O135	O	1.352743	-0.432389	-1.146539
O136	O	1.852743	0.067611	-0.646539
H137	H	1.364513	-0.424812	-1.231604
H138	H	1.864513	0.075188	-0.731604
H139	H	1.595840	-0.740255	-0.428707
H140	H	2.095840	-0.240255	0.071293
H141	H	1.636226	-1.070356	-0.388644
H142	H	2.136226	-0.570356	0.111356
O143	O	1.383019	-0.927297	-0.641346
O144	O	1.883019	-0.427297	-0.141346
H145	H	1.334004	-0.965207	-0.690287
H146	H	1.834004	-0.465207	-0.190287
H147	H	1.359843	-0.606918	-0.664277
H148	H	1.859843	-0.106918	-0.164277
