data_functionalizedCrystal
_audit_creation_method	'MofGen! by Chris Wilmer'
_symmetry_space_group_name_H-M	'P1'
_symmetry_Int_Tables_number	1
_symmetry_cell_setting	triclinic
loop_
_symmetry_equiv_pos_as_xyz
  x,y,z
_cell_length_a	11.792241
_cell_length_b	15.995350
_cell_length_c	10.868271
_cell_angle_alpha	89.997096
_cell_angle_beta	89.999893
_cell_angle_gamma	83.842895
loop_
_atom_site_label
_atom_site_type_symbol
_atom_site_fract_x
_atom_site_fract_y
_atom_site_fract_z
O1	O	1.505951	0.114763	-0.102196
O2	O	2.005951	0.614763	0.397804
O3	O	1.175511	0.126591	-0.102224
O4	O	1.675511	0.626591	0.397776
O5	O	1.349764	-0.001170	-0.102208
O6	O	1.849764	0.498830	0.397792
O7	O	1.331698	0.242524	-0.102212
O8	O	1.831698	0.742524	0.397788
O9	O	1.349750	-0.001175	0.102436
O10	O	1.849750	0.498825	0.602436
O11	O	1.175497	0.126586	0.102420
O12	O	1.675497	0.626586	0.602420
O13	O	1.505937	0.114758	0.102448
O14	O	2.005937	0.614758	0.602448
Zn15	Zn	1.340715	0.120671	0.134926
Zn16	Zn	1.840715	0.620671	0.634926
Zn17	Zn	1.340734	0.120678	-0.134702
Zn18	Zn	1.840734	0.620678	0.365298
O19	O	1.331684	0.242519	0.102432
O20	O	1.831684	0.742519	0.602432
C21	C	1.133220	0.125845	0.000094
C22	C	1.633220	0.625845	0.500094
C23	C	1.007224	0.123621	0.000084
C24	C	1.507224	0.623621	0.500084
C25	C	0.776546	0.119532	0.000119
C26	C	1.276546	0.619532	0.500119
C27	C	0.904913	0.121804	0.000099
C28	C	1.404913	0.621804	0.500099
C29	C	1.349010	-0.032370	0.000112
C30	C	1.849010	0.467630	0.500112
C31	C	1.346771	-0.125331	0.000104
C32	C	1.846771	0.374669	0.500104
C33	C	1.338730	-0.463115	0.000108
C34	C	1.838730	0.036885	0.500108
C35	C	1.214630	-0.416244	-0.000362
C36	C	1.714630	0.083756	0.499638
C37	C	1.216870	-0.319544	0.000100
C38	C	1.716870	0.180456	0.500100
C39	C	1.342718	-0.295536	0.000105
C40	C	1.842718	0.204464	0.500105
C41	C	1.403921	-0.336339	0.116971
C42	C	1.903921	0.163661	0.616971
C43	C	1.400803	-0.432989	0.117068
C44	C	1.900803	0.067011	0.617068
C45	C	1.403383	-0.433329	-0.115651
C46	C	1.903383	0.066671	0.384349
C47	C	1.403354	-0.336384	-0.117195
C48	C	1.903354	0.163616	0.382805
C49	C	1.344979	-0.200829	0.000108
C50	C	1.844979	0.299171	0.500108
C51	C	1.336473	-0.557823	0.000113
C52	C	1.836473	-0.057823	0.500113
C53	C	1.548229	0.115504	0.000127
C54	C	2.048229	0.615504	0.500127
C55	C	1.674224	0.117727	0.000130
C56	C	2.174224	0.617727	0.500130
C57	C	1.332438	0.273719	0.000110
C58	C	1.832438	0.773719	0.500110
C59	C	1.334677	0.366680	0.000109
C60	C	1.834677	0.866680	0.500109
N61	N	1.340710	0.120666	0.318940
N62	N	1.840710	0.620666	0.818940
N63	N	1.340747	0.120676	-0.318716
N64	N	1.840747	0.620676	0.181284
C65	C	1.340728	0.120676	0.569946
C66	C	1.840728	0.620676	1.069946
C67	C	1.340714	0.120673	0.430269
C68	C	1.840714	0.620673	0.930269
H69	H	1.168760	-0.291338	-0.083674
H70	H	1.668760	0.208662	0.416326
O71	O	1.155597	-0.438739	-0.100370
O72	O	1.655597	0.061261	0.399630
C73	C	1.225657	-0.497176	-0.171478
C74	C	1.725657	0.002824	0.328522
H75	H	1.295814	-0.529966	-0.110921
H76	H	1.795814	-0.029966	0.389079
H77	H	1.172088	-0.545876	-0.211394
H78	H	1.672088	-0.045876	0.288606
H79	H	1.265721	-0.462943	-0.249617
H80	H	1.765721	0.037057	0.250383
O81	O	1.509424	-0.471109	0.123369
O82	O	2.009424	0.028891	0.623369
C83	C	1.507637	-0.559104	0.123559
C84	C	2.007637	-0.059104	0.623559
H85	H	1.424865	-0.575455	0.080041
H86	H	1.924865	-0.075455	0.580041
H87	H	1.583269	-0.589724	0.068508
H88	H	2.083269	-0.089724	0.568508
H89	H	1.513332	-0.583290	0.222279
H90	H	2.013332	-0.083290	0.722279
H91	H	1.494881	-0.464675	-0.116432
H92	H	1.994881	0.035325	0.383568
H93	H	1.496378	-0.321793	0.121321
H94	H	1.996378	0.178207	0.621321
H95	H	1.361401	-0.308152	0.203934
H96	H	1.861401	0.191848	0.703934
O97	O	1.347352	-0.455012	0.221186
O98	O	1.847352	0.044988	0.721186
C99	C	1.235312	-0.414171	0.223683
C100	C	1.735312	0.085829	0.723683
H101	H	1.206813	-0.396563	0.125977
H102	H	1.706813	0.103437	0.625977
H103	H	1.175457	-0.458098	0.264973
H104	H	1.675457	0.041902	0.764973
H105	H	1.233067	-0.354828	0.282118
H106	H	1.733067	0.145172	0.782118
O107	O	1.159244	-0.286471	0.100249
O108	O	1.659244	0.213529	0.600249
C109	C	1.233317	-0.244548	0.174408
C110	C	1.733317	0.255452	0.674408
H111	H	1.306839	-0.225899	0.115965
H112	H	1.806839	0.274101	0.615965
H113	H	1.184549	-0.185745	0.215576
H114	H	1.684549	0.314255	0.715576
H115	H	1.268457	-0.288099	0.251648
H116	H	1.768457	0.211901	0.751648
O117	O	1.155778	-0.440030	0.099014
O118	O	1.655778	0.059970	0.599014
C119	C	1.149666	-0.527531	0.094728
C120	C	1.649666	-0.027531	0.594728
H121	H	1.222544	-0.558488	0.036024
H122	H	1.722544	-0.058488	0.536024
H123	H	1.156817	-0.554356	0.191938
H124	H	1.656817	-0.054356	0.691938
H125	H	1.064697	-0.540505	0.052759
H126	H	1.564697	-0.040505	0.552759
H127	H	1.495128	-0.320605	-0.124247
H128	H	1.995128	0.179395	0.375753
H129	H	1.362815	-0.454051	-0.204227
H130	H	1.862815	0.045949	0.295773
H131	H	1.358607	-0.309336	-0.203649
H132	H	1.858607	0.190664	0.296351
