data_functionalizedCrystal
_audit_creation_method	'MofGen! by Chris Wilmer'
_symmetry_space_group_name_H-M	'P1'
_symmetry_Int_Tables_number	1
_symmetry_cell_setting	triclinic
loop_
_symmetry_equiv_pos_as_xyz
  x,y,z
_cell_length_a	13.897448
_cell_length_b	21.395362
_cell_length_c	21.395355
_cell_angle_alpha	89.956060
_cell_angle_beta	90.015629
_cell_angle_gamma	89.966429
loop_
_atom_site_label
_atom_site_type_symbol
_atom_site_fract_x
_atom_site_fract_y
_atom_site_fract_z
Zn1	Zn	-0.383718	-0.957916	0.354598
Zn2	Zn	0.116282	-0.457916	0.854598
Zn3	Zn	-0.544997	-0.957842	0.249826
Zn4	Zn	-0.044997	-0.457842	0.749826
Zn5	Zn	-0.383763	-0.853131	0.249799
Zn6	Zn	0.116237	-0.353131	0.749799
Zn7	Zn	-0.545017	-0.853124	0.354531
Zn8	Zn	-0.045017	-0.353124	0.854531
O9	O	-0.464374	-0.905503	0.302189
O10	O	0.035626	-0.405503	0.802189
O11	O	-0.405085	-1.045584	0.340739
O12	O	0.094915	-0.545584	0.840739
O13	O	-0.523620	-0.943924	0.162145
O14	O	-0.023620	-0.443924	0.662145
O15	O	-0.248775	-0.867065	0.263718
O16	O	0.251225	-0.367065	0.763718
O17	O	-0.523576	-1.045530	0.263764
O18	O	-0.023576	-0.545530	0.763764
O19	O	-0.248742	-0.944050	0.340714
O20	O	0.251258	-0.444050	0.840714
O21	O	-0.405161	-0.866993	0.162125
O22	O	0.094839	-0.366993	0.662125
O23	O	-0.405181	-0.765452	0.263653
O24	O	0.094819	-0.265452	0.763653
O25	O	-0.523610	-0.867053	0.442218
O26	O	-0.023610	-0.367053	0.942218
O27	O	-0.523654	-0.765447	0.340599
O28	O	-0.023654	-0.265447	0.840599
O29	O	-0.405104	-0.944043	0.442267
O30	O	0.094896	-0.444043	0.942267
O31	O	-0.679982	-0.943918	0.263698
O32	O	-0.179982	-0.443918	0.763698
O33	O	-0.679996	-0.866981	0.340624
O34	O	-0.179996	-0.366981	0.840624
C35	C	-0.464425	-0.742716	0.302116
C36	C	0.035575	-0.242716	0.802116
C37	C	-0.464470	-0.673074	0.302100
C38	C	0.035530	-0.173074	0.802100
C39	C	-0.714988	-0.905458	0.302170
C40	C	-0.214988	-0.405458	0.802170
C41	C	-0.822202	-0.905495	0.302184
C42	C	-0.322202	-0.405495	0.802184
C43	C	-0.464354	-0.905555	0.465612
C44	C	0.035646	-0.405555	0.965612
C45	C	-0.464346	-0.905578	0.535253
C46	C	0.035654	-0.405578	1.035253
C47	C	-1.018497	-0.905561	0.302223
C48	C	-0.518497	-0.405561	0.802223
C49	C	-0.909265	-0.905523	0.302203
C50	C	-0.409265	-0.405523	0.802203
C51	C	-0.212781	-0.905566	0.302221
C52	C	0.287219	-0.405566	0.802221
C53	C	-0.105567	-0.905593	0.302234
C54	C	0.394433	-0.405593	0.802234
C55	C	-0.464323	-1.068927	0.302262
C56	C	0.035677	-0.568927	0.802262
C57	C	-0.464302	-1.138568	0.302293
C58	C	0.035698	-0.638568	0.802293
C59	C	-0.526240	-0.640375	0.342105
C60	C	-0.026240	-0.140375	0.842105
C61	C	-0.526217	-0.574940	0.342133
C62	C	-0.026217	-0.074940	0.842133
C63	C	-0.464433	-0.542206	0.302144
C64	C	0.035567	-0.042206	0.802144
C65	C	-0.402650	-0.574913	0.262136
C66	C	0.097350	-0.074913	0.762136
C67	C	-0.402669	-0.640348	0.262114
C68	C	0.097331	-0.140348	0.762114
C69	C	-0.456662	-0.438480	0.245739
C70	C	0.043338	0.061520	0.745739
C71	C	-0.456650	-0.373047	0.245760
C72	C	0.043350	0.126953	0.745760
C73	C	-0.464370	-0.340385	0.302214
C74	C	0.035630	0.159615	0.802214
C75	C	-0.472121	-0.373165	0.358647
C76	C	0.027879	0.126835	0.858647
C77	C	-0.472140	-0.438599	0.358625
C78	C	0.027860	0.061401	0.858625
C79	C	-0.464405	-0.471254	0.302164
C80	C	0.035595	0.028746	0.802164
C81	C	-0.526118	-0.236734	0.342253
C82	C	-0.026118	0.263266	0.842253
C83	C	-0.526088	-0.171297	0.342282
C84	C	-0.026088	0.328703	0.842282
C85	C	-0.402526	-0.171272	0.262279
C86	C	0.097474	0.328728	0.762279
C87	C	-0.402551	-0.236707	0.262255
C88	C	0.097449	0.263293	0.762255
C89	C	-0.464352	-0.269434	0.302242
C90	C	0.035648	0.230566	0.802242
C91	C	-0.464324	-0.905488	0.139401
C92	C	0.035676	-0.405488	0.639401
C93	C	-0.464060	-0.905587	0.069760
C94	C	0.035940	-0.405587	0.569760
C95	C	-0.402637	-0.945665	0.567993
C96	C	0.097363	-0.445665	1.067993
C97	C	-0.402596	-0.945664	0.633429
C98	C	0.097404	-0.445664	1.133429
C99	C	-0.464280	-0.905582	0.666122
C100	C	0.035720	-0.405582	1.166122
C101	C	-0.525993	-0.865488	0.633374
C102	C	-0.025993	-0.365488	1.133374
C103	C	-0.526026	-0.865485	0.567940
C104	C	-0.026026	-0.365485	1.067940
C105	C	-0.551135	-0.900619	0.769788
C106	C	-0.051135	-0.400619	1.269788
C107	C	-0.551103	-0.900626	0.835221
C108	C	-0.051103	-0.400626	1.335221
C109	C	-0.464178	-0.905586	0.867942
C110	C	0.035822	-0.405586	1.367942
C111	C	-0.377282	-0.910553	0.835223
C112	C	0.122718	-0.410553	1.335223
C113	C	-0.377315	-0.910550	0.769788
C114	C	0.122685	-0.410550	1.269788
C115	C	-0.464251	-0.905580	0.737074
C116	C	0.035749	-0.405580	1.237074
C117	C	-0.402419	-0.945675	0.971635
C118	C	0.097581	-0.445675	1.471635
C119	C	-0.402376	-0.945669	1.037072
C120	C	0.097624	-0.445669	1.537072
C121	C	-0.525782	-0.865496	1.037016
C122	C	-0.025782	-0.365496	1.537016
C123	C	-0.525817	-0.865498	0.971580
C124	C	-0.025817	-0.365498	1.471580
C125	C	-0.464137	-0.905591	0.938894
C126	C	0.035863	-0.405591	1.438894
H127	H	-0.576562	-0.667017	0.374666
H128	H	-0.076562	-0.167017	0.874666
C129	C	-0.334774	-0.989759	0.532042
C130	C	0.165226	-0.489759	1.032042
N131	N	-0.283655	-1.022969	0.504963
N132	N	0.216345	-0.522969	1.004963
C133	C	-0.594175	-0.538963	0.386142
C134	C	-0.094175	-0.038963	0.886142
N135	N	-0.645363	-0.511867	0.419289
N136	N	-0.145363	-0.011867	0.919289
H137	H	-0.576214	-0.832851	0.659997
H138	H	-0.076214	-0.332851	1.159997
C139	C	-0.594089	-0.272735	0.386245
C140	C	-0.094089	0.227265	0.886245
N141	N	-0.645283	-0.299850	0.419382
N142	N	-0.145283	0.200150	0.919382
C143	C	-0.448174	-0.474402	0.183631
C144	C	0.051826	0.025598	0.683631
N145	N	-0.441782	-0.501457	0.136853
N146	N	0.058218	-0.001457	0.636853
H147	H	-0.306560	-0.914593	0.743151
H148	H	0.193440	-0.414593	1.243151
C149	C	-0.448116	-0.336997	0.183683
C150	C	0.051884	0.163003	0.683683
N151	N	-0.441684	-0.309845	0.136924
N152	N	0.058316	0.190155	0.636924
C153	C	-0.480666	-0.474653	0.420701
C154	C	0.019334	0.025347	0.920701
N155	N	-0.487086	-0.501809	0.467457
N156	N	0.012914	-0.001809	0.967457
H157	H	-0.352343	-0.548258	0.229578
H158	H	0.147657	-0.048258	0.729578
H159	H	-0.306499	-0.914593	0.861863
H160	H	0.193501	-0.414593	1.361863
C161	C	-0.334718	-0.676318	0.218099
C162	C	0.165282	-0.176318	0.718099
N163	N	-0.283539	-0.703412	0.184945
N164	N	0.216461	-0.203412	0.684945
H165	H	-0.576073	-0.832859	0.944923
H166	H	-0.076073	-0.332859	1.444923
C167	C	-0.334715	-0.989768	0.669450
C168	C	0.165285	-0.489768	1.169450
N169	N	-0.283589	-1.022990	0.696579
N170	N	0.216411	-0.522990	1.196579
C171	C	-0.334562	-0.989771	0.935678
C172	C	0.165438	-0.489771	1.435678
N173	N	-0.283450	-1.022984	0.908597
N174	N	0.216550	-0.522984	1.408597
C175	C	-0.593916	-0.821386	0.531925
C176	C	-0.093916	-0.321386	1.031925
N177	N	-0.645053	-0.788170	0.504797
N178	N	-0.145053	-0.288170	1.004797
H179	H	-0.478406	-0.346573	0.404617
H180	H	0.021594	0.153427	0.904617
C181	C	-0.334486	-0.989770	1.073085
C182	C	0.165514	-0.489770	1.573085
N183	N	-0.283351	-1.022988	1.100212
N184	N	0.216649	-0.522988	1.600212
C185	C	-0.593637	-0.821407	1.072974
C186	C	-0.093637	-0.321407	1.572974
N187	N	-0.644747	-0.788197	1.100061
N188	N	-0.144747	-0.288197	1.600061
C189	C	-0.646691	-0.895163	0.871207
C190	C	-0.146691	-0.395163	1.371207
N191	N	-0.718690	-0.891046	0.898310
N192	N	-0.218690	-0.391046	1.398310
H193	H	-0.576387	-0.144674	0.374863
H194	H	-0.076387	0.355326	0.874863
H195	H	-0.621902	-0.896413	0.743152
H196	H	-0.121902	-0.396413	1.243152
C197	C	-0.334562	-0.135269	0.218291
C198	C	0.165438	0.364731	0.718291
N199	N	-0.283368	-0.108148	0.185159
N200	N	0.216632	0.391852	0.685159
H201	H	-0.352256	-0.263332	0.229675
H202	H	0.147744	0.236668	0.729675
