data_functionalizedCrystal
_audit_creation_method	'MofGen! by Chris Wilmer'
_symmetry_space_group_name_H-M	'P1'
_symmetry_Int_Tables_number	1
_symmetry_cell_setting	triclinic
loop_
_symmetry_equiv_pos_as_xyz
  x,y,z
_cell_length_a	11.026607
_cell_length_b	17.699083
_cell_length_c	16.176319
_cell_angle_alpha	89.992304
_cell_angle_beta	89.993777
_cell_angle_gamma	95.934516
loop_
_atom_site_label
_atom_site_type_symbol
_atom_site_fract_x
_atom_site_fract_y
_atom_site_fract_z
O1	O	1.609234	0.316812	-0.068757
O2	O	2.109234	0.816812	0.431243
O3	O	1.256034	0.280737	-0.068757
O4	O	1.756034	0.780737	0.431243
O5	O	1.442613	0.189956	-0.068750
O6	O	1.942613	0.689956	0.431250
O7	O	1.422655	0.407592	-0.068765
O8	O	1.922655	0.907592	0.431235
O9	O	1.442587	0.189945	0.068743
O10	O	1.942587	0.689945	0.568743
O11	O	1.256009	0.280726	0.068736
O12	O	1.756009	0.780726	0.568736
O13	O	1.609208	0.316801	0.068736
O14	O	2.109208	0.816801	0.568736
Cu15	Cu	1.432606	0.298762	0.081290
Cu16	Cu	1.932606	0.798762	0.581290
Cu17	Cu	1.432636	0.298775	-0.081311
Cu18	Cu	1.932636	0.798775	0.418689
O19	O	1.422630	0.407582	0.068729
O20	O	1.922630	0.907582	0.568729
C21	C	1.441885	0.161655	-0.000003
C22	C	1.941885	0.661655	0.499997
C23	C	1.439740	0.077343	-0.000003
C24	C	1.939740	0.577343	0.499997
C25	C	1.210830	0.274076	-0.000010
C26	C	1.710830	0.774076	0.499990
C27	C	1.076175	0.254237	-0.000010
C28	C	1.576175	0.754237	0.499990
C29	C	1.549257	0.043769	-0.000002
C30	C	2.049257	0.543769	0.499998
C31	C	1.547234	-0.035453	-0.000009
C32	C	2.047234	0.464547	0.499991
C33	C	1.435692	-0.081099	-0.000012
C34	C	1.935692	0.418901	0.499988
C35	C	1.326166	-0.047520	-0.000015
C36	C	1.826166	0.452480	0.499985
C37	C	1.328190	0.031700	-0.000014
C38	C	1.828190	0.531700	0.499986
C39	C	1.318000	-0.367005	-0.000022
C40	C	1.818000	0.132995	0.499978
C41	C	1.315984	-0.446230	-0.000021
C42	C	1.815984	0.053770	0.499979
C43	C	1.537044	-0.434158	-0.000017
C44	C	2.037044	0.065842	0.499983
C45	C	1.539068	-0.354938	-0.000016
C46	C	2.039068	0.145062	0.499984
C47	C	1.429543	-0.321366	-0.000024
C48	C	1.929543	0.178634	0.499976
C49	C	1.431738	-0.235465	-0.000017
C50	C	1.931738	0.264535	0.499983
C51	C	1.433496	-0.166998	-0.000012
C52	C	1.933496	0.333002	0.499988
C53	C	1.002207	0.309017	-0.000014
C54	C	1.502207	0.809017	0.499986
C55	C	0.863034	0.288513	-0.000014
C56	C	1.363034	0.788513	0.499986
C57	C	1.654412	0.323461	-0.000013
C58	C	2.154412	0.823461	0.499987
C59	C	1.789068	0.343301	-0.000018
C60	C	2.289068	0.843301	0.499982
C61	C	1.423358	0.435882	-0.000020
C62	C	1.923358	0.935882	0.499980
C63	C	1.425503	0.520195	-0.000026
C64	C	1.925503	1.020195	0.499974
N65	N	1.432594	0.298754	0.195655
N66	N	1.932594	0.798754	0.695655
N67	N	1.432659	0.298779	-0.195677
N68	N	1.932659	0.798779	0.304323
C69	C	1.515235	0.258581	0.238923
C70	C	2.015235	0.758581	0.738923
C71	C	1.515242	0.258581	0.325470
C72	C	2.015242	0.758581	0.825470
C73	C	1.432611	0.298759	0.368748
C74	C	1.932611	0.798759	0.868748
C75	C	1.349960	0.338934	0.325475
C76	C	1.849960	0.838934	0.825475
C77	C	1.349949	0.338929	0.238929
C78	C	1.849949	0.838929	0.738929
C79	C	1.350002	0.338953	0.674503
C80	C	1.850002	0.838953	1.174503
C81	C	1.350022	0.338957	0.761054
C82	C	1.850022	0.838957	1.261054
C83	C	1.515294	0.258606	0.761044
C84	C	2.015294	0.758606	1.261044
C85	C	1.515283	0.258601	0.674498
C86	C	2.015283	0.758601	1.174498
C87	C	1.432629	0.298772	0.631232
C88	C	1.932629	0.798772	1.131232
C89	C	1.432622	0.298770	0.537388
C90	C	1.932622	0.798770	1.037388
C91	C	1.432623	0.298766	0.462591
C92	C	1.932623	0.798766	0.962591
H93	H	1.640088	0.080929	0.000005
H94	H	2.140088	0.580929	0.500005
C95	C	1.055845	0.392884	-0.000017
C96	C	1.555845	0.892884	0.499983
N97	N	1.096243	0.456055	-0.000019
N98	N	1.596243	0.956055	0.499981
H99	H	1.036466	0.192158	-0.000027
H100	H	1.536466	0.692158	0.499973
C101	C	0.842697	0.427173	-0.000025
C102	C	1.342697	0.927173	0.499975
N103	N	0.883092	0.490344	-0.000031
N104	N	1.383092	0.990344	0.499969
H105	H	1.282729	0.371676	0.796290
H106	H	1.782729	0.871676	1.296290
C107	C	1.259054	0.383121	0.373084
C108	C	1.759054	0.883121	0.873084
N109	N	1.190581	0.416404	0.408942
N110	N	1.690581	0.916404	0.908942
H111	H	1.582573	0.225887	0.639264
H112	H	2.082573	0.725887	1.139264
C113	C	1.606137	0.214380	0.191325
C114	C	2.106137	0.714380	0.691325
N115	N	1.674603	0.181084	0.155476
N116	N	2.174603	0.681084	0.655476
H117	H	1.582534	0.225868	0.360698
H118	H	2.082534	0.725868	0.860698
H119	H	0.823331	0.226431	-0.000031
H120	H	1.323331	0.726431	0.499969
C121	C	1.259046	0.383130	0.191335
C122	C	1.759046	0.883130	0.691335
N123	N	1.190576	0.416424	0.155489
N124	N	1.690576	0.916424	0.655489
C125	C	1.667713	-0.072380	0.000006
C126	C	2.167713	0.427620	0.500006
N127	N	1.758463	-0.100193	0.000021
N128	N	2.258463	0.399807	0.500021
H129	H	1.629897	-0.317776	-0.000010
H130	H	2.129897	0.182224	0.499990
C131	C	1.259237	0.383262	0.626922
C132	C	1.759237	0.883262	1.126922
N133	N	1.190924	0.416681	0.591081
N134	N	1.690924	0.916681	1.091081
H135	H	1.626225	-0.461501	-0.000015
H136	H	2.126225	0.038499	0.499985
C137	C	1.197518	-0.330086	-0.000035
C138	C	1.697518	0.169914	0.499965
N139	N	1.106765	-0.302276	-0.000048
N140	N	1.606765	0.197724	0.499952
C141	C	1.203468	-0.097733	-0.000011
C142	C	1.703468	0.402267	0.499989
N143	N	1.111050	-0.135553	-0.000002
N144	N	1.611050	0.364447	0.499998
H145	H	1.582592	0.225893	0.796280
H146	H	2.082592	0.725893	1.296280
C147	C	1.207712	0.068631	-0.000013
C148	C	1.707712	0.568631	0.499987
N149	N	1.116964	0.096445	-0.000015
N150	N	1.616964	0.596445	0.499985
H151	H	1.225148	-0.483393	-0.000021
H152	H	1.725148	0.016607	0.499979
