data_functionalizedCrystal
_audit_creation_method	'MofGen! by Chris Wilmer'
_symmetry_space_group_name_H-M	'P1'
_symmetry_Int_Tables_number	1
_symmetry_cell_setting	triclinic
loop_
_symmetry_equiv_pos_as_xyz
  x,y,z
_cell_length_a	10.654550
_cell_length_b	19.188930
_cell_length_c	9.130313
_cell_angle_alpha	89.993647
_cell_angle_beta	89.996220
_cell_angle_gamma	83.814841
loop_
_atom_site_label
_atom_site_type_symbol
_atom_site_fract_x
_atom_site_fract_y
_atom_site_fract_z
O1	O	1.665759	0.098059	-0.121938
O2	O	1.300083	0.107401	-0.121916
O3	O	1.493474	0.001143	-0.121899
O4	O	1.472368	0.204317	-0.121955
O5	O	1.493471	0.001146	0.121700
O6	O	1.300081	0.107404	0.121682
O7	O	1.665757	0.098062	0.121661
Cu8	Cu	1.482918	0.102733	0.143914
Cu9	Cu	1.482921	0.102730	-0.144170
O10	O	1.472366	0.204320	0.121644
C11	C	1.253298	0.106717	-0.000114
C12	C	1.113898	0.104664	-0.000104
C13	C	1.033089	0.167227	-0.000143
C14	C	0.902109	0.165295	-0.000168
C15	C	0.932761	0.038231	-0.000121
C16	C	1.063738	0.040164	-0.000086
C17	C	1.015391	0.240587	-0.000176
C18	C	0.884411	0.238654	-0.000201
C19	C	1.492789	-0.024871	-0.000096
C20	C	1.490737	-0.102389	-0.000083
C21	C	1.604213	-0.146570	-0.000083
C22	C	1.602285	-0.219407	-0.000106
C23	C	1.486876	-0.248058	-0.000100
C24	C	1.373386	-0.203867	-0.000109
C25	C	1.375316	-0.131032	-0.000100
N26	N	1.398658	-0.356639	0.082806
N27	N	1.396832	-0.425830	0.082801
C28	C	1.481052	-0.467505	-0.000129
N29	N	1.567186	-0.437377	-0.083037
N30	N	1.569016	-0.368180	-0.083025
C31	C	1.484770	-0.327034	-0.000110
C32	C	1.592445	-0.590665	-0.000157
C33	C	1.590513	-0.663502	-0.000189
C34	C	1.361610	-0.647960	-0.000177
C35	C	1.363545	-0.575125	-0.000159
C36	C	1.478966	-0.546481	-0.000142
C37	C	1.712541	0.098746	-0.000145
C38	C	1.851941	0.100798	-0.000164
C39	C	1.473051	0.230334	-0.000163
C40	C	1.475102	0.307852	-0.000186
N41	N	1.482926	0.102735	0.346537
N42	N	1.482924	0.102722	-0.346792
C43	C	1.568581	0.055700	0.423196
C44	C	1.568577	0.055692	0.576533
C45	C	1.397260	0.149759	0.576537
C46	C	1.397258	0.149764	0.423203
C47	C	1.667493	0.001393	0.423195
C48	C	1.667490	0.001385	0.576532
H49	H	1.044114	0.269279	0.101768
C50	C	1.790186	0.024365	0.358922
C51	C	1.917966	-0.017651	0.394305
C52	C	2.040657	0.005325	0.330033
C53	C	2.035568	0.070319	0.230379
C54	C	1.907784	0.112339	0.194991
C55	C	1.785093	0.089363	0.259262
H56	H	1.921737	-0.065767	0.468080
H57	H	2.135252	-0.025782	0.356231
H58	H	2.126392	0.087327	0.182801
H59	H	1.904012	0.160455	0.121216
H60	H	1.690498	0.120469	0.233065
C61	C	1.797510	0.017557	0.632770
C62	C	1.877125	-0.035991	0.729744
C63	C	2.007134	-0.019813	0.785988
C64	C	2.057527	0.049912	0.745258
C65	C	1.977911	0.103465	0.648278
C66	C	1.847903	0.087287	0.592034
H67	H	1.839822	-0.087611	0.759899
H68	H	2.066071	-0.059457	0.857779
H69	H	2.153768	0.061888	0.786893
H70	H	2.015214	0.155084	0.618123
H71	H	1.788966	0.126931	0.520243
H72	H	0.838270	0.260826	0.104961
C73	C	1.062899	0.272145	-0.142258
C74	C	1.040970	0.237416	-0.290780
C75	C	1.088477	0.268972	-0.432866
C76	C	1.157913	0.335257	-0.426429
C77	C	1.179846	0.369990	-0.277901
C78	C	1.132339	0.338434	-0.135815
H79	H	0.989566	0.188345	-0.295551
H80	H	1.072241	0.243260	-0.542817
H81	H	1.193081	0.358616	-0.531610
H82	H	1.231250	0.419061	-0.273131
H83	H	1.148575	0.364146	-0.025864
H84	H	1.271141	-0.539151	-0.000151
C85	C	1.246433	-0.235379	-0.000104
C86	C	1.244303	-0.315494	-0.000107
C87	C	1.117346	-0.347006	-0.000113
C88	C	0.992519	-0.298402	-0.000116
C89	C	0.994644	-0.218283	-0.000112
C90	C	1.121601	-0.186771	-0.000107
H91	H	1.336712	-0.351478	-0.000105
H92	H	1.115773	-0.406316	-0.000115
H93	H	0.898537	-0.321729	-0.000120
H94	H	0.902235	-0.182299	-0.000114
H95	H	1.123174	-0.127461	-0.000104
H96	H	1.282908	-0.095058	-0.000100
H97	H	1.694693	-0.255386	-0.000112
C98	C	1.303030	0.201497	0.338871
C99	C	1.208864	0.253262	0.423198
C100	C	1.114631	0.304997	0.338863
C101	C	1.114563	0.304965	0.170202
C102	C	1.208732	0.253198	0.085866
C103	C	1.302965	0.201464	0.170200
H104	H	1.208911	0.253287	0.548060
H105	H	1.044921	0.343318	0.401296
H106	H	1.044806	0.343262	0.107773
H107	H	1.208685	0.253173	-0.038996
H108	H	1.372675	0.163142	0.107768
H109	H	1.129530	-0.010781	-0.000034
H110	H	0.842095	0.266294	-0.102162
H111	H	1.698197	-0.123254	-0.000074
C112	C	1.640052	-0.071098	0.366974
C113	C	1.523710	-0.077800	0.270009
C114	C	1.496267	-0.150288	0.213787
C115	C	1.585167	-0.216074	0.254530
C116	C	1.701516	-0.209374	0.351500
C117	C	1.728959	-0.136886	0.407722
H118	H	1.457894	-0.029099	0.239844
H119	H	1.410137	-0.155247	0.142004
H120	H	1.564852	-0.269734	0.212911
H121	H	1.767332	-0.258075	0.381665
H122	H	1.815089	-0.131927	0.479506
H123	H	0.891904	-0.014283	-0.000129
H124	H	1.686428	-0.567342	-0.000149
H125	H	1.638050	-0.049327	0.624095
H126	H	1.682922	-0.699475	-0.000197
H127	H	1.327511	0.188049	0.638976
H128	H	1.267641	-0.671287	-0.000180
