data_functionalizedCrystal
_audit_creation_method	'MofGen! by Chris Wilmer'
_symmetry_space_group_name_H-M	'P1'
_symmetry_Int_Tables_number	1
_symmetry_cell_setting	triclinic
loop_
_symmetry_equiv_pos_as_xyz
  x,y,z
_cell_length_a	19.288840
_cell_length_b	16.109304
_cell_length_c	17.766277
_cell_angle_alpha	89.996447
_cell_angle_beta	89.983415
_cell_angle_gamma	83.294327
loop_
_atom_site_label
_atom_site_type_symbol
_atom_site_fract_x
_atom_site_fract_y
_atom_site_fract_z
O1	O	0.921612	0.103617	-0.062715
O2	O	0.719383	0.117629	-0.062689
O3	O	0.826052	-0.010427	-0.062703
O4	O	0.814943	0.231673	-0.062701
O5	O	0.826033	-0.010434	0.062485
O6	O	0.719364	0.117623	0.062500
O7	O	0.921594	0.103610	0.062473
Cu8	Cu	0.820477	0.110616	0.073917
Cu9	Cu	0.820499	0.110624	-0.074133
O10	O	0.814924	0.231667	0.062488
C11	C	0.693496	0.117179	-0.000091
C12	C	0.616388	0.115836	-0.000081
C13	C	0.580193	0.115194	-0.068323
C14	C	0.507743	0.113923	-0.068332
C15	C	0.471493	0.113277	-0.000096
C16	C	0.507696	0.113923	0.068156
C17	C	0.580143	0.115203	0.068163
C18	C	0.362036	0.062549	0.052172
C19	C	0.289590	0.061264	0.052162
C20	C	0.248040	0.109334	-0.000115
C21	C	0.278945	0.158677	-0.052395
C22	C	0.351393	0.159957	-0.052388
C23	C	0.392935	0.111890	-0.000096
C24	C	0.133286	0.107315	-0.068372
C25	C	0.060834	0.106049	-0.068379
C26	C	0.060789	0.106041	0.068111
C27	C	0.133239	0.107315	0.068116
C28	C	0.169483	0.107948	-0.000128
C29	C	0.825592	-0.041404	-0.000111
C30	C	0.824242	-0.133694	-0.000115
C31	C	0.821133	-0.346017	-0.068353
C32	C	0.819858	-0.432733	-0.068352
C33	C	0.819841	-0.432737	0.068136
C34	C	0.821111	-0.346022	0.068134
C35	C	0.821761	-0.302665	-0.000112
C36	C	0.819216	-0.476095	-0.000110
C37	C	0.817833	-0.570116	-0.000108
C38	C	0.823142	-0.208638	-0.000114
C39	C	0.947481	0.104061	-0.000126
C40	C	1.024589	0.105404	-0.000141
C41	C	0.815384	0.262643	-0.000107
C42	C	0.816734	0.354934	-0.000107
N43	N	0.820467	0.110610	0.178048
N44	N	0.820515	0.110623	-0.178263
C45	C	0.867715	0.053934	0.217428
C46	C	0.867719	0.053930	0.296230
C47	C	0.820481	0.110617	0.335648
C48	C	0.773224	0.167297	0.296258
C49	C	0.773217	0.167294	0.217458
C50	C	0.811364	0.186371	0.460488
C51	C	0.811376	0.186375	0.539286
C52	C	0.820500	0.110627	0.578694
C53	C	0.829626	0.034870	0.539294
C54	C	0.829619	0.034867	0.460494
C55	C	0.820484	0.110626	0.421094
C56	C	0.867755	0.053942	0.703521
C57	C	0.867754	0.053937	0.782324
C58	C	0.773263	0.167311	0.782351
C59	C	0.773260	0.167308	0.703549
C60	C	0.820510	0.110625	0.664139
H61	H	0.609699	0.115710	-0.123893
H62	H	0.803949	0.248061	0.571360
H63	H	0.031365	0.105531	-0.123952
H64	H	0.837055	-0.026812	0.571378
N65	N	0.819155	-0.479506	0.141740
H66	H	0.819744	-0.438882	0.184970
H67	H	0.775596	-0.508582	0.144723
H68	H	0.478267	0.113402	-0.123905
N69	N	0.821786	-0.299256	0.141739
H70	H	0.821187	-0.339880	0.184973
H71	H	0.865345	-0.270182	0.144702
N72	N	0.918673	-0.007203	0.174921
H73	H	0.948605	-0.043109	0.211831
H74	H	0.892090	-0.043879	0.142243
H75	H	0.819346	-0.468026	-0.123920
H76	H	0.376553	0.200136	-0.094955
H77	H	0.803922	0.248059	0.428408
H78	H	0.906227	0.007784	0.671432
N79	N	0.234142	0.210526	-0.108788
H80	H	0.183557	0.202234	-0.100860
H81	H	0.240147	0.271491	-0.101786
N82	N	0.839460	-0.046835	0.417999
H83	H	0.838074	-0.035339	0.362101
H84	H	0.886038	-0.078485	0.431757
N85	N	0.918680	-0.007203	0.338718
H86	H	0.948609	-0.043112	0.301794
H87	H	0.949376	0.024538	0.371395
H88	H	0.734761	0.213450	0.328356
H89	H	0.162797	0.107839	-0.123940
N90	N	0.256261	0.008048	0.108549
H91	H	0.204062	0.014525	0.100609
H92	H	0.275590	-0.052471	0.101552
N93	N	0.918729	-0.007181	0.824803
H94	H	0.948664	-0.043080	0.787876
H95	H	0.949418	0.024577	0.857474
H96	H	0.734798	0.213463	0.814445
H97	H	0.821660	-0.310718	-0.123923
N98	N	0.021702	0.105338	0.141712
H99	H	-0.029686	0.104428	0.131353
H100	H	0.040009	0.054027	0.171505
H101	H	0.734789	0.213463	0.671483
H102	H	0.734741	0.213447	0.185393
H103	H	0.162709	0.107832	0.123686
N104	N	0.406845	0.010701	0.108565
H105	H	0.400904	-0.050287	0.101586
H106	H	0.457409	0.019069	0.100609
N107	N	0.468484	0.112819	0.141651
H108	H	0.432641	0.163676	0.144826
H109	H	0.444262	0.060595	0.144270
N110	N	0.619187	0.115898	0.141770
H111	H	0.585232	0.115300	0.184998
H112	H	0.654894	0.064899	0.144747
