data_functionalizedCrystal
_audit_creation_method	'MofGen! by Chris Wilmer'
_symmetry_space_group_name_H-M	'P1'
_symmetry_Int_Tables_number	1
_symmetry_cell_setting	triclinic
loop_
_symmetry_equiv_pos_as_xyz
  x,y,z
_cell_length_a	23.532361
_cell_length_b	23.532407
_cell_length_c	22.010155
_cell_angle_alpha	90.006286
_cell_angle_beta	89.997469
_cell_angle_gamma	97.160827
loop_
_atom_site_label
_atom_site_type_symbol
_atom_site_fract_x
_atom_site_fract_y
_atom_site_fract_z
O1	O	0.755276	-0.068996	0.050470
O2	O	1.255276	0.431004	0.550470
O3	O	0.589409	-0.079027	0.050486
O4	O	1.089409	0.420973	0.550486
O5	O	0.677344	0.008921	0.050466
O6	O	1.177344	0.508921	0.550466
O7	O	0.667341	-0.156944	0.050490
O8	O	1.167341	0.343056	0.550490
O9	O	0.677338	0.008898	-0.050584
O10	O	1.177338	0.508898	0.449416
O11	O	0.589403	-0.079050	-0.050565
O12	O	1.089403	0.420950	0.449435
O13	O	0.755270	-0.069019	-0.050580
O14	O	1.255270	0.430981	0.449420
Cu15	Cu	0.672336	-0.074036	-0.059799
Cu16	Cu	1.172336	0.425964	0.440201
Cu17	Cu	0.672343	-0.074009	0.059705
Cu18	Cu	1.172343	0.425991	0.559705
O19	O	0.667335	-0.156967	-0.050561
O20	O	1.167335	0.343033	0.449439
C21	C	0.568189	-0.078787	-0.000038
C22	C	1.068189	0.421213	0.499962
C23	C	0.504971	-0.078032	-0.000032
C24	C	1.004971	0.421968	0.499968
C25	C	0.677086	0.030126	-0.000060
C26	C	1.177086	0.530126	0.499940
C27	C	0.676320	0.093343	-0.000065
C28	C	1.176320	0.593343	0.499935
N29	N	0.672335	-0.074055	-0.143851
N30	N	1.172335	0.425945	0.356149
C31	C	0.231730	-0.074716	0.055046
C32	C	0.731730	0.425284	0.555046
C33	C	0.291130	-0.075431	0.055048
C34	C	0.791130	0.424569	0.555048
O35	O	0.321859	-0.075770	0.101892
O36	O	0.821859	0.424230	0.601892
N37	N	0.320832	-0.075804	-0.000035
N38	N	0.820832	0.424196	0.499965
C39	C	0.291133	-0.075457	-0.055123
C40	C	0.791133	0.424543	0.444877
O41	O	0.321851	-0.075840	-0.101975
O42	O	0.821851	0.424160	0.398025
C43	C	0.231735	-0.074738	-0.055124
C44	C	0.731735	0.425262	0.444876
C45	C	0.202035	-0.074370	-0.000037
C46	C	0.702035	0.425630	0.499963
C47	C	0.202030	-0.074347	0.110128
C48	C	0.702030	0.425653	0.610128
C49	C	0.142635	-0.073633	0.110126
C50	C	0.642635	0.426367	0.610126
C51	C	0.112939	-0.073288	0.055043
C52	C	0.612939	0.426712	0.555043
C53	C	0.142639	-0.073657	-0.000039
C54	C	0.642639	0.426343	0.499961
C55	C	0.202036	-0.074387	-0.110211
C56	C	0.702036	0.425613	0.389789
C57	C	0.142634	-0.073668	-0.110207
C58	C	0.642634	0.426332	0.389793
C59	C	0.112934	-0.073300	-0.055121
C60	C	0.612934	0.426700	0.444879
C61	C	0.053547	-0.072597	-0.055125
C62	C	0.553547	0.427403	0.444875
N63	N	0.023845	-0.072224	-0.000042
N64	N	0.523845	0.427776	0.499958
C65	C	0.053541	-0.072569	0.055042
C66	C	0.553541	0.427431	0.555042
C67	C	0.415873	-0.076966	-0.055117
C68	C	0.915873	0.423034	0.444883
C69	C	0.475269	-0.077689	-0.055116
C70	C	0.975269	0.422311	0.444884
C71	C	0.475263	-0.077662	0.055055
C72	C	0.975263	0.422338	0.555055
C73	C	0.415865	-0.076943	0.055054
C74	C	0.915865	0.423057	0.555054
C75	C	0.386171	-0.076593	-0.000034
C76	C	0.886171	0.423407	0.499966
C77	C	-0.071195	-0.071070	0.055034
C78	C	0.428805	0.428930	0.555034
C79	C	-0.130596	-0.070359	0.055027
C80	C	0.369404	0.429641	0.555027
C81	C	-0.130584	-0.070384	-0.055144
C82	C	0.369416	0.429616	0.444856
C83	C	-0.071188	-0.071098	-0.055137
C84	C	0.428812	0.428902	0.444863
C85	C	-0.041495	-0.071440	-0.000044
C86	C	0.458505	0.428560	0.499956
O87	O	0.022781	-0.072255	-0.101945
O88	O	0.522781	0.427745	0.398055
O89	O	0.022816	-0.072178	0.101886
O90	O	0.522816	0.427822	0.601886
C91	C	0.776489	-0.069258	-0.000055
C92	C	1.276489	0.430742	0.499945
C93	C	0.839708	-0.070014	-0.000057
C94	C	1.339708	0.429986	0.499943
C95	C	0.667592	-0.178171	-0.000033
C96	C	1.167592	0.321829	0.499967
C97	C	0.668358	-0.241388	-0.000024
C98	C	1.168358	0.258612	0.499976
C99	C	0.723555	0.492454	-0.000036
C100	C	1.223555	0.992454	0.499964
C101	C	0.722844	0.551854	-0.000031
C102	C	1.222844	1.051854	0.499969
O103	O	0.766630	0.588606	-0.000013
O104	O	1.266630	1.088606	0.499987
N105	N	0.670566	0.574471	-0.000027
N106	N	1.170566	1.074471	0.499973
C107	C	0.618997	0.537685	-0.000021
C108	C	1.118997	1.037685	0.499979
O109	O	0.574465	0.562377	-0.000016
O110	O	1.074465	1.062377	0.499984
C111	C	0.619709	0.478286	-0.000021
C112	C	1.119709	0.978286	0.499979
C113	C	0.671990	0.455672	-0.000032
C114	C	1.171990	0.955672	0.499968
C115	C	0.775832	0.469839	-0.000046
C116	C	1.275832	0.969839	0.499954
C117	C	0.776543	0.410443	-0.000052
C118	C	1.276543	0.910443	0.499948
C119	C	0.724977	0.373662	-0.000048
C120	C	1.224977	0.873662	0.499952
C121	C	0.672701	0.396276	-0.000038
C122	C	1.172701	0.896276	0.499962
C123	C	0.568140	0.441501	-0.000011
C124	C	1.068140	0.941501	0.499989
C125	C	0.568857	0.382099	-0.000011
C126	C	1.068857	0.882099	0.499989
C127	C	0.621137	0.359485	-0.000021
C128	C	1.121137	0.859485	0.499979
C129	C	0.621847	0.300099	-0.000039
C130	C	1.121847	0.800099	0.499961
N131	N	0.674124	0.277481	-0.000044
N132	N	1.174124	0.777481	0.499956
C133	C	0.725690	0.314263	-0.000048
C134	C	1.225690	0.814263	0.499952
C135	C	0.617505	0.662427	-0.000019
C136	C	1.117505	1.162427	0.499981
C137	C	0.616793	0.721825	-0.000023
C138	C	1.116793	1.221825	0.499977
C139	C	0.720640	0.735990	-0.000032
C140	C	1.220640	1.235990	0.499968
C141	C	0.721352	0.676591	-0.000033
C142	C	1.221352	1.176591	0.499967
C143	C	0.669783	0.639810	-0.000024
C144	C	1.169783	1.139810	0.499976
C145	C	0.727179	0.189526	-0.000061
C146	C	1.227179	0.689526	0.499939
C147	C	0.727886	0.130124	-0.000069
C148	C	1.227886	0.630124	0.499931
C149	C	0.624039	0.115965	-0.000057
C150	C	1.124039	0.615965	0.499943
C151	C	0.623332	0.175361	-0.000051
C152	C	1.123332	0.675361	0.499949
C153	C	0.674907	0.212141	-0.000051
C154	C	1.174907	0.712141	0.499949
O155	O	0.578083	0.263312	-0.000055
O156	O	1.078083	0.763312	0.499945
O157	O	0.770214	0.289562	-0.000045
O158	O	1.270214	0.789562	0.499955
C159	C	0.633384	-0.112953	-0.436455
C160	C	1.133384	0.387047	0.063545
C161	C	0.633382	-0.112958	-0.372847
C162	C	1.133382	0.387042	0.127153
O163	O	0.600248	-0.146054	-0.339949
O164	O	1.100248	0.353946	0.160051
N165	N	0.672330	-0.074033	-0.341036
N166	N	1.172330	0.425967	0.158964
C167	C	0.711278	-0.035097	-0.372835
C168	C	1.211278	0.464903	0.127165
O169	O	0.744406	-0.001989	-0.339936
O170	O	1.244406	0.498011	0.160064
C171	C	0.711277	-0.035090	-0.436441
C172	C	1.211277	0.464910	0.063559
C173	C	0.672330	-0.074021	-0.468250
C174	C	1.172330	0.425979	0.031750
C175	C	0.594440	-0.151881	-0.468263
C176	C	1.094440	0.348119	0.031737
C177	C	0.594442	-0.151876	-0.531866
C178	C	1.094442	0.348124	-0.031866
C179	C	0.633389	-0.112944	-0.563661
C180	C	1.133389	0.387056	-0.063661
C181	C	0.672332	-0.074016	-0.531853
C182	C	1.172332	0.425984	-0.031853
C183	C	0.750222	0.003849	-0.468239
C184	C	1.250222	0.503849	0.031761
C185	C	0.750216	0.003853	-0.531850
C186	C	1.250216	0.503853	-0.031850
C187	C	0.711270	-0.035078	-0.563659
C188	C	1.211270	0.464922	-0.063659
C189	C	0.711281	-0.035080	-0.627251
C190	C	1.211281	0.464920	-0.127251
N191	N	0.672333	-0.074004	-0.659063
N192	N	1.172333	0.425996	-0.159063
C193	C	0.633387	-0.112937	-0.627268
C194	C	1.133387	0.387063	-0.127268
C195	C	0.711278	-0.035115	-0.239257
C196	C	1.211278	0.464885	0.260743
C197	C	0.711283	-0.035125	-0.175652
C198	C	1.211283	0.464875	0.324348
C199	C	0.633386	-0.112985	-0.175669
C200	C	1.133386	0.387015	0.324331
C201	C	0.633385	-0.112978	-0.239275
C202	C	1.133385	0.387022	0.260725
C203	C	0.672330	-0.074040	-0.271069
C204	C	1.172330	0.425960	0.228931
C205	C	0.633395	-0.112924	-0.760839
C206	C	1.133395	0.387076	-0.260839
C207	C	0.633402	-0.112918	-0.824448
C208	C	1.133402	0.387082	-0.324448
C209	C	0.711297	-0.035056	-0.824426
C210	C	1.211297	0.464944	-0.324426
C211	C	0.711292	-0.035064	-0.760822
C212	C	1.211292	0.464936	-0.260822
C213	C	0.672336	-0.074000	-0.729031
C214	C	1.172336	0.426000	-0.229031
O215	O	0.744397	-0.001999	-0.660190
O216	O	1.244397	0.498001	-0.160190
O217	O	0.600260	-0.146035	-0.660174
O218	O	1.100260	0.353965	-0.160174
N219	N	0.672349	-0.073986	0.143757
N220	N	1.172349	0.426014	0.643757
H221	H	-0.154776	-0.070061	0.099887
H222	H	0.345224	0.429939	0.599887
H223	H	0.819115	0.392037	-0.000058
H224	H	1.319115	0.892037	0.499942
C225	C	0.383213	-0.076593	-0.115717
C226	C	0.883213	0.423407	0.384283
H227	H	0.409413	-0.076924	-0.148518
H228	H	0.909413	0.423076	0.351482
H229	H	0.364575	-0.043099	-0.118020
H230	H	0.864575	0.456901	0.381980
H231	H	0.355508	-0.109535	-0.118002
H232	H	0.855508	0.390465	0.381998
H233	H	0.582056	0.086007	-0.000055
H234	H	1.082056	0.586007	0.499945
C235	C	0.832557	0.510293	-0.000049
C236	C	1.332557	1.010293	0.499951
H237	H	0.824656	0.548911	-0.000043
H238	H	1.324656	1.048911	0.499957
H239	H	0.854004	0.503460	-0.035289
H240	H	1.354004	1.003460	0.464711
H241	H	0.854007	0.503468	0.035192
H242	H	1.354007	1.003468	0.535192
C243	C	0.793059	0.046679	-0.433264
C244	C	1.293059	0.546679	0.066736
H245	H	0.816244	0.069868	-0.461318
H246	H	1.316244	0.569868	0.038682
H247	H	0.816655	0.026323	-0.408454
H248	H	1.316655	0.526323	0.091546
H249	H	0.772702	0.070280	-0.408449
H250	H	1.272702	0.570280	0.091551
H251	H	0.762627	0.765949	-0.000033
H252	H	1.262627	1.265949	0.499967
H253	H	0.743008	-0.003359	-0.850323
H254	H	1.243008	0.496641	-0.350323
C255	C	0.785396	0.105250	-0.000081
C256	C	1.285396	0.605250	0.499919
H257	H	0.778438	0.064606	-0.000090
H258	H	1.278438	0.564606	0.499910
H259	H	0.806617	0.117896	0.035155
H260	H	1.306617	0.617896	0.535155
H261	H	0.806607	0.117896	-0.035326
H262	H	1.306607	0.617896	0.464674
C263	C	0.507934	-0.078037	0.115648
C264	C	1.007934	0.421963	0.615648
H265	H	0.481741	-0.077717	0.148457
H266	H	0.981741	0.422283	0.648457
H267	H	0.535640	-0.045100	0.117929
H268	H	1.035640	0.454900	0.617929
H269	H	0.526570	-0.111536	0.117941
H270	H	1.026570	0.388464	0.617941
C271	C	0.383200	-0.076537	0.115648
C272	C	0.883200	0.423463	0.615648
H273	H	0.409398	-0.076844	0.148451
H274	H	0.909398	0.423156	0.648451
H275	H	0.355493	-0.109471	0.117943
H276	H	0.855493	0.390529	0.617943
H277	H	0.364567	-0.043036	0.117937
H278	H	0.864567	0.456964	0.617937
C279	C	0.590549	-0.155758	-0.725877
C280	C	1.090549	0.344242	-0.225877
H281	H	0.567363	-0.178942	-0.753938
H282	H	1.067363	0.321058	-0.253938
H283	H	0.566954	-0.135404	-0.701057
H284	H	1.066954	0.364596	-0.201057
H285	H	0.610904	-0.179364	-0.701073
H286	H	1.110904	0.320636	-0.201073
H287	H	-0.047026	-0.071349	0.099896
H288	H	0.452974	0.428651	0.599896
C289	C	0.551602	-0.194702	-0.566848
C290	C	1.051602	0.305298	-0.066848
H291	H	0.528408	-0.217885	-0.538795
H292	H	1.028408	0.282115	-0.038795
H293	H	0.571953	-0.218302	-0.591665
H294	H	1.071953	0.281698	-0.091665
H295	H	0.528006	-0.174340	-0.591655
H296	H	1.028006	0.325660	-0.091655
C297	C	0.590546	-0.155811	-0.140686
C298	C	1.090546	0.344189	0.359314
H299	H	0.596125	-0.150234	-0.098250
H300	H	1.096125	0.349766	0.401750
H301	H	0.596513	-0.193788	-0.151117
H302	H	1.096513	0.306212	0.348883
H303	H	0.552570	-0.149822	-0.151102
H304	H	1.052570	0.350178	0.348898
C305	C	0.109974	-0.073214	0.170722
C306	C	0.609974	0.426786	0.670722
H307	H	0.136175	-0.073514	0.203523
H308	H	0.636175	0.426486	0.703523
H309	H	0.082264	-0.106146	0.173029
H310	H	0.582264	0.393854	0.673029
H311	H	0.091344	-0.039710	0.173002
H312	H	0.591344	0.460290	0.673002
H313	H	0.763923	0.658183	-0.000041
H314	H	1.263923	1.158183	0.499959
C315	C	0.559284	0.746694	-0.000016
C316	C	1.059284	1.246694	0.499984
H317	H	0.528678	0.716276	-0.000010
H318	H	1.028678	1.216276	0.499990
H319	H	0.556841	0.769571	-0.035251
H320	H	1.056841	1.269571	0.464749
H321	H	0.556849	0.769570	0.035230
H322	H	1.056849	1.269570	0.535230
C323	C	0.560775	0.621973	-0.000021
C324	C	1.060775	1.121973	0.499979
H325	H	0.529543	0.643954	-0.000024
H326	H	1.029543	1.143954	0.499976
H327	H	0.558890	0.598508	0.035216
H328	H	1.058890	1.098508	0.535216
H329	H	0.558892	0.598506	-0.035265
H330	H	1.058892	1.098506	0.464735
H331	H	0.743003	-0.003429	-0.149758
H332	H	1.243003	0.496571	0.350242
H333	H	0.601671	-0.144679	-0.265170
H334	H	1.101671	0.355321	0.234830
H335	H	0.742997	-0.003408	-0.265141
H336	H	1.242997	0.496592	0.234859
C337	C	0.510630	0.466363	0.000006
C338	C	1.010630	0.966363	0.500006
H339	H	0.480027	0.435943	0.000016
H340	H	0.980027	0.935943	0.500016
H341	H	0.508181	0.489238	-0.035229
H342	H	1.008181	0.989238	0.464771
H343	H	0.508197	0.489240	0.035252
H344	H	1.008197	0.989240	0.535252
C345	C	0.512129	0.341643	-0.000003
C346	C	1.012129	0.841643	0.499997
H347	H	0.480894	0.363622	-0.000001
H348	H	0.980894	0.863622	0.499999
H349	H	0.510249	0.318177	0.035233
H350	H	1.010249	0.818177	0.535233
H351	H	0.510243	0.318176	-0.035248
H352	H	1.010243	0.818176	0.464752
H353	H	0.226208	-0.074685	-0.155068
H354	H	0.726208	0.425315	0.344932
C355	C	0.793059	0.046686	-0.566820
C356	C	1.293059	0.546686	-0.066820
H357	H	0.816253	0.069865	-0.538762
H358	H	1.316253	0.569865	-0.038762
H359	H	0.772709	0.070288	-0.591628
H360	H	1.272709	0.570288	-0.091628
H361	H	0.816654	0.026323	-0.591636
H362	H	1.316654	0.526323	-0.091636
H363	H	0.601687	-0.144622	-0.850344
H364	H	1.101687	0.355378	-0.350344
C365	C	-0.163250	-0.069955	-0.115731
C366	C	0.336750	0.430045	0.384269
H367	H	-0.202876	-0.069457	-0.107837
H368	H	0.297124	0.430543	0.392163
H369	H	-0.158068	-0.103277	-0.138397
H370	H	0.341932	0.396723	0.361603
H371	H	-0.148963	-0.036842	-0.138333
H372	H	0.351037	0.463158	0.361667
C373	C	0.109966	-0.073321	-0.170803
C374	C	0.609966	0.426679	0.329197
H375	H	0.070335	-0.072850	-0.162919
H376	H	0.570335	0.427150	0.337081
H377	H	0.115182	-0.106669	-0.193408
H378	H	0.615182	0.393331	0.306592
H379	H	0.124222	-0.040233	-0.193463
H380	H	0.624222	0.459767	0.306537
C381	C	0.234686	-0.074732	0.170726
C382	C	0.734686	0.425268	0.670726
H383	H	0.208482	-0.074414	0.203525
H384	H	0.708482	0.425586	0.703525
H385	H	0.262395	-0.041798	0.173022
H386	H	0.762395	0.458202	0.673022
H387	H	0.253317	-0.108234	0.173021
H388	H	0.753317	0.391766	0.673021
C389	C	0.507933	-0.078096	-0.115711
C390	C	1.007933	0.421904	0.384289
H391	H	0.481735	-0.077784	-0.148514
H392	H	0.981735	0.422216	0.351486
H393	H	0.526573	-0.111590	-0.118002
H394	H	1.026573	0.388410	0.381998
H395	H	0.535635	-0.045154	-0.118005
H396	H	1.035635	0.454846	0.381995
C397	C	0.754134	0.007756	-0.725832
C398	C	1.254134	0.507756	-0.225832
H399	H	0.777328	0.030945	-0.753880
H400	H	1.277328	0.530945	-0.253880
H401	H	0.777723	-0.012605	-0.701019
H402	H	1.277723	0.487395	-0.201019
H403	H	0.733777	0.031359	-0.701019
H404	H	1.233777	0.531359	-0.201019
H405	H	0.562723	-0.183584	-0.442382
H406	H	1.062723	0.316416	0.057618
H407	H	0.769176	0.219466	-0.000058
H408	H	1.269176	0.719466	0.499942
C409	C	-0.038515	-0.071485	-0.115730
C410	C	0.461485	0.428515	0.384270
H411	H	-0.064709	-0.071168	-0.148536
H412	H	0.435291	0.428832	0.351464
H413	H	-0.019863	-0.104970	-0.118032
H414	H	0.480137	0.395030	0.381968
H415	H	-0.010821	-0.038534	-0.118009
H416	H	0.489179	0.461466	0.381991
H417	H	0.580761	0.193774	-0.000060
H418	H	1.080761	0.693774	0.499940
