data_functionalizedCrystal
_audit_creation_method	'MofGen! by Chris Wilmer'
_symmetry_space_group_name_H-M	'P1'
_symmetry_Int_Tables_number	1
_symmetry_cell_setting	triclinic
loop_
_symmetry_equiv_pos_as_xyz
  x,y,z
_cell_length_a	10.540539
_cell_length_b	10.540539
_cell_length_c	9.616153
_cell_angle_alpha	90.000094
_cell_angle_beta	89.995174
_cell_angle_gamma	95.474508
loop_
_atom_site_label
_atom_site_type_symbol
_atom_site_fract_x
_atom_site_fract_y
_atom_site_fract_z
O1	O	1.685892	-0.178895	-0.115573
O2	O	1.316479	-0.195751	-0.115589
O3	O	1.509614	-0.002617	-0.115579
O4	O	1.492758	-0.372030	-0.115583
O5	O	1.509587	-0.002621	0.115712
O6	O	1.316452	-0.195755	0.115702
O7	O	1.685865	-0.178899	0.115718
Zn8	Zn	1.501155	-0.187328	0.152433
Zn9	Zn	1.501190	-0.187323	-0.152304
O10	O	1.492731	-0.372034	0.115708
C11	C	1.269163	-0.194489	0.000054
C12	C	1.128215	-0.190707	0.000048
C13	C	0.944788	-0.045790	0.000589
C14	C	1.091406	-0.049624	0.000054
C15	C	1.066557	-0.258600	-0.132027
C16	C	0.920013	-0.253785	-0.132123
C17	C	0.919494	-0.256660	0.130899
C18	C	1.066476	-0.257959	0.132630
C19	C	1.508336	0.044684	0.000064
C20	C	1.504554	0.185632	0.000056
C21	C	1.733182	-0.180161	0.000072
C22	C	1.874130	-0.183943	0.000069
C23	C	1.494008	-0.419335	0.000062
C24	C	1.497790	-0.560283	0.000060
N25	N	1.501140	-0.187331	0.360407
C26	C	1.359637	0.369059	-0.000469
C27	C	1.363471	0.222441	0.000052
C28	C	1.572435	0.247288	0.132138
C29	C	1.567620	0.393832	0.132249
C30	C	1.570519	0.394355	-0.130772
C31	C	1.571819	0.247373	-0.132518
N32	N	1.501215	-0.187310	-0.360278
C33	C	1.397510	-0.290298	0.580772
C34	C	1.397739	-0.290684	0.419604
C35	C	1.633864	-0.217464	0.418862
C36	C	1.633299	-0.218193	0.580080
C37	C	1.473368	-0.053892	0.580319
C38	C	1.470321	-0.054757	0.419092
H39	H	1.090701	-0.360819	0.140603
H40	H	1.088911	-0.362208	-0.136942
H41	H	1.540848	0.025564	0.378801
O42	O	1.286104	0.409058	0.124295
H43	H	1.200361	0.453312	0.088711
H44	H	1.517430	0.422030	0.230979
H45	H	1.657654	-0.315531	0.617668
O46	O	1.510097	0.436143	-0.263409
H47	H	1.409457	0.394389	-0.268112
H48	H	1.107427	-0.208361	0.230338
O49	O	1.266472	-0.266670	0.632197
H50	H	1.243658	-0.170990	0.597587
O51	O	1.147845	0.021146	0.125457
H52	H	1.252858	0.018471	0.125203
H53	H	0.916192	0.009944	0.095307
H54	H	1.548980	0.022762	0.618439
O55	O	1.738673	-0.122710	0.631750
H56	H	1.789815	-0.076226	0.541582
H57	H	1.310058	0.179839	-0.094630
O58	O	1.709670	0.217666	0.138665
H59	H	1.773091	0.307986	0.137222
O60	O	0.856936	-0.391641	0.132085
H61	H	0.889448	-0.442352	0.224738
O62	O	0.904787	0.027750	-0.124158
H63	H	0.834803	-0.033670	-0.186531
O64	O	0.877702	-0.196179	0.263510
H65	H	0.910842	-0.249172	0.354208
O66	O	1.146734	0.021627	-0.125576
H67	H	1.068750	0.058948	-0.186192
H68	H	1.303917	0.397661	-0.095187
H69	H	1.415638	-0.389668	0.381024
O70	O	1.292225	0.167113	0.125685
H71	H	1.254904	0.245097	0.186313
O72	O	1.702009	0.457391	0.140236
H73	H	1.757142	0.428824	0.048966
O74	O	1.666850	-0.344949	0.365389
H75	H	1.588931	-0.387044	0.297197
H76	H	1.525259	0.204686	0.230425
H77	H	1.522152	0.206516	-0.230229
H78	H	0.891814	-0.203603	-0.230849
H79	H	1.372683	-0.031917	0.380887
O80	O	0.856450	-0.388175	-0.140081
H81	H	0.886308	-0.434057	-0.237080
H82	H	1.674680	0.223152	-0.140490
H83	H	1.672423	0.441581	-0.131656
O84	O	1.267107	-0.266694	0.367238
H85	H	1.203199	-0.254717	0.457066
H86	H	1.415178	-0.388722	0.621270
H87	H	1.712918	-0.144501	0.380514
H88	H	1.109157	-0.211434	-0.230318
O89	O	1.347851	-0.015918	0.634212
H90	H	1.303911	-0.091724	0.703946
