data_functionalizedCrystal
_audit_creation_method	'MofGen! by Chris Wilmer'
_symmetry_space_group_name_H-M	'P1'
_symmetry_Int_Tables_number	1
_symmetry_cell_setting	triclinic
loop_
_symmetry_equiv_pos_as_xyz
  x,y,z
_cell_length_a	10.654549
_cell_length_b	12.503572
_cell_length_c	14.044220
_cell_angle_alpha	86.154684
_cell_angle_beta	88.837898
_cell_angle_gamma	93.553561
loop_
_atom_site_label
_atom_site_type_symbol
_atom_site_fract_x
_atom_site_fract_y
_atom_site_fract_z
O1	O	1.687863	0.089345	0.127813
O2	O	1.323660	0.089341	0.140501
O3	O	1.500295	0.089338	-0.003863
O4	O	1.511229	0.089348	0.272177
O5	O	1.487013	-0.089303	0.007012
O6	O	1.310378	-0.089301	0.151377
O7	O	1.674581	-0.089297	0.138688
Cu8	Cu	1.491267	-0.105610	0.146025
Cu9	Cu	1.506975	0.105654	0.133164
O10	O	1.497947	-0.089294	0.283053
C11	C	1.270128	0.000020	0.145006
C12	C	1.130404	0.000018	0.142216
C13	C	0.857243	0.000054	0.309603
C14	C	0.917586	0.000053	0.397231
C15	C	1.048867	0.000039	0.399857
C16	C	1.119809	0.000030	0.314845
C17	C	1.059466	0.000031	0.227218
C18	C	0.928181	0.000042	0.224602
C19	C	1.070062	0.000020	0.054589
C20	C	0.938780	0.000026	0.051961
C21	C	1.141004	0.000010	-0.030422
C22	C	1.080661	0.000004	-0.118052
C23	C	0.949371	0.000017	-0.120674
C24	C	0.878438	0.000027	-0.035666
N25	N	1.480229	-0.254202	0.155071
C26	C	1.463991	-0.473317	0.168385
C27	C	1.534256	-0.526645	0.110800
C28	C	1.525221	-0.648568	0.118208
C29	C	1.473024	-0.351383	0.160978
C30	C	1.728114	0.000027	0.134183
C31	C	1.867838	0.000035	0.136972
C32	C	1.509374	0.000028	0.312961
C33	C	1.523650	0.000032	0.418280
N34	N	1.518022	0.254247	0.124111
C35	C	1.488868	0.000018	-0.033772
C36	C	1.474593	0.000021	-0.139092
C37	C	1.549748	0.000028	0.611114
C38	C	1.448500	0.000026	0.668080
C39	C	1.463022	0.000023	0.775380
C40	C	1.535229	0.000030	0.503805
H41	H	1.247899	0.000004	-0.028279
H42	H	0.859811	0.000064	0.466444
H43	H	1.397055	-0.519223	0.223245
H44	H	1.350913	0.000024	0.636267
C45	C	1.114153	-0.000016	0.495092
C46	C	1.023933	-0.000028	0.568981
C47	C	1.084027	-0.000092	0.656723
H48	H	1.169784	0.062257	0.496041
H49	H	1.160470	-0.062343	0.503546
H50	H	0.977637	0.062293	0.560528
H51	H	0.968297	-0.062296	0.568062
H52	H	1.130344	-0.062420	0.665178
H53	H	1.139657	0.062182	0.657663
H54	H	1.022822	-0.000110	0.706868
H55	H	1.226705	0.000031	0.316990
C56	C	0.884039	0.000187	-0.215893
C57	C	0.926042	0.092077	-0.272932
C58	C	0.865903	0.092265	-0.360660
H59	H	0.795685	0.000250	-0.205424
H60	H	0.903128	-0.062079	-0.247190
H61	H	0.906944	0.154328	-0.241642
H62	H	1.014387	0.092034	-0.283427
H63	H	0.884992	0.029998	-0.391957
H64	H	0.777552	0.092325	-0.350182
H65	H	0.894402	0.154605	-0.399375
H66	H	1.138432	0.000004	-0.187261
H67	H	0.771541	0.000029	-0.037792
H68	H	1.647327	0.000025	0.642926
H69	H	1.601198	-0.480734	0.055938
H70	H	0.750346	0.000047	0.307475
