data_functionalizedCrystal
_audit_creation_method	'MofGen! by Chris Wilmer'
_symmetry_space_group_name_H-M	'P1'
_symmetry_Int_Tables_number	1
_symmetry_cell_setting	triclinic
loop_
_symmetry_equiv_pos_as_xyz
  x,y,z
_cell_length_a	25.427154
_cell_length_b	25.426324
_cell_length_c	25.422586
_cell_angle_alpha	60.006367
_cell_angle_beta	60.012446
_cell_angle_gamma	59.992398
loop_
_atom_site_label
_atom_site_type_symbol
_atom_site_fract_x
_atom_site_fract_y
_atom_site_fract_z
O1	O	0.072968	-0.768436	0.642532
O2	O	0.027520	-0.598284	0.517710
O3	O	0.135268	-0.705940	0.517611
O4	O	-0.034780	-0.660780	0.642632
O5	O	0.171018	-0.670200	0.553260
O6	O	0.063270	-0.562544	0.553360
O7	O	0.108718	-0.732696	0.678182
Zn8	Zn	0.091670	-0.641945	0.621431
Zn9	Zn	0.044568	-0.689034	0.574461
O10	O	0.000970	-0.625039	0.678281
N11	N	0.123818	-0.609812	0.653490
N12	N	0.012426	-0.721173	0.542402
C13	C	0.168482	-0.466269	0.698103
C14	C	0.168494	-0.565177	0.698095
C15	C	0.193243	-0.540453	0.722807
C16	C	0.301113	-0.521853	0.665993
C17	C	0.368545	-0.544324	0.643486
C18	C	0.368579	-0.653434	0.685090
C19	C	0.301149	-0.630961	0.707599
C20	C	0.184722	-0.432539	0.631812
C21	C	0.162210	-0.365100	0.609357
C22	C	0.107225	-0.365129	0.719489
C23	C	0.129737	-0.432567	0.741943
C24	C	0.102194	-0.548896	0.714421
C25	C	0.079702	-0.571372	0.691949
C26	C	0.189805	-0.626409	0.636839
C27	C	0.212300	-0.603934	0.659303
C28	C	0.102289	-0.548918	0.830735
C29	C	0.079866	-0.571415	0.898171
C30	C	0.190015	-0.626466	0.898104
C31	C	0.212437	-0.603971	0.830666
C32	C	0.168573	-0.565195	0.796984
C33	C	0.267418	-0.565170	0.698047
C34	C	-0.130981	-0.765617	0.497386
C35	C	-0.032127	-0.765741	0.497606
C36	C	-0.056804	-0.790430	0.472789
C37	C	-0.075480	-0.898263	0.529507
C38	C	-0.053057	-0.965702	0.552014
C39	C	0.056052	-0.965829	0.510599
C40	C	0.033627	-0.898392	0.488091
C41	C	-0.164787	-0.781859	0.563659
C42	C	-0.232219	-0.759299	0.586018
C43	C	-0.232034	-0.704261	0.475827
C44	C	-0.164602	-0.726821	0.453469
C45	C	-0.048372	-0.699446	0.481299
C46	C	-0.025938	-0.677008	0.503867
C47	C	0.028987	-0.787155	0.559036
C48	C	0.006552	-0.809596	0.536475
C49	C	-0.048188	-0.699454	0.364860
C50	C	-0.025608	-0.677017	0.297425
C51	C	0.029406	-0.787170	0.297492
C52	C	0.006827	-0.809605	0.364929
C53	C	-0.031972	-0.765745	0.398611
C54	C	-0.032140	-0.864611	0.497548
N55	N	0.401319	-0.609788	0.653344
O56	O	0.621664	-0.620517	0.494685
O57	O	0.621901	-0.745740	0.664659
O58	O	0.621803	-0.745452	0.556857
O59	O	0.621762	-0.620805	0.602487
O60	O	0.514676	-0.709815	0.592658
O61	O	0.514774	-0.710104	0.700460
O62	O	0.514537	-0.584881	0.530485
Zn63	Zn	0.497647	-0.641834	0.621157
Zn64	Zn	0.638791	-0.688787	0.573988
O65	O	0.514635	-0.585169	0.638287
N66	N	0.735119	-0.720834	0.541794
N67	N	0.123794	-0.332357	0.653504
O68	O	-0.034774	-0.111885	0.642639
O69	O	0.135202	-0.111860	0.517412
O70	O	0.027364	-0.111888	0.517742
O71	O	0.073064	-0.111857	0.642310
O72	O	0.063120	-0.219026	0.553444
O73	O	0.170958	-0.218998	0.553115
O74	O	0.000983	-0.219022	0.678342
Zn75	Zn	0.091647	-0.236020	0.621397
Zn76	Zn	0.044537	-0.094862	0.574357
O77	O	0.108821	-0.218994	0.678013
N78	N	0.012383	0.001474	0.542251
N79	N	0.124036	-0.609854	0.930891
O80	O	0.113202	-0.768401	1.151342
O81	O	-0.011992	-0.598359	1.151385
O82	O	-0.011700	-0.706176	1.151343
O83	O	0.112910	-0.660584	1.151384
O84	O	0.023980	-0.670446	1.044212
O85	O	0.023689	-0.562630	1.044253
O86	O	0.148882	-0.732671	1.044211
Zn87	Zn	0.091951	-0.641977	1.027223
Zn88	Zn	0.044940	-0.689053	1.168373
O89	O	0.148590	-0.624854	1.044252
N90	N	0.012853	-0.721183	1.264704
C91	C	0.041135	-0.558973	0.518338
C92	C	0.174567	-0.692292	0.518215
C93	C	0.095103	-0.772007	0.677553
C94	C	-0.038330	-0.638687	0.677677
C95	C	0.568366	-0.745166	0.703974
C96	C	0.568246	-0.744810	0.570474
C97	C	0.568069	-0.585454	0.491172
C98	C	0.568192	-0.585812	0.624671
C99	C	0.174449	-0.165294	0.517975
C100	C	0.040949	-0.165460	0.518427
C101	C	-0.038309	-0.165456	0.677735
C102	C	0.095236	-0.165423	0.677328
C103	C	-0.011393	-0.559072	1.097824
C104	C	-0.011024	-0.692583	1.097752
C105	C	0.148283	-0.771958	1.097772
C106	C	0.147922	-0.638440	1.097820
H107	H	0.025889	-0.558152	0.925643
H108	H	-0.050697	-0.510236	1.097837
C109	C	0.568171	-0.532912	0.637858
H110	H	0.568216	-0.548659	0.680505
H111	H	0.605496	-0.521148	0.608121
H112	H	0.530776	-0.496295	0.633094
C113	C	0.028020	-0.492947	0.465373
H114	H	-0.014626	-0.465972	0.481057
H115	H	0.057760	-0.473602	0.453623
H116	H	0.032824	-0.498536	0.428765
H117	H	0.066565	-0.517338	0.803314
C118	C	0.240544	-0.705291	0.465177
H119	H	0.267576	-0.747928	0.480799
H120	H	0.234913	-0.700446	0.428577
H121	H	0.259851	-0.675520	0.453443
H122	H	0.223163	-0.164989	0.478564
C123	C	0.201383	-0.837928	1.097753
H124	H	0.185826	-0.864992	1.097743
H125	H	0.237981	-0.832287	1.060396
H126	H	0.213094	-0.857211	1.135119
H127	H	0.567992	-0.546139	0.442358
C128	C	0.027735	-0.165470	0.465555
H129	H	0.064953	-0.165461	0.428055
H130	H	0.017520	-0.202835	0.480441
H131	H	-0.007416	-0.128108	0.455541
C132	C	-0.063888	-0.705733	1.097674
H133	H	-0.048137	-0.748384	1.097644
H134	H	-0.100533	-0.700930	1.135022
H135	H	-0.075598	-0.676000	1.060299
H136	H	0.568264	-0.783967	0.560707
C137	C	0.200811	-0.625265	1.097822
H138	H	0.185069	-0.582606	1.097829
H139	H	0.212560	-0.654985	1.135175
H140	H	0.237433	-0.630064	1.060452
H141	H	0.104814	-0.820885	0.716757
C142	C	-0.104250	-0.165465	0.730846
H143	H	-0.131333	-0.165470	0.715301
H144	H	-0.098583	-0.202823	0.767450
H145	H	-0.123523	-0.128096	0.742545
C146	C	0.108449	-0.165413	0.730200
H147	H	0.071229	-0.165413	0.767697
H148	H	0.143601	-0.202767	0.740212
H149	H	0.118658	-0.128040	0.715310
C150	C	0.238265	-0.669105	0.935150
H151	H	0.215421	-0.680169	0.980145
H152	H	0.264577	-0.707232	0.924081
H153	H	0.264559	-0.646212	0.924084
C154	C	0.285351	-0.621879	0.793541
H155	H	0.292426	-0.602935	0.748556
H156	H	0.304305	-0.606373	0.804581
H157	H	0.304304	-0.667383	0.804579
C158	C	0.006774	-0.553462	0.709895
H159	H	-0.000347	-0.572392	0.690950
H160	H	-0.012139	-0.568979	0.755394
H161	H	-0.012181	-0.507957	0.694396
C162	C	0.237993	-0.669042	0.594174
H163	H	0.280698	-0.675514	0.587671
H164	H	0.231534	-0.709464	0.614758
H165	H	0.231481	-0.648438	0.553763
H166	H	0.568427	-0.784476	0.752793
C167	C	0.285228	-0.621841	0.641355
H168	H	0.292349	-0.602901	0.660290
H169	H	0.304188	-0.667342	0.656846
H170	H	0.304136	-0.606317	0.595851
C171	C	0.264085	-0.678613	0.742857
H172	H	0.293834	-0.721013	0.745313
H173	H	0.237806	-0.676899	0.785108
H174	H	0.237755	-0.667329	0.719892
H175	H	0.396045	-0.707006	0.692856
C176	C	0.405609	-0.496676	0.608225
H177	H	0.375862	-0.454274	0.605755
H178	H	0.431939	-0.507957	0.631185
H179	H	0.431888	-0.498394	0.565972
H180	H	-0.087172	-0.629063	0.716934
H181	H	0.066522	-0.517340	0.746005
H182	H	0.075686	-0.337687	0.755188
C183	C	0.024668	-0.882528	0.402054
H184	H	0.005671	-0.889611	0.447040
H185	H	0.009183	-0.901445	0.390949
H186	H	0.070161	-0.901515	0.391082
H187	H	0.273654	-0.468282	0.658214
H188	H	0.175430	-0.337636	0.555374
C189	C	0.227334	-0.469611	0.583591
H190	H	0.233771	-0.439861	0.540892
H191	H	0.267769	-0.495915	0.590040
H192	H	0.206741	-0.495920	0.590083
H193	H	-0.038823	-0.623033	0.269953
C194	C	0.111798	-0.469673	0.814867
H195	H	0.085478	-0.439942	0.837760
H196	H	0.088923	-0.495951	0.825860
H197	H	0.149908	-0.496012	0.825970
H198	H	-0.079784	-0.663733	0.392281
H199	H	-0.079862	-0.663733	0.449648
C200	C	0.072073	-0.835417	0.260449
H201	H	0.078497	-0.878110	0.290211
H202	H	0.051537	-0.828916	0.234076
H203	H	0.112518	-0.828996	0.234214
H204	H	-0.039168	-0.623025	0.490592
H205	H	0.060486	-0.822870	0.590677
H206	H	0.019779	-0.863579	0.549754
H207	H	0.109606	-0.993335	0.502902
C208	C	0.081302	-0.861372	0.452935
H209	H	0.058529	-0.816370	0.440878
H210	H	0.102567	-0.872443	0.480745
H211	H	0.112218	-0.872459	0.415483
C212	C	-0.100731	-1.002719	0.587173
H213	H	-0.143113	-0.972941	0.589588
H214	H	-0.089428	-1.029031	0.564186
H215	H	-0.099073	-1.029016	0.629447
H216	H	-0.129033	-0.870764	0.537213
H217	H	-0.259745	-0.772522	0.639985
C218	C	-0.127804	-0.824529	0.611965
H219	H	-0.157597	-0.830961	0.654639
H220	H	-0.101509	-0.864967	0.605521
H221	H	-0.101498	-0.803973	0.605546
H222	H	-0.259410	-0.672678	0.440065
H223	H	-0.137077	-0.713589	0.399501
