data_functionalizedCrystal
_audit_creation_method	'MofGen! by Chris Wilmer'
_symmetry_space_group_name_H-M	'P1'
_symmetry_Int_Tables_number	1
_symmetry_cell_setting	triclinic
loop_
_symmetry_equiv_pos_as_xyz
  x,y,z
_cell_length_a	21.395362
_cell_length_b	21.295417
_cell_length_c	21.395356
_cell_angle_alpha	89.969378
_cell_angle_beta	89.957023
_cell_angle_gamma	90.046383
loop_
_atom_site_label
_atom_site_type_symbol
_atom_site_fract_x
_atom_site_fract_y
_atom_site_fract_z
Zn1	Zn	0.957854	-0.250358	-0.354573
Zn2	Zn	1.457854	0.249642	0.145427
Zn3	Zn	0.957759	-0.355627	-0.249790
Zn4	Zn	1.457759	0.144373	0.250210
Zn5	Zn	0.853071	-0.250404	-0.249774
Zn6	Zn	1.353071	0.249596	0.250226
Zn7	Zn	0.853039	-0.355623	-0.354495
Zn8	Zn	1.353039	0.144377	0.145505
O9	O	0.905431	-0.303003	-0.302158
O10	O	1.405431	0.196997	0.197842
O11	O	1.045520	-0.264305	-0.340713
O12	O	1.545520	0.235695	0.159287
O13	O	0.943846	-0.341690	-0.162110
O14	O	1.443846	0.158310	0.337890
O15	O	0.867024	-0.162309	-0.263702
O16	O	1.367024	0.337691	0.236298
O17	O	1.045450	-0.341645	-0.263729
O18	O	1.545450	0.158355	0.236271
O19	O	0.944008	-0.162275	-0.340697
O20	O	1.444008	0.337725	0.159303
O21	O	0.866932	-0.264383	-0.162098
O22	O	1.366932	0.235617	0.337902
O23	O	0.765389	-0.264380	-0.263626
O24	O	1.265389	0.235620	0.236374
O25	O	0.866969	-0.341638	-0.442183
O26	O	1.366969	0.158362	0.057817
O27	O	0.765365	-0.341683	-0.340564
O28	O	1.265365	0.158317	0.159436
O29	O	0.943977	-0.264301	-0.442240
O30	O	1.443977	0.235699	0.057760
O31	O	0.943814	-0.443716	-0.263653
O32	O	1.443814	0.056284	0.236347
O33	O	0.866877	-0.443713	-0.340579
O34	O	1.366877	0.056287	0.159421
C35	C	0.742643	-0.303036	-0.302085
C36	C	1.242643	0.196964	0.197915
C37	C	0.673002	-0.303066	-0.302069
C38	C	1.173002	0.196934	0.197931
C39	C	0.640293	-0.343371	-0.342070
C40	C	1.140293	0.156629	0.157930
C41	C	0.574858	-0.343356	-0.342098
C42	C	1.074858	0.156644	0.157902
C43	C	0.542134	-0.303042	-0.302114
C44	C	1.042134	0.196958	0.197886
C45	C	0.574851	-0.262728	-0.262109
C46	C	1.074851	0.237272	0.237891
C47	C	0.640285	-0.262741	-0.262087
C48	C	1.140285	0.237259	0.237913
C49	C	0.438410	-0.297979	-0.245709
C50	C	0.938410	0.202021	0.254291
C51	C	0.372977	-0.297972	-0.245730
C52	C	0.872977	0.202028	0.254270
C53	C	0.340313	-0.303000	-0.302183
C54	C	0.840313	0.197000	0.197817
C55	C	0.373090	-0.308050	-0.358616
C56	C	0.873090	0.191950	0.141384
C57	C	0.438524	-0.308062	-0.358594
C58	C	0.938524	0.191938	0.141406
C59	C	0.471181	-0.303024	-0.302134
C60	C	0.971181	0.196976	0.197866
C61	C	0.236651	-0.343291	-0.342218
C62	C	0.736651	0.156709	0.157782
C63	C	0.171215	-0.343271	-0.342247
C64	C	0.671215	0.156729	0.157753
C65	C	0.171209	-0.262647	-0.262252
C66	C	0.671209	0.237353	0.237748
C67	C	0.236645	-0.262664	-0.262229
C68	C	0.736645	0.237336	0.237771
C69	C	0.269362	-0.302989	-0.302211
C70	C	0.769362	0.197011	0.197789
C71	C	0.905349	-0.466555	-0.302123
C72	C	1.405349	0.033445	0.197877
C73	C	0.905371	-0.536523	-0.302129
C74	C	1.405371	-0.036523	0.197871
C75	C	0.945468	-0.569370	-0.262115
C76	C	1.445468	-0.069370	0.237885
C77	C	0.945497	-0.635113	-0.262129
C78	C	1.445497	-0.135113	0.237871
C79	C	0.905418	-0.668005	-0.302151
C80	C	1.405418	-0.168005	0.197849
C81	C	0.865319	-0.635150	-0.342173
C82	C	1.365319	-0.135150	0.157827
C83	C	0.865295	-0.569409	-0.342162
C84	C	1.365295	-0.069409	0.157838
N85	N	0.850609	-0.771286	-0.306903
N86	N	1.350609	-0.271286	0.193097
N87	N	0.850633	-0.833738	-0.306910
N88	N	1.350633	-0.333738	0.193090
C89	C	0.905489	-0.866080	-0.302187
C90	C	1.405489	-0.366080	0.197813
N91	N	0.960320	-0.833611	-0.297445
N92	N	1.460320	-0.333611	0.202555
N93	N	0.960295	-0.771154	-0.297435
N94	N	1.460295	-0.271154	0.202565
C95	C	0.905440	-0.739291	-0.302167
C96	C	1.405440	-0.239291	0.197833
C97	C	0.945621	-0.970213	-0.262186
C98	C	1.445621	-0.470213	0.237814
C99	C	0.945651	-1.035956	-0.262204
C100	C	1.445651	-0.535956	0.237796
C101	C	0.865467	-1.035993	-0.342245
C102	C	1.365467	-0.535993	0.157755
C103	C	0.865442	-0.970250	-0.342230
C104	C	1.365442	-0.470250	0.157770
C105	C	0.905518	-0.937364	-0.302197
C106	C	1.405518	-0.437364	0.197803
C107	C	1.068854	-0.302970	-0.302231
C108	C	1.568854	0.197030	0.197769
C109	C	1.138496	-0.302956	-0.302262
C110	C	1.638496	0.197044	0.197738
C111	C	0.905480	-0.302964	-0.465581
C112	C	1.405480	0.197036	0.034419
C113	C	0.905501	-0.302947	-0.535223
C114	C	1.405501	0.197053	-0.035223
C115	C	0.905530	-0.138813	-0.302206
C116	C	1.405530	0.361187	0.197794
C117	C	0.905573	-0.068845	-0.302227
C118	C	1.405573	0.431155	0.197773
C119	C	0.865463	-0.262689	-0.567920
C120	C	1.365463	0.237311	-0.067920
C121	C	0.865461	-0.262678	-0.633355
C122	C	1.365461	0.237322	-0.133355
C123	C	0.905508	-0.302917	-0.666091
C124	C	1.405508	0.197083	-0.166091
C125	C	0.945549	-0.343183	-0.633386
C126	C	1.445549	0.156817	-0.133386
C127	C	0.945546	-0.343198	-0.567952
C128	C	1.445546	0.156802	-0.067952
C129	C	0.961960	-0.307851	-0.769796
C130	C	1.461960	0.192149	-0.269796
C131	C	0.961965	-0.307831	-0.835229
C132	C	1.461965	0.192169	-0.335229
C133	C	0.905518	-0.302875	-0.867912
C134	C	1.405518	0.197125	-0.367912
C135	C	0.849066	-0.297925	-0.835153
C136	C	1.349066	0.202075	-0.335153
C137	C	0.849063	-0.297940	-0.769719
C138	C	1.349063	0.202060	-0.269719
C139	C	0.905516	-0.302906	-0.737043
C140	C	1.405516	0.197094	-0.237043
C141	C	0.865474	-0.262602	-0.971562
C142	C	1.365474	0.237398	-0.471562
C143	C	0.865471	-0.262595	-1.036998
C144	C	1.365471	0.237405	-0.536998
C145	C	0.945565	-0.343097	-1.037028
C146	C	1.445565	0.156903	-0.537028
C147	C	0.945563	-0.343108	-0.971592
C148	C	1.445563	0.156892	-0.471592
C149	C	0.905518	-0.302857	-0.938863
C150	C	1.405518	0.197143	-0.438863
C151	C	0.905418	-0.302997	-0.139370
C152	C	1.405418	0.197003	0.360630
C153	C	0.905518	-0.302836	-0.069729
C154	C	1.405518	0.197164	0.430271
H155	H	0.144584	-0.376091	-0.374825
H156	H	0.644584	0.123909	0.125175
Br157	Br	0.810931	-0.679788	-0.396494
Br158	Br	1.310931	-0.179788	0.103506
H159	H	0.832643	-0.542664	-0.374747
H160	H	1.332643	-0.042664	0.125253
Br161	Br	0.328500	-0.291120	-0.169143
Br162	Br	0.828500	0.208880	0.330857
H163	H	0.144566	-0.229820	-0.229699
H164	H	0.644566	0.270180	0.270301
Br165	Br	0.281039	-0.207961	-0.207938
Br166	Br	0.781039	0.292039	0.292062
H167	H	0.464999	-0.293882	-0.199735
H168	H	0.964999	0.206118	0.300265
Br169	Br	0.684679	-0.208035	-0.207796
Br170	Br	1.184679	0.291965	0.292204
Br171	Br	0.999865	-0.524742	-0.207794
Br172	Br	1.499865	-0.024742	0.292206
Br173	Br	0.328769	-0.314873	-0.435237
Br174	Br	0.828769	0.185127	0.064763
Br175	Br	0.999907	-0.397743	-0.927214
Br176	Br	1.499907	0.102257	-0.427214
H177	H	0.978174	-0.375860	-1.063680
H178	H	1.478174	0.124140	-0.563680
H179	H	0.832853	-0.229916	-0.541276
H180	H	1.332853	0.270084	-0.041276
Br181	Br	0.530442	-0.208011	-0.207849
Br182	Br	1.030442	0.291989	0.292151
H183	H	0.832867	-0.229828	-0.944912
H184	H	1.332867	0.270172	-0.444912
H185	H	0.978255	-0.943436	-0.229590
H186	H	1.478255	-0.443436	0.270410
Br187	Br	0.530457	-0.398058	-0.396391
Br188	Br	1.030457	0.101942	0.103609
Br189	Br	1.000080	-1.080536	-0.207900
Br190	Br	1.500080	-0.580536	0.292100
Br191	Br	0.811080	-1.080626	-0.396568
Br192	Br	1.311080	-0.580626	0.103432
H193	H	0.832858	-0.229892	-0.659982
H194	H	1.332858	0.270108	-0.159982
Br195	Br	0.281057	-0.398014	-0.396480
Br196	Br	0.781057	0.101986	0.103520
Br197	Br	0.999919	-0.679701	-0.207820
Br198	Br	1.499919	-0.179701	0.292180
Br199	Br	0.811020	-0.925669	-0.396537
Br200	Br	1.311020	-0.425669	0.103463
H201	H	0.803097	-0.293910	-0.743050
H202	H	1.303097	0.206090	-0.243050
H203	H	0.465209	-0.312172	-0.404544
H204	H	0.965209	0.187828	0.095456
Br205	Br	0.772455	-0.291191	-0.879500
Br206	Br	1.272455	0.208809	-0.379500
H207	H	0.832863	-0.229814	-1.063619
H208	H	1.332863	0.270186	-0.563619
H209	H	1.007932	-0.311859	-0.861896
H210	H	1.507932	0.188141	-0.361896
Br211	Br	1.038572	-0.314585	-0.725448
Br212	Br	1.538572	0.185415	-0.225448
H213	H	0.978156	-0.375947	-0.660043
H214	H	1.478156	0.124053	-0.160043
Br215	Br	0.999887	-0.397839	-0.523574
Br216	Br	1.499887	0.102161	-0.023574
H217	H	0.666927	-0.376206	-0.374628
H218	H	1.166927	0.123794	0.125372
