data_functionalizedCrystal
_audit_creation_method	'MofGen! by Chris Wilmer'
_symmetry_space_group_name_H-M	'P1'
_symmetry_Int_Tables_number	1
_symmetry_cell_setting	triclinic
loop_
_symmetry_equiv_pos_as_xyz
  x,y,z
_cell_length_a	12.759401
_cell_length_b	16.625546
_cell_length_c	12.759393
_cell_angle_alpha	89.963806
_cell_angle_beta	89.981504
_cell_angle_gamma	90.022629
loop_
_atom_site_label
_atom_site_type_symbol
_atom_site_fract_x
_atom_site_fract_y
_atom_site_fract_z
Zn1	Zn	1.606199	-0.320951	-0.593948
Zn2	Zn	1.606069	-0.455807	-0.418253
Zn3	Zn	1.430501	-0.320993	-0.418287
Zn4	Zn	1.430465	-0.455745	-0.593895
O5	O	1.518308	-0.388374	-0.506096
O6	O	1.753203	-0.338848	-0.570649
O7	O	1.582740	-0.437968	-0.271237
O8	O	1.453876	-0.208155	-0.441625
O9	O	1.753107	-0.437927	-0.441568
O10	O	1.582961	-0.208124	-0.570682
O11	O	1.453751	-0.338920	-0.271261
O12	O	1.283475	-0.338860	-0.441574
O13	O	1.453816	-0.437821	-0.740923
O14	O	1.283449	-0.437862	-0.570592
O15	O	1.582927	-0.338788	-0.740962
O16	O	1.582706	-0.568632	-0.441517
O17	O	1.453691	-0.568586	-0.570560
C18	C	1.245341	-0.388359	-0.506081
C19	C	1.128564	-0.388372	-0.506100
C20	C	1.073717	-0.440005	-0.573169
C21	C	0.963992	-0.440015	-0.573180
C22	C	0.963974	-0.336758	-0.439045
C23	C	1.073696	-0.336744	-0.439040
C24	C	1.128585	-0.491634	-0.640229
C25	C	1.073737	-0.543271	-0.707303
C26	C	0.964013	-0.543282	-0.707314
C27	C	0.909137	-0.491654	-0.640252
C28	C	1.518209	-0.597865	-0.506052
C29	C	1.518263	-0.687486	-0.506068
C30	C	1.518446	-1.015662	-0.506177
C31	C	1.518392	-0.924353	-0.506150
C32	C	1.518353	-0.851577	-0.506122
C33	C	1.518301	-0.760262	-0.506096
C34	C	1.792342	-0.388390	-0.506111
C35	C	1.909118	-0.388396	-0.506117
C36	C	1.518382	-0.388293	-0.780129
C37	C	1.518413	-0.388258	-0.896906
C38	C	1.518437	-0.178065	-0.506163
C39	C	1.518492	-0.088444	-0.506191
C40	C	1.585650	-0.336687	-0.951790
C41	C	1.585675	-0.336657	-1.061514
C42	C	1.451223	-0.439778	-1.061461
C43	C	1.451194	-0.439803	-0.951739
C44	C	1.652870	-0.285142	-0.896957
C45	C	1.720113	-0.233567	-0.951841
C46	C	1.720138	-0.233538	-1.061565
C47	C	1.652920	-0.285084	-1.116405
C48	C	1.518296	-0.388397	-0.233128
C49	C	1.518468	-0.388204	-0.116352
H50	H	0.919358	-0.585322	-0.761936
H51	H	1.652934	-0.285046	-1.205750
H52	H	1.118354	-0.294694	-0.384435
H53	H	0.819792	-0.491660	-0.640276
H54	H	1.217928	-0.491633	-0.640226
H55	H	0.919285	-0.294726	-0.384446
C56	C	1.377299	-0.496486	-1.121778
C57	C	1.257861	-0.489909	-1.106696
C58	C	1.183940	-0.546623	-1.167010
C59	C	1.229456	-0.609914	-1.242407
C60	C	1.348899	-0.616493	-1.257493
C61	C	1.422821	-0.559780	-1.197179
H62	H	1.224162	-0.443055	-1.050879
H63	H	1.095519	-0.541751	-1.155842
H64	H	1.174735	-0.651897	-1.287056
H65	H	1.382599	-0.663348	-1.313310
H66	H	1.511241	-0.564651	-1.208347
C67	C	1.794048	-0.176867	-0.891523
C68	C	1.794028	-0.176897	-0.770833
C69	C	1.867964	-0.120195	-0.710517
C70	C	1.941921	-0.063464	-0.770891
C71	C	1.941943	-0.063432	-0.891588
C72	C	1.868007	-0.120134	-0.951904
H73	H	1.739279	-0.218895	-0.726134
H74	H	1.867947	-0.120219	-0.621169
H75	H	1.996652	-0.021490	-0.726242
H76	H	1.996692	-0.021434	-0.936287
H77	H	1.868024	-0.120110	-1.041252
H78	H	1.396427	-0.481784	-0.907051
C79	C	1.794099	-0.176805	-1.121938
C80	C	1.913526	-0.183402	-1.106859
C81	C	1.987493	-0.126670	-1.167229
C82	C	1.942032	-0.063340	-1.242679
C83	C	1.822598	-0.056739	-1.257761
C84	C	1.748632	-0.113472	-1.197391
H85	H	1.947185	-0.230285	-1.051004
H86	H	2.075906	-0.131556	-1.156063
H87	H	1.996787	-0.021343	-1.287368
H88	H	1.788940	-0.009856	-1.313616
H89	H	1.660219	-0.108586	-1.208557
C90	C	1.134095	-0.600056	-0.781071
C91	C	1.209483	-0.663312	-0.735389
C92	C	1.269839	-0.720098	-0.809161
C93	C	1.254808	-0.713627	-0.928614
C94	C	1.179416	-0.650368	-0.974302
C95	C	1.119060	-0.593583	-0.900530
H96	H	1.220614	-0.668105	-0.646958
H97	H	1.325649	-0.766926	-0.775339
H98	H	1.299487	-0.755663	-0.983224
H99	H	1.168286	-0.645575	-1.062734
H100	H	1.063251	-0.546754	-0.934352
H101	H	1.652859	-0.285162	-0.807614
