data_functionalizedCrystal
_audit_creation_method	'MofGen! by Chris Wilmer'
_symmetry_space_group_name_H-M	'P1'
_symmetry_Int_Tables_number	1
_symmetry_cell_setting	triclinic
loop_
_symmetry_equiv_pos_as_xyz
  x,y,z
_cell_length_a	12.759401
_cell_length_b	13.032721
_cell_length_c	12.759393
_cell_angle_alpha	97.147972
_cell_angle_beta	89.980163
_cell_angle_gamma	97.205831
loop_
_atom_site_label
_atom_site_type_symbol
_atom_site_fract_x
_atom_site_fract_y
_atom_site_fract_z
Zn1	Zn	1.553102	-0.415933	-0.647097
Zn2	Zn	1.530661	-0.590715	-0.493720
Zn3	Zn	1.377397	-0.415992	-0.471439
Zn4	Zn	1.355067	-0.590639	-0.669348
O5	O	1.454056	-0.503320	-0.570401
O6	O	1.697145	-0.439125	-0.626763
O7	O	1.510283	-0.567594	-0.343751
O8	O	1.419441	-0.269746	-0.476104
O9	O	1.680658	-0.567537	-0.514079
O10	O	1.548531	-0.269703	-0.605158
O11	O	1.397681	-0.439226	-0.327381
O12	O	1.227414	-0.439152	-0.497680
O13	O	1.381383	-0.567407	-0.813410
O14	O	1.211009	-0.567464	-0.643082
O15	O	1.526879	-0.439051	-0.797062
O16	O	1.488631	-0.736943	-0.535655
O17	O	1.359622	-0.736886	-0.664688
C18	C	1.181091	-0.503307	-0.570379
C19	C	1.064312	-0.503326	-0.570397
C20	C	1.419297	-0.774832	-0.605026
C21	C	1.404523	-0.890987	-0.619874
C22	C	1.000922	-0.570240	-0.646015
C23	C	0.891197	-0.570244	-0.646037
C24	C	0.908262	-0.436418	-0.494812
C25	C	1.017985	-0.436409	-0.494796
C26	C	1.461823	-0.942765	-0.562699
C27	C	1.446555	-1.062817	-0.578044
C28	C	1.728088	-0.503333	-0.570424
C29	C	1.844864	-0.503339	-0.570434
C30	C	1.454143	-0.503214	-0.844421
C31	C	1.454180	-0.503169	-0.961192
C32	C	1.488980	-0.230747	-0.535664
C33	C	1.503863	-0.114592	-0.520860
C34	C	1.395574	-0.436315	-1.007528
C35	C	1.395602	-0.436283	-1.117248
C36	C	1.512853	-0.569961	-1.134287
C37	C	1.512817	-0.569998	-1.024569
C38	C	1.454040	-0.503349	-0.297438
C39	C	1.454244	-0.503100	-0.180630
H40	H	1.038637	-0.624726	-0.707577
C41	C	1.577289	-0.643539	-0.973595
H42	H	1.612228	-0.683324	-1.027051
H43	H	1.531251	-0.689081	-0.936591
H44	H	1.628178	-0.603573	-0.925706
H45	H	1.386194	-1.107361	-0.638362
H46	H	1.522188	-0.898219	-0.502392
H47	H	0.839589	-0.624731	-0.707614
C48	C	0.857298	-0.362826	-0.411648
H49	H	0.782871	-0.372422	-0.422479
H50	H	0.884269	-0.292627	-0.418180
H51	H	0.873302	-0.378047	-0.342969
C52	C	1.585415	-1.054433	-0.439381
H53	H	1.619389	-1.102488	-0.405506
H54	H	1.550622	-1.011920	-0.388173
H55	H	1.636560	-1.011787	-0.474207
H56	H	1.069601	-0.381913	-0.433218
H57	H	1.344166	-0.935535	-0.680189
H58	H	1.560594	-0.624370	-1.185901
C59	C	1.331057	-0.362824	-0.937819
H60	H	1.296148	-0.323013	-0.981135
H61	H	1.377056	-0.317303	-0.889215
H62	H	1.280142	-0.402826	-0.900116
H63	H	1.347878	-0.381845	-1.154970
