data_functionalizedCrystal
_audit_creation_method	'MofGen! by Chris Wilmer'
_symmetry_space_group_name_H-M	'P1'
_symmetry_Int_Tables_number	1
_symmetry_cell_setting	triclinic
loop_
_symmetry_equiv_pos_as_xyz
  x,y,z
_cell_length_a	12.645330
_cell_length_b	17.077404
_cell_length_c	17.077396
_cell_angle_alpha	90.023219
_cell_angle_beta	89.975931
_cell_angle_gamma	89.985894
loop_
_atom_site_label
_atom_site_type_symbol
_atom_site_fract_x
_atom_site_fract_y
_atom_site_fract_z
Zn1	Zn	-0.422141	-1.200083	-0.443945
Zn2	Zn	0.077859	-0.700083	0.056055
Zn3	Zn	-0.599426	-1.200002	-0.312689
Zn4	Zn	-0.099426	-0.700002	0.187311
Zn5	Zn	-0.422166	-1.068815	-0.312684
Zn6	Zn	0.077834	-0.568815	0.187316
Zn7	Zn	-0.599352	-1.068795	-0.443904
Zn8	Zn	-0.099352	-0.568795	0.056096
O9	O	-0.510771	-1.134424	-0.378305
O10	O	-0.010771	-0.634424	0.121695
O11	O	-0.445679	-1.309919	-0.426552
O12	O	0.054321	-0.809919	0.073448
O13	O	-0.575954	-1.182574	-0.202841
O14	O	-0.075954	-0.682574	0.297159
O15	O	-0.273816	-1.086270	-0.330111
O16	O	0.226184	-0.586270	0.169889
O17	O	-0.575930	-1.309860	-0.330119
O18	O	-0.075930	-0.809860	0.169881
O19	O	-0.273797	-1.182712	-0.426548
O20	O	0.226203	-0.682712	0.073452
O21	O	-0.445722	-1.086192	-0.202838
O22	O	0.054278	-0.586192	0.297162
O23	O	-0.445650	-0.958965	-0.330072
O24	O	0.054350	-0.458965	0.169928
O25	O	-0.575802	-1.086236	-0.553756
O26	O	-0.075802	-0.586236	-0.053756
O27	O	-0.575827	-0.958950	-0.426478
O28	O	-0.075827	-0.458950	0.073522
O29	O	-0.445606	-1.182693	-0.553786
O30	O	0.054394	-0.682693	-0.053786
O31	O	-0.747764	-1.182555	-0.330080
O32	O	-0.247764	-0.682555	0.169920
O33	O	-0.747709	-1.086157	-0.426483
O34	O	-0.247709	-0.586157	0.073517
C35	C	-0.510734	-0.930476	-0.378270
C36	C	-0.010734	-0.430476	0.121730
C37	C	-0.510743	-0.843226	-0.378274
C38	C	-0.010743	-0.343226	0.121726
C39	C	-0.786201	-1.134366	-0.378294
C40	C	-0.286201	-0.634366	0.121706
C41	C	-0.904031	-1.134414	-0.378316
C42	C	-0.404031	-0.634414	0.121684
C43	C	-0.443072	-0.467440	-0.428606
C44	C	0.056928	0.032560	0.071394
C45	C	-0.443068	-0.549420	-0.428600
C46	C	0.056932	-0.049420	0.071400
C47	C	-0.510770	-0.590377	-0.378308
C48	C	-0.010770	-0.090377	0.121692
C49	C	-0.578488	-0.549349	-0.328025
C50	C	-0.078488	-0.049349	0.171975
C51	C	-0.578497	-0.467370	-0.328035
C52	C	-0.078497	0.032630	0.171965
C53	C	-0.578464	-0.720219	-0.328005
C54	C	-0.078464	-0.220219	0.171995
C55	C	-0.578454	-0.802204	-0.327993
C56	C	-0.078454	-0.302204	0.172007
C57	C	-0.443034	-0.802269	-0.428569
C58	C	0.056966	-0.302269	0.071431
C59	C	-0.443043	-0.720290	-0.428580
C60	C	0.056957	-0.220290	0.071420
C61	C	-0.510760	-0.679268	-0.378295
C62	C	-0.010760	-0.179268	0.121705
C63	C	-1.071605	-1.074020	-0.439150
C64	C	-0.571605	-0.574020	0.060850
C65	C	-0.949045	-1.073711	-0.438955
C66	C	-0.449045	-0.573711	0.061045
C67	C	-0.948622	-1.112022	-0.295588
C68	C	-0.448622	-0.612022	0.204412
C69	C	-1.071220	-1.111653	-0.295957
C70	C	-0.571220	-0.611653	0.204043
C71	C	-1.071128	-1.217568	-0.399539
C72	C	-0.571128	-0.717568	0.100461
C73	C	-0.948521	-1.217059	-0.401348
C74	C	-0.448521	-0.717059	0.098652
C75	C	-0.234266	-1.134502	-0.378334
C76	C	0.265734	-0.634502	0.121666
C77	C	-0.116436	-1.134536	-0.378346
C78	C	0.383564	-0.634536	0.121654
C79	C	-0.510693	-1.134471	-0.583050
C80	C	-0.010693	-0.634471	-0.083050
C81	C	-0.510660	-1.134491	-0.670300
C82	C	-0.010660	-0.634491	-0.170300
C83	C	-0.510799	-0.339168	-0.378333
C84	C	-0.010799	0.160832	0.121667
C85	C	-0.510783	-0.426418	-0.378325
C86	C	-0.010783	0.073582	0.121675
C87	C	-0.442861	-1.184718	-0.711307
C88	C	0.057139	-0.684718	-0.211307
C89	C	-0.442826	-1.184728	-0.793287
C90	C	0.057174	-0.684728	-0.293287
C91	C	-0.510595	-1.134514	-0.834259
C92	C	-0.010595	-0.634514	-0.334259
C93	C	-0.578397	-1.084281	-0.793246
C94	C	-0.078397	-0.584281	-0.293246
C95	C	-0.578426	-1.084268	-0.711267
C96	C	-0.078426	-0.584268	-0.211267
C97	C	-0.578333	-1.084313	-0.964116
C98	C	-0.078333	-0.584313	-0.464116
C99	C	-0.578306	-1.084326	-1.046101
C100	C	-0.078306	-0.584326	-0.546101
C101	C	-0.442733	-1.184772	-1.046136
C102	C	0.057267	-0.684772	-0.546136
C103	C	-0.442762	-1.184759	-0.964157
C104	C	0.057238	-0.684759	-0.464157
C105	C	-0.510565	-1.134528	-0.923150
C106	C	-0.010565	-0.634528	-0.423150
C107	C	-0.510772	-1.134421	-0.174357
C108	C	-0.010772	-0.634421	0.325643
C109	C	-0.510507	-1.134553	-0.087108
C110	C	-0.010507	-0.634553	0.412892
H111	H	-0.387934	-0.434098	-0.469555
H112	H	0.112066	0.065902	0.030445
F113	F	-0.371005	-0.593075	-0.482120
F114	F	0.128995	-0.093075	0.017880
H115	H	-0.387895	-0.835673	-0.469512
H116	H	0.112105	-0.335673	0.030488
H117	H	-0.918893	-1.087720	-0.500297
H118	H	-0.418893	-0.587720	-0.000297
H119	H	-0.633529	-1.043396	-0.930731
H120	H	-0.133529	-0.543396	-0.430731
H121	H	-0.919805	-1.012155	-0.424913
H122	H	-0.419805	-0.512155	0.075087
F123	F	-1.111445	-1.244268	-0.477049
F124	F	-0.611445	-0.744268	0.022951
F125	F	-0.650519	-1.030836	-0.836854
F126	F	-0.150519	-0.530836	-0.336854
H127	H	-1.101019	-1.087901	-0.500694
H128	H	-0.601019	-0.587901	-0.000694
H129	H	-0.919466	-1.154702	-0.249045
H130	H	-0.419466	-0.654702	0.250955
F131	F	-0.370640	-1.238207	-0.920553
F132	F	0.129360	-0.738207	-0.420553
H133	H	-0.387909	-0.686945	-0.469529
H134	H	0.112091	-0.186945	0.030471
F135	F	-0.908456	-1.279098	-0.347683
F136	F	-0.408456	-0.779098	0.152317
F137	F	-1.112005	-0.994066	-0.421045
F138	F	-0.612005	-0.494066	0.078955
F139	F	-1.108718	-1.032318	-0.272491
F140	F	-0.608718	-0.532318	0.227509
F141	F	-0.910424	-1.239133	-0.480928
F142	F	-0.410424	-0.739133	0.019072
F143	F	-0.650534	-0.845792	-0.274484
F144	F	-0.150534	-0.345792	0.225516
F145	F	-0.370736	-1.238168	-0.667708
F146	F	0.129264	-0.738168	-0.167708
F147	F	-1.109991	-1.166758	-0.234717
F148	F	-0.609991	-0.666758	0.265283
F149	F	-0.650548	-0.676563	-0.274494
F150	F	-0.150548	-0.176563	0.225506
H151	H	-0.633617	-0.582703	-0.287079
H152	H	-0.133617	-0.082703	0.212921
F153	F	-0.650571	-0.423712	-0.274524
F154	F	-0.150571	0.076288	0.225476
H155	H	-0.918005	-1.051958	-0.277310
H156	H	-0.418005	-0.551958	0.222690
H157	H	-1.100119	-1.262654	-0.355253
H158	H	-0.600119	-0.762654	0.144747
H159	H	-0.387620	-1.225629	-0.826671
H160	H	0.112380	-0.725629	-0.326671
H161	H	-0.387523	-1.225671	-1.079528
H162	H	0.112477	-0.725671	-0.579528
H163	H	-0.633487	-1.043436	-1.079458
H164	H	-0.133487	-0.543436	-0.579458
H165	H	-0.633624	-1.043360	-0.677880
H166	H	-0.133624	-0.543360	-0.177880
