data_functionalizedCrystal
_audit_creation_method	'MofGen! by Chris Wilmer'
_symmetry_space_group_name_H-M	'P1'
_symmetry_Int_Tables_number	1
_symmetry_cell_setting	triclinic
loop_
_symmetry_equiv_pos_as_xyz
  x,y,z
_cell_length_a	14.971486
_cell_length_b	9.565339
_cell_length_c	14.971494
_cell_angle_alpha	90.005815
_cell_angle_beta	83.615843
_cell_angle_gamma	89.998029
loop_
_atom_site_label
_atom_site_type_symbol
_atom_site_fract_x
_atom_site_fract_y
_atom_site_fract_z
O1	O	1.186946	0.116094	0.116566
O2	O	0.926546	0.116131	0.130525
O3	O	1.063721	0.116108	-0.006654
O4	O	1.049770	0.116117	0.253745
O5	O	1.063714	-0.116412	-0.006666
O6	O	0.926539	-0.116389	0.130513
O7	O	1.186939	-0.116426	0.116554
Zn8	Zn	1.056738	-0.153325	0.123532
Zn9	Zn	1.056747	0.153030	0.123547
O10	O	1.049763	-0.116404	0.253733
C11	C	0.893218	-0.000124	0.129895
C12	C	0.793921	-0.000110	0.128024
N13	N	1.056738	-0.362405	0.123520
C14	C	0.736698	-0.000109	0.208613
C15	C	0.643398	-0.000130	0.206850
C16	C	0.607323	-0.000141	0.124497
C17	C	0.664554	-0.000146	0.043902
C18	C	0.757851	-0.000135	0.045666
C19	C	0.470091	-0.000166	0.040231
C20	C	0.376787	-0.000174	0.038466
C21	C	0.355638	-0.000160	0.201415
C22	C	0.448936	-0.000149	0.203179
C23	C	0.506160	-0.000151	0.122583
C24	C	1.119688	-0.546751	0.059588
C25	C	1.137852	-0.453513	0.140183
C26	C	1.038613	-0.453573	0.042932
C27	C	1.074959	-0.546705	0.204187
C28	C	0.975684	-0.546773	0.106883
C29	C	0.993814	-0.453577	0.187537
C30	C	1.220267	-0.000168	0.117184
C31	C	1.319564	-0.000173	0.119055
C32	C	1.063093	-0.000149	-0.039985
C33	C	1.061219	-0.000143	-0.139281
N34	N	1.056754	0.362109	0.123552
C35	C	1.060345	0.126606	-0.185920
C36	C	1.058578	0.126608	-0.279219
C37	C	1.057693	-0.000140	-0.325879
C38	C	1.058564	-0.126899	-0.279234
C39	C	1.060324	-0.126899	-0.185935
C40	C	1.054899	-0.126889	-0.473697
C41	C	1.053140	-0.126889	-0.567002
C42	C	1.053152	0.126618	-0.566980
C43	C	1.054912	0.126618	-0.473682
C44	C	1.055786	-0.000141	-0.427043
C45	C	1.050392	-0.000143	0.287064
C46	C	1.052266	-0.000140	0.386360
H47	H	0.766062	-0.000099	0.275674
H48	H	0.907153	-0.587768	0.092766
H49	H	1.023277	-0.412662	-0.025234
H50	H	1.052412	-0.230098	-0.604989
H51	H	1.055590	-0.230109	-0.435724
H52	H	0.347418	-0.000185	-0.028593
H53	H	0.516681	-0.000169	-0.025399
H54	H	1.055640	0.229827	-0.435695
H55	H	1.172953	-0.587659	0.005570
H56	H	1.057870	0.229819	-0.317188
H57	H	1.061070	0.229819	-0.147936
H58	H	1.052439	0.229830	-0.604957
H59	H	1.057838	-0.230099	-0.317231
C60	C	1.061289	-0.266332	-0.134634
N61	N	1.062013	-0.371358	-0.095995
H62	H	0.940583	-0.412925	0.241674
C63	C	1.230461	-0.398164	0.159218
N64	N	1.300217	-0.356478	0.173549
H65	H	0.478304	-0.000127	0.270238
H66	H	0.309041	-0.000165	0.267038
C67	C	0.580456	-0.000154	0.295504
N68	N	0.533049	-0.000183	0.362283
H69	H	0.804442	-0.000135	-0.019958
C70	C	1.095793	-0.601735	0.296295
N71	N	1.111489	-0.643188	0.365667
C72	C	0.624868	-0.000161	-0.046688
N73	N	0.594978	-0.000167	-0.114922
