data_functionalizedCrystal
_audit_creation_method	'MofGen! by Chris Wilmer'
_symmetry_space_group_name_H-M	'P1'
_symmetry_Int_Tables_number	1
_symmetry_cell_setting	triclinic
loop_
_symmetry_equiv_pos_as_xyz
  x,y,z
_cell_length_a	10.685661
_cell_length_b	10.686285
_cell_length_c	10.685986
_cell_angle_alpha	98.412590
_cell_angle_beta	90.349487
_cell_angle_gamma	80.943086
loop_
_atom_site_label
_atom_site_type_symbol
_atom_site_fract_x
_atom_site_fract_y
_atom_site_fract_z
Zn1	Zn	1.911865	-0.586462	0.814853
Zn2	Zn	1.946813	-0.817537	0.588836
Zn3	Zn	1.718350	-0.589022	0.588866
Zn4	Zn	1.718374	-0.784865	0.784806
O5	O	1.823851	-0.694472	0.694340
O6	O	2.093090	-0.629717	0.797434
O7	O	1.931123	-0.801969	0.412249
O8	O	1.729385	-0.410016	0.631431
O9	O	2.118766	-0.799487	0.631380
O10	O	1.871559	-0.408136	0.797463
O11	O	1.763272	-0.634080	0.412272
O12	O	1.541765	-0.602399	0.602296
O13	O	1.729425	-0.743801	0.965382
O14	O	1.541782	-0.746284	0.746252
O15	O	1.871582	-0.598036	0.987458
O16	O	1.931146	-0.991869	0.602244
O17	O	1.763313	-0.967865	0.746222
C18	C	1.495986	-0.671075	0.671017
C19	C	1.355724	-0.661093	0.661067
C20	C	1.851056	-1.026193	0.670999
C21	C	1.862807	-1.168110	0.661064
C22	C	2.152995	-0.717961	0.717755
C23	C	2.293257	-0.727971	0.727733
C24	C	1.796608	-0.666989	1.023488
C25	C	1.784999	-0.655277	1.163752
C26	C	1.796571	-0.361455	0.717802
C27	C	1.784946	-0.219543	0.727801
C28	C	1.851052	-0.721761	0.366484
C29	C	1.862876	-0.733130	0.226264
H30	H	1.709297	-1.155007	0.792539
C31	C	1.283743	-0.574697	0.574806
C32	C	1.154274	-0.581683	0.581704
C33	C	1.087930	-0.502136	0.502240
H34	H	1.296546	-0.488841	0.600853
H35	H	1.313749	-0.601873	0.490164
H36	H	1.124277	-0.554501	0.666329
H37	H	1.141433	-0.667520	0.555647
H38	H	1.117936	-0.529311	0.417598
H39	H	1.100743	-0.416285	0.528294
H40	H	1.000080	-0.506874	0.506901
H41	H	1.938453	-1.232655	0.596313
H42	H	1.709450	-0.579665	1.217538
C43	C	1.963435	-0.834103	1.154458
C44	C	1.904874	-0.917097	1.067959
C45	C	1.997464	-1.010136	1.001801
H46	H	2.018671	-0.793588	1.110284
H47	H	2.010722	-0.881453	1.212436
H48	H	1.857609	-0.869753	1.009988
H49	H	1.849647	-0.957643	1.112100
H50	H	2.044751	-1.057486	1.059779
H51	H	2.052694	-0.969610	0.957634
H52	H	1.957744	-1.066465	0.943112
C53	C	1.365153	-0.814296	0.814096
C54	C	1.428228	-0.740691	0.905461
C55	C	1.494492	-0.820172	0.985031
H56	H	1.307296	-0.854944	0.854713
H57	H	1.425197	-0.877484	0.765472
H58	H	1.368191	-0.677525	0.954079
H59	H	1.486106	-0.700044	0.864880
H60	H	1.554536	-0.883361	0.936407
H61	H	1.436626	-0.860816	1.025639
H62	H	1.537306	-0.770245	1.047024
