data_functionalizedCrystal
_audit_creation_method	'MofGen! by Chris Wilmer'
_symmetry_space_group_name_H-M	'P1'
_symmetry_Int_Tables_number	1
_symmetry_cell_setting	triclinic
loop_
_symmetry_equiv_pos_as_xyz
  x,y,z
_cell_length_a	17.077404
_cell_length_b	12.594516
_cell_length_c	17.077396
_cell_angle_alpha	90.023145
_cell_angle_beta	90.019501
_cell_angle_gamma	90.016278
loop_
_atom_site_label
_atom_site_type_symbol
_atom_site_fract_x
_atom_site_fract_y
_atom_site_fract_z
Zn1	Zn	1.200092	-0.423736	0.443872
Zn2	Zn	1.200015	-0.601736	0.312618
Zn3	Zn	1.068824	-0.423773	0.312620
Zn4	Zn	1.068807	-0.601673	0.443842
O5	O	1.134434	-0.512730	0.378238
O6	O	1.309929	-0.447359	0.426473
O7	O	1.182586	-0.578171	0.202771
O8	O	1.086276	-0.274822	0.330044
O9	O	1.309872	-0.578135	0.330041
O10	O	1.182718	-0.274795	0.426474
O11	O	1.086201	-0.447422	0.202773
O12	O	0.958975	-0.447361	0.330015
O13	O	1.086248	-0.578027	0.553693
O14	O	0.958963	-0.578064	0.426423
O15	O	1.182702	-0.447297	0.553715
O16	O	1.182571	-0.750674	0.330012
O17	O	1.086173	-0.750627	0.426421
C18	C	0.930487	-0.512710	0.378216
C19	C	0.843237	-0.512728	0.378226
C20	C	1.134383	-0.789271	0.378230
C21	C	1.134433	-0.907576	0.378253
C22	C	0.802261	-0.580887	0.428345
C23	C	0.720280	-0.580890	0.428357
C24	C	0.679277	-0.512737	0.378246
C25	C	0.720259	-0.444570	0.328125
C26	C	0.802238	-0.444563	0.328117
C27	C	0.549389	-0.444591	0.328144
C28	C	0.467404	-0.444599	0.328150
C29	C	0.467431	-0.580917	0.428384
C30	C	0.549410	-0.580910	0.428376
C31	C	0.590386	-0.512745	0.378253
C32	C	1.081997	-0.976843	0.430653
C33	C	1.062873	-1.047703	0.359026
C34	C	1.153628	-1.047515	0.449893
C35	C	1.115271	-0.976878	0.306587
C36	C	1.206059	-0.976684	0.397503
C37	C	1.186963	-1.047512	0.325826
C38	C	1.339179	-0.512750	0.378260
C39	C	1.426428	-0.512758	0.378269
C40	C	1.134482	-0.512651	0.582982
C41	C	1.134502	-0.512618	0.670232
C42	C	1.134507	-0.235109	0.378263
C43	C	1.134539	-0.116803	0.378273
C44	C	1.134432	-0.512731	0.174290
C45	C	1.134564	-0.512465	0.087041
C46	C	1.184728	-0.444541	0.711235
C47	C	1.184737	-0.444506	0.793216
C48	C	1.134524	-0.512553	0.834192
C49	C	1.084293	-0.580633	0.793183
C50	C	1.084281	-0.580662	0.711204
C51	C	1.084325	-0.580569	0.964053
C52	C	1.084339	-0.580541	1.046038
C53	C	1.184782	-0.444412	1.046065
C54	C	1.184769	-0.444442	0.964086
C55	C	1.134538	-0.512523	0.923083
H56	H	0.835640	-0.636389	0.469149
H57	H	0.434022	-0.389090	0.287355
H58	H	0.686922	-0.636393	0.469169
O59	O	0.589121	-0.647149	0.477125
C60	C	0.535378	-0.707334	0.521354
H61	H	0.476947	-0.663752	0.524136
H62	H	0.559094	-0.718792	0.583183
H63	H	0.526635	-0.788122	0.492508
O64	O	0.427511	-0.647030	0.477053
C65	C	0.346362	-0.632440	0.466307
H66	H	0.335167	-0.550253	0.440704
H67	H	0.315233	-0.639766	0.525100
H68	H	0.323066	-0.695500	0.424428
H69	H	0.582749	-0.389073	0.287335
O70	O	1.035520	-0.646821	0.924343
C71	C	0.991198	-0.706869	0.978086
H72	H	1.023351	-0.710512	1.036534
H73	H	0.982823	-0.790746	0.954396
H74	H	0.931581	-0.667909	0.986786
H75	H	1.225619	-0.389132	0.677878
O76	O	0.680515	-0.378418	0.279339
C77	C	0.700494	-0.401556	0.201071
H78	H	0.760010	-0.442461	0.199386
H79	H	0.703293	-0.324677	0.165969
H80	H	0.654336	-0.456239	0.174569
O81	O	1.095996	-0.940076	0.234250
C82	C	1.151050	-0.976946	0.179073
H83	H	1.208210	-0.997138	0.210176
H84	H	1.162230	-0.912540	0.133540
H85	H	1.127227	-1.050970	0.148887
O86	O	1.035623	-0.646589	1.085965
C87	C	1.046392	-0.631938	1.167113
H88	H	1.106991	-0.597108	1.178322
H89	H	1.041031	-0.711644	1.198268
H90	H	0.999865	-0.575217	1.190368
O91	O	1.173090	-1.084479	0.522136
C92	C	1.248024	-1.046720	0.542836
H93	H	1.282050	-1.025752	0.487542
H94	H	1.280800	-1.110883	0.576620
H95	H	1.241816	-0.972994	0.581085
O96	O	0.842132	-0.378505	0.279390
C97	C	0.889507	-0.439014	0.228600
H98	H	0.901785	-0.519723	0.256184
H99	H	0.947158	-0.395638	0.218131
H100	H	0.857888	-0.450609	0.170415
O101	O	1.035403	-0.646622	0.832948
C102	C	0.957171	-0.623377	0.812891
H103	H	0.953226	-0.538353	0.790366
H104	H	0.918397	-0.632526	0.866795
H105	H	0.936630	-0.680454	0.765294
O106	O	1.028900	-0.939863	0.483353
C107	C	0.953518	-0.976079	0.462779
H108	H	0.952085	-0.995983	0.397669
H109	H	0.908697	-0.911390	0.475824
H110	H	0.938815	-1.050145	0.498208
H111	H	1.225638	-0.389073	0.826597
O112	O	1.233571	-0.378243	0.924401
C113	C	1.277921	-0.318164	0.978168
H114	H	1.245783	-0.314449	1.036602
H115	H	1.286313	-0.234314	0.954488
H116	H	1.337529	-0.357145	0.986892
H117	H	1.002349	-1.078921	0.342760
H118	H	1.231351	-1.078346	0.281470
H119	H	1.043374	-0.636087	0.677820
O120	O	1.278283	-0.939613	0.416993
C121	C	1.328847	-1.025923	0.431345
H122	H	1.292819	-1.098885	0.447554
H123	H	1.370044	-1.005296	0.481644
H124	H	1.364563	-1.043381	0.376444
O125	O	1.233492	-0.378297	1.086012
C126	C	1.222746	-0.392868	1.167155
H127	H	1.162161	-0.427725	1.178335
H128	H	1.228086	-0.313125	1.198314
H129	H	1.269298	-0.449534	1.190431
