data_functionalizedCrystal
_audit_creation_method	'MofGen! by Chris Wilmer'
_symmetry_space_group_name_H-M	'P1'
_symmetry_Int_Tables_number	1
_symmetry_cell_setting	triclinic
loop_
_symmetry_equiv_pos_as_xyz
  x,y,z
_cell_length_a	14.044220
_cell_length_b	11.026607
_cell_length_c	10.065875
_cell_angle_alpha	100.731764
_cell_angle_beta	80.449472
_cell_angle_gamma	100.887447
loop_
_atom_site_label
_atom_site_type_symbol
_atom_site_fract_x
_atom_site_fract_y
_atom_site_fract_z
O1	O	1.319580	0.281448	-0.113335
O2	O	1.041779	0.270687	-0.113370
O3	O	1.157655	0.096922	-0.113350
O4	O	1.203704	0.455212	-0.113354
O5	O	1.135584	0.130202	0.113635
O6	O	1.019708	0.303966	0.113615
O7	O	1.297509	0.314727	0.113650
Zn8	Zn	1.155104	0.314631	0.149672
Zn9	Zn	1.184184	0.270783	-0.149391
O10	O	1.181633	0.488492	0.113631
C11	C	1.138125	0.067431	0.000140
C12	C	1.112801	-0.070025	0.000132
C13	C	0.994626	0.282618	0.000118
C14	C	0.887005	0.268572	0.000105
C15	C	1.182725	-0.136261	0.000139
C16	C	1.156554	-0.278330	0.000130
C17	C	0.689960	0.242901	0.000132
C18	C	0.649322	0.342506	0.000137
C19	C	0.539680	0.328222	0.000152
C20	C	0.799612	0.257183	0.000117
C21	C	1.344662	0.302796	0.000160
C22	C	1.452284	0.316840	0.000164
C23	C	1.201163	0.517982	0.000138
C24	C	1.226488	0.655438	0.000137
N25	N	1.135265	0.344556	0.353774
N26	N	1.204029	0.240849	-0.353493
C27	C	1.177274	0.281186	0.421560
C28	C	1.162014	0.304228	0.578725
H29	H	1.261964	-0.087789	0.000157
O30	O	0.633358	0.128283	-0.000055
C31	C	0.664693	0.046467	-0.117640
H32	H	0.744143	0.081826	-0.156833
H33	H	0.616875	0.042547	-0.199953
C34	C	0.558609	-0.128802	-0.033813
C35	C	0.656194	-0.085379	-0.081944
H36	H	0.553363	-0.210132	-0.011798
H37	H	0.537495	-0.073681	0.045404
H38	H	0.518772	-0.132058	-0.102416
H39	H	0.696027	-0.082108	-0.013336
H40	H	0.677314	-0.140502	-0.161150
O41	O	1.233563	0.196069	0.351819
C42	C	1.176693	0.102271	0.269157
H43	H	1.111670	0.140399	0.247933
H44	H	1.149087	0.018189	0.324094
C45	C	1.319563	0.015057	0.159392
C46	C	1.239705	0.061890	0.133314
H47	H	1.358432	-0.009857	0.075599
H48	H	1.357878	0.078247	0.215085
H49	H	1.296546	-0.055005	0.205175
H50	H	1.262723	0.131960	0.087547
H51	H	1.201396	-0.001290	0.077609
H52	H	0.696875	0.438508	0.000129
H53	H	1.077310	-0.326796	0.000111
H54	H	1.087998	0.415862	0.412092
O55	O	1.018319	-0.128005	-0.000066
C56	C	1.010943	-0.219619	-0.117648
H57	H	1.085432	-0.249111	-0.156833
H58	H	0.985882	-0.179404	-0.199967
C59	C	0.844627	-0.297957	-0.033828
C60	C	0.936114	-0.334187	-0.081949
H61	H	0.798466	-0.368627	-0.011810
H62	H	0.849594	-0.236232	0.045388
H63	H	0.823756	-0.264444	-0.102435
H64	H	0.956989	-0.367685	-0.013335
H65	H	0.931148	-0.395921	-0.161152
O66	O	1.105707	0.389458	0.648130
C67	C	1.145917	0.508423	0.613340
H68	H	1.193132	0.497065	0.509553
H69	H	1.192815	0.563442	0.693726
C70	C	1.004716	0.593344	0.734421
C71	C	1.062700	0.579394	0.606943
H72	H	0.953386	0.637127	0.730480
H73	H	0.977627	0.513197	0.757864
H74	H	1.043809	0.639190	0.801396
H75	H	1.023610	0.533537	0.539974
H76	H	1.089781	0.659536	0.583488
H77	H	1.305743	-0.296114	0.000045
O78	O	1.260150	0.155469	0.576943
C79	C	1.203065	0.061714	0.494526
H80	H	1.138208	0.100077	0.473134
H81	H	1.175208	-0.022139	0.549759
C82	C	1.345611	-0.026367	0.385057
C83	C	1.265956	0.020755	0.358773
H84	H	1.384404	-0.051638	0.301321
H85	H	1.384070	0.036794	0.440586
H86	H	1.322384	-0.096239	0.431088
H87	H	1.289182	0.090634	0.312759
H88	H	1.227502	-0.042396	0.303233
