data_functionalizedCrystal
_audit_creation_method	'MofGen! by Chris Wilmer'
_symmetry_space_group_name_H-M	'P1'
_symmetry_Int_Tables_number	1
_symmetry_cell_setting	triclinic
loop_
_symmetry_equiv_pos_as_xyz
  x,y,z
_cell_length_a	19.121063
_cell_length_b	19.077241
_cell_length_c	19.077569
_cell_angle_alpha	94.521759
_cell_angle_beta	90.211718
_cell_angle_gamma	85.144908
loop_
_atom_site_label
_atom_site_type_symbol
_atom_site_fract_x
_atom_site_fract_y
_atom_site_fract_z
Zn1	Zn	-0.218174	-1.084770	-0.450954
Zn2	Zn	0.281826	-0.584770	0.049046
Zn3	Zn	-0.340545	-1.074915	-0.338083
Zn4	Zn	0.159455	-0.574915	0.161917
Zn5	Zn	-0.228012	-0.961743	-0.328736
Zn6	Zn	0.271988	-0.461743	0.171264
Zn7	Zn	-0.340497	-0.961810	-0.451185
Zn8	Zn	0.159503	-0.461810	0.048815
O9	O	-0.281807	-1.020810	-0.392239
O10	O	0.218193	-0.520810	0.107761
O11	O	-0.230309	-1.182284	-0.439797
O12	O	0.269691	-0.682284	0.060203
O13	O	-0.329755	-1.055751	-0.238361
O14	O	0.170245	-0.555751	0.261639
O15	O	-0.128419	-0.982159	-0.340940
O16	O	0.371581	-0.482159	0.159060
O17	O	-0.320215	-1.175044	-0.356871
O18	O	0.179785	-0.675044	0.143129
O19	O	-0.121191	-1.072546	-0.430733
O20	O	0.378809	-0.572546	0.069267
O21	O	-0.247077	-0.972604	-0.231493
O22	O	0.252923	-0.472604	0.268507
O23	O	-0.247031	-0.862930	-0.341164
O24	O	0.252969	-0.362930	0.158836
O25	O	-0.320133	-0.982273	-0.549637
O26	O	0.179867	-0.482273	-0.049637
O27	O	-0.329673	-0.862980	-0.431127
O28	O	0.170327	-0.362980	0.068873
O29	O	-0.230262	-1.072611	-0.549467
O30	O	0.269738	-0.572611	-0.049467
O31	O	-0.438826	-1.055816	-0.357095
O32	O	0.061174	-0.555816	0.142905
O33	O	-0.438791	-0.972718	-0.440190
O34	O	0.061209	-0.472718	0.059810
C35	C	-0.289415	-0.837332	-0.385156
C36	C	0.210585	-0.337332	0.114844
C37	C	-0.292685	-0.758839	-0.382144
C38	C	0.207315	-0.258839	0.117856
C39	C	-0.247482	-0.725733	-0.423975
C40	C	0.252518	-0.225733	0.076025
C41	C	-0.250552	-0.651980	-0.421138
C42	C	0.249448	-0.151980	0.078862
C43	C	-0.298830	-0.611335	-0.376473
C44	C	0.201170	-0.111335	0.123527
C45	C	-0.344036	-0.644446	-0.334637
C46	C	0.155964	-0.144446	0.165363
C47	C	-0.340961	-0.718197	-0.337471
C48	C	0.159039	-0.218197	0.162529
C49	C	-0.313033	-0.390359	-0.363356
C50	C	0.186967	0.109641	0.136644
C51	C	-0.316105	-0.316603	-0.360527
C52	C	0.183895	0.183397	0.139473
C53	C	-0.222620	-0.324142	-0.447027
C54	C	0.277380	0.175858	0.052973
C55	C	-0.219553	-0.397894	-0.449860
C56	C	0.280447	0.102106	0.050140
C57	C	-0.264756	-0.430999	-0.408022
C58	C	0.235244	0.069001	0.091978
N59	N	-0.301971	-0.535948	-0.373573
N60	N	0.198029	-0.035948	0.126427
N61	N	-0.261611	-0.506384	-0.410918
N62	N	0.238389	-0.006384	0.089082
C63	C	-0.464292	-1.013225	-0.399698
C64	C	0.035708	-0.513225	0.100302
C65	C	-0.542356	-1.010045	-0.402915
C66	C	-0.042356	-0.510045	0.097085
C67	C	-0.579023	-1.051853	-0.361202
C68	C	-0.079023	-0.551853	0.138798
C69	C	-0.652372	-1.048867	-0.364231
C70	C	-0.152372	-0.548867	0.135769
C71	C	-0.689054	-1.004069	-0.408971
C72	C	-0.189054	-0.504069	0.091029
C73	C	-0.652382	-0.962260	-0.450689
C74	C	-0.152382	-0.462260	0.049311
C75	C	-0.579034	-0.965250	-0.447663
C76	C	-0.079034	-0.465250	0.052337
C77	C	-0.910518	-0.992879	-0.420275
C78	C	-0.410518	-0.492879	0.079725
C79	C	-0.983872	-0.989890	-0.423297
C80	C	-0.483872	-0.489890	0.076703
C81	C	-0.983858	-1.076498	-0.336840
C82	C	-0.483858	-0.576498	0.163160
C83	C	-0.910508	-1.079481	-0.333814
C84	C	-0.410508	-0.579481	0.166186
C85	C	-0.873842	-1.037675	-0.375535
C86	C	-0.373842	-0.537675	0.124465
C87	C	-0.764029	-1.001015	-0.412068
C88	C	-0.264029	-0.501015	0.087932
C89	C	-0.798868	-1.040734	-0.372442
C90	C	-0.298868	-0.540734	0.127558
C91	C	-0.098607	-1.028444	-0.384768
C92	C	0.401393	-0.528444	0.115232
C93	C	-0.020539	-1.031698	-0.381584
C94	C	0.479461	-0.531698	0.118416
C95	C	-0.274095	-1.028549	-0.575801
C96	C	0.225905	-0.528549	-0.075801
C97	C	-0.270808	-1.031847	-0.654024
C98	C	0.229192	-0.531847	-0.154024
C99	C	-0.274166	-0.205004	-0.399345
C100	C	0.225834	0.294996	0.100655
C101	C	-0.270901	-0.283497	-0.402358
C102	C	0.229099	0.216503	0.097642
C103	C	-0.316052	-0.986363	-0.690863
C104	C	0.183948	-0.486363	-0.190863
C105	C	-0.312963	-0.989468	-0.764362
C106	C	0.187037	-0.489468	-0.264362
C107	C	-0.264628	-1.038053	-0.801020
C108	C	0.235372	-0.538053	-0.301020
C109	C	-0.219383	-1.083542	-0.764177
C110	C	0.280617	-0.583542	-0.264177
C111	C	-0.222475	-1.080440	-0.690679
C112	C	0.277525	-0.580440	-0.190679
C113	C	-0.250366	-1.052377	-1.020825
C114	C	0.249634	-0.552377	-0.520825
C115	C	-0.247276	-1.055474	-1.094327
C116	C	0.252724	-0.555474	-0.594327
C117	C	-0.340858	-0.961401	-1.094507
C118	C	0.159142	-0.461401	-0.594507
C119	C	-0.343943	-0.958300	-1.021008
C120	C	0.156057	-0.458300	-0.521008
C121	C	-0.298700	-1.003791	-0.984171
C122	C	0.201300	-0.503791	-0.484171
N123	N	-0.261469	-1.041227	-0.876148
N124	N	0.238531	-0.541227	-0.376148
N125	N	-0.301863	-1.000621	-0.909045
N126	N	0.198137	-0.500621	-0.409045
C127	C	-0.289436	-1.013143	-0.209392
C128	C	0.210564	-0.513143	0.290608
C129	C	-0.292519	-1.009990	-0.131166
C130	C	0.207481	-0.509990	0.368834
H131	H	-0.185817	-0.297180	-0.481089
H132	H	0.314183	0.202820	0.018911
H133	H	-0.682253	-0.925788	-0.487121
H134	H	-0.182253	-0.425788	0.012879
C135	C	-0.172709	-1.130470	-0.650153
C136	C	0.327291	-0.630470	-0.150153
H137	H	-0.181477	-1.121669	-0.601132
H138	H	0.318523	-0.621669	-0.101132
H139	H	-0.125438	-1.122613	-0.659871
H140	H	0.374562	-0.622613	-0.159871
H141	H	-0.180521	-1.177999	-0.664450
H142	H	0.319479	-0.677999	-0.164450
H143	H	-0.355422	-0.283511	-0.324155
H144	H	0.144578	0.216489	0.175845
H145	H	-0.377771	-0.745151	-0.303407
H146	H	0.122229	-0.245151	0.196593
H147	H	-0.180030	-1.123104	-0.794030
H148	H	0.319970	-0.623104	-0.294030
C149	C	-0.369234	-0.932932	-0.650546
C150	C	0.130766	-0.432932	-0.150546
H151	H	-0.395745	-0.906298	-0.683016
H152	H	0.104255	-0.406298	-0.183016
H153	H	-0.344864	-0.902066	-0.619583
H154	H	0.155136	-0.402066	-0.119583
H155	H	-0.399921	-0.957479	-0.624175
H156	H	0.100079	-0.457479	-0.124175
H157	H	-1.013735	-0.953420	-0.459742
H158	H	-0.513735	-0.453420	0.040258
H159	H	-0.207909	-1.095036	-1.124172
H160	H	0.292091	-0.595036	-0.624172
C161	C	-0.390627	-0.911372	-1.135030
C162	C	0.109373	-0.411372	-0.635030
H163	H	-0.381869	-0.920181	-1.184053
H164	H	0.118131	-0.420181	-0.684053
H165	H	-0.382826	-0.863843	-1.120736
H166	H	0.117174	-0.363843	-0.620736
H167	H	-0.437898	-0.919241	-1.125309
H168	H	0.062102	-0.419241	-0.625309
H169	H	-0.213743	-0.625029	-0.455202
H170	H	0.286257	-0.125029	0.044798
H171	H	-1.013719	-1.110536	-0.302874
H172	H	-0.513719	-0.610536	0.197126
H173	H	-0.793903	-0.964539	-0.448494
H174	H	-0.293903	-0.464539	0.051506
C175	C	-0.870196	-0.946881	-0.466154
C176	C	-0.370196	-0.446881	0.033846
H177	H	-0.902550	-0.919766	-0.493223
H178	H	-0.402550	-0.419766	0.006777
H179	H	-0.839134	-0.976322	-0.496703
H180	H	-0.339134	-0.476322	0.003297
H181	H	-0.844034	-0.916160	-0.436832
H182	H	-0.344034	-0.416160	0.063168
H183	H	-0.349806	-0.952431	-0.794353
H184	H	0.150194	-0.452431	-0.294353
C185	C	-0.166441	-0.442599	-0.498985
C186	C	0.333559	0.057401	0.001015
H187	H	-0.139953	-0.412319	-0.523487
H188	H	0.360047	0.087681	-0.023487
H189	H	-0.190866	-0.471553	-0.531811
H190	H	0.309134	0.028447	-0.031811
H191	H	-0.135726	-0.471498	-0.471958
H192	H	0.364274	0.028502	0.028042
H193	H	-0.349841	-0.417303	-0.329289
H194	H	0.150159	0.082697	0.170711
C195	C	-0.538680	-1.101132	-0.311988
C196	C	-0.038680	-0.601132	0.188012
H197	H	-0.571025	-1.125608	-0.287585
H198	H	-0.071025	-0.625608	0.212415
H199	H	-0.512511	-1.074017	-0.279081
H200	H	-0.012511	-0.574017	0.220919
H201	H	-0.507622	-1.134186	-0.338945
H202	H	-0.007622	-0.634186	0.161055
H203	H	-0.213527	-1.089419	-0.990841
H204	H	0.286473	-0.589419	-0.490841
H205	H	-0.383313	-0.918748	-0.991167
H206	H	0.116687	-0.418748	-0.491167
C207	C	-0.397141	-0.599739	-0.285507
C208	C	0.102859	-0.099739	0.214493
H209	H	-0.392504	-0.551073	-0.289815
H210	H	0.107496	-0.051073	0.210185
H211	H	-0.388273	-0.610251	-0.238279
H212	H	0.111727	-0.110251	0.261721
H213	H	-0.443416	-0.610304	-0.298129
H214	H	0.056584	-0.110304	0.201871
H215	H	-0.769000	-1.077211	-0.336017
H216	H	-0.269000	-0.577211	0.163983
H217	H	-0.682223	-1.082911	-0.330263
H218	H	-0.182223	-0.582911	0.169737
H219	H	-0.208170	-0.758821	-0.460348
H220	H	0.291830	-0.258821	0.039652
H221	H	-0.549180	-0.931207	-0.481631
H222	H	-0.049180	-0.431207	0.018369
C223	C	-0.870163	-1.128763	-0.284605
C224	C	-0.370163	-0.628763	0.215395
H225	H	-0.902506	-1.153240	-0.260200
H226	H	-0.402506	-0.653240	0.239800
H227	H	-0.843994	-1.101647	-0.251699
H228	H	-0.343994	-0.601647	0.248301
H229	H	-0.839106	-1.161816	-0.311563
H230	H	-0.339106	-0.661816	0.188437
