data_functionalizedCrystal
_audit_creation_method	'MofGen! by Chris Wilmer'
_symmetry_space_group_name_H-M	'P1'
_symmetry_Int_Tables_number	1
_symmetry_cell_setting	triclinic
loop_
_symmetry_equiv_pos_as_xyz
  x,y,z
_cell_length_a	21.295417
_cell_length_b	21.295420
_cell_length_c	19.120904
_cell_angle_alpha	87.578187
_cell_angle_beta	92.408338
_cell_angle_gamma	89.975452
loop_
_atom_site_label
_atom_site_type_symbol
_atom_site_fract_x
_atom_site_fract_y
_atom_site_fract_z
Zn1	Zn	-0.265905	-0.947122	-0.397115
Zn2	Zn	-0.015905	-0.697122	-0.147115
Zn3	Zn	0.234095	-0.447122	0.102885
Zn4	Zn	0.484095	-0.197122	0.352885
Zn5	Zn	-0.366684	-0.951530	-0.279660
Zn6	Zn	-0.116684	-0.701530	-0.029660
Zn7	Zn	0.133316	-0.451530	0.220340
Zn8	Zn	0.383316	-0.201530	0.470340
Zn9	Zn	-0.261422	-0.846350	-0.279679
Zn10	Zn	-0.011422	-0.596350	-0.029679
Zn11	Zn	0.238578	-0.346350	0.220321
Zn12	Zn	0.488578	-0.096350	0.470321
Zn13	Zn	-0.371128	-0.841816	-0.397065
Zn14	Zn	-0.121128	-0.591816	-0.147065
Zn15	Zn	0.128872	-0.341816	0.102935
Zn16	Zn	0.378872	-0.091816	0.352935
O17	O	-0.316285	-0.896704	-0.338380
O18	O	-0.066285	-0.646704	-0.088380
O19	O	0.183715	-0.396704	0.161620
O20	O	0.433715	-0.146704	0.411620
O21	O	-0.279290	-1.035795	-0.381548
O22	O	-0.029290	-0.785795	-0.131548
O23	O	0.220710	-0.535795	0.118452
O24	O	0.470710	-0.285795	0.368452
O25	O	-0.348985	-0.941320	-0.181380
O26	O	-0.098985	-0.691320	0.068620
O27	O	0.151015	-0.441320	0.318620
O28	O	0.401015	-0.191320	0.568620
O29	O	-0.173929	-0.859770	-0.295287
O30	O	0.076071	-0.609770	-0.045287
O31	O	0.326071	-0.359770	0.204713
O32	O	0.576071	-0.109770	0.454713
O33	O	-0.353332	-1.039034	-0.295253
O34	O	-0.103332	-0.789034	-0.045253
O35	O	0.146668	-0.539034	0.204747
O36	O	0.396668	-0.289034	0.454747
O37	O	-0.177222	-0.933807	-0.381566
O38	O	0.072778	-0.683807	-0.131566
O39	O	0.322778	-0.433807	0.118434
O40	O	0.572778	-0.183807	0.368434
O41	O	-0.271649	-0.864044	-0.181395
O42	O	-0.021649	-0.614044	0.068605
O43	O	0.228351	-0.364044	0.318605
O44	O	0.478351	-0.114044	0.568605
O45	O	-0.275958	-0.757660	-0.295238
O46	O	-0.025958	-0.507660	-0.045238
O47	O	0.224042	-0.257660	0.204762
O48	O	0.474042	-0.007660	0.454762
O49	O	-0.360906	-0.852043	-0.495354
O50	O	-0.110906	-0.602043	-0.245354
O51	O	0.139094	-0.352043	0.004646
O52	O	0.389094	-0.102043	0.254646
O53	O	-0.356559	-0.754329	-0.381481
O54	O	-0.106559	-0.504329	-0.131481
O55	O	0.143441	-0.254329	0.118519
O56	O	0.393441	-0.004329	0.368519
O57	O	-0.283599	-0.929411	-0.495391
O58	O	-0.033599	-0.679411	-0.245391
O59	O	0.216401	-0.429411	0.004609
O60	O	0.466401	-0.179411	0.254609
O61	O	-0.455362	-0.936924	-0.295205
O62	O	-0.205362	-0.686924	-0.045205
O63	O	0.044638	-0.436924	0.204795
O64	O	0.294638	-0.186924	0.454795
O65	O	-0.458626	-0.856318	-0.381462
O66	O	-0.208626	-0.606318	-0.131462
O67	O	0.041374	-0.356318	0.118538
O68	O	0.291374	-0.106318	0.368538
C69	C	-0.316255	-0.733154	-0.338356
C70	C	-0.066255	-0.483154	-0.088356
C71	C	0.183745	-0.233154	0.161644
C72	C	0.433745	0.016846	0.411644
C73	C	-0.316258	-0.663185	-0.338363
C74	C	-0.066258	-0.413185	-0.088363
C75	C	0.183742	-0.163185	0.161637
C76	C	0.433742	0.086815	0.411637
C77	C	-0.277806	-0.162037	-0.383380
C78	C	-0.027806	0.087963	-0.133380
C79	C	0.222194	0.337963	0.116620
C80	C	0.472194	0.587963	0.366620
C81	C	-0.277804	-0.227780	-0.383382
C82	C	-0.027804	0.022220	-0.133382
C83	C	0.222196	0.272220	0.116618
C84	C	0.472196	0.522220	0.366618
C85	C	-0.316285	-0.262345	-0.338382
C86	C	-0.066285	-0.012345	-0.088382
C87	C	0.183715	0.237655	0.161618
C88	C	0.433715	0.487655	0.411618
C89	C	-0.354783	-0.231163	-0.293390
C90	C	-0.104783	0.018837	-0.043390
C91	C	0.145217	0.268837	0.206610
C92	C	0.395217	0.518837	0.456610
C93	C	-0.354789	-0.165421	-0.293395
C94	C	-0.104789	0.084579	-0.043395
C95	C	0.145211	0.334579	0.206605
C96	C	0.395211	0.584579	0.456605
N97	N	-0.318681	-0.367894	-0.276887
N98	N	-0.068681	-0.117894	-0.026887
N99	N	0.181319	0.132106	0.223113
N100	N	0.431319	0.382106	0.473113
N101	N	-0.318672	-0.430346	-0.276884
N102	N	-0.068672	-0.180346	-0.026884
N103	N	0.181328	0.069654	0.223116
N104	N	0.431328	0.319654	0.473116
C105	C	-0.316269	-0.460421	-0.338366
C106	C	-0.066269	-0.210421	-0.088366
C107	C	0.183731	0.039579	0.161634
C108	C	0.433731	0.289579	0.411634
N109	N	-0.313864	-0.425685	-0.399851
N110	N	-0.063864	-0.175685	-0.149851
N111	N	0.186136	0.074315	0.100149
N112	N	0.436136	0.324315	0.350149
N113	N	-0.313871	-0.363227	-0.399853
N114	N	-0.063871	-0.113227	-0.149853
N115	N	0.186129	0.136773	0.100147
N116	N	0.436129	0.386773	0.350147
C117	C	-0.316283	-0.333631	-0.338372
C118	C	-0.066283	-0.083631	-0.088372
C119	C	0.183717	0.166369	0.161628
C120	C	0.433717	0.416369	0.411628
C121	C	-0.277774	-0.562881	-0.383360
C122	C	-0.027774	-0.312881	-0.133360
C123	C	0.222226	-0.062881	0.116640
C124	C	0.472226	0.187119	0.366640
C125	C	-0.277776	-0.628624	-0.383362
C126	C	-0.027776	-0.378624	-0.133362
C127	C	0.222224	-0.128624	0.116638
C128	C	0.472224	0.121376	0.366638
C129	C	-0.354751	-0.632006	-0.293364
C130	C	-0.104751	-0.382006	-0.043364
C131	C	0.145249	-0.132006	0.206636
C132	C	0.395249	0.117994	0.456636
C133	C	-0.354753	-0.566264	-0.293368
C134	C	-0.104753	-0.316264	-0.043368
C135	C	0.145247	-0.066264	0.206632
C136	C	0.395247	0.183736	0.456632
C137	C	-0.316261	-0.531705	-0.338365
C138	C	-0.066261	-0.281705	-0.088365
C139	C	0.183739	-0.031705	0.161635
C140	C	0.433739	0.218295	0.411635
C141	C	-0.479835	-0.896623	-0.338341
C142	C	-0.229835	-0.646623	-0.088341
C143	C	0.020165	-0.396623	0.161659
C144	C	0.270165	-0.146623	0.411659
C145	C	-0.549803	-0.896645	-0.338348
C146	C	-0.299803	-0.646645	-0.088348
C147	C	-0.049803	-0.396645	0.161652
C148	C	0.200197	-0.146645	0.411652
C149	C	-0.580951	-0.938651	-0.293480
C150	C	-0.330951	-0.688651	-0.043480
C151	C	-0.080951	-0.438651	0.206520
C152	C	0.169049	-0.188651	0.456520
C153	C	-0.646694	-0.938680	-0.293496
C154	C	-0.396694	-0.688680	-0.043496
C155	C	-0.146694	-0.438680	0.206504
C156	C	0.103306	-0.188680	0.456504
C157	C	-0.681287	-0.896692	-0.338372
C158	C	-0.431287	-0.646692	-0.088372
C159	C	-0.181287	-0.396692	0.161628
C160	C	0.068713	-0.146692	0.411628
C161	C	-0.650132	-0.854684	-0.383249
C162	C	-0.400132	-0.604684	-0.133249
C163	C	-0.150132	-0.354684	0.116751
C164	C	0.099868	-0.104684	0.366751
C165	C	-0.584390	-0.854660	-0.383237
C166	C	-0.334390	-0.604660	-0.133237
C167	C	-0.084390	-0.354660	0.116763
C168	C	0.165610	-0.104660	0.366763
N169	N	-0.784751	-0.841420	-0.343718
N170	N	-0.534751	-0.591420	-0.093718
N171	N	-0.284751	-0.341420	0.156282
N172	N	-0.034751	-0.091420	0.406282
N173	N	-0.847203	-0.841444	-0.343726
N174	N	-0.597203	-0.591444	-0.093726
N175	N	-0.347203	-0.341444	0.156274
N176	N	-0.097203	-0.091444	0.406274
C177	C	-0.879363	-0.896761	-0.338412
C178	C	-0.629363	-0.646761	-0.088412
C179	C	-0.379363	-0.396761	0.161588
C180	C	-0.129363	-0.146761	0.411588
N181	N	-0.846711	-0.952055	-0.333078
N182	N	-0.596711	-0.702055	-0.083078
N183	N	-0.346711	-0.452055	0.166922
N184	N	-0.096711	-0.202055	0.416922
N185	N	-0.784254	-0.952030	-0.333067
N186	N	-0.534254	-0.702030	-0.083067
N187	N	-0.284254	-0.452030	0.166933
N188	N	-0.034254	-0.202030	0.416933
C189	C	-0.752573	-0.896713	-0.338391
C190	C	-0.502573	-0.646713	-0.088391
C191	C	-0.252573	-0.396713	0.161609
C192	C	-0.002573	-0.146713	0.411609
C193	C	-0.981796	-0.938802	-0.293559
C194	C	-0.731796	-0.688802	-0.043559
C195	C	-0.481796	-0.438802	0.206441
C196	C	-0.231796	-0.188802	0.456441
C197	C	-1.047541	-0.938831	-0.293580
C198	C	-0.797541	-0.688831	-0.043580
C199	C	-0.547541	-0.438831	0.206420
C200	C	-0.297541	-0.188831	0.456420
C201	C	-1.050977	-0.854830	-0.383329
C202	C	-0.800977	-0.604830	-0.133329
C203	C	-0.550977	-0.354830	0.116671
C204	C	-0.300977	-0.104830	0.366671
C205	C	-0.985234	-0.854805	-0.383312
C206	C	-0.735234	-0.604805	-0.133312
C207	C	-0.485234	-0.354805	0.116688
C208	C	-0.235234	-0.104805	0.366688
C209	C	-0.950648	-0.896791	-0.338423
C210	C	-0.700648	-0.646791	-0.088423
C211	C	-0.450648	-0.396791	0.161577
C212	C	-0.200648	-0.146791	0.411577
C213	C	-0.152096	-0.896802	-0.338434
C214	C	0.097904	-0.646802	-0.088434
C215	C	0.347904	-0.396802	0.161566
C216	C	0.597904	-0.146802	0.411566
C217	C	-0.082129	-0.896844	-0.338458
C218	C	0.167871	-0.646844	-0.088458
C219	C	0.417871	-0.396844	0.161542
C220	C	0.667871	-0.146844	0.411542
C221	C	-0.323248	-0.889730	-0.521568
C222	C	-0.073248	-0.639730	-0.271568
C223	C	0.176752	-0.389730	-0.021568
C224	C	0.426752	-0.139730	0.228432
C225	C	-0.326216	-0.886757	-0.599632
C226	C	-0.076216	-0.636757	-0.349632
C227	C	0.173784	-0.386757	-0.099632
C228	C	0.423784	-0.136757	0.150368
C229	C	-0.316307	-0.060894	-0.338398
C230	C	-0.066307	0.189106	-0.088398
C231	C	0.183693	0.439106	0.161602
C232	C	0.433693	0.689106	0.411602
C233	C	-0.316297	-0.130862	-0.338392
C234	C	-0.066297	0.119138	-0.088392
C235	C	0.183703	0.369138	0.161608
C236	C	0.433703	0.619138	0.411608
C237	C	-0.287362	-0.925640	-0.636327
C238	C	-0.037362	-0.675640	-0.386327
C239	C	0.212638	-0.425640	-0.136327
C240	C	0.462638	-0.175640	0.113673
C241	C	-0.290148	-0.922839	-0.709677
C242	C	-0.040148	-0.672839	-0.459677
C243	C	0.209852	-0.422839	-0.209677
C244	C	0.459852	-0.172839	0.040323
C245	C	-0.331791	-0.881159	-0.746330
C246	C	-0.081791	-0.631159	-0.496330
C247	C	0.168209	-0.381159	-0.246330
C248	C	0.418209	-0.131159	0.003670
C249	C	-0.370646	-0.842272	-0.709630
C250	C	-0.120646	-0.592272	-0.459630
C251	C	0.129354	-0.342272	-0.209630
C252	C	0.379354	-0.092272	0.040370
C253	C	-0.367856	-0.845070	-0.636282
C254	C	-0.117856	-0.595070	-0.386282
C255	C	0.132144	-0.345070	-0.136282
C256	C	0.382144	-0.095070	0.113718
C257	C	-0.342224	-0.870694	-0.967792
C258	C	-0.092224	-0.620694	-0.717792
C259	C	0.157776	-0.370694	-0.467792
C260	C	0.407776	-0.120694	-0.217792
C261	C	-0.345012	-0.867900	-1.041146
C262	C	-0.095012	-0.617900	-0.791146
C263	C	0.154988	-0.367900	-0.541146
C264	C	0.404988	-0.117900	-0.291146
C265	C	-0.264513	-0.948467	-1.041188
C266	C	-0.014513	-0.698467	-0.791188
C267	C	0.235487	-0.448467	-0.541188
C268	C	0.485487	-0.198467	-0.291188
C269	C	-0.261730	-0.951264	-0.967838
C270	C	-0.011730	-0.701264	-0.717838
C271	C	0.238270	-0.451264	-0.467838
C272	C	0.488270	-0.201264	-0.217838
C273	C	-0.300582	-0.912374	-0.931144
C274	C	-0.050582	-0.662374	-0.681144
C275	C	0.199418	-0.412374	-0.431144
C276	C	0.449418	-0.162374	-0.181144
C277	C	-0.334641	-0.878297	-0.821305
C278	C	-0.084641	-0.628297	-0.571305
C279	C	0.165359	-0.378297	-0.321305
C280	C	0.415359	-0.128297	-0.071305
C281	C	-0.297729	-0.915234	-0.856171
C282	C	-0.047729	-0.665234	-0.606171
C283	C	0.202271	-0.415234	-0.356171
C284	C	0.452271	-0.165234	-0.106171
C285	C	-0.309303	-0.903688	-0.155904
C286	C	-0.059303	-0.653688	0.094096
C287	C	0.190697	-0.403688	0.344096
C288	C	0.440697	-0.153688	0.594096
C289	C	-0.306158	-0.906783	-0.077841
C290	C	-0.056158	-0.656783	0.172159
C291	C	0.193842	-0.406783	0.422159
C292	C	0.443842	-0.156783	0.672159
H293	H	-0.552792	-0.972839	-0.256930
H294	H	-0.302792	-0.722839	-0.006930
H295	H	-0.052792	-0.472839	0.243070
H296	H	0.197208	-0.222839	0.493070
Br297	Br	-0.688975	-0.995692	-0.232599
Br298	Br	-0.438975	-0.745692	0.017401
Br299	Br	-0.188975	-0.495692	0.267401
Br300	Br	0.061025	-0.245692	0.517401
Br301	Br	-0.225537	-0.515976	-0.444426
Br302	Br	0.024463	-0.265976	-0.194426
Br303	Br	0.274463	-0.015976	0.055574
Br304	Br	0.524463	0.234024	0.305574
Br305	Br	-0.407028	-0.123109	-0.232332
Br306	Br	-0.157028	0.126891	0.017668
Br307	Br	0.092972	0.376891	0.267668
Br308	Br	0.342972	0.626891	0.517668
H309	H	-0.678301	-0.820498	-0.419789
H310	H	-0.428301	-0.570498	-0.169789
H311	H	-0.178301	-0.320498	0.080211
H312	H	0.071699	-0.070498	0.330211
H313	H	-0.386093	-0.540881	-0.256730
H314	H	-0.136093	-0.290881	-0.006730
H315	H	0.113907	-0.040881	0.243270
H316	H	0.363907	0.209119	0.493270
H317	H	-0.232880	-0.980127	-1.071072
H318	H	0.017120	-0.730127	-0.821072
H319	H	0.267120	-0.480127	-0.571072
H320	H	0.517120	-0.230127	-0.321072
Br321	Br	-0.225572	-0.115139	-0.444451
Br322	Br	0.024428	0.134861	-0.194451
Br323	Br	0.274428	0.384861	0.055549
Br324	Br	0.524428	0.634861	0.305549
H325	H	-0.386088	-0.660149	-0.256730
H326	H	-0.136088	-0.410149	-0.006730
H327	H	0.113912	-0.160149	0.243270
H328	H	0.363912	0.089851	0.493270
H329	H	-0.373870	-0.839036	-0.937925
H330	H	-0.123870	-0.589036	-0.687925
H331	H	0.126130	-0.339036	-0.437925
H332	H	0.376130	-0.089036	-0.187925
Br333	Br	-0.542115	-0.797649	-0.444135
Br334	Br	-0.292115	-0.547649	-0.194135
Br335	Br	-0.042115	-0.297649	0.055865
Br336	Br	0.207885	-0.047649	0.305865
Br337	Br	-0.934853	-0.995778	-0.232638
Br338	Br	-0.684853	-0.745778	0.017362
Br339	Br	-0.434853	-0.495778	0.267362
Br340	Br	-0.184853	-0.245778	0.517362
H341	H	-0.399489	-0.813401	-0.606405
H342	H	-0.149489	-0.563401	-0.356405
H343	H	0.100511	-0.313401	-0.106405
H344	H	0.350511	-0.063401	0.143595
Br345	Br	-0.230849	-0.982214	-0.586591
Br346	Br	0.019151	-0.732214	-0.336591
Br347	Br	0.269151	-0.482214	-0.086591
Br348	Br	0.519151	-0.232214	0.163409
H349	H	-1.072900	-0.973041	-0.257044
H350	H	-0.822900	-0.723041	-0.007044
H351	H	-0.572900	-0.473041	0.242956
H352	H	-0.322900	-0.223041	0.492956
H353	H	-1.079142	-0.820645	-0.419872
H354	H	-0.829142	-0.570645	-0.169872
H355	H	-0.579142	-0.320645	0.080128
H356	H	-0.329142	-0.070645	0.330128
Br357	Br	-0.225541	-0.670934	-0.444432
Br358	Br	0.024459	-0.420934	-0.194432
Br359	Br	0.274459	-0.170934	0.055568
Br360	Br	0.524459	0.079066	0.305568
Br361	Br	-0.401528	-0.811328	-1.090889
Br362	Br	-0.151528	-0.561328	-0.840889
Br363	Br	0.098472	-0.311328	-0.590889
Br364	Br	0.348472	-0.061328	-0.340889
Br365	Br	-0.407012	-0.278071	-0.232323
Br366	Br	-0.157012	-0.028071	0.017677
Br367	Br	0.092988	0.221929	0.267677
Br368	Br	0.342988	0.471929	0.517677
H369	H	-0.404550	-0.808333	-0.739478
H370	H	-0.154550	-0.558333	-0.489478
H371	H	0.095450	-0.308333	-0.239478
H372	H	0.345450	-0.058333	0.010522
Br373	Br	-0.942959	-0.797793	-0.444207
Br374	Br	-0.692959	-0.547793	-0.194207
Br375	Br	-0.442959	-0.297793	0.055793
Br376	Br	-0.192959	-0.047793	0.305793
H377	H	-0.258511	-0.954503	-0.739551
H378	H	-0.008511	-0.704503	-0.489551
H379	H	0.241489	-0.454503	-0.239551
H380	H	0.491489	-0.204503	0.010449
Br381	Br	-0.205214	-1.007834	-0.918100
Br382	Br	0.044786	-0.757834	-0.668100
Br383	Br	0.294786	-0.507834	-0.418100
Br384	Br	0.544786	-0.257834	-0.168100
H385	H	-0.263821	-0.949167	-0.826325
H386	H	-0.013821	-0.699167	-0.576325
H387	H	0.236179	-0.449167	-0.326325
H388	H	0.486179	-0.199167	-0.076325
H389	H	-0.368549	-0.844364	-0.851156
H390	H	-0.118549	-0.594364	-0.601156
H391	H	0.131451	-0.344364	-0.351156
H392	H	0.381451	-0.094364	-0.101156
H393	H	-0.246457	-0.253167	-0.420016
H394	H	0.003543	-0.003167	-0.170016
H395	H	0.253543	0.246833	0.079984
H396	H	0.503543	0.496833	0.329984
