data_functionalizedCrystal
_audit_creation_method	'MofGen! by Chris Wilmer'
_symmetry_space_group_name_H-M	'P1'
_symmetry_Int_Tables_number	1
_symmetry_cell_setting	triclinic
loop_
_symmetry_equiv_pos_as_xyz
  x,y,z
_cell_length_a	16.109301
_cell_length_b	11.792241
_cell_length_c	14.586319
_cell_angle_alpha	89.996059
_cell_angle_beta	89.999213
_cell_angle_gamma	83.827448
loop_
_atom_site_label
_atom_site_type_symbol
_atom_site_fract_x
_atom_site_fract_y
_atom_site_fract_z
O1	O	1.103817	0.145885	-0.076183
O2	O	0.861841	0.164040	-0.076197
O3	O	0.988701	-0.010259	-0.076183
O4	O	0.976957	0.320185	-0.076197
O5	O	0.988692	-0.010262	0.076298
O6	O	0.861832	0.164038	0.076284
O7	O	1.103808	0.145883	0.076298
Cu8	Cu	0.982819	0.154960	0.090214
Cu9	Cu	0.982830	0.154963	-0.090113
O10	O	0.976948	0.320182	0.076284
C11	C	0.830858	0.163304	0.000041
C12	C	0.738552	0.161099	0.000036
C13	C	0.987959	-0.052545	0.000057
C14	C	0.985751	-0.178539	0.000056
C15	C	0.516743	0.259398	0.000042
C16	C	0.430012	0.257318	0.000048
C17	C	0.448914	0.050517	0.000053
C18	C	0.535642	0.052599	0.000054
C19	C	0.569554	0.157043	0.000044
C20	C	0.396095	0.152880	0.000049
C21	C	0.302059	0.150624	0.000056
C22	C	0.663597	0.159300	0.000039
C23	C	0.981691	-0.409216	0.000040
C24	C	0.983947	-0.280850	0.000049
C25	C	1.134791	0.146619	0.000058
C26	C	1.227097	0.148824	0.000057
C27	C	0.977690	0.362468	0.000042
C28	C	0.979898	0.488462	0.000037
N29	N	0.982818	0.154957	0.217045
N30	N	0.982838	0.154957	-0.216944
C31	C	1.039011	0.077803	0.452058
C32	C	1.039013	0.077800	0.548039
C33	C	0.926639	0.232115	0.548036
C34	C	0.926633	0.232111	0.452057
C35	C	0.982824	0.154957	0.404070
C36	C	0.982832	0.154957	0.596031
C37	C	0.982834	0.154955	0.700098
C38	C	0.982821	0.154957	0.299996
H39	H	0.544351	0.344443	0.000041
O40	O	0.378593	0.356641	0.000081
C41	C	0.294771	0.332414	0.000061
H42	H	0.291045	0.243270	0.028937
H43	H	0.269712	0.336722	-0.073092
C44	C	0.246667	0.530041	0.024385
C45	C	0.242091	0.420556	0.059858
H46	H	0.214170	0.584413	0.061267
H47	H	0.303140	0.546365	0.024395
H48	H	0.225786	0.533614	-0.036575
H49	H	0.262981	0.416980	0.120812
H50	H	0.185620	0.404234	0.059860
O51	O	0.586830	-0.046941	0.000013
C52	C	0.538303	-0.139572	0.000037
H53	H	0.473710	-0.110748	-0.028834
H54	H	0.531984	-0.171590	0.073190
C55	C	0.660421	-0.271846	-0.024297
C56	C	0.581088	-0.236445	-0.059764
H57	H	0.686814	-0.331604	-0.061181
H58	H	0.693116	-0.209439	-0.024310
H59	H	0.655144	-0.298519	0.036663
H60	H	0.586367	-0.209759	-0.120719
H61	H	0.548396	-0.298850	-0.059763
O62	O	0.415832	-0.050835	0.000015
C63	C	0.327958	-0.030727	0.000034
H64	H	0.307991	0.057853	-0.028835
H65	H	0.303791	-0.036225	0.073186
C66	C	0.316109	-0.229789	-0.024307
C67	C	0.291585	-0.120997	-0.059771
H68	H	0.293671	-0.285474	-0.061194
H69	H	0.375311	-0.243338	-0.024317
H70	H	0.295968	-0.234354	0.036653
H71	H	0.311735	-0.116429	-0.120725
H72	H	0.232386	-0.107450	-0.059773
O73	O	1.093560	0.002701	0.594553
C74	C	1.079529	-0.109660	0.571123
H75	H	1.047480	-0.109532	0.501438
H76	H	1.037992	-0.144778	0.625146
C77	C	1.202967	-0.185287	0.652274
C78	C	1.163610	-0.185131	0.566682
H79	H	1.254832	-0.231844	0.649538
H80	H	1.212419	-0.109588	0.668062
H81	H	1.168345	-0.214549	0.697284
H82	H	1.198228	-0.155856	0.521675
H83	H	1.154166	-0.260827	0.550885
H84	H	1.084763	0.014978	0.412989
H85	H	0.880891	0.294934	0.587116
H86	H	0.880875	0.294939	0.412982
