data_functionalizedCrystal
_audit_creation_method	'MofGen! by Chris Wilmer'
_symmetry_space_group_name_H-M	'P1'
_symmetry_Int_Tables_number	1
_symmetry_cell_setting	triclinic
loop_
_symmetry_equiv_pos_as_xyz
  x,y,z
_cell_length_a	19.288864
_cell_length_b	15.538191
_cell_length_c	17.766277
_cell_angle_alpha	89.995273
_cell_angle_beta	89.976791
_cell_angle_gamma	65.204172
loop_
_atom_site_label
_atom_site_type_symbol
_atom_site_fract_x
_atom_site_fract_y
_atom_site_fract_z
O1	O	0.891966	0.117639	-0.062821
O2	O	0.685741	0.133508	-0.062767
O3	O	0.828996	-0.011726	-0.062808
O4	O	0.748710	0.262873	-0.062780
O5	O	0.828980	-0.011734	0.062381
O6	O	0.685724	0.133501	0.062421
O7	O	0.891949	0.117631	0.062368
Cu8	Cu	0.788835	0.125565	0.073825
Cu9	Cu	0.788855	0.125574	-0.074225
O10	O	0.748693	0.262866	0.062409
C11	C	0.659983	0.132994	-0.000166
C12	C	0.583263	0.131461	-0.000147
C13	C	0.517278	0.216678	-0.000150
C14	C	0.445191	0.215238	-0.000158
C15	C	0.439092	0.128576	-0.000179
C16	C	0.505089	0.043348	-0.000171
C17	C	0.577175	0.044790	-0.000155
C18	C	0.347855	0.060453	-0.044070
C19	C	0.275770	0.059014	-0.044091
C20	C	0.216759	0.124123	-0.000225
C21	C	0.229837	0.190688	0.043652
C22	C	0.301922	0.192130	0.043668
C23	C	0.360931	0.127002	-0.000196
C24	C	0.072607	0.207785	-0.000236
C25	C	0.000520	0.206341	-0.000240
C26	C	0.060421	0.034449	-0.000261
C27	C	0.132506	0.035895	-0.000249
C28	C	0.138594	0.122565	-0.000241
C29	C	0.837388	-0.046861	-0.000218
C30	C	0.862409	-0.151541	-0.000232
C31	C	0.613831	-0.438277	-0.000152
C32	C	0.637359	-0.536642	-0.000156
C33	C	0.769703	-0.559647	-0.000191
C34	C	0.746185	-0.461281	-0.000190
C35	C	0.668248	-0.400603	-0.000170
C36	C	0.800603	-0.423608	-0.000208
C37	C	0.777087	-0.325251	-0.000203
C38	C	0.699153	-0.264567	-0.000181
C39	C	0.644732	-0.302246	-0.000165
C40	C	0.878540	-0.484287	-0.000223
C41	C	0.932957	-0.446614	-0.000241
C42	C	0.909441	-0.348255	-0.000242
C43	C	0.831508	-0.287571	-0.000219
C44	C	0.963863	-0.310576	-0.000257
C45	C	0.940346	-0.212219	-0.000253
C46	C	0.807992	-0.189214	-0.000214
C47	C	0.917706	0.118146	-0.000235
C48	C	0.994427	0.119679	-0.000259
C49	C	0.740301	0.298001	-0.000183
C50	C	0.715280	0.402681	-0.000174
N51	N	0.788826	0.125559	0.177956
N52	N	0.788871	0.125573	-0.178355
C53	C	0.852267	0.061280	0.217325
C54	C	0.852272	0.061276	0.296126
C55	C	0.788839	0.125566	0.335556
C56	C	0.725387	0.189850	0.296178
C57	C	0.725381	0.189846	0.217378
C58	C	0.758075	0.211489	0.460404
C59	C	0.758086	0.211494	0.539203
C60	C	0.788854	0.125578	0.578603
C61	C	0.819627	0.039653	0.539193
C62	C	0.819621	0.039649	0.460393
C63	C	0.788838	0.125577	0.421002
C64	C	0.852305	0.061289	0.703417
C65	C	0.852305	0.061283	0.782221
C66	C	0.725422	0.189865	0.782271
C67	C	0.725420	0.189863	0.703469
C68	C	0.788865	0.125576	0.664047
H69	H	0.186234	-0.033498	-0.000251
O70	O	0.641331	-0.037932	-0.000259
C71	C	0.684841	-0.042245	-0.065099
H72	H	0.669646	0.032592	-0.086704
H73	H	0.748200	-0.077604	-0.050514
H74	H	0.671861	-0.085210	-0.110509
O75	O	1.008671	-0.505520	-0.000131
C76	C	1.043184	-0.488466	0.064681
H77	H	0.997998	-0.454699	0.110014
H78	H	1.088667	-0.558366	0.086430
H79	H	1.070796	-0.438544	0.050009
O80	O	1.039597	-0.369389	-0.000242
C81	C	1.082587	-0.315045	-0.000279
H82	H	1.046422	-0.241558	0.023427
H83	H	1.135659	-0.351506	0.036054
H84	H	1.100443	-0.308128	-0.060344
H85	H	0.395899	0.007431	-0.079796
H86	H	0.522228	0.287252	-0.000144
O87	O	0.314510	0.256815	0.086361
C88	C	0.246968	0.313994	0.125062
H89	H	0.208987	0.274485	0.130343
H90	H	0.261976	0.331026	0.183590
H91	H	0.215326	0.382707	0.092550
O92	O	0.732304	-0.130170	-0.000099
C93	C	0.714725	-0.072605	0.064751
H94	H	0.768656	-0.067859	0.086356
H95	H	0.670186	0.001430	0.050178
H96	H	0.691120	-0.104833	0.110156
H97	H	0.181790	0.243706	0.079373
O98	O	0.913941	-0.001289	0.820382
C99	C	0.926178	-0.094606	0.801143
H100	H	0.899349	-0.094402	0.743944
H101	H	0.990142	-0.141218	0.798417
H102	H	0.898938	-0.123657	0.845511
H103	H	0.680008	-0.184479	-0.000173
H104	H	0.984659	-0.181545	-0.000266
H105	H	0.903926	0.008932	0.185230
H106	H	0.550366	-0.388869	-0.000141
O107	O	0.569002	-0.243389	-0.000252
C108	C	0.534505	-0.260404	-0.065092
H109	H	0.570394	-0.335091	-0.086714
H110	H	0.474764	-0.253236	-0.050500
H111	H	0.530461	-0.206646	-0.110492
O112	O	0.584393	-0.573081	-0.000179
C113	C	0.510564	-0.498430	-0.000141
H114	H	0.513206	-0.431689	-0.023841
H115	H	0.471081	-0.518802	-0.036478
H116	H	0.487706	-0.484436	0.059924
H117	H	0.833159	-0.609064	-0.000204
H118	H	0.844681	-0.030309	0.571271
O119	O	0.381159	0.298108	-0.000202
C120	C	0.401991	0.374913	-0.000171
H121	H	0.462172	0.350748	-0.023855
H122	H	0.360240	0.434597	-0.036524
H123	H	0.400407	0.401502	0.059890
H124	H	0.897684	-0.564375	-0.000234
H125	H	0.903935	0.008931	0.328186
H126	H	0.733007	0.281457	0.428332
H127	H	0.265128	0.004817	-0.079821
O128	O	0.078392	0.292055	-0.000187
C129	C	0.004689	0.366964	-0.000202
H130	H	-0.037928	0.340738	0.023487
H131	H	0.004554	0.427485	0.036155
H132	H	-0.012158	0.393241	-0.060259
H133	H	-0.053208	0.275738	-0.000238
O134	O	0.849504	-0.043897	0.422228
C135	C	0.876683	-0.119734	0.473892
H136	H	0.846129	-0.095374	0.530079
H137	H	0.865160	-0.181090	0.451136
H138	H	0.940734	-0.144060	0.482236
O139	O	0.913998	-0.001005	0.665109
C140	C	0.944120	0.049399	0.619529
H141	H	0.926474	0.123778	0.643278
H142	H	1.009079	0.010794	0.618653
H143	H	0.921165	0.054383	0.559800
H144	H	0.673719	0.242190	0.185323
O145	O	0.728136	0.295040	0.577365
C146	C	0.700985	0.370871	0.525695
H147	H	0.688459	0.344850	0.469535
H148	H	0.646431	0.429691	0.548487
H149	H	0.746109	0.399392	0.517283
H150	H	0.673762	0.242208	0.671413
H151	H	0.673772	0.242208	0.814374
O152	O	0.663696	0.252207	0.334444
C153	C	0.598744	0.237124	0.315214
H154	H	0.617444	0.161622	0.293552
H155	H	0.561128	0.248091	0.367057
H156	H	0.565139	0.289461	0.269486
O157	O	0.054468	-0.049713	-0.000415
C158	C	0.014581	-0.055677	-0.065250
H159	H	0.019331	-0.006467	-0.110557
H160	H	0.040264	-0.131703	-0.087023
H161	H	-0.048104	-0.033685	-0.050600
O162	O	0.499266	-0.040894	-0.000294
C163	C	0.535120	-0.092812	-0.065141
H164	H	0.578956	-0.067327	-0.086740
H165	H	0.564975	-0.171386	-0.050567
H166	H	0.490424	-0.081706	-0.110552
