data_functionalizedCrystal
_audit_creation_method	'MofGen! by Chris Wilmer'
_symmetry_space_group_name_H-M	'P1'
_symmetry_Int_Tables_number	1
_symmetry_cell_setting	triclinic
loop_
_symmetry_equiv_pos_as_xyz
  x,y,z
_cell_length_a	21.395364
_cell_length_b	21.395362
_cell_length_c	21.395340
_cell_angle_alpha	89.893120
_cell_angle_beta	89.929705
_cell_angle_gamma	90.028124
loop_
_atom_site_label
_atom_site_type_symbol
_atom_site_fract_x
_atom_site_fract_y
_atom_site_fract_z
Zn1	Zn	0.958145	-0.249005	-0.354257
Zn2	Zn	1.291478	0.084328	-0.020923
Zn3	Zn	1.624812	0.417662	0.312410
Zn4	Zn	0.957966	-0.353923	-0.249475
Zn5	Zn	1.291299	-0.020589	0.083858
Zn6	Zn	1.624632	0.312744	0.417192
Zn7	Zn	0.853277	-0.249160	-0.249493
Zn8	Zn	1.186610	0.084173	0.083841
Zn9	Zn	1.519943	0.417507	0.417174
Zn10	Zn	0.853331	-0.353746	-0.354215
Zn11	Zn	1.186664	-0.020412	-0.020882
Zn12	Zn	1.519997	0.312921	0.312451
O13	O	0.905680	-0.301458	-0.301860
O14	O	1.239013	0.031875	0.031473
O15	O	1.572346	0.365208	0.364807
O16	O	1.045799	-0.262932	-0.340367
O17	O	1.379132	0.070401	-0.007034
O18	O	1.712466	0.403735	0.326300
O19	O	0.943981	-0.340165	-0.161799
O20	O	1.277314	-0.006831	0.171534
O21	O	1.610647	0.326502	0.504867
O22	O	0.867240	-0.161462	-0.263414
O23	O	1.200573	0.171872	0.069919
O24	O	1.533907	0.505205	0.403252
O25	O	1.045667	-0.340014	-0.263384
O26	O	1.379001	-0.006681	0.069949
O27	O	1.712334	0.326652	0.403282
O28	O	0.944286	-0.161348	-0.340384
O29	O	1.277620	0.171986	-0.007051
O30	O	1.610953	0.505319	0.326283
O31	O	0.867066	-0.263196	-0.161812
O32	O	1.200399	0.070137	0.171521
O33	O	1.533733	0.403471	0.504855
O34	O	0.765606	-0.263024	-0.263374
O35	O	1.098939	0.070309	0.069959
O36	O	1.432273	0.403642	0.403292
O37	O	0.867332	-0.339713	-0.441899
O38	O	1.200666	-0.006379	-0.108566
O39	O	1.533999	0.326954	0.224768
O40	O	0.765646	-0.339863	-0.340314
O41	O	1.098979	-0.006530	-0.006980
O42	O	1.432312	0.326804	0.326353
O43	O	0.944339	-0.262760	-0.441929
O44	O	1.277672	0.070573	-0.108596
O45	O	1.611006	0.403906	0.224737
O46	O	0.944033	-0.441577	-0.263344
O47	O	1.277367	-0.108244	0.069989
O48	O	1.610700	0.225089	0.403322
O49	O	0.867159	-0.441447	-0.340297
O50	O	1.200492	-0.108114	-0.006963
O51	O	1.533825	0.225219	0.326370
C52	C	0.742892	-0.301442	-0.301842
C53	C	1.076225	0.031892	0.031492
C54	C	1.409559	0.365225	0.364825
C55	C	0.673251	-0.301450	-0.301849
C56	C	1.006584	0.031884	0.031484
C57	C	1.339917	0.365217	0.364818
C58	C	0.171492	-0.341542	-0.341883
C59	C	0.504825	-0.008208	-0.008550
C60	C	0.838158	0.325125	0.324783
C61	C	0.236927	-0.341542	-0.341877
C62	C	0.570260	-0.008209	-0.008543
C63	C	0.903594	0.325125	0.324790
C64	C	0.269612	-0.301472	-0.301880
C65	C	0.602946	0.031861	0.031454
C66	C	0.936279	0.365195	0.364787
C67	C	0.236857	-0.261410	-0.261875
C68	C	0.570190	0.071923	0.071459
C69	C	0.903524	0.405256	0.404792
C70	C	0.171423	-0.261416	-0.261878
C71	C	0.504756	0.071917	0.071455
C72	C	0.838089	0.405251	0.404789
C73	C	0.373296	-0.245014	-0.297030
C74	C	0.706630	0.088319	0.036303
C75	C	1.039963	0.421653	0.369636
C76	C	0.438729	-0.245008	-0.297032
C77	C	0.772063	0.088326	0.036302
C78	C	1.105396	0.421659	0.369635
C79	C	0.471433	-0.301456	-0.301866
C80	C	0.804766	0.031878	0.031467
C81	C	1.138100	0.365211	0.364801
C82	C	0.438696	-0.357912	-0.306712
C83	C	0.772029	-0.024578	0.026621
C84	C	1.105363	0.308755	0.359954
C85	C	0.373262	-0.357917	-0.306716
C86	C	0.706595	-0.024584	0.026618
C87	C	1.039928	0.308749	0.359951
C88	C	0.340565	-0.301462	-0.301871
C89	C	0.673898	0.031871	0.031462
C90	C	1.007231	0.365205	0.364795
C91	C	0.575133	-0.341518	-0.341858
C92	C	0.908467	-0.008185	-0.008525
C93	C	1.241800	0.325149	0.324809
C94	C	0.640570	-0.341519	-0.341847
C95	C	0.973903	-0.008186	-0.008514
C96	C	1.307237	0.325148	0.324820
C97	C	0.640498	-0.261382	-0.261848
C98	C	0.973832	0.071951	0.071485
C99	C	1.307165	0.405285	0.404818
C100	C	0.575063	-0.261387	-0.261856
C101	C	0.908396	0.071947	0.071477
C102	C	1.241730	0.405280	0.404811
C103	C	0.542384	-0.301454	-0.301864
C104	C	0.875718	0.031880	0.031469
C105	C	1.209051	0.365213	0.364802
C106	C	0.905599	-0.464246	-0.301828
C107	C	1.238933	-0.130913	0.031506
C108	C	1.572266	0.202421	0.364839
C109	C	0.905622	-0.533887	-0.301835
C110	C	1.238956	-0.200554	0.031498
C111	C	1.572289	0.132779	0.364832
C112	C	0.945718	-0.566484	-0.341942
C113	C	1.279051	-0.233151	-0.008608
C114	C	1.612384	0.100182	0.324725
C115	C	0.945740	-0.631920	-0.341957
C116	C	1.279073	-0.298586	-0.008624
C117	C	1.612406	0.034747	0.324710
C118	C	0.905673	-0.664756	-0.301854
C119	C	1.239006	-0.331422	0.031479
C120	C	1.572340	0.001911	0.364812
C121	C	0.865570	-0.632151	-0.261745
C122	C	1.198904	-0.298817	0.071588
C123	C	1.532237	0.034516	0.404922
C124	C	0.865545	-0.566717	-0.261735
C125	C	1.198878	-0.233383	0.071598
C126	C	1.532212	0.099950	0.404931
C127	C	0.900751	-0.768541	-0.245415
C128	C	1.234084	-0.435207	0.087918
C129	C	1.567418	-0.101874	0.421251
C130	C	0.900781	-0.833974	-0.245424
C131	C	1.234114	-0.500640	0.087909
C132	C	1.567448	-0.167307	0.421243
C133	C	0.905748	-0.866576	-0.301885
C134	C	1.239081	-0.533243	0.031449
C135	C	1.572414	-0.199910	0.364782
C136	C	0.910698	-0.833738	-0.358338
C137	C	1.244031	-0.500404	-0.025005
C138	C	1.577364	-0.167071	0.308328
C139	C	0.910672	-0.768304	-0.358329
C140	C	1.244006	-0.434970	-0.024995
C141	C	1.577339	-0.101637	0.308338
C142	C	0.905696	-0.735708	-0.301861
C143	C	1.239029	-0.402375	0.031473
C144	C	1.572362	-0.069041	0.364806
C145	C	0.945869	-0.970126	-0.342011
C146	C	1.279202	-0.636792	-0.008678
C147	C	1.612535	-0.303459	0.324655
C148	C	0.945886	-1.035562	-0.342028
C149	C	1.279220	-0.702229	-0.008694
C150	C	1.612553	-0.368896	0.324639
C151	C	0.865720	-1.035792	-0.261810
C152	C	1.199054	-0.702459	0.071523
C153	C	1.532387	-0.369126	0.404857
C154	C	0.865699	-0.970357	-0.261799
C155	C	1.199033	-0.637024	0.071534
C156	C	1.532366	-0.303690	0.404867
C157	C	0.905777	-0.937528	-0.301899
C158	C	1.239110	-0.604194	0.031434
C159	C	1.572444	-0.270861	0.364768
C160	C	1.069103	-0.301476	-0.301878
C161	C	1.402436	0.031858	0.031455
C162	C	1.735769	0.365191	0.364788
C163	C	1.138744	-0.301483	-0.301886
C164	C	1.472077	0.031850	0.031447
C165	C	1.805411	0.365184	0.364780
C166	C	0.905862	-0.301199	-0.465284
C167	C	1.239195	0.032134	-0.131950
C168	C	1.572528	0.365467	0.201383
C169	C	0.905939	-0.301089	-0.534925
C170	C	1.239273	0.032244	-0.201592
C171	C	1.572606	0.365578	0.131741
C172	C	0.905777	-0.138035	-0.301906
C173	C	1.239110	0.195298	0.031428
C174	C	1.572444	0.528632	0.364761
C175	C	0.905819	-0.068394	-0.301925
C176	C	1.239152	0.264940	0.031408
C177	C	1.572485	0.598273	0.364741
C178	C	0.905534	-0.301671	-0.139072
C179	C	1.238868	0.031662	0.194262
C180	C	1.572201	0.364995	0.527595
C181	C	0.905578	-0.301605	-0.069431
C182	C	1.238911	0.031728	0.263903
C183	C	1.572245	0.365062	0.597236
C184	C	0.865263	-0.261797	-0.036754
C185	C	1.198596	0.071536	0.296580
C186	C	1.531930	0.404869	0.629913
C187	C	0.865309	-0.261730	0.028682
C188	C	1.198642	0.071603	0.362015
C189	C	1.531976	0.404937	0.695348
C190	C	0.905664	-0.301481	0.061437
C191	C	1.238997	0.031852	0.394771
C192	C	1.572331	0.365185	0.728104
C193	C	0.945987	-0.341292	0.028753
C194	C	1.279320	-0.007958	0.362086
C195	C	1.612653	0.325375	0.695419
C196	C	0.945944	-0.341354	-0.036681
C197	C	1.279277	-0.008020	0.296652
C198	C	1.612611	0.325313	0.629985
C199	C	0.911053	-0.357796	0.165253
C200	C	1.244387	-0.024463	0.498586
C201	C	1.577720	0.308870	0.831920
C202	C	0.911092	-0.357736	0.230686
C203	C	1.244425	-0.024402	0.564019
C204	C	1.577758	0.308931	0.897352
C205	C	0.905800	-0.301291	0.263258
C206	C	1.239133	0.032043	0.596591
C207	C	1.572467	0.365376	0.929924
C208	C	0.900456	-0.244904	0.230389
C209	C	1.233790	0.088429	0.563722
C210	C	1.567123	0.421762	0.897055
C211	C	0.900414	-0.244966	0.164955
C212	C	1.233747	0.088367	0.498288
C213	C	1.567080	0.421700	0.831621
C214	C	0.905715	-0.301419	0.132390
C215	C	1.239049	0.031915	0.465723
C216	C	1.572382	0.365248	0.799056
C217	C	0.865533	-0.261406	0.366887
C218	C	1.198866	0.071927	0.700220
C219	C	1.532199	0.405260	1.033554
C220	C	0.865583	-0.261338	0.432323
C221	C	1.198917	0.071995	0.765657
C222	C	1.532250	0.405329	1.098990
C223	C	0.946258	-0.340905	0.432393
C224	C	1.279591	-0.007572	0.765727
C225	C	1.612924	0.325761	1.099060
C226	C	0.946210	-0.340968	0.366958
C227	C	1.279544	-0.007635	0.700291
C228	C	1.612877	0.325698	1.033625
C229	C	0.905845	-0.301220	0.334209
C230	C	1.239178	0.032114	0.667542
C231	C	1.572511	0.365447	1.000876
H232	H	0.263474	-0.228786	-0.229308
H233	H	0.596807	0.104547	0.104025
H234	H	0.930140	0.437880	0.437359
H235	H	0.465322	-0.403877	-0.310654
H236	H	0.798655	-0.070543	0.022680
H237	H	1.131988	0.262790	0.356013
H238	H	0.915365	-0.403764	0.138738
H239	H	1.248698	-0.070431	0.472072
H240	H	1.582032	0.262903	0.805405
Br241	Br	0.281380	-0.395912	-0.396162
Br242	Br	0.614714	-0.062578	-0.062829
Br243	Br	0.948047	0.270755	0.270505
H244	H	0.346610	-0.403886	-0.310660
H245	H	0.679943	-0.070552	0.022673
H246	H	1.013276	0.262781	0.356006
Br247	Br	0.894071	-0.878534	-0.168809
Br248	Br	1.227404	-0.545200	0.164524
Br249	Br	1.560737	-0.211867	0.497857
H250	H	0.978385	-0.658465	-0.374624
H251	H	1.311718	-0.325132	-0.041290
H252	H	1.645051	0.008202	0.292043
Br253	Br	0.892981	-0.168323	0.274585
Br254	Br	1.226314	0.165010	0.607918
Br255	Br	1.559648	0.498344	0.941252
Br256	Br	0.917387	-0.723739	-0.434940
Br257	Br	1.250720	-0.390405	-0.101607
Br258	Br	1.584053	-0.057072	0.231727
Br259	Br	1.000760	-0.395235	0.073205
Br260	Br	1.334093	-0.061902	0.406538
Br261	Br	1.667427	0.271432	0.739872
H262	H	0.978500	-0.943395	-0.374665
H263	H	1.311834	-0.610062	-0.041332
H264	H	1.645167	-0.276728	0.292002
H265	H	0.548525	-0.374144	-0.374434
H266	H	0.881858	-0.040810	-0.041101
H267	H	1.215192	0.292523	0.292232
Br268	Br	1.000661	-0.395383	-0.081032
Br269	Br	1.333995	-0.062049	0.252301
Br270	Br	1.667328	0.271284	0.585635
Br271	Br	0.917444	-0.877975	-0.434969
Br272	Br	1.250777	-0.544642	-0.101635
Br273	Br	1.584111	-0.211309	0.231698
H274	H	0.978536	-1.062102	-0.374690
H275	H	1.311870	-0.728768	-0.041357
H276	H	1.645203	-0.395435	0.291977
H277	H	0.896067	-0.199055	0.138196
H278	H	1.229400	0.134279	0.471529
H279	H	1.562733	0.467612	0.804862
H280	H	0.667110	-0.228759	-0.229280
H281	H	1.000444	0.104575	0.104053
H282	H	1.333777	0.437908	0.437387
Br283	Br	0.894099	-0.724301	-0.168776
Br284	Br	1.227432	-0.390968	0.164558
Br285	Br	1.560765	-0.057635	0.497891
H286	H	0.833093	-1.062527	-0.229162
H287	H	1.166427	-0.729193	0.104172
H288	H	1.499760	-0.395860	0.437505
H289	H	0.979118	-0.373269	0.459062
H290	H	1.312451	-0.039936	0.792396
H291	H	1.645785	0.293398	1.125729
Br292	Br	0.811280	-0.926115	-0.207367
Br293	Br	1.144613	-0.592782	0.125966
Br294	Br	1.477946	-0.259448	0.459299
H295	H	0.667232	-0.374144	-0.374416
H296	H	1.000565	-0.040811	-0.041083
H297	H	1.333899	0.292523	0.292251
Br298	Br	0.530617	-0.207014	-0.207575
Br299	Br	0.863950	0.126319	0.125758
Br300	Br	1.197283	0.459653	0.459092
H301	H	0.832946	-0.658890	-0.229095
H302	H	1.166280	-0.325557	0.104239
H303	H	1.499613	0.007777	0.437572
Br304	Br	1.000105	-0.521933	-0.396366
Br305	Br	1.333438	-0.188599	-0.063032
Br306	Br	1.666772	0.144734	0.270301
H307	H	0.465379	-0.199037	-0.293093
H308	H	0.798712	0.134296	0.040241
H309	H	1.132046	0.467629	0.373574
Br310	Br	0.328920	-0.168400	-0.290459
Br311	Br	0.662253	0.164933	0.042875
Br312	Br	0.995586	0.498267	0.376208
H313	H	0.832669	-0.229036	0.340221
H314	H	1.166002	0.104297	0.673555
H315	H	1.499336	0.437630	1.006888
H316	H	0.832894	-0.540176	-0.229075
H317	H	1.166227	-0.206842	0.104258
H318	H	1.499561	0.126491	0.437592
H319	H	0.144760	-0.228794	-0.229307
H320	H	0.478093	0.104540	0.104026
H321	H	0.811427	0.437873	0.437359
H322	H	0.832480	-0.229311	0.055292
H323	H	1.165814	0.104022	0.388626
H324	H	1.499147	0.437355	0.721959
Br325	Br	0.127145	-0.395921	-0.396177
Br326	Br	0.460478	-0.062587	-0.062844
Br327	Br	0.793811	0.270746	0.270490
H328	H	0.832394	-0.229431	-0.063414
H329	H	1.165728	0.103903	0.269919
H330	H	1.499061	0.437236	0.603253
H331	H	0.832755	-0.228918	0.458928
H332	H	1.166088	0.104415	0.792261
H333	H	1.499422	0.437749	1.125595
Br334	Br	1.000923	-0.395000	0.322607
Br335	Br	1.334256	-0.061667	0.655941
Br336	Br	1.667589	0.271666	0.989274
H337	H	0.915379	-0.403654	0.257443
H338	H	1.248713	-0.070321	0.590776
H339	H	1.582046	0.263012	0.924109
