data_functionalizedCrystal
_audit_creation_method	'MofGen! by Chris Wilmer'
_symmetry_space_group_name_H-M	'P1'
_symmetry_Int_Tables_number	1
_symmetry_cell_setting	triclinic
loop_
_symmetry_equiv_pos_as_xyz
  x,y,z
_cell_length_a	27.271600
_cell_length_b	9.582889
_cell_length_c	9.582860
_cell_angle_alpha	90.099987
_cell_angle_beta	111.206448
_cell_angle_gamma	68.793019
loop_
_atom_site_label
_atom_site_type_symbol
_atom_site_fract_x
_atom_site_fract_y
_atom_site_fract_z
V1	V	-1.039084	0.466308	-0.206406
V2	V	-0.539084	0.966308	0.293594
O3	O	-1.025084	0.457713	0.010588
O4	O	-0.525084	0.957713	0.510588
O5	O	-1.036610	0.462847	-0.409911
O6	O	-0.536610	0.962847	0.090089
O7	O	-1.036611	0.669814	-0.202946
O8	O	-0.536611	1.169814	0.297054
O9	O	-1.025083	0.249314	-0.197810
O10	O	-0.525083	0.749314	0.302190
V11	V	-1.157495	0.440384	-0.180482
V12	V	-0.657495	0.940384	0.319518
O13	O	-1.109813	0.523167	-0.263265
O14	O	-0.609813	1.023167	0.236735
O15	O	-1.199314	0.383523	-0.123620
O16	O	-0.699314	0.883523	0.376380
O17	O	-1.104167	0.443846	0.023022
O18	O	-0.604167	0.943846	0.523022
O19	O	-1.200844	0.448978	-0.397475
O20	O	-0.700844	0.948978	0.102525
O21	O	-1.200845	0.657377	-0.189077
O22	O	-0.700845	1.157377	0.310923
O23	O	-1.104166	0.236879	-0.183943
O24	O	-0.604166	0.736879	0.316057
V25	V	-0.907493	0.440389	-0.180487
V26	V	-0.407493	0.940389	0.319513
O27	O	-0.921493	0.657383	-0.189083
O28	O	-0.421493	1.157383	0.310917
O29	O	-0.909965	0.236883	-0.183946
O30	O	-0.409965	0.736883	0.316054
O31	O	-0.909966	0.443850	0.023019
O32	O	-0.409966	0.943850	0.523019
O33	O	-0.921492	0.448984	-0.397481
O34	O	-0.421492	0.948984	0.102519
V35	V	-0.789081	0.466313	-0.206411
V36	V	-0.289081	0.966313	0.293589
O37	O	-0.836763	0.383530	-0.123628
O38	O	-0.336763	0.883530	0.376372
O39	O	-0.747262	0.523174	-0.263272
O40	O	-0.247262	1.023174	0.236728
O41	O	-0.842410	0.669818	-0.202950
O42	O	-0.342410	1.169818	0.297050
O43	O	-0.745732	0.249320	-0.197816
O44	O	-0.245732	0.749320	0.302184
O45	O	-0.745733	0.457719	0.010582
O46	O	-0.245733	0.957719	0.510582
O47	O	-0.842409	0.462851	-0.409915
O48	O	-0.342409	0.962851	0.090085
C49	C	-0.946684	0.187263	-0.191373
C50	C	-0.446684	0.687263	0.308627
C51	C	-0.928321	0.020898	-0.192849
C52	C	-0.428321	0.520898	0.307151
V53	V	-1.289082	0.466303	-0.206401
V54	V	-0.789082	0.966303	0.293599
O55	O	-1.275083	0.457708	0.010593
O56	O	-0.775083	0.957708	0.510593
O57	O	-1.286609	0.462842	-0.409906
O58	O	-0.786609	0.962842	0.090094
O59	O	-1.286610	0.669809	-0.202941
O60	O	-0.786610	1.169809	0.297059
O61	O	-1.275082	0.249309	-0.197805
O62	O	-0.775082	0.749309	0.302195
V63	V	-1.407494	0.440379	-0.180477
V64	V	-0.907494	0.940379	0.319523
O65	O	-1.359812	0.523162	-0.263260
O66	O	-0.859812	1.023162	0.236740
O67	O	-1.449313	0.383518	-0.123615
O68	O	-0.949313	0.883518	0.376385
O69	O	-1.354166	0.443841	0.023027
O70	O	-0.854166	0.943841	0.523027
O71	O	-1.450843	0.448973	-0.397470
O72	O	-0.950843	0.948973	0.102530
O73	O	-1.450843	0.657372	-0.189072
O74	O	-0.950843	1.157372	0.310928
O75	O	-1.354165	0.236874	-0.183938
O76	O	-0.854165	0.736874	0.316062
V77	V	-0.657493	0.440389	-0.180487
V78	V	-0.157493	0.940389	0.319513
O79	O	-0.671492	0.657382	-0.189082
O80	O	-0.171492	1.157382	0.310918
O81	O	-0.659967	0.236886	-0.183949
O82	O	-0.159967	0.736886	0.316051
O83	O	-0.659968	0.443852	0.023016
O84	O	-0.159968	0.943852	0.523016
O85	O	-0.671491	0.448983	-0.397479
O86	O	-0.171491	0.948983	0.102521
V87	V	-0.539079	0.466303	-0.206401
V88	V	-0.039079	0.966303	0.293599
O89	O	-0.586763	0.383526	-0.123623
O90	O	-0.086763	0.883526	0.376377
O91	O	-0.497257	0.523160	-0.263258
O92	O	0.002743	1.023160	0.236742
O93	O	-0.592406	0.669810	-0.202942
O94	O	-0.092406	1.169810	0.297058
O95	O	-0.495730	0.249308	-0.197804
O96	O	0.004270	0.749308	0.302196
O97	O	-0.495731	0.457708	0.010593
O98	O	0.004269	0.957708	0.510593
O99	O	-0.592406	0.462843	-0.409907
O100	O	-0.092406	0.962843	0.090093
C101	C	-0.999891	0.455421	-0.459531
C102	C	-0.499891	0.955421	0.040469
C103	C	-1.018254	0.453948	-0.625897
C104	C	-0.518254	0.953948	-0.125897
C105	C	-0.889855	0.719428	-0.195526
C106	C	-0.389855	1.219428	0.304474
C107	C	-0.913409	0.885793	-0.194042
C108	C	-0.413409	1.385793	0.305958
C109	C	-1.056723	0.451269	0.072633
C110	C	-0.556723	0.951269	0.572633
C111	C	-1.033169	0.452753	0.238997
C112	C	-0.533169	0.952753	0.738997
C113	C	-0.999892	0.719426	-0.195525
C114	C	-0.499892	1.219426	0.304475
C115	C	-1.018255	0.885791	-0.194043
C116	C	-0.518255	1.385791	0.305957
C117	C	-1.056722	0.187261	-0.191371
C118	C	-0.556722	0.687261	0.308629
C119	C	-1.033168	0.020895	-0.192845
C120	C	-0.533168	0.520895	0.307155
C121	C	-0.946686	0.451273	0.072630
C122	C	-0.446686	0.951273	0.572630
C123	C	-0.928324	0.452759	0.238995
C124	C	-0.428324	0.952759	0.738995
C125	C	-0.889854	0.455426	-0.459534
C126	C	-0.389854	0.955426	0.040466
C127	C	-0.913409	0.453959	-0.625901
C128	C	-0.413409	0.953959	-0.125901
C129	C	-1.249890	0.455416	-0.459526
C130	C	-0.749890	0.955416	0.040474
C131	C	-1.268253	0.453943	-0.625892
C132	C	-0.768253	0.953943	-0.125892
C133	C	-1.249890	0.719421	-0.195520
C134	C	-0.749890	1.219421	0.304480
C135	C	-1.268253	0.885786	-0.194038
C136	C	-0.768253	1.385786	0.305962
C137	C	-1.306721	0.451264	0.072638
C138	C	-0.806721	0.951264	0.572638
C139	C	-1.283168	0.452748	0.239002
C140	C	-0.783168	0.952748	0.739002
C141	C	-1.306720	0.187256	-0.191366
C142	C	-0.806720	0.687256	0.308634
C143	C	-1.283167	0.020890	-0.192840
C144	C	-0.783167	0.520890	0.307160
C145	C	-0.696688	0.187269	-0.191379
C146	C	-0.196688	0.687269	0.308621
C147	C	-0.678325	0.020903	-0.192855
C148	C	-0.178325	0.520903	0.307145
C149	C	-0.696689	0.451278	0.072625
C150	C	-0.196689	0.951278	0.572625
C151	C	-0.678329	0.452765	0.238989
C152	C	-0.178329	0.952765	0.738989
C153	C	-0.639852	0.719424	-0.195522
C154	C	-0.139852	1.219424	0.304478
C155	C	-0.663404	0.885788	-0.194038
C156	C	-0.163404	1.385788	0.305962
C157	C	-0.639851	0.455421	-0.459529
C158	C	-0.139851	0.955421	0.040471
C159	C	-0.663404	0.453955	-0.625897
C160	C	-0.163404	0.953955	-0.125897
