data_functionalizedCrystal
_audit_creation_method	'MofGen! by Chris Wilmer'
_symmetry_space_group_name_H-M	'P1'
_symmetry_Int_Tables_number	1
_symmetry_cell_setting	triclinic
loop_
_symmetry_equiv_pos_as_xyz
  x,y,z
_cell_length_a	14.044220
_cell_length_b	8.559649
_cell_length_c	12.503552
_cell_angle_alpha	86.975164
_cell_angle_beta	93.839891
_cell_angle_gamma	81.483771
loop_
_atom_site_label
_atom_site_type_symbol
_atom_site_fract_x
_atom_site_fract_y
_atom_site_fract_z
O1	O	-1.236026	-0.372907	-0.089199
O2	O	-0.961060	-0.359147	-0.089227
O3	O	-1.122767	-0.136878	-0.089210
O4	O	-1.074318	-0.595176	-0.089217
O5	O	-1.110592	-0.153608	0.089432
O6	O	-0.948885	-0.375877	0.089414
O7	O	-1.223851	-0.389638	0.089442
Cu8	Cu	-1.085256	-0.384285	0.105739
Cu9	Cu	-1.099654	-0.364500	-0.105525
O10	O	-1.062143	-0.611906	0.089425
C11	C	-0.920096	-0.361489	0.000090
C12	C	-0.816179	-0.343524	0.000080
C13	C	-1.120352	-0.086237	0.000109
C14	C	-1.131281	0.089586	0.000104
C15	C	-1.264814	-0.387295	0.000122
C16	C	-1.368732	-0.405259	0.000126
C17	C	-0.625907	-0.310685	0.000101
C18	C	-0.558999	-0.438092	0.000104
C19	C	-0.453125	-0.419819	0.000116
C20	C	-0.731791	-0.328955	0.000089
C21	C	-1.064559	-0.662547	0.000103
C22	C	-1.053630	-0.838370	0.000101
N23	N	-1.075136	-0.398201	0.254331
N24	N	-1.109783	-0.350572	-0.254116
C25	C	-1.124665	-0.330095	0.526769
C26	C	-1.060257	-0.418673	0.473439
C27	C	-1.068538	-0.407279	0.351516
C28	C	-1.116386	-0.341487	0.648703
H29	H	-0.581231	-0.560891	0.000097
C30	C	-1.207563	-0.216105	0.464761
C31	C	-1.215832	-0.204721	0.341075
C32	C	-1.298731	-0.090738	0.279052
C33	C	-1.373363	0.011861	0.340715
C34	C	-1.365098	0.000479	0.464409
C35	C	-1.282198	-0.113504	0.526431
H36	H	-1.160582	-0.280673	0.295421
H37	H	-1.304850	-0.082313	0.187486
H38	H	-1.434731	0.096238	0.294803
H39	H	-1.420347	0.076432	0.510062
H40	H	-1.276080	-0.121928	0.617998
C41	C	-0.977366	-0.532692	0.535452
C42	C	-0.968917	-0.543712	0.659138
C43	C	-0.886033	-0.657732	0.721157
C44	C	-0.811597	-0.760732	0.659490
C45	C	-0.820044	-0.749716	0.535797
C46	C	-0.902928	-0.635696	0.473778
H47	H	-1.024021	-0.467462	0.704793
H48	H	-0.879781	-0.665886	0.812723
H49	H	-0.750241	-0.845137	0.705400
H50	H	-0.764940	-0.825967	0.490142
H51	H	-0.909180	-0.627542	0.382212
H52	H	-0.603676	-0.187896	0.000109
C53	C	-0.952519	0.063255	0.000086
C54	C	-0.875942	0.071619	0.092843
C55	C	-0.774830	-0.026768	0.092828
C56	C	-0.750295	-0.133518	0.000055
C57	C	-0.826874	-0.141886	-0.092709
C58	C	-0.927986	-0.043499	-0.092694
H59	H	-0.894103	0.150646	0.161526
H60	H	-0.718141	-0.020572	0.161499
H61	H	-0.675445	-0.206350	0.000044
H62	H	-0.808713	-0.220913	-0.161392
H63	H	-0.984675	-0.049695	-0.161365
C64	C	-1.232397	0.187968	0.000120
C65	C	-1.256934	0.294718	0.092893
C66	C	-1.358048	0.393099	0.092908
C67	C	-1.434624	0.384732	0.000150
C68	C	-1.410089	0.277978	-0.092630
C69	C	-1.308975	0.179596	-0.092645
H70	H	-1.200246	0.300916	0.161564
H71	H	-1.376210	0.472125	0.161590
H72	H	-1.509475	0.457560	0.000161
H73	H	-1.466777	0.271780	-0.161301
H74	H	-1.290813	0.100570	-0.161327
