data_functionalizedCrystal
_audit_creation_method	'MofGen! by Chris Wilmer'
_symmetry_space_group_name_H-M	'P1'
_symmetry_Int_Tables_number	1
_symmetry_cell_setting	triclinic
loop_
_symmetry_equiv_pos_as_xyz
  x,y,z
_cell_length_a	10.654550
_cell_length_b	9.730223
_cell_length_c	10.654559
_cell_angle_alpha	90.000088
_cell_angle_beta	95.513187
_cell_angle_gamma	90.006378
loop_
_atom_site_label
_atom_site_type_symbol
_atom_site_fract_x
_atom_site_fract_y
_atom_site_fract_z
O1	O	1.667845	0.114403	-0.176390
O2	O	1.302367	0.114381	-0.193196
O3	O	1.493503	0.114383	-0.002054
O4	O	1.476709	0.114400	-0.367531
O5	O	1.493491	-0.114196	-0.002065
O6	O	1.302355	-0.114199	-0.193206
O7	O	1.667833	-0.114177	-0.176400
Zn8	Zn	1.485092	-0.150480	-0.184805
Zn9	Zn	1.485108	0.150684	-0.184791
O10	O	1.476697	-0.114180	-0.367542
C11	C	1.255563	0.000088	-0.191967
C12	C	1.116119	0.000079	-0.188275
N13	N	1.485090	-0.356017	-0.184814
C14	C	1.036638	0.000104	-0.300816
C15	C	0.905617	0.000128	-0.297340
C16	C	0.933572	0.000107	-0.068771
C17	C	1.064591	0.000074	-0.072249
C18	C	1.088166	0.000110	-0.416842
C19	C	1.008683	0.000137	-0.529393
C20	C	0.877662	0.000160	-0.525916
C21	C	0.826124	0.000157	-0.409889
C22	C	1.561922	-0.427947	-0.261688
C23	C	1.561941	-0.571830	-0.261664
C24	C	1.408284	-0.571839	-0.107889
C25	C	1.408273	-0.427959	-0.107907
C26	C	1.638738	-0.356005	-0.338595
C27	C	1.715576	-0.427936	-0.415477
C28	C	1.715595	-0.571819	-0.415453
C29	C	1.638776	-0.643771	-0.338547
C30	C	1.714637	0.000119	-0.177629
C31	C	1.854080	0.000136	-0.181321
C32	C	1.492261	0.000094	0.044738
C33	C	1.488565	0.000096	0.184181
N34	N	1.485120	0.356220	-0.184772
C35	C	1.486819	-0.124502	0.249689
C36	C	1.483356	-0.124499	0.380711
C37	C	1.483381	0.124712	0.380706
C38	C	1.486852	0.124707	0.249687
C39	C	1.488531	-0.249113	0.184183
C40	C	1.486784	-0.373721	0.249690
C41	C	1.483321	-0.373718	0.380713
C42	C	1.481606	-0.249106	0.446228
C43	C	1.477937	0.000108	0.585666
C44	C	1.481631	0.000104	0.446223
H45	H	1.194848	0.000097	-0.419686
O46	O	1.333694	-0.641940	-0.033313
C47	C	1.350124	-0.784358	-0.049832
H48	H	1.386705	-0.803984	-0.145316
H49	H	1.255951	-0.839010	-0.045776
H50	H	1.420998	-0.825242	0.028235
H51	H	1.638809	-0.760930	-0.338523
H52	H	0.719437	0.000155	-0.407068
O53	O	1.333519	-0.358289	-0.033202
C54	C	1.265736	-0.452637	0.034696
H55	H	1.258860	-0.555210	-0.017211
H56	H	1.166913	-0.411077	0.043403
H57	H	1.316620	-0.467913	0.132800
O58	O	1.492064	-0.248943	0.056930
C59	C	1.601825	-0.180632	0.026424
H60	H	1.636042	-0.107876	0.106351
H61	H	1.579729	-0.119375	-0.064214
H62	H	1.678457	-0.259403	0.012465
H63	H	0.891599	0.000127	0.025693
H64	H	1.050654	0.000127	-0.623858
H65	H	1.488274	0.226166	0.196350
O66	O	1.478086	-0.248923	0.573484
C67	C	1.368342	-0.180608	0.603992
H68	H	1.334136	-0.107858	0.524063
H69	H	1.390455	-0.119343	0.694626
H70	H	1.291694	-0.259377	0.617959
H71	H	1.129308	0.000057	0.019392
O72	O	1.488404	-0.494639	0.185855
C73	C	1.491866	-0.467929	0.056169
H74	H	1.452656	-0.360845	0.033421
H75	H	1.432310	-0.547511	-0.001061
H76	H	1.593427	-0.473833	0.031279
O77	O	1.481471	0.245708	0.444381
C78	C	1.370895	0.253121	0.506911
H79	H	1.296056	0.182407	0.458134
H80	H	1.334407	0.363319	0.503955
H81	H	1.392806	0.219631	0.609206
H82	H	0.812950	0.000168	-0.617560
O83	O	1.790009	-0.357987	-0.490319
C84	C	1.714166	-0.274771	-0.575297
H85	H	1.614356	-0.318158	-0.587842
H86	H	1.755117	-0.273148	-0.670280
H87	H	1.711697	-0.165720	-0.536487
H88	H	1.481910	-0.475180	0.434047
H89	H	1.638729	-0.238848	-0.338626
H90	H	1.778168	-0.630381	-0.478044
