data_functionalizedCrystal
_audit_creation_method	'MofGen! by Chris Wilmer'
_symmetry_space_group_name_H-M	'P1'
_symmetry_Int_Tables_number	1
_symmetry_cell_setting	triclinic
loop_
_symmetry_equiv_pos_as_xyz
  x,y,z
_cell_length_a	19.805404
_cell_length_b	19.805407
_cell_length_c	19.805399
_cell_angle_alpha	90.026078
_cell_angle_beta	89.972890
_cell_angle_gamma	89.971791
loop_
_atom_site_label
_atom_site_type_symbol
_atom_site_fract_x
_atom_site_fract_y
_atom_site_fract_z
Zn1	Zn	-0.269504	-1.034721	-0.382839
Zn2	Zn	0.063830	-0.701387	-0.049506
Zn3	Zn	0.397163	-0.368054	0.283827
Zn4	Zn	-0.382692	-1.034629	-0.269652
Zn5	Zn	-0.049359	-0.701296	0.063681
Zn6	Zn	0.283974	-0.367963	0.397015
Zn7	Zn	-0.269520	-0.921535	-0.269651
Zn8	Zn	0.063814	-0.588202	0.063682
Zn9	Zn	0.397147	-0.254869	0.397016
Zn10	Zn	-0.382653	-0.921493	-0.382786
Zn11	Zn	-0.049320	-0.588159	-0.049453
Zn12	Zn	0.284013	-0.254826	0.283881
O13	O	-0.326092	-0.978095	-0.326232
O14	O	0.007241	-0.644761	0.007101
O15	O	0.340574	-0.311428	0.340435
O16	O	-0.284528	-1.129425	-0.367848
O17	O	0.048805	-0.796092	-0.034514
O18	O	0.382139	-0.462759	0.298819
O19	O	-0.367702	-1.019607	-0.174935
O20	O	-0.034369	-0.686273	0.158398
O21	O	0.298964	-0.352940	0.491731
O22	O	-0.174801	-0.936606	-0.284688
O23	O	0.158532	-0.603273	0.048646
O24	O	0.491866	-0.269939	0.381979
O25	O	-0.367687	-1.129358	-0.284689
O26	O	-0.034354	-0.796025	0.048644
O27	O	0.298980	-0.462691	0.381977
O28	O	-0.174789	-1.019763	-0.367847
O29	O	0.158544	-0.686429	-0.034513
O30	O	0.491877	-0.353096	0.298820
O31	O	-0.284555	-0.936517	-0.174935
O32	O	0.048778	-0.603184	0.158399
O33	O	0.382111	-0.269850	0.491732
O34	O	-0.284518	-0.826813	-0.284636
O35	O	0.048816	-0.493480	0.048697
O36	O	0.382149	-0.160146	0.382031
O37	O	-0.367621	-0.936533	-0.477510
O38	O	-0.034288	-0.603200	-0.144176
O39	O	0.299046	-0.269866	0.189157
O40	O	-0.367637	-0.826782	-0.367756
O41	O	-0.034303	-0.493448	-0.034422
O42	O	0.299030	-0.160115	0.298911
O43	O	-0.284490	-1.019721	-0.477549
O44	O	0.048843	-0.686388	-0.144216
O45	O	0.382176	-0.353054	0.189118
O46	O	-0.477404	-1.019565	-0.284637
O47	O	-0.144070	-0.686232	0.048696
O48	O	0.189263	-0.352899	0.382029
O49	O	-0.477375	-0.936444	-0.367756
O50	O	-0.144042	-0.603111	-0.034423
O51	O	0.189291	-0.269778	0.298910
C52	C	-0.326075	-0.802238	-0.326190
C53	C	0.007258	-0.468905	0.007143
C54	C	0.340592	-0.135572	0.340476
C55	C	-0.326084	-0.727006	-0.326188
C56	C	0.007249	-0.393673	0.007145
C57	C	0.340583	-0.060340	0.340478
C58	C	-0.369446	-0.265217	-0.369465
C59	C	-0.036113	0.068116	-0.036131
C60	C	0.297221	0.401450	0.297202
C61	C	-0.369445	-0.335905	-0.369452
C62	C	-0.036112	-0.002572	-0.036119
C63	C	0.297221	0.330761	0.297214
C64	C	-0.326102	-0.371245	-0.326239
C65	C	0.007231	-0.037911	0.007095
C66	C	0.340565	0.295422	0.340428
C67	C	-0.282761	-0.335892	-0.283029
C68	C	0.050572	-0.002559	0.050304
C69	C	0.383906	0.330775	0.383638
C70	C	-0.282765	-0.265205	-0.283038
C71	C	0.050568	0.068128	0.050295
C72	C	0.383902	0.401462	0.383628
C73	C	-0.282743	-0.620965	-0.282991
C74	C	0.050590	-0.287632	0.050342
C75	C	0.383923	0.045701	0.383676
C76	C	-0.282741	-0.691658	-0.282987
C77	C	0.050592	-0.358324	0.050347
C78	C	0.383926	-0.024991	0.383680
C79	C	-0.369424	-0.691666	-0.369405
C80	C	-0.036090	-0.358332	-0.036072
C81	C	0.297243	-0.024999	0.297262
C82	C	-0.369428	-0.620979	-0.369414
C83	C	-0.036095	-0.287645	-0.036081
C84	C	0.297239	0.045688	0.297252
C85	C	-0.326090	-0.585632	-0.326203
C86	C	0.007244	-0.252299	0.007131
C87	C	0.340577	0.081035	0.340464
C88	C	-0.326091	-0.508984	-0.326215
C89	C	0.007242	-0.175650	0.007118
C90	C	0.340575	0.157683	0.340452
C91	C	-0.326096	-0.447892	-0.326229
C92	C	0.007237	-0.114559	0.007104
C93	C	0.340570	0.218775	0.340438
C94	C	-0.501948	-0.978009	-0.326206
C95	C	-0.168615	-0.644675	0.007127
C96	C	0.164718	-0.311342	0.340461
C97	C	-0.577180	-0.978034	-0.326218
C98	C	-0.243847	-0.644700	0.007116
C99	C	0.089486	-0.311367	0.340449
C100	C	-1.038964	-1.021542	-0.283047
C101	C	-0.705630	-0.688209	0.050287
C102	C	-0.372297	-0.354875	0.383620
C103	C	-0.968275	-1.021510	-0.283034
C104	C	-0.634942	-0.688177	0.050300
C105	C	-0.301608	-0.354844	0.383633
C106	C	-0.932942	-0.978183	-0.326268
C107	C	-0.599609	-0.644850	0.007065
C108	C	-0.266275	-0.311517	0.340399
C109	C	-0.968301	-0.934880	-0.369513
C110	C	-0.634968	-0.601547	-0.036180
C111	C	-0.301634	-0.268214	0.297153
C112	C	-1.038988	-0.934909	-0.369523
C113	C	-0.705655	-0.601576	-0.036189
C114	C	-0.372321	-0.268243	0.297144
C115	C	-0.683228	-0.934763	-0.369476
C116	C	-0.349894	-0.601429	-0.036143
C117	C	-0.016561	-0.268096	0.297190
C118	C	-0.612536	-0.934739	-0.369465
C119	C	-0.279202	-0.601405	-0.036132
C120	C	0.054131	-0.268072	0.297202
C121	C	-0.612515	-1.021364	-0.282987
C122	C	-0.279181	-0.688030	0.050346
C123	C	0.054152	-0.354697	0.383680
C124	C	-0.683202	-1.021392	-0.282996
C125	C	-0.349869	-0.688059	0.050337
C126	C	-0.016535	-0.354726	0.383670
C127	C	-0.718555	-0.978087	-0.326239
C128	C	-0.385221	-0.644754	0.007094
C129	C	-0.051888	-0.311421	0.340428
C130	C	-0.795203	-0.978121	-0.326252
C131	C	-0.461870	-0.644788	0.007081
C132	C	-0.128536	-0.311455	0.340415
C133	C	-0.856295	-0.978152	-0.326259
C134	C	-0.522962	-0.644819	0.007074
C135	C	-0.189628	-0.311486	0.340408
C136	C	-0.149550	-0.978199	-0.326273
C137	C	0.183784	-0.644866	0.007060
C138	C	0.517117	-0.311533	0.340394
C139	C	-0.074318	-0.978244	-0.326290
C140	C	0.259016	-0.644910	0.007043
C141	C	0.592349	-0.311577	0.340376
C142	C	-0.326050	-0.978132	-0.502775
C143	C	0.007284	-0.644799	-0.169442
C144	C	0.340617	-0.311466	0.163892
C145	C	-0.326032	-0.978149	-0.578007
C146	C	0.007302	-0.644815	-0.244674
C147	C	0.340635	-0.311482	0.088660
C148	C	-0.326107	-0.154637	-0.326266
C149	C	0.007226	0.178696	0.007067
C150	C	0.340559	0.512029	0.340400
C151	C	-0.326107	-0.229869	-0.326260
C152	C	0.007227	0.103464	0.007074
C153	C	0.340560	0.436797	0.340407
C154	C	-0.282743	-1.021466	-0.613373
C155	C	0.050590	-0.688132	-0.280039
C156	C	0.383923	-0.354799	0.053294
C157	C	-0.282724	-1.021473	-0.684061
C158	C	0.050610	-0.688139	-0.350728
C159	C	0.383943	-0.354806	-0.017394
C160	C	-0.325996	-0.978165	-0.719383
C161	C	0.007337	-0.644832	-0.386049
C162	C	0.340671	-0.311499	-0.052716
C163	C	-0.369286	-0.934844	-0.684012
C164	C	-0.035953	-0.601510	-0.350679
C165	C	0.297380	-0.268177	-0.017345
C166	C	-0.369302	-0.934834	-0.613325
C167	C	-0.035969	-0.601500	-0.279991
C168	C	0.297365	-0.268167	0.053342
C169	C	-0.369223	-0.934882	-0.969085
C170	C	-0.035890	-0.601548	-0.635752
C171	C	0.297443	-0.268215	-0.302419
C172	C	-0.369206	-0.934896	-1.039777
C173	C	-0.035872	-0.601563	-0.706444
C174	C	0.297461	-0.268230	-0.373111
C175	C	-0.282645	-1.021521	-1.039822
C176	C	0.050689	-0.688187	-0.706488
C177	C	0.384022	-0.354854	-0.373155
C178	C	-0.282661	-1.021511	-0.969135
C179	C	0.050673	-0.688178	-0.635801
C180	C	0.384006	-0.354844	-0.302468
C181	C	-0.325948	-0.978187	-0.933770
C182	C	0.007385	-0.644854	-0.600437
C183	C	0.340719	-0.311520	-0.267103
C184	C	-0.325968	-0.978179	-0.857122
C185	C	0.007366	-0.644846	-0.523788
C186	C	0.340699	-0.311512	-0.190455
C187	C	-0.325980	-0.978176	-0.796030
C188	C	0.007353	-0.644843	-0.462696
C189	C	0.340686	-0.311510	-0.129363
C190	C	-0.326086	-0.978096	-0.150376
C191	C	0.007247	-0.644762	0.182957
C192	C	0.340581	-0.311429	0.516291
C193	C	-0.325913	-0.978211	-0.075144
C194	C	0.007420	-0.644877	0.258189
C195	C	0.340753	-0.311544	0.591522
H196	H	-0.404738	-0.236448	-0.404658
H197	H	-0.071404	0.096885	-0.071325
H198	H	0.261929	0.430218	0.262009
H199	H	-0.939529	-0.899599	-0.404713
H200	H	-0.606195	-0.566266	-0.071380
H201	H	-0.272862	-0.232933	0.261953
H202	H	-0.404445	-0.899628	-1.068534
H203	H	-0.071111	-0.566294	-0.735201
H204	H	0.262222	-0.232961	-0.401868
H205	H	-0.583769	-0.899454	-0.404673
H206	H	-0.250435	-0.566121	-0.071340
H207	H	0.082898	-0.232787	0.261994
O208	O	-0.416184	-0.374033	-0.416057
O209	O	-0.082850	-0.040700	-0.082724
O210	O	0.250483	0.292634	0.250609
H211	H	-0.446315	-0.337584	-0.446116
H212	H	-0.112982	-0.004250	-0.112782
H213	H	0.220351	0.329083	0.220551
H214	H	-0.711967	-1.056676	-0.247793
H215	H	-0.378633	-0.723343	0.085540
H216	H	-0.045300	-0.390009	0.418874
O217	O	-0.415898	-0.888158	-0.930930
O218	O	-0.082565	-0.554825	-0.597596
O219	O	0.250768	-0.221492	-0.264263
H220	H	-0.385587	-0.853743	-0.898733
H221	H	-0.052254	-0.520410	-0.565399
H222	H	0.281079	-0.187077	-0.232066
O223	O	-0.415954	-0.888127	-0.722106
O224	O	-0.082621	-0.554793	-0.388772
O225	O	0.250712	-0.221460	-0.055439
H226	H	-0.450393	-0.918401	-0.754308
H227	H	-0.117059	-0.585068	-0.420975
H228	H	0.216274	-0.251735	-0.087642
H229	H	-1.067772	-0.899655	-0.404740
H230	H	-0.734439	-0.566322	-0.071406
H231	H	-0.401106	-0.232988	0.261927
H232	H	-0.583723	-1.056623	-0.247774
H233	H	-0.250390	-0.723290	0.085559
H234	H	0.082944	-0.389956	0.418893
H235	H	-0.712003	-0.899496	-0.404682
H236	H	-0.378670	-0.566163	-0.071349
H237	H	-0.045337	-0.232829	0.261984
O238	O	-0.236071	-1.068176	-0.575276
O239	O	0.097263	-0.734843	-0.241943
O240	O	0.430596	-0.401509	0.091390
H241	H	-0.205962	-1.098293	-0.611747
H242	H	0.127371	-0.764960	-0.278414
H243	H	0.460705	-0.431627	0.054920
O244	O	-0.236039	-1.068197	-0.722208
O245	O	0.097295	-0.734863	-0.388875
O246	O	0.430628	-0.401530	-0.055542
H247	H	-0.205959	-1.098316	-0.685771
H248	H	0.127375	-0.764983	-0.352438
H249	H	0.460708	-0.431650	-0.019105
H250	H	-0.247426	-1.056778	-0.940379
H251	H	0.085907	-0.723445	-0.607046
H252	H	0.419241	-0.390112	-0.273713
O253	O	-0.235934	-1.068233	-1.077963
O254	O	0.097399	-0.734899	-0.744630
O255	O	0.430733	-0.401566	-0.411297
H256	H	-0.243179	-1.060956	-1.133051
H257	H	0.090154	-0.727623	-0.799717
H258	H	0.423487	-0.394290	-0.466384
H259	H	-0.939490	-1.056766	-0.247821
H260	H	-0.606157	-0.723433	0.085512
H261	H	-0.272824	-0.390100	0.418846
O262	O	-0.416254	-0.582860	-0.415945
O263	O	-0.082920	-0.249527	-0.082612
O264	O	0.250413	0.083806	0.250722
H265	H	-0.446424	-0.619316	-0.445954
H266	H	-0.113090	-0.285983	-0.112621
H267	H	0.220243	0.047350	0.220712
H268	H	-0.404714	-0.720453	-0.404588
H269	H	-0.071380	-0.387120	-0.071255
H270	H	0.261953	-0.053787	0.262078
H271	H	-0.247443	-0.720429	-0.247795
H272	H	0.085891	-0.387096	0.085538
H273	H	0.419224	-0.053762	0.418871
H274	H	-0.404545	-0.899554	-0.584531
H275	H	-0.071212	-0.566220	-0.251198
H276	H	0.262122	-0.232887	0.082136
H277	H	-0.247457	-0.592195	-0.247803
H278	H	0.085876	-0.258862	0.085531
H279	H	0.419210	0.074472	0.418864
O280	O	-0.236008	-0.374003	-0.236419
O281	O	0.097325	-0.040670	0.096914
O282	O	0.430658	0.292663	0.430248
H283	H	-0.243280	-0.429095	-0.243676
H284	H	0.090054	-0.095762	0.089658
H285	H	0.423387	0.237571	0.422991
O286	O	-1.077067	-1.068289	-0.236426
O287	O	-0.743733	-0.734955	0.096907
O288	O	-0.410400	-0.401622	0.430241
H289	H	-1.132160	-1.061046	-0.243705
H290	H	-0.798827	-0.727712	0.089629
H291	H	-0.465494	-0.394379	0.422962
H292	H	-0.247472	-0.236426	-0.247858
H293	H	0.085861	0.096907	0.085475
H294	H	0.419195	0.430241	0.418808
