data_functionalizedCrystal
_audit_creation_method	'MofGen! by Chris Wilmer'
_symmetry_space_group_name_H-M	'P1'
_symmetry_Int_Tables_number	1
_symmetry_cell_setting	triclinic
loop_
_symmetry_equiv_pos_as_xyz
  x,y,z
_cell_length_a	10.065875
_cell_length_b	11.026607
_cell_length_c	10.967961
_cell_angle_alpha	96.380989
_cell_angle_beta	93.077398
_cell_angle_gamma	100.697662
loop_
_atom_site_label
_atom_site_type_symbol
_atom_site_fract_x
_atom_site_fract_y
_atom_site_fract_z
O1	O	-0.229756	-1.650233	-0.494395
O2	O	0.270244	-1.150233	0.005605
O3	O	-0.216145	-1.294315	-0.436508
O4	O	0.283855	-0.794315	0.063492
O5	O	-0.181883	-1.474050	-0.290840
O6	O	0.318117	-0.974050	0.209160
O7	O	-0.264019	-1.470498	-0.640063
O8	O	0.235981	-0.970498	-0.140063
O9	O	0.038539	-1.439783	-0.318760
O10	O	0.538539	-0.939783	0.181240
O11	O	0.004277	-1.260048	-0.464428
O12	O	0.504277	-0.760048	0.035572
O13	O	-0.009334	-1.615967	-0.522314
O14	O	0.490666	-1.115967	-0.022314
Zn15	Zn	0.032468	-1.432567	-0.497804
Zn16	Zn	0.532468	-0.932567	0.002196
Zn17	Zn	-0.257948	-1.477715	-0.461019
Zn18	Zn	0.242052	-0.977715	0.038981
O19	O	-0.043597	-1.436232	-0.667982
O20	O	0.456403	-0.936232	-0.167982
C21	C	-0.103423	-1.231489	-0.439789
C22	C	0.396577	-0.731489	0.060211
C23	C	-0.095938	-1.095338	-0.407954
C24	C	0.404062	-0.595338	0.092046
N25	N	0.230668	-1.401764	-0.522910
N26	N	0.730668	-0.901764	-0.022910
C27	C	-0.060996	-1.454069	-0.259396
C28	C	0.439004	-0.954069	0.240604
C29	C	-0.029185	-1.445569	-0.124106
C30	C	0.470815	-0.945569	0.375894
N31	N	-0.456146	-1.508527	-0.435905
N32	N	0.043854	-1.008527	0.064095
C33	C	0.310952	-1.466989	-0.469744
C34	C	0.810952	-0.966989	0.030256
C35	C	0.463572	-1.443292	-0.489078
C36	C	0.963572	-0.943292	0.010922
C37	C	-0.122059	-1.678793	-0.519033
C38	C	0.377941	-1.178793	-0.019033
C39	C	-0.129554	-1.814945	-0.550867
C40	C	0.370446	-1.314945	-0.050867
C41	C	-0.116612	-1.025500	-0.495854
C42	C	0.383388	-0.525500	0.004146
C43	C	-0.108876	-0.884781	-0.462954
C44	C	0.391124	-0.384781	0.037046
C45	C	-0.164486	-1.456213	-0.699426
C46	C	0.335514	-0.956213	-0.199426
C47	C	-0.196306	-1.464714	-0.834715
C48	C	0.303694	-0.964714	-0.334715
C49	C	-0.096309	-1.450752	0.090503
C50	C	0.403691	-0.950752	0.590503
C51	C	-0.129197	-1.459534	-0.049326
C52	C	0.370803	-0.959534	0.450674
H53	H	0.266702	-1.540371	-0.409908
H54	H	0.766702	-1.040371	0.090092
F55	F	0.047419	-1.426614	0.142121
F56	F	0.547419	-0.926614	0.642121
H57	H	0.507820	-1.369897	-0.548907
H58	H	1.007820	-0.869897	-0.048907
H59	H	-0.140033	-1.069887	-0.595467
H60	H	0.359967	-0.569887	-0.095467
H61	H	0.274923	-1.328373	-0.582735
H62	H	0.774923	-0.828373	-0.082735
F63	F	-0.160163	-0.872946	-0.681080
F64	F	0.339837	-0.372946	-0.181080
H65	H	0.499608	-1.581913	-0.376065
H66	H	0.999608	-1.081913	0.123935
F67	F	-0.065306	-1.037325	-0.277752
F68	F	0.434694	-0.537325	0.222248
H69	H	-0.085480	-0.840404	-0.363331
H70	H	0.414520	-0.340404	0.136669
H71	H	-0.239162	-1.477981	-0.088815
H72	H	0.260838	-0.977981	0.411185
F73	F	0.114551	-1.421441	-0.072497
F74	F	0.614551	-0.921441	0.427503
F75	F	-0.340033	-1.488828	0.113668
F76	F	0.159967	-0.988828	0.613668
