data_functionalizedCrystal
_audit_creation_method	'MofGen! by Chris Wilmer'
_symmetry_space_group_name_H-M	'P1'
_symmetry_Int_Tables_number	1
_symmetry_cell_setting	triclinic
loop_
_symmetry_equiv_pos_as_xyz
  x,y,z
_cell_length_a	6.817900
_cell_length_b	14.858572
_cell_length_c	10.992723
_cell_angle_alpha	93.416997
_cell_angle_beta	71.229715
_cell_angle_gamma	75.475997
loop_
_atom_site_label
_atom_site_type_symbol
_atom_site_fract_x
_atom_site_fract_y
_atom_site_fract_z
V1	V	4.065415	-0.289952	-0.178571
V2	V	4.565415	0.210048	0.321429
O3	O	4.024437	-0.284441	0.007749
O4	O	4.524437	0.215559	0.507749
O5	O	4.043362	-0.287961	-0.353276
O6	O	4.543362	0.212039	0.146724
O7	O	4.021693	-0.416414	-0.176189
O8	O	4.521693	0.083586	0.323811
O9	O	4.046255	-0.155099	-0.170564
O10	O	4.546255	0.344901	0.329436
V11	V	4.545022	-0.273823	-0.156242
V12	V	5.045022	0.226177	0.343758
O13	O	4.335262	-0.325331	-0.227552
O14	O	4.835262	0.174669	0.272448
O15	O	4.725373	-0.238444	-0.107261
O16	O	5.225373	0.261556	0.392739
O17	O	4.343869	-0.275815	0.018463
O18	O	4.843869	0.224185	0.518463
O19	O	4.703397	-0.279335	-0.342562
O20	O	5.203397	0.220665	0.157438
O21	O	4.681579	-0.408677	-0.164249
O22	O	5.181579	0.091323	0.335751
O23	O	4.365537	-0.147362	-0.158624
O24	O	4.865537	0.352638	0.341376
C25	C	3.894621	-0.283385	-0.395854
C26	C	4.394621	0.216615	0.104146
C27	C	3.957908	-0.282600	-0.538681
C28	C	4.457908	0.217400	-0.038681
C29	C	4.269142	-0.286734	-0.749633
C30	C	4.769142	0.213266	-0.249633
C31	C	4.203667	-0.287910	-0.601157
C32	C	4.703667	0.212090	-0.101157
C33	C	3.920464	-0.368735	-0.608133
C34	C	4.420464	0.131265	-0.108133
C35	C	3.987748	-0.368026	-0.756804
C36	C	4.487748	0.131974	-0.256804
C37	C	3.886334	-0.190239	-0.718034
C38	C	4.386334	0.309761	-0.218034
C39	C	3.824023	-0.189986	-0.569312
C40	C	4.324023	0.310014	-0.069312
C41	C	3.866979	-0.447238	-0.169961
C42	C	4.366979	0.052762	0.330039
C43	C	3.912690	-0.550621	-0.169169
C44	C	4.412690	-0.050621	0.330831
C45	C	4.155953	-0.280388	0.061034
C46	C	4.655953	0.219612	0.561034
C47	C	4.071905	-0.281179	0.203859
C48	C	4.571905	0.218821	0.703859
C49	C	4.079993	-0.929189	-0.166277
C50	C	4.579993	-0.429189	0.333723
C51	C	4.033436	-0.823860	-0.167082
C52	C	4.533436	-0.323860	0.332918
C53	C	3.996343	-0.739909	-0.167725
C54	C	4.496343	-0.239909	0.332275
C55	C	3.949783	-0.634572	-0.168527
C56	C	4.449783	-0.134572	0.331473
C57	C	4.183594	-0.116533	-0.164857
C58	C	4.683594	0.383467	0.335143
C59	C	4.117121	-0.013149	-0.165641
C60	C	4.617121	0.486851	0.334359
H61	H	3.936935	-0.124205	-0.743307
H62	H	4.436935	0.375795	-0.243307
F63	F	4.342285	-0.374778	-0.577021
F64	F	4.842285	0.125222	-0.077021
H65	H	3.852612	-0.126208	-0.522540
H66	H	4.352612	0.373792	-0.022540
F67	F	4.449216	-0.372485	-0.820637
F68	F	4.949216	0.127515	-0.320637
F69	F	4.157537	-0.457538	-0.824793
F70	F	4.657537	0.042462	-0.324793
H71	H	4.337129	-0.224801	-0.774627
H72	H	4.837129	0.275199	-0.274627
H73	H	3.843383	-0.367787	-0.787835
H74	H	4.343383	0.132213	-0.287835
H75	H	3.642965	-0.180703	-0.525207
H76	H	4.142965	0.319297	-0.025207
H77	H	3.738395	-0.185315	-0.747215
H78	H	4.238395	0.314685	-0.247215
H79	H	4.238945	-0.226344	-0.553835
H80	H	4.738945	0.273656	-0.053835
F81	F	3.689409	-0.367937	-0.555280
F82	F	4.189409	0.132063	-0.055280
F83	F	4.046116	-0.458315	-0.581999
F84	F	4.546116	0.041685	-0.081999
