data_functionalizedCrystal
_audit_creation_method	'MofGen! by Chris Wilmer'
_symmetry_space_group_name_H-M	'P1'
_symmetry_Int_Tables_number	1
_symmetry_cell_setting	triclinic
loop_
_symmetry_equiv_pos_as_xyz
  x,y,z
_cell_length_a	11.169417
_cell_length_b	13.897448
_cell_length_c	11.169417
_cell_angle_alpha	90.010849
_cell_angle_beta	90.000863
_cell_angle_gamma	90.018571
loop_
_atom_site_label
_atom_site_type_symbol
_atom_site_fract_x
_atom_site_fract_y
_atom_site_fract_z
Zn1	Zn	1.834676	-0.384150	0.678515
Zn2	Zn	2.334676	0.115850	1.178515
Zn3	Zn	1.834606	-0.545416	0.477821
Zn4	Zn	2.334606	-0.045416	0.977821
Zn5	Zn	1.634029	-0.384139	0.477850
Zn6	Zn	2.134029	0.115861	0.977850
Zn7	Zn	1.633944	-0.545407	0.678466
Zn8	Zn	2.133944	-0.045407	1.178466
O9	O	1.734314	-0.464778	0.578163
O10	O	2.234314	0.035222	1.078163
O11	O	2.002617	-0.405550	0.651901
O12	O	2.502617	0.094450	1.151901
O13	O	1.808006	-0.524021	0.309875
O14	O	2.308006	-0.024021	0.809875
O15	O	1.660710	-0.249159	0.504501
O16	O	2.160710	0.250841	1.004501
O17	O	2.002565	-0.524032	0.504452
O18	O	2.502565	-0.024032	1.004452
O19	O	1.808125	-0.249167	0.651929
O20	O	2.308125	0.250833	1.151929
O21	O	1.660642	-0.405532	0.309896
O22	O	2.160642	0.094468	0.809896
O23	O	1.466068	-0.405523	0.504453
O24	O	1.966068	0.094477	1.004453
O25	O	1.660565	-0.524016	0.846422
O26	O	2.160565	-0.024016	1.346422
O27	O	1.466006	-0.524006	0.651845
O28	O	1.966006	-0.024006	1.151845
O29	O	1.808043	-0.405541	0.846458
O30	O	2.308043	0.094459	1.346458
O31	O	1.807923	-0.680396	0.504404
O32	O	2.307923	-0.180396	1.004404
O33	O	1.660498	-0.680390	0.651817
O34	O	2.160498	-0.180390	1.151817
C35	C	1.422489	-0.464763	0.578147
C36	C	1.922489	0.035237	1.078147
C37	C	1.289089	-0.464780	0.578169
C38	C	1.789089	0.035220	1.078169
C39	C	1.734226	-0.715392	0.578128
C40	C	2.234226	-0.215392	1.078128
C41	C	1.734299	-0.822606	0.578153
C42	C	2.234299	-0.322606	1.078153
C43	C	1.734425	-1.018901	0.578229
C44	C	2.234425	-0.518901	1.078229
C45	C	1.734351	-0.909669	0.578190
C46	C	2.234351	-0.409669	1.078190
C47	C	2.047356	-0.464793	0.578179
C48	C	2.547356	0.035207	1.078179
C49	C	2.180756	-0.464800	0.578186
C50	C	2.680756	0.035200	1.078186
C51	C	1.734302	-0.464779	0.891205
C52	C	2.234302	0.035221	1.391205
C53	C	1.734297	-0.464780	1.024605
C54	C	2.234297	0.035220	1.524605
C55	C	1.734434	-0.213185	0.578224
C56	C	2.234434	0.286815	1.078224
C57	C	1.734486	-0.105971	0.578250
C58	C	2.234486	0.394029	1.078250
C59	C	1.734311	-0.464794	1.266338
C60	C	2.234311	0.035206	1.766338
C61	C	1.734301	-0.464781	1.132938
C62	C	2.234301	0.035219	1.632938
