data_functionalizedCrystal
_audit_creation_method	'MofGen! by Chris Wilmer'
_symmetry_space_group_name_H-M	'P1'
_symmetry_Int_Tables_number	1
_symmetry_cell_setting	triclinic
loop_
_symmetry_equiv_pos_as_xyz
  x,y,z
_cell_length_a	12.645330
_cell_length_b	16.625548
_cell_length_c	16.625539
_cell_angle_alpha	90.020568
_cell_angle_beta	90.025033
_cell_angle_gamma	90.013453
loop_
_atom_site_label
_atom_site_type_symbol
_atom_site_fract_x
_atom_site_fract_y
_atom_site_fract_z
Zn1	Zn	-0.422007	1.232737	0.455928
Zn2	Zn	-0.088674	1.566070	0.789261
Zn3	Zn	0.244659	1.899404	1.122594
Zn4	Zn	-0.599293	1.232664	0.321103
Zn5	Zn	-0.265960	1.565997	0.654436
Zn6	Zn	0.067373	1.899331	0.987769
Zn7	Zn	-0.422048	1.097899	0.321108
Zn8	Zn	-0.088714	1.431232	0.654442
Zn9	Zn	0.244619	1.764565	0.987775
Zn10	Zn	-0.599232	1.097893	0.455892
Zn11	Zn	-0.265899	1.431226	0.789226
Zn12	Zn	0.067434	1.764560	1.122559
O13	O	-0.510645	1.165298	0.388508
O14	O	-0.177312	1.498631	0.721841
O15	O	0.156022	1.831965	1.055174
O16	O	-0.445533	1.345560	0.438055
O17	O	-0.112200	1.678893	0.771389
O18	O	0.221134	2.012226	1.104722
O19	O	-0.575824	1.214759	0.208271
O20	O	-0.242490	1.548092	0.541604
O21	O	0.090843	1.881426	0.874938
O22	O	-0.273695	1.115818	0.339009
O23	O	0.059638	1.449152	0.672343
O24	O	0.392972	1.782485	1.005676
O25	O	-0.575784	1.345506	0.339000
O26	O	-0.242451	1.678839	0.672333
O27	O	0.090882	2.012173	1.005667
O28	O	-0.273665	1.214883	0.438061
O29	O	0.059668	1.548217	0.771394
O30	O	0.393001	1.881550	1.104727
O31	O	-0.445602	1.115748	0.208275
O32	O	-0.112269	1.449081	0.541608
O33	O	0.221065	1.782414	0.874942
O34	O	-0.445543	0.985066	0.338975
O35	O	-0.112210	1.318399	0.672309
O36	O	0.221124	1.651732	1.005642
O37	O	-0.575681	1.115808	0.568730
O38	O	-0.242347	1.449142	0.902063
O39	O	0.090986	1.782475	1.235396
O40	O	-0.575720	0.985061	0.438001
O41	O	-0.242387	1.318395	0.771334
O42	O	0.090947	1.651728	1.104667
O43	O	-0.445474	1.214878	0.568755
O44	O	-0.112141	1.548211	0.902089
O45	O	0.221193	1.881544	1.235422
O46	O	-0.747632	1.214753	0.338966
O47	O	-0.414299	1.548087	0.672299
O48	O	-0.080966	1.881420	1.005632
O49	O	-0.747588	1.115738	0.437995
O50	O	-0.414254	1.449071	0.771329
O51	O	-0.080921	1.782404	1.104662
C52	C	-0.510630	0.955807	0.388485
C53	C	-0.177297	1.289141	0.721819
C54	C	0.156037	1.622474	1.055152
C55	C	-0.510649	0.866186	0.388495
C56	C	-0.177316	1.199520	0.721828
C57	C	0.156018	1.532853	1.055161
C58	C	-0.510656	0.538011	0.388529
C59	C	-0.177323	0.871344	0.721863
C60	C	0.156011	1.204677	1.055196
C61	C	-0.510651	0.629319	0.388517
C62	C	-0.177318	0.962652	0.721850
C63	C	0.156016	1.295986	1.055184
C64	C	-0.510653	0.702095	0.388511
C65	C	-0.177320	1.035429	0.721845
C66	C	0.156014	1.368762	1.055178
C67	C	-0.510647	0.793410	0.388500
C68	C	-0.177314	1.126743	0.721834
C69	C	0.156020	1.460076	1.055167
C70	C	-0.786075	1.165259	0.388494
C71	C	-0.452742	1.498592	0.721827
C72	C	-0.119408	1.831925	1.055160
C73	C	-0.903905	1.165316	0.388515
C74	C	-0.570572	1.498649	0.721848
C75	C	-0.237238	1.831982	1.055181
C76	C	-0.948770	1.227678	0.326269
C77	C	-0.615437	1.561011	0.659602
C78	C	-0.282104	1.894344	0.992935
C79	C	-1.071331	1.227534	0.326047
C80	C	-0.737997	1.560868	0.659380
C81	C	-0.404664	1.894201	0.992713
C82	C	-1.071913	1.080345	0.365681
C83	C	-0.738580	1.413679	0.699015
C84	C	-0.405247	1.747012	1.032348
C85	C	-0.949315	1.080666	0.365207
C86	C	-0.615982	1.413999	0.698540
C87	C	-0.282649	1.747332	1.031874
C88	C	-0.948986	1.187266	0.473797
C89	C	-0.615652	1.520599	0.807130
C90	C	-0.282319	1.853933	1.140463
C91	C	-1.071590	1.189181	0.473365
C92	C	-0.738257	1.522515	0.806698
C93	C	-0.404924	1.855848	1.140031
C94	C	-0.234140	1.165360	0.388540
C95	C	0.099193	1.498693	0.721873
C96	C	0.432527	1.832026	1.055206
C97	C	-0.116310	1.165386	0.388553
C98	C	0.217024	1.498719	0.721886
C99	C	0.550357	1.832053	1.055220
C100	C	-0.510566	1.165351	0.598817
C101	C	-0.177233	1.498684	0.932150
C102	C	0.156101	1.832017	1.265483
C103	C	-0.510532	1.165373	0.688438
C104	C	-0.177199	1.498706	1.021771
C105	C	0.156134	1.832040	1.355105
C106	C	-0.510661	1.375607	0.388531
C107	C	-0.177328	1.708940	0.721864
C108	C	0.156006	2.042274	1.055198
C109	C	-0.510668	1.465228	0.388541
C110	C	-0.177335	1.798561	0.721874
C111	C	0.155999	2.131895	1.055207
C112	C	-0.510647	1.165292	0.179017
C113	C	-0.177314	1.498626	0.512350
C114	C	0.156019	1.831959	0.845684
C115	C	-0.510382	1.165426	0.089396
C116	C	-0.177049	1.498760	0.422730
C117	C	0.156284	1.832093	0.756063
C118	C	-0.510414	1.165410	1.016614
C119	C	-0.177080	1.498743	1.349947
C120	C	0.156253	1.832077	1.683280
C121	C	-0.510450	1.165397	0.925305
C122	C	-0.177117	1.498731	1.258639
C123	C	0.156216	1.832064	1.591972
C124	C	-0.510474	1.165392	0.852529
C125	C	-0.177141	1.498725	1.185862
C126	C	0.156193	1.832059	1.519195
C127	C	-0.510509	1.165378	0.761214
C128	C	-0.177175	1.498712	1.094548
C129	C	0.156158	1.832045	1.427881
H130	H	-1.101344	1.290586	0.340333
H131	H	-0.768011	1.623920	0.673666
H132	H	-0.434678	1.957253	1.007000
H133	H	-0.919639	1.032608	0.408585
H134	H	-0.586306	1.365941	0.741918
H135	H	-0.252973	1.699274	1.075251
H136	H	-1.101050	1.032634	0.409636
H137	H	-0.767717	1.365967	0.742969
H138	H	-0.434384	1.699301	1.076302
H139	H	-0.918033	1.213311	0.263439
H140	H	-0.584700	1.546644	0.596772
H141	H	-0.251366	1.879977	0.930106
H142	H	-0.919964	1.141851	0.520173
H143	H	-0.586631	1.475184	0.853506
H144	H	-0.253298	1.808517	1.186840
H145	H	-0.917985	1.248200	0.494640
H146	H	-0.584652	1.581534	0.827973
H147	H	-0.251318	1.914867	1.161306
H148	H	-1.100736	1.213008	0.262868
H149	H	-0.767403	1.546341	0.596201
H150	H	-0.434070	1.879674	0.929534
H151	H	-0.919224	1.290907	0.340386
H152	H	-0.585891	1.624240	0.673719
H153	H	-0.252557	1.957574	1.007053
H154	H	-0.920800	1.062093	0.302874
H155	H	-0.587467	1.395427	0.636207
H156	H	-0.254133	1.728760	0.969541
H157	H	-1.102698	1.061471	0.304044
H158	H	-0.769365	1.394804	0.637377
H159	H	-0.436031	1.728138	0.970710
H160	H	-1.100599	1.251764	0.490614
H161	H	-0.767265	1.585098	0.823948
H162	H	-0.433932	1.918431	1.157281
H163	H	-1.102202	1.147112	0.522221
H164	H	-0.768869	1.480445	0.855554
H165	H	-0.435536	1.813778	1.188888
