data_functionalizedCrystal
_audit_creation_method	'MofGen! by Chris Wilmer'
_symmetry_space_group_name_H-M	'P1'
_symmetry_Int_Tables_number	1
_symmetry_cell_setting	triclinic
loop_
_symmetry_equiv_pos_as_xyz
  x,y,z
_cell_length_a	16.959455
_cell_length_b	16.959454
_cell_length_c	18.215399
_cell_angle_alpha	89.976304
_cell_angle_beta	89.981437
_cell_angle_gamma	90.017022
loop_
_atom_site_label
_atom_site_type_symbol
_atom_site_fract_x
_atom_site_fract_y
_atom_site_fract_z
Zn1	Zn	1.208417	-0.314754	-0.416113
Zn2	Zn	1.541750	0.018579	-0.082779
Zn3	Zn	1.875084	0.351913	0.250554
Zn4	Zn	1.208330	-0.446939	-0.293056
Zn5	Zn	1.541663	-0.113606	0.040278
Zn6	Zn	1.874996	0.219727	0.373611
Zn7	Zn	1.076236	-0.314772	-0.293063
Zn8	Zn	1.409569	0.018562	0.040271
Zn9	Zn	1.742902	0.351895	0.373604
Zn10	Zn	1.076210	-0.446887	-0.416083
Zn11	Zn	1.409543	-0.113554	-0.082750
Zn12	Zn	1.742877	0.219779	0.250584
O13	O	1.142298	-0.380838	-0.354579
O14	O	1.475631	-0.047505	-0.021245
O15	O	1.808965	0.285828	0.312088
O16	O	1.319016	-0.332303	-0.399798
O17	O	1.652349	0.001030	-0.066465
O18	O	1.985683	0.334364	0.266868
O19	O	1.190781	-0.429436	-0.190072
O20	O	1.524115	-0.096103	0.143261
O21	O	1.857448	0.237230	0.476595
O22	O	1.093817	-0.204159	-0.309401
O23	O	1.427150	0.129175	0.023932
O24	O	1.760484	0.462508	0.357266
O25	O	1.318952	-0.429419	-0.309389
O26	O	1.652285	-0.096086	0.023945
O27	O	1.985619	0.237248	0.357278
O28	O	1.190930	-0.204146	-0.399805
O29	O	1.524263	0.129188	-0.066472
O30	O	1.857597	0.462521	0.266861
O31	O	1.093732	-0.332333	-0.190077
O32	O	1.427066	0.001000	0.143256
O33	O	1.760399	0.334333	0.476589
O34	O	0.965621	-0.332283	-0.309372
O35	O	1.298955	0.001050	0.023961
O36	O	1.632288	0.334384	0.357294
O37	O	1.093773	-0.429330	-0.519071
O38	O	1.427107	-0.095997	-0.185738
O39	O	1.760440	0.237336	0.147595
O40	O	0.965602	-0.429348	-0.399755
O41	O	1.298936	-0.096014	-0.066422
O42	O	1.632269	0.237319	0.266912
O43	O	1.190905	-0.332253	-0.519093
O44	O	1.524238	0.001081	-0.185760
O45	O	1.857572	0.334414	0.147574
O46	O	1.190756	-0.557543	-0.309360
O47	O	1.524090	-0.224210	0.023973
O48	O	1.857423	0.109123	0.357307
O49	O	1.093689	-0.557505	-0.399748
O50	O	1.427022	-0.224172	-0.066415
O51	O	1.760355	0.109161	0.266919
C52	C	0.936932	-0.380812	-0.354562
C53	C	1.270265	-0.047479	-0.021228
C54	C	1.603598	0.285855	0.312105
C55	C	0.849075	-0.380820	-0.354572
C56	C	1.182408	-0.047487	-0.021239
C57	C	1.515742	0.285847	0.312095
C58	C	1.142232	-0.586204	-0.354566
C59	C	1.475565	-0.252871	-0.021233
C60	C	1.808898	0.080462	0.312101
C61	C	1.142276	-0.674061	-0.354585
C62	C	1.475609	-0.340728	-0.021252
C63	C	1.808942	-0.007394	0.312081
C64	C	0.477585	-0.330255	-0.307615
C65	C	0.810918	0.003078	0.025719
C66	C	1.144252	0.336411	0.359052
C67	C	0.477614	-0.431486	-0.401585
C68	C	0.810947	-0.098153	-0.068251
C69	C	1.144281	0.235180	0.265082
C70	C	0.560160	-0.431475	-0.401580
C71	C	0.893493	-0.098142	-0.068247
C72	C	1.226827	0.235192	0.265087
C73	C	0.601422	-0.380854	-0.354591
C74	C	0.934755	-0.047520	-0.021258
C75	C	1.268089	0.285813	0.312075
C76	C	0.560138	-0.330244	-0.307607
C77	C	0.893472	0.003089	0.025726
C78	C	1.226805	0.336423	0.359060
C79	C	0.601450	-0.482089	-0.448558
C80	C	0.934783	-0.148756	-0.115225
C81	C	1.268117	0.184577	0.218109
C82	C	0.684001	-0.482081	-0.448555
C83	C	1.017334	-0.148747	-0.115222
C84	C	1.350668	0.184586	0.218112
C85	C	0.725265	-0.431455	-0.401569
C86	C	1.058598	-0.098122	-0.068236
C87	C	1.391931	0.235212	0.265097
C88	C	0.683976	-0.380843	-0.354584
C89	C	1.017309	-0.047509	-0.021251
C90	C	1.350642	0.285824	0.312083
C91	C	0.725238	-0.330221	-0.307595
C92	C	1.058571	0.003112	0.025738
C93	C	1.391904	0.336445	0.359072
C94	C	0.683950	-0.279604	-0.260613
C95	C	1.017284	0.053729	0.072721
C96	C	1.350617	0.387062	0.406054
C97	C	0.601402	-0.279618	-0.260622
C98	C	0.934735	0.053715	0.072712
C99	C	1.268069	0.387048	0.406045
C100	C	0.807813	-0.431441	-0.401561
C101	C	1.141146	-0.098108	-0.068227
C102	C	1.474480	0.235226	0.265106
C103	C	0.807791	-0.330210	-0.307588
C104	C	1.141125	0.003123	0.025746
C105	C	1.474458	0.336457	0.359079
C106	C	1.091828	-1.045547	-0.401638
C107	C	1.425162	-0.712213	-0.068305
C108	C	1.758495	-0.378880	0.265028
C109	C	1.192988	-1.045527	-0.307594
C110	C	1.526321	-0.712193	0.025740
C111	C	1.859655	-0.378860	0.359073
C112	C	1.192960	-0.962981	-0.307587
C113	C	1.526294	-0.629647	0.025747
C114	C	1.859627	-0.296314	0.359080
C115	C	1.142365	-0.921714	-0.354606
C116	C	1.475698	-0.588381	-0.021272
C117	C	1.809032	-0.255047	0.312061
C118	C	1.091797	-0.962993	-0.401632
C119	C	1.425131	-0.629660	-0.068298
C120	C	1.758464	-0.296326	0.265035
C121	C	1.243521	-0.921695	-0.260557
C122	C	1.576855	-0.588362	0.072777
C123	C	1.910188	-0.255029	0.406110
C124	C	1.243495	-0.839144	-0.260547
C125	C	1.576829	-0.505811	0.072786
C126	C	1.910162	-0.172478	0.406119
C127	C	1.192903	-0.797876	-0.307571
C128	C	1.526237	-0.464543	0.025763
C129	C	1.859570	-0.131210	0.359096
C130	C	1.142334	-0.839160	-0.354599
C131	C	1.475668	-0.505827	-0.021266
C132	C	1.809001	-0.172494	0.312068
C133	C	1.091739	-0.797894	-0.401618
C134	C	1.425072	-0.464560	-0.068285
C135	C	1.758406	-0.131227	0.265049
C136	C	1.041173	-0.839176	-0.448650
C137	C	1.374506	-0.505843	-0.115317
C138	C	1.707840	-0.172510	0.218016
C139	C	1.041205	-0.921725	-0.448655
C140	C	1.374539	-0.588392	-0.115322
C141	C	1.707872	-0.255058	0.218012
C142	C	1.192871	-0.715328	-0.307566
C143	C	1.526204	-0.381994	0.025767
C144	C	1.859538	-0.048661	0.359100
C145	C	1.091708	-0.715340	-0.401611
C146	C	1.425041	-0.382007	-0.068278
C147	C	1.758375	-0.048674	0.265056
C148	C	1.348466	-0.380865	-0.354596
C149	C	1.681799	-0.047532	-0.021263
C150	C	2.015133	0.285802	0.312071
C151	C	1.436323	-0.380876	-0.354603
C152	C	1.769656	-0.047543	-0.021270
C153	C	2.102989	0.285790	0.312063
C154	C	1.142346	-0.380784	-0.546532
C155	C	1.475679	-0.047450	-0.213198
C156	C	1.809013	0.285883	0.120135
C157	C	1.142367	-0.380760	-0.628330
C158	C	1.475700	-0.047427	-0.294997
C159	C	1.809033	0.285906	0.038336
C160	C	1.142386	-0.174670	-0.354607
C161	C	1.475719	0.158663	-0.021274
C162	C	1.809053	0.491997	0.312059
C163	C	1.142423	-0.086813	-0.354619
C164	C	1.475757	0.246520	-0.021286
C165	C	1.809090	0.579853	0.312047
C166	C	1.192961	-0.330165	-0.816537
C167	C	1.526295	0.003169	-0.483204
C168	C	1.859628	0.336502	-0.149870
C169	C	1.192971	-0.330142	-0.893396
C170	C	1.526304	0.003192	-0.560062
C171	C	1.859637	0.336525	-0.226729
C172	C	1.091828	-0.431234	-0.893362
C173	C	1.425161	-0.097901	-0.560029
C174	C	1.758494	0.235433	-0.226695
C175	C	1.091815	-0.431252	-0.816505
C176	C	1.425148	-0.097919	-0.483171
C177	C	1.758482	0.235414	-0.149838
C178	C	1.142386	-0.380719	-0.778094
C179	C	1.475720	-0.047386	-0.444761
C180	C	1.809053	0.285948	-0.111427
C181	C	1.142409	-0.380677	-0.931810
C182	C	1.475742	-0.047344	-0.598477
C183	C	1.809075	0.285989	-0.265144
C184	C	1.142418	-0.380653	-1.015144
C185	C	1.475752	-0.047320	-0.681811
C186	C	1.809085	0.286014	-0.348477
C187	C	1.142376	-0.380742	-0.694755
C188	C	1.475709	-0.047409	-0.361422
C189	C	1.809042	0.285924	-0.028088
C190	C	1.142295	-0.380835	-0.163372
C191	C	1.475629	-0.047502	0.169961
C192	C	1.808962	0.285831	0.503294
C193	C	1.142428	-0.380636	-0.081574
C194	C	1.475761	-0.047303	0.251760
C195	C	1.809095	0.286031	0.585093
H196	H	0.841381	-0.288983	-0.269328
H197	H	1.174715	0.044350	0.064006
H198	H	1.508048	0.377684	0.397339
H199	H	0.443965	-0.289042	-0.269365
H200	H	0.777298	0.044292	0.063969
H201	H	1.110632	0.377625	0.397302
Br202	Br	1.312186	-0.977703	-0.196752
Br203	Br	1.645519	-0.644369	0.136581
Br204	Br	1.978852	-0.311036	0.469914
H205	H	0.999974	-0.805568	-0.486930
H206	H	1.333308	-0.472234	-0.153597
H207	H	1.666641	-0.138901	0.179736
Br208	Br	1.261617	-0.261535	-0.945566
Br209	Br	1.594951	0.071798	-0.612232
Br210	Br	1.928284	0.405132	-0.278899
Br211	Br	1.023046	-0.659342	-0.465432
Br212	Br	1.356379	-0.326008	-0.132099
Br213	Br	1.689712	0.007325	0.201234
Br214	Br	0.421616	-0.500203	-0.465333
Br215	Br	0.754949	-0.166870	-0.132000
Br216	Br	1.088282	0.166463	0.201334
Br217	Br	1.023212	-1.101569	-0.465471
Br218	Br	1.356546	-0.768236	-0.132137
Br219	Br	1.689879	-0.434902	0.201196
H220	H	1.050625	-0.472419	-0.785203
H221	H	1.383958	-0.139086	-0.451870
H222	H	1.717292	0.194248	-0.118537
H223	H	1.234037	-0.681719	-0.269270
H224	H	1.567371	-0.348386	0.064064
H225	H	1.900704	-0.015052	0.397397
Br226	Br	1.312124	-0.783125	-0.196725
Br227	Br	1.645457	-0.449792	0.136609
Br228	Br	1.978791	-0.116458	0.469942
Br229	Br	0.545449	-0.550815	-0.512297
Br230	Br	0.878782	-0.217481	-0.178964
Br231	Br	1.212116	0.115852	0.154370
Br232	Br	0.739959	-0.210914	-0.196838
Br233	Br	1.073292	0.122419	0.136495
Br234	Br	1.406625	0.455753	0.469829
Br235	Br	0.740027	-0.550773	-0.512316
Br236	Br	1.073360	-0.217439	-0.178982
Br237	Br	1.406693	0.115894	0.154351
Br238	Br	1.261592	-0.261583	-0.764410
Br239	Br	1.594925	0.071751	-0.431077
Br240	Br	1.928258	0.405084	-0.097744
Br241	Br	1.261649	-1.101531	-0.243784
Br242	Br	1.594982	-0.768198	0.089549
Br243	Br	1.928315	-0.434865	0.422883
H244	H	1.050656	-0.472378	-0.924645
H245	H	1.383990	-0.139045	-0.591312
H246	H	1.717323	0.194289	-0.257978
H247	H	0.567779	-0.238409	-0.222370
H248	H	0.901112	0.094924	0.110963
H249	H	1.234445	0.428257	0.444297
H250	H	0.841425	-0.472655	-0.439811
H251	H	1.174759	-0.139322	-0.106477
H252	H	1.508092	0.194012	0.226856
H253	H	1.000037	-0.955345	-0.486945
H254	H	1.333370	-0.622011	-0.153612
H255	H	1.666703	-0.288678	0.179721
