data_functionalizedCrystal
_audit_creation_method	'MofGen! by Chris Wilmer'
_symmetry_space_group_name_H-M	'P1'
_symmetry_Int_Tables_number	1
_symmetry_cell_setting	triclinic
loop_
_symmetry_equiv_pos_as_xyz
  x,y,z
_cell_length_a	8.559649
_cell_length_b	13.101039
_cell_length_c	8.559649
_cell_angle_alpha	87.109304
_cell_angle_beta	69.778664
_cell_angle_gamma	92.882768
loop_
_atom_site_label
_atom_site_type_symbol
_atom_site_fract_x
_atom_site_fract_y
_atom_site_fract_z
O1	O	2.136903	0.085199	-0.065082
O2	O	2.636903	0.585199	0.434918
O3	O	1.661418	0.085203	0.018699
O4	O	2.161418	0.585203	0.518699
O5	O	1.941051	0.085199	-0.260934
O6	O	2.441051	0.585199	0.239066
O7	O	1.857270	0.085202	0.214551
O8	O	2.357270	0.585202	0.714551
O9	O	1.920984	-0.085230	-0.240841
O10	O	2.420984	0.414770	0.259159
O11	O	1.641351	-0.085227	0.038792
O12	O	2.141351	0.414773	0.538792
O13	O	2.116836	-0.085231	-0.044989
O14	O	2.616836	0.414769	0.455011
Zn15	Zn	1.875908	-0.112288	0.000091
Zn16	Zn	2.375908	0.387712	0.500091
Zn17	Zn	1.902347	0.112260	-0.026382
Zn18	Zn	2.402347	0.612260	0.473618
O19	O	1.837203	-0.085228	0.234643
O20	O	2.337203	0.414772	0.734643
C21	C	1.591076	-0.000012	0.035094
C22	C	2.091076	0.499988	0.535094
C23	C	1.411377	-0.000010	0.053993
C24	C	1.911377	0.499990	0.553993
N25	N	1.857876	-0.265537	0.018156
N26	N	2.357876	0.234463	0.518156
C27	C	1.833340	-0.474579	0.042749
C28	C	2.333340	0.025421	0.542749
C29	C	1.944922	-0.525456	-0.069048
C30	C	2.444922	-0.025456	0.430952
C31	C	1.931271	-0.641774	-0.055364
C32	C	2.431271	-0.141774	0.444636
C33	C	1.846990	-0.358250	0.029068
C34	C	2.346990	0.141750	0.529068
C35	C	2.187178	-0.000014	-0.061385
C36	C	2.687178	0.499986	0.438615
C37	C	2.366878	-0.000009	-0.080285
C38	C	2.866878	0.499991	0.419715
C39	C	1.937367	-0.000014	-0.311197
C40	C	2.437367	0.499986	0.188803
C41	C	1.956267	-0.000008	-0.490897
C42	C	2.456267	0.499992	0.009103
N43	N	1.920393	0.265508	-0.044461
N44	N	2.420393	0.765508	0.455539
C45	C	1.840888	-0.000012	0.284906
C46	C	2.340888	0.499988	0.784906
C47	C	1.821989	-0.000011	0.464605
C48	C	2.321989	0.499989	0.964605
H49	H	1.466257	-0.000005	-0.209705
H50	H	1.966257	0.499995	0.290295
Cl51	Cl	1.670035	-0.542198	0.206385
Cl52	Cl	2.170035	-0.042198	0.706385
Cl53	Cl	1.622167	-0.000012	-0.381965
Cl54	Cl	2.122167	0.499988	0.118035
H55	H	2.085694	-0.000017	-0.590284
H56	H	2.585694	0.499983	-0.090284
Cl57	Cl	2.108784	-0.457836	-0.232144
Cl58	Cl	2.608784	0.042164	0.267856
H59	H	1.311989	-0.000004	0.183420
H60	H	1.811989	0.499996	0.683420
