data_functionalizedCrystal
_audit_creation_method	'MofGen! by Chris Wilmer'
_symmetry_space_group_name_H-M	'P1'
_symmetry_Int_Tables_number	1
_symmetry_cell_setting	triclinic
loop_
_symmetry_equiv_pos_as_xyz
  x,y,z
_cell_length_a	14.908571
_cell_length_b	21.295417
_cell_length_c	14.908308
_cell_angle_alpha	86.739365
_cell_angle_beta	89.824947
_cell_angle_gamma	86.726349
loop_
_atom_site_label
_atom_site_type_symbol
_atom_site_fract_x
_atom_site_fract_y
_atom_site_fract_z
Zn1	Zn	1.345216	-0.328502	0.587528
Zn2	Zn	1.845216	0.171498	1.087528
Zn3	Zn	1.353772	-0.428068	0.437153
Zn4	Zn	1.853772	0.071932	0.937153
Zn5	Zn	1.203534	-0.316411	0.428528
Zn6	Zn	1.703534	0.183589	0.928528
Zn7	Zn	1.194800	-0.427320	0.578804
Zn8	Zn	1.694800	0.072680	1.078804
O9	O	1.274330	-0.375075	0.508003
O10	O	1.774330	0.124925	1.008003
O11	O	1.472175	-0.347082	0.574841
O12	O	1.972175	0.152918	1.074841
O13	O	1.341079	-0.408509	0.310185
O14	O	1.841079	0.091491	0.810185
O15	O	1.222403	-0.229930	0.449662
O16	O	1.722403	0.270070	0.949662
O17	O	1.478462	-0.420233	0.464361
O18	O	1.978462	0.079767	0.964361
O19	O	1.326496	-0.238813	0.566479
O20	O	1.826496	0.261187	1.066479
O21	O	1.230699	-0.326476	0.303848
O22	O	1.730699	0.173524	0.803848
O23	O	1.076551	-0.325750	0.441202
O24	O	1.576551	0.174250	0.941202
O25	O	1.207517	-0.418959	0.705785
O26	O	1.707517	0.081041	1.205785
O27	O	1.070134	-0.407235	0.551609
O28	O	1.570134	0.092765	1.051609
O29	O	1.318027	-0.346357	0.712195
O30	O	1.818027	0.153643	1.212195
O31	O	1.332609	-0.516054	0.455901
O32	O	1.832609	-0.016054	0.955901
O33	O	1.215813	-0.515504	0.559972
O34	O	1.715813	-0.015504	1.059972
C35	C	1.040717	-0.365100	0.494524
C36	C	1.540717	0.134900	0.994524
C37	C	0.940775	-0.360848	0.488779
C38	C	1.440775	0.139152	0.988779
C39	C	0.746349	-0.437828	0.592795
C40	C	1.246349	0.062172	1.092795
C41	C	0.652444	-0.433836	0.587400
C42	C	1.152444	0.066164	1.087400
C43	C	0.659060	-0.348868	0.472599
C44	C	1.159060	0.151132	0.972599
C45	C	0.752964	-0.352861	0.477994
C46	C	1.252964	0.147139	0.977994
C47	C	0.796605	-0.397343	0.538093
C48	C	1.296605	0.102657	1.038093
C49	C	0.890512	-0.401338	0.543483
C50	C	1.390512	0.098662	1.043483
C51	C	0.897125	-0.316368	0.428687
C52	C	1.397125	0.183632	0.928687
C53	C	0.803221	-0.312375	0.423292
C54	C	1.303221	0.187625	0.923292
C55	C	1.274215	-0.538620	0.507947
C56	C	1.774215	-0.038620	1.007947
C57	C	1.274247	-0.608590	0.507957
C58	C	1.774247	-0.108590	1.007957
C59	C	1.335110	-0.641726	0.453830
C60	C	1.835110	-0.141726	0.953830
C61	C	1.335151	-0.707471	0.453852
C62	C	1.835151	-0.207471	0.953852
C63	C	1.274313	-0.740076	0.507992
C64	C	1.774313	-0.240076	1.007992
C65	C	1.213445	-0.706932	0.562131
C66	C	1.713445	-0.206932	1.062131
C67	C	1.213412	-0.641189	0.562114
C68	C	1.713412	-0.141189	1.062114
N69	N	1.195260	-0.840247	0.510308
N70	N	1.695260	-0.340247	1.010308
N71	N	1.195295	-0.902701	0.510320
N72	N	1.695295	-0.402701	1.010320
C73	C	1.274411	-0.938157	0.508050
C74	C	1.774411	-0.438157	1.008050
N75	N	1.353494	-0.908801	0.505750
N76	N	1.853494	-0.408801	1.005750
N77	N	1.353459	-0.846341	0.505734
N78	N	1.853459	-0.346341	1.005734
C79	C	1.274343	-0.811364	0.508018
C80	C	1.774343	-0.311364	1.008018
C81	C	1.335324	-1.042582	0.453944
C82	C	1.835324	-0.542582	0.953944
C83	C	1.335366	-1.108328	0.453973
C84	C	1.835366	-0.608328	0.953973
C85	C	1.213652	-1.107788	0.562246
C86	C	1.713652	-0.607788	1.062246
C87	C	1.213618	-1.042043	0.562223
C88	C	1.713618	-0.542043	1.062223
C89	C	1.274453	-1.009444	0.508066
C90	C	1.774453	-0.509444	1.008066
C91	C	1.508856	-0.385090	0.521536
C92	C	2.008856	0.114910	1.021536
C93	C	1.608796	-0.389358	0.527303
C94	C	2.108796	0.110642	1.027303
C95	C	1.260843	-0.383923	0.742527
C96	C	1.760843	0.116077	1.242527
C97	C	1.255096	-0.387694	0.842467
C98	C	1.755096	0.112306	1.342467
C99	C	1.274469	-0.210894	0.508081
C100	C	1.774469	0.289106	1.008081
C101	C	1.274528	-0.140929	0.508114
C102	C	1.774528	0.359071	1.008114
C103	C	1.287817	-0.366218	0.274395
C104	C	1.787817	0.133782	0.774395
C105	C	1.293739	-0.362278	0.174465
C106	C	1.793739	0.137722	0.674465
C107	C	1.359367	-0.319164	1.036941
C108	C	1.859367	0.180836	1.536941
C109	C	1.353969	-0.322705	1.130844
C110	C	1.853969	0.177295	1.630844
C111	C	1.238899	-0.398312	1.124177
C112	C	1.738899	0.101688	1.624177
C113	C	1.244297	-0.394771	1.030274
C114	C	1.744297	0.105229	1.530274
C115	C	1.304533	-0.355197	0.986660
C116	C	1.804533	0.144803	1.486660
C117	C	1.309935	-0.351660	0.892756
C118	C	1.809935	0.148340	1.392756
C119	C	1.194861	-0.427263	0.886090
C120	C	1.694861	0.072737	1.386090
C121	C	1.189463	-0.430804	0.979993
C122	C	1.689463	0.069196	1.479993
H123	H	1.384647	-0.615186	0.409735
H124	H	1.884647	-0.115186	0.909735
H125	H	1.163912	-0.733484	0.606214
H126	H	1.663912	-0.233484	1.106214
H127	H	0.623510	-0.312649	0.423674
H128	H	1.123510	0.187351	0.923674
C129	C	1.489955	-0.732503	0.418931
C130	C	1.989955	-0.232503	0.918931
C131	C	1.402042	-0.743911	0.394343
C132	C	1.902042	-0.243911	0.894343
H133	H	1.531245	-0.754998	0.382187
H134	H	2.031245	-0.254998	0.882187
H135	H	1.499601	-0.746090	0.480105
H136	H	1.999601	-0.246090	0.980105
H137	H	1.498645	-0.688683	0.411162
H138	H	1.998645	-0.188683	0.911162
H139	H	1.393350	-0.787730	0.402119
H140	H	1.893350	-0.287730	0.902119
H141	H	1.392393	-0.730328	0.333155
H142	H	1.892393	-0.230328	0.833155
C143	C	1.093108	-0.647260	0.669139
C144	C	1.593108	-0.147260	1.169139
C145	C	1.146501	-0.604761	0.621610
C146	C	1.646501	-0.104761	1.121610
H147	H	1.051796	-0.624768	0.705864
H148	H	1.551796	-0.124768	1.205864
H149	H	1.130290	-0.675831	0.705831
H150	H	1.630290	-0.175831	1.205831
H151	H	1.061017	-0.669996	0.627953
H152	H	1.561017	-0.169996	1.127953
H153	H	1.178597	-0.582029	0.662796
H154	H	1.678597	-0.082029	1.162796
H155	H	1.109314	-0.576179	0.584915
H156	H	1.609314	-0.076179	1.084915
H157	H	1.384862	-1.016039	0.409849
H158	H	1.884862	-0.516039	0.909849
H159	H	1.384934	-1.135307	0.409897
H160	H	1.884934	-0.635307	0.909897
C161	C	1.355465	-0.245849	0.866416
C162	C	1.855465	0.254151	1.366416
C163	C	1.376141	-0.308157	0.844811
C164	C	1.876141	0.191843	1.344811
H165	H	1.396334	-0.218991	0.836814
H166	H	1.896334	0.281009	1.336814
H167	H	1.360100	-0.242806	0.929530
H168	H	1.860100	0.257194	1.429530
H169	H	1.295940	-0.233490	0.847540
H170	H	1.795940	0.266510	1.347540
H171	H	1.435663	-0.320517	0.863693
H172	H	1.935663	0.179483	1.363693
H173	H	1.371514	-0.311202	0.781684
H174	H	1.871514	0.188798	1.281684
H175	H	1.164053	-1.015062	0.606295
H176	H	1.664053	-0.515062	1.106295
C177	C	0.655342	-0.518223	0.701416
C178	C	1.155342	-0.018223	1.201416
C179	C	0.597202	-0.478339	0.647529
C180	C	1.097202	0.021661	1.147529
H181	H	0.621236	-0.545700	0.738535
H182	H	1.121236	-0.045700	1.238535
H183	H	0.690007	-0.493690	0.737981
H184	H	1.190007	0.006310	1.237981
H185	H	0.694205	-0.542336	0.664273
H186	H	1.194205	-0.042336	1.164273
H187	H	0.558343	-0.454222	0.684672
H188	H	1.058343	0.045778	1.184672
H189	H	0.562521	-0.502875	0.610960
H190	H	1.062521	-0.002875	1.110960
C191	C	0.845033	-0.455759	0.719781
C192	C	1.345033	0.044241	1.219781
C193	C	0.794330	-0.486723	0.658848
C194	C	1.294330	0.013277	1.158848
H195	H	0.874658	-0.485946	0.760554
H196	H	1.374658	0.014054	1.260554
H197	H	0.806440	-0.428121	0.752144
H198	H	1.306440	0.071879	1.252144
H199	H	0.888399	-0.432217	0.687965
H200	H	1.388399	0.067783	1.187965
H201	H	0.750960	-0.510261	0.690663
H202	H	1.250960	-0.010261	1.190663
H203	H	0.832927	-0.514371	0.626481
H204	H	1.332927	-0.014371	1.126481
C205	C	1.404919	-0.213357	1.010589
C206	C	1.904919	0.286643	1.510589
C207	C	1.425578	-0.275669	0.988990
C208	C	1.925578	0.224331	1.488990
H209	H	1.445794	-0.186506	0.980981
H210	H	1.945794	0.313494	1.480981
H211	H	1.409560	-0.210312	1.073702
H212	H	1.909560	0.289688	1.573702
H213	H	1.345396	-0.200992	0.991716
H214	H	1.845396	0.299008	1.491716
H215	H	1.485099	-0.288035	1.007869
H216	H	1.985099	0.211965	1.507869
H217	H	1.420946	-0.278717	0.925864
H218	H	1.920946	0.221283	1.425864
H219	H	1.398618	-0.293362	1.171780
H220	H	1.898618	0.206638	1.671780
H221	H	1.140419	-0.463023	1.015517
H222	H	1.640419	0.036977	1.515517
C223	C	1.179516	-0.437288	1.265167
C224	C	1.679516	0.062712	1.765167
C225	C	1.172677	-0.441799	1.172129
C226	C	1.672677	0.058201	1.672129
H227	H	1.138632	-0.464136	1.294768
H228	H	1.638632	0.035864	1.794768
H229	H	1.165516	-0.395015	1.279797
H230	H	1.665516	0.104985	1.779797
H231	H	1.239037	-0.449667	1.284035
H232	H	1.739037	0.050333	1.784035
H233	H	1.113158	-0.429416	1.153260
H234	H	1.613158	0.070584	1.653260
H235	H	1.186671	-0.484082	1.157492
H236	H	1.686671	0.015918	1.657492
C237	C	1.044010	-0.284759	0.385975
C238	C	1.544010	0.215241	0.885975
C239	C	0.952370	-0.271862	0.368553
C240	C	1.452370	0.228138	0.868553
H241	H	1.078113	-0.257282	0.348853
H242	H	1.578113	0.242718	0.848853
H243	H	1.060129	-0.327188	0.373590
H244	H	1.560129	0.172812	0.873590
H245	H	1.055938	-0.278542	0.447298
H246	H	1.555938	0.221458	0.947298
H247	H	0.940441	-0.278084	0.307231
H248	H	1.440441	0.221916	0.807231
H249	H	0.936245	-0.229422	0.380931
H250	H	1.436245	0.270578	0.880931
C251	C	1.159661	-1.208324	0.610350
C252	C	1.659661	-0.708324	1.110350
C253	C	1.146779	-1.143620	0.621762
C254	C	1.646779	-0.643620	1.121762
H255	H	1.118373	-1.230446	0.647093
H256	H	1.618373	-0.730446	1.147093
H257	H	1.219303	-1.222125	0.627046
H258	H	1.719303	-0.722125	1.127046
H259	H	1.150028	-1.216283	0.549171
H260	H	1.650028	-0.716283	1.049171
H261	H	1.156419	-1.135661	0.682940
H262	H	1.656419	-0.635661	1.182940
H263	H	1.087122	-1.129815	0.605071
H264	H	1.587122	-0.629815	1.105071
H265	H	1.150214	-0.456605	0.845141
H266	H	1.650214	0.043395	1.345141
C267	C	0.989191	-0.419260	0.670472
C268	C	1.489191	0.080740	1.170472
C269	C	0.938488	-0.450229	0.609544
C270	C	1.438488	0.049771	1.109544
H271	H	1.018811	-0.449444	0.711253
H272	H	1.518811	0.050556	1.211253
H273	H	0.950598	-0.391618	0.702827
H274	H	1.450598	0.108382	1.202827
H275	H	1.032561	-0.395723	0.638654
H276	H	1.532561	0.104277	1.138654
H277	H	0.895114	-0.473762	0.641362
H278	H	1.395114	0.026238	1.141362
H279	H	0.977085	-0.477883	0.577186
H280	H	1.477085	0.022117	1.077186
C281	C	0.662208	-0.268524	0.364050
C282	C	1.162208	0.231476	0.864050
C283	C	0.755244	-0.263482	0.357234
C284	C	1.255244	0.236518	0.857234
H285	H	0.632593	-0.238341	0.323264
H286	H	1.132593	0.261659	0.823264
H287	H	0.643371	-0.261000	0.423598
H288	H	1.143371	0.239000	0.923598
H289	H	0.647562	-0.309651	0.349897
H290	H	1.147562	0.190349	0.849897
H291	H	0.769890	-0.222356	0.371394
H292	H	1.269890	0.277644	0.871394
H293	H	0.774088	-0.271002	0.297673
H294	H	1.274088	0.228998	0.797673
