data_functionalizedCrystal
_audit_creation_method	'MofGen! by Chris Wilmer'
_symmetry_space_group_name_H-M	'P1'
_symmetry_Int_Tables_number	1
_symmetry_cell_setting	triclinic
loop_
_symmetry_equiv_pos_as_xyz
  x,y,z
_cell_length_a	14.044220
_cell_length_b	14.519709
_cell_length_c	12.996460
_cell_angle_alpha	89.992910
_cell_angle_beta	89.999501
_cell_angle_gamma	88.434511
loop_
_atom_site_label
_atom_site_type_symbol
_atom_site_fract_x
_atom_site_fract_y
_atom_site_fract_z
O1	O	-1.258085	-0.222370	0.085462
O2	O	-0.924752	0.110963	0.418795
O3	O	-0.591418	0.444297	0.752128
O4	O	-0.982102	-0.214346	0.085488
O5	O	-0.648769	0.118987	0.418821
O6	O	-0.315435	0.452321	0.752154
O7	O	-1.127411	-0.084710	0.085465
O8	O	-0.794077	0.248624	0.418798
O9	O	-0.460744	0.581957	0.752131
O10	O	-1.112776	-0.352006	0.085485
O11	O	-0.779443	-0.018673	0.418818
O12	O	-0.446110	0.314660	0.752151
O13	O	-1.127396	-0.084701	-0.085669
O14	O	-0.794062	0.248633	0.247664
O15	O	-0.460729	0.581966	0.580998
O16	O	-0.982087	-0.214337	-0.085646
O17	O	-0.648754	0.118997	0.247687
O18	O	-0.315420	0.452330	0.581021
O19	O	-1.258070	-0.222361	-0.085672
O20	O	-0.924736	0.110972	0.247661
O21	O	-0.591403	0.444306	0.580995
Cu22	Cu	-1.120077	-0.218348	-0.101285
Cu23	Cu	-0.786744	0.114985	0.232048
Cu24	Cu	-0.453410	0.448319	0.565382
Cu25	Cu	-1.120095	-0.218359	0.101101
Cu26	Cu	-0.786762	0.114975	0.434434
Cu27	Cu	-0.453428	0.448308	0.767767
O28	O	-1.112761	-0.351997	-0.085649
O29	O	-0.779428	-0.018664	0.247684
O30	O	-0.446094	0.314669	0.581018
C31	C	-0.946774	-0.210829	-0.000076
C32	C	-0.613441	0.122504	0.333257
C33	C	-0.280107	0.455838	0.666591
C34	C	-0.841531	-0.200352	-0.000066
C35	C	-0.508197	0.132982	0.333267
C36	C	-0.174864	0.466315	0.666600
C37	C	-1.126721	-0.050290	-0.000102
C38	C	-0.793388	0.283043	0.333231
C39	C	-0.460054	0.616376	0.666564
C40	C	-1.124677	0.052256	-0.000103
C41	C	-0.791344	0.385589	0.333231
C42	C	-0.458011	0.718922	0.666564
C43	C	-1.293398	-0.225878	-0.000106
C44	C	-0.960064	0.107455	0.333227
C45	C	-0.626731	0.440789	0.666561
C46	C	-1.398641	-0.236355	-0.000109
C47	C	-1.065308	0.096978	0.333224
C48	C	-0.731975	0.430311	0.666558
C49	C	-0.648837	-0.181197	-0.000088
C50	C	-0.315503	0.152136	0.333245
C51	C	0.017830	0.485469	0.666578
C52	C	-0.591329	-0.255505	-0.000087
C53	C	-0.257996	0.077828	0.333246
C54	C	0.075337	0.411161	0.666580
C55	C	-0.484108	-0.244848	-0.000099
C56	C	-0.150775	0.088486	0.333234
C57	C	0.182559	0.421819	0.666567
C58	C	-0.756068	-0.191854	-0.000076
C59	C	-0.422735	0.141480	0.333257
C60	C	-0.089402	0.474813	0.666591
C61	C	-1.113451	-0.386416	-0.000080
C62	C	-0.780117	-0.053083	0.333253
C63	C	-0.446784	0.280250	0.666587
C64	C	-1.115494	-0.488963	-0.000073
C65	C	-0.782161	-0.155629	0.333261
C66	C	-0.448828	0.177704	0.666594
N67	N	-1.120071	-0.218341	-0.243632
N68	N	-0.786738	0.114993	0.089701
N69	N	-0.453405	0.448326	0.423035
C70	C	-1.117153	0.427758	-0.000075
C71	C	-0.783820	0.761092	0.333258
C72	C	-0.450487	1.094425	0.666591
C73	C	-1.119243	0.323282	-0.000083
C74	C	-0.785909	0.656615	0.333250
C75	C	-0.452576	0.989949	0.666584
C76	C	-1.120915	0.240010	-0.000090
C77	C	-0.787582	0.573344	0.333243
C78	C	-0.454248	0.906677	0.666577
C79	C	-1.123005	0.135527	-0.000096
C80	C	-0.789672	0.468861	0.333237
C81	C	-0.456338	0.802194	0.666571
C82	C	-1.120094	-0.218360	-0.663446
C83	C	-0.786760	0.114974	-0.330113
C84	C	-0.453427	0.448307	0.003220
C85	C	-1.120085	-0.218357	-0.546641
C86	C	-0.786751	0.114976	-0.213308
C87	C	-0.453418	0.448309	0.120025
C88	C	-1.120083	-0.218351	-0.453543
C89	C	-0.786750	0.114982	-0.120210
C90	C	-0.453416	0.448316	0.213124
C91	C	-1.120073	-0.218347	-0.336730
C92	C	-0.786740	0.114986	-0.003397
C93	C	-0.453406	0.448320	0.329936
N94	N	-1.120108	-0.218360	0.243448
N95	N	-0.786775	0.114974	0.576781
N96	N	-0.453441	0.448307	0.910114
H97	H	-0.617546	-0.109582	-0.000099
H98	H	-0.284213	0.223752	0.333234
H99	H	0.049121	0.557085	0.666567
H100	H	-0.622622	-0.327127	-0.000077
H101	H	-0.289289	0.006206	0.333257
H102	H	0.044045	0.339540	0.666590
