data_functionalizedCrystal
_audit_creation_method	'MofGen! by Chris Wilmer'
_symmetry_space_group_name_H-M	'P1'
_symmetry_Int_Tables_number	1
_symmetry_cell_setting	triclinic
loop_
_symmetry_equiv_pos_as_xyz
  x,y,z
_cell_length_a	11.792241
_cell_length_b	15.625020
_cell_length_c	14.750779
_cell_angle_alpha	85.134135
_cell_angle_beta	102.725680
_cell_angle_gamma	95.784747
loop_
_atom_site_label
_atom_site_type_symbol
_atom_site_fract_x
_atom_site_fract_y
_atom_site_fract_z
O1	O	-0.289178	1.085474	-0.457707
O2	O	-0.280890	0.843589	-0.373498
O3	O	-0.120455	0.970400	-0.417651
O4	O	-0.449613	0.958663	-0.413554
O5	O	-0.075108	1.006248	-0.270483
O6	O	-0.235543	0.879437	-0.226330
O7	O	-0.243830	1.121322	-0.310538
Zn8	Zn	-0.232487	1.006071	-0.245068
Zn9	Zn	-0.292234	0.958840	-0.438969
O10	O	-0.404265	0.994511	-0.266385
C11	C	-0.254096	0.830546	-0.289134
C12	C	-0.241804	0.738275	-0.257012
C13	C	-0.199761	0.627761	-0.131521
C14	C	-0.211314	0.714462	-0.161714
C15	C	-0.260747	0.675391	-0.322154
C16	C	-0.249192	0.588686	-0.291975
C17	C	-0.218700	0.564879	-0.196657
C18	C	-0.268131	0.525803	-0.357111
C19	C	-0.256583	0.439105	-0.326934
C20	C	-0.226096	0.415290	-0.231620
C21	C	-0.207152	0.478181	-0.166480
C22	C	-0.298631	0.549611	-0.452428
C23	C	-0.317571	0.486728	-0.517565
C24	C	-0.306015	0.400029	-0.487388
C25	C	-0.275527	0.376214	-0.392074
C26	C	-0.324958	0.337139	-0.552528
C27	C	-0.313410	0.250441	-0.522351
C28	C	-0.263979	0.289517	-0.361896
C29	C	-0.469304	0.977325	-0.340225
C30	C	-0.595538	0.979533	-0.340989
C31	C	-0.826665	0.983586	-0.342425
C32	C	-0.698050	0.981334	-0.341627
C33	C	-0.055417	0.987586	-0.343814
C34	C	0.070815	0.985376	-0.343055
C35	C	-0.270625	1.134364	-0.394905
C36	C	-0.282919	1.226634	-0.427033
N37	N	-0.191710	1.038311	-0.112737
N38	N	-0.333002	0.926606	-0.571302
C39	C	-0.446833	0.836564	0.309325
C40	C	-0.418268	0.859162	0.401956
C41	C	-0.276263	0.971477	0.362813
C42	C	-0.304812	0.948885	0.270178
C43	C	-0.390099	0.881429	0.243442
C44	C	-0.248077	0.993750	0.204294
C45	C	-0.276629	0.971164	0.111666
C46	C	-0.361915	0.903712	0.084922
C47	C	-0.418650	0.858842	0.150814
C48	C	-0.162796	1.061211	0.231031
C49	C	-0.106062	1.106076	0.165148
C50	C	-0.134607	1.083485	0.072519
C51	C	-0.219893	1.016033	0.045774
C52	C	-0.077872	1.128355	0.006627
C53	C	-0.106423	1.105768	-0.086001
C54	C	-0.248445	0.993446	-0.046854
H55	H	-0.182337	0.458795	-0.088862
O56	O	-0.354730	0.360364	-0.645085
C57	C	-0.460165	0.400349	-0.664214
H58	H	-0.472857	0.427304	-0.598035
H59	H	-0.536012	0.351012	-0.689987
C60	C	-0.440146	0.441157	-0.820974
C61	C	-0.455730	0.474270	-0.739693
H62	H	-0.437414	0.486753	-0.867536
H63	H	-0.369115	0.414216	-0.808088
H64	H	-0.503355	0.400043	-0.842439
H65	H	-0.392515	0.515375	-0.718223
H66	H	-0.526751	0.501220	-0.752577
O67	O	-0.051163	1.149409	-0.149879
C68	C	0.030217	1.213803	-0.106423
H69	H	0.055598	1.195831	-0.028522
H70	H	-0.010395	1.278103	-0.118136
C71	C	0.108512	1.243636	-0.244045
C72	C	0.139693	1.221558	-0.148366
H73	H	0.176040	1.248424	-0.269919
H74	H	0.053682	1.200256	-0.273323
H75	H	0.074667	1.297218	-0.253793
H76	H	0.173523	1.167973	-0.138620
H77	H	0.194531	1.264931	-0.119086
H78	H	-0.174946	0.608376	-0.053903
H79	H	-0.328836	0.199239	-0.575391
O80	O	-0.192814	0.775445	-0.098312
C81	C	-0.163454	0.735833	-0.007714
H82	H	-0.126921	0.671581	-0.010864
H83	H	-0.244717	0.724314	0.023057
C84	C	-0.115832	0.873832	0.057808
C85	C	-0.070952	0.794920	0.053939
H86	H	-0.058776	0.910280	0.095841
H87	H	-0.135616	0.900520	-0.003229
H88	H	-0.183551	0.864221	0.083448
H89	H	-0.003244	0.804530	0.028289
H90	H	-0.051154	0.768235	0.114974
H91	H	-0.036623	1.161002	0.186927
H92	H	-0.317886	0.938511	-0.068620
H93	H	-0.139557	1.079601	0.306455
H94	H	-0.285578	0.694787	-0.399762
H95	H	-0.385164	0.885325	0.009496
H96	H	-0.308041	0.620207	-0.476996
H97	H	-0.488091	0.803906	0.129048
O98	O	-0.234511	0.266267	-0.269323
C99	C	-0.323625	0.208336	-0.243938
H100	H	-0.375783	0.175398	-0.308032
H101	H	-0.383977	0.245111	-0.213789
C102	C	-0.204923	0.180328	-0.091637
C103	C	-0.268978	0.139867	-0.170357
H104	H	-0.171216	0.138096	-0.046245
H105	H	-0.144886	0.219360	-0.108737
H106	H	-0.255226	0.210973	-0.066524
H107	H	-0.218672	0.109233	-0.195475
H108	H	-0.329005	0.100829	-0.153259
O109	O	-0.529743	0.771036	0.283494
C110	C	-0.573675	0.736257	0.361513
H111	H	-0.558352	0.786429	0.415673
H112	H	-0.526986	0.676762	0.392922
C113	C	-0.724253	0.649239	0.264622
C114	C	-0.705442	0.710864	0.331140
H115	H	-0.805532	0.633571	0.245888
H116	H	-0.694654	0.672668	0.212060
H117	H	-0.685338	0.599667	0.290806
H118	H	-0.744345	0.760438	0.304952
H119	H	-0.735051	0.687443	0.383698
H120	H	-0.464477	0.822622	0.455597
H121	H	-0.342402	0.506124	-0.595173
O122	O	-0.193408	1.036953	0.388955
C123	C	-0.180394	1.047286	0.484833
H124	H	-0.211686	0.984496	0.520440
H125	H	-0.234406	1.100991	0.494643
C126	C	-0.012516	1.147965	0.484479
C127	C	-0.050939	1.070843	0.528214
H128	H	0.067337	1.162500	0.511239
H129	H	-0.021285	1.141007	0.419883
H130	H	-0.057536	1.192710	0.492658
H131	H	-0.005929	1.026098	0.520025
H132	H	-0.042159	1.077795	0.592810
O133	O	0.005106	1.193775	0.032688
C134	C	0.096542	1.162026	0.101901
H135	H	0.097056	1.089676	0.096823
H136	H	0.083108	1.174947	0.173564
C137	C	0.213243	1.296487	0.093799
C138	C	0.213880	1.207627	0.087556
H139	H	0.285622	1.324618	0.084954
H140	H	0.151640	1.317879	0.047171
H141	H	0.202043	1.307242	0.153518
H142	H	0.225065	1.196872	0.027834
H143	H	0.275488	1.186234	0.134174
H144	H	-0.216700	0.344694	-0.207051
