data_functionalizedCrystal
_audit_creation_method	'MofGen! by Chris Wilmer'
_symmetry_space_group_name_H-M	'P1'
_symmetry_Int_Tables_number	1
_symmetry_cell_setting	triclinic
loop_
_symmetry_equiv_pos_as_xyz
  x,y,z
_cell_length_a	19.805407
_cell_length_b	18.050590
_cell_length_c	19.805399
_cell_angle_alpha	89.971167
_cell_angle_beta	89.984884
_cell_angle_gamma	90.015869
loop_
_atom_site_label
_atom_site_type_symbol
_atom_site_fract_x
_atom_site_fract_y
_atom_site_fract_z
Zn1	Zn	1.034755	-0.295720	-0.382688
Zn2	Zn	1.034690	-0.419915	-0.269500
Zn3	Zn	0.921575	-0.295737	-0.269516
Zn4	Zn	0.921548	-0.419866	-0.382651
O5	O	0.978142	-0.357809	-0.326089
O6	O	1.129463	-0.312207	-0.367683
O7	O	1.019669	-0.403470	-0.174786
O8	O	0.936626	-0.191810	-0.284551
O9	O	1.129415	-0.403453	-0.284524
O10	O	1.019779	-0.191797	-0.367698
O11	O	0.936564	-0.312237	-0.174798
O12	O	0.826855	-0.312190	-0.284515
O13	O	0.936581	-0.403370	-0.477372
O14	O	0.826835	-0.403388	-0.367634
O15	O	1.019754	-0.312160	-0.477400
O16	O	1.019644	-0.523833	-0.284488
O17	O	0.936519	-0.523797	-0.367619
C18	C	0.802286	-0.357786	-0.326073
C19	C	0.727054	-0.357794	-0.326082
C20	C	0.691735	-0.310367	-0.369448
C21	C	0.621047	-0.310370	-0.369451
C22	C	0.585678	-0.357806	-0.326090
C23	C	0.621002	-0.405236	-0.282718
C24	C	0.691689	-0.405228	-0.282713
C25	C	0.335929	-0.405269	-0.282739
C26	C	0.265237	-0.405275	-0.282749
C27	C	0.265286	-0.310412	-0.369477
C28	C	0.335973	-0.310404	-0.369472
C29	C	0.371291	-0.357830	-0.326098
C30	C	0.447939	-0.357825	-0.326095
C31	C	0.509031	-0.357816	-0.326096
C32	C	0.978090	-0.550762	-0.326062
C33	C	0.978130	-0.633307	-0.326073
C34	C	1.023427	-0.832750	-0.280930
C35	C	1.039957	-0.882083	-0.342704
C36	C	0.978168	-0.784438	-0.326100
C37	C	0.961707	-0.882186	-0.264353
C38	C	0.978206	-0.930423	-0.326121
C39	C	0.994729	-0.832683	-0.387907
C40	C	0.916451	-0.832782	-0.309515
C41	C	0.932957	-0.882093	-0.371332
C42	C	0.978148	-0.700339	-0.326087
C43	C	0.978227	-1.014519	-0.326141
C44	C	1.154685	-0.357833	-0.326106
C45	C	1.229917	-0.357844	-0.326113
C46	C	0.978172	-0.357758	-0.502632
C47	C	0.978184	-0.357736	-0.577864
C48	C	0.978213	-0.164104	-0.326131
C49	C	0.978243	-0.081558	-0.326149
C50	C	0.934924	-0.310227	-0.613214
C51	C	0.934933	-0.310212	-0.683902
C52	C	0.978207	-0.357704	-0.719239
C53	C	1.021470	-0.405218	-0.683885
C54	C	1.021456	-0.405236	-0.613198
C55	C	1.021523	-0.405149	-0.968958
C56	C	1.021535	-0.405126	-1.039650
C57	C	0.935000	-0.310125	-1.039663
C58	C	0.934987	-0.310143	-0.968976
C59	C	0.978246	-0.357660	-0.933627
C60	C	0.978235	-0.357676	-0.856979
C61	C	0.978222	-0.357685	-0.795887
C62	C	0.978151	-0.357807	-0.150233
C63	C	0.978270	-0.357620	-0.075001
H64	H	0.592293	-0.271752	-0.404766
O65	O	0.230849	-0.451434	-0.240719
C66	C	0.189956	-0.499450	-0.279178
H67	H	0.211280	-0.504116	-0.332475
H68	H	0.189133	-0.556565	-0.254600
H69	H	0.136389	-0.476496	-0.281558
H70	H	0.364767	-0.271779	-0.404783
O71	O	0.231052	-0.264232	-0.411574
C72	C	0.248323	-0.190190	-0.396895
H73	H	0.299637	-0.188610	-0.370873
H74	H	0.250766	-0.156963	-0.445800
H75	H	0.208531	-0.165127	-0.362143
O76	O	0.726120	-0.264394	-0.411642
C77	C	0.767029	-0.306731	-0.455276
H78	H	0.745719	-0.365230	-0.459364
H79	H	0.767852	-0.279943	-0.507408
H80	H	0.820594	-0.309253	-0.434341
O81	O	1.011453	-0.806735	-0.450184
C82	C	1.011242	-0.728630	-0.449418
H83	H	1.018798	-0.708220	-0.395485
H84	H	1.053911	-0.707012	-0.482677
H85	H	0.960846	-0.707501	-0.469472
H86	H	1.092166	-0.903741	-0.356745
H87	H	0.364676	-0.443888	-0.247422
O88	O	0.586543	-0.451291	-0.240660
C89	C	0.516579	-0.441118	-0.249952
H90	H	0.506946	-0.416871	-0.302228
H91	H	0.489705	-0.496743	-0.245272
H92	H	0.496510	-0.401515	-0.209872
H93	H	0.864257	-0.811109	-0.295455
O94	O	0.893042	-0.263866	-1.073972
C95	C	0.907850	-0.189856	-1.056707
H96	H	0.961921	-0.186120	-1.037284
H97	H	0.902039	-0.153153	-1.103202
H98	H	0.871564	-0.170448	-1.015676
H99	H	0.899703	-0.271528	-0.712681
O100	O	0.887324	-0.907908	-0.416912
C101	C	0.887469	-0.986013	-0.416049
H102	H	0.907638	-1.006367	-0.365429
H103	H	0.833798	-1.007301	-0.423563
H104	H	0.921086	-1.007530	-0.458455
H105	H	0.947769	-0.903930	-0.212127
H106	H	0.720445	-0.443848	-0.247399
H107	H	1.056775	-0.443802	-1.068420
O108	O	1.069191	-0.806931	-0.235481
C109	C	1.134211	-0.832067	-0.253227
H110	H	1.135455	-0.845879	-0.309373
H111	H	1.172819	-0.786881	-0.241967
H112	H	1.146936	-0.883764	-0.222692
H113	H	0.899689	-0.271549	-0.584447
O114	O	0.892852	-0.264089	-0.934680
C115	C	0.825392	-0.280296	-0.951957
H116	H	0.821958	-0.339619	-0.971375
H117	H	0.791946	-0.273909	-0.905470
H118	H	0.807720	-0.240467	-0.992996
O119	O	1.063617	-0.451319	-0.934731
C120	C	1.101805	-0.493238	-0.981081
H121	H	1.104160	-0.462805	-1.031477
H122	H	1.155130	-0.501164	-0.960665
H123	H	1.077007	-0.549639	-0.988582
H124	H	1.056701	-0.443891	-0.712662
O125	O	1.063542	-0.451412	-0.578961
C126	C	1.101728	-0.493340	-0.625307
H127	H	1.104098	-0.462907	-0.675702
H128	H	1.155048	-0.501282	-0.604882
H129	H	1.076917	-0.549735	-0.632812
