data_functionalizedCrystal
_audit_creation_method	'MofGen! by Chris Wilmer'
_symmetry_space_group_name_H-M	'P1'
_symmetry_Int_Tables_number	1
_symmetry_cell_setting	triclinic
loop_
_symmetry_equiv_pos_as_xyz
  x,y,z
_cell_length_a	27.440280
_cell_length_b	14.446369
_cell_length_c	14.446369
_cell_angle_alpha	59.996622
_cell_angle_beta	59.999534
_cell_angle_gamma	90.005315
loop_
_atom_site_label
_atom_site_type_symbol
_atom_site_fract_x
_atom_site_fract_y
_atom_site_fract_z
Zr1	Zr	0.469503	-0.121415	1.013144
O2	O	0.391681	-0.269252	1.206288
O3	O	0.493359	-0.076089	0.820017
O4	O	0.493354	-0.269219	1.013147
O5	O	0.391689	0.076215	1.013150
O6	O	0.573557	-0.269199	1.013129
O7	O	0.391685	-0.076122	1.013159
O8	O	0.573565	0.076274	0.667655
O9	O	0.391681	-0.269259	1.358624
O10	O	0.563388	-0.056751	0.899433
O11	O	0.503537	0.056922	0.899440
O12	O	0.503532	-0.170463	1.126825
O13	O	0.443681	-0.056790	1.126833
Zr14	Zr	0.597424	0.121576	1.013102
Zr15	Zr	0.597417	-0.121384	1.013115
Zr16	Zr	0.469510	0.121545	1.013131
Zr17	Zr	0.469504	-0.121426	1.256102
Zr18	Zr	0.597423	0.121587	0.770144
O19	O	0.573568	0.076250	1.206229
O20	O	0.573558	-0.269208	1.206248
O21	O	0.391690	0.076206	1.206270
O22	O	0.675246	0.269413	0.819957
O23	O	0.675236	-0.076046	0.819976
O24	O	0.493369	0.269369	0.819998
O25	O	0.675237	-0.076054	1.013096
O26	O	0.573572	0.269379	1.013099
O27	O	0.493369	0.269360	1.013117
O28	O	0.675242	0.076283	1.013087
O29	O	0.493356	-0.269234	1.358602
O30	O	0.573571	0.269395	0.667644
O31	O	0.675245	0.269419	0.667622
O32	O	0.675240	0.076299	0.667632
O33	O	0.391687	-0.076138	1.358614
O34	O	0.493361	-0.076114	1.358591
O35	O	0.563395	0.170624	0.899420
O36	O	0.623246	0.056951	0.899413
O37	O	0.563389	-0.056761	1.126806
O38	O	0.503538	0.056912	1.126813
C39	C	0.373462	0.000042	1.013159
C40	C	0.319159	0.000029	1.013171
C41	C	0.533462	0.000094	0.709220
C42	C	0.533461	0.000099	0.606078
C43	C	0.533472	0.303987	1.013106
C44	C	0.533475	0.407129	1.013101
C45	C	0.013706	0.059468	0.894405
C46	C	-0.037312	0.059478	0.894398
O47	O	-0.037128	0.109993	0.793451
N48	N	-0.094074	0.000121	1.013093
C49	C	-0.099816	-0.059242	1.131803
O50	O	-0.152780	-0.109728	1.232762
C51	C	-0.048798	-0.059244	1.131809
C52	C	0.007963	0.000108	1.013106
C53	C	0.070464	0.118817	0.775712
C54	C	0.121479	0.118805	0.775719
C55	C	0.115736	0.059444	0.894420
C56	C	0.058978	0.000096	1.013114
C57	C	-0.054541	-0.118599	1.250518
C58	C	-0.003516	-0.118596	1.250513
C59	C	0.053244	-0.059244	1.131810
C60	C	0.104249	-0.059277	1.131822
N61	N	0.161010	0.000081	1.013127
C62	C	0.166754	0.059442	0.894426
C63	C	-0.206954	-0.059230	1.131782
C64	C	-0.257972	-0.059234	1.131777
C65	C	-0.195465	0.059488	0.894371
C66	C	-0.144447	0.059485	0.894377
C67	C	-0.150193	0.000128	1.013086
C68	C	0.273886	0.059411	0.894451
C69	C	0.324903	0.059390	0.894470
C70	C	0.262391	-0.059327	1.131875
C71	C	0.211379	-0.059311	1.131857
C72	C	0.217130	0.000066	1.013135
O73	O	0.104111	-0.109762	1.232718
O74	O	0.219720	0.109932	0.793484
C75	C	0.693464	0.000119	1.013087
C76	C	0.747767	0.000131	1.013075
C77	C	0.533455	-0.303826	1.013140
C78	C	0.533452	-0.406969	1.013145
C79	C	0.571030	0.625514	0.869699
C80	C	0.571246	0.518282	0.869602
C81	C	0.561009	0.410464	1.084326
C82	C	0.561280	0.518233	1.083416
C83	C	0.468324	0.516832	1.086390
C84	C	0.468431	0.410862	1.083687
C85	C	0.495894	0.072121	0.459072
C86	C	0.495690	0.071830	0.566692
C87	C	0.505919	-0.123449	0.655087
C88	C	0.505637	-0.123075	0.547854
C89	C	0.598597	0.050562	0.372602
C90	C	0.598501	0.053083	0.478753
C91	C	0.533465	0.000067	1.317026
C92	C	0.533465	0.000062	1.420168
C93	C	0.693463	0.000132	0.709184
C94	C	0.747765	0.000150	0.606030
C95	C	0.533470	0.304000	0.709203
C96	C	0.533473	0.407148	0.606055
C97	C	0.693472	0.304039	0.709167
C98	C	0.747777	0.407199	0.606008
C99	C	0.373455	-0.303878	1.317079
C100	C	0.319150	-0.407038	1.420238
C101	C	0.373464	0.000028	1.317062
C102	C	0.319161	0.000011	1.420216
C103	C	0.533456	-0.303840	1.317043
C104	C	0.533454	-0.406987	1.420191
C105	C	0.742021	-0.059203	0.557598
C106	C	0.793039	-0.059209	0.460687
C107	C	0.849801	0.000145	0.412203
C108	C	0.855544	0.059500	0.460645
C109	C	0.804526	0.059499	0.557561
C110	C	0.804526	0.396308	0.557559
C111	C	0.855557	0.493229	0.460643
C112	C	0.849837	0.601040	0.412171
C113	C	0.793081	0.611929	0.460629
C114	C	0.742052	0.515009	0.557550
C115	C	0.262400	-0.396147	1.468699
C116	C	0.211370	-0.493068	1.565645
C117	C	0.217090	-0.600879	1.614122
C118	C	0.273845	-0.611768	1.565658
C119	C	0.324875	-0.514848	1.468720
C120	C	0.324905	0.059354	1.468658
C121	C	0.273887	0.059333	1.565596
C122	C	0.217126	-0.000025	1.614083
C123	C	0.211383	-0.059375	1.565637
C124	C	0.262400	-0.059360	1.468707
C125	C	0.495542	0.482132	0.459741
C126	C	0.495699	0.374793	0.566674
C127	C	0.598512	0.481727	0.479180
C128	C	0.598311	0.588597	0.371793
C129	C	0.506911	0.590153	0.546786
C130	C	0.505588	0.481470	0.655268
H131	H	0.371120	0.107725	0.797803
H132	H	-0.098233	0.107825	0.797719
Br133	Br	0.812306	0.250005	0.623328
Br134	Br	0.785231	-0.139765	0.394963
H135	H	0.695846	0.523892	0.596984
H136	H	0.457673	0.430032	0.745776
Br137	Br	0.416303	0.014321	0.518596
Br138	Br	0.540467	0.520959	0.776458
H139	H	0.257731	-0.308371	1.429234
H140	H	0.621608	0.140139	0.278846
Br141	Br	0.651325	0.522402	0.775827
Br142	Br	0.932574	0.478425	0.394896
Br143	Br	0.401890	-0.529649	1.402958
H144	H	0.695808	-0.107550	0.597072
H145	H	0.165161	-0.107702	1.605130
Br146	Br	0.281598	-0.758092	1.631460
H147	H	0.809212	0.107838	0.596982
H148	H	0.278575	0.107667	1.605024
Br149	Br	0.428295	0.596998	0.612758
Br150	Br	0.919034	0.000135	0.280673
H151	H	0.447647	0.036819	0.655506
Br152	Br	0.434148	0.411738	0.997116
Br153	Br	0.134352	-0.478264	1.631395
Br154	Br	0.417895	0.279105	1.258347
H155	H	0.371119	0.107697	1.429187
Br156	Br	0.425754	-0.190455	0.615701
H157	H	0.458450	-0.164152	0.747407
H158	H	0.175589	-0.000027	1.693009
Br159	Br	0.134345	-0.139888	1.292955
Br160	Br	0.932582	0.140051	0.394828
Br161	Br	0.078274	0.199394	0.614595
H162	H	0.619934	0.430124	0.440620
H163	H	0.175534	-0.679789	1.693055
H164	H	0.619077	0.144102	0.439142
Br165	Br	0.540406	0.715445	0.775863
Br166	Br	0.421440	0.471056	1.262520
H167	H	0.257715	-0.107681	1.429268
H168	H	0.891393	0.679949	0.333251
Br169	Br	0.641158	0.602182	0.999025
H170	H	0.626722	-0.001673	0.346624
Br171	Br	0.518627	0.473801	1.258821
Br172	Br	0.649094	-0.025292	0.514577
Br173	Br	-0.334999	-0.139807	1.292881
H174	H	0.788433	0.699721	0.421148
H175	H	0.447807	0.320507	0.656038
H176	H	0.447528	0.479784	0.496991
Br177	Br	0.548309	-0.217406	0.511212
H178	H	0.530350	0.506998	0.687387
Br179	Br	0.517591	0.279999	1.260185
H180	H	0.513803	0.481105	0.370071
H181	H	0.278578	0.107763	0.797776
Br182	Br	0.526417	0.285139	0.504237
Br183	Br	0.633767	0.588159	0.220520
Br184	Br	0.647994	0.719592	0.321829
Br185	Br	0.647676	0.527132	0.516235
H186	H	0.534415	0.668379	0.521985
H187	H	0.531970	-0.179461	0.683869
H188	H	-0.190796	0.107818	0.797718
Br189	Br	0.198506	0.199366	0.614613
H190	H	-0.211642	-0.107571	1.228455
H191	H	-0.008202	-0.166918	1.347183
Br192	Br	-0.131563	-0.199144	1.411625
H193	H	0.257725	-0.107660	1.228518
H194	H	0.618784	0.680512	0.813670
H195	H	0.608481	0.408349	1.034840
H196	H	0.445322	0.566844	1.040495
H197	H	0.514271	0.163324	0.370195
H198	H	0.514165	0.162806	0.529973
