data_functionalizedCrystal
_audit_creation_method	'MofGen! by Chris Wilmer'
_symmetry_space_group_name_H-M	'P1'
_symmetry_Int_Tables_number	1
_symmetry_cell_setting	triclinic
loop_
_symmetry_equiv_pos_as_xyz
  x,y,z
_cell_length_a	14.971491
_cell_length_b	10.723023
_cell_length_c	14.048226
_cell_angle_alpha	89.994597
_cell_angle_beta	89.991693
_cell_angle_gamma	84.041892
loop_
_atom_site_label
_atom_site_type_symbol
_atom_site_fract_x
_atom_site_fract_y
_atom_site_fract_z
O1	O	1.187817	0.162647	-0.079199
O2	O	1.687817	0.662647	0.420801
O3	O	0.927522	0.182114	-0.079192
O4	O	1.427522	0.682114	0.420808
O5	O	1.063674	-0.009258	-0.079192
O6	O	1.563674	0.490742	0.420808
O7	O	1.051665	0.354019	-0.079199
O8	O	1.551665	0.854019	0.420801
O9	O	1.063658	-0.009270	0.079129
O10	O	1.563658	0.490730	0.579129
O11	O	0.927506	0.182103	0.079129
O12	O	1.427506	0.682103	0.579129
O13	O	1.187801	0.162636	0.079122
O14	O	1.687801	0.662636	0.579122
Zn15	Zn	1.057650	0.172367	0.104263
Zn16	Zn	1.557650	0.672367	0.604263
Zn17	Zn	1.057672	0.172382	-0.104333
Zn18	Zn	1.557672	0.672382	0.395667
O19	O	1.051649	0.354008	0.079122
O20	O	1.551649	0.854008	0.579122
C21	C	0.894185	0.181237	-0.000030
C22	C	1.394185	0.681237	0.499970
C23	C	0.794874	0.178624	-0.000028
C24	C	1.294874	0.678624	0.499972
C25	C	1.062792	-0.055754	-0.000032
C26	C	1.562792	0.444246	0.499968
C27	C	1.060178	-0.194281	-0.000035
C28	C	1.560178	0.305719	0.499965
C29	C	0.367117	0.167358	-0.086350
C30	C	0.867117	0.667358	0.413650
C31	C	0.460430	0.169809	-0.086347
C32	C	0.960430	0.669809	0.413653
C33	C	0.507073	0.171036	-0.000043
C34	C	1.007073	0.671036	0.499957
C35	C	0.460400	0.169800	0.086264
C36	C	0.960400	0.669800	0.586264
C37	C	0.367089	0.167340	0.086259
C38	C	0.867089	0.667340	0.586259
C39	C	0.654889	0.174930	0.086267
C40	C	1.154889	0.674930	0.586267
C41	C	0.748206	0.177392	0.086272
C42	C	1.248206	0.677392	0.586272
C43	C	0.748230	0.177398	-0.086339
C44	C	1.248230	0.677398	0.413661
C45	C	0.654919	0.174939	-0.086343
C46	C	1.154919	0.674939	0.413657
C47	C	0.608252	0.173705	-0.000037
C48	C	1.108252	0.673705	0.499963
C49	C	1.059021	-0.256029	-0.082052
C50	C	1.559021	0.243971	0.417948
C51	C	1.056319	-0.399204	-0.082057
C52	C	1.556319	0.100796	0.417943
C53	C	1.221138	0.163513	-0.000042
C54	C	1.721138	0.663513	0.499958
C55	C	1.320449	0.166126	-0.000051
C56	C	1.820449	0.666126	0.499949
C57	C	1.052531	0.400504	-0.000040
C58	C	1.552531	0.900504	0.499960
C59	C	1.055145	0.539031	-0.000043
C60	C	1.555145	1.039031	0.499957
N61	N	1.057642	0.172357	0.246623
N62	N	1.557642	0.672357	0.746623
N63	N	1.057688	0.172383	-0.246693
N64	N	1.557688	0.672383	0.253307
C65	C	1.117949	0.087652	0.296441
C66	C	1.617949	0.587652	0.796441
C67	C	1.117955	0.087651	0.396099
C68	C	1.617955	0.587651	0.896099
C69	C	1.057658	0.172362	0.445937
C70	C	1.557658	0.672362	0.945937
C71	C	0.997344	0.257071	0.396112
C72	C	1.497344	0.757071	0.896112
C73	C	0.997334	0.257064	0.296456
C74	C	1.497334	0.757064	0.796456
C75	C	0.997370	0.257080	0.603826
C76	C	1.497370	0.757080	1.103826
C77	C	0.997380	0.257088	0.703489
C78	C	1.497380	0.757088	1.203489
C79	C	1.117991	0.087667	0.703469
C80	C	1.617991	0.587667	1.203469
C81	C	1.117981	0.087660	0.603813
C82	C	1.617981	0.587660	1.103813
C83	C	1.057668	0.172371	0.553995
C84	C	1.557668	0.672371	1.053995
H85	H	0.329146	0.166367	-0.156630
H86	H	0.829146	0.666367	0.343370
Cl87	Cl	1.060601	-0.174012	-0.190462
Cl88	Cl	1.560601	0.325988	0.309538
H89	H	0.498423	0.170804	-0.156621
H90	H	0.998423	0.670804	0.343379
Cl91	Cl	1.058612	-0.276301	0.108375
Cl92	Cl	1.558612	0.223699	0.608375
H93	H	1.167054	0.018676	0.255870
H94	H	1.667054	0.518676	0.755870
Cl95	Cl	0.921535	0.363561	0.458763
Cl96	Cl	1.421535	0.863561	0.958763
H97	H	0.786231	0.178405	-0.156613
H98	H	1.286231	0.678405	0.343387
Cl99	Cl	1.193789	-0.018826	0.541158
Cl100	Cl	1.693789	0.481174	1.041158
H101	H	0.329092	0.166350	0.156533
H102	H	0.829092	0.666350	0.656533
H103	H	1.056144	-0.407876	0.070178
H104	H	1.556144	0.092124	0.570178
Cl105	Cl	1.193771	-0.018838	0.458729
Cl106	Cl	1.693771	0.481162	0.958729
H107	H	1.167099	0.018692	0.744037
H108	H	1.667099	0.518692	1.244037
H109	H	0.948279	0.326067	0.744062
H110	H	1.448279	0.826067	1.244062
Cl111	Cl	0.921543	0.363573	0.541201
Cl112	Cl	1.421543	0.863573	1.041201
H113	H	0.948225	0.326038	0.255895
H114	H	1.448225	0.826038	0.755895
H115	H	0.616944	0.173948	-0.156620
H116	H	1.116944	0.673948	0.343380
H117	H	0.786180	0.178398	0.156549
H118	H	1.286180	0.678398	0.656549
H119	H	0.498385	0.170791	0.156534
H120	H	0.998385	0.670791	0.656534
Cl121	Cl	0.596224	0.173365	0.194769
Cl122	Cl	1.096224	0.673365	0.694769
Cl123	Cl	1.054790	-0.481183	-0.190473
Cl124	Cl	1.554790	0.018817	0.309527
