data_functionalizedCrystal
_audit_creation_method	'MofGen! by Chris Wilmer'
_symmetry_space_group_name_H-M	'P1'
_symmetry_Int_Tables_number	1
_symmetry_cell_setting	triclinic
loop_
_symmetry_equiv_pos_as_xyz
  x,y,z
_cell_length_a	19.077105
_cell_length_b	19.077585
_cell_length_c	17.077396
_cell_angle_alpha	87.729746
_cell_angle_beta	87.683249
_cell_angle_gamma	94.467729
loop_
_atom_site_label
_atom_site_type_symbol
_atom_site_fract_x
_atom_site_fract_y
_atom_site_fract_z
Zn1	Zn	1.088926	0.323997	-0.507100
Zn2	Zn	1.093548	0.441878	-0.381325
Zn3	Zn	0.971040	0.319277	-0.370361
Zn4	Zn	0.975714	0.437094	-0.507060
O5	O	1.032307	0.380562	-0.441462
O6	O	1.188189	0.343611	-0.495021
O7	O	1.077276	0.425642	-0.270024
O8	O	0.982788	0.221263	-0.383928
O9	O	1.191585	0.430218	-0.402615
O10	O	1.069398	0.224730	-0.484390
O11	O	0.987269	0.335568	-0.261968
O12	O	0.873010	0.330929	-0.383889
O13	O	0.990754	0.422065	-0.616913
O14	O	0.876444	0.417489	-0.484322
O15	O	1.073930	0.338972	-0.616942
O16	O	1.081808	0.539884	-0.402576
O17	O	0.995235	0.536370	-0.494953
C18	C	0.849149	0.373178	-0.432912
C19	C	0.770793	0.370037	-0.429273
C20	C	1.039549	0.563704	-0.449968
C21	C	1.042712	0.642056	-0.453636
C22	C	0.999145	0.677125	-0.403024
C23	C	1.002124	0.750745	-0.406474
C24	C	1.048667	0.789294	-0.460542
C25	C	1.092238	0.754220	-0.511156
C26	C	1.089263	0.680602	-0.507702
C27	C	1.062401	1.009657	-0.476483
C28	C	1.065372	1.083281	-0.479936
C29	C	0.975259	1.079800	-0.375252
C30	C	0.972284	1.006180	-0.371805
C31	C	1.015858	0.971113	-0.422417
N32	N	1.051711	0.864546	-0.464071
N33	N	1.012817	0.895863	-0.418883
C34	C	0.735791	0.413696	-0.479778
C35	C	0.662167	0.410735	-0.476363
C36	C	0.623548	0.364118	-0.422439
C37	C	0.658555	0.320454	-0.371932
C38	C	0.732177	0.323412	-0.375351
C39	C	0.403167	0.350427	-0.406616
C40	C	0.329540	0.347474	-0.403199
C41	C	0.333157	0.437754	-0.507632
C42	C	0.406780	0.440711	-0.511043
C43	C	0.441781	0.397045	-0.460539
N44	N	0.548292	0.361091	-0.418945
N45	N	0.517035	0.400068	-0.464037
C46	C	1.216181	0.387974	-0.450046
C47	C	1.294537	0.391133	-0.453703
C48	C	1.032348	0.380511	-0.646206
C49	C	1.032365	0.380490	-0.733455
C50	C	1.025016	1.196703	-0.432944
C51	C	1.021806	1.118350	-0.429323
C52	C	1.075677	0.337220	-0.774462
C53	C	1.075684	0.337197	-0.856442
C54	C	1.032383	0.380448	-0.897414
C55	C	0.989067	0.423720	-0.856401
C56	C	0.989056	0.423739	-0.774423
C57	C	0.989094	0.423678	-1.027271
C58	C	0.989105	0.423661	-1.109255
C59	C	1.075722	0.337137	-1.109290
C60	C	1.075711	0.337156	-1.027311
C61	C	1.032395	0.380429	-0.986304
C62	C	1.032305	0.380562	-0.237514
C63	C	1.032417	0.380391	-0.150262
H64	H	0.966649	0.779295	-0.365258
H65	H	1.130137	0.785613	-0.555176
H66	H	1.110939	0.302002	-0.741109
H67	H	0.298097	0.309504	-0.359291
H68	H	1.124740	0.652049	-0.548915
H69	H	0.438220	0.478673	-0.554952
O70	O	1.117666	0.295091	-0.987424
C71	C	1.075714	0.247947	-0.936043
H72	H	1.023275	0.270670	-0.922414
H73	H	1.104043	0.239654	-0.879301
H74	H	1.065900	0.195397	-0.964866
H75	H	1.110990	0.301901	-1.142681
H76	H	0.953844	0.458878	-1.142612
O77	O	0.947010	0.465791	-0.987560
C78	C	0.908788	0.503958	-1.041299
H79	H	0.937760	0.507532	-1.101204
H80	H	0.903478	0.559204	-1.019843
H81	H	0.854222	0.476001	-1.046307
O82	O	0.927092	0.968627	-0.319352
C83	C	0.933819	0.896130	-0.327144
H84	H	0.956469	0.886943	-0.388345
H85	H	0.879889	0.866078	-0.318001
H86	H	0.970538	0.876746	-0.281390
O87	O	0.946939	0.465755	-0.896076
C88	C	0.908722	0.503963	-0.842301
H89	H	0.905132	0.475004	-0.782413
H90	H	0.853479	0.509240	-0.863739
H91	H	0.936648	0.558540	-0.837267
O92	O	0.773195	0.458998	-0.532232
C93	C	0.726509	0.496908	-0.576063
H94	H	0.672888	0.465930	-0.575053
H95	H	0.748104	0.505352	-0.639239
H96	H	0.720786	0.550097	-0.549343
O97	O	0.946906	0.465673	-0.734548
C98	C	0.899794	0.423722	-0.683125
H99	H	0.893253	0.368022	-0.705050
H100	H	0.846548	0.447031	-0.680845
H101	H	0.921483	0.422190	-0.621900
O102	O	0.953837	0.639753	-0.350541
C103	C	0.884296	0.654955	-0.365213
H104	H	0.884980	0.708329	-0.397825
H105	H	0.852819	0.656271	-0.307179
H106	H	0.858856	0.612561	-0.402496
O107	O	0.932907	1.113942	-0.326197
C108	C	0.889059	1.154690	-0.370716
H109	H	0.914332	1.166657	-0.431900
H110	H	0.881722	1.206108	-0.340722
H111	H	0.835667	1.124256	-0.375524
O112	O	1.110635	1.120622	-0.532498
C113	C	1.148437	1.073884	-0.576451
H114	H	1.148799	1.021531	-0.541947
H115	H	1.204824	1.097348	-0.588489
H116	H	1.122255	1.064981	-0.634457
H117	H	0.760675	0.287856	-0.334229
O118	O	1.104623	0.975520	-0.525683
C119	C	1.062743	0.931335	-0.572490
H120	H	1.008892	0.918215	-0.541747
H121	H	1.089364	0.880693	-0.581952
H122	H	1.056107	0.959365	-0.631618
O123	O	0.299045	0.480094	-0.556660
C124	C	0.225783	0.467502	-0.542069
H125	H	0.213562	0.412670	-0.513462
H126	H	0.198020	0.471226	-0.599786
H127	H	0.206527	0.508427	-0.501162
H128	H	0.633672	0.446287	-0.517489
O129	O	0.437051	0.307984	-0.357478
C130	C	0.387174	0.266194	-0.309166
H131	H	0.335838	0.292961	-0.305295
H132	H	0.408120	0.259450	-0.247967
H133	H	0.377231	0.212381	-0.335167
H134	H	0.627105	0.282494	-0.328028
H135	H	1.110954	0.301964	-0.889826
