data_functionalizedCrystal
_audit_creation_method	'MofGen! by Chris Wilmer'
_symmetry_space_group_name_H-M	'P1'
_symmetry_Int_Tables_number	1
_symmetry_cell_setting	triclinic
loop_
_symmetry_equiv_pos_as_xyz
  x,y,z
_cell_length_a	14.853567
_cell_length_b	11.792241
_cell_length_c	13.930277
_cell_angle_alpha	89.995317
_cell_angle_beta	89.995755
_cell_angle_gamma	83.914173
loop_
_atom_site_label
_atom_site_type_symbol
_atom_site_fract_x
_atom_site_fract_y
_atom_site_fract_z
O1	O	1.196945	0.148181	-0.079765
O2	O	0.934554	0.165833	-0.079782
O3	O	1.072117	-0.008203	-0.079766
O4	O	1.059382	0.322217	-0.079780
O5	O	1.072098	-0.008206	0.079896
O6	O	0.934535	0.165829	0.079880
O7	O	1.196926	0.148177	0.079897
Zn8	Zn	1.065728	0.157003	0.105238
Zn9	Zn	1.065753	0.157008	-0.105123
O10	O	1.059363	0.322213	0.079881
C11	C	0.900953	0.165032	0.000047
C12	C	0.800860	0.162635	0.000041
C13	C	0.387884	0.049122	0.000068
C14	C	0.367408	0.255880	0.000058
C15	C	0.461451	0.258134	0.000055
C16	C	0.518715	0.155880	0.000056
C17	C	0.481936	0.051372	0.000062
C18	C	0.498237	0.362640	0.000040
C19	C	0.592285	0.364898	0.000035
C20	C	0.649550	0.262642	0.000044
C21	C	0.612766	0.158131	0.000050
C22	C	0.670030	0.055877	0.000052
C23	C	0.633248	-0.048637	0.000065
C24	C	0.539201	-0.050883	0.000070
C25	C	0.743596	0.264889	0.000039
C26	C	0.764081	0.058127	0.000046
C27	C	1.071308	-0.050491	0.000064
C28	C	1.068913	-0.176489	0.000063
C29	C	1.064511	-0.407174	0.000047
C30	C	1.066957	-0.278804	0.000056
C31	C	1.230527	0.148979	0.000066
C32	C	1.330621	0.151376	0.000066
C33	C	1.060173	0.364501	0.000049
C34	C	1.062567	0.490500	0.000044
N35	N	1.065717	0.156999	0.248804
N36	N	1.065771	0.157003	-0.248689
C37	C	1.004838	0.234041	0.701067
C38	C	1.126693	0.079966	0.701050
C39	C	1.126682	0.079963	0.600554
C40	C	1.065749	0.157000	0.550310
C41	C	1.004827	0.234042	0.600562
C42	C	1.187610	0.002930	0.550295
C43	C	1.187602	0.002925	0.449793
C44	C	1.126664	0.079958	0.399547
C45	C	1.065738	0.157001	0.449805
C46	C	1.004805	0.234039	0.399561
C47	C	0.943875	0.311078	0.449817
C48	C	0.943889	0.311075	0.550316
C49	C	1.126650	0.079961	0.299048
C50	C	1.004794	0.234040	0.299056
H51	H	0.679884	-0.131891	0.000060
H52	H	0.773540	0.349982	0.000030
O53	O	0.884777	0.386069	0.401049
C54	C	0.832870	0.583299	0.370327
C55	C	0.899859	0.498501	0.425604
H56	H	0.845027	0.674218	0.390174
H57	H	0.843336	0.570163	0.289855
H58	H	0.760600	0.568281	0.390079
H59	H	0.972154	0.513467	0.405932
H60	H	0.889313	0.511656	0.506062
O61	O	0.884798	0.385869	0.599283
C62	C	0.830788	0.454112	0.754118
C63	C	0.897765	0.369363	0.698779
H64	H	0.841236	0.440780	0.834570
H65	H	0.842976	0.545071	0.734418
H66	H	0.758515	0.439171	0.734323
H67	H	0.970063	0.384199	0.718544
H68	H	0.885499	0.278433	0.718483
O69	O	1.185834	0.004977	0.749753
C70	C	1.237640	-0.192262	0.780569
C71	C	1.170630	-0.107452	0.725328
H72	H	1.225359	-0.283179	0.760857
H73	H	1.309940	-0.177418	0.760782
H74	H	1.227189	-0.178964	0.861024
H75	H	1.180999	-0.120699	0.644860
H76	H	1.098355	-0.122318	0.745194
H77	H	0.622224	0.449998	0.000025
O78	O	0.945569	0.308987	0.250401
C79	C	0.824664	0.461758	0.261025
C80	C	0.891701	0.376962	0.316245
H81	H	0.781082	0.516723	0.314235
H82	H	0.863809	0.518633	0.213992
H83	H	0.779430	0.412631	0.213956
H84	H	0.936952	0.425997	0.363366
H85	H	0.852501	0.320089	0.363217
O86	O	0.503426	-0.152368	-0.000095
C87	C	0.409082	-0.274858	-0.082780
C88	C	0.449560	-0.159901	-0.082720
H89	H	0.365507	-0.280975	-0.149565
H90	H	0.466124	-0.347606	-0.082839
H91	H	0.365596	-0.281063	-0.015932
H92	H	0.493036	-0.153585	-0.149557
H93	H	0.392475	-0.087208	-0.082610
O94	O	1.246745	-0.072061	0.599002
C95	C	1.298545	-0.269301	0.629819
C96	C	1.231544	-0.184489	0.574570
H97	H	1.286266	-0.360217	0.610101
H98	H	1.370848	-0.254457	0.610047
H99	H	1.288081	-0.256007	0.710273
H100	H	1.241926	-0.197732	0.494104
H101	H	1.159266	-0.199354	0.594422
H102	H	0.357932	-0.035970	0.000082
O103	O	1.185864	0.005027	0.250379
C104	C	1.306777	-0.147738	0.260973
C105	C	1.239749	-0.062949	0.316209
H106	H	1.350373	-0.202702	0.314173
H107	H	1.267626	-0.204613	0.213963
H108	H	1.351999	-0.098604	0.213880
H109	H	1.194510	-0.111989	0.363354
H110	H	1.278957	-0.006074	0.363159
H111	H	0.810700	-0.025142	0.000052
O112	O	0.311693	0.355128	-0.000073
C113	C	0.193664	0.472610	-0.082818
C114	C	0.256700	0.360155	-0.082781
H115	H	0.149199	0.476722	-0.149691
H116	H	0.149056	0.476733	-0.016045
H117	H	0.236124	0.547674	-0.082774
H118	H	0.214311	0.285028	-0.082859
H119	H	0.301311	0.356132	-0.149549
H120	H	0.955226	0.296762	0.741988
H121	H	1.237214	-0.059805	0.408881
H122	H	0.451606	0.445889	0.000028
