data_functionalizedCrystal
_audit_creation_method	'MofGen! by Chris Wilmer'
_symmetry_space_group_name_H-M	'P1'
_symmetry_Int_Tables_number	1
_symmetry_cell_setting	triclinic
loop_
_symmetry_equiv_pos_as_xyz
  x,y,z
_cell_length_a	9.065218
_cell_length_b	13.596369
_cell_length_c	9.065218
_cell_angle_alpha	90.001486
_cell_angle_beta	94.984115
_cell_angle_gamma	90.006051
loop_
_atom_site_label
_atom_site_type_symbol
_atom_site_fract_x
_atom_site_fract_y
_atom_site_fract_z
O1	O	1.960406	0.081790	-0.216347
O2	O	2.293739	0.415123	0.116986
O3	O	2.627072	0.748456	0.450320
O4	O	1.531121	0.081791	-0.234094
O5	O	1.864454	0.415124	0.099240
O6	O	2.197787	0.748457	0.432573
O7	O	1.754636	0.081788	-0.010578
O8	O	2.087970	0.415121	0.322755
O9	O	2.421303	0.748455	0.656089
O10	O	1.736890	0.081792	-0.439863
O11	O	2.070223	0.415125	-0.106529
O12	O	2.403557	0.748459	0.226804
O13	O	1.754609	-0.081795	-0.010590
O14	O	2.087942	0.251538	0.322743
O15	O	2.421275	0.584872	0.656077
O16	O	1.531093	-0.081792	-0.234106
O17	O	1.864426	0.251541	0.099228
O18	O	2.197760	0.584874	0.432561
O19	O	1.960378	-0.081793	-0.216359
O20	O	2.293711	0.251540	0.116974
O21	O	2.627045	0.584873	0.450307
Zn22	Zn	1.745731	-0.107765	-0.225234
Zn23	Zn	2.079064	0.225568	0.108099
Zn24	Zn	2.412398	0.558901	0.441432
Zn25	Zn	1.745768	0.107762	-0.225218
Zn26	Zn	2.079101	0.441096	0.108115
Zn27	Zn	2.412434	0.774429	0.441448
O28	O	1.736862	-0.081791	-0.439875
O29	O	2.070196	0.251542	-0.106542
O30	O	2.403529	0.584876	0.226792
C31	C	1.476120	-0.000001	-0.232394
C32	C	1.809454	0.333333	0.100939
C33	C	2.142787	0.666666	0.434273
C34	C	1.312277	-0.000000	-0.227294
C35	C	1.645611	0.333333	0.106039
C36	C	1.978944	0.666666	0.439372
N37	N	1.745717	-0.254857	-0.225245
N38	N	2.079050	0.078476	0.108089
N39	N	2.412384	0.411810	0.441422
C40	C	1.745724	-0.343855	-0.225248
C41	C	2.079058	-0.010522	0.108085
C42	C	2.412391	0.322812	0.441419
C43	C	1.745739	-0.455506	-0.225238
C44	C	2.079072	-0.122173	0.108095
C45	C	2.412405	0.211160	0.441429
C46	C	1.745758	-0.544497	-0.225222
C47	C	2.079091	-0.211163	0.108112
C48	C	2.412424	0.122170	0.441445
C49	C	1.745774	-0.656155	-0.225213
C50	C	2.079108	-0.322822	0.108120
C51	C	2.412441	0.010511	0.441454
C52	C	2.015378	0.000000	-0.218059
C53	C	2.348712	0.333333	0.115275
C54	C	2.682045	0.666667	0.448608
C55	C	2.179221	0.000006	-0.223158
C56	C	2.512555	0.333339	0.110175
C57	C	2.845888	0.666673	0.443508
C58	C	1.752917	-0.000002	0.044403
C59	C	2.086250	0.333331	0.377736
C60	C	2.419584	0.666665	0.711069
C61	C	1.747817	0.000003	0.208245
C62	C	2.081151	0.333336	0.541579
C63	C	2.414484	0.666670	0.874912
N64	N	1.745793	0.254854	-0.225197
N65	N	2.079127	0.588188	0.108137
N66	N	2.412460	0.921521	0.441470
C67	C	1.738582	0.000001	-0.494855
C68	C	2.071915	0.333335	-0.161522
C69	C	2.405248	0.666668	0.171811
C70	C	1.743681	0.000003	-0.658698
C71	C	2.077015	0.333336	-0.325365
C72	C	2.410348	0.666670	0.007968
