data_functionalizedCrystal
_audit_creation_method	'MofGen! by Chris Wilmer'
_symmetry_space_group_name_H-M	'P1'
_symmetry_Int_Tables_number	1
_symmetry_cell_setting	triclinic
loop_
_symmetry_equiv_pos_as_xyz
  x,y,z
_cell_length_a	15.995343
_cell_length_b	15.995350
_cell_length_c	13.101050
_cell_angle_alpha	93.365140
_cell_angle_beta	86.646594
_cell_angle_gamma	83.490779
loop_
_atom_site_label
_atom_site_type_symbol
_atom_site_fract_x
_atom_site_fract_y
_atom_site_fract_z
O1	O	1.115590	0.103279	-0.085106
O2	O	0.871815	0.116612	-0.085130
O3	O	1.000366	-0.011942	-0.085117
O4	O	0.987039	0.231833	-0.085120
O5	O	0.991143	-0.002702	0.085312
O6	O	0.862591	0.125853	0.085298
O7	O	1.106366	0.112519	0.085322
Zn8	Zn	0.983014	0.120653	0.112370
Zn9	Zn	0.995167	0.108479	-0.112178
O10	O	0.977815	0.241074	0.085309
C11	C	0.836009	0.120682	0.000081
C12	C	0.743058	0.119032	0.000072
C13	C	0.572871	0.116040	0.000085
C14	C	0.549526	0.023243	0.000086
C15	C	0.452826	0.021518	0.000479
C16	C	0.405311	0.113092	0.000098
C17	C	0.429146	0.165018	0.097227
C18	C	0.525934	0.166122	0.097302
C19	C	0.536334	0.156973	-0.096514
C20	C	0.439908	0.153478	-0.097785
C21	C	0.310612	0.111431	0.000108
C22	C	0.667569	0.117704	0.000082
C23	C	0.995204	-0.038517	0.000096
C24	C	0.993552	-0.131467	0.000090
C25	C	0.987620	-0.469215	0.000093
C26	C	0.896089	-0.421799	-0.000299
C27	C	0.897720	-0.325088	0.000086
C28	C	0.990562	-0.301654	0.000091
C29	C	1.030452	-0.337456	0.097416
C30	C	1.028147	-0.434087	0.097498
C31	C	1.040528	-0.444954	-0.096312
C32	C	1.040576	-0.348078	-0.097598
C33	C	0.992230	-0.206957	0.000093
C34	C	0.985954	-0.563912	0.000097
C35	C	1.142173	0.108449	0.000109
C36	C	1.235124	0.110099	0.000111
C37	C	0.982978	0.267648	0.000094
C38	C	0.984630	0.360599	0.000093
N39	N	0.974726	0.128961	0.265617
C40	C	0.963450	0.140273	0.474659
C41	C	1.014732	0.088864	0.525540
C42	C	1.008458	0.095157	0.641858
C43	C	0.969723	0.133980	0.358330
N44	N	1.003459	0.100172	0.734575
H45	H	0.581302	-0.016502	-0.069555
C46	C	0.491966	-0.047289	0.151545
C47	C	0.422810	-0.022421	0.095029
H48	H	0.473432	-0.074409	0.209923
H49	H	0.531721	-0.085240	0.110012
H50	H	0.517635	0.000922	0.173042
H51	H	0.397145	-0.070633	0.073525
H52	H	0.383041	0.015532	0.136570
H53	H	0.855903	-0.437630	0.069100
H54	H	0.914838	0.189010	0.518451
H55	H	0.858203	-0.293434	0.069965
C56	C	0.522552	0.285064	-0.184077
C57	C	0.555323	0.249110	-0.097792
H58	H	0.534275	0.341944	-0.184854
H59	H	0.547864	0.254203	-0.244325
H60	H	0.463288	0.283438	-0.181558
H61	H	0.614588	0.250730	-0.100314
H62	H	0.530014	0.279979	-0.037528
C63	C	0.507089	-0.064229	-0.150642
C64	C	0.432231	-0.032895	-0.093484
H65	H	0.494377	-0.097830	-0.208646
H66	H	0.535037	-0.018515	-0.172742
H67	H	0.542617	-0.097605	-0.109305
H68	H	0.396706	0.000486	-0.134819
H69	H	0.404271	-0.078616	-0.071386
H70	H	1.063348	0.040125	0.481743
H71	H	1.095125	-0.466098	0.101917
H72	H	1.098465	-0.323136	0.101039
C73	C	0.856310	-0.204440	-0.093942
C74	C	0.854914	-0.291819	-0.094106
H75	H	0.829890	-0.183907	-0.152100
H76	H	0.826919	-0.178064	-0.033301
H77	H	0.913073	-0.192093	-0.096330
H78	H	0.798150	-0.304166	-0.091710
H79	H	0.884303	-0.318204	-0.154762
C80	C	0.948833	-0.354285	0.253010
C81	C	0.982822	-0.293852	0.195192
H82	H	0.919430	-0.327366	0.313373
H83	H	0.910975	-0.382147	0.213635
H84	H	0.993049	-0.394319	0.271248
H85	H	0.938605	-0.253821	0.176948
H86	H	1.020683	-0.265977	0.234575
H87	H	0.574746	-0.008370	0.069636
C88	C	0.935899	-0.520737	-0.171926
C89	C	1.005508	-0.478071	-0.195898
H90	H	0.914270	-0.541175	-0.233403
H91	H	0.952761	-0.566771	-0.132202
H92	H	0.893449	-0.483193	-0.133927
H93	H	1.047960	-0.515616	-0.233890
H94	H	0.988648	-0.432030	-0.235638
H95	H	0.548775	0.138138	0.170185
H96	H	0.540283	0.234398	0.101455
C97	C	1.133324	-0.240743	-0.111511
C98	C	1.132398	-0.327750	-0.105509
H99	H	1.190012	-0.228187	-0.116377
H100	H	1.105985	-0.223136	-0.170369
H101	H	1.104614	-0.211898	-0.051846
H102	H	1.161103	-0.356594	-0.165178
H103	H	1.159749	-0.345366	-0.046645
C104	C	1.046342	-0.358227	-0.281512
C105	C	1.001337	-0.316491	-0.194803
H106	H	1.022113	-0.338723	-0.341519
H107	H	1.103432	-0.347061	-0.282118
H108	H	1.043989	-0.417202	-0.279710
H109	H	1.003695	-0.257516	-0.196601
H110	H	0.944232	-0.327650	-0.194198
H111	H	0.397119	0.232609	0.100565
H112	H	0.405127	0.136937	0.169786
H113	H	0.568590	0.123702	-0.170158
C114	C	1.131410	-0.575514	-0.100894
C115	C	1.131699	-0.487883	-0.097205
H116	H	1.187693	-0.602018	-0.101447
H117	H	1.099756	-0.590401	-0.042478
H118	H	1.106597	-0.593556	-0.161272
H119	H	1.156506	-0.469840	-0.036823
H120	H	1.163365	-0.472990	-0.155627
H121	H	0.425239	0.115603	-0.169642
H122	H	0.863273	-0.444114	-0.070093
C123	C	0.336581	0.264068	-0.023014
C124	C	0.395895	0.243262	-0.106095
H125	H	0.309415	0.319502	-0.028137
H126	H	0.295837	0.225249	-0.023680
H127	H	0.364272	0.261576	0.039121
H128	H	0.368203	0.245748	-0.168230
H129	H	0.436646	0.282093	-0.105439
H130	H	0.991282	-0.448444	0.170247
