data_functionalizedCrystal
_audit_creation_method	'MofGen! by Chris Wilmer'
_symmetry_space_group_name_H-M	'P1'
_symmetry_Int_Tables_number	1
_symmetry_cell_setting	triclinic
loop_
_symmetry_equiv_pos_as_xyz
  x,y,z
_cell_length_a	10.967926
_cell_length_b	10.489741
_cell_length_c	10.065918
_cell_angle_alpha	99.754058
_cell_angle_beta	87.781757
_cell_angle_gamma	84.626927
loop_
_atom_site_label
_atom_site_type_symbol
_atom_site_fract_x
_atom_site_fract_y
_atom_site_fract_z
O1	O	1.618457	0.139279	-0.267162
O2	O	1.267319	0.168654	-0.184573
O3	O	1.450877	-0.031917	-0.227754
O4	O	1.434899	0.339850	-0.223980
O5	O	1.418979	-0.064468	-0.447242
O6	O	1.235421	0.136102	-0.404060
O7	O	1.586559	0.106728	-0.486649
Zn8	Zn	1.405926	0.116247	-0.480203
Zn9	Zn	1.447952	0.159135	-0.191019
O10	O	1.403002	0.307298	-0.443467
C11	C	1.206407	0.152700	-0.283741
C12	C	1.072431	0.153646	-0.252229
C13	C	0.996176	0.137204	-0.351881
C14	C	0.857703	0.138181	-0.319315
C15	C	1.433721	-0.095681	-0.337213
C16	C	1.430111	-0.237182	-0.336362
C17	C	1.313319	-0.301169	-0.308882
C18	C	1.352764	-0.411302	-0.430077
C19	C	1.384240	-0.379184	-0.213686
C20	C	1.469591	-0.345464	-0.457658
C21	C	1.501065	-0.313322	-0.241166
C22	C	1.540591	-0.423435	-0.362408
C23	C	1.647472	0.122682	-0.387478
C24	C	1.781450	0.121738	-0.418981
C25	C	1.420158	0.371063	-0.334006
C26	C	1.423769	0.512565	-0.334849
N27	N	1.377253	0.086976	-0.677566
C28	C	1.415920	0.126420	-0.911601
C29	C	1.437977	0.148960	-0.759621
N30	N	1.476635	0.188395	0.006341
H31	H	0.818673	0.106933	-0.528415
H32	H	1.290050	-0.454125	-0.509945
H33	H	1.544949	0.258137	-0.951396
O34	O	1.517355	-0.324961	-0.594375
H35	H	1.519613	-0.219329	-0.593958
H36	H	1.347615	0.056668	-0.953866
O37	O	1.045474	0.117613	-0.496834
H38	H	1.112019	0.029240	-0.518328
H39	H	1.308939	0.017224	-0.719821
O40	O	1.186113	-0.230871	-0.279103
H41	H	1.119962	-0.301849	-0.264575
O42	O	0.808406	0.157755	-0.174358
H43	H	0.885331	0.169630	-0.106314
O44	O	1.667884	-0.493460	-0.392421
H45	H	1.702990	-0.480477	-0.493670
H46	H	1.563737	-0.270464	-0.161283
O47	O	1.023147	0.173242	-0.107271
H48	H	0.956616	0.261627	-0.085765
O49	O	1.336382	-0.399922	-0.077092
H50	H	1.242031	-0.350437	-0.055147
H51	H	1.506295	0.218706	-0.717365
