data_functionalizedCrystal
_audit_creation_method	'MofGen! by Chris Wilmer'
_symmetry_space_group_name_H-M	'P1'
_symmetry_Int_Tables_number	1
_symmetry_cell_setting	triclinic
loop_
_symmetry_equiv_pos_as_xyz
  x,y,z
_cell_length_a	12.827892
_cell_length_b	11.169417
_cell_length_c	11.169409
_cell_angle_alpha	90.021683
_cell_angle_beta	89.966914
_cell_angle_gamma	89.985670
loop_
_atom_site_label
_atom_site_type_symbol
_atom_site_fract_x
_atom_site_fract_y
_atom_site_fract_z
Zn1	Zn	-0.415978	-1.834920	-0.678596
Zn2	Zn	0.084022	-1.334920	-0.178596
Zn3	Zn	-0.590765	-1.834792	-0.477910
Zn4	Zn	-0.090765	-1.334792	0.022090
Zn5	Zn	-0.416036	-1.634206	-0.477924
Zn6	Zn	0.083964	-1.134206	0.022076
Zn7	Zn	-0.590674	-1.634196	-0.678549
Zn8	Zn	-0.090674	-1.134196	-0.178549
O9	O	-0.503363	-1.734529	-0.578245
O10	O	-0.003363	-1.234529	-0.078245
O11	O	-0.439178	-2.002853	-0.651989
O12	O	0.060822	-1.502853	-0.151989
O13	O	-0.567649	-1.808134	-0.309962
O14	O	-0.067649	-1.308134	0.190038
O15	O	-0.269792	-1.660889	-0.504569
O16	O	0.230208	-1.160889	-0.004569
O17	O	-0.567593	-2.002759	-0.504546
O18	O	-0.067593	-1.502759	-0.004546
O19	O	-0.269750	-1.808353	-0.652002
O20	O	0.230250	-1.308353	-0.152002
O21	O	-0.439276	-1.660765	-0.309972
O22	O	0.060724	-1.160765	0.190028
O23	O	-0.439188	-1.466255	-0.504523
O24	O	0.060812	-0.966255	-0.004523
O25	O	-0.567438	-1.660872	-0.846505
O26	O	-0.067438	-1.160872	-0.346505
O27	O	-0.567494	-1.466248	-0.651921
O28	O	-0.067494	-0.966248	-0.151921
O29	O	-0.439090	-1.808343	-0.846540
O30	O	0.060910	-1.308343	-0.346540
O31	O	-0.736989	-1.808124	-0.504500
O32	O	-0.236989	-1.308124	-0.004500
O33	O	-0.736923	-1.660747	-0.651908
O34	O	-0.236923	-1.160747	-0.151908
C35	C	-0.503338	-1.422704	-0.578219
C36	C	-0.003338	-0.922704	-0.078219
C37	C	-0.503353	-1.289304	-0.578237
C38	C	-0.003353	-0.789304	-0.078237
C39	C	-0.774873	-1.734453	-0.578224
C40	C	-0.274873	-1.234453	-0.078224
C41	C	-0.891026	-1.734531	-0.578255
C42	C	-0.391026	-1.234531	-0.078255
C43	C	-0.942810	-1.807545	-0.505393
C44	C	-0.442810	-1.307545	-0.005393
C45	C	-1.062860	-1.807626	-0.505424
C46	C	-0.562860	-1.307626	-0.005424
C47	C	-0.230793	-1.734637	-0.578292
C48	C	0.269207	-1.234637	-0.078292
C49	C	-0.114640	-1.734683	-0.578312
C50	C	0.385360	-1.234683	-0.078312
C51	C	-0.503247	-1.734621	-0.891287
C52	C	-0.003247	-1.234621	-0.391287
C53	C	-0.503198	-1.734660	-1.024687
C54	C	-0.003198	-1.234660	-0.524687
C55	C	-0.503380	-1.047571	-0.578262
C56	C	-0.003380	-0.547571	-0.078262
C57	C	-0.503365	-1.180971	-0.578244
C58	C	-0.003365	-0.680971	-0.078244
C59	C	-0.503404	-1.734506	-0.266420
C60	C	-0.003404	-1.234506	0.233580
C61	C	-0.503159	-1.734699	-0.133021
C62	C	-0.003159	-1.234699	0.366979
H63	H	-1.107392	-1.870133	-0.443041
H64	H	-0.607392	-1.370133	0.056959
O65	O	-0.944270	-1.660194	-0.652764
O66	O	-0.444270	-1.160194	-0.152764
C67	C	-1.007280	-1.728595	-0.730314
C68	C	-0.507280	-1.228595	-0.230314
H69	H	-1.023486	-1.819599	-0.688054
H70	H	-0.523486	-1.319599	-0.188054
H71	H	-1.084102	-1.679835	-0.746296
H72	H	-0.584102	-1.179835	-0.246296
H73	H	-0.965206	-1.741662	-0.819299
H74	H	-0.465206	-1.241662	-0.319299
H75	H	-0.898269	-1.869999	-0.442995
H76	H	-0.398269	-1.369999	0.057005
H77	H	-1.070116	-1.672165	-0.640691
H78	H	-0.570116	-1.172165	-0.140691
