data_functionalizedCrystal
_audit_creation_method	'MofGen! by Chris Wilmer'
_symmetry_space_group_name_H-M	'P1'
_symmetry_Int_Tables_number	1
_symmetry_cell_setting	triclinic
loop_
_symmetry_equiv_pos_as_xyz
  x,y,z
_cell_length_a	19.188933
_cell_length_b	19.188924
_cell_length_c	16.098538
_cell_angle_alpha	92.711427
_cell_angle_beta	87.271982
_cell_angle_gamma	83.143767
loop_
_atom_site_label
_atom_site_type_symbol
_atom_site_fract_x
_atom_site_fract_y
_atom_site_fract_z
O1	O	0.929277	0.084046	-0.069232
O2	O	0.725966	0.095778	-0.069240
O3	O	0.833490	-0.011744	-0.069226
O4	O	0.821752	0.191567	-0.069246
O5	O	0.827209	-0.005487	0.069286
O6	O	0.719685	0.102034	0.069272
O7	O	0.922996	0.090302	0.069280
Zn8	Zn	0.820343	0.097162	0.091268
Zn9	Zn	0.828618	0.088918	-0.091228
O10	O	0.815471	0.197824	0.069266
C11	C	0.696814	0.098526	0.000015
C12	C	0.619310	0.097385	0.000012
C13	C	0.069478	0.085830	-0.075481
C14	C	0.142302	0.086897	-0.075484
C15	C	0.175296	0.090845	0.000018
C16	C	0.135460	0.093707	0.075530
C17	C	0.062639	0.092632	0.075531
N18	N	0.281766	0.134802	0.056214
N19	N	0.350944	0.135825	0.056208
C20	C	0.394704	0.094083	0.000019
N21	N	0.366672	0.051289	-0.056176
N22	N	0.297488	0.050269	-0.056172
C23	C	0.254258	0.092011	0.000025
C24	C	0.513495	0.092374	-0.075491
C25	C	0.586322	0.093438	-0.075491
C26	C	0.579477	0.100255	0.075525
C27	C	0.506653	0.099184	0.075523
C28	C	0.473667	0.095247	0.000013
C29	C	0.829970	-0.034627	0.000031
C30	C	0.828831	-0.112131	0.000033
C31	C	0.831724	-0.151940	-0.075470
C32	C	0.830644	-0.224763	-0.075477
C33	C	0.826686	-0.257776	0.000024
C34	C	0.823789	-0.217957	0.075538
C35	C	0.824862	-0.145135	0.075542
N36	N	0.862186	-0.374901	0.056220
N37	N	0.861168	-0.444080	0.056211
C38	C	0.823452	-0.477186	0.000016
N39	N	0.786802	-0.438501	-0.056181
N40	N	0.787822	-0.369317	-0.056174
C41	C	0.825522	-0.336739	0.000028
C42	C	0.825173	-0.595958	-0.075499
C43	C	0.824089	-0.668782	-0.075502
C44	C	0.817241	-0.661975	0.075514
C45	C	0.818319	-0.589152	0.075515
C46	C	0.822288	-0.556148	0.000006
C47	C	0.952147	0.087554	0.000023
C48	C	1.029652	0.088695	0.000020
C49	C	0.818991	0.220706	0.000007
C50	C	0.820130	0.298211	-0.000000
N51	N	0.814700	0.102787	0.215816
N52	N	0.834267	0.083288	-0.215776
C53	C	0.860354	0.057166	0.259407
C54	C	0.856414	0.061108	0.346596
C55	C	0.806821	0.110674	0.390191
C56	C	0.761162	0.156296	0.346594
C57	C	0.765100	0.152351	0.259407
C58	C	0.792545	0.124965	0.653440
C59	C	0.788612	0.128908	0.740633
C60	C	0.883863	0.033718	0.740628
C61	C	0.887800	0.029780	0.653439
C62	C	0.842138	0.075400	0.609850
C63	C	0.802793	0.114706	0.479312
C64	C	0.846163	0.071365	0.520731
H65	H	0.474226	0.101520	0.137005
H66	H	0.834954	-0.125074	-0.136956
O67	O	0.481397	0.088667	-0.148815
C68	C	0.431374	0.148290	-0.153326
H69	H	0.445725	0.192803	-0.110485
H70	H	0.430855	0.165555	-0.220109
H71	H	0.377094	0.134727	-0.133035
O72	O	0.928112	-0.010665	0.783011
C73	C	0.888574	-0.051351	0.833477
H74	H	0.834705	-0.053579	0.807214
H75	H	0.917185	-0.106874	0.834474
H76	H	0.881862	-0.026500	0.899550
H77	H	0.820565	-0.244840	0.137011
H78	H	0.606340	0.103466	0.137001
H79	H	0.720779	0.196652	0.382095
H80	H	0.828401	-0.569085	-0.136983
H81	H	0.928182	-0.010580	0.617945
O82	O	0.822080	-0.106569	0.148964
C83	C	0.818332	-0.151315	0.215605
H84	H	0.840670	-0.207183	0.193471
H85	H	0.850135	-0.132431	0.268418
H86	H	0.761163	-0.150514	0.238814
O87	O	0.833542	-0.263521	-0.148778
C88	C	0.893590	-0.313931	-0.153315
H89	H	0.910611	-0.324596	-0.087761
H90	H	0.880687	-0.364754	-0.185288
H91	H	0.938027	-0.293206	-0.190565
O92	O	0.624903	0.090678	-0.148912
C93	C	0.580171	0.086955	-0.215554
H94	H	0.524299	0.109290	-0.193418
H95	H	0.599068	0.118774	-0.268362
H96	H	0.580972	0.029794	-0.238772
O97	O	0.826942	-0.707356	-0.148925
C98	C	0.830663	-0.662604	-0.215564
H99	H	0.852516	-0.612653	-0.193419
H100	H	0.866648	-0.690562	-0.268362
H101	H	0.775834	-0.648411	-0.238799
O102	O	0.813291	-0.694092	0.148809
C103	C	0.751993	-0.727892	0.153321
H104	H	0.734662	-0.739065	0.087759
H105	H	0.763370	-0.779476	0.185290
H106	H	0.708382	-0.692468	0.190563
H107	H	0.727922	0.189499	0.223916
O108	O	0.815547	-0.550587	0.148934
C109	C	0.811805	-0.595335	0.215575
H110	H	0.834140	-0.651202	0.193436
H111	H	0.843614	-0.576454	0.268382
H112	H	0.754638	-0.594534	0.238792
O113	O	0.740495	0.177037	0.783112
C114	C	0.746805	0.170725	0.869412
H115	H	0.801858	0.145034	0.881306
H116	H	0.737375	0.225119	0.902538
H117	H	0.706284	0.136921	0.894177
O118	O	0.908550	0.008956	0.217191
C119	C	0.948011	-0.030453	0.274367
H120	H	0.916581	-0.028357	0.336523
H121	H	0.959974	-0.087379	0.249188
H122	H	0.999386	-0.007491	0.283622
O123	O	0.748163	0.169355	0.611233
C124	C	0.703539	0.213938	0.668411
H125	H	0.729359	0.217466	0.730551
H126	H	0.693850	0.268584	0.643212
H127	H	0.651327	0.191814	0.677706
H128	H	0.886539	0.031005	0.485233
H129	H	0.893588	0.023960	0.382087
H130	H	0.762415	0.155064	0.514815
H131	H	0.042625	0.082621	-0.136968
O132	O	0.180890	0.084149	-0.148905
C133	C	0.136161	0.080427	-0.215550
H134	H	0.080287	0.102749	-0.193413
H135	H	0.155054	0.112257	-0.268349
H136	H	0.136975	0.023267	-0.238779
H137	H	0.162328	0.096920	0.137004
H138	H	0.030211	0.094968	0.137015
