data_functionalizedCrystal
_audit_creation_method	'MofGen! by Chris Wilmer'
_symmetry_space_group_name_H-M	'P1'
_symmetry_Int_Tables_number	1
_symmetry_cell_setting	triclinic
loop_
_symmetry_equiv_pos_as_xyz
  x,y,z
_cell_length_a	16.109302
_cell_length_b	16.109301
_cell_length_c	18.366186
_cell_angle_alpha	89.993749
_cell_angle_beta	89.989012
_cell_angle_gamma	83.461682
loop_
_atom_site_label
_atom_site_type_symbol
_atom_site_fract_x
_atom_site_fract_y
_atom_site_fract_z
O1	O	1.103137	0.106871	-0.060582
O2	O	1.603137	0.606871	0.439418
O3	O	0.861075	0.120170	-0.060577
O4	O	1.361075	0.620170	0.439423
O5	O	0.988756	-0.007510	-0.060575
O6	O	1.488756	0.492490	0.439425
O7	O	0.975456	0.234552	-0.060584
O8	O	1.475456	0.734552	0.439416
O9	O	0.988734	-0.007517	0.060525
O10	O	1.488734	0.492483	0.560525
O11	O	0.861053	0.120164	0.060523
O12	O	1.361053	0.620164	0.560523
O13	O	1.103115	0.106865	0.060517
O14	O	1.603115	0.606865	0.560517
Zn15	Zn	0.982081	0.113513	0.079747
Zn16	Zn	1.482081	0.613513	0.579747
Zn17	Zn	0.982109	0.113522	-0.079807
Zn18	Zn	1.482109	0.613522	0.420193
O19	O	0.975435	0.234545	0.060515
O20	O	1.475435	0.734545	0.560515
C21	C	0.830089	0.119628	-0.000026
C22	C	1.330089	0.619628	0.499974
C23	C	0.737794	0.118013	-0.000024
C24	C	1.237794	0.618013	0.499976
C25	C	0.525441	0.114274	0.065980
C26	C	1.025441	0.614274	0.565980
C27	C	0.438721	0.112747	0.065978
C28	C	0.938721	0.612747	0.565978
C29	C	0.438755	0.112758	-0.066051
C30	C	0.938755	0.612758	0.433949
C31	C	0.525475	0.114279	-0.066048
C32	C	1.025475	0.614279	0.433952
C33	C	0.568815	0.115041	-0.000030
C34	C	1.068815	0.615041	0.499970
C35	C	0.395375	0.111994	-0.000036
C36	C	0.895375	0.611994	0.499964
C37	C	0.301350	0.110338	-0.000039
C38	C	0.801350	0.610338	0.499961
C39	C	0.662847	0.116695	-0.000027
C40	C	1.162847	0.616695	0.499973
C41	C	0.988206	-0.038488	-0.000025
C42	C	1.488206	0.461512	0.499975
C43	C	0.986591	-0.130784	-0.000026
C44	C	1.486591	0.369216	0.499974
C45	C	1.057074	-0.439782	-0.000041
C46	C	1.557074	0.060218	0.499959
C47	C	1.058599	-0.353062	-0.000036
C48	C	1.558599	0.146938	0.499964
C49	C	0.907111	-0.333189	-0.000023
C50	C	1.407111	0.166811	0.499977
C51	C	0.905586	-0.419907	-0.000022
C52	C	1.405586	0.080093	0.499978
C53	C	0.980570	-0.473202	-0.000035
C54	C	1.480570	0.026798	0.499965
C55	C	0.983620	-0.299763	-0.000031
C56	C	1.483620	0.200237	0.499969
C57	C	0.985273	-0.205737	-0.000027
C58	C	1.485273	0.294263	0.499973
C59	C	0.978917	-0.567234	-0.000038
C60	C	1.478917	-0.067234	0.499962
C61	C	1.134101	0.107407	-0.000035
C62	C	1.634101	0.607407	0.499965
C63	C	1.226396	0.109022	-0.000042
C64	C	1.726396	0.609022	0.499958
C65	C	0.975984	0.265523	-0.000036
C66	C	1.475984	0.765523	0.499964
C67	C	0.977600	0.357819	-0.000040
C68	C	1.477600	0.857819	0.499960
N69	N	0.982067	0.113507	0.188638
N70	N	1.482067	0.613507	0.688638
N71	N	0.982129	0.113521	-0.188698
N72	N	1.482129	0.613521	0.311302
C73	C	1.038623	0.056998	0.226739
C74	C	1.538623	0.556998	0.726739
C75	C	1.038628	0.056994	0.302967
C76	C	1.538628	0.556994	0.802967
C77	C	0.982086	0.113514	0.341091
C78	C	1.482086	0.613514	0.841091
C79	C	0.925520	0.170027	0.302981
C80	C	1.425520	0.670027	0.802981
C81	C	0.925511	0.170024	0.226754
C82	C	1.425511	0.670024	0.726754
C83	C	0.971173	0.189236	0.461848
C84	C	1.471173	0.689236	0.961848
C85	C	0.971188	0.189241	0.538073
C86	C	1.471188	0.689241	1.038073
C87	C	0.982109	0.113524	0.576198
C88	C	1.482109	0.613524	1.076198
C89	C	0.993034	0.037800	0.538089
C90	C	1.493034	0.537800	1.038089
C91	C	0.993025	0.037797	0.461863
C92	C	1.493025	0.537797	0.961863
C93	C	0.982089	0.113524	0.423746
C94	C	1.482089	0.613524	0.923746
C95	C	1.038674	0.057007	0.696955
C96	C	1.538674	0.557007	1.196955
C97	C	1.038673	0.057002	0.773184
C98	C	1.538673	0.557002	1.273184
C99	C	0.925569	0.170042	0.773196
C100	C	1.425569	0.670042	1.273196
C101	C	0.925565	0.170040	0.696968
C102	C	1.425565	0.670040	1.196968
C103	C	0.982122	0.113523	0.658852
C104	C	1.482122	0.613523	1.158852
H105	H	0.560791	0.114902	-0.119805
H106	H	1.060791	0.614902	0.380195
H107	H	0.843284	-0.447118	-0.000014
H108	H	1.343284	0.052882	0.499986
O109	O	1.099610	-0.003967	0.185627
O110	O	1.599610	0.496033	0.685627
H111	H	1.138931	-0.043268	0.224932
H112	H	1.638931	0.456732	0.724932
H113	H	0.846061	-0.289786	-0.000015
H114	H	1.346061	0.210214	0.499985
O115	O	0.391914	0.112148	0.137177
O116	O	0.891914	0.612148	0.637177
H117	H	0.324321	0.111036	0.126087
H118	H	0.824321	0.611036	0.626087
O119	O	0.392005	0.111934	-0.137252
O120	O	0.892005	0.611934	0.362748
H121	H	0.436738	0.112712	-0.183153
H122	H	0.936738	0.612712	0.316847
O123	O	0.864606	0.231015	0.814318
O124	O	1.364606	0.731015	1.314318
H125	H	0.875193	0.295825	0.799669
H126	H	1.375193	0.795825	1.299669
O127	O	1.137945	-0.497268	-0.000041
O128	O	1.637945	0.002732	0.499959
H129	H	1.191398	-0.459455	-0.000035
H130	H	1.691398	0.040545	0.499965
H131	H	1.084684	0.010976	0.333995
H132	H	1.584684	0.510976	0.833995
H133	H	1.120896	-0.325856	-0.000040
H134	H	1.620896	0.174144	0.499960
O135	O	1.004792	-0.043869	0.420756
O136	O	1.504792	0.456131	0.920756
H137	H	1.012381	-0.096523	0.460066
H138	H	1.512381	0.403477	0.960066
O139	O	1.004808	-0.043876	0.579196
O140	O	1.504808	0.456124	1.079196
H141	H	1.002968	-0.031156	0.638603
H142	H	1.502968	0.468844	1.138603
O143	O	1.099659	-0.003956	0.655835
O144	O	1.599659	0.496044	1.155835
H145	H	1.138978	-0.043263	0.695139
H146	H	1.638978	0.456737	1.195139
O147	O	1.099684	-0.003941	0.814285
O148	O	1.599684	0.496059	1.314285
H149	H	1.139015	-0.043230	0.774971
H150	H	1.639015	0.456770	1.274971
O151	O	0.864576	0.230998	0.655865
O152	O	1.364576	0.730998	1.155865
H153	H	0.825263	0.270306	0.695179
H154	H	1.325263	0.770306	1.195179
O155	O	0.959422	0.270910	0.579176
O156	O	1.459422	0.770910	1.079176
H157	H	0.951815	0.323559	0.539861
H158	H	1.451815	0.823559	1.039861
O159	O	0.959398	0.270907	0.420729
O160	O	1.459398	0.770907	0.920729
H161	H	0.951819	0.323561	0.460033
H162	H	1.451819	0.823561	0.960033
O163	O	0.864537	0.230994	0.344093
O164	O	1.364537	0.730994	0.844093
H165	H	0.874051	0.221511	0.403500
H166	H	1.374051	0.721511	0.903500
O167	O	0.864513	0.230974	0.185647
O168	O	1.364513	0.730974	0.685647
H169	H	0.875086	0.295794	0.200259
H170	H	1.375086	0.795794	0.700259
O171	O	0.572191	0.115097	0.137181
O172	O	1.072191	0.615097	0.637181
H173	H	0.527458	0.114303	0.183081
H174	H	1.027458	0.614303	0.683081
