data_functionalizedCrystal
_audit_creation_method	'MofGen! by Chris Wilmer'
_symmetry_space_group_name_H-M	'P1'
_symmetry_Int_Tables_number	1
_symmetry_cell_setting	triclinic
loop_
_symmetry_equiv_pos_as_xyz
  x,y,z
_cell_length_a	17.640280
_cell_length_b	12.759395
_cell_length_c	12.759387
_cell_angle_alpha	89.979491
_cell_angle_beta	101.231497
_cell_angle_gamma	101.197723
loop_
_atom_site_label
_atom_site_type_symbol
_atom_site_fract_x
_atom_site_fract_y
_atom_site_fract_z
Zn1	Zn	-0.314594	-1.690820	0.509546
Zn2	Zn	-0.446788	-1.726239	0.298376
Zn3	Zn	-0.314637	-1.515129	0.333871
Zn4	Zn	-0.446732	-1.550624	0.474030
O5	O	-0.380688	-1.620703	0.403956
O6	O	-0.332135	-1.842541	0.481542
O7	O	-0.429300	-1.698204	0.156052
O8	O	-0.204025	-1.508757	0.386893
O9	O	-0.429258	-1.868563	0.326397
O10	O	-0.203994	-1.637836	0.515961
O11	O	-0.332209	-1.543102	0.182130
O12	O	-0.332154	-1.372815	0.352455
O13	O	-0.429162	-1.569253	0.625774
O14	O	-0.429204	-1.398893	0.455429
O15	O	-0.332081	-1.672254	0.651867
O16	O	-0.557387	-1.732621	0.291959
O17	O	-0.557346	-1.603597	0.421011
C18	C	-0.380678	-1.347733	0.403940
C19	C	-0.380693	-1.230960	0.403954
C20	C	-0.586045	-1.675833	0.348802
C21	C	-0.673898	-1.699514	0.325242
C22	C	-0.380610	-1.620761	0.678010
C23	C	-0.380577	-1.620786	0.794796
C24	C	-0.962865	-1.441233	0.583319
C25	C	-1.045416	-1.463487	0.561148
C26	C	-1.045394	-1.597922	0.426902
C27	C	-0.962841	-1.575683	0.449066
C28	C	-0.921583	-1.497337	0.527275
C29	C	-0.921559	-1.631787	0.393021
C30	C	-0.839013	-1.609546	0.415179
C31	C	-0.797750	-1.531201	0.493383
C32	C	-0.839038	-1.475095	0.549433
C33	C	-0.962818	-1.710128	0.314807
C34	C	-0.921536	-1.766232	0.258762
C35	C	-0.838989	-1.743997	0.280925
C36	C	-0.797726	-1.665651	0.359129
C37	C	-0.797702	-1.800102	0.224875
C38	C	-0.715156	-1.777861	0.247033
C39	C	-0.715180	-1.643410	0.381287
C40	C	-0.174529	-1.565386	0.459348
C41	C	-0.086676	-1.541814	0.482953
C42	C	-0.380698	-1.894739	0.403972
C43	C	-0.380703	-2.011517	0.403979
C44	C	-0.481915	-1.258197	0.510919
C45	C	-0.532532	-1.216957	0.564404
C46	C	-0.532541	-1.107238	0.564414
C47	C	-0.481927	-1.038755	0.510937
C48	C	-0.431310	-1.079995	0.457453
C49	C	-0.431307	-1.189719	0.457446
C50	C	-0.330086	-1.052757	0.350495
C51	C	-0.330079	-1.162477	0.350477
C52	C	-0.279471	-0.984275	0.297017
C53	C	-0.228857	-1.025516	0.243526
C54	C	-0.228850	-1.135242	0.243516
C55	C	-0.279462	-1.203718	0.296992
C56	C	-0.380708	-1.620690	0.130983
C57	C	-0.380518	-1.620809	0.014258
C58	C	-0.279493	-1.728052	0.821985
C59	C	-0.228939	-1.781697	0.890443
C60	C	-0.228910	-1.781715	1.000173
C61	C	-0.279439	-1.728080	1.041445
C62	C	-0.329993	-1.674435	0.972987
C63	C	-0.330018	-1.674426	0.863256
C64	C	-0.431072	-1.567164	0.945799
C65	C	-0.431106	-1.567151	0.836068
C66	C	-0.481601	-1.513529	0.987072
C67	C	-0.532160	-1.459890	0.918612
C68	C	-0.532188	-1.459875	0.808876
C69	C	-0.481660	-1.513507	0.767610
H70	H	-0.730536	-1.513086	0.511415
H71	H	-0.279405	-1.728088	1.130796
H72	H	-0.481571	-1.513542	1.076421
N73	N	-0.794529	-1.390606	0.633800
H74	H	-0.833205	-1.358440	0.665951
H75	H	-0.760326	-1.332791	0.600175
N76	N	-0.586638	-1.402020	0.963129
H77	H	-0.578941	-1.410159	1.043032
H78	H	-0.643100	-1.433498	0.928797
N79	N	-0.279459	-1.322059	0.296989
H80	H	-0.225257	-1.333946	0.330984
H81	H	-0.293950	-1.352267	0.220975
N82	N	-1.089895	-1.682410	0.342539
H83	H	-1.148452	-1.687984	0.337001
H84	H	-1.075419	-1.753537	0.362842
N85	N	-0.587124	-1.290824	0.622072
H86	H	-0.643581	-1.286875	0.590459
H87	H	-0.574857	-1.268449	0.700436
H88	H	-0.573347	-1.416177	0.753145
H89	H	-0.279519	-1.728055	0.732637
N90	N	-0.174450	-1.839554	0.845924
H91	H	-0.142421	-1.873539	0.905943
H92	H	-0.137877	-1.786974	0.810219
H93	H	-0.929271	-1.377442	0.647013
N94	N	-1.051850	-1.734116	0.290910
H95	H	-1.071682	-1.811523	0.304955
H96	H	-1.071711	-1.720143	0.213475
H97	H	-0.187740	-1.825389	1.055914
N98	N	-0.587140	-1.062754	0.622090
H99	H	-0.579463	-0.982857	0.613977
H100	H	-0.574911	-1.078678	0.700438
N101	N	-0.481697	-1.513477	0.649258
H102	H	-0.496242	-1.589439	0.618920
H103	H	-0.427469	-1.479569	0.637485
H104	H	-1.079025	-1.417807	0.606805
N105	N	-0.670665	-1.558916	0.465646
H106	H	-0.684984	-1.579054	0.536884
H107	H	-0.685094	-1.487771	0.445307
H108	H	-0.481932	-0.949415	0.510961
H109	H	-0.955140	-1.830019	0.195081
H110	H	-0.681544	-1.823546	0.201394
H111	H	-0.187647	-0.969749	0.199995
N112	N	-0.842213	-1.884584	0.140512
H113	H	-0.876422	-1.942462	0.174063
H114	H	-0.803490	-1.916671	0.108390
N115	N	-0.481915	-1.376539	0.510904
H116	H	-0.427713	-1.388433	0.544895
H117	H	-0.496406	-1.406736	0.434885
N118	N	-0.279483	-0.865936	0.297016
H119	H	-0.319233	-0.850201	0.339004
H120	H	-0.293921	-0.843451	0.220994
H121	H	-0.187626	-1.168811	0.199972
