data_functionalizedCrystal
_audit_creation_method	'MofGen! by Chris Wilmer'
_symmetry_space_group_name_H-M	'P1'
_symmetry_Int_Tables_number	1
_symmetry_cell_setting	triclinic
loop_
_symmetry_equiv_pos_as_xyz
  x,y,z
_cell_length_a	12.376457
_cell_length_b	23.532407
_cell_length_c	13.339070
_cell_angle_alpha	80.760975
_cell_angle_beta	104.388263
_cell_angle_gamma	101.241603
loop_
_atom_site_label
_atom_site_type_symbol
_atom_site_fract_x
_atom_site_fract_y
_atom_site_fract_z
O1	O	0.093914	-0.767162	0.142031
O2	O	0.093934	-0.604157	0.159776
O3	O	0.093923	-0.666952	0.003828
O4	O	0.093925	-0.704367	0.297979
O5	O	-0.094092	-0.682684	-0.035062
O6	O	-0.094081	-0.619889	0.120886
O7	O	-0.094101	-0.782894	0.103142
Zn8	Zn	-0.123942	-0.703889	0.105840
Zn9	Zn	0.123775	-0.683162	0.157078
O10	O	-0.094090	-0.720099	0.259090
C11	C	-0.000070	-0.590734	0.139880
C12	C	-0.000062	-0.527297	0.138523
N13	N	-0.293003	-0.718039	0.070870
C14	C	-0.000088	-0.245352	0.040631
C15	C	-0.000089	-0.304956	0.041893
O16	O	-0.000129	-0.329186	-0.035768
N17	N	-0.000081	-0.342526	0.134604
C18	C	-0.000084	-0.320492	0.226057
O19	O	-0.000078	-0.357922	0.305031
C20	C	-0.000091	-0.260890	0.224793
C21	C	-0.000087	-0.223321	0.132078
C22	C	-0.000085	-0.207784	-0.052076
C23	C	-0.000082	-0.148184	-0.053337
C24	C	-0.000081	-0.126152	0.038110
C25	C	-0.000084	-0.163721	0.130818
C26	C	-0.000102	-0.238857	0.316244
C27	C	-0.000110	-0.179250	0.314971
C28	C	-0.000106	-0.141681	0.222256
C29	C	-0.000080	-0.082090	0.221004
N30	N	-0.000088	-0.044519	0.128293
C31	C	-0.000089	-0.066550	0.036846
C32	C	-0.000071	-0.445660	0.228705
C33	C	-0.000056	-0.505260	0.229972
C34	C	-0.000063	-0.489720	0.045806
C35	C	-0.000070	-0.430118	0.044542
C36	C	-0.000079	-0.408089	0.135994
C37	C	-0.000081	0.058613	0.034205
C38	C	-0.000073	0.118218	0.032954
C39	C	-0.000072	0.102672	0.217118
C40	C	-0.000074	0.043073	0.218371
C41	C	-0.000082	0.021045	0.126906
O42	O	-0.000044	-0.057819	0.298623
O43	O	-0.000109	-0.029116	-0.042118
N44	N	0.292836	-0.669015	0.192039
C45	C	0.647807	-0.750895	-0.010279
C46	C	0.529465	-0.760801	-0.034738
C47	C	0.470302	-0.737855	0.021955
C48	C	0.529492	-0.705002	0.103110
C49	C	0.647845	-0.695092	0.127566
C50	C	0.470341	-0.682052	0.159799
C51	C	0.529531	-0.649199	0.240955
C52	C	0.647873	-0.639290	0.265407
C53	C	0.707036	-0.662236	0.208715
C54	C	0.351988	-0.691963	0.135343
C55	C	0.352026	-0.636159	0.273188
C56	C	0.470368	-0.626254	0.297647
C57	C	-0.000082	-0.668498	-0.053242
C58	C	-0.000075	-0.649658	-0.165353
C59	C	-0.000089	0.203683	0.123039
C60	C	-0.000073	0.140249	0.124401
C61	C	-0.000094	-0.796141	-0.531622
C62	C	-0.000107	-0.813844	-0.426290
C63	C	-0.000099	-0.772799	-0.361051
C64	C	-0.000078	-0.714048	-0.401154
C65	C	-0.000074	-0.696344	-0.506498
C66	C	-0.000079	-0.673002	-0.335927
C67	C	-0.000058	-0.614251	-0.376030
C68	C	-0.000053	-0.596550	-0.481364
C69	C	-0.000062	-0.637595	-0.546603
C70	C	-0.000083	-0.690706	-0.230582
C71	C	-0.000063	-0.590909	-0.205458
C72	C	-0.000050	-0.573207	-0.310791
C73	C	-0.000082	-0.718553	0.316160
C74	C	-0.000082	-0.737392	0.428273
H75	H	-0.000067	0.148805	-0.042548
F76	F	0.344352	-0.748399	-0.004077
H77	H	-0.000100	-0.738541	-0.197941
F78	F	0.289066	-0.611735	0.333525
H79	H	-0.000066	0.120621	0.291572
H80	H	-0.000087	0.040686	-0.040274
F81	F	0.710868	-0.604318	0.351769
F82	F	-0.000063	0.003089	0.317051
H83	H	-0.000126	-0.861678	-0.393646
H84	H	-0.000034	-0.525371	-0.343458
F85	F	-0.000046	-0.534024	-0.524045
F86	F	0.832990	-0.651696	0.234750
F87	F	-0.000060	-0.547224	-0.136032
F88	F	-0.000069	-0.108206	-0.152016
H89	H	-0.000064	-0.507668	-0.028655
F90	F	0.466474	-0.795763	-0.121105
H91	H	-0.000110	-0.787216	-0.275285
H92	H	0.695985	-0.769570	-0.056435
H93	H	0.518575	-0.599504	0.363725
F94	F	-0.000121	-0.839818	-0.601062
H95	H	-0.000089	-0.225714	-0.126549
F96	F	-0.000038	-0.545236	0.328656
F97	F	0.000058	-0.618748	-0.658690
F98	F	-0.000068	-0.422220	0.326049
F99	F	-0.000070	-0.390139	-0.054137
H100	H	-0.000100	-0.269436	0.391743
H101	H	0.303805	-0.718711	0.069266
F102	F	-0.000124	-0.155810	0.412309
