data_functionalizedCrystal
_audit_creation_method	'MofGen! by Chris Wilmer'
_symmetry_space_group_name_H-M	'P1'
_symmetry_Int_Tables_number	1
_symmetry_cell_setting	triclinic
loop_
_symmetry_equiv_pos_as_xyz
  x,y,z
_cell_length_a	14.971490
_cell_length_b	14.971486
_cell_length_c	14.048226
_cell_angle_alpha	89.996181
_cell_angle_beta	89.992815
_cell_angle_gamma	83.614888
loop_
_atom_site_label
_atom_site_type_symbol
_atom_site_fract_x
_atom_site_fract_y
_atom_site_fract_z
O1	O	-1.186943	-0.116577	0.079213
O2	O	-0.853610	0.216756	0.412546
O3	O	-0.520277	0.550090	0.745879
O4	O	-0.926544	-0.130532	0.079203
O5	O	-0.593210	0.202801	0.412537
O6	O	-0.259877	0.536134	0.745870
O7	O	-1.063723	0.006645	0.079201
O8	O	-0.730389	0.339979	0.412535
O9	O	-0.397056	0.673312	0.745868
O10	O	-1.049764	-0.253755	0.079214
O11	O	-0.716431	0.079579	0.412548
O12	O	-0.383097	0.412912	0.745881
O13	O	-1.063710	0.006647	-0.079120
O14	O	-0.730376	0.339980	0.254213
O15	O	-0.397043	0.673313	0.587547
O16	O	-0.926530	-0.130531	-0.079118
O17	O	-0.593197	0.202802	0.254215
O18	O	-0.259864	0.536136	0.587549
O19	O	-1.186930	-0.116576	-0.079109
O20	O	-0.853597	0.216758	0.254225
O21	O	-0.520263	0.550091	0.587558
Zn22	Zn	-1.056728	-0.123553	-0.104250
Zn23	Zn	-0.723395	0.209780	0.229083
Zn24	Zn	-0.390062	0.543113	0.562416
Zn25	Zn	-1.056745	-0.123555	0.104345
Zn26	Zn	-0.723412	0.209779	0.437678
Zn27	Zn	-0.390079	0.543112	0.771012
O28	O	-1.049751	-0.253753	-0.079107
O29	O	-0.716418	0.079580	0.254226
O30	O	-0.383084	0.412913	0.587560
C31	C	-0.893212	-0.129907	0.000041
C32	C	-0.559879	0.203426	0.333375
C33	C	-0.226546	0.536760	0.666708
C34	C	-0.793915	-0.128035	0.000038
C35	C	-0.460582	0.205298	0.333371
C36	C	-0.127249	0.538632	0.666704
C37	C	-0.366217	-0.119958	0.086356
C38	C	-0.032883	0.213376	0.419690
C39	C	0.300450	0.546709	0.753023
C40	C	-0.459517	-0.121714	0.086354
C41	C	-0.126184	0.211619	0.419687
C42	C	0.207150	0.544953	0.753020
C43	C	-0.506156	-0.122597	0.000050
C44	C	-0.172822	0.210736	0.333383
C45	C	0.160511	0.544069	0.666717
C46	C	-0.459490	-0.121715	-0.086257
C47	C	-0.126157	0.211618	0.247076
C48	C	0.207176	0.544952	0.580410
C49	C	-0.366193	-0.119952	-0.086253
C50	C	-0.032859	0.213381	0.247080
C51	C	0.300474	0.546714	0.580413
C52	C	-0.653952	-0.125391	-0.086258
C53	C	-0.320619	0.207942	0.247075
C54	C	0.012714	0.541275	0.580408
C55	C	-0.747256	-0.127156	-0.086263
C56	C	-0.413923	0.206178	0.247071
C57	C	-0.080590	0.539511	0.580404
C58	C	-0.747277	-0.127153	0.086348
C59	C	-0.413943	0.206181	0.419682
C60	C	-0.080610	0.539514	0.753015
C61	C	-0.653979	-0.125390	0.086352
C62	C	-0.320646	0.207943	0.419685
C63	C	0.012688	0.541277	0.753019
C64	C	-0.607320	-0.124510	0.000045
C65	C	-0.273986	0.208824	0.333378
C66	C	0.059347	0.542157	0.666712
C67	C	-1.063092	0.039971	0.000041
C68	C	-0.729759	0.373304	0.333374
C69	C	-0.396425	0.706637	0.666708
C70	C	-1.061221	0.139268	0.000042
C71	C	-0.727888	0.472601	0.333375
C72	C	-0.394555	0.805934	0.666708
C73	C	-0.220261	-0.117202	0.000053
C74	C	0.113072	0.216131	0.333386
C75	C	0.446405	0.549464	0.666720
C76	C	-0.319558	-0.119078	0.000056
C77	C	0.013776	0.214255	0.333390
C78	C	0.347109	0.547588	0.666723
C79	C	-1.050382	-0.287079	0.000056
C80	C	-0.717048	0.046255	0.333389
C81	C	-0.383715	0.379588	0.666722
C82	C	-1.052252	-0.386376	0.000061
C83	C	-0.718919	-0.053043	0.333394
C84	C	-0.385586	0.280291	0.666728
N85	N	-1.056723	-0.123552	-0.246611
N86	N	-0.723390	0.209782	0.086722
N87	N	-0.390056	0.543115	0.420056
C88	C	-1.141810	0.196492	0.000044
C89	C	-0.808477	0.529825	0.333377
C90	C	-0.475144	0.863159	0.666711
C91	C	-1.140047	0.289791	0.000053
C92	C	-0.806714	0.623125	0.333387
C93	C	-0.473381	0.956458	0.666720
C94	C	-1.057694	0.325865	0.000054
C95	C	-0.724361	0.659198	0.333387
C96	C	-0.391027	0.992532	0.666721
C97	C	-0.977099	0.268633	0.000055
C98	C	-0.643766	0.601967	0.333388
C99	C	-0.310432	0.935300	0.666721
C100	C	-0.978863	0.175336	0.000052
C101	C	-0.645530	0.508669	0.333385
C102	C	-0.312196	0.842002	0.666719
C103	C	-0.973428	0.463096	0.000058
C104	C	-0.640095	0.796429	0.333391
C105	C	-0.306761	1.129763	0.666725
C106	C	-0.971663	0.556400	0.000059
C107	C	-0.638330	0.889733	0.333392
C108	C	-0.304997	1.223067	0.666726
C109	C	-1.134612	0.577552	0.000060
C110	C	-0.801279	0.910885	0.333393
C111	C	-0.467946	1.244218	0.666726
C112	C	-1.136376	0.484254	0.000057
C113	C	-0.803043	0.817587	0.333390
C114	C	-0.469710	1.150921	0.666723
C115	C	-1.055780	0.427029	0.000056
C116	C	-0.722447	0.760362	0.333389
C117	C	-0.389114	1.093695	0.666722
C118	C	-1.111025	-0.177894	-0.296420
C119	C	-0.777692	0.155440	0.036913
C120	C	-0.444359	0.488773	0.370247
C121	C	-1.111037	-0.177890	-0.396078
C122	C	-0.777704	0.155444	-0.062744
C123	C	-0.444370	0.488777	0.270589
C124	C	-1.056741	-0.123548	-0.445924
C125	C	-0.723407	0.209785	-0.112591
C126	C	-0.390074	0.543119	0.220742
C127	C	-1.002436	-0.069200	-0.396109
C128	C	-0.669103	0.264133	-0.062775
C129	C	-0.335769	0.597467	0.270558
C130	C	-1.002430	-0.069200	-0.296453
C131	C	-0.669097	0.264134	0.036881
C132	C	-0.335763	0.597467	0.370214
C133	C	-1.002451	-0.069206	-0.603823
C134	C	-0.669118	0.264127	-0.270489
C135	C	-0.335784	0.597461	0.062844
C136	C	-1.002455	-0.069207	-0.703486
C137	C	-0.669122	0.264126	-0.370152
C138	C	-0.335789	0.597459	-0.036819
C139	C	-1.111058	-0.177896	-0.703448
C140	C	-0.777724	0.155437	-0.370114
C141	C	-0.444391	0.488771	-0.036781
C142	C	-1.111052	-0.177896	-0.603792
C143	C	-0.777718	0.155438	-0.270459
C144	C	-0.444385	0.488771	0.062875
C145	C	-1.056746	-0.123549	-0.553983
C146	C	-0.723412	0.209785	-0.220649
C147	C	-0.390079	0.543118	0.112684
N148	N	-1.056758	-0.123549	0.246706
N149	N	-0.723425	0.209784	0.580039
N150	N	-0.390091	0.543117	0.913372
H151	H	-0.328203	-0.119246	-0.156528
H152	H	0.005131	0.214088	0.176806
H153	H	0.338464	0.547421	0.510139
H154	H	-0.785226	-0.127880	-0.156539
H155	H	-0.451893	0.205454	0.176795
H156	H	-0.118560	0.538787	0.510128
H157	H	-1.200236	0.624149	0.000063
H158	H	-0.866903	0.957483	0.333397
H159	H	-0.533569	1.290816	0.666730
F160	F	-0.509130	-0.122653	-0.178108
F161	F	-0.175796	0.210681	0.155225
F162	F	0.157537	0.544014	0.488558
H163	H	-1.203435	0.454886	0.000050
H164	H	-0.870102	0.788220	0.333383
H165	H	-0.536769	1.121553	0.666716
F166	F	-0.884014	0.594790	0.000058
F167	F	-0.550681	0.928123	0.333392
F168	F	-0.217348	1.261457	0.666725
F169	F	-1.168814	-0.235734	-0.243378
F170	F	-0.835481	0.097599	0.089955
F171	F	-0.502147	0.430932	0.423289
H172	H	-0.497504	-0.122424	0.156628
H173	H	-0.164170	0.210909	0.489961
H174	H	0.169163	0.544242	0.823295
F175	F	-0.887648	0.402194	0.000059
F176	F	-0.554315	0.735528	0.333392
F177	F	-0.220981	1.068861	0.666726
H178	H	-0.616007	-0.124677	0.156628
H179	H	-0.282674	0.208656	0.489962
H180	H	0.050659	0.541990	0.823295
H181	H	-0.785271	-0.127871	0.156623
H182	H	-0.451938	0.205463	0.489956
H183	H	-0.118604	0.538796	0.823290
H184	H	-0.958231	-0.024950	-0.436702
H185	H	-0.624898	0.308384	-0.103368
H186	H	-0.291565	0.641717	0.229965
F187	F	-0.604298	-0.124445	-0.178117
F188	F	-0.270964	0.208889	0.155216
F189	F	0.062369	0.542222	0.488550
F190	F	-1.229463	0.158109	0.000034
F191	F	-0.896130	0.491442	0.333368
F192	F	-0.562797	0.824776	0.666701
F193	F	-1.225821	0.350690	0.000054
F194	F	-0.892488	0.684024	0.333387
F195	F	-0.559155	1.017357	0.666721
F196	F	-0.889452	0.307028	0.000066
F197	F	-0.556119	0.640361	0.333399
F198	F	-0.222785	0.973694	0.666733
H199	H	-0.958230	-0.024950	-0.563271
H200	H	-0.624897	0.308384	-0.229938
H201	H	-0.291564	0.641717	0.103395
H202	H	-0.913239	0.128744	0.000050
H203	H	-0.579906	0.462077	0.333384
H204	H	-0.246572	0.795410	0.666717
F205	F	-0.316588	-0.119024	0.178214
F206	F	0.016746	0.214309	0.511548
F207	F	0.350079	0.547643	0.844881
F208	F	-1.168832	-0.235729	-0.449084
F209	F	-0.835499	0.097604	-0.115750
F210	F	-0.502165	0.430938	0.217583
F211	F	-1.168822	-0.235750	-0.550743
F212	F	-0.835489	0.097584	-0.217410
F213	F	-0.502156	0.430917	0.115924
F214	F	-1.168858	-0.235734	-0.756459
F215	F	-0.835525	0.097600	-0.423126
F216	F	-0.502191	0.430933	-0.089792
H217	H	-0.958241	-0.024959	-0.744068
H218	H	-0.624908	0.308374	-0.410735
H219	H	-0.291575	0.641708	-0.077402
H220	H	-0.958211	-0.024949	-0.255899
H221	H	-0.624878	0.308384	0.077434
H222	H	-0.291544	0.641717	0.410767
