data_functionalizedCrystal
_audit_creation_method	'MofGen! by Chris Wilmer'
_symmetry_space_group_name_H-M	'P1'
_symmetry_Int_Tables_number	1
_symmetry_cell_setting	triclinic
loop_
_symmetry_equiv_pos_as_xyz
  x,y,z
_cell_length_a	8.497374
_cell_length_b	8.497374
_cell_length_c	17.640112
_cell_angle_alpha	78.811569
_cell_angle_beta	78.776723
_cell_angle_gamma	90.005237
loop_
_atom_site_label
_atom_site_type_symbol
_atom_site_fract_x
_atom_site_fract_y
_atom_site_fract_z
Zn1	Zn	0.140119	0.405274	1.208301
Zn2	Zn	0.403868	0.141542	1.208295
Zn3	Zn	0.193481	0.194739	1.076167
Zn4	Zn	0.457247	0.458516	1.076149
O5	O	0.298679	0.300018	1.142228
O6	O	0.130435	0.325744	1.318903
O7	O	0.375952	-0.072166	1.190773
O8	O	-0.034364	0.222648	1.093706
O9	O	0.324209	0.131982	1.318898
O10	O	-0.073569	0.377327	1.190784
O11	O	0.221382	-0.033082	1.093700
O12	O	0.273142	0.274275	0.965563
O13	O	0.415187	0.672218	1.093674
O14	O	0.466930	0.468071	0.965549
O15	O	0.182195	0.633101	1.190766
O16	O	0.631715	0.183609	1.190755
O17	O	0.670933	0.416488	1.093667
C18	C	0.381620	0.382724	0.936878
C19	C	0.417140	0.418143	0.849028
C20	C	0.708563	0.300045	1.142218
C21	C	0.887198	0.300010	1.142239
C22	C	0.298684	0.711500	1.142222
C23	C	0.298700	0.890144	1.142224
C24	C	0.028806	0.030954	0.560028
C25	C	0.062215	0.064257	0.477479
C26	C	0.264284	0.265709	0.477519
C27	C	0.230887	0.232428	0.560069
C28	C	0.113147	0.115048	0.601317
C29	C	0.315228	0.316522	0.601358
C30	C	0.281838	0.283238	0.683901
C31	C	0.164108	0.165859	0.725155
C32	C	0.079758	0.081763	0.683860
C33	C	0.432974	0.433894	0.560109
C34	C	0.517315	0.517988	0.601399
C35	C	0.483919	0.484712	0.683943
C36	C	0.366188	0.367334	0.725196
C37	C	0.568269	0.568808	0.725238
C38	C	0.534879	0.535524	0.807780
C39	C	0.332799	0.334049	0.807739
C40	C	0.215415	0.216990	1.348380
C41	C	0.179933	0.181608	1.436230
H42	H	0.136928	0.138758	0.792366
C43	C	-0.049774	-0.047333	0.729237
H44	H	-0.095230	-0.092653	0.692826
H45	H	-0.131427	0.000151	0.761434
H46	H	-0.002562	-0.129156	0.761438
H47	H	0.236901	0.238490	0.841325
C48	C	-0.100726	-0.098142	0.605405
H49	H	-0.146182	-0.143462	0.568994
H50	H	-0.182379	-0.050658	0.637602
H51	H	-0.053514	-0.179965	0.637606
C52	C	-0.030577	-0.028246	0.432064
H53	H	-0.105485	-0.102908	0.468454
H54	H	0.042684	-0.084085	0.399861
H55	H	-0.086203	0.045199	0.399865
C56	C	0.393781	0.394825	0.432143
H57	H	0.401582	0.402614	0.377070
H58	H	0.494269	0.366137	0.445680
H59	H	0.365361	0.495401	0.445678
H60	H	0.460156	0.460990	0.492898
H61	H	0.613183	0.613555	0.567803
C62	C	0.697777	0.697912	0.679859
H63	H	0.705579	0.705693	0.624786
H64	H	0.798259	0.669215	0.693399
H65	H	0.669368	0.798494	0.693390
C66	C	0.627645	0.628028	0.853202
H67	H	0.702536	0.702714	0.816815
H68	H	0.683260	0.554597	0.885404
H69	H	0.554364	0.683871	0.885401
