data_functionalizedCrystal
_audit_creation_method	'MofGen! by Chris Wilmer'
_symmetry_space_group_name_H-M	'P1'
_symmetry_Int_Tables_number	1
_symmetry_cell_setting	triclinic
loop_
_symmetry_equiv_pos_as_xyz
  x,y,z
_cell_length_a	10.489741
_cell_length_b	10.489741
_cell_length_c	9.016244
_cell_angle_alpha	89.998079
_cell_angle_beta	89.995333
_cell_angle_gamma	84.539174
loop_
_atom_site_label
_atom_site_type_symbol
_atom_site_fract_x
_atom_site_fract_y
_atom_site_fract_z
O1	O	1.694060	0.179963	-0.123248
O2	O	1.322864	0.196856	-0.123271
O3	O	1.516908	0.002811	-0.123250
O4	O	1.500015	0.374007	-0.123269
O5	O	1.516879	0.002816	0.123431
O6	O	1.322835	0.196860	0.123410
O7	O	1.694031	0.179967	0.123433
Cu8	Cu	1.508430	0.188414	0.145945
Cu9	Cu	1.508464	0.188409	-0.145783
O10	O	1.499987	0.374011	0.123412
C11	C	1.275318	0.195582	0.000067
C12	C	1.133688	0.191765	0.000058
C13	C	1.515618	-0.044718	0.000090
C14	C	1.511801	-0.186348	0.000087
C15	C	1.065548	0.068300	0.000078
C16	C	0.973436	0.126621	-0.121548
C17	C	0.973441	0.126655	0.121660
C18	C	1.043441	0.250137	-0.121669
C19	C	1.043456	0.250153	0.121649
C20	C	0.951371	0.308564	-0.000007
C21	C	1.388336	-0.254488	0.000068
C22	C	1.446646	-0.346608	0.121698
C23	C	1.446703	-0.346587	-0.121510
C24	C	1.570161	-0.276603	0.121817
C25	C	1.570201	-0.276572	-0.121500
C26	C	1.628600	-0.368665	0.000160
C27	C	1.741577	0.181241	0.000092
C28	C	1.883206	0.185058	0.000091
C29	C	1.501277	0.421541	0.000070
C30	C	1.505094	0.563170	0.000063
N31	N	1.508416	0.188417	0.351132
N32	N	1.508489	0.188396	-0.350969
C33	C	1.404296	0.291869	0.586153
C34	C	1.404527	0.292257	0.414262
C35	C	1.641784	0.218712	0.413477
C36	C	1.641215	0.219444	0.585421
C37	C	1.480492	0.054330	0.585680
C38	C	1.477432	0.055199	0.413725
H39	H	1.115238	-0.033196	-0.000069
H40	H	1.385294	0.025501	0.629123
O41	O	1.671873	0.334032	0.362179
C42	C	1.791900	0.359797	0.419254
H43	H	1.849096	0.265981	0.451304
H44	H	1.777137	0.423635	0.521328
C45	C	1.795440	0.543660	0.261054
C46	C	1.865694	0.428433	0.300407
H47	H	1.840959	0.586004	0.187748
H48	H	1.714574	0.526306	0.222605
H49	H	1.783142	0.596844	0.346127
H50	H	1.877976	0.375246	0.215339
H51	H	1.946564	0.445780	0.338839
O52	O	1.749881	-0.427457	0.000045
C53	C	1.815253	-0.390145	-0.127072
H54	H	1.768252	-0.294462	-0.169053
H55	H	1.810858	-0.465796	-0.217232
C56	C	2.013815	-0.493967	-0.035862
C57	C	1.956094	-0.376442	-0.087417
H58	H	2.100694	-0.485519	-0.011405
H59	H	1.969773	-0.519109	0.049777
H60	H	2.010141	-0.556997	-0.111005
H61	H	1.959755	-0.313418	-0.012268
H62	H	2.000140	-0.351288	-0.173042
H63	H	0.942451	0.074394	0.224486
O64	O	0.936522	0.064098	-0.244103
C65	C	0.995225	-0.062532	-0.243689
H66	H	1.022657	-0.091880	-0.125330
H67	H	1.084884	-0.068398	-0.315779
C68	C	0.867484	-0.117239	-0.451110
C69	C	0.901167	-0.153289	-0.305738
H70	H	0.809468	-0.173223	-0.489391
H71	H	0.827938	-0.031925	-0.451394
H72	H	0.942209	-0.122128	-0.511167
H73	H	0.826445	-0.148384	-0.245680
H74	H	0.940699	-0.238604	-0.305446
H75	H	1.286824	-0.204837	0.000184
H76	H	1.394393	-0.377618	0.224521
O77	O	1.080085	0.312277	-0.244640
C78	C	1.043613	0.247434	-0.372513
H79	H	0.961004	0.188550	-0.344168
H80	H	1.128423	0.181181	-0.414449
C81	C	1.102261	0.417963	-0.528646
C82	C	1.000791	0.345650	-0.493836
H83	H	1.075852	0.478545	-0.603487
H84	H	1.126838	0.461648	-0.442497
H85	H	1.172927	0.362739	-0.563585
H86	H	0.930133	0.400871	-0.458881
H87	H	0.976202	0.301976	-0.579982
O88	O	1.384394	-0.383335	-0.244298
C89	C	1.343219	-0.274519	-0.329656
H90	H	1.404875	-0.193758	-0.302659
H91	H	1.238843	-0.242605	-0.302790
C92	C	1.280221	-0.407054	-0.528817
C93	C	1.355956	-0.307864	-0.495667
H94	H	1.288072	-0.427622	-0.631220
H95	H	1.307957	-0.480366	-0.471308
H96	H	1.193248	-0.380445	-0.506417
H97	H	1.442928	-0.334479	-0.518049
H98	H	1.328235	-0.234557	-0.553184
O99	O	1.360382	0.027972	0.364946
C100	C	1.306654	0.128927	0.274678
H101	H	1.386308	0.183883	0.227950
H102	H	1.238604	0.196362	0.343577
C103	C	1.134458	0.006376	0.203513
C104	C	1.232292	0.073867	0.146111
H105	H	1.088583	-0.027585	0.124211
H106	H	1.170652	-0.061639	0.264332
H107	H	1.077764	0.062583	0.260929
H108	H	1.288993	0.017657	0.088713
H109	H	1.196106	0.141871	0.085279
H110	H	1.305432	0.274026	0.372113
H111	H	1.622344	-0.245769	0.224761
H112	H	1.622410	-0.245529	-0.224329
H113	H	1.556460	-0.022686	0.626340
O114	O	1.562108	-0.040924	0.362395
C115	C	1.651604	0.010409	0.268246
H116	H	1.656614	0.115878	0.295801
H117	H	1.620627	0.000778	0.147889
C118	C	1.778291	-0.192518	0.256919
C119	C	1.784452	-0.062981	0.290771
H120	H	1.860237	-0.237791	0.270807
H121	H	1.717994	-0.227104	0.320345
H122	H	1.752471	-0.200525	0.156623
H123	H	1.810255	-0.054974	0.391070
H124	H	1.844756	-0.028395	0.227363
H125	H	0.901947	0.410168	-0.000079
H126	H	1.074490	0.302353	0.224476
H127	H	1.304891	0.273918	0.627541
H128	H	1.422061	0.390770	0.629343
H129	H	1.422525	0.391721	0.373112
H130	H	1.665699	0.317255	0.625507
H131	H	1.721234	0.147117	0.627012
H132	H	1.721212	0.145405	0.372581
