data_functionalizedCrystal
_audit_creation_method	'MofGen! by Chris Wilmer'
_symmetry_space_group_name_H-M	'P1'
_symmetry_Int_Tables_number	1
_symmetry_cell_setting	triclinic
loop_
_symmetry_equiv_pos_as_xyz
  x,y,z
_cell_length_a	23.532361
_cell_length_b	23.532407
_cell_length_c	9.730217
_cell_angle_alpha	89.992119
_cell_angle_beta	90.002878
_cell_angle_gamma	82.839173
loop_
_atom_site_label
_atom_site_type_symbol
_atom_site_fract_x
_atom_site_fract_y
_atom_site_fract_z
O1	O	0.755274	0.069008	-0.114166
O2	O	0.589407	0.079039	-0.114201
O3	O	0.677342	-0.008909	-0.114157
O4	O	0.667339	0.156956	-0.114210
O5	O	0.677340	-0.008910	0.114423
O6	O	0.589404	0.079038	0.114379
O7	O	0.755272	0.069007	0.114414
Zn8	Zn	0.672338	0.074022	0.150689
Zn9	Zn	0.672341	0.074023	-0.150475
O10	O	0.667336	0.156955	0.114370
C11	C	0.568189	0.078787	0.000085
C12	C	0.504971	0.078032	0.000073
C13	C	0.231729	0.074729	-0.124517
C14	C	0.291128	0.075444	-0.124521
O15	O	0.321855	0.075794	-0.230485
N16	N	0.320832	0.075804	0.000079
C17	C	0.291135	0.075444	0.124690
O18	O	0.321855	0.075816	0.230671
C19	C	0.231737	0.074725	0.124692
C20	C	0.202035	0.074370	0.000085
C21	C	0.202027	0.074373	-0.249114
C22	C	0.142631	0.073659	-0.249110
C23	C	0.112937	0.073301	-0.124509
C24	C	0.142639	0.073657	0.000089
C25	C	0.202040	0.074361	0.249302
C26	C	0.142638	0.073642	0.249293
C27	C	0.112936	0.073287	0.124686
C28	C	0.053549	0.072584	0.124694
N29	N	0.023845	0.072224	0.000095
C30	C	0.053539	0.072582	-0.124507
C31	C	0.415875	0.076953	0.124676
C32	C	0.475271	0.077676	0.124675
C33	C	0.475261	0.077675	-0.124536
C34	C	0.415863	0.076956	-0.124534
C35	C	0.386171	0.076593	0.000077
C36	C	-0.071197	0.071083	-0.124488
C37	C	-0.130598	0.070372	-0.124473
C38	C	-0.130582	0.070371	0.124737
C39	C	-0.071186	0.071085	0.124723
C40	C	-0.041495	0.071440	0.000099
O41	O	0.022785	0.072231	0.230605
O42	O	0.022812	0.072202	-0.230470
C43	C	0.677086	-0.030126	0.000136
C44	C	0.676320	-0.093343	0.000147
C45	C	0.723555	-0.492454	0.000081
C46	C	0.722844	-0.551854	0.000071
O47	O	0.766630	-0.588606	0.000029
N48	N	0.670566	-0.574471	0.000061
C49	C	0.618997	-0.537685	0.000047
O50	O	0.574465	-0.562377	0.000037
C51	C	0.619709	-0.478286	0.000048
C52	C	0.671990	-0.455672	0.000072
C53	C	0.775832	-0.469839	0.000104
C54	C	0.776543	-0.410443	0.000117
C55	C	0.724977	-0.373662	0.000108
C56	C	0.672701	-0.396276	0.000085
C57	C	0.568140	-0.441501	0.000025
C58	C	0.568857	-0.382099	0.000025
C59	C	0.621137	-0.359485	0.000048
C60	C	0.621847	-0.300099	0.000089
N61	N	0.674124	-0.277481	0.000099
C62	C	0.725690	-0.314263	0.000108
C63	C	0.617505	-0.662427	0.000043
C64	C	0.616793	-0.721825	0.000052
C65	C	0.720640	-0.735990	0.000073
C66	C	0.721352	-0.676591	0.000074
C67	C	0.669783	-0.639810	0.000053
C68	C	0.727179	-0.189526	0.000137
C69	C	0.727886	-0.130124	0.000156
C70	C	0.624039	-0.115965	0.000128
C71	C	0.623332	-0.175361	0.000116
C72	C	0.674907	-0.212141	0.000116
O73	O	0.578083	-0.263312	0.000125
O74	O	0.770214	-0.289562	0.000101
C75	C	0.776489	0.069258	0.000125
C76	C	0.839708	0.070014	0.000128
C77	C	0.667592	0.178171	0.000074
C78	C	0.668358	0.241388	0.000054
N79	N	0.672339	0.074021	0.356225
N80	N	0.672344	0.074020	-0.356012
C81	C	0.750237	-0.003835	0.356255
C82	C	0.789190	-0.042761	0.428209
C83	C	0.789196	-0.042762	0.572089
C84	C	0.750244	-0.003833	0.644017
C85	C	0.711291	0.035094	0.572063
C86	C	0.711290	0.035091	0.428180
C87	C	0.633391	0.112946	0.572034
C88	C	0.633387	0.112950	0.428154
C89	C	0.594439	0.151875	0.643962
C90	C	0.555488	0.190805	0.572007
C91	C	0.555484	0.190804	0.428119
C92	C	0.594434	0.151876	0.356199
H93	H	-0.154779	0.070085	-0.225948
N94	N	0.594441	0.151876	0.799145
H95	H	0.625028	0.121311	0.833817
H96	H	0.602481	0.190551	0.833671
N97	N	0.110615	0.073247	0.383700
H98	H	0.138501	0.073193	0.462623
H99	H	0.081414	0.108457	0.389534
N100	N	0.566943	-0.199753	0.000101
H101	H	0.564335	-0.224071	-0.084644
H102	H	0.564365	-0.224063	0.084881
H103	H	0.582056	-0.086007	0.000125
H104	H	0.762627	-0.765949	0.000076
H105	H	0.750241	-0.003834	0.239100
N106	N	0.513479	0.232790	0.649578
H107	H	0.473098	0.226439	0.624537
H108	H	0.519440	0.226860	0.751618
H109	H	0.523762	0.222501	0.369541
H110	H	0.574220	-0.740232	0.000057
N111	N	0.831188	-0.084761	0.350632
H112	H	0.825273	-0.078859	0.248566
H113	H	0.871556	-0.078401	0.375762
H114	H	0.763923	-0.658183	0.000092
H115	H	0.526862	-0.352154	0.000006
H116	H	0.594437	0.151874	0.239045
N117	N	0.561884	-0.622753	0.000044
H118	H	0.539059	-0.629989	-0.084691
H119	H	0.539108	-0.630020	0.084834
N120	N	-0.039177	0.071464	-0.258900
H121	H	-0.067014	0.071130	-0.337821
H122	H	-0.019352	0.107070	-0.264350
H123	H	0.525567	-0.459902	-0.000003
H124	H	0.820913	-0.074461	0.630674
N125	N	-0.039151	0.071475	0.259120
H126	H	-0.009689	0.036461	0.264689
H127	H	-0.019359	0.107102	0.264579
H128	H	0.819115	-0.392037	0.000131
N129	N	0.110603	0.073264	-0.383512
H130	H	0.068467	0.072754	-0.364623
H131	H	0.116166	0.108697	-0.437942
N132	N	0.234049	0.074755	-0.383517
H133	H	0.206211	0.074419	-0.462435
H134	H	0.253871	0.110364	-0.388970
N135	N	0.383829	0.076571	-0.258929
H136	H	0.411659	0.076909	-0.337857
H137	H	0.364008	0.040962	-0.264351
H138	H	0.817825	-0.499782	0.000106
H139	H	-0.154770	0.070081	0.226184
N140	N	0.507294	0.078061	-0.258933
H141	H	0.549429	0.078568	-0.240016
H142	H	0.501732	0.042624	-0.313332
N143	N	0.750243	-0.003833	0.799201
H144	H	0.742182	-0.042486	0.833869
H145	H	0.788895	0.004277	0.833750
H146	H	0.499448	0.077975	0.226143
H147	H	0.226214	0.074648	0.350771
N148	N	0.383852	0.076566	0.259086
H149	H	0.411739	0.076512	0.338006
H150	H	0.354652	0.111777	0.264919
H151	H	0.769176	-0.219466	0.000132
N152	N	0.784277	-0.105734	0.000190
H153	H	0.816834	-0.138052	0.000190
H154	H	0.786837	-0.081389	-0.084541
