data_functionalizedCrystal
_audit_creation_method	'MofGen! by Chris Wilmer'
_symmetry_space_group_name_H-M	'P1'
_symmetry_Int_Tables_number	1
_symmetry_cell_setting	triclinic
loop_
_symmetry_equiv_pos_as_xyz
  x,y,z
_cell_length_a	10.967926
_cell_length_b	14.044220
_cell_length_c	9.482900
_cell_angle_alpha	100.188801
_cell_angle_beta	92.549900
_cell_angle_gamma	88.855190
loop_
_atom_site_label
_atom_site_type_symbol
_atom_site_fract_x
_atom_site_fract_y
_atom_site_fract_z
O1	O	1.628183	0.167990	0.287012
O2	O	1.961516	0.501323	0.620345
O3	O	2.294849	0.834657	0.953678
O4	O	1.279192	0.170077	0.199575
O5	O	1.612526	0.503410	0.532909
O6	O	1.945859	0.836744	0.866242
O7	O	1.448447	0.030855	0.241995
O8	O	1.781780	0.364189	0.575328
O9	O	2.115114	0.697522	0.908662
O10	O	1.458928	0.307212	0.244592
O11	O	1.792261	0.640545	0.577925
O12	O	2.125595	0.973878	0.911259
O13	O	1.414080	0.059254	0.475174
O14	O	1.747414	0.392587	0.808508
O15	O	2.080747	0.725920	1.141841
O16	O	1.244826	0.198475	0.432755
O17	O	1.578159	0.531808	0.766088
O18	O	1.911492	0.865142	1.099421
O19	O	1.593816	0.196388	0.520191
O20	O	1.927149	0.529722	0.853524
O21	O	2.260483	0.863055	1.186858
Cu22	Cu	1.416183	0.200025	0.497764
Cu23	Cu	1.749516	0.533358	0.831097
Cu24	Cu	2.082850	0.866691	1.164431
Cu25	Cu	1.456825	0.166441	0.222002
Cu26	Cu	1.790159	0.499774	0.555336
Cu27	Cu	2.123492	0.833107	0.888669
O28	O	1.424561	0.335610	0.477771
O29	O	1.757895	0.668943	0.811105
O30	O	2.091228	1.002276	1.144438
C31	C	1.217076	0.181978	0.304908
C32	C	1.550409	0.515312	0.638241
C33	C	1.883743	0.848645	0.971574
C34	C	1.083189	0.175121	0.271364
C35	C	1.416522	0.508454	0.604697
C36	C	1.749856	0.841787	0.938031
C37	C	1.005695	0.186775	0.377203
C38	C	1.339028	0.520108	0.710536
C39	C	1.672361	0.853441	1.043869
C40	C	0.867315	0.179687	0.342536
C41	C	1.200648	0.513021	0.675870
C42	C	1.533981	0.846354	1.009203
C43	C	1.426678	0.009569	0.357436
C44	C	1.760011	0.342903	0.690770
C45	C	2.093344	0.676236	1.024103
C46	C	1.412998	-0.096166	0.354011
C47	C	1.746332	0.237167	0.687344
C48	C	2.079665	0.570501	1.020677
C49	C	1.387993	-0.289761	0.347725
C50	C	1.721326	0.043572	0.681058
C51	C	2.054659	0.376905	1.014392
C52	C	1.485012	-0.343781	0.372028
C53	C	1.818345	-0.010447	0.705361
C54	C	2.151679	0.322886	1.038695
C55	C	1.471099	-0.451504	0.368530
C56	C	1.804432	-0.118171	0.701864
C57	C	2.137765	0.215163	1.035197
C58	C	1.401904	-0.182028	0.351222
C59	C	1.735238	0.151305	0.684555
C60	C	2.068571	0.484638	1.017889
C61	C	1.655933	0.184486	0.414856
C62	C	1.989266	0.517820	0.748189
C63	C	2.322599	0.851153	1.081522
C64	C	1.789821	0.191343	0.448390
C65	C	2.123155	0.524676	0.781724
C66	C	2.456488	0.858010	1.115057
C67	C	1.446331	0.356895	0.362327
C68	C	1.779664	0.690229	0.695660
C69	C	2.112998	1.023562	1.028994
C70	C	1.460012	0.462630	0.365743
C71	C	1.793345	0.795963	0.699077
C72	C	2.126679	1.129296	1.032410
N73	N	1.387606	0.223646	0.691722
N74	N	1.720939	0.556979	1.025055
N75	N	2.054272	0.890312	1.358389
N76	N	1.485411	0.142812	0.028047
N77	N	1.818745	0.476146	0.361380
N78	N	2.152078	0.809479	0.694713
C79	C	1.448388	0.173402	0.779155
C80	C	1.781721	0.506736	1.112488
C81	C	2.115054	0.840069	1.445821
C82	C	1.424621	0.193063	0.940615
C83	C	1.757954	0.526396	1.273949
C84	C	2.091287	0.859730	1.607282
H85	H	0.825915	0.206565	0.564676
H86	H	1.159248	0.539898	0.898009
H87	H	1.492581	0.873231	1.231342
O88	O	1.608885	-0.297892	0.403077
O89	O	1.942218	0.035442	0.736411
O90	O	2.275551	0.368775	1.069744
H91	H	1.605832	-0.241405	0.500876
H92	H	1.939165	0.091928	0.834210
H93	H	2.272499	0.425262	1.167543
H94	H	1.518016	0.115828	0.734477
H95	H	1.851350	0.449161	1.067811
H96	H	2.184683	0.782494	1.401144
H97	H	1.294490	-0.324414	0.324295
H98	H	1.627823	0.008919	0.657628
H99	H	1.961156	0.342252	0.990962
H100	H	1.041796	0.201993	0.493480
H101	H	1.375129	0.535327	0.826813
H102	H	1.708462	0.868660	1.160146
O103	O	0.819511	0.159497	0.188503
O104	O	1.152844	0.492830	0.521836
O105	O	1.486178	0.826164	0.855169
H106	H	0.897328	0.152024	0.116246
H107	H	1.230661	0.485357	0.449579
H108	H	1.563995	0.818691	0.782913
O109	O	1.332380	0.269333	0.999770
O110	O	1.665713	0.602666	1.333104
O111	O	1.999046	0.935999	1.666437
H112	H	1.328195	0.272813	1.117306
H113	H	1.661528	0.606146	1.450640
H114	H	1.994861	0.939480	1.783973
O115	O	1.577650	0.066540	0.968895
O116	O	1.910984	0.399874	1.302228
O117	O	2.244317	0.733207	1.635561
H118	H	1.581848	0.063066	0.851361
H119	H	1.915181	0.396399	1.184694
H120	H	2.248515	0.729733	1.518028
H121	H	1.317968	0.281213	0.736399
H122	H	1.651301	0.614546	1.069732
H123	H	1.984635	0.947879	1.403066
H124	H	1.047088	0.159894	0.155087
H125	H	1.380421	0.493227	0.488420
H126	H	1.713755	0.826561	0.821754
