data_functionalizedCrystal
_audit_creation_method	'MofGen! by Chris Wilmer'
_symmetry_space_group_name_H-M	'P1'
_symmetry_Int_Tables_number	1
_symmetry_cell_setting	triclinic
loop_
_symmetry_equiv_pos_as_xyz
  x,y,z
_cell_length_a	10.723024
_cell_length_b	9.798715
_cell_length_c	16.109298
_cell_angle_alpha	89.997752
_cell_angle_beta	83.964029
_cell_angle_gamma	90.003391
loop_
_atom_site_label
_atom_site_type_symbol
_atom_site_fract_x
_atom_site_fract_y
_atom_site_fract_z
O1	O	1.655640	0.113464	0.116607
O2	O	1.292339	0.113467	0.127769
O3	O	1.483972	0.113475	0.001216
O4	O	1.464007	0.113456	0.243161
O5	O	1.483957	-0.113507	0.001215
O6	O	1.292325	-0.113515	0.127769
O7	O	1.655625	-0.113518	0.116607
Zn8	Zn	1.473973	-0.149555	0.122188
Zn9	Zn	1.473992	0.149504	0.122188
O10	O	1.463993	-0.113526	0.243160
C11	C	1.245843	-0.000023	0.126957
C12	C	1.107321	-0.000021	0.124526
N13	N	1.473969	-0.353655	0.122187
C14	C	0.916566	-0.000013	0.049037
C15	C	1.059736	-0.000015	0.051547
C16	C	1.554434	-0.421428	0.068817
C17	C	1.554454	-0.578591	0.068814
C18	C	1.702121	-0.000025	0.117420
C19	C	1.840643	-0.000018	0.119850
N20	N	1.474005	0.353604	0.122183
C21	C	1.483157	-0.000010	-0.029764
C22	C	1.480734	0.000006	-0.122074
C23	C	1.472836	0.123705	-0.421189
C24	C	1.475129	0.123715	-0.334455
C25	C	1.475132	-0.123754	-0.334441
C26	C	1.472848	-0.123762	-0.421174
C27	C	1.471694	-0.000028	-0.464545
C28	C	1.476271	-0.000010	-0.291079
C29	C	1.478757	-0.000001	-0.197039
C30	C	1.469210	-0.000037	-0.558591
C31	C	1.464808	-0.000037	0.274140
C32	C	1.467231	-0.000045	0.366450
H33	H	0.875573	-0.000028	-0.013446
C34	C	1.019199	-0.000028	0.206430
N35	N	0.952816	-0.000036	0.268119
H36	H	1.623347	-0.636873	0.023124
H37	H	1.471921	-0.224527	-0.456476
C38	C	1.476381	-0.259853	-0.286723
N39	N	1.477315	-0.362366	-0.250783
H40	H	1.405117	-0.588123	0.167881
C41	C	1.380916	-0.432448	0.183912
N42	N	1.310825	-0.491793	0.230405
C43	C	1.647461	-0.342635	0.007075
N44	N	1.717526	-0.283290	-0.039435
C45	C	1.147865	-0.000013	-0.030353
N46	N	1.214248	-0.000015	-0.092042
C47	C	1.476383	0.259832	-0.286768
N48	N	1.477327	0.362361	-0.250849
C49	C	1.471594	0.259815	-0.468896
N50	N	1.470668	0.362338	-0.504828
H51	H	0.881636	-0.000031	0.182333
