data_functionalizedCrystal
_audit_creation_method	'MofGen! by Chris Wilmer'
_symmetry_space_group_name_H-M	'P1'
_symmetry_Int_Tables_number	1
_symmetry_cell_setting	triclinic
loop_
_symmetry_equiv_pos_as_xyz
  x,y,z
_cell_length_a	14.044220
_cell_length_b	19.288864
_cell_length_c	18.366186
_cell_angle_alpha	90.022894
_cell_angle_beta	89.993222
_cell_angle_gamma	91.837439
loop_
_atom_site_label
_atom_site_type_symbol
_atom_site_fract_x
_atom_site_fract_y
_atom_site_fract_z
O1	O	0.118214	-0.928948	-0.060787
O2	O	0.134161	-0.727712	-0.060738
O3	O	-0.011784	-0.825310	-0.060755
O4	O	0.264160	-0.831351	-0.060770
O5	O	-0.011791	-0.825291	0.060345
O6	O	0.134154	-0.727694	0.060362
O7	O	0.118207	-0.928930	0.060312
Zn8	Zn	0.126180	-0.828309	0.079564
Zn9	Zn	0.126189	-0.828333	-0.079990
O10	O	0.264152	-0.831332	0.060329
C11	C	0.133645	-0.701794	-0.000182
C12	C	0.132104	-0.624591	-0.000163
C13	C	-0.047091	-0.822656	-0.000204
C14	C	-0.152283	-0.814768	-0.000201
C15	C	0.118724	-0.954848	-0.000245
C16	C	0.120264	-1.032051	-0.000269
C17	C	-0.344882	-0.800348	-0.000208
C18	C	-0.402755	-0.856291	-0.000224
C19	C	-0.509924	-0.848267	-0.000228
C20	C	-0.237703	-0.808370	-0.000204
C21	C	0.299459	-0.833986	-0.000223
C22	C	0.404651	-0.841874	-0.000231
N23	N	0.126173	-0.828297	0.188455
C24	C	0.217738	-0.585397	-0.000179
C25	C	0.216291	-0.512857	-0.000187
C26	C	0.129205	-0.479514	-0.000193
C27	C	0.043560	-0.518717	-0.000173
C28	C	0.045010	-0.591256	-0.000157
C29	C	0.060749	-0.366860	-0.042640
C30	C	0.059303	-0.294322	-0.042660
C31	C	0.124731	-0.255781	-0.000237
C32	C	0.191621	-0.289785	0.042196
C33	C	0.193071	-0.362323	0.042212
C34	C	0.127624	-0.400858	-0.000209
C35	C	0.208802	-0.137930	-0.000261
C36	C	0.207351	-0.065389	-0.000264
C37	C	0.034617	-0.071251	-0.000257
C38	C	0.036071	-0.143790	-0.000247
C39	C	0.123165	-0.177126	-0.000252
N40	N	0.126188	-0.828350	-0.188881
C41	C	0.061580	-0.871531	0.226548
C42	C	0.061575	-0.871535	0.302776
C43	C	0.126180	-0.828313	0.340908
C44	C	0.190778	-0.785071	0.302806
C45	C	0.190774	-0.785063	0.226579
C46	C	0.212524	-0.824562	0.461665
C47	C	0.212529	-0.824575	0.537890
C48	C	0.126192	-0.828333	0.576015
C49	C	0.039847	-0.832093	0.537907
C50	C	0.039843	-0.832085	0.461681
C51	C	0.126191	-0.828316	0.423563
C52	C	0.061589	-0.871574	0.696763
C53	C	0.061584	-0.871573	0.772993
C54	C	0.190795	-0.785113	0.773021
C55	C	0.190792	-0.785110	0.696793
C56	C	0.126190	-0.828344	0.658669
H57	H	-0.371814	-0.910212	-0.000286
C58	C	-0.386675	-0.727510	-0.000184
H59	H	-0.454267	-0.731606	-0.000181
H60	H	-0.365771	-0.702996	-0.042403
H61	H	-0.365787	-0.702997	0.042062
C62	C	0.313538	-0.622062	-0.000171
H63	H	0.364332	-0.588326	-0.000175
H64	H	0.317703	-0.650265	-0.042392
H65	H	0.317688	-0.650209	0.042073
C66	C	0.307503	-0.820445	0.579802
H67	H	0.358921	-0.818194	0.546180
H68	H	0.312629	-0.860452	0.609514
H69	H	0.309559	-0.780129	0.609561
H70	H	0.286027	-0.480939	-0.000198
H71	H	0.247532	-0.390007	0.076765
H72	H	0.244899	-0.258406	0.076742
C73	C	0.304600	-0.174602	-0.000259
H74	H	0.355395	-0.140867	-0.000260
H75	H	0.308759	-0.202799	-0.042485
H76	H	0.308751	-0.202755	0.041980
C77	C	0.301553	-0.022275	-0.000282
H78	H	0.353627	-0.052520	-0.000290
H79	H	0.304583	0.006167	0.041942
H80	H	0.304573	0.006120	-0.042523
H81	H	-0.036290	-0.044104	-0.000308
C82	C	-0.058128	-0.186906	-0.000240
H83	H	-0.110202	-0.156661	-0.000251
H84	H	-0.061158	-0.215303	0.041995
H85	H	-0.061147	-0.215347	-0.042471
H86	H	-0.027346	-0.491565	-0.000188
H87	H	0.008974	-0.906742	0.333797
H88	H	-0.030457	-0.835153	0.568947
C89	C	-0.014265	-0.256921	-0.089337
H90	H	-0.005750	-0.208200	-0.083279
H91	H	-0.076725	-0.270924	-0.074414
H92	H	-0.005692	-0.268558	-0.139123
C93	C	-0.011220	-0.409248	-0.089315
H94	H	-0.051252	-0.378609	-0.114598
H95	H	-0.048924	-0.438830	-0.058728
H96	H	0.022124	-0.436449	-0.123427
C97	C	-0.049192	-0.634371	-0.000148
H98	H	-0.101267	-0.604127	-0.000157
H99	H	-0.052221	-0.662771	0.042085
H100	H	-0.052210	-0.662809	-0.042381
H101	H	0.008975	-0.906733	0.195510
H102	H	-0.030463	-0.835145	0.430656
H103	H	0.008984	-0.906776	0.665721
H104	H	0.008980	-0.906777	0.804009
C105	C	0.261859	-0.737569	0.814957
H106	H	0.252615	-0.743768	0.865811
H107	H	0.251730	-0.690587	0.802490
H108	H	0.325081	-0.749031	0.802451
H109	H	0.243379	-0.749878	0.333857
C110	C	0.261861	-0.737567	0.654885
H111	H	0.252604	-0.743751	0.604027
H112	H	0.325077	-0.749031	0.667368
H113	H	0.251734	-0.690582	0.667399
H114	H	0.282834	-0.821490	0.430629
C115	C	0.261836	-0.737509	0.184675
H116	H	0.300317	-0.711770	0.218300
H117	H	0.227849	-0.706492	0.154956
H118	H	0.301200	-0.764936	0.154925
