data_functionalizedCrystal
_audit_creation_method	'MofGen! by Chris Wilmer'
_symmetry_space_group_name_H-M	'P1'
_symmetry_Int_Tables_number	1
_symmetry_cell_setting	triclinic
loop_
_symmetry_equiv_pos_as_xyz
  x,y,z
_cell_length_a	18.050591
_cell_length_b	18.050589
_cell_length_c	21.395355
_cell_angle_alpha	89.987098
_cell_angle_beta	89.970606
_cell_angle_gamma	90.024669
loop_
_atom_site_label
_atom_site_type_symbol
_atom_site_fract_x
_atom_site_fract_y
_atom_site_fract_z
Zn1	Zn	1.135363	-0.295816	-0.354367
Zn2	Zn	1.135253	-0.419988	-0.249600
Zn3	Zn	1.011161	-0.295808	-0.249595
Zn4	Zn	1.011130	-0.419961	-0.354331
O5	O	1.073227	-0.357893	-0.301973
O6	O	1.239273	-0.312302	-0.340486
O7	O	1.118759	-0.403523	-0.161921
O8	O	1.027696	-0.191885	-0.263506
O9	O	1.239192	-0.403530	-0.263514
O10	O	1.118947	-0.191890	-0.340481
O11	O	1.027589	-0.312289	-0.161917
O12	O	0.907233	-0.312263	-0.263471
O13	O	1.027643	-0.403485	-0.442014
O14	O	0.907210	-0.403477	-0.340420
O15	O	1.118916	-0.312276	-0.442040
O16	O	1.118729	-0.523909	-0.263479
O17	O	1.027536	-0.523889	-0.340425
C18	C	0.880275	-0.357867	-0.301942
C19	C	0.797729	-0.357874	-0.301943
C20	C	1.073137	-0.550845	-0.301963
C21	C	1.073167	-0.633391	-0.301979
C22	C	0.548894	-0.308220	-0.260197
C23	C	0.598338	-0.290145	-0.317376
C24	C	0.500609	-0.357912	-0.301994
C25	C	0.598247	-0.375933	-0.244793
C26	C	0.646594	-0.357891	-0.301966
C27	C	0.548965	-0.339802	-0.359204
C28	C	0.548870	-0.425621	-0.286582
C29	C	0.598291	-0.407572	-0.343801
C30	C	0.416510	-0.357922	-0.302010
C31	C	0.730690	-0.357881	-0.301957
C32	C	1.023625	-0.832858	-0.343807
C33	C	1.005516	-0.882285	-0.286633
C34	C	1.073240	-0.784521	-0.301987
C35	C	1.091386	-0.882177	-0.359168
C36	C	1.073309	-0.930506	-0.302000
C37	C	1.055095	-0.832861	-0.244783
C38	C	1.140996	-0.832748	-0.317356
C39	C	1.122913	-0.882153	-0.260142
C40	C	1.073198	-0.700423	-0.301981
C41	C	1.073351	-1.014603	-0.302000
C42	C	1.266933	-0.357920	-0.302005
C43	C	1.349478	-0.357931	-0.302018
C44	C	1.073289	-0.357878	-0.465396
C45	C	1.073315	-0.357872	-0.535038
C46	C	1.073337	-0.164188	-0.301997
C47	C	1.073384	-0.081642	-0.302007
C48	C	1.120839	-0.310377	-0.567765
C49	C	1.120838	-0.310345	-0.633201
C50	C	1.073321	-0.357821	-0.665906
C51	C	1.025787	-0.405319	-0.633170
C52	C	1.025785	-0.405344	-0.567736
C53	C	1.067426	-0.424690	-0.769577
C54	C	1.067434	-0.424666	-0.835010
C55	C	1.073325	-0.357743	-0.867727
C56	C	1.079224	-0.290842	-0.835003
C57	C	1.079221	-0.290867	-0.769569
C58	C	1.073318	-0.357799	-0.736858
C59	C	1.120851	-0.310210	-0.971407
C60	C	1.120844	-0.310176	-1.036844
C61	C	1.025798	-0.405157	-1.036812
C62	C	1.025800	-0.405183	-0.971377
C63	C	1.073331	-0.357711	-0.938678
C64	C	1.073208	-0.357855	-0.139185
C65	C	1.073326	-0.357652	-0.069544
H66	H	0.527208	-0.266174	-0.224906
H67	H	1.084023	-0.236394	-0.742928
F68	F	0.626546	-0.395867	-0.181580
F69	F	1.111410	-0.910494	-0.422367
H70	H	1.159549	-0.271551	-0.944783
H71	H	1.159541	-0.271721	-0.541146
F72	F	1.034986	-0.804667	-0.181564
H73	H	0.619842	-0.449586	-0.379176
H74	H	0.981606	-0.811212	-0.379123
H75	H	0.620053	-0.232874	-0.330412
H76	H	0.527126	-0.482873	-0.273537
H77	H	0.527406	-0.324484	-0.407581
H78	H	0.948249	-0.904060	-0.273646
H79	H	1.164900	-0.903661	-0.224741
H80	H	1.198250	-0.810975	-0.330371
F81	F	1.171409	-0.259781	-0.668039
H82	H	1.084023	-0.236346	-0.861640
H83	H	0.987106	-0.443863	-0.944729
H84	H	0.987096	-0.443972	-0.659803
F85	F	1.061162	-0.495867	-0.869831
F86	F	1.171437	-0.259632	-1.071675
F87	F	0.975221	-0.455679	-1.071615
H88	H	1.062429	-0.479173	-0.742944
H89	H	0.987081	-0.444019	-0.541089
