data_functionalizedCrystal
_audit_creation_method	'MofGen! by Chris Wilmer'
_symmetry_space_group_name_H-M	'P1'
_symmetry_Int_Tables_number	1
_symmetry_cell_setting	triclinic
loop_
_symmetry_equiv_pos_as_xyz
  x,y,z
_cell_length_a	14.971486
_cell_length_b	16.176319
_cell_length_c	14.971486
_cell_angle_alpha	89.992992
_cell_angle_beta	96.385871
_cell_angle_gamma	90.002456
loop_
_atom_site_label
_atom_site_type_symbol
_atom_site_fract_x
_atom_site_fract_y
_atom_site_fract_z
O1	O	1.186948	0.068652	-0.116565
O2	O	0.926548	0.068674	-0.130524
O3	O	1.063728	0.068657	0.006656
O4	O	1.049769	0.068670	-0.253744
O5	O	1.063709	-0.068837	0.006665
O6	O	0.926529	-0.068819	-0.130515
O7	O	1.186929	-0.068841	-0.116556
Cu8	Cu	1.056727	-0.081384	-0.123535
Cu9	Cu	1.056750	0.081217	-0.123545
O10	O	1.049750	-0.068824	-0.253736
C11	C	0.893214	-0.000069	-0.129895
C12	C	0.793917	-0.000061	-0.128024
N13	N	1.056718	-0.195749	-0.123527
C14	C	0.736691	-0.000058	-0.208614
C15	C	0.643392	-0.000070	-0.206850
C16	C	0.607320	-0.000080	-0.124497
C17	C	0.664552	-0.000085	-0.043902
C18	C	0.757850	-0.000079	-0.045666
C19	C	0.470090	-0.000097	-0.040231
C20	C	0.376786	-0.000102	-0.038466
C21	C	0.355632	-0.000088	-0.201415
C22	C	0.448930	-0.000082	-0.203179
C23	C	0.506156	-0.000086	-0.122584
C24	C	1.117480	-0.239022	-0.062809
C25	C	1.117484	-0.325569	-0.062808
C26	C	1.056731	-0.368842	-0.123530
C27	C	0.995963	-0.325564	-0.184251
C28	C	0.995955	-0.239018	-0.184247
C29	C	0.995994	-0.674592	-0.184268
C30	C	0.996008	-0.761144	-0.184269
C31	C	1.117523	-0.761142	-0.062829
C32	C	1.117515	-0.674597	-0.062825
C33	C	1.056744	-0.631326	-0.123542
C34	C	1.056739	-0.537482	-0.123541
C35	C	1.056740	-0.462685	-0.123536
C36	C	1.220263	-0.000096	-0.117185
C37	C	1.319561	-0.000099	-0.119056
C38	C	1.063094	-0.000090	0.039985
C39	C	1.061223	-0.000089	0.139282
N40	N	1.056766	0.195583	-0.123546
C41	C	1.050384	-0.000075	-0.287065
C42	C	1.052254	-0.000071	-0.386362
C43	C	1.141812	-0.000096	0.196507
C44	C	1.140049	-0.000088	0.289807
C45	C	1.057696	-0.000078	0.325879
C46	C	0.977101	-0.000068	0.268646
C47	C	0.978865	-0.000070	0.175349
C48	C	0.973430	-0.000064	0.463109
C49	C	0.971665	-0.000063	0.556413
C50	C	1.134614	-0.000082	0.577567
C51	C	1.136378	-0.000085	0.484269
C52	C	1.055782	-0.000076	0.427043
H53	H	0.766054	-0.000050	-0.275675
H54	H	1.205673	-0.000096	0.336396
Cl55	Cl	0.872107	-0.000053	0.391168
H56	H	1.166956	-0.203794	-0.013365
H57	H	0.946492	-0.360802	-0.233689
Cl58	Cl	1.245348	-0.000118	0.151169
H59	H	1.166989	-0.639366	-0.013382
Cl60	Cl	1.193919	-0.815544	0.013507
H61	H	0.946514	-0.639368	-0.233708
Cl62	Cl	1.239909	-0.000093	0.438922
Cl63	Cl	1.235935	-0.000088	0.649508
Cl64	Cl	0.873570	-0.000045	0.313995
Cl65	Cl	0.868134	-0.000051	0.601760
H66	H	1.166960	-0.360800	-0.013366
Cl67	Cl	0.877548	-0.000058	0.103407
H68	H	0.596802	-0.000067	-0.272474
H69	H	0.309033	-0.000089	-0.267039
Cl70	Cl	0.494276	-0.000061	-0.306711
H71	H	0.347419	-0.000110	0.028593
H72	H	0.946532	-0.796376	-0.233718
H73	H	0.516682	-0.000101	0.025399
H74	H	0.635175	-0.000105	0.023152
H75	H	0.804443	-0.000080	0.019958
Cl76	Cl	0.919562	-0.184620	-0.260579
