data_functionalizedCrystal
_audit_creation_method	'MofGen! by Chris Wilmer'
_symmetry_space_group_name_H-M	'P1'
_symmetry_Int_Tables_number	1
_symmetry_cell_setting	triclinic
loop_
_symmetry_equiv_pos_as_xyz
  x,y,z
_cell_length_a	10.654550
_cell_length_b	10.654550
_cell_length_c	9.130313
_cell_angle_alpha	89.996938
_cell_angle_beta	90.001654
_cell_angle_gamma	95.515097
loop_
_atom_site_label
_atom_site_type_symbol
_atom_site_fract_x
_atom_site_fract_y
_atom_site_fract_z
O1	O	1.667837	-0.176398	0.121786
O2	O	1.302358	-0.193204	0.121791
O3	O	1.493500	-0.002062	0.121783
O4	O	1.476694	-0.367540	0.121794
O5	O	1.493493	-0.002057	-0.121816
O6	O	1.302351	-0.193199	-0.121808
O7	O	1.667829	-0.176393	-0.121813
Cu8	Cu	1.485089	-0.184796	-0.144053
Cu9	Cu	1.485098	-0.184802	0.144031
O10	O	1.476687	-0.367535	-0.121805
C11	C	1.255556	-0.191968	-0.000008
C12	C	1.116113	-0.188276	-0.000006
C13	C	1.492263	0.044739	-0.000015
C14	C	1.488571	0.184182	-0.000010
N15	N	1.485092	-0.184791	-0.346676
C16	C	1.714631	-0.177630	-0.000011
C17	C	1.854074	-0.181321	-0.000003
C18	C	1.933560	-0.068780	-0.000001
C19	C	2.064581	-0.072257	-0.000008
C20	C	2.036617	-0.300826	-0.000013
C21	C	1.905599	-0.297348	-0.000017
C22	C	1.949705	0.063183	0.000009
C23	C	2.080726	0.059706	0.000002
C24	C	1.477924	-0.414336	-0.000004
C25	C	1.481616	-0.553779	0.000000
C26	C	1.601112	0.263668	-0.000016
C27	C	1.597636	0.394688	-0.000005
C28	C	1.369066	0.366725	0.000011
C29	C	1.372544	0.235707	0.000011
C30	C	1.733075	0.279813	-0.000031
C31	C	1.729599	0.410834	-0.000021
C32	C	1.408273	-0.107907	-0.423353
C33	C	1.408276	-0.107913	-0.576689
C34	C	1.561927	-0.261689	-0.576659
C35	C	1.561917	-0.261689	-0.423325
C36	C	1.319568	-0.019122	-0.423372
C37	C	1.319571	-0.019128	-0.576708
N38	N	1.485105	-0.184797	0.346653
H39	H	1.840885	-0.388991	-0.000036
F40	F	1.643682	-0.343527	-0.658247
H41	H	1.775094	0.244188	-0.105213
F42	F	1.781729	0.470496	0.137452
F43	F	1.643640	-0.343556	-0.341725
H44	H	2.126370	0.099585	-0.105180
F45	F	1.245589	0.421573	0.000036
H46	H	1.350498	0.079913	-0.618328
F47	F	2.135311	0.124668	0.133260
F48	F	1.911328	0.130647	-0.133234
F49	F	1.800543	0.241431	0.133206
F50	F	1.195943	-0.070713	-0.638886
H51	H	1.914077	0.105202	0.105188
H52	H	1.220512	-0.049989	-0.381771
F53	F	1.371233	0.104475	-0.361202
F54	F	2.091465	-0.424303	-0.000027
H55	H	1.280902	0.170993	0.000036
H56	H	1.779317	0.452596	-0.101965
