data_functionalizedCrystal
_audit_creation_method	'MofGen! by Chris Wilmer'
_symmetry_space_group_name_H-M	'P1'
_symmetry_Int_Tables_number	1
_symmetry_cell_setting	triclinic
loop_
_symmetry_equiv_pos_as_xyz
  x,y,z
_cell_length_a	15.995350
_cell_length_b	8.597340
_cell_length_c	15.072220
_cell_angle_alpha	82.303810
_cell_angle_beta	89.994453
_cell_angle_gamma	84.418396
loop_
_atom_site_label
_atom_site_type_symbol
_atom_site_fract_x
_atom_site_fract_y
_atom_site_fract_z
O1	O	0.124982	2.082394	-0.085416
O2	O	0.134565	1.625471	-0.050484
O3	O	0.007988	1.866423	-0.068906
O4	O	0.251559	1.841442	-0.066994
O5	O	0.008004	1.866392	-0.216469
O6	O	0.134581	1.625440	-0.198047
O7	O	0.124998	2.082363	-0.232979
Zn8	Zn	0.129792	1.853897	-0.238942
Zn9	Zn	0.129771	1.853938	-0.044521
O10	O	0.251575	1.841411	-0.214557
C11	C	0.133543	1.566985	-0.119795
C12	C	0.130463	1.392763	-0.106476
C13	C	-0.023207	1.865375	-0.142607
C14	C	-0.116183	1.862279	-0.142365
C15	C	-0.454022	1.851160	-0.141518
C16	C	-0.407994	1.679558	-0.128068
C17	C	-0.311278	1.682655	-0.128637
C18	C	-0.286416	1.856675	-0.141937
C19	C	-0.326791	1.941297	-0.232672
C20	C	-0.423462	1.936986	-0.232413
C21	C	-0.423809	1.940566	-0.064878
C22	C	-0.326864	1.940526	-0.063761
C23	C	-0.191693	1.859801	-0.142178
C24	C	-0.548745	1.848038	-0.141283
C25	C	0.282770	1.842460	-0.140854
C26	C	0.375746	1.845556	-0.141090
C27	C	0.126020	2.140849	-0.163666
C28	C	0.129100	2.315072	-0.176979
N29	N	0.129806	1.853880	-0.371629
C30	C	0.129787	1.853909	-0.552629
C31	C	0.197490	1.724960	-0.580439
C32	C	0.197299	1.724519	-0.683231
C33	C	0.129769	1.853937	-0.730835
C34	C	0.042011	1.818840	-0.690810
C35	C	0.042417	1.817898	-0.587881
C36	C	0.149056	2.018352	-0.603089
C37	C	0.151022	2.017266	-0.705871
C38	C	0.129754	1.853957	-0.831550
C39	C	0.129796	1.853887	-0.451914
N40	N	0.129750	1.853966	0.088165
H41	H	-0.283408	1.616135	-0.063147
H42	H	0.130282	1.381844	-0.247534
Br43	Br	0.128475	1.281476	0.011130
H44	H	-0.442262	1.875253	-0.290686
H45	H	0.215596	2.043899	-0.732299
Br46	Br	-0.044112	1.971279	-0.743166
Br47	Br	-0.439824	1.565251	-0.018609
H48	H	-0.428141	1.611262	-0.182938
H49	H	-0.009565	1.908281	-0.569869
H50	H	-0.283956	1.615662	-0.184023
Br51	Br	-0.458808	1.847063	0.048723
Br52	Br	-0.475494	2.146963	-0.254845
H53	H	-0.310463	2.067430	-0.068372
H54	H	-0.311617	2.069144	-0.245577
Br55	Br	-0.475017	2.151441	-0.080049
H56	H	-0.298884	1.882497	-0.290887
Br57	Br	-0.281758	1.838271	0.047975
Br58	Br	0.305937	1.759190	-0.727971
H59	H	0.262888	1.745408	-0.557278
H60	H	0.185172	1.603603	-0.545331
H61	H	0.184807	1.602487	-0.698525
Br62	Br	0.013515	1.621296	-0.718666
H63	H	0.025693	1.697991	-0.554739
H64	H	0.211778	2.052228	-0.579745
H65	H	0.105032	2.117684	-0.739216
H66	H	0.099705	2.114307	-0.586057
