data_functionalizedCrystal
_audit_creation_method	'MofGen! by Chris Wilmer'
_symmetry_space_group_name_H-M	'P1'
_symmetry_Int_Tables_number	1
_symmetry_cell_setting	triclinic
loop_
_symmetry_equiv_pos_as_xyz
  x,y,z
_cell_length_a	19.805407
_cell_length_b	18.050589
_cell_length_c	19.805407
_cell_angle_alpha	90.008031
_cell_angle_beta	90.009221
_cell_angle_gamma	90.028221
loop_
_atom_site_label
_atom_site_type_symbol
_atom_site_fract_x
_atom_site_fract_y
_atom_site_fract_z
Zn1	Zn	1.034658	-0.295781	0.382744
Zn2	Zn	1.034590	-0.419942	0.269567
Zn3	Zn	0.921493	-0.295771	0.269569
Zn4	Zn	0.921433	-0.419934	0.382713
O5	O	0.978043	-0.357857	0.326148
O6	O	1.129365	-0.312259	0.367743
O7	O	1.019584	-0.403470	0.174850
O8	O	0.936559	-0.191848	0.284596
O9	O	1.129315	-0.403480	0.284592
O10	O	1.019700	-0.191855	0.367745
O11	O	0.936492	-0.312242	0.174852
O12	O	0.826768	-0.312233	0.284566
O13	O	0.936455	-0.403466	0.477434
O14	O	0.826724	-0.403455	0.367692
O15	O	1.019642	-0.312251	0.477457
O16	O	1.019525	-0.523866	0.284562
O17	O	0.936389	-0.523860	0.367690
C18	C	0.802187	-0.357843	0.326126
C19	C	0.726955	-0.357855	0.326133
C20	C	0.977962	-0.550809	0.326137
C21	C	0.977989	-0.633355	0.326155
C22	C	0.691606	-0.405426	0.369347
C23	C	0.620917	-0.405427	0.369357
C24	C	0.585580	-0.357860	0.326148
C25	C	0.620934	-0.310284	0.282932
C26	C	0.691621	-0.310280	0.282927
C27	C	0.335861	-0.310301	0.282955
C28	C	0.265169	-0.310311	0.282962
C29	C	0.265157	-0.405448	0.369385
C30	C	0.335844	-0.405443	0.369379
C31	C	0.371192	-0.357865	0.326166
C32	C	0.447841	-0.357863	0.326157
C33	C	0.508933	-0.357866	0.326153
C34	C	0.932824	-0.832829	0.371344
C35	C	0.916336	-0.882251	0.309581
C36	C	0.978055	-0.784485	0.326164
C37	C	0.994575	-0.882145	0.387934
C38	C	0.978118	-0.930470	0.326178
C39	C	0.961535	-0.832820	0.264368
C40	C	1.039803	-0.832710	0.342762
C41	C	1.023339	-0.882109	0.280957
C42	C	0.978017	-0.700387	0.326157
C43	C	0.978156	-1.014567	0.326178
C44	C	1.154586	-0.357872	0.326171
C45	C	1.229818	-0.357878	0.326180
C46	C	0.978049	-0.357859	0.502691
C47	C	0.978052	-0.357859	0.577923
C48	C	0.978144	-0.164151	0.326174
C49	C	0.978187	-0.081606	0.326185
C50	C	1.021362	-0.310371	0.613280
C51	C	1.021356	-0.310369	0.683968
C52	C	0.978043	-0.357859	0.719299
C53	C	0.934729	-0.405349	0.683936
C54	C	0.934732	-0.405347	0.613249
C55	C	0.934715	-0.405358	0.969010
C56	C	0.934717	-0.405358	1.039702
C57	C	1.021339	-0.310380	1.039729
C58	C	1.021342	-0.310378	0.969042
C59	C	0.978026	-0.357865	0.933686
C60	C	0.978032	-0.357865	0.857037
C61	C	0.978040	-0.357862	0.795946
C62	C	0.978031	-0.357871	1.150292
C63	C	0.978024	-0.357865	1.075060
H64	H	0.720373	-0.444162	0.404530
H65	H	1.056634	-0.271701	0.584519
H66	H	1.091980	-0.810934	0.356818
H67	H	1.056614	-0.271709	0.940280
H68	H	0.236399	-0.271572	0.247777
H69	H	0.364612	-0.444179	0.404561
H70	H	1.056624	-0.271701	0.712753
H71	H	1.008523	-0.903811	0.440167
H72	H	0.899444	-0.444031	1.068466
H73	H	1.056608	-0.271711	1.068524
H74	H	0.899454	-0.444036	0.940231
O75	O	0.892717	-0.451456	0.718359
C76	C	0.854291	-0.493524	0.827241
C77	C	0.901915	-0.441280	0.788345
H78	H	0.861702	-0.485303	0.883832
H79	H	0.866146	-0.553424	0.813386
H80	H	0.799729	-0.480483	0.813294
H81	H	0.956493	-0.454254	0.802272
H82	H	0.890003	-0.381395	0.802204
H83	H	1.061617	-0.903612	0.242711
O84	O	0.230786	-0.451554	0.411441
C85	C	0.150969	-0.461708	0.502791
C86	C	0.189862	-0.409410	0.455219
H87	H	0.117862	-0.427657	0.538187
H88	H	0.188337	-0.495694	0.533720
H89	H	0.117880	-0.500502	0.471644
H90	H	0.222952	-0.370571	0.486313
H91	H	0.152458	-0.375477	0.424288
H92	H	0.899458	-0.444009	0.584462
H93	H	0.364633	-0.271565	0.247763
O94	O	0.586657	-0.451610	0.411424
C95	C	0.565021	-0.487857	0.526499
C96	C	0.603872	-0.435514	0.478934
H97	H	0.578915	-0.474852	0.581092
H98	H	0.578912	-0.547727	0.514563
H99	H	0.508432	-0.479708	0.519052
H100	H	0.660470	-0.443597	0.486354
H101	H	0.589926	-0.375664	0.490882
O102	O	0.586505	-0.264144	0.240984
C103	C	0.477615	-0.221948	0.202723
C104	C	0.516520	-0.274253	0.250253
H105	H	0.421026	-0.230092	0.210210
H106	H	0.491444	-0.234891	0.148108
H107	H	0.491582	-0.162094	0.214699
H108	H	0.502574	-0.334125	0.238338
H109	H	0.502688	-0.261246	0.304854
O110	O	0.725858	-0.264050	0.240881
C111	C	0.718414	-0.169658	0.155183
C112	C	0.679559	-0.221990	0.202754
H113	H	0.680999	-0.135628	0.124355
H114	H	0.751467	-0.203658	0.119691
H115	H	0.751550	-0.130908	0.186324
H116	H	0.646386	-0.260751	0.171666
H117	H	0.646549	-0.187944	0.238247
H118	H	0.894517	-0.811190	0.409498
O119	O	0.854080	-0.908304	0.292926
C120	C	0.758403	-0.981769	0.327139
C121	C	0.828910	-0.952334	0.346072
H122	H	0.738026	-1.017360	0.370102
H123	H	0.762103	-1.016571	0.279244
H124	H	0.722861	-0.933117	0.318068
H125	H	0.864491	-1.000940	0.355178
H126	H	0.825157	-0.917510	0.393949
O127	O	0.944802	-0.806962	0.202084
C128	C	0.926037	-0.699667	0.132191
C129	C	0.944983	-0.728853	0.202759
H130	H	0.926191	-0.636513	0.132710
H131	H	0.873572	-0.720462	0.117944
H132	H	0.964371	-0.720429	0.093659
H133	H	0.906694	-0.708103	0.241338
H134	H	0.997464	-0.708064	0.216949
