data_functionalizedCrystal
_audit_creation_method	'MofGen! by Chris Wilmer'
_symmetry_space_group_name_H-M	'P1'
_symmetry_Int_Tables_number	1
_symmetry_cell_setting	triclinic
loop_
_symmetry_equiv_pos_as_xyz
  x,y,z
_cell_length_a	14.519731
_cell_length_b	16.992695
_cell_length_c	15.455341
_cell_angle_alpha	87.182812
_cell_angle_beta	87.008428
_cell_angle_gamma	87.178538
loop_
_atom_site_label
_atom_site_type_symbol
_atom_site_fract_x
_atom_site_fract_y
_atom_site_fract_z
O1	O	-1.227401	-0.099806	-0.072133
O2	O	-0.727401	0.400194	0.427867
O3	O	-0.959794	-0.111894	-0.072135
O4	O	-0.459794	0.388106	0.427865
O5	O	-1.092525	0.008294	-0.072127
O6	O	-0.592525	0.508294	0.427873
O7	O	-1.094670	-0.219994	-0.072141
O8	O	-0.594670	0.280006	0.427859
O9	O	-1.100186	0.002160	0.072134
O10	O	-0.600186	0.502160	0.572134
O11	O	-0.967455	-0.118028	0.072126
O12	O	-0.467455	0.381972	0.572126
O13	O	-1.235061	-0.105940	0.072128
O14	O	-0.735061	0.394060	0.572128
Cu15	Cu	-1.101957	-0.112544	0.085299
Cu16	Cu	-0.601957	0.387456	0.585299
Cu17	Cu	-1.092898	-0.105290	-0.085306
Cu18	Cu	-0.592898	0.394710	0.414694
O19	O	-1.102330	-0.226128	0.072120
O20	O	-0.602330	0.273872	0.572120
C21	C	-1.093595	0.034444	0.000003
C22	C	-0.593595	0.534444	0.500003
C23	C	-1.085360	0.121500	0.000003
C24	C	-0.585360	0.621500	0.500003
C25	C	-0.929224	-0.114395	-0.000004
C26	C	-0.429224	0.385605	0.499996
C27	C	-0.826722	-0.112697	-0.000005
C28	C	-0.326722	0.387303	0.499995
C29	C	-1.265631	-0.103439	-0.000005
C30	C	-0.765631	0.396561	0.499995
C31	C	-1.368133	-0.105136	-0.000010
C32	C	-0.868133	0.394864	0.499990
C33	C	-0.743479	-0.111318	-0.000008
C34	C	-0.243479	0.388682	0.499992
C35	C	-0.639047	-0.109595	-0.000008
C36	C	-0.139047	0.390405	0.499992
C37	C	-0.555809	-0.108227	-0.000008
C38	C	-0.055809	0.391773	0.499992
C39	C	-0.451370	-0.106504	-0.000010
C40	C	0.048630	0.393496	0.499990
C41	C	-1.101260	-0.252277	-0.000012
C42	C	-0.601260	0.247723	0.499988
C43	C	-1.109495	-0.339333	-0.000018
C44	C	-0.609495	0.160667	0.499982
N45	N	-1.108336	-0.117645	0.205294
N46	N	-0.608336	0.382355	0.705294
C47	C	-1.164820	0.171624	0.000004
C48	C	-0.664820	0.671624	0.500004
C49	C	-1.157076	0.253422	-0.000004
C50	C	-0.657076	0.753422	0.499996
C51	C	-1.069872	0.285095	-0.000007
C52	C	-0.569872	0.785095	0.499993
C53	C	-0.990406	0.234964	-0.000011
C54	C	-0.490406	0.734964	0.499989
C55	C	-0.998151	0.153168	-0.000009
C56	C	-0.498151	0.653168	0.499991
C57	C	-1.037774	0.528740	-0.000020
C58	C	-0.537774	1.028740	0.499980
C59	C	-1.030036	0.610543	-0.000019
C60	C	-0.530036	1.110543	0.499981
C61	C	-1.196706	0.628995	-0.000013
C62	C	-0.696706	1.128995	0.499987
C63	C	-1.204443	0.547196	-0.000006
C64	C	-0.704443	1.047196	0.499994
C65	C	-1.124977	0.497073	-0.000014
C66	C	-0.624977	0.997073	0.499986
N67	N	-1.061954	0.368705	-0.000013
N68	N	-0.561954	0.868705	0.499987
N69	N	-1.132895	0.413464	-0.000015
N70	N	-0.632895	0.913464	0.499985
N71	N	-1.086527	-0.100182	-0.205301
N72	N	-0.586527	0.399818	0.294699
C73	C	-1.143556	-0.145922	0.749296
C74	C	-0.643556	0.354078	1.249296
C75	C	-1.138737	-0.142058	0.658489
C76	C	-0.638737	0.357942	1.158489
C77	C	-1.076893	-0.092450	0.613087
C78	C	-0.576893	0.407550	1.113087
C79	C	-1.019857	-0.046709	0.658496
C80	C	-0.519857	0.453291	1.158496
C81	C	-1.024672	-0.050577	0.749302
C82	C	-0.524672	0.449423	1.249302
C83	C	-1.056115	-0.075772	0.341509
C84	C	-0.556115	0.424228	0.841509
C85	C	-1.051306	-0.071906	0.250697
C86	C	-0.551306	0.428094	0.750697
C87	C	-1.170186	-0.167257	0.250696
C88	C	-0.670186	0.332743	0.750696
C89	C	-1.174999	-0.171117	0.341503
C90	C	-0.674999	0.328883	0.841503
C91	C	-1.117960	-0.125379	0.386905
C92	C	-0.617960	0.374621	0.886905
N93	N	-1.071968	-0.088498	0.520267
N94	N	-0.571968	0.411502	1.020267
N95	N	-1.122881	-0.129336	0.479722
N96	N	-0.622881	0.370664	0.979722
H97	H	-1.235831	0.145843	0.000012
H98	H	-0.735831	0.645843	0.500012
F99	F	-1.230884	-0.215933	0.202370
F100	F	-0.730884	0.284067	0.702370
H101	H	-1.221780	0.294230	-0.000001
H102	H	-0.721780	0.794230	0.499999
F103	F	-1.240820	-0.223919	0.389817
F104	F	-0.740820	0.276081	0.889817
H105	H	-1.000940	-0.031509	0.213733
H106	H	-0.500940	0.468491	0.713733
F107	F	-0.897596	0.268675	-0.000025
F108	F	-0.397596	0.768675	0.499975
H109	H	-1.009672	-0.038526	0.378464
H110	H	-0.509672	0.461474	0.878464
H111	H	-0.969498	-0.006320	0.621522
H112	H	-0.469498	0.493680	1.121522
F113	F	-0.953198	0.475406	-0.000031
F114	F	-0.453198	0.975406	0.499969
H115	H	-1.193920	-0.186315	0.786256
H116	H	-0.693920	0.313685	1.286256
H117	H	-0.933446	0.112357	-0.000011
H118	H	-0.433446	0.612357	0.499989
F119	F	-1.297256	0.513495	-0.000024
F120	F	-0.797256	1.013495	0.499976
F121	F	-1.199413	-0.190762	0.610172
F122	F	-0.699413	0.309238	1.110172
F123	F	-0.963971	-0.001896	0.797623
F124	F	-0.463971	0.498104	1.297623
H125	H	-1.261402	0.669813	-0.000008
H126	H	-0.761402	1.169813	0.499992
H127	H	-0.959021	0.636326	-0.000008
H128	H	-0.459021	1.136326	0.499992
