data_functionalizedCrystal
_audit_creation_method	'MofGen! by Chris Wilmer'
_symmetry_space_group_name_H-M	'P1'
_symmetry_Int_Tables_number	1
_symmetry_cell_setting	triclinic
loop_
_symmetry_equiv_pos_as_xyz
  x,y,z
_cell_length_a	17.699083
_cell_length_b	10.723024
_cell_length_c	16.176319
_cell_angle_alpha	89.994397
_cell_angle_beta	89.998611
_cell_angle_gamma	83.875442
loop_
_atom_site_label
_atom_site_type_symbol
_atom_site_fract_x
_atom_site_fract_y
_atom_site_fract_z
O1	O	1.005074	0.157797	-0.068628
O2	O	1.505074	0.657797	0.431372
O3	O	0.784825	0.178327	-0.068655
O4	O	1.284825	0.678327	0.431345
O5	O	0.900030	-0.013601	-0.068638
O6	O	1.400030	0.486399	0.431362
O7	O	0.889869	0.349725	-0.068646
O8	O	1.389869	0.849725	0.431354
O9	O	0.900014	-0.013613	0.068855
O10	O	1.400014	0.486387	0.568855
O11	O	0.784809	0.178315	0.068838
O12	O	1.284809	0.678315	0.568838
O13	O	1.005058	0.157785	0.068865
O14	O	1.505058	0.657785	0.568865
Cu15	Cu	0.894932	0.168049	0.081406
Cu16	Cu	1.394932	0.668049	0.581406
Cu17	Cu	0.894951	0.168063	-0.081196
Cu18	Cu	1.394951	0.668063	0.418804
O19	O	0.889853	0.349713	0.068848
O20	O	1.389853	0.849713	0.568848
C21	C	0.756616	0.177585	0.000088
C22	C	1.256616	0.677585	0.500088
C23	C	0.672584	0.175378	0.000078
C24	C	1.172584	0.675378	0.500078
C25	C	0.624673	0.288036	0.000076
C26	C	1.124673	0.788036	0.500076
C27	C	0.545717	0.285955	0.000086
C28	C	1.045717	0.785955	0.500086
C29	C	0.514672	0.171215	0.000093
C30	C	1.014672	0.671215	0.500093
C31	C	0.562589	0.058549	0.000098
C32	C	1.062589	0.558549	0.500098
C33	C	0.641544	0.060631	0.000093
C34	C	1.141544	0.560631	0.500093
C35	C	0.244173	0.050148	0.000118
C36	C	0.744173	0.550148	0.500118
C37	C	0.165212	0.048075	0.000121
C38	C	0.665212	0.548075	0.500121
C39	C	0.148346	0.275473	0.000112
C40	C	0.648346	0.775473	0.500112
C41	C	0.227301	0.277555	0.000107
C42	C	0.727301	0.777555	0.500107
C43	C	0.275210	0.164889	0.000116
C44	C	0.775210	0.664889	0.500116
C45	C	0.360824	0.167147	0.000106
C46	C	0.860824	0.667147	0.500106
C47	C	0.429060	0.168956	0.000097
C48	C	0.929060	0.668956	0.500097
C49	C	0.899283	-0.060094	0.000107
C50	C	1.399283	0.439906	0.500107
C51	C	0.897070	-0.198610	0.000104
C52	C	1.397070	0.301390	0.500104
C53	C	0.961533	-0.274698	0.000111
C54	C	1.461533	0.225302	0.500111
C55	C	0.959248	-0.417863	0.000108
C56	C	1.459248	0.082137	0.500108
C57	C	1.033268	0.158527	0.000120
C58	C	1.533268	0.658527	0.500120
C59	C	1.117300	0.160734	0.000125
C60	C	1.617300	0.660734	0.500125
C61	C	0.890601	0.396206	0.000100
C62	C	1.390601	0.896206	0.500100
C63	C	0.892813	0.534723	0.000098
C64	C	1.392813	1.034723	0.500098
N65	N	0.894924	0.168038	0.195771
N66	N	1.394924	0.668038	0.695771
N67	N	0.894965	0.168064	-0.195561
N68	N	1.394965	0.668064	0.304439
C69	C	0.945953	0.083087	0.239042
C70	C	1.445953	0.583087	0.739042
C71	C	0.945957	0.083085	0.325590
C72	C	1.445957	0.583085	0.825590
C73	C	0.894935	0.168042	0.368863
C74	C	1.394935	0.668042	0.868863
C75	C	0.843901	0.252997	0.325586
C76	C	1.343901	0.752997	0.825586
C77	C	0.843894	0.252992	0.239040
C78	C	1.343894	0.752992	0.739040
C79	C	0.843927	0.253021	0.674614
C80	C	1.343927	0.753021	1.174614
C81	C	0.843940	0.253022	0.761165
C82	C	1.343940	0.753022	1.261165
C83	C	0.945989	0.083115	0.761163
C84	C	1.445989	0.583115	1.261163
C85	C	0.945983	0.083109	0.674618
C86	C	1.445983	0.583109	1.174618
C87	C	0.894946	0.168059	0.631348
C88	C	1.394946	0.668059	1.131348
C89	C	0.894942	0.168058	0.537503
C90	C	1.394942	0.668058	1.037503
C91	C	0.894943	0.168050	0.462706
C92	C	1.394943	0.668050	0.962706
H93	H	0.680552	-0.031107	0.000094
H94	H	1.180552	0.468893	0.500094
H95	H	0.537306	-0.034875	0.000115
H96	H	1.037306	0.465125	0.500115
H97	H	0.252572	0.370988	0.000098
H98	H	0.752572	0.870988	0.500098
Br99	Br	0.774650	0.368290	0.384311
Br100	Br	1.274650	0.868290	0.884311
H101	H	0.987503	0.013910	0.203815
H102	H	1.487503	0.513910	0.703815
Br103	Br	0.666797	0.443764	0.000058
Br104	Br	1.166797	0.943764	0.500058
Br105	Br	0.480698	0.438855	0.000081
Br106	Br	0.980698	0.938855	0.500081
H107	H	0.837625	-0.399906	0.000098
H108	H	1.337625	0.100094	0.500098
H109	H	0.802341	0.322166	0.203809
H110	H	1.302341	0.822166	0.703809
H111	H	1.014433	-0.483241	0.000117
H112	H	1.514433	0.016759	0.500117
Br113	Br	0.123080	-0.107655	0.000128
Br114	Br	0.623080	0.392345	0.500128
Br115	Br	0.083321	0.428380	0.000101
Br116	Br	0.583321	0.928380	0.500101
H117	H	0.840190	-0.239457	0.000092
H118	H	1.340190	0.260543	0.500092
H119	H	0.987544	0.013939	0.796403
H120	H	1.487544	0.513939	1.296403
H121	H	0.987507	0.013911	0.360821
H122	H	1.487507	0.513911	0.860821
H123	H	0.283172	-0.041591	0.000126
H124	H	0.783172	0.458409	0.500126
H125	H	0.987531	0.013933	0.639387
H126	H	1.487531	0.513933	1.139387
Br127	Br	0.774692	0.368330	0.819894
Br128	Br	1.274692	0.868330	1.319894
H129	H	1.018413	-0.233851	0.000123
H130	H	1.518413	0.266149	0.500123
Br131	Br	0.774668	0.368309	0.615894
Br132	Br	1.274668	0.868309	1.115894
