data_functionalizedCrystal
_audit_creation_method	'MofGen! by Chris Wilmer'
_symmetry_space_group_name_H-M	'P1'
_symmetry_Int_Tables_number	1
_symmetry_cell_setting	triclinic
loop_
_symmetry_equiv_pos_as_xyz
  x,y,z
_cell_length_a	17.699083
_cell_length_b	10.967829
_cell_length_c	16.176319
_cell_angle_alpha	102.131306
_cell_angle_beta	89.999950
_cell_angle_gamma	84.013885
loop_
_atom_site_label
_atom_site_type_symbol
_atom_site_fract_x
_atom_site_fract_y
_atom_site_fract_z
O1	O	1.005075	0.157793	0.091108
O2	O	0.784826	0.178323	0.094059
O3	O	0.900029	-0.013607	0.066700
O4	O	0.889872	0.349723	0.118467
O5	O	0.900015	-0.013608	-0.070794
O6	O	0.784813	0.178322	-0.043434
O7	O	1.005061	0.157792	-0.046385
Cu8	Cu	0.894936	0.168057	-0.057464
Cu9	Cu	0.894952	0.168058	0.105138
O10	O	0.889859	0.349722	-0.019026
C11	C	0.756618	0.177587	0.025211
C12	C	0.672586	0.175380	0.024907
C13	C	0.624677	0.288039	0.040959
C14	C	0.545720	0.285958	0.040652
C15	C	0.514674	0.171217	0.024299
C16	C	0.562589	0.058549	0.008243
C17	C	0.641544	0.060632	0.008545
C18	C	0.244173	0.050149	0.007026
C19	C	0.165212	0.048075	0.006728
C20	C	0.148349	0.275475	0.039133
C21	C	0.227304	0.277557	0.039434
C22	C	0.275212	0.164891	0.023375
C23	C	0.360826	0.167149	0.023706
C24	C	0.429062	0.168957	0.023972
C25	C	0.899282	-0.060095	-0.008668
C26	C	0.897068	-0.198612	-0.028399
C27	C	0.896088	-0.260361	0.034031
C28	C	0.893800	-0.403527	0.013641
C29	C	1.033270	0.158528	0.022464
C30	C	1.117302	0.160735	0.022774
C31	C	0.890606	0.396210	0.056344
C32	C	0.892820	0.534728	0.076080
N33	N	0.894930	0.168056	-0.171829
C34	C	0.941222	0.243645	-0.204326
C35	C	0.941230	0.243640	-0.290873
C36	C	0.894941	0.168052	-0.344922
C37	C	0.848647	0.092455	-0.312421
C38	C	0.848643	0.092454	-0.225876
C39	C	0.848661	0.092456	-0.661449
C40	C	0.848666	0.092466	-0.747999
C41	C	0.941248	0.243643	-0.726447
C42	C	0.941245	0.243642	-0.639901
C43	C	0.894953	0.168040	-0.607408
C44	C	0.894946	0.168044	-0.513564
C45	C	0.894944	0.168054	-0.438765
N46	N	0.894964	0.168049	0.219502
H47	H	0.139938	-0.045366	-0.006590
O48	O	0.101887	0.385006	0.054627
C49	C	0.116043	0.454678	-0.006660
H50	H	0.175769	0.423857	-0.034789
H51	H	0.072778	0.437754	-0.058939
C52	C	0.035916	0.633137	0.069561
C53	C	0.109275	0.595289	0.035017
H54	H	0.031738	0.719873	0.095267
H55	H	0.026376	0.586197	0.110850
H56	H	-0.000130	0.619023	0.025988
H57	H	0.145319	0.609388	0.078591
H58	H	0.118821	0.642235	-0.006263
H59	H	0.810961	0.030903	-0.356436
O60	O	0.499148	0.395359	0.056101
C61	C	0.452961	0.400958	-0.014301
H62	H	0.481544	0.337077	-0.073180
H63	H	0.395389	0.368825	-0.002787
C64	C	0.406563	0.615237	0.045093
C65	C	0.441672	0.536784	-0.027225
H66	H	0.399596	0.699021	0.037122
H67	H	0.437677	0.611464	0.092526
H68	H	0.358590	0.588444	0.054680
H69	H	0.489648	0.563568	-0.036805
H70	H	0.410565	0.540565	-0.074660
H71	H	0.896208	-0.251735	-0.096943
H72	H	0.978928	0.305190	-0.317327
H73	H	0.978912	0.305205	-0.160323
H74	H	0.649948	0.381474	0.054276
H75	H	0.283171	-0.041592	-0.006051
H76	H	0.896940	-0.207237	0.102576
H77	H	0.892940	-0.456644	-0.054908
H78	H	0.893666	-0.412153	0.144630
H79	H	0.978935	0.305198	-0.595897
O80	O	0.986331	0.317002	-0.757933
C81	C	1.062971	0.282253	-0.741742
H82	H	1.065964	0.233848	-0.685802
H83	H	1.090505	0.215255	-0.799995
C84	C	1.101772	0.459635	-0.789640
C85	C	1.105449	0.400194	-0.720928
H86	H	1.127977	0.532385	-0.776804
H87	H	1.050140	0.483045	-0.800551
H88	H	1.124717	0.403791	-0.838178
H89	H	1.082497	0.456032	-0.672395
H90	H	1.157080	0.376796	-0.710009
H91	H	0.810971	0.030909	-0.792006
H92	H	0.810968	0.030896	-0.635005
O93	O	0.532397	-0.052879	-0.007492
C94	C	0.487214	-0.060874	0.062567
H95	H	0.506221	0.004275	0.121621
H96	H	0.425110	-0.031903	0.050594
C97	C	0.472730	-0.276766	0.002962
C98	C	0.496080	-0.196756	0.075496
H99	H	0.478196	-0.360585	0.010936
H100	H	0.503168	-0.271379	-0.044239
H101	H	0.420979	-0.252608	-0.007008
H102	H	0.547833	-0.220905	0.085458
H103	H	0.465650	-0.202150	0.122699
O104	O	0.803603	0.018996	-0.194439
C105	C	0.762760	-0.047743	-0.260703
H106	H	0.758611	0.003925	-0.315033
H107	H	0.793434	-0.145754	-0.283873
C108	C	0.687413	-0.121503	-0.161667
C109	C	0.682311	-0.058038	-0.228393
H110	H	0.637789	-0.127860	-0.141737
H111	H	0.714930	-0.076544	-0.117023
H112	H	0.712977	-0.203172	-0.180985
H113	H	0.656755	0.023634	-0.209072
H114	H	0.654787	-0.102984	-0.273033
H115	H	0.252577	0.370991	0.052754
O116	O	0.687977	-0.048921	-0.007023
C117	C	0.643647	-0.150642	-0.021540
H118	H	0.584891	-0.118794	0.009025
H119	H	0.637846	-0.185825	-0.092516
C120	C	0.754593	-0.296369	-0.020350
C121	C	0.682430	-0.257255	0.017197
H122	H	0.778516	-0.362137	0.003541
H123	H	0.784460	-0.227839	-0.010572
H124	H	0.749749	-0.325680	-0.079495
H125	H	0.687275	-0.227931	0.076339
H126	H	0.652564	-0.325784	0.007431
