data_functionalizedCrystal
_audit_creation_method	'MofGen! by Chris Wilmer'
_symmetry_space_group_name_H-M	'P1'
_symmetry_Int_Tables_number	1
_symmetry_cell_setting	triclinic
loop_
_symmetry_equiv_pos_as_xyz
  x,y,z
_cell_length_a	12.837943
_cell_length_b	13.596369
_cell_length_c	14.519709
_cell_angle_alpha	89.993066
_cell_angle_beta	90.745458
_cell_angle_gamma	90.004014
loop_
_atom_site_label
_atom_site_type_symbol
_atom_site_fract_x
_atom_site_fract_y
_atom_site_fract_z
O1	O	1.375899	0.081778	-0.239787
O2	O	1.625899	0.331778	0.010213
O3	O	1.875899	0.581778	0.260213
O4	O	2.125899	0.831778	0.510213
O5	O	1.074072	0.081784	-0.227942
O6	O	1.324072	0.331784	0.022058
O7	O	1.574072	0.581784	0.272058
O8	O	1.824072	0.831784	0.522058
O9	O	1.232988	0.081772	-0.100318
O10	O	1.482988	0.331772	0.149682
O11	O	1.732988	0.581772	0.399682
O12	O	1.982988	0.831772	0.649682
O13	O	1.216983	0.081790	-0.367412
O14	O	1.466983	0.331790	-0.117412
O15	O	1.716983	0.581790	0.132588
O16	O	1.966983	0.831790	0.382588
O17	O	1.232972	-0.081811	-0.100309
O18	O	1.482972	0.168189	0.149691
O19	O	1.732972	0.418189	0.399691
O20	O	1.982972	0.668189	0.649691
O21	O	1.074056	-0.081799	-0.227933
O22	O	1.324056	0.168201	0.022067
O23	O	1.574056	0.418201	0.272067
O24	O	1.824056	0.668201	0.522067
O25	O	1.375884	-0.081804	-0.239778
O26	O	1.625884	0.168196	0.010222
O27	O	1.875884	0.418196	0.260222
O28	O	2.125884	0.668196	0.510222
Zn29	Zn	1.224967	-0.107774	-0.233854
Zn30	Zn	1.474967	0.142226	0.016146
Zn31	Zn	1.724967	0.392226	0.266146
Zn32	Zn	1.974967	0.642226	0.516146
Zn33	Zn	1.224988	0.107754	-0.233866
Zn34	Zn	1.474988	0.357754	0.016134
Zn35	Zn	1.724988	0.607754	0.266134
Zn36	Zn	1.974988	0.857754	0.516134
O37	O	1.216967	-0.081793	-0.367403
O38	O	1.466967	0.168207	-0.117403
O39	O	1.716967	0.418207	0.132597
O40	O	1.966967	0.668207	0.382597
C41	C	1.035436	-0.000007	-0.223936
C42	C	1.285436	0.249993	0.026064
C43	C	1.535436	0.499993	0.276064
C44	C	1.785436	0.749993	0.526064
C45	C	0.920337	-0.000005	-0.212002
C46	C	1.170337	0.249995	0.037998
C47	C	1.420337	0.499995	0.287998
C48	C	1.670337	0.749995	0.537998
N49	N	1.224961	-0.254866	-0.233846
N50	N	1.474961	-0.004866	0.016154
N51	N	1.724961	0.245134	0.266154
N52	N	1.974961	0.495134	0.516154
C53	C	0.679644	-0.000009	-0.355473
C54	C	0.929644	0.249991	-0.105473
C55	C	1.179644	0.499991	0.144527
C56	C	1.429644	0.749991	0.394527
C57	C	0.571498	-0.000008	-0.344264
C58	C	0.821498	0.249992	-0.094264
C59	C	1.071498	0.499992	0.155736
C60	C	1.321498	0.749992	0.405736
C61	C	0.595895	-0.000009	-0.178376
C62	C	0.845895	0.249991	0.071624
C63	C	1.095895	0.499991	0.321624
C64	C	1.345895	0.749991	0.571624
C65	C	0.704041	-0.000010	-0.189585
C66	C	0.954041	0.249990	0.060415
C67	C	1.204041	0.499990	0.310415
C68	C	1.454041	0.749990	0.560415
C69	C	0.745912	-0.000009	-0.278136
C70	C	0.995912	0.249991	-0.028136
C71	C	1.245912	0.499991	0.221864
C72	C	1.495912	0.749991	0.471864
C73	C	0.854061	-0.000003	-0.289344
C74	C	1.104061	0.249997	-0.039344
C75	C	1.354061	0.499997	0.210656
C76	C	1.604061	0.749997	0.460656
C77	C	0.878456	-0.000010	-0.123458
C78	C	1.128456	0.249990	0.126542
C79	C	1.378456	0.499990	0.376542
C80	C	1.628456	0.749990	0.626542
C81	C	0.770309	-0.000009	-0.112249
C82	C	1.020309	0.249991	0.137751
C83	C	1.270309	0.499991	0.387751
C84	C	1.520309	0.749991	0.637751
C85	C	1.224987	-0.656157	-0.233867
C86	C	1.474987	-0.406157	0.016133
C87	C	1.724987	-0.156157	0.266133
C88	C	1.974987	0.093843	0.516133
C89	C	1.224976	-0.544505	-0.233864
C90	C	1.474976	-0.294505	0.016136
C91	C	1.724976	-0.044505	0.266136
C92	C	1.974976	0.205495	0.516136
C93	C	1.224974	-0.455515	-0.233857
C94	C	1.474974	-0.205515	0.016143
C95	C	1.724974	0.044485	0.266143
C96	C	1.974974	0.294485	0.516143
C97	C	1.224963	-0.343856	-0.233853
C98	C	1.474963	-0.093856	0.016147
C99	C	1.724963	0.156144	0.266147
C100	C	1.974963	0.406144	0.516147
C101	C	1.414519	-0.000011	-0.243784
C102	C	1.664519	0.249989	0.006216
C103	C	1.914519	0.499989	0.256216
C104	C	2.164519	0.749989	0.506216
C105	C	1.529619	-0.000007	-0.255718
C106	C	1.779619	0.249993	-0.005718
C107	C	2.029619	0.499993	0.244282
C108	C	2.279619	0.749993	0.494282
C109	C	1.232234	-0.000019	-0.065889
C110	C	1.482234	0.249981	0.184111
C111	C	1.732234	0.499981	0.434111
C112	C	1.982234	0.749981	0.684111
C113	C	1.229999	-0.000020	0.036685
C114	C	1.479999	0.249980	0.286685
C115	C	1.729999	0.499980	0.536685
C116	C	1.979999	0.749980	0.786685
N117	N	1.225003	0.254845	-0.233867
N118	N	1.475003	0.504845	0.016133
N119	N	1.725003	0.754845	0.266133
N120	N	1.975003	1.004845	0.516133
C121	C	1.217721	0.000001	-0.401831
C122	C	1.467721	0.250001	-0.151831
C123	C	1.717721	0.500001	0.098169
C124	C	1.967721	0.750001	0.348169
C125	C	1.219956	0.000008	-0.504406
C126	C	1.469956	0.250008	-0.254406
C127	C	1.719956	0.500008	-0.004406
C128	C	1.969956	0.750008	0.245594
C129	C	1.221770	0.000006	0.412292
C130	C	1.471770	0.250006	0.662292
C131	C	1.721770	0.500006	0.912292
C132	C	1.971770	0.750006	1.162292
C133	C	1.224055	-0.000002	0.307787
C134	C	1.474055	0.249998	0.557787
C135	C	1.724055	0.499998	0.807787
C136	C	1.974055	0.749998	1.057787
C137	C	1.225884	-0.000008	0.224492
C138	C	1.475884	0.249992	0.474492
C139	C	1.725884	0.499992	0.724492
C140	C	1.975884	0.749992	0.974492
C141	C	1.228170	-0.000014	0.119980
C142	C	1.478170	0.249986	0.369980
C143	C	1.728170	0.499986	0.619980
C144	C	1.978170	0.749986	0.869980
H145	H	0.888149	-0.000003	-0.361447
H146	H	1.138149	0.249997	-0.111447
H147	H	1.388149	0.499997	0.138553
H148	H	1.638149	0.749997	0.388553
H149	H	0.713736	-0.000007	-0.427574
H150	H	0.963736	0.249993	-0.177574
H151	H	1.213736	0.499993	0.072426
H152	H	1.463736	0.749993	0.322426
H153	H	0.932423	-0.000003	-0.060484
H154	H	1.182423	0.249997	0.189516
H155	H	1.432423	0.499997	0.439516
H156	H	1.682423	0.749997	0.689516
H157	H	0.517545	-0.000012	-0.407239
H158	H	0.767545	0.249988	-0.157239
H159	H	1.017545	0.499988	0.092761
H160	H	1.267545	0.749988	0.342761
H161	H	0.561784	-0.000091	-0.106282
H162	H	0.811784	0.249909	0.143718
H163	H	1.061784	0.499909	0.393718
H164	H	1.311784	0.749909	0.643718
H165	H	0.736203	-0.000022	-0.040153
H166	H	0.986203	0.249978	0.209847
H167	H	1.236203	0.499978	0.459847
H168	H	1.486203	0.749978	0.709847
