data_functionalizedCrystal
_audit_creation_method	'MofGen! by Chris Wilmer'
_symmetry_space_group_name_H-M	'P1'
_symmetry_Int_Tables_number	1
_symmetry_cell_setting	triclinic
loop_
_symmetry_equiv_pos_as_xyz
  x,y,z
_cell_length_a	19.188905
_cell_length_b	19.188940
_cell_length_c	17.666332
_cell_angle_alpha	89.993076
_cell_angle_beta	89.983521
_cell_angle_gamma	83.141635
loop_
_atom_site_label
_atom_site_type_symbol
_atom_site_fract_x
_atom_site_fract_y
_atom_site_fract_z
O1	O	0.926164	0.087085	-0.063074
O2	O	0.722850	0.098838	-0.063048
O3	O	0.830371	-0.008694	-0.063056
O4	O	0.818643	0.194617	-0.063066
O5	O	0.830352	-0.008700	0.062841
O6	O	0.722832	0.098832	0.062849
O7	O	0.926145	0.087080	0.062823
Cu8	Cu	0.824487	0.092955	0.074331
Cu9	Cu	0.824509	0.092962	-0.074556
O10	O	0.818625	0.194611	0.062831
C11	C	0.696830	0.098457	-0.000096
C12	C	0.619324	0.097323	-0.000086
C13	C	0.582943	0.096782	-0.068715
C14	C	0.510119	0.095709	-0.068724
C15	C	0.473682	0.095163	-0.000101
C16	C	0.510071	0.095709	0.068536
C17	C	0.582893	0.096789	0.068544
N18	N	0.364652	0.053733	0.050970
N19	N	0.295475	0.052705	0.050959
C20	C	0.254275	0.091911	-0.000119
N21	N	0.284866	0.132174	-0.051196
N22	N	0.354050	0.133198	-0.051187
C23	C	0.394719	0.093993	-0.000101
C24	C	0.138929	0.090207	-0.068762
C25	C	0.066104	0.089138	-0.068769
C26	C	0.066058	0.089131	0.068493
C27	C	0.138882	0.090207	0.068498
C28	C	0.175313	0.090741	-0.000132
C29	C	0.829980	-0.034708	-0.000108
C30	C	0.828837	-0.112212	-0.000108
C31	C	0.820692	-0.665474	0.068502
C32	C	0.821759	-0.592649	0.068506
C33	C	0.822306	-0.556227	-0.000120
C34	C	0.821768	-0.592632	-0.068754
C35	C	0.820694	-0.665454	-0.068757
N36	N	0.863730	-0.447204	-0.051204
N37	N	0.864752	-0.378027	-0.051198
C38	C	0.825539	-0.336818	-0.000118
N39	N	0.785276	-0.367401	0.050967
N40	N	0.784257	-0.436586	0.050963
C41	C	0.823470	-0.477263	-0.000125
C42	C	0.827229	-0.221456	0.068517
C43	C	0.828291	-0.148630	0.068518
C44	C	0.828307	-0.148615	-0.068744
C45	C	0.827238	-0.221439	-0.068743
C46	C	0.826702	-0.257856	-0.000110
C47	C	0.952166	0.087460	-0.000130
C48	C	1.029671	0.088594	-0.000145
C49	C	0.819015	0.220625	-0.000119
C50	C	0.820158	0.298129	-0.000124
N51	N	0.824476	0.092950	0.179051
N52	N	0.824525	0.092962	-0.179276
C53	C	0.872101	0.045358	0.218657
C54	C	0.872105	0.045355	0.297905
C55	C	0.824491	0.092955	0.337543
C56	C	0.776857	0.140551	0.297927
C57	C	0.776849	0.140548	0.218681
N58	N	0.815417	0.154763	0.461959
N59	N	0.815428	0.154763	0.537240
C60	C	0.824509	0.092965	0.576307
N61	N	0.833593	0.031164	0.537250
N62	N	0.833585	0.031165	0.461962
C63	C	0.824493	0.092963	0.423472
C64	C	0.872142	0.045366	0.701842
C65	C	0.872141	0.045361	0.781091
C66	C	0.776895	0.140563	0.781112
C67	C	0.776893	0.140562	0.701865
C68	C	0.824520	0.092964	0.662235
H69	H	0.480491	0.095269	-0.124611
O70	O	0.470733	0.095458	0.142553
H71	H	0.413967	0.094733	0.131018
H72	H	0.910889	0.006598	0.330158
O73	O	0.725560	0.191925	0.823858
H74	H	0.692448	0.225027	0.783000
O75	O	0.828864	-0.109367	0.142540
H76	H	0.876926	-0.082554	0.145806
H77	H	0.826787	-0.251107	0.124402
H78	H	0.828744	-0.118959	-0.124620
H79	H	0.168592	0.090649	-0.124645
H80	H	0.036482	0.088701	-0.124657
O81	O	0.822354	-0.553354	-0.142775
H82	H	0.870424	-0.526554	-0.146073
O83	O	0.820120	-0.704713	-0.142780
H84	H	0.819278	-0.761468	-0.131252
O85	O	0.622238	0.097364	-0.142733
H86	H	0.601899	0.144737	-0.175643
O87	O	0.026708	0.088645	0.142481
H88	H	-0.000144	0.040609	0.145813
O89	O	0.622139	0.097382	0.142567
H90	H	0.584570	0.096825	0.190285
H91	H	0.826808	-0.251074	-0.124625
H92	H	0.822181	-0.563007	0.124391
H93	H	0.168505	0.090643	0.124382
H94	H	0.738066	0.179304	0.186433
O95	O	0.923459	-0.005986	0.175911
H96	H	0.956572	-0.039086	0.216771
O97	O	0.820105	-0.704752	0.142523
H98	H	0.820649	-0.667203	0.190244
H99	H	0.738087	0.179307	0.330204
O100	O	0.923498	-0.005977	0.659089
H101	H	0.956608	-0.039082	0.699947
H102	H	0.910921	0.006602	0.813340
O103	O	0.725533	0.191901	0.659138
H104	H	0.692428	0.225006	0.700012
