data_functionalizedCrystal
_audit_creation_method	'MofGen! by Chris Wilmer'
_symmetry_space_group_name_H-M	'P1'
_symmetry_Int_Tables_number	1
_symmetry_cell_setting	triclinic
loop_
_symmetry_equiv_pos_as_xyz
  x,y,z
_cell_length_a	10.685980
_cell_length_b	12.594516
_cell_length_c	10.686551
_cell_angle_alpha	85.591880
_cell_angle_beta	81.591741
_cell_angle_gamma	94.380119
loop_
_atom_site_label
_atom_site_type_symbol
_atom_site_fract_x
_atom_site_fract_y
_atom_site_fract_z
Zn1	Zn	1.995794	-0.238568	-0.866694
Zn2	Zn	1.979377	-0.431390	-0.654422
Zn3	Zn	1.767222	-0.268192	-0.638157
Zn4	Zn	1.783500	-0.431287	-0.850332
O5	O	1.881473	-0.342359	-0.752401
O6	O	2.171250	-0.251792	-0.852190
O7	O	1.937551	-0.422183	-0.474632
O8	O	1.797601	-0.115311	-0.668513
O9	O	2.159188	-0.393457	-0.696235
O10	O	1.965532	-0.093546	-0.836418
O11	O	1.781682	-0.302282	-0.462682
O12	O	1.591748	-0.302182	-0.652648
O13	O	1.825345	-0.393281	-1.030135
O14	O	1.603708	-0.422006	-0.808533
O15	O	1.981316	-0.251692	-1.042156
O16	O	1.953335	-0.580329	-0.680370
O17	O	1.809426	-0.580253	-0.824304
C18	C	1.551670	-0.365298	-0.727051
C19	C	1.410581	-0.375135	-0.716236
C20	C	1.881402	-0.618908	-0.752357
C21	C	1.881490	-0.737206	-0.752389
C22	C	1.959930	-0.877204	-0.674263
C23	C	1.841698	-0.816758	-0.634176
C24	C	1.999704	-0.796085	-0.792418
C25	C	1.763332	-0.887537	-0.712358
C26	C	1.921420	-0.866861	-0.870659
C27	C	1.803112	-0.806449	-0.830610
C28	C	2.212565	-0.319332	-0.777852
C29	C	2.353656	-0.309519	-0.788697
C30	C	1.906978	-0.319170	-1.083492
C31	C	1.917846	-0.309289	-1.224583
C32	C	1.881582	-0.064727	-0.752476
C33	C	1.881628	0.053584	-0.752508
C34	C	1.856141	-0.365376	-0.422605
C35	C	1.845519	-0.374941	-0.281533
H36	H	1.351372	-0.438842	-0.645914
H37	H	2.026112	-0.908283	-0.608082
H38	H	1.988094	-0.245521	-1.283771
H39	H	2.099616	-0.756256	-0.826221
H40	H	1.807975	-0.794410	-0.534206
O41	O	1.761868	-0.451160	-1.211004
C42	C	1.792015	-0.553078	-1.245436
H43	H	1.896200	-0.548864	-1.289763
H44	H	1.729796	-0.580319	-1.317044
C45	C	1.640297	-0.638478	-1.071993
C46	C	1.768262	-0.633304	-1.126427
H47	H	1.625640	-0.687967	-0.998585
H48	H	1.619982	-0.569814	-1.048798
H49	H	1.588462	-0.661175	-1.131679
H50	H	1.820093	-0.610594	-1.066746
H51	H	1.788585	-0.701966	-1.149609
O52	O	1.644027	-0.934834	-0.672089
C53	C	1.561465	-0.897938	-0.754070
H54	H	1.618711	-0.867603	-0.850399
H55	H	1.509684	-0.830124	-0.711629
C56	C	1.393589	-1.027479	-0.652516
C57	C	1.463898	-0.990229	-0.770832
H58	H	1.333401	-1.084406	-0.662852
H59	H	1.449210	-1.052335	-0.597280
H60	H	1.350449	-0.970958	-0.617161
H61	H	1.507049	-1.046746	-0.806177
H62	H	1.408282	-0.965385	-0.826075
O63	O	1.424467	-0.233606	-0.872559
C64	C	1.554297	-0.240339	-0.865041
H65	H	1.569047	-0.324111	-0.824656
H66	H	1.586715	-0.179248	-0.800428
C67	C	1.614284	-0.114165	-1.048268
C68	C	1.632401	-0.217058	-0.998676
H69	H	1.662465	-0.099800	-1.130698
H70	H	1.526816	-0.109625	-1.053331
H71	H	1.641299	-0.063268	-0.994411
H72	H	1.605372	-0.267953	-1.052524
H73	H	1.719868	-0.221605	-0.993625
H74	H	1.736753	-0.775582	-0.896723
O75	O	1.961901	-0.893494	-0.989871
C76	C	2.086551	-0.846596	-1.031672
H77	H	2.134454	-0.829212	-0.945970
H78	H	2.083180	-0.768778	-1.092580
C79	C	2.103720	-0.945319	-1.216084
C80	C	2.162560	-0.923976	-1.110823
H81	H	2.150606	-0.993048	-1.264913
H82	H	2.019740	-0.976912	-1.187925
H83	H	2.100915	-0.880464	-1.266826
H84	H	2.165350	-0.988828	-1.060075
H85	H	2.246543	-0.892396	-1.138975
