data_functionalizedCrystal
_audit_creation_method	'MofGen! by Chris Wilmer'
_symmetry_space_group_name_H-M	'P1'
_symmetry_Int_Tables_number	1
_symmetry_cell_setting	triclinic
loop_
_symmetry_equiv_pos_as_xyz
  x,y,z
_cell_length_a	17.699083
_cell_length_b	13.330367
_cell_length_c	17.699082
_cell_angle_alpha	89.997287
_cell_angle_beta	96.717252
_cell_angle_gamma	90.001523
loop_
_atom_site_label
_atom_site_type_symbol
_atom_site_fract_x
_atom_site_fract_y
_atom_site_fract_z
O1	O	1.004079	0.083279	-0.095711
O2	O	0.783700	0.083311	-0.108163
O3	O	0.900116	0.083292	0.008252
O4	O	0.887663	0.083297	-0.212126
O5	O	0.900099	-0.083555	0.008255
O6	O	0.783683	-0.083536	-0.108161
O7	O	1.004062	-0.083569	-0.095708
Cu8	Cu	0.893871	-0.098787	-0.101934
Cu9	Cu	0.893891	0.098529	-0.101937
O10	O	0.887646	-0.083550	-0.212124
C11	C	0.755495	-0.000108	-0.107716
C12	C	0.671477	-0.000096	-0.106377
C13	C	0.622856	-0.000095	-0.174711
C14	C	0.543912	-0.000108	-0.173448
C15	C	0.513592	-0.000115	-0.103852
C16	C	0.562219	-0.000119	-0.035513
C17	C	0.641161	-0.000113	-0.036776
C18	C	0.243856	-0.000144	-0.030418
C19	C	0.164908	-0.000147	-0.029160
C20	C	0.146607	-0.000139	-0.167090
C21	C	0.225549	-0.000133	-0.168353
C22	C	0.274170	-0.000142	-0.100015
C23	C	0.359769	-0.000130	-0.101384
C24	C	0.427994	-0.000120	-0.102482
N25	N	0.893863	-0.237568	-0.101932
C26	C	0.842340	-0.710183	-0.153466
C27	C	0.945463	-0.710168	-0.050403
C28	C	0.945454	-0.605149	-0.050400
C29	C	0.893888	-0.552643	-0.101932
C30	C	0.842331	-0.605155	-0.153467
C31	C	0.997015	-0.552629	0.001128
C32	C	0.997010	-0.447605	0.001132
C33	C	0.945440	-0.395096	-0.050397
C34	C	0.893880	-0.447615	-0.101933
C35	C	0.842314	-0.395108	-0.153465
C36	C	0.790750	-0.447625	-0.204998
C37	C	0.790761	-0.552647	-0.204996
C38	C	0.945428	-0.290075	-0.050400
C39	C	0.842306	-0.290080	-0.153466
C40	C	1.032267	-0.000147	-0.096156
C41	C	1.116285	-0.000153	-0.097494
C42	C	0.888100	-0.000126	-0.240322
C43	C	0.889439	-0.000125	-0.324340
N44	N	0.893906	0.237311	-0.101934
C45	C	0.890077	0.090825	-0.363811
C46	C	0.891344	0.090826	-0.442753
C47	C	0.891967	-0.000123	-0.482225
C48	C	0.891331	-0.091080	-0.442748
C49	C	0.890069	-0.091080	-0.363806
C50	C	0.896420	-0.091082	-0.761112
C51	C	0.897680	-0.091075	-0.840060
C52	C	0.897695	0.090824	-0.840059
C53	C	0.896433	0.090824	-0.761117
C54	C	0.895801	-0.000132	-0.721647
C55	C	0.894429	-0.000132	-0.636048
C56	C	0.893334	-0.000124	-0.567823
C57	C	0.899662	-0.000130	0.036451
C58	C	0.898324	-0.000124	0.120469
H59	H	0.537526	-0.000139	0.021154
H60	H	0.107011	-0.000136	-0.222734
H61	H	0.987414	-0.247321	-0.008446
H62	H	0.898183	-0.165141	-0.872196
H63	H	0.889549	-0.165140	-0.331671
H64	H	0.647536	-0.000088	-0.231384
H65	H	0.250231	-0.000122	-0.225026
H66	H	0.895906	-0.165144	-0.728985
H67	H	0.504327	-0.000106	-0.229092
H68	H	0.898212	0.164885	-0.872205
H69	H	0.140225	-0.000154	0.027517
H70	H	0.891843	-0.165133	-0.474892
H71	H	0.800355	-0.752945	-0.195421
H72	H	0.891866	0.164886	-0.474886
H73	H	0.283434	-0.000153	0.025228
H74	H	0.680748	-0.000114	0.018868
H75	H	0.895922	0.164884	-0.728984
H76	H	0.800312	-0.247336	-0.195427
H77	H	0.748768	-0.404862	-0.246959
H78	H	0.748780	-0.595412	-0.246952
H79	H	0.987450	-0.752922	-0.008450
H80	H	1.038995	-0.404852	0.043093
H81	H	1.039002	-0.595383	0.043080
H82	H	0.889563	0.164887	-0.331680
