data_functionalizedCrystal
_audit_creation_method	'MofGen! by Chris Wilmer'
_symmetry_space_group_name_H-M	'P1'
_symmetry_Int_Tables_number	1
_symmetry_cell_setting	triclinic
loop_
_symmetry_equiv_pos_as_xyz
  x,y,z
_cell_length_a	19.805407
_cell_length_b	16.959454
_cell_length_c	19.805399
_cell_angle_alpha	89.976206
_cell_angle_beta	89.983114
_cell_angle_gamma	90.020075
loop_
_atom_site_label
_atom_site_type_symbol
_atom_site_fract_x
_atom_site_fract_y
_atom_site_fract_z
Zn1	Zn	1.034748	-0.314689	-0.382744
Zn2	Zn	1.368081	0.018644	-0.049411
Zn3	Zn	1.701414	0.351978	0.283923
Zn4	Zn	1.034680	-0.446875	-0.269566
Zn5	Zn	1.368014	-0.113541	0.063767
Zn6	Zn	1.701347	0.219792	0.397101
Zn7	Zn	0.921567	-0.314714	-0.269569
Zn8	Zn	1.254901	0.018619	0.063765
Zn9	Zn	1.588234	0.351953	0.397098
Zn10	Zn	0.921538	-0.446829	-0.382713
Zn11	Zn	1.254872	-0.113496	-0.049380
Zn12	Zn	1.588205	0.219837	0.283954
O13	O	0.978133	-0.380777	-0.326148
O14	O	1.311467	-0.047443	0.007185
O15	O	1.644800	0.285890	0.340519
O16	O	1.129455	-0.332232	-0.367743
O17	O	1.462788	0.001101	-0.034409
O18	O	1.796122	0.334435	0.298924
O19	O	1.019660	-0.429373	-0.174850
O20	O	1.352993	-0.096039	0.158484
O21	O	1.686326	0.237294	0.491817
O22	O	0.936621	-0.204100	-0.284596
O23	O	1.269955	0.129234	0.048738
O24	O	1.603288	0.462567	0.382071
O25	O	1.129406	-0.429348	-0.284591
O26	O	1.462739	-0.096015	0.048742
O27	O	1.796072	0.237318	0.382075
O28	O	1.019774	-0.204081	-0.367745
O29	O	1.353108	0.129252	-0.034412
O30	O	1.686441	0.462585	0.298921
O31	O	0.936556	-0.332275	-0.174852
O32	O	1.269890	0.001059	0.158482
O33	O	1.603223	0.334392	0.491815
O34	O	0.826847	-0.332231	-0.284565
O35	O	1.160180	0.001102	0.048768
O36	O	1.493514	0.334436	0.382101
O37	O	0.936572	-0.429271	-0.477434
O38	O	1.269905	-0.095938	-0.144100
O39	O	1.603238	0.237396	0.189233
O40	O	0.826826	-0.429295	-0.367692
O41	O	1.160159	-0.095962	-0.034359
O42	O	1.493492	0.237371	0.298975
O43	O	1.019746	-0.332188	-0.477457
O44	O	1.353079	0.001145	-0.144123
O45	O	1.686413	0.334479	0.189210
O46	O	1.019631	-0.557479	-0.284561
O47	O	1.352965	-0.224146	0.048772
O48	O	1.686298	0.109187	0.382106
O49	O	0.936506	-0.557446	-0.367690
O50	O	1.269840	-0.224113	-0.034356
O51	O	1.603173	0.109221	0.298977
C52	C	0.802277	-0.380762	-0.326126
C53	C	1.135611	-0.047428	0.007207
C54	C	1.468944	0.285905	0.340541
C55	C	0.727045	-0.380774	-0.326133
C56	C	1.060379	-0.047441	0.007201
C57	C	1.393712	0.285893	0.340534
C58	C	0.978077	-0.586143	-0.326136
C59	C	1.311410	-0.252810	0.007197
C60	C	1.644743	0.080524	0.340530
C61	C	0.978114	-0.674000	-0.326154
C62	C	1.311448	-0.340666	0.007179
C63	C	1.644781	-0.007333	0.340513
C64	C	0.691708	-0.431392	-0.369347
C65	C	1.025041	-0.098058	-0.036013
C66	C	1.358374	0.235275	0.297320
C67	C	0.621019	-0.431393	-0.369356
C68	C	0.954353	-0.098060	-0.036023
C69	C	1.287686	0.235274	0.297310
C70	C	0.585670	-0.380780	-0.326148
C71	C	0.919003	-0.047447	0.007185
C72	C	1.252336	0.285886	0.340519
C73	C	0.621012	-0.330157	-0.282932
C74	C	0.954346	0.003176	0.050401
C75	C	1.287679	0.336510	0.383735
C76	C	0.691700	-0.330152	-0.282926
C77	C	1.025033	0.003181	0.050407
C78	C	1.358366	0.336514	0.383740
C79	C	0.335939	-0.330175	-0.282954
C80	C	0.669272	0.003159	0.050379
C81	C	1.002606	0.336492	0.383712
C82	C	0.265247	-0.330185	-0.282962
C83	C	0.598580	0.003148	0.050371
C84	C	0.931914	0.336482	0.383705
C85	C	0.265259	-0.431415	-0.369384
C86	C	0.598592	-0.098082	-0.036051
C87	C	0.931925	0.235251	0.297282
C88	C	0.335946	-0.431411	-0.369379
C89	C	0.669279	-0.098077	-0.036045
C90	C	1.002613	0.235256	0.297288
C91	C	0.371282	-0.380785	-0.326166
C92	C	0.704616	-0.047451	0.007168
C93	C	1.037949	0.285882	0.340501
C94	C	0.447931	-0.380783	-0.326157
C95	C	0.781264	-0.047450	0.007177
C96	C	1.114597	0.285884	0.340510
C97	C	0.509023	-0.380786	-0.326153
C98	C	0.842356	-0.047452	0.007180
C99	C	1.175689	0.285881	0.340514
C100	C	0.934913	-1.045488	-0.369428
C101	C	1.268246	-0.712154	-0.036095
C102	C	1.601580	-0.378821	0.297238
C103	C	1.021542	-1.045462	-0.282937
C104	C	1.354876	-0.712129	0.050397
C105	C	1.688209	-0.378796	0.383730
C106	C	1.021519	-0.962917	-0.282930
C107	C	1.354852	-0.629583	0.050403
C108	C	1.688185	-0.296250	0.383736
C109	C	0.978191	-0.921652	-0.326173
C110	C	1.311524	-0.588319	0.007160
C111	C	1.644857	-0.254986	0.340494
C112	C	0.934887	-0.962934	-0.369422
C113	C	1.268220	-0.629601	-0.036089
C114	C	1.601553	-0.296268	0.297245
C115	C	1.064817	-0.921629	-0.239677
C116	C	1.398150	-0.588295	0.093656
C117	C	1.731484	-0.254962	0.426989
C118	C	1.064795	-0.839078	-0.239669
C119	C	1.398128	-0.505744	0.093665
C120	C	1.731461	-0.172411	0.426998
C121	C	1.021470	-0.797812	-0.282915
C122	C	1.354803	-0.464479	0.050418
C123	C	1.688136	-0.131145	0.383751
C124	C	0.978164	-0.839099	-0.326167
C125	C	1.311498	-0.505766	0.007167
C126	C	1.644831	-0.172432	0.340500
C127	C	0.934837	-0.797835	-0.369409
C128	C	1.268170	-0.464501	-0.036076
C129	C	1.601503	-0.131168	0.297257
C130	C	0.891534	-0.839120	-0.412665
C131	C	1.224867	-0.505787	-0.079331
C132	C	1.558201	-0.172453	0.254002
C133	C	0.891562	-0.921669	-0.412669
C134	C	1.224895	-0.588335	-0.079335
C135	C	1.558228	-0.255002	0.253998
C136	C	1.021442	-0.715264	-0.282911
C137	C	1.354775	-0.381930	0.050422
C138	C	1.688109	-0.048597	0.383755
C139	C	0.934810	-0.715281	-0.369403
C140	C	1.268143	-0.381948	-0.036070
C141	C	1.601477	-0.048615	0.297264
C142	C	1.154676	-0.380792	-0.326170
C143	C	1.488009	-0.047459	0.007163
C144	C	1.821343	0.285874	0.340496
C145	C	1.229908	-0.380799	-0.326180
C146	C	1.563241	-0.047466	0.007154
C147	C	1.896575	0.285868	0.340487
C148	C	0.978163	-0.380722	-0.502691
C149	C	1.311496	-0.047388	-0.169357
C150	C	1.644830	0.285945	0.163976
C151	C	0.978176	-0.380698	-0.577923
C152	C	1.311509	-0.047365	-0.244589
C153	C	1.644842	0.285968	0.088744
C154	C	0.978209	-0.174608	-0.326174
C155	C	1.311542	0.158725	0.007159
C156	C	1.644875	0.492058	0.340492
C157	C	0.978241	-0.086752	-0.326186
C158	C	1.311574	0.246582	0.007148
C159	C	1.644908	0.579915	0.340481
C160	C	0.934916	-0.330135	-0.613267
C161	C	1.268249	0.003198	-0.279934
C162	C	1.601583	0.336532	0.053399
C163	C	0.934925	-0.330119	-0.683956
C164	C	1.268259	0.003214	-0.350623
C165	C	1.601592	0.336547	-0.017289
C166	C	0.978198	-0.380664	-0.719298
C167	C	1.311532	-0.047331	-0.385965
C168	C	1.644865	0.286002	-0.052632
C169	C	1.021460	-0.431233	-0.683949
C170	C	1.354793	-0.097900	-0.350615
C171	C	1.688126	0.235433	-0.017282
C172	C	1.021447	-0.431252	-0.613262
C173	C	1.354780	-0.097919	-0.279928
C174	C	1.688113	0.235414	0.053405
C175	C	1.021513	-0.431160	-0.969022
C176	C	1.354847	-0.097826	-0.635689
C177	C	1.688180	0.235507	-0.302356
C178	C	1.021525	-0.431135	-1.039714
C179	C	1.354858	-0.097802	-0.706381
C180	C	1.688191	0.235532	-0.373048
C181	C	0.934992	-0.330027	-1.039716
C182	C	1.268326	0.003307	-0.706383
C183	C	1.601659	0.336640	-0.373050
C184	C	0.934979	-0.330046	-0.969029
C185	C	1.268312	0.003288	-0.635696
C186	C	1.601646	0.336621	-0.302363
C187	C	0.978238	-0.380617	-0.933686
C188	C	1.311571	-0.047284	-0.600353
C189	C	1.644904	0.286049	-0.267019
C190	C	0.978226	-0.380634	-0.857037
C191	C	1.311560	-0.047301	-0.523704
C192	C	1.644893	0.286032	-0.190371
C193	C	0.978214	-0.380644	-0.795946
C194	C	1.311547	-0.047310	-0.462612
C195	C	1.644880	0.286023	-0.129279
C196	C	0.978143	-0.380774	-0.150292
C197	C	1.311476	-0.047441	0.183041
C198	C	1.644809	0.285892	0.516375
C199	C	0.978261	-0.380575	-0.075060
C200	C	1.311595	-0.047242	0.258273
C201	C	1.644928	0.286092	0.591606
H202	H	0.720484	-0.472609	-0.404530
H203	H	1.053818	-0.139276	-0.071196
H204	H	1.387151	0.194057	0.262137
H205	H	1.056678	-0.472420	-0.584485
H206	H	1.390011	-0.139087	-0.251152
H207	H	1.723345	0.194246	0.082182
H208	H	0.899744	-0.288884	-0.940257
H209	H	1.233078	0.044449	-0.606924
H210	H	1.566411	0.377783	-0.273590
F211	F	0.888862	-0.276333	-0.575659
F212	F	1.222195	0.057000	-0.242326
F213	F	1.555528	0.390333	0.091007
F214	F	0.729308	-0.276276	-0.236934
F215	F	1.062641	0.057057	0.096400
F216	F	1.395975	0.390390	0.429733
F217	F	1.067510	-0.485032	-0.721565
F218	F	1.400843	-0.151699	-0.388232
F219	F	1.734177	0.181635	-0.054898
F220	F	0.888697	-0.671371	-0.415432
F221	F	1.222030	-0.338038	-0.082099
F222	F	1.555364	-0.004705	0.251234
F223	F	1.110885	-0.795146	-0.193638
F224	F	1.444218	-0.461813	0.139695
F225	F	1.777551	-0.128479	0.473029
F226	F	0.888950	-0.276206	-1.077337
F227	F	1.222283	0.057128	-0.744004
F228	F	1.555616	0.390461	-0.410670
F229	F	0.373538	-0.276292	-0.236965
F230	F	0.706871	0.057041	0.096368
F231	F	1.040204	0.390375	0.429702
F232	F	0.845420	-0.795194	-0.458682
F233	F	1.178753	-0.461861	-0.125349
F234	F	1.512087	-0.128528	0.207985
F235	F	0.583413	-0.485267	-0.415351
F236	F	0.916747	-0.151934	-0.082017
F237	F	1.250080	0.181400	0.251316
H238	H	0.364724	-0.472627	-0.404561
H239	H	0.698057	-0.139294	-0.071228
H240	H	1.031391	0.194039	0.262106
H241	H	1.056695	-0.681653	-0.247691
H242	H	1.390029	-0.348320	0.085643
H243	H	1.723362	-0.014986	0.418976
F244	F	0.888857	-0.276332	-0.721569
F245	F	1.222191	0.057001	-0.388236
F246	F	1.555524	0.390335	-0.054902
F247	F	0.888833	-1.089426	-0.415464
F248	F	1.222166	-0.756092	-0.082131
F249	F	1.555499	-0.422759	0.251203
F250	F	0.227627	-0.276312	-0.236972
F251	F	0.560960	0.057021	0.096361
F252	F	0.894293	0.390355	0.429694
H253	H	0.592225	-0.288944	-0.247754
H254	H	0.925558	0.044390	0.085579
H255	H	1.258892	0.377723	0.418913
F256	F	0.227646	-0.485296	-0.415376
F257	F	0.560979	-0.151962	-0.082043
F258	F	0.894312	0.181371	0.251290
F259	F	0.845480	-0.965612	-0.458699
F260	F	1.178813	-0.632279	-0.125365
F261	F	1.512146	-0.298946	0.207968
H262	H	1.056814	-1.079065	-0.247726
H263	H	1.390147	-0.745731	0.085607
H264	H	1.723480	-0.412398	0.418940
F265	F	1.110929	-0.965548	-0.193661
F266	F	1.444262	-0.632215	0.139672
F267	F	1.777595	-0.298882	0.473005
F268	F	1.067583	-0.484936	-1.077327
F269	F	1.400917	-0.151602	-0.743994
F270	F	1.734250	0.181731	-0.410661
H271	H	1.056730	-0.472347	-0.940254
H272	H	1.390063	-0.139013	-0.606921
H273	H	1.723397	0.194320	-0.273587
