data_functionalizedCrystal
_audit_creation_method	'MofGen! by Chris Wilmer'
_symmetry_space_group_name_H-M	'P1'
_symmetry_Int_Tables_number	1
_symmetry_cell_setting	triclinic
loop_
_symmetry_equiv_pos_as_xyz
  x,y,z
_cell_length_a	12.837943
_cell_length_b	15.995350
_cell_length_c	11.892095
_cell_angle_alpha	93.891441
_cell_angle_beta	85.689438
_cell_angle_gamma	89.160657
loop_
_atom_site_label
_atom_site_type_symbol
_atom_site_fract_x
_atom_site_fract_y
_atom_site_fract_z
O1	O	1.382080	0.212847	-0.093972
O2	O	1.080275	0.202094	-0.093979
O3	O	1.239427	0.086241	-0.093975
O4	O	1.222927	0.328700	-0.093977
O5	O	1.226157	0.095884	0.094032
O6	O	1.067005	0.211737	0.094028
O7	O	1.368810	0.222490	0.094035
Zn8	Zn	1.215800	0.218644	0.123881
Zn9	Zn	1.233284	0.205939	-0.123826
O10	O	1.209657	0.338343	0.094030
C11	C	1.035019	0.203283	0.000023
C12	C	0.919942	0.192449	0.000020
C13	C	1.232110	0.059813	0.000027
C14	C	1.230066	-0.033301	0.000020
C15	C	0.678983	0.322688	0.000035
C16	C	0.570857	0.312513	0.000033
C17	C	0.595563	0.161925	0.000023
C18	C	0.703688	0.172100	0.000025
C19	C	0.745394	0.252484	0.000029
C20	C	0.853523	0.262658	0.000023
C21	C	0.878225	0.112072	0.000020
C22	C	0.770100	0.101896	0.000018
C23	C	1.222721	-0.371634	0.000024
C24	C	1.109405	-0.333265	-0.000400
C25	C	1.111421	-0.236390	0.000023
C26	C	1.226364	-0.203783	0.000021
C27	C	1.274693	-0.234893	0.107382
C28	C	1.271839	-0.331752	0.107472
C29	C	1.289271	-0.342889	-0.106327
C30	C	1.289344	-0.246018	-0.107746
C31	C	1.228429	-0.108921	0.000024
C32	C	1.220659	-0.466496	0.000029
C33	C	1.414066	0.221301	0.000030
C34	C	1.529143	0.232134	0.000025
C35	C	1.216974	0.364770	0.000026
C36	C	1.219020	0.457884	0.000025
N37	N	1.203876	0.227315	0.292935
N38	N	1.245217	0.197262	-0.292880
C39	C	1.328193	0.136877	0.529587
C40	C	1.319865	0.142945	0.647928
C41	C	1.178889	0.245514	0.647962
C42	C	1.187216	0.239446	0.529621
C43	C	1.261872	0.185127	0.470437
C44	C	1.270204	0.179064	0.352093
C45	C	1.129223	0.281628	0.352129
C46	C	1.120896	0.287696	0.470471
H47	H	0.712940	0.388139	0.000037
C48	C	1.403209	-0.216707	-0.116496
H49	H	1.439368	-0.243207	-0.182325
H50	H	1.436412	-0.231185	-0.051568
H51	H	1.404096	-0.157648	-0.121005
C52	C	1.044310	-0.198164	0.104162
H53	H	1.045304	-0.138758	0.104771
H54	H	1.071739	-0.215655	0.170947
H55	H	0.974468	-0.216487	0.101004
H56	H	0.736126	0.036451	0.000028
C57	C	1.209103	-0.355313	0.215878
H58	H	1.185594	-0.305717	0.259445
H59	H	1.252384	-0.387387	0.258804
H60	H	1.150608	-0.387360	0.196258
C61	C	1.352324	0.119323	0.286987
H62	H	1.347796	0.122625	0.208035
H63	H	1.339707	0.063531	0.306379
H64	H	1.420141	0.134969	0.306372
C65	C	1.241794	-0.219034	-0.215049
H66	H	1.280231	-0.244788	-0.279952
H67	H	1.244723	-0.159840	-0.217020
H68	H	1.171092	-0.235836	-0.214378
H69	H	0.932310	0.054906	0.000008
C70	C	1.246974	-0.380263	-0.216259
H71	H	1.288226	-0.362146	-0.279403
H72	H	1.176594	-0.362004	-0.219558
H73	H	1.250020	-0.439705	-0.217639
C74	C	1.402229	-0.376844	-0.107316
H75	H	1.408847	-0.408389	-0.043269
H76	H	1.448896	-0.331324	-0.104962
H77	H	1.418622	-0.411786	-0.174321
H78	H	0.516788	0.369680	0.000041
C79	C	1.383785	-0.366013	0.114072
H80	H	1.430802	-0.320728	0.116697
H81	H	1.402654	-0.402710	0.049336
H82	H	1.386960	-0.395724	0.180282
C83	C	1.392816	0.089873	0.712995
H84	H	1.377161	0.101259	0.791952
H85	H	1.463363	0.103516	0.693586
H86	H	1.382913	0.032090	0.693601
H87	H	1.075223	0.320919	0.303956
C88	C	1.388387	-0.206429	0.112787
H89	H	1.407434	-0.175241	0.049467
H90	H	1.433405	-0.254181	0.111792
H91	H	1.394455	-0.172287	0.180434
H92	H	1.388987	0.092654	0.481399
C93	C	0.549672	0.073513	0.000029
H94	H	0.475764	0.077512	0.000028
H95	H	0.567844	0.047606	0.065590
H96	H	0.577085	0.040880	-0.065543
H97	H	0.887477	0.328111	0.000028
H98	H	1.072907	-0.215422	-0.076937
C99	C	1.096775	0.305256	0.713077
H100	H	1.101320	0.301958	0.792028
H101	H	1.028957	0.289622	0.693697
H102	H	1.109403	0.361052	0.693689
H103	H	1.058900	-0.352531	0.076159
C104	C	1.055533	-0.368525	-0.104395
H105	H	1.101659	-0.406966	-0.148487
H106	H	1.037806	-0.323880	-0.148608
H107	H	0.993899	-0.396503	-0.080244
C108	C	1.214613	-0.195217	0.215316
H109	H	1.160070	-0.159691	0.195182
H110	H	1.261053	-0.163301	0.258757
H111	H	1.185627	-0.238191	0.258588
C112	C	1.038786	0.347445	0.535578
H113	H	1.043328	0.344154	0.614531
H114	H	0.970967	0.331816	0.516199
H115	H	1.051422	0.403238	0.516183
