data_functionalizedCrystal
_audit_creation_method	'MofGen! by Chris Wilmer'
_symmetry_space_group_name_H-M	'P1'
_symmetry_Int_Tables_number	1
_symmetry_cell_setting	triclinic
loop_
_symmetry_equiv_pos_as_xyz
  x,y,z
_cell_length_a	11.026607
_cell_length_b	12.811451
_cell_length_c	9.482899
_cell_angle_alpha	75.287066
_cell_angle_beta	101.372807
_cell_angle_gamma	96.261498
loop_
_atom_site_label
_atom_site_type_symbol
_atom_site_fract_x
_atom_site_fract_y
_atom_site_fract_z
O1	O	-1.584070	-0.459225	0.181439
O2	O	-1.231554	-0.408417	0.174742
O3	O	-1.419856	-0.280561	0.157879
O4	O	-1.395768	-0.587081	0.198302
O5	O	-1.458138	-0.254491	-0.087352
O6	O	-1.269836	-0.382347	-0.070488
O7	O	-1.622352	-0.433155	-0.063792
Cu8	Cu	-1.449590	-0.405371	-0.089532
Cu9	Cu	-1.404317	-0.436201	0.200482
O10	O	-1.434050	-0.561012	-0.046929
C11	C	-1.205630	-0.386009	0.050892
C12	C	-1.071351	-0.358067	0.047209
C13	C	-1.438819	-0.227675	0.030012
C14	C	-1.438272	-0.108929	0.014361
N15	N	-1.481441	-0.383688	-0.293512
C16	C	-1.648275	-0.455564	0.060062
C17	C	-1.782553	-0.483506	0.063755
C18	C	-0.996344	-0.435220	0.057384
C19	C	-0.857559	-0.406343	0.053578
C20	C	-1.458375	0.072650	-0.141370
C21	C	-1.458884	-0.038921	-0.126668
C22	C	-1.417146	-0.067359	0.140698
C23	C	-1.416637	0.044213	0.125996
C24	C	-1.437254	0.114214	-0.015042
C25	C	-1.436753	0.225786	-0.029742
C26	C	-1.395007	0.197348	0.237622
C27	C	-1.395516	0.085776	0.252324
C28	C	-1.415086	0.386103	0.080940
C29	C	-1.415627	0.267357	0.096594
N30	N	-1.372475	-0.457878	0.404461
C31	C	-1.413712	-0.429792	0.640370
C32	C	-1.440214	-0.411767	0.470575
H33	H	-1.034875	-0.522651	0.068906
H34	H	-1.294868	-0.510703	0.473553
F35	F	-0.807212	-0.292054	0.038496
H36	H	-0.821077	-0.570943	0.075276
H37	H	-1.517829	-0.358951	0.401484
F38	F	-1.312279	-0.498836	0.730676
H39	H	-1.378727	0.028767	0.367153
H40	H	-1.032815	-0.270640	0.035716
F41	F	-1.458700	0.300285	-0.179846
H42	H	-1.559051	-0.330875	0.637393
H43	H	-1.475170	0.129646	-0.256209
H44	H	-1.476072	-0.072756	-0.229538
H45	H	-1.400357	-0.124372	0.255525
F46	F	-1.372527	0.241589	0.372078
