data_functionalizedCrystal
_audit_creation_method	'MofGen! by Chris Wilmer'
_symmetry_space_group_name_H-M	'P1'
_symmetry_Int_Tables_number	1
_symmetry_cell_setting	triclinic
loop_
_symmetry_equiv_pos_as_xyz
  x,y,z
_cell_length_a	14.519709
_cell_length_b	9.065215
_cell_length_c	13.596369
_cell_angle_alpha	89.994989
_cell_angle_beta	89.999709
_cell_angle_gamma	95.652579
loop_
_atom_site_label
_atom_site_type_symbol
_atom_site_fract_x
_atom_site_fract_y
_atom_site_fract_z
O1	O	1.225283	-0.193397	0.081661
O2	O	1.475283	0.056603	0.331661
O3	O	1.725283	0.306603	0.581661
O4	O	1.975283	0.556603	0.831661
O5	O	0.956973	-0.216172	0.081691
O6	O	1.206973	0.033828	0.331691
O7	O	1.456973	0.283828	0.581691
O8	O	1.706973	0.533828	0.831691
O9	O	1.096675	0.009962	0.081671
O10	O	1.346675	0.259962	0.331671
O11	O	1.596675	0.509962	0.581671
O12	O	1.846675	0.759962	0.831671
O13	O	1.085581	-0.419531	0.081681
O14	O	1.335581	-0.169531	0.331681
O15	O	1.585581	0.080469	0.581681
O16	O	1.835581	0.330469	0.831681
O17	O	1.096661	0.009974	-0.081912
O18	O	1.346661	0.259974	0.168088
O19	O	1.596661	0.509974	0.418088
O20	O	1.846661	0.759974	0.668088
O21	O	0.956959	-0.216160	-0.081892
O22	O	1.206959	0.033840	0.168108
O23	O	1.456959	0.283840	0.418108
O24	O	1.706959	0.533840	0.668108
O25	O	1.225269	-0.193385	-0.081922
O26	O	1.475269	0.056615	0.168078
O27	O	1.725269	0.306615	0.418078
O28	O	1.975269	0.556615	0.668078
Zn29	Zn	1.091112	-0.204770	-0.107879
Zn30	Zn	1.341112	0.045230	0.142121
Zn31	Zn	1.591112	0.295230	0.392121
Zn32	Zn	1.841112	0.545230	0.642121
Zn33	Zn	1.091130	-0.204786	0.107648
Zn34	Zn	1.341130	0.045214	0.357648
Zn35	Zn	1.591130	0.295214	0.607648
Zn36	Zn	1.841130	0.545214	0.857648
O37	O	1.085567	-0.419519	-0.081902
O38	O	1.335567	-0.169519	0.168098
O39	O	1.585567	0.080481	0.418098
O40	O	1.835567	0.330481	0.668098
C41	C	0.922598	-0.215104	-0.000097
C42	C	1.172598	0.034896	0.249903
C43	C	1.422598	0.284896	0.499903
C44	C	1.672598	0.534896	0.749903
C45	C	0.820194	-0.211924	-0.000085
C46	C	1.070194	0.038076	0.249915
C47	C	1.320194	0.288076	0.499915
C48	C	1.570194	0.538076	0.749915
C49	C	0.445212	-0.200215	-0.000130
C50	C	0.695212	0.049785	0.249870
C51	C	0.945212	0.299785	0.499870
C52	C	1.195212	0.549785	0.749870
C53	C	0.549544	-0.203466	-0.000118
C54	C	0.799544	0.046534	0.249882
C55	C	1.049544	0.296534	0.499882
C56	C	1.299544	0.546534	0.749882
C57	C	0.632700	-0.206069	-0.000107
C58	C	0.882700	0.043931	0.249893
C59	C	1.132700	0.293931	0.499893
C60	C	1.382700	0.543931	0.749893
C61	C	0.737038	-0.209321	-0.000096
C62	C	0.987038	0.040679	0.249904
C63	C	1.237038	0.290679	0.499904
C64	C	1.487038	0.540679	0.749904
C65	C	1.095603	0.064935	-0.000119
C66	C	1.345603	0.314935	0.249881
C67	C	1.595603	0.564935	0.499881
C68	C	1.845603	0.814935	0.749881
C69	C	1.092416	0.228718	-0.000116
C70	C	1.342416	0.478718	0.249884
C71	C	1.592416	0.728718	0.499884
C72	C	1.842416	0.978718	0.749884
C73	C	1.259644	-0.194452	-0.000132
C74	C	1.509644	0.055548	0.249868
C75	C	1.759644	0.305548	0.499868
C76	C	2.009644	0.555548	0.749868
C77	C	1.362048	-0.197633	-0.000137
C78	C	1.612048	0.052367	0.249863
C79	C	1.862048	0.302367	0.499863
C80	C	2.112048	0.552367	0.749863
C81	C	1.086639	-0.474492	-0.000110
C82	C	1.336639	-0.224492	0.249890
C83	C	1.586639	0.025508	0.499890
C84	C	1.836639	0.275508	0.749890
C85	C	1.089826	-0.638275	-0.000106
C86	C	1.339826	-0.388275	0.249894
C87	C	1.589826	-0.138275	0.499894
C88	C	1.839826	0.111725	0.749894
N89	N	1.091106	-0.204759	-0.254971
N90	N	1.341106	0.045241	-0.004971
N91	N	1.591106	0.295241	0.245029
N92	N	1.841106	0.545241	0.495029
C93	C	1.091129	-0.204788	-0.656262
C94	C	1.341129	0.045212	-0.406262
C95	C	1.591129	0.295212	-0.156262
C96	C	1.841129	0.545212	0.093738
C97	C	1.091120	-0.204785	-0.544611
C98	C	1.341120	0.045215	-0.294611
C99	C	1.591120	0.295215	-0.044611
C100	C	1.841120	0.545215	0.205389
C101	C	1.091118	-0.204774	-0.455620
C102	C	1.341118	0.045226	-0.205620
C103	C	1.591118	0.295226	0.044380
C104	C	1.841118	0.545226	0.294380
C105	C	1.091108	-0.204769	-0.343962
C106	C	1.341108	0.045231	-0.093962
C107	C	1.591108	0.295231	0.156038
C108	C	1.841108	0.545231	0.406038
N109	N	1.091144	-0.204786	0.254740
N110	N	1.341144	0.045214	0.504740
N111	N	1.591144	0.295214	0.754740
N112	N	1.841144	0.545214	1.004740
