data_functionalizedCrystal
_audit_creation_method	'MofGen! by Chris Wilmer'
_symmetry_space_group_name_H-M	'P1'
_symmetry_Int_Tables_number	1
_symmetry_cell_setting	triclinic
loop_
_symmetry_equiv_pos_as_xyz
  x,y,z
_cell_length_a	16.992694
_cell_length_b	14.519709
_cell_length_c	15.455313
_cell_angle_alpha	92.669068
_cell_angle_beta	87.142206
_cell_angle_gamma	87.174184
loop_
_atom_site_label
_atom_site_type_symbol
_atom_site_fract_x
_atom_site_fract_y
_atom_site_fract_z
O1	O	1.044092	0.191795	-0.072025
O2	O	0.815805	0.189648	-0.072051
O3	O	0.936001	0.056918	-0.072029
O4	O	0.923896	0.324525	-0.072046
O5	O	0.929127	0.064474	0.072232
O6	O	0.808932	0.197205	0.072210
O7	O	1.037219	0.199352	0.072236
Cu8	Cu	0.922447	0.198968	0.085395
Cu9	Cu	0.930576	0.190031	-0.085210
O10	O	0.917023	0.332082	0.072215
C11	C	0.783152	0.190666	0.000077
C12	C	0.696097	0.182430	0.000067
C13	C	0.645968	0.261890	0.000063
C14	C	0.564170	0.254147	0.000075
C15	C	0.532502	0.166943	0.000086
C16	C	0.582638	0.087478	0.000093
C17	C	0.664434	0.095222	0.000087
C18	C	0.288859	0.134847	0.000111
C19	C	0.207056	0.127109	0.000115
C20	C	0.188594	0.293779	0.000099
C21	C	0.270393	0.301515	0.000087
C22	C	0.320520	0.222050	0.000099
N23	N	0.448892	0.159027	0.000096
N24	N	0.404129	0.229968	0.000095
C25	C	0.932000	0.026296	0.000101
C26	C	0.930309	-0.076207	0.000102
C27	C	0.924087	-0.451550	0.000078
C28	C	0.925815	-0.347118	0.000085
C29	C	0.927198	-0.263882	0.000091
C30	C	0.928926	-0.159443	0.000096
C31	C	1.069872	0.198333	0.000107
C32	C	1.156927	0.206569	0.000111
C33	C	0.921024	0.362704	0.000082
C34	C	0.922715	0.465206	0.000076
N35	N	0.916736	0.205254	0.205390
N36	N	0.936294	0.183739	-0.205204
C37	C	0.967817	0.148889	0.250793
C38	C	0.963505	0.153651	0.341600
C39	C	0.908115	0.214784	0.387002
C40	C	0.857028	0.271151	0.341593
C41	C	0.861337	0.266383	0.250787
C42	C	0.889516	0.235339	0.658581
C43	C	0.885212	0.240104	0.749392
C44	C	0.991689	0.122602	0.749393
C45	C	0.995996	0.117844	0.658586
C46	C	0.944907	0.174208	0.613185
N47	N	0.903708	0.219655	0.479822
N48	N	0.949311	0.169331	0.520367
H49	H	0.556847	0.016475	0.000114
H50	H	0.329663	0.070141	0.000121
H51	H	0.705249	0.030517	0.000090
C52	C	1.069204	0.037055	0.332480
C53	C	1.019668	0.091708	0.391507
H54	H	1.103883	-0.001180	0.363292
H55	H	1.038206	-0.000419	0.297079
H56	H	1.099130	0.075704	0.297046
H57	H	0.989738	0.053058	0.426937
H58	H	1.050670	0.129186	0.426923
H59	H	1.012925	0.099112	0.213832
H60	H	0.840105	0.289889	0.786355
C61	C	1.036183	-0.032174	0.777364
C62	C	1.047834	0.060638	0.799301
H63	H	1.070847	-0.070431	0.808173
H64	H	0.983134	-0.045289	0.792257
H65	H	1.046679	-0.043749	0.716785
H66	H	1.037332	0.072215	0.859880
H67	H	1.100895	0.073758	0.784415
H68	H	0.671744	0.332900	0.000054
C69	C	1.017180	-0.012181	0.556995
C70	C	1.056675	0.050200	0.608915
H71	H	1.054583	-0.054066	0.526397
H72	H	0.982602	-0.045475	0.592591
H73	H	0.987581	0.020695	0.516774
H74	H	1.086270	0.017325	0.649141
H75	H	1.091267	0.083498	0.573316
H76	H	0.147771	0.358475	0.000091
H77	H	0.523358	0.318852	0.000071
C78	C	0.783845	0.351969	0.667714
C79	C	0.833365	0.297301	0.608683
H80	H	0.749182	0.390228	0.636904
H81	H	0.753908	0.313338	0.703140
H82	H	0.814862	0.389429	0.703121
H83	H	0.802348	0.259836	0.573280
H84	H	0.863304	0.335937	0.573241
H85	H	0.181276	0.056094	0.000123
H86	H	0.811924	0.320923	0.378565
C87	C	0.816838	0.421161	0.222801
C88	C	0.805191	0.328344	0.200875
H89	H	0.782176	0.459411	0.191982
H90	H	0.806342	0.432745	0.283370
H91	H	0.869894	0.434277	0.207905
H92	H	0.752137	0.315227	0.215776
H93	H	0.815682	0.316756	0.140291
C94	C	0.243923	0.465485	0.000087
C95	C	0.305198	0.397373	0.000084
H96	H	0.265412	0.524663	0.000089
H97	H	0.214795	0.456366	-0.050215
H98	H	0.210013	0.461627	0.050400
H99	H	0.339106	0.401227	-0.050232
H100	H	0.334339	0.406496	0.050391
