data_functionalizedCrystal
_audit_creation_method	'MofGen! by Chris Wilmer'
_symmetry_space_group_name_H-M	'P1'
_symmetry_Int_Tables_number	1
_symmetry_cell_setting	triclinic
loop_
_symmetry_equiv_pos_as_xyz
  x,y,z
_cell_length_a	13.033409
_cell_length_b	13.033855
_cell_length_c	13.032268
_cell_angle_alpha	89.130626
_cell_angle_beta	74.837427
_cell_angle_gamma	76.696889
loop_
_atom_site_label
_atom_site_type_symbol
_atom_site_fract_x
_atom_site_fract_y
_atom_site_fract_z
Zn1	Zn	1.643883	-0.662332	0.297617
Zn2	Zn	1.688915	-0.817399	0.097473
Zn3	Zn	1.483112	-0.623026	0.148340
Zn4	Zn	1.488826	-0.817359	0.297630
O5	O	1.576184	-0.730029	0.210265
O6	O	1.800877	-0.699368	0.249774
O7	O	1.678069	-0.775181	-0.042018
O8	O	1.483201	-0.482015	0.189424
O9	O	1.833962	-0.813295	0.102730
O10	O	1.601319	-0.510894	0.299097
O11	O	1.526867	-0.632377	-0.004647
O12	O	1.332849	-0.632339	0.189437
O13	O	1.492940	-0.813228	0.443868
O14	O	1.337048	-0.775115	0.299120
O15	O	1.606860	-0.699331	0.443858
O16	O	1.683610	-0.963618	0.102742
O17	O	1.536606	-0.963590	0.249797
C18	C	1.295791	-0.699458	0.249800
C19	C	1.175838	-0.686408	0.266734
C20	C	1.014745	-0.723361	0.218948
C21	C	1.138724	-0.736853	0.201440
C22	C	1.615641	-1.001524	0.170770
C23	C	1.632616	-1.117685	0.153895
C24	C	1.567407	-1.169482	0.219081
C25	C	1.584949	-1.289541	0.201642
C26	C	1.857672	-0.760720	0.170576
C27	C	1.977626	-0.773799	0.153663
C28	C	1.545514	-0.760660	0.482841
C29	C	1.532445	-0.773712	0.598997
C30	C	1.536599	-0.457480	0.249933
C31	C	1.519731	-0.341336	0.266837
C32	C	1.606786	-0.699449	-0.061249
C33	C	1.620021	-0.686125	-0.177390
C34	C	1.582983	-0.723177	0.650778
C35	C	1.569476	-0.736667	0.770831
H36	H	0.954739	-0.670196	0.287806
F37	F	1.652584	-0.653548	0.592564
H38	H	1.037632	-0.826976	0.084814
H39	H	1.198727	-0.790033	0.132586
H40	H	1.498587	-1.124946	0.287799
H41	H	1.450907	-1.296802	0.335559
H42	H	1.516197	-0.789915	0.815376
H43	H	1.115836	-0.633237	0.335596
H44	H	1.673286	-0.632863	0.778070
H45	H	1.701429	-1.162222	0.085172
H46	H	1.653767	-1.334074	0.132915
H47	H	1.479170	-0.826956	0.643546
