data_functionalizedCrystal
_audit_creation_method	'MofGen! by Chris Wilmer'
_symmetry_space_group_name_H-M	'P1'
_symmetry_Int_Tables_number	1
_symmetry_cell_setting	triclinic
loop_
_symmetry_equiv_pos_as_xyz
  x,y,z
_cell_length_a	10.723024
_cell_length_b	15.944551
_cell_length_c	9.198806
_cell_angle_alpha	89.995864
_cell_angle_beta	89.996352
_cell_angle_gamma	83.983304
loop_
_atom_site_label
_atom_site_type_symbol
_atom_site_fract_x
_atom_site_fract_y
_atom_site_fract_z
O1	O	1.655699	0.117808	-0.120886
O2	O	1.292405	0.129085	-0.120892
O3	O	1.483973	0.001228	-0.120876
O4	O	1.464131	0.245664	-0.120902
O5	O	1.483958	0.001228	0.120909
O6	O	1.292389	0.129084	0.120893
O7	O	1.655684	0.117808	0.120899
Cu8	Cu	1.474035	0.123446	0.142973
Cu9	Cu	1.474053	0.123446	-0.142966
O10	O	1.464116	0.245664	0.120883
C11	C	1.245908	0.128264	0.000000
C12	C	1.107384	0.125809	-0.000001
C13	C	1.031498	0.197350	-0.000010
C14	C	0.888327	0.194814	-0.000012
C15	C	1.483141	-0.030070	0.000017
C16	C	1.480672	-0.123331	0.000018
C17	C	1.356026	-0.338901	-0.000004
C18	C	1.413900	-0.399587	0.119211
C19	C	1.476205	-0.294082	0.000006
C20	C	1.413944	-0.399570	-0.119170
C21	C	1.471880	-0.459020	-0.000011
C22	C	1.534111	-0.353540	0.119320
C23	C	1.534138	-0.353516	-0.119168
C24	C	1.592099	-0.414184	0.000077
C25	C	1.478692	-0.199066	0.000018
C26	C	1.469402	-0.554035	-0.000011
C27	C	1.702181	0.118629	0.000003
C28	C	1.840704	0.121084	-0.000005
C29	C	1.464947	0.276963	-0.000013
C30	C	1.467417	0.370223	-0.000024
N31	N	1.474032	0.123445	0.344087
N32	N	1.474067	0.123441	-0.344080
C33	C	1.554469	0.069525	0.416290
C34	C	1.554488	0.069522	0.583703
H35	H	0.905903	0.059835	-0.000006
H36	H	1.256273	-0.306164	0.000113
O37	O	1.636489	0.014353	0.342225
C38	C	1.709059	-0.131304	0.295334
C39	C	1.616080	-0.068923	0.379292
H40	H	1.692609	-0.198646	0.325295
H41	H	1.694384	-0.121539	0.173510
H42	H	1.809092	-0.119899	0.325118
H43	H	1.516010	-0.080290	0.349630
H44	H	1.630864	-0.078703	0.501096
H45	H	1.363063	-0.419986	0.219997
H46	H	1.691940	-0.446772	0.000146
O47	O	1.594893	-0.329410	0.239590
C48	C	1.787607	-0.341382	0.376330
C49	C	1.718938	-0.368765	0.240051
H50	H	1.887901	-0.373202	0.376763
H51	H	1.789058	-0.269993	0.375403
H52	H	1.736658	-0.360724	0.477777
H53	H	1.769833	-0.349481	0.138532
H54	H	1.717476	-0.440153	0.241106
H55	H	1.584931	-0.333095	-0.219959
H56	H	1.623358	0.023362	0.645795
H57	H	1.363104	-0.419938	-0.219964
O58	O	1.391836	0.178402	0.418347
C59	C	1.221560	0.195448	0.590341
C60	C	1.314597	0.133116	0.506363
H61	H	1.159070	0.158859	0.661498
H62	H	1.275622	0.237574	0.661687
H63	H	1.161050	0.236064	0.509914
H64	H	1.375131	0.092445	0.586685
H65	H	1.260459	0.091048	0.434995
H66	H	1.405202	0.169609	0.593837
O67	O	0.810598	0.267907	-0.000279
C68	C	0.745187	0.397845	-0.125513
C69	C	0.833269	0.315088	-0.125407
H70	H	0.763504	0.436022	-0.226651
H71	H	0.643554	0.382831	-0.125608
H72	H	0.763356	0.435976	-0.024283
H73	H	0.815213	0.276917	-0.226619
H74	H	0.934873	0.330161	-0.125236
H75	H	1.072523	0.260477	-0.000009
H76	H	1.066360	0.062682	-0.000032
