data_functionalizedCrystal
_audit_creation_method	'MofGen! by Chris Wilmer'
_symmetry_space_group_name_H-M	'P1'
_symmetry_Int_Tables_number	1
_symmetry_cell_setting	triclinic
loop_
_symmetry_equiv_pos_as_xyz
  x,y,z
_cell_length_a	10.540539
_cell_length_b	11.026607
_cell_length_c	9.616153
_cell_angle_alpha	89.998913
_cell_angle_beta	90.004388
_cell_angle_gamma	83.444246
loop_
_atom_site_label
_atom_site_type_symbol
_atom_site_fract_x
_atom_site_fract_y
_atom_site_fract_z
O1	O	0.532603	-1.614775	0.115633
O2	O	0.471956	-1.260943	0.115637
O3	O	0.319341	-1.445931	0.115633
O4	O	0.685217	-1.429786	0.115637
O5	O	0.319326	-1.445924	-0.115658
O6	O	0.471940	-1.260936	-0.115655
O7	O	0.532587	-1.614767	-0.115658
Zn8	Zn	0.502261	-1.437850	-0.152379
Zn9	Zn	0.502281	-1.437860	0.152357
O10	O	0.685202	-1.429779	-0.115655
C11	C	0.460760	-1.215631	-0.000009
C12	C	0.427407	-1.080628	-0.000007
C13	C	0.271765	-1.444717	-0.000010
C14	C	0.130023	-1.441094	-0.000003
C15	C	0.543783	-1.660079	-0.000010
C16	C	0.577136	-1.795082	-0.000002
C17	C	-0.083807	-1.302290	0.000518
C18	C	0.063615	-1.305962	-0.000003
C19	C	0.082602	-1.506122	-0.132082
C20	C	-0.064953	-1.501510	-0.132193
C21	C	-0.064852	-1.504267	0.130828
C22	C	0.082403	-1.505512	0.132575
C23	C	0.732778	-1.430993	-0.000008
C24	C	0.874519	-1.434616	-0.000007
N25	N	0.502249	-1.437852	-0.360354
C26	C	0.519499	-1.007621	-0.000005
C27	C	0.485030	-0.868088	-0.000004
C28	C	0.421048	-1.537179	-0.580682
C29	C	0.420596	-1.536911	-0.419515
C30	C	0.444277	-1.310745	-0.418883
C31	C	0.443684	-1.311336	-0.580101
C32	C	0.641539	-1.464521	-0.580227
C33	C	0.641295	-1.467389	-0.418998
N34	N	0.502286	-1.437867	0.360332
H35	H	0.095017	-1.254794	0.094677
H36	H	0.323045	-1.039832	0.000027
H37	H	-0.090698	-1.601873	0.131716
H38	H	0.681506	-0.835870	-0.000010
Cl39	Cl	-0.149027	-1.219971	-0.144466
Cl40	Cl	0.110657	-1.226396	-0.146421
Cl41	Cl	0.480529	-1.682726	-0.358409
H42	H	0.459653	-1.631942	-0.619443
H43	H	0.623862	-1.048417	-0.000012
H44	H	0.706817	-1.399829	-0.378724
H45	H	0.499097	-1.235155	-0.619123
H46	H	-0.091635	-1.598696	-0.138186
H47	H	0.380661	-0.827297	0.000031
Cl48	Cl	-0.124761	-1.427295	-0.284621
H49	H	-0.124093	-1.248912	0.095234
H50	H	0.318924	-1.520274	-0.621213
H51	H	0.126692	-1.605360	-0.136994
H52	H	0.115300	-1.460944	-0.230370
Cl53	Cl	0.261968	-1.510413	-0.359982
Cl54	Cl	-0.128330	-1.436735	0.285389
H55	H	0.112845	-1.457931	0.230283
H56	H	0.341242	-1.288019	-0.617719
Cl57	Cl	0.735407	-1.352732	-0.639129
Cl58	Cl	0.708189	-1.611756	-0.359923
Cl59	Cl	0.531307	-1.193814	-0.359723
Cl60	Cl	0.716488	-1.604671	-0.642967
Cl61	Cl	0.153122	-1.657623	0.144898
H62	H	0.342812	-1.286884	-0.378521
