data_functionalizedCrystal
_audit_creation_method	'MofGen! by Chris Wilmer'
_symmetry_space_group_name_H-M	'P1'
_symmetry_Int_Tables_number	1
_symmetry_cell_setting	triclinic
loop_
_symmetry_equiv_pos_as_xyz
  x,y,z
_cell_length_a	6.817900
_cell_length_b	7.190334
_cell_length_c	15.866870
_cell_angle_alpha	74.030337
_cell_angle_beta	102.655915
_cell_angle_gamma	60.611776
loop_
_atom_site_label
_atom_site_type_symbol
_atom_site_fract_x
_atom_site_fract_y
_atom_site_fract_z
V1	V	-4.278433	0.767890	-0.130870
O2	O	-4.203398	0.646163	0.007859
O3	O	-4.283778	0.865652	-0.261003
O4	O	-4.314452	1.055795	-0.128168
O5	O	-4.172512	0.454703	-0.125896
V6	V	-4.744158	0.717916	-0.114358
O7	O	-4.578733	0.877511	-0.167091
O8	O	-4.894056	0.608295	-0.078137
O9	O	-4.515607	0.620154	0.015776
O10	O	-4.936591	0.839643	-0.253087
O11	O	-4.967477	1.031103	-0.119332
O12	O	-4.484933	0.430011	-0.117060
C13	C	-4.139122	0.880119	-0.292749
C14	C	-4.225342	0.961971	-0.399130
C15	C	-4.178259	1.122659	-0.123299
C16	C	-4.291433	1.363135	-0.121924
C17	C	-3.991620	0.202729	-0.682960
C18	C	-4.072667	0.279712	-0.782926
C19	C	-4.279585	0.691098	-0.809332
C20	C	-4.198544	0.614148	-0.709366
C21	C	-4.054566	0.369961	-0.646187
C22	C	-4.261489	0.781381	-0.672594
C23	C	-4.180466	0.704438	-0.572637
C24	C	-4.036496	0.460261	-0.509452
C25	C	-3.973542	0.293018	-0.546230
C26	C	-4.405482	1.025568	-0.735775
C27	C	-4.468428	1.192801	-0.699003
C28	C	-4.387389	1.115858	-0.599044
C29	C	-4.243420	0.871681	-0.535859
C30	C	-4.450344	1.283101	-0.562266
C31	C	-4.369320	1.206158	-0.462309
C32	C	-4.162396	0.794738	-0.435902
C33	C	-4.323605	0.605685	0.047516
C34	C	-4.216628	0.523848	0.153897
H35	H	-3.970535	0.397619	-0.428062
H36	H	-3.856268	0.094174	-0.494785
C37	C	-4.004140	0.098349	-0.822967
C38	C	-3.867864	0.116896	-0.875017
C39	C	-3.804720	-0.050113	-0.911926
H40	H	-3.906673	-0.058202	-0.771113
H41	H	-4.151237	0.129064	-0.864570
H42	H	-3.720790	0.086164	-0.833418
H43	H	-3.965284	0.273410	-0.926886
H44	H	-3.951816	-0.019399	-0.953528
H45	H	-3.707261	-0.206653	-0.860065
H46	H	-3.712270	-0.037537	-0.947253
H47	H	-4.045122	0.595894	-0.384457
H48	H	-4.471452	1.088208	-0.817166
H49	H	-4.585670	1.391620	-0.750457
H50	H	-3.874346	0.003884	-0.631514
C51	C	-4.435810	0.956094	-0.878085
C52	C	-4.493250	0.987688	-0.973493
C53	C	-4.637125	1.231769	-1.036851
H54	H	-4.585017	1.037523	-0.870357
H55	H	-4.345204	1.018800	-0.864080
H56	H	-4.583856	0.925012	-0.987494
H57	H	-4.344092	0.906316	-0.981252
H58	H	-4.546519	1.294475	-1.022846
H59	H	-4.786320	1.313176	-1.029114
H60	H	-4.676097	1.253236	-1.101592
H61	H	-4.567598	1.481920	-0.613721
H62	H	-4.420609	1.342338	-0.432370
