data_functionalizedCrystal
_audit_creation_method	'MofGen! by Chris Wilmer'
_symmetry_space_group_name_H-M	'P1'
_symmetry_Int_Tables_number	1
_symmetry_cell_setting	triclinic
loop_
_symmetry_equiv_pos_as_xyz
  x,y,z
_cell_length_a	10.723023
_cell_length_b	27.731996
_cell_length_c	26.210047
_cell_angle_alpha	89.974253
_cell_angle_beta	89.979213
_cell_angle_gamma	83.544468
loop_
_atom_site_label
_atom_site_type_symbol
_atom_site_fract_x
_atom_site_fract_y
_atom_site_fract_z
O1	O	1.654379	0.067799	-0.042431
O2	O	2.154379	0.567799	0.457569
O3	O	1.290954	0.074289	-0.042434
O4	O	1.790954	0.574289	0.457566
O5	O	1.483988	0.000716	-0.042422
O6	O	1.983988	0.500716	0.457578
O7	O	1.461345	0.141372	-0.042444
O8	O	1.961345	0.641372	0.457556
O9	O	1.483916	0.000695	0.042437
O10	O	1.983916	0.500695	0.542437
O11	O	1.290883	0.074268	0.042424
O12	O	1.790883	0.574268	0.542424
O13	O	1.654307	0.067778	0.042427
O14	O	2.154307	0.567778	0.542427
Cu15	Cu	1.472588	0.071021	0.050174
Cu16	Cu	1.972588	0.571021	0.550174
Cu17	Cu	1.472673	0.071046	-0.050181
Cu18	Cu	1.972673	0.571046	0.449819
O19	O	1.461274	0.141351	0.042414
O20	O	1.961274	0.641351	0.542414
C21	C	1.244439	0.073806	-0.000005
C22	C	1.744439	0.573806	0.499995
C23	C	1.105944	0.072393	-0.000006
C24	C	1.605944	0.572393	0.499994
C25	C	1.044161	0.071753	0.043953
C26	C	1.544161	0.571753	0.543953
C27	C	0.901019	0.070292	0.043953
C28	C	1.401019	0.570292	0.543953
C29	C	1.483487	-0.017305	0.000009
C30	C	1.983487	0.482695	0.500009
C31	C	1.482086	-0.070970	0.000014
C32	C	1.982086	0.429030	0.500014
C33	C	1.473310	-0.403730	-0.046267
C34	C	1.973310	0.096270	0.453733
C35	C	1.467991	-0.605421	-0.046276
C36	C	1.967991	-0.105421	0.453724
O37	O	1.467282	-0.631486	-0.085615
O38	O	1.967282	-0.131486	0.414385
N39	N	1.467291	-0.630654	-0.000020
N40	N	1.967291	-0.130654	0.499980
C41	C	1.467913	-0.605460	0.046241
C42	C	1.967913	-0.105460	0.546241
O43	O	1.467182	-0.631549	0.085584
O44	O	1.967182	-0.131549	0.585584
C45	C	1.473224	-0.403769	0.046250
C46	C	1.973224	0.096231	0.546250
C47	C	1.473936	-0.378540	-0.000009
C48	C	1.973936	0.121460	0.499991
C49	C	1.474022	-0.378500	-0.092522
C50	C	1.974022	0.121500	0.407478
C51	C	1.475358	-0.328081	-0.092519
C52	C	1.975358	0.171919	0.407481
C53	C	1.475984	-0.302891	-0.046261
C54	C	1.975984	0.197109	0.453739
C55	C	1.475273	-0.328120	-0.000006
C56	C	1.975273	0.171880	0.499994
C57	C	1.473837	-0.378576	0.092510
C58	C	1.973837	0.121424	0.592510
C59	C	1.475161	-0.328150	0.092508
C60	C	1.975161	0.171850	0.592508
C61	C	1.475874	-0.302921	0.046250
C62	C	1.975874	0.197079	0.546250
C63	C	1.477235	-0.252511	0.046254
C64	C	1.977235	0.247489	0.546254
N65	N	1.477935	-0.227278	-0.000002
N66	N	1.977935	0.272722	0.499998
C67	C	1.477309	-0.252468	-0.046259
C68	C	1.977309	0.247532	0.453741
C69	C	1.465127	-0.711351	0.046233
C70	C	1.965127	-0.211351	0.546233
C71	C	1.463801	-0.761773	0.046231
C72	C	1.963801	-0.261773	0.546231
C73	C	1.463877	-0.761731	-0.046286
C74	C	1.963877	-0.261731	0.453714
C75	C	1.465211	-0.711308	-0.046283
C76	C	1.965211	-0.211308	0.453717
C77	C	1.465827	-0.686118	-0.000022
C78	C	1.965827	-0.186118	0.499978
C79	C	1.480118	-0.146584	-0.046250
C80	C	1.980118	0.353416	0.453750
C81	C	1.481460	-0.096160	-0.046243
C82	C	1.981460	0.403840	0.453757
C83	C	1.481378	-0.096207	0.046274
C84	C	1.981378	0.403793	0.546274
C85	C	1.480042	-0.146626	0.046267
C86	C	1.980042	0.353374	0.546267
C87	C	1.479408	-0.171813	0.000001
C88	C	1.979408	0.328187	0.500001
O89	O	1.477930	-0.226414	0.085573
O90	O	1.977930	0.273586	0.585573
O91	O	1.478012	-0.226369	-0.085597
O92	O	1.978012	0.273631	0.414403
C93	C	1.471974	-0.454149	-0.046269
C94	C	1.971974	0.045851	0.453731
C95	C	1.471263	-0.479379	-0.000014
C96	C	1.971263	0.020621	0.499986
C97	C	1.471888	-0.454189	0.046243
C98	C	1.971888	0.045811	0.546243
C99	C	1.469937	-0.529801	-0.000016
C100	C	1.969937	-0.029801	0.499984
C101	C	1.469311	-0.554991	-0.046274
C102	C	1.969311	-0.054991	0.453726
C103	C	1.470011	-0.529758	-0.092530
C104	C	1.970011	-0.029758	0.407470
C105	C	1.471348	-0.479339	-0.092527
C106	C	1.971348	0.020661	0.407473
C107	C	1.471188	-0.479421	0.092499
C108	C	1.971188	0.020579	0.592499
C109	C	1.469853	-0.529841	0.092492
C110	C	1.969853	-0.029841	0.592492
C111	C	1.469227	-0.555031	0.046235
C112	C	1.969227	-0.055031	0.546235
C113	C	1.700823	0.068261	-0.000003
C114	C	2.200823	0.568261	0.499997
C115	C	1.839318	0.069674	-0.000006
C116	C	2.339318	0.569674	0.499994
C117	C	1.461775	0.159372	-0.000018
C118	C	1.961775	0.659372	0.499982
C119	C	1.463176	0.213037	-0.000026
C120	C	1.963176	0.713037	0.499974
N121	N	1.472538	0.071003	0.120758
N122	N	1.972538	0.571003	0.620758
C123	C	1.397551	0.041441	0.526739
C124	C	1.897551	0.541441	1.026739
C125	C	1.397500	0.041428	0.313081
C126	C	1.897500	0.541428	0.813081
O127	O	1.333675	0.016253	0.285474
O128	O	1.833675	0.516253	0.785474
N129	N	1.472581	0.071010	0.286341
N130	N	1.972581	0.571010	0.786341
C131	C	1.547686	0.100595	0.313020
C132	C	2.047686	0.600595	0.813020
O133	O	1.611556	0.125752	0.285374
O134	O	2.111556	0.625752	0.785374
C135	C	1.547743	0.100605	0.526677
C136	C	2.047743	0.600605	1.026677
C137	C	1.472647	0.071024	0.553414
C138	C	1.972647	0.571024	1.053414
C139	C	1.322463	0.011862	0.553476
C140	C	1.822463	0.511862	1.053476
C141	C	1.322471	0.011868	0.606887
C142	C	1.822471	0.511868	1.106887
C143	C	1.397567	0.041452	0.633562
C144	C	1.897567	0.541452	1.133562
C145	C	1.472656	0.071030	0.606825
C146	C	1.972656	0.571030	1.106825
C147	C	1.622854	0.130187	0.553355
C148	C	2.122854	0.630187	1.053355
C149	C	1.622863	0.130186	0.606773
C150	C	2.122863	0.630186	1.106773
C151	C	1.547768	0.100605	0.633509
C152	C	2.047768	0.600605	1.133509
C153	C	1.547760	0.100619	0.686912
C154	C	2.047760	0.600619	1.186912
N155	N	1.472679	0.071037	0.713651
N156	N	1.972679	0.571037	1.213651
C157	C	1.397583	0.041453	0.686976
C158	C	1.897583	0.541453	1.186976
C159	C	1.547650	0.100589	0.200846
C160	C	2.047650	0.600589	0.700846
C161	C	1.547634	0.100587	0.147432
C162	C	2.047634	0.600587	0.647432
C163	C	1.397450	0.041419	0.147497
C164	C	1.897450	0.541419	0.647497
C165	C	1.397459	0.041424	0.200912
C166	C	1.897459	0.541424	0.700912
C167	C	1.472569	0.071007	0.227586
C168	C	1.972569	0.571007	0.727586
C169	C	1.397605	0.041467	0.799144
C170	C	1.897605	0.541467	1.299144
C171	C	1.397616	0.041477	0.852560
C172	C	1.897616	0.541477	1.352560
C173	C	1.547805	0.100642	0.852491
C174	C	2.047805	0.600642	1.352491
C175	C	1.547790	0.100635	0.799080
C176	C	2.047790	0.600635	1.299080
C177	C	1.472686	0.071043	0.772407
C178	C	1.972686	0.571043	1.272407
O179	O	1.611563	0.125776	0.714551
O180	O	2.111563	0.625776	1.214551
O181	O	1.333744	0.016292	0.714632
O182	O	1.833744	0.516292	1.214632
C183	C	1.397543	0.041435	0.473328
C184	C	1.897543	0.541435	0.973328
C185	C	1.472631	0.071014	0.446591
C186	C	1.972631	0.571014	0.946591
C187	C	1.547727	0.100597	0.473266
C188	C	2.047727	0.600597	0.973266
C189	C	1.472615	0.071012	0.393177
C190	C	1.972615	0.571012	0.893177
C191	C	1.397519	0.041428	0.366502
C192	C	1.897519	0.541428	0.866502
C193	C	1.322438	0.011846	0.393242
C194	C	1.822438	0.511846	0.893242
C195	C	1.322446	0.011852	0.446653
C196	C	1.822446	0.511852	0.946653
C197	C	1.622808	0.130179	0.446527
C198	C	2.122808	0.630179	0.946527
C199	C	1.622793	0.130172	0.393115
C200	C	2.122793	0.630172	0.893115
C201	C	1.547696	0.100588	0.366440
C202	C	2.047696	0.600588	0.866440
N203	N	1.472713	0.071060	0.879235
N204	N	1.972713	0.571060	1.379235
H205	H	1.482043	-0.075621	-0.083914
H206	H	1.982043	0.424379	0.416086
N207	N	0.830729	0.069357	0.093808
N208	N	1.330729	0.569357	0.593808
H209	H	0.738473	0.068348	0.086741
H210	H	1.238473	0.568348	0.586741
H211	H	0.864344	0.039605	0.113869
H212	H	1.364344	0.539605	0.613869
H213	H	1.052866	0.071859	-0.037640
H214	H	1.552866	0.571859	0.462360
H215	H	0.892440	0.070227	-0.037642
H216	H	1.392440	0.570227	0.462358
H217	H	1.261310	-0.012231	0.531763
H218	H	1.761310	0.487769	1.031763
H219	H	1.479595	-0.167085	-0.083924
H220	H	1.979595	0.332915	0.416076
H221	H	1.475934	-0.307543	-0.130188
H222	H	1.975934	0.192457	0.369812
H223	H	1.463369	-0.782249	-0.083950
H224	H	1.963369	-0.282249	0.416050
N225	N	1.479306	-0.173844	0.096158
N226	N	1.979306	0.326156	0.596158
H227	H	1.401378	-0.191100	0.098222
H228	H	1.901378	0.308900	0.598222
H229	H	1.556182	-0.198404	0.098182
H230	H	2.056182	0.301596	0.598182
N231	N	1.114452	0.072456	0.093807
N232	N	1.614452	0.572456	0.593807
H233	H	1.206744	0.073400	0.086740
H234	H	1.706744	0.573400	0.586740
H235	H	1.081046	0.102132	0.114013
H236	H	1.581046	0.602132	0.614013
H237	H	1.473508	-0.399004	-0.130192
H238	H	1.973508	0.100996	0.369808
H239	H	1.261325	-0.012221	0.628652
H240	H	1.761325	0.487779	1.128652
H241	H	1.465790	-0.690769	-0.083951
H242	H	1.965790	-0.190769	0.416049
N243	N	1.463060	-0.788984	0.096124
N244	N	1.963060	-0.288984	0.596124
H245	H	1.463655	-0.765370	0.125426
H246	H	1.963655	-0.265370	0.625426
H247	H	1.385130	-0.806241	0.098141
H248	H	1.885130	-0.306241	0.598141
H249	H	1.471700	-0.458917	0.130168
H250	H	1.971700	0.041083	0.630168
N251	N	1.465799	-0.684186	0.096132
N252	N	1.965799	-0.184186	0.596132
H253	H	1.465160	-0.707826	0.125430
H254	H	1.965160	-0.207826	0.625430
H255	H	1.543729	-0.666932	0.098149
H256	H	2.043729	-0.166932	0.598149
H257	H	1.473258	-0.399109	0.130179
H258	H	1.973258	0.100891	0.630179
N259	N	1.628615	0.132496	0.118598
N260	N	2.128615	0.632496	0.618598
H261	H	1.676190	0.151235	0.143606
H262	H	2.176190	0.651235	0.643606
H263	H	1.690023	0.111636	0.096436
H264	H	2.190023	0.611636	0.596436
N265	N	1.475820	-0.300981	0.142405
N266	N	1.975820	0.199019	0.642405
H267	H	1.475168	-0.324619	0.171706
H268	H	1.975168	0.175381	0.671706
H269	H	1.553751	-0.283728	0.144426
H270	H	2.053751	0.216272	0.644426
N271	N	1.316629	0.009567	0.881398
N272	N	1.816629	0.509567	1.381398
H273	H	1.269064	-0.009177	0.856391
H274	H	1.769064	0.490823	1.356391
H275	H	1.371511	-0.013867	0.903561
H276	H	1.871511	0.486133	1.403561
H277	H	1.608943	0.124730	0.874219
H278	H	2.108943	0.624730	1.374219
H279	H	1.481893	-0.075688	0.083935
H280	H	1.981893	0.424312	0.583935
H281	H	1.336310	0.017337	0.222677
H282	H	1.836310	0.517337	0.722677
H283	H	1.471928	-0.458802	-0.130196
H284	H	1.971928	0.041198	0.369804
N285	N	1.469345	-0.556933	-0.142423
N286	N	1.969345	-0.056933	0.357577
H287	H	1.468392	-0.592702	-0.135400
H288	H	1.968392	-0.092702	0.364600
H289	H	1.392215	-0.544448	-0.162624
H290	H	1.892215	-0.044448	0.337376
N291	N	1.469097	-0.557051	0.142389
N292	N	1.969097	-0.057051	0.642389
H293	H	1.469694	-0.533437	0.171691
H294	H	1.969694	-0.033437	0.671691
H295	H	1.391160	-0.574304	0.144403
H296	H	1.891160	-0.074304	0.644403
H297	H	1.336449	0.017371	0.777434
H298	H	1.836449	0.517371	1.277434
H299	H	1.336300	0.017332	0.125769
H300	H	1.836300	0.517332	0.625769
H301	H	1.261296	-0.012236	0.468417
H302	H	1.761296	0.487764	0.968417
N303	N	1.628702	0.132484	0.229613
N304	N	2.128702	0.632484	0.729613
H305	H	1.676266	0.151217	0.204564
H306	H	2.176266	0.651217	0.704564
H307	H	1.573879	0.155928	0.251781
H308	H	2.073879	0.655928	0.751781
H309	H	1.684007	0.154273	0.531595
H310	H	2.184007	0.654273	1.031595
N311	N	1.703890	0.162088	0.635542
N312	N	2.203890	0.662088	1.135542
H313	H	1.751459	0.180823	0.610496
H314	H	2.251459	0.680823	1.110496
H315	H	1.649042	0.185530	0.657703
H316	H	2.149042	0.685530	1.157703
N317	N	1.628762	0.132546	0.770238
N318	N	2.128762	0.632546	1.270238
H319	H	1.676330	0.151290	0.795244
H320	H	2.176330	0.651290	1.295244
H321	H	1.690175	0.111685	0.748079
H322	H	2.190175	0.611685	1.248079
N323	N	1.241442	-0.020063	0.364466
N324	N	1.741442	0.479937	0.864466
H325	H	1.252842	-0.015576	0.326572
H326	H	1.752842	0.484424	0.826572
H327	H	1.266801	-0.055129	0.373817
H328	H	1.766801	0.444871	0.873817
N329	N	1.703792	0.162079	0.364281
N330	N	2.203792	0.662079	0.864281
H331	H	1.751366	0.180818	0.389289
H332	H	2.251366	0.680818	0.889289
H333	H	1.765200	0.141215	0.342123
H334	H	2.265200	0.641215	0.842123
N335	N	1.703847	0.162075	0.475293
N336	N	2.203847	0.662075	0.975293
H337	H	1.751415	0.180807	0.450244
H338	H	2.251415	0.680807	0.950244
H339	H	1.649017	0.185519	0.497458
H340	H	2.149017	0.685519	0.997458
