data_functionalizedCrystal
_audit_creation_method	'MofGen! by Chris Wilmer'
_symmetry_space_group_name_H-M	'P1'
_symmetry_Int_Tables_number	1
_symmetry_cell_setting	triclinic
loop_
_symmetry_equiv_pos_as_xyz
  x,y,z
_cell_length_a	12.827893
_cell_length_b	17.640280
_cell_length_c	12.827885
_cell_angle_alpha	101.230744
_cell_angle_beta	90.019082
_cell_angle_gamma	78.800887
loop_
_atom_site_label
_atom_site_type_symbol
_atom_site_fract_x
_atom_site_fract_y
_atom_site_fract_z
Zn1	Zn	1.681785	-0.314627	0.506822
Zn2	Zn	2.181785	0.185373	1.006822
Zn3	Zn	1.717022	-0.446821	0.296780
Zn4	Zn	2.217022	0.053179	0.796780
Zn5	Zn	1.507037	-0.314666	0.332086
Zn6	Zn	2.007037	0.185334	0.832086
Zn7	Zn	1.542339	-0.446763	0.471497
Zn8	Zn	2.042339	0.053237	0.971497
O9	O	1.612046	-0.380720	0.401796
O10	O	2.112046	0.119280	0.901796
O11	O	1.832698	-0.332171	0.478968
O12	O	2.332698	0.167829	0.978968
O13	O	1.689139	-0.429331	0.155217
O14	O	2.189139	0.070669	0.655217
O15	O	1.500698	-0.204055	0.384825
O16	O	2.000698	0.295945	0.884825
O17	O	1.858586	-0.429294	0.324651
O18	O	2.358586	0.070706	0.824651
O19	O	1.629084	-0.204026	0.513203
O20	O	2.129084	0.295974	1.013203
O21	O	1.534865	-0.332238	0.181156
O22	O	2.034865	0.167762	0.681156
O23	O	1.365482	-0.332181	0.350571
O24	O	1.865482	0.167819	0.850571
O25	O	1.560864	-0.429194	0.622430
O26	O	2.060864	0.070806	1.122430
O27	O	1.391418	-0.429232	0.452995
O28	O	1.891418	0.070768	0.952995
O29	O	1.663315	-0.332115	0.648383
O30	O	2.163315	0.167885	1.148383
O31	O	1.723370	-0.557420	0.290397
O32	O	2.223370	-0.057420	0.790397
O33	O	1.595031	-0.557377	0.418761
O34	O	2.095031	-0.057377	0.918761
C35	C	1.340532	-0.380705	0.401781
C36	C	1.840532	0.119295	0.901781
C37	C	1.224382	-0.380718	0.401795
C38	C	1.724382	0.119282	0.901795
C39	C	1.159719	-0.332630	0.351241
C40	C	1.659719	0.167370	0.851241
C41	C	1.039672	-0.332642	0.351254
C42	C	1.539672	0.167358	0.851254
C43	C	1.666883	-0.586078	0.346937
C44	C	2.166883	-0.086078	0.846937
C45	C	1.690438	-0.673931	0.323503
C46	C	2.190438	-0.173931	0.823503
C47	C	1.433528	-0.962894	0.580202
C48	C	1.933528	-0.462894	1.080202
C49	C	1.455664	-1.045446	0.558149
C50	C	1.955664	-0.545446	1.058149
C51	C	1.589386	-1.045425	0.424620
C52	C	2.089386	-0.545425	0.924620
C53	C	1.567265	-0.962872	0.446665
C54	C	2.067265	-0.462872	0.946665
C55	C	1.489334	-0.921613	0.524457
C56	C	1.989334	-0.421613	1.024457
C57	C	1.623071	-0.921591	0.390920
C58	C	2.123071	-0.421591	0.890920
C59	C	1.600948	-0.839045	0.412960
C60	C	2.100948	-0.339045	0.912960
C61	C	1.523018	-0.797780	0.490746
C62	C	2.023018	-0.297780	0.990746
C63	C	1.467211	-0.839067	0.546497
C64	C	1.967211	-0.339067	1.046497
C65	C	1.700997	-0.962851	0.313123
C66	C	2.200997	-0.462851	0.813123
C67	C	1.756803	-0.921570	0.257378
C68	C	2.256803	-0.421570	0.757378
C69	C	1.734685	-0.839022	0.279423
C70	C	2.234685	-0.339022	0.779423
C71	C	1.656755	-0.797758	0.357209
C72	C	2.156755	-0.297758	0.857209
C73	C	1.790492	-0.797735	0.223672
C74	C	2.290492	-0.297735	0.723672
C75	C	1.768369	-0.715190	0.245712
C76	C	2.268369	-0.215190	0.745712
C77	C	1.634632	-0.715212	0.379249
C78	C	2.134632	-0.215212	0.879249
C79	C	1.884620	-0.380735	0.401812
C80	C	2.384620	0.119265	0.901812
C81	C	2.000775	-0.380741	0.401819
C82	C	2.500775	0.119259	0.901819
C83	C	1.612097	-0.380644	0.674387
C84	C	2.112097	0.119356	1.174387
C85	C	1.612118	-0.380611	0.790549
C86	C	2.112118	0.119389	1.290549
C87	C	1.557023	-0.174559	0.456893
C88	C	2.057023	0.325441	0.956893
C89	C	1.533575	-0.086706	0.480371
C90	C	2.033575	0.413294	0.980371
C91	C	1.612040	-0.380738	0.130282
C92	C	2.112040	0.119262	0.630282
C93	C	1.612161	-0.380548	0.014180
C94	C	2.112161	0.119452	0.514180
C95	C	1.662819	-0.332564	0.855179
C96	C	2.162819	0.167436	1.355179
C97	C	1.662842	-0.332529	0.975239
C98	C	2.162842	0.167471	1.475239
H99	H	1.571180	-0.681618	0.442602
H100	H	2.071180	-0.181618	0.942602
H101	H	1.505000	-0.730566	0.508682
H102	H	2.005000	-0.230566	1.008682
H103	H	1.403759	-0.805473	0.609851
H104	H	1.903759	-0.305473	1.109851
H105	H	1.568757	-0.421688	0.958654
H106	H	2.068757	0.078312	1.458654
H107	H	1.190869	-0.421899	0.445080
H108	H	1.690869	0.078101	0.945080
C109	C	1.347819	-0.917505	0.665786
C110	C	1.847819	-0.417505	1.165786
H111	H	1.317749	-0.953911	0.695834
H112	H	1.817749	-0.453911	1.195834
H113	H	1.379139	-0.885263	0.719953
H114	H	1.879139	-0.385263	1.219953
H115	H	1.293682	-0.885345	0.634358
H116	H	1.793682	-0.385345	1.134358
H117	H	1.568721	-0.421716	0.824102
H118	H	2.068721	0.078284	1.324102
C119	C	1.842522	-0.966955	0.171812
C120	C	2.342522	-0.466955	0.671812
H121	H	1.872585	-0.930544	0.141765
H122	H	2.372585	-0.430544	0.641765
H123	H	1.896647	-0.999115	0.203240
H124	H	2.396647	-0.499115	0.703240
H125	H	1.811207	-0.999195	0.117628
H126	H	2.311207	-0.499195	0.617628
C127	C	0.964628	-0.277021	0.292784
C128	C	1.464628	0.222979	0.792784
H129	H	1.004604	-0.246839	0.261066
H130	H	1.504604	0.253161	0.761066
H131	H	0.930099	-0.307246	0.239157
H132	H	1.430099	0.192754	0.739157
H133	H	0.912889	-0.242648	0.342069
H134	H	1.412889	0.257352	0.842069
H135	H	1.056327	-0.421909	0.445107
H136	H	1.556327	0.078091	0.945107
C137	C	1.394279	-1.090853	0.619482
C138	C	1.894279	-0.590853	1.119482
H139	H	1.344706	-1.054455	0.668972
H140	H	1.844706	-0.554455	1.168972
H141	H	1.357412	-1.123100	0.570861
H142	H	1.857412	-0.623100	1.070861
H143	H	1.442856	-1.123008	0.656470
H144	H	1.942856	-0.623008	1.156470
H145	H	1.193234	-0.291455	0.307947
H146	H	1.693234	0.208545	0.807947
H147	H	1.706203	-0.291452	0.821628
H148	H	2.206203	0.208548	1.321628
H149	H	1.652834	-1.079029	0.361279
H150	H	2.152834	-0.579029	0.861279
H151	H	1.853936	-0.831341	0.160327
H152	H	2.353936	-0.331341	0.660327
C153	C	1.829757	-0.669777	0.184398
C154	C	2.329757	-0.169777	0.684398
H155	H	1.879345	-0.706171	0.134920
H156	H	2.379345	-0.206171	0.634920
H157	H	1.781190	-0.637617	0.147417
H158	H	2.281190	-0.137617	0.647417
H159	H	1.866626	-0.637534	0.233034
H160	H	2.366626	-0.137534	0.733034
H161	H	1.719009	-1.030065	0.295184
H162	H	2.219009	-0.530065	0.795184
C163	C	1.721488	-0.276960	1.050247
C164	C	2.221488	0.223040	1.550247
H165	H	1.713807	-0.284225	1.121101
H166	H	2.213807	0.215775	1.621101
H167	H	1.794798	-0.288525	1.029322
H168	H	2.294798	0.211475	1.529322
H169	H	1.692024	-0.223842	1.046609
H170	H	2.192024	0.276158	1.546609
