data_functionalizedCrystal
_audit_creation_method	'MofGen! by Chris Wilmer'
_symmetry_space_group_name_H-M	'P1'
_symmetry_Int_Tables_number	1
_symmetry_cell_setting	triclinic
loop_
_symmetry_equiv_pos_as_xyz
  x,y,z
_cell_length_a	21.295420
_cell_length_b	21.295417
_cell_length_c	21.295411
_cell_angle_alpha	89.978356
_cell_angle_beta	89.975408
_cell_angle_gamma	90.026289
loop_
_atom_site_label
_atom_site_type_symbol
_atom_site_fract_x
_atom_site_fract_y
_atom_site_fract_z
Zn1	Zn	0.962355	-0.250752	-0.355912
Zn2	Zn	0.962258	-0.356004	-0.250637
Zn3	Zn	0.857079	-0.250744	-0.250657
Zn4	Zn	0.857048	-0.355979	-0.355869
O5	O	0.909685	-0.303370	-0.303269
O6	O	1.050432	-0.264727	-0.341957
O7	O	0.948277	-0.342048	-0.162550
O8	O	0.871097	-0.162656	-0.264645
O9	O	1.050360	-0.342055	-0.264612
O10	O	0.948444	-0.162661	-0.341976
O11	O	0.871003	-0.264714	-0.162565
O12	O	0.768985	-0.264691	-0.264604
O13	O	0.871045	-0.342014	-0.443964
O14	O	0.768963	-0.342006	-0.341903
O15	O	0.948414	-0.264703	-0.443996
O16	O	0.948248	-0.444090	-0.264570
O17	O	0.870951	-0.444072	-0.341884
C18	C	0.746133	-0.303346	-0.303251
C19	C	0.676165	-0.303351	-0.303258
C20	C	0.176744	-0.263200	-0.343617
C21	C	0.242486	-0.263195	-0.343617
C22	C	0.275326	-0.303389	-0.303283
C23	C	0.242417	-0.343602	-0.262958
C24	C	0.176676	-0.343610	-0.262964
N25	N	0.378516	-0.308125	-0.248164
N26	N	0.440967	-0.308113	-0.248160
C27	C	0.473400	-0.303368	-0.303265
N28	N	0.441023	-0.298623	-0.358375
N29	N	0.378566	-0.298631	-0.358377
C30	C	0.346611	-0.303385	-0.303273
C31	C	0.577587	-0.263156	-0.343591
C32	C	0.643330	-0.263156	-0.343592
C33	C	0.643260	-0.343559	-0.262927
C34	C	0.577517	-0.343562	-0.262932
C35	C	0.544685	-0.303358	-0.303263
C36	C	0.909602	-0.466921	-0.303234
C37	C	0.909625	-0.536890	-0.303240
C38	C	0.949909	-0.569745	-0.263024
C39	C	0.949939	-0.635487	-0.263038
C40	C	0.909672	-0.668372	-0.303262
C41	C	0.869385	-0.635509	-0.343485
C42	C	0.869361	-0.569768	-0.343474
N43	N	0.854605	-0.771635	-0.308055
N44	N	0.854630	-0.834086	-0.308061
C45	C	0.909743	-0.866447	-0.303298
N46	N	0.964832	-0.833997	-0.298515
N47	N	0.964807	-0.771540	-0.298505
C48	C	0.909694	-0.739657	-0.303278
C49	C	0.950063	-0.970587	-0.263095
C50	C	0.950093	-1.036331	-0.263114
C51	C	0.869534	-1.036352	-0.343557
C52	C	0.869509	-0.970609	-0.343542
C53	C	0.909773	-0.937731	-0.303308
C54	C	1.073875	-0.303394	-0.303287
C55	C	1.143843	-0.303405	-0.303295
C56	C	0.909737	-0.303357	-0.467459
C57	C	0.909759	-0.303351	-0.537427
C58	C	0.909785	-0.139180	-0.303318
C59	C	0.909827	-0.069211	-0.303338
C60	C	0.950044	-0.263094	-0.570311
C61	C	0.950043	-0.263066	-0.636054
C62	C	0.909764	-0.303308	-0.668910
C63	C	0.869472	-0.343568	-0.636018
C64	C	0.869470	-0.343589	-0.570276
N65	N	0.904908	-0.358375	-0.772125
N66	N	0.904914	-0.358353	-0.834577
C67	C	0.909768	-0.303244	-0.866985
N68	N	0.914629	-0.248157	-0.834582
N69	N	0.914626	-0.248180	-0.772125
C70	C	0.909762	-0.303288	-0.740195
C71	C	0.950054	-0.262953	-0.971154
C72	C	0.950048	-0.262925	-1.036898
C73	C	0.869481	-0.343432	-1.036861
C74	C	0.869483	-0.343455	-0.971118
C75	C	0.909773	-0.303216	-0.938269
C76	C	0.909669	-0.303338	-0.139717
C77	C	0.909769	-0.303166	-0.069749
H78	H	0.269159	-0.376329	-0.230120
H79	H	0.982850	-0.943817	-0.230336
H80	H	0.550853	-0.230419	-0.376430
H81	H	0.982902	-1.063080	-0.230367
H82	H	0.836679	-0.376191	-1.063611
H83	H	0.836752	-1.063126	-0.376311
Cl84	Cl	0.684692	-0.212613	-0.394293
H85	H	0.669997	-0.376290	-0.230092
Cl86	Cl	0.818768	-0.676849	-0.394055
H87	H	0.836675	-0.376330	-0.662773
H88	H	0.150016	-0.230465	-0.376460
H89	H	0.982745	-0.662243	-0.230290
Cl90	Cl	0.818860	-0.929303	-0.394099
H91	H	0.982850	-0.230328	-0.543570
Cl92	Cl	0.536154	-0.394099	-0.212228
Cl93	Cl	0.283856	-0.212646	-0.394310
Cl94	Cl	0.818840	-0.394070	-0.929776
Cl95	Cl	0.135313	-0.394154	-0.212266
H96	H	0.982695	-0.542977	-0.230265
Cl97	Cl	0.818713	-0.528462	-0.394035
H98	H	0.982846	-0.230281	-0.662833
H99	H	0.836663	-0.376371	-0.543503
H100	H	0.982856	-0.230185	-0.944407
H101	H	0.982852	-0.230139	-1.063671
