data_functionalizedCrystal
_audit_creation_method	'MofGen! by Chris Wilmer'
_symmetry_space_group_name_H-M	'P1'
_symmetry_Int_Tables_number	1
_symmetry_cell_setting	triclinic
loop_
_symmetry_equiv_pos_as_xyz
  x,y,z
_cell_length_a	27.440280
_cell_length_b	14.560438
_cell_length_c	14.560438
_cell_angle_alpha	60.003849
_cell_angle_beta	89.993915
_cell_angle_gamma	59.999709
loop_
_atom_site_label
_atom_site_type_symbol
_atom_site_fract_x
_atom_site_fract_y
_atom_site_fract_z
Zr1	Zr	0.469586	1.005042	-0.120409
O2	O	0.391786	1.196629	-0.267022
O3	O	0.493424	0.813465	-0.075483
O4	O	0.493443	1.005038	-0.267058
O5	O	0.391766	1.005056	0.075692
O6	O	0.573645	1.005023	-0.267063
O7	O	0.391767	1.005056	-0.075448
O8	O	0.573611	0.662334	0.075629
O9	O	0.391800	1.347745	-0.267000
O10	O	0.563459	0.892248	-0.056303
O11	O	0.503604	0.892259	0.056495
O12	O	0.503626	1.117812	-0.169060
O13	O	0.443771	1.117823	-0.056262
Zr14	Zr	0.597497	1.005018	0.120633
Zr15	Zr	0.597499	1.005018	-0.120417
Zr16	Zr	0.469584	1.005041	0.120642
Zr17	Zr	0.469607	1.246054	-0.120373
Zr18	Zr	0.597475	0.764005	0.120597
O19	O	0.573658	1.196595	0.075708
O20	O	0.573662	1.196596	-0.267035
O21	O	0.391783	1.196628	0.075720
O22	O	0.675296	0.813431	0.267247
O23	O	0.675300	0.813431	-0.075496
O24	O	0.493421	0.813464	0.267259
O25	O	0.675317	1.005004	-0.075467
O26	O	0.573639	1.005022	0.267282
O27	O	0.493437	1.005037	0.267288
O28	O	0.675315	1.005004	0.075672
O29	O	0.493473	1.347726	-0.267007
O30	O	0.573609	0.662333	0.267232
O31	O	0.675283	0.662315	0.267225
O32	O	0.675285	0.662315	0.075622
O33	O	0.391797	1.347745	-0.075397
O34	O	0.493471	1.347726	-0.075404
O35	O	0.563457	0.892248	0.169284
O36	O	0.623312	0.892237	0.056486
O37	O	0.563479	1.117801	-0.056270
O38	O	0.503624	1.117811	0.056528
C39	C	0.533515	0.703560	0.000068
C40	C	0.533506	0.601244	0.000052
C41	C	0.502282	0.553137	0.058967
C42	C	0.502315	0.456925	0.059023
C43	C	0.564802	0.456933	-0.058749
C44	C	0.564765	0.553149	-0.058812
C45	C	0.471023	0.601231	0.117831
C46	C	0.439797	0.553123	0.176751
C47	C	0.439831	0.456911	0.176808
C48	C	0.471090	0.408808	0.117945
C49	C	0.373542	1.005059	0.000123
C50	C	0.319239	1.005069	0.000127
C51	C	-0.017457	1.005001	-0.083154
C52	C	-0.068475	1.004992	-0.083154
O53	O	-0.094849	1.004943	-0.153944
N54	N	-0.093994	1.004994	0.000109
C55	C	-0.068489	1.004992	0.083384
O56	O	-0.094879	1.004992	0.154206
C57	C	-0.017469	1.004992	0.083388
C58	C	0.008043	1.005003	0.000114
C59	C	0.008056	1.005011	-0.166421
C60	C	0.059069	1.005022	-0.166421
C61	C	0.084570	1.005024	-0.083154
C62	C	0.059057	1.005015	0.000113
C63	C	0.008038	1.004981	0.166667
C64	C	0.059061	1.004980	0.166665
C65	C	0.084573	1.004991	0.083390
C66	C	0.135572	1.005029	0.083380
N67	N	0.161090	1.005027	0.000117
C68	C	0.135590	1.005024	-0.083150
C69	C	-0.175632	1.004990	0.083370
C70	C	-0.226653	1.005000	0.083362
C71	C	-0.226636	1.004997	-0.083176
C72	C	-0.175616	1.004997	-0.083171
C73	C	-0.150114	1.004988	0.000107
C74	C	0.242722	1.005050	-0.083145
C75	C	0.293739	1.005067	-0.083140
C76	C	0.293718	1.005063	0.083400
C77	C	0.242704	1.005053	0.083393
C78	C	0.217208	1.005042	0.000115
O79	O	0.161980	1.005072	0.154136
O80	O	0.161990	1.005007	-0.153951
C81	C	0.693541	1.005000	0.000101
C82	C	0.747843	1.004991	0.000098
C83	C	0.533545	1.005030	-0.301405
C84	C	0.533546	1.005031	-0.403737
C85	C	0.533568	1.306500	0.000157
C86	C	0.533577	1.408816	0.000172
C87	C	0.577727	1.005028	-0.451824
C88	C	0.577724	1.005023	-0.547973
C89	C	0.489354	1.005028	-0.547943
C90	C	0.489359	1.005024	-0.451791
C91	C	0.621913	1.005035	-0.403771
C92	C	0.666098	1.005034	-0.451859
C93	C	0.666095	1.005028	-0.548008
C94	C	0.621908	1.005024	-0.596069
C95	C	0.533538	1.005029	0.301630
C96	C	0.533537	1.005029	0.403962
C97	C	0.693514	0.703531	0.000057
C98	C	0.747808	0.601205	0.000038
C99	C	0.533512	0.703560	0.301585
C100	C	0.533502	0.601243	0.403902
C101	C	0.693511	0.703530	0.301574
C102	C	0.747804	0.601204	0.403887
C103	C	0.373571	1.306530	-0.301349
C104	C	0.319279	1.408856	-0.403663
C105	C	0.373568	1.306529	0.000168
C106	C	0.319275	1.408855	0.000187
C107	C	0.533571	1.306500	-0.301360
C108	C	0.533581	1.408816	-0.403677
C109	C	0.742062	0.553157	-0.058856
C110	C	0.793072	0.457024	-0.058897
C111	C	0.849826	0.408934	-0.000035
C112	C	0.855571	0.456991	0.058860
C113	C	0.804562	0.553129	0.058893
C114	C	0.804549	0.553145	0.393055
C115	C	0.855567	0.457012	0.489180
C116	C	0.849839	0.408933	0.596136
C117	C	0.793088	0.457002	0.606966
C118	C	0.742071	0.553139	0.510842
C119	C	0.262534	1.456927	-0.392831
C120	C	0.211515	1.553089	-0.488956
C121	C	0.217244	1.601173	-0.595912
C122	C	0.273995	1.553098	-0.606741
C123	C	0.325012	1.456944	-0.510617
C124	C	0.325020	1.456913	0.059071
C125	C	0.274011	1.553072	0.059084
C126	C	0.217256	1.601166	0.000220
C127	C	0.211512	1.553104	-0.058671
C128	C	0.262521	1.456953	-0.058691
C129	C	0.564740	0.553164	0.510846
C130	C	0.564726	0.457032	0.606980
C131	C	0.502234	0.457063	0.489212
C132	C	0.502245	0.553200	0.393081
C133	C	0.595997	0.601208	0.521667
C134	C	0.627239	0.553127	0.628616
C135	C	0.627225	0.456995	0.724750
C136	C	0.595969	0.408944	0.713935
H137	H	0.590253	0.417760	-0.106672
Cl138	Cl	0.621911	1.005001	-0.716936
Cl139	Cl	0.811796	0.613511	0.132949
Cl140	Cl	0.400570	0.396444	0.250866
H141	H	0.414343	0.592302	0.224667
H142	H	0.257834	1.417827	-0.106638
H143	H	0.695868	0.592257	0.519677
Cl144	Cl	-0.143581	1.004995	0.188065
Cl145	Cl	-0.024024	1.004963	0.271363
Cl146	Cl	-0.258727	1.005012	0.188041
H147	H	0.175698	1.679468	-0.674173
Cl148	Cl	0.396363	1.396479	0.133075
Cl149	Cl	0.471124	0.287866	0.118009
H150	H	0.079824	1.004969	0.234484
Cl151	Cl	0.255317	1.396498	-0.258383
H152	H	0.175726	1.679458	0.000245
H153	H	0.652682	0.592265	0.637413
H154	H	0.278700	1.592188	0.107045
H155	H	0.278652	1.592261	-0.693836
H156	H	0.590189	0.592320	-0.106787
Cl157	Cl	0.140179	1.613501	-0.475315
Cl158	Cl	0.140158	1.613573	-0.132662
Cl159	Cl	0.433806	1.005029	-0.608365
Cl160	Cl	0.670720	0.613599	-0.132868
Cl161	Cl	0.666493	0.396565	0.859196
H162	H	0.476787	0.417930	0.480417
Cl163	Cl	0.396347	1.396514	-0.524255
H164	H	0.596013	0.679481	0.443397
Cl165	Cl	0.926924	0.396515	0.132858
H166	H	0.891356	0.330652	-0.000070
Cl167	Cl	0.325808	1.005084	-0.187837
Cl168	Cl	0.595946	0.288101	0.834792
Cl169	Cl	0.462971	0.613649	0.258631
H170	H	0.809224	0.592276	0.305975
H171	H	0.221927	1.005063	0.151193
Cl172	Cl	0.325784	1.005067	0.188074
H173	H	0.470993	0.679571	0.117792
H174	H	0.891385	0.330651	0.674397
Cl175	Cl	0.433817	1.005022	-0.391334
Cl176	Cl	0.785896	0.396544	0.741434
H177	H	0.702076	1.005026	-0.412717
H178	H	0.901772	0.417884	0.480342
H179	H	0.221969	1.005039	-0.150956
H180	H	-0.012701	1.005004	-0.234227
Cl181	Cl	0.091140	1.005023	-0.271107
Cl182	Cl	0.621917	1.005049	-0.282902
Cl183	Cl	-0.258703	1.004990	-0.187852
Cl184	Cl	-0.143548	1.005006	-0.187861
H185	H	0.788383	0.417908	-0.106856
Cl186	Cl	0.721643	1.005011	-0.608453
