data_functionalizedCrystal
_audit_creation_method	'MofGen! by Chris Wilmer'
_symmetry_space_group_name_H-M	'P1'
_symmetry_Int_Tables_number	1
_symmetry_cell_setting	triclinic
loop_
_symmetry_equiv_pos_as_xyz
  x,y,z
_cell_length_a	19.288840
_cell_length_b	19.288865
_cell_length_c	9.130313
_cell_angle_alpha	89.990258
_cell_angle_beta	89.989255
_cell_angle_gamma	83.131131
loop_
_atom_site_label
_atom_site_type_symbol
_atom_site_fract_x
_atom_site_fract_y
_atom_site_fract_z
O1	O	0.921358	0.086565	-0.122061
O2	O	0.719095	0.098272	-0.122012
O3	O	0.826071	-0.008713	-0.122009
O4	O	0.814382	0.193549	-0.122064
O5	O	0.826064	-0.008716	0.121590
O6	O	0.719088	0.098269	0.121587
O7	O	0.921351	0.086562	0.121538
Cu8	Cu	0.820219	0.092415	0.143805
Cu9	Cu	0.820228	0.092418	-0.144279
O10	O	0.814375	0.193546	0.121535
C11	C	0.693215	0.097896	-0.000206
C12	C	0.616110	0.096774	-0.000186
C13	C	0.579911	0.096237	-0.132976
C14	C	0.507464	0.095175	-0.132993
C15	C	0.471221	0.094636	-0.000214
C16	C	0.507429	0.095178	0.132593
C17	C	0.579874	0.096247	0.132607
C18	C	0.361891	0.052257	0.101505
C19	C	0.289448	0.051184	0.101485
C20	C	0.247778	0.091342	-0.000251
C21	C	0.278560	0.132565	-0.101993
C22	C	0.351005	0.133634	-0.101979
C23	C	0.392667	0.093477	-0.000214
C24	C	0.133023	0.089654	-0.133069
C25	C	0.060574	0.088596	-0.133081
C26	C	0.060541	0.088592	0.132509
C27	C	0.132988	0.089657	0.132517
C28	C	0.169225	0.090185	-0.000276
C29	C	0.825692	-0.034591	-0.000205
C30	C	0.824563	-0.111694	-0.000192
C31	C	0.887331	-0.156396	-0.000200
C32	C	0.886270	-0.228843	-0.000223
C33	C	0.822438	-0.256585	-0.000208
C34	C	0.759661	-0.211873	-0.000209
C35	C	0.760723	-0.139428	-0.000200
C36	C	0.772255	-0.364869	0.085131
C37	C	0.771195	-0.437313	0.085132
C38	C	0.819158	-0.480030	-0.000240
C39	C	0.868192	-0.450295	-0.085594
C40	C	0.869255	-0.377850	-0.085586
C41	C	0.821278	-0.335139	-0.000218
C42	C	0.880781	-0.603288	-0.000275
C43	C	0.879717	-0.675736	-0.000307
C44	C	0.753106	-0.658764	-0.000278
C45	C	0.754171	-0.586318	-0.000261
C46	C	0.818010	-0.558584	-0.000252
C47	C	0.947232	0.086937	-0.000271
C48	C	1.024336	0.088059	-0.000300
C49	C	0.814755	0.219424	-0.000272
C50	C	0.815884	0.296527	-0.000295
N51	N	0.820218	0.092412	0.346428
N52	N	0.820234	0.092416	-0.346902
C53	C	0.867603	0.045059	0.423081
C54	C	0.867609	0.045059	0.576418
C55	C	0.772844	0.139771	0.576434
C56	C	0.772835	0.139767	0.423100
H57	H	0.031033	0.088158	0.240620
H58	H	0.162462	0.090090	0.240649
H59	H	0.707687	-0.234465	-0.000200
C60	C	0.987318	-0.712481	-0.125535
C61	C	0.948720	-0.724873	-0.000318
H62	H	1.029920	-0.742814	-0.125533
H63	H	0.961142	-0.720862	-0.210470
H64	H	0.997079	-0.665362	-0.125507
H65	H	0.938955	-0.771991	-0.000351
H66	H	0.974902	-0.716497	0.084639
C67	C	0.307485	-0.029136	0.302640
C68	C	0.255615	0.005875	0.213320
H69	H	0.286597	-0.057104	0.371689
H70	H	0.339681	-0.058051	0.243833
H71	H	0.331346	0.004005	0.352993
H72	H	0.231757	-0.027266	0.162959
H73	H	0.223407	0.034792	0.272135
H74	H	0.733196	-0.330094	0.154660
H75	H	0.907248	-0.485074	-0.155113
H76	H	0.395813	0.019554	0.184358
C77	C	0.681919	-0.494995	-0.125461
C78	C	0.685171	-0.537178	-0.000239
H79	H	0.639317	-0.464662	-0.125452
H80	H	0.720082	-0.468108	-0.125453
H81	H	0.684140	-0.523608	-0.210402
H82	H	0.682955	-0.508564	0.084703
H83	H	0.646998	-0.564067	-0.000233
H84	H	0.731265	-0.461517	0.154624
H85	H	0.906193	0.006499	0.638825
H86	H	0.709608	-0.103031	-0.000193
H87	H	0.906184	0.006498	0.360658
C88	C	0.652476	0.180867	0.623722
C89	C	0.720765	0.191823	0.660725
H90	H	0.620326	0.213000	0.675767
H91	H	0.645691	0.187646	0.521445
H92	H	0.645095	0.134526	0.648885
H93	H	0.728148	0.238162	0.635552
H94	H	0.727553	0.185050	0.763025
C95	C	0.731660	0.260125	0.375842
C96	C	0.720748	0.191824	0.338831
H97	H	0.699506	0.292258	0.323810
H98	H	0.724882	0.266902	0.478122
H99	H	0.777992	0.267537	0.350671
H100	H	0.674418	0.184410	0.364012
H101	H	0.727520	0.185044	0.236528
H102	H	0.609347	0.096685	0.240743
H103	H	0.932763	-0.580706	-0.000275
C104	C	0.644871	-0.666587	-0.125486
C105	C	0.682938	-0.689249	-0.000269
H106	H	0.601553	-0.685413	-0.125486
H107	H	0.636523	-0.617049	-0.125463
H108	H	0.670718	-0.681941	-0.210431
H109	H	0.657093	-0.673890	0.084676
H110	H	0.691284	-0.738797	-0.000278
H111	H	0.609410	0.096667	-0.241106
H112	H	0.477984	0.094738	-0.241130
H113	H	0.376065	0.167200	-0.184818
H114	H	0.244633	0.165268	-0.184832
H115	H	0.031101	0.088163	-0.241219
C116	C	0.147360	0.149695	-0.359434
C117	C	0.172862	0.090250	-0.279025
H118	H	0.171958	0.150066	-0.449535
H119	H	0.099040	0.148979	-0.378451
H120	H	0.153798	0.190358	-0.304852
H121	H	0.166419	0.049587	-0.333602
H122	H	0.221193	0.090960	-0.260012
C123	C	0.493108	0.035147	0.358977
C124	C	0.467596	0.094584	0.278550
H125	H	0.468519	0.034786	0.449091
H126	H	0.486670	-0.005517	0.304427
H127	H	0.541434	0.035870	0.377977
H128	H	0.419270	0.093858	0.259540
H129	H	0.474028	0.135258	0.333112
H130	H	0.909179	-0.353643	-0.155087
C131	C	1.012373	-0.180454	-0.000222
C132	C	0.957503	-0.125912	-0.000206
H133	H	1.055693	-0.161632	-0.000237
H134	H	1.009321	-0.208363	0.084719
H135	H	1.009323	-0.208350	-0.085178
H136	H	0.960550	-0.098019	0.084756
H137	H	0.960556	-0.097991	-0.085157
H138	H	0.937386	-0.265246	-0.000235
