data_functionalizedCrystal
_audit_creation_method	'MofGen! by Chris Wilmer'
_symmetry_space_group_name_H-M	'P1'
_symmetry_Int_Tables_number	1
_symmetry_cell_setting	triclinic
loop_
_symmetry_equiv_pos_as_xyz
  x,y,z
_cell_length_a	10.908878
_cell_length_b	15.995362
_cell_length_c	15.072220
_cell_angle_alpha	90.004258
_cell_angle_beta	90.011353
_cell_angle_gamma	108.208915
loop_
_atom_site_label
_atom_site_type_symbol
_atom_site_fract_x
_atom_site_fract_y
_atom_site_fract_z
O1	O	1.703861	0.129329	0.073778
O2	O	1.330002	0.063944	0.073777
O3	O	1.527143	0.219945	0.073783
O4	O	1.506720	-0.026672	0.073771
O5	O	1.527094	0.219932	-0.073782
O6	O	1.329953	0.063930	-0.073788
O7	O	1.703813	0.129315	-0.073788
Zn8	Zn	1.516875	0.096620	-0.097217
Zn9	Zn	1.516939	0.096639	0.097206
O10	O	1.506671	-0.026686	-0.073794
C11	C	1.282136	0.057827	-0.000006
C12	C	1.139585	0.039630	-0.000006
C13	C	1.526272	0.251015	0.000004
C14	C	1.523732	0.343611	0.000015
C15	C	1.090572	0.106028	-0.000002
C16	C	0.943238	0.087222	-0.000001
C17	C	1.514611	0.680087	0.000032
C18	C	1.374208	0.613103	0.000360
C19	C	1.376748	0.516767	0.000021
C20	C	1.519135	0.513157	0.000024
C21	C	1.588358	0.563869	-0.084239
C22	C	1.584825	0.660012	-0.084304
C23	C	1.587780	0.660790	0.083505
C24	C	1.587754	0.563842	0.084613
C25	C	1.521700	0.418817	0.000016
C26	C	1.512051	0.774428	0.000033
C27	C	1.751678	0.135432	-0.000003
C28	C	1.894229	0.153630	0.000002
N29	N	1.516841	0.096610	-0.229906
C30	C	1.507526	0.942240	0.000001
C31	C	1.510015	0.849633	0.000041
C32	C	1.516937	0.096642	-0.589107
C33	C	1.411096	0.013350	-0.551504
C34	C	1.411339	0.013134	-0.448678
C35	C	1.516888	0.096626	-0.410903
C36	C	1.650874	0.096201	-0.448196
C37	C	1.650281	0.095631	-0.551054
C38	C	1.489986	0.180728	-0.551203
C39	C	1.486911	0.179714	-0.448340
C40	C	1.516869	0.096620	-0.310190
C41	C	1.516965	0.096647	-0.689821
N42	N	1.516984	0.096658	0.229895
H43	H	1.157685	0.176797	0.000006
C44	C	1.048923	-0.055979	-0.000011
N45	N	0.980637	-0.127993	-0.000016
H46	H	1.675190	0.036256	-0.422430
H47	H	0.876128	0.016448	-0.000001
H48	H	1.311180	0.010619	-0.576265
H49	H	1.311744	0.010635	-0.423467
H50	H	0.961338	0.224404	0.000012
C51	C	1.594251	0.264168	-0.584059
N52	N	1.672786	0.327008	-0.608812
H53	H	1.541894	0.674944	0.147374
H54	H	1.691300	0.706965	0.084076
C55	C	1.303224	0.468134	0.081619
N56	N	1.247836	0.431505	0.143079
H57	H	1.318108	0.623826	0.060789
C58	C	1.434023	-0.071024	-0.586413
N59	N	1.451296	-0.134573	-0.612708
C60	C	1.682339	0.013546	-0.583458
N61	N	1.706476	-0.048286	-0.607861
H62	H	1.318317	0.624912	-0.059731
C63	C	1.302691	0.468804	-0.081727
N64	N	1.246909	0.432679	-0.143304
C65	C	1.759904	0.175763	-0.584658
N66	N	1.842485	0.236109	-0.609964
H67	H	1.687906	0.706613	-0.088123
H68	H	1.534303	0.671276	-0.147295
H69	H	1.692965	0.564309	-0.087371
C70	C	1.523346	0.516478	-0.168961
N71	N	1.474370	0.480784	-0.232772
C72	C	1.519446	0.517475	0.168829
N73	N	1.467983	0.482552	0.232260
C74	C	1.728038	0.562630	0.091487
N75	N	1.833708	0.561721	0.096655
C76	C	1.434597	-0.071688	-0.415427
N77	N	1.452123	-0.135577	-0.390383
H78	H	1.731515	0.156032	-0.423724
H79	H	1.394405	0.185768	-0.577193
C80	C	1.353753	0.180735	-0.415420
N81	N	1.253457	0.181501	-0.390620
C82	C	1.584310	0.265424	-0.413624
N83	N	1.657689	0.329981	-0.387484
