data_functionalizedCrystal
_audit_creation_method	'MofGen! by Chris Wilmer'
_symmetry_space_group_name_H-M	'P1'
_symmetry_Int_Tables_number	1
_symmetry_cell_setting	triclinic
loop_
_symmetry_equiv_pos_as_xyz
  x,y,z
_cell_length_a	16.992694
_cell_length_b	14.044220
_cell_length_c	15.455313
_cell_angle_alpha	92.908275
_cell_angle_beta	87.142206
_cell_angle_gamma	91.928550
loop_
_atom_site_label
_atom_site_type_symbol
_atom_site_fract_x
_atom_site_fract_y
_atom_site_fract_z
O1	O	1.057683	0.198159	-0.072025
O2	O	0.829244	0.195941	-0.072050
O3	O	0.940034	0.058806	-0.072029
O4	O	0.946893	0.335294	-0.072046
O5	O	0.933696	0.066614	0.072232
O6	O	0.822906	0.203749	0.072211
O7	O	1.051345	0.205967	0.072236
Cu8	Cu	0.936547	0.205571	0.085396
Cu9	Cu	0.944042	0.196337	-0.085210
O10	O	0.940555	0.343102	0.072215
C11	C	0.796663	0.196993	0.000077
C12	C	0.709024	0.188484	0.000068
C13	C	0.664526	0.270581	0.000063
C14	C	0.582179	0.262581	0.000076
C15	C	0.544332	0.172483	0.000086
C16	C	0.588836	0.090381	0.000093
C17	C	0.671181	0.098382	0.000087
C18	C	0.298414	0.139322	0.000112
C19	C	0.216063	0.131327	0.000115
C20	C	0.209411	0.303528	0.000100
C21	C	0.291759	0.311521	0.000088
C22	C	0.336255	0.229419	0.000099
N23	N	0.460161	0.164304	0.000096
N24	N	0.420425	0.237599	0.000096
C25	C	0.933863	0.027168	0.000101
C26	C	0.924909	-0.078736	0.000101
C27	C	0.908540	-0.272638	0.000087
C28	C	0.972046	-0.325460	0.000092
C29	C	0.962938	-0.433354	0.000084
C30	C	0.917647	-0.164734	0.000095
C31	C	1.083926	0.204915	0.000107
C32	C	1.171565	0.213424	0.000111
C33	C	0.946726	0.374740	0.000083
C34	C	0.955680	0.480644	0.000077
N35	N	0.931281	0.212065	0.205390
N36	N	0.949314	0.189836	-0.205204
C37	C	0.978368	0.153829	0.250793
C38	C	0.974393	0.158750	0.341600
C39	C	0.923335	0.221911	0.387003
C40	C	0.876243	0.280149	0.341594
C41	C	0.880214	0.275223	0.250788
C42	C	0.906193	0.243148	0.658581
C43	C	0.902227	0.248072	0.749393
C44	C	1.000377	0.126671	0.749394
C45	C	1.004347	0.121754	0.658586
C46	C	0.957251	0.179989	0.613185
N47	N	0.919273	0.226945	0.479822
N48	N	0.961310	0.174950	0.520367
H49	H	0.545952	0.329433	0.000072
H50	H	1.045922	0.070323	0.621622
O51	O	0.835464	-0.315197	0.000042
C52	C	0.778200	-0.244838	0.000066
H53	H	0.806121	-0.177066	-0.027242
H54	H	0.727968	-0.271813	-0.041819
H55	H	0.754204	-0.228742	0.069275
H56	H	0.185251	0.057956	0.000123
H57	H	1.019948	0.102401	0.213833
O58	O	1.045106	-0.282850	0.000227
C59	C	1.082992	-0.306637	0.074960
H60	H	1.055685	-0.375906	0.099855
H61	H	1.148427	-0.316236	0.058173
H62	H	1.075502	-0.247004	0.127281
H63	H	0.867847	0.290567	0.621622
O64	O	0.341601	0.059532	-0.000037
C65	C	0.326757	0.001146	-0.074736
H66	H	0.304467	0.046501	-0.126960
H67	H	0.383514	-0.034015	-0.099813
H68	H	0.280288	-0.056261	-0.057839
H69	H	1.012735	0.111329	0.378567
O70	O	0.328648	0.398966	0.000011
C71	C	0.410870	0.388423	0.000009
H72	H	0.426163	0.314027	-0.027267
H73	H	0.441866	0.444155	-0.041916
H74	H	0.431068	0.398561	0.069207
O75	O	1.046075	0.069959	0.793404
C76	C	1.027615	-0.026555	0.771246
H77	H	1.000124	-0.032330	0.705317
H78	H	1.083718	-0.069131	0.768141
H79	H	0.984076	-0.056247	0.822360
H80	H	0.860647	0.299509	0.786355
O81	O	0.552198	0.002788	0.000139
C82	C	0.609136	-0.067958	0.000119
H83	H	0.665661	-0.035536	0.027429
H84	H	0.585836	-0.128222	0.042003
H85	H	0.621951	-0.097323	-0.069090
O86	O	0.166067	0.383183	0.000134
C87	C	0.085272	0.356806	0.000120
H88	H	0.075688	0.283197	0.027436
H89	H	0.050019	0.411020	0.042003
H90	H	0.064776	0.354873	-0.069088
O91	O	0.826712	0.341482	0.385829
C92	C	0.833290	0.333329	0.475713
H93	H	0.892929	0.303178	0.488112
H94	H	0.828056	0.406698	0.510211
H95	H	0.784205	0.283522	0.501498
O96	O	0.714500	0.018696	-0.000028
C97	C	0.765590	0.014114	-0.074755
H98	H	0.776125	0.088718	-0.099671
H99	H	0.824168	-0.015787	-0.057951
H100	H	0.737790	-0.034292	-0.127067
O101	O	0.834561	0.331935	0.206719
C102	C	0.852984	0.428451	0.228905
H103	H	0.915037	0.435099	0.253857
H104	H	0.849870	0.472342	0.169180
H105	H	0.808943	0.455960	0.281615
O106	O	0.701160	0.358178	0.000091
C107	C	0.644223	0.428920	0.000069
H108	H	0.585305	0.399453	0.027387
H109	H	0.663852	0.493716	0.041946
H110	H	0.637471	0.450796	-0.069141
