data_functionalizedCrystal
_audit_creation_method	'MofGen! by Chris Wilmer'
_symmetry_space_group_name_H-M	'P1'
_symmetry_Int_Tables_number	1
_symmetry_cell_setting	triclinic
loop_
_symmetry_equiv_pos_as_xyz
  x,y,z
_cell_length_a	10.967926
_cell_length_b	11.026607
_cell_length_c	16.776229
_cell_angle_alpha	89.996140
_cell_angle_beta	102.122121
_cell_angle_gamma	96.380754
loop_
_atom_site_label
_atom_site_type_symbol
_atom_site_fract_x
_atom_site_fract_y
_atom_site_fract_z
O1	O	1.693942	0.170498	0.166411
O2	O	2.193942	0.670498	0.666411
O3	O	1.334324	0.186826	0.117009
O4	O	1.834324	0.686826	0.617009
O5	O	1.484328	0.001761	0.137618
O6	O	1.984328	0.501761	0.637618
O7	O	1.543938	0.355563	0.145801
O8	O	2.043938	0.855563	0.645801
O9	O	1.484300	0.001750	0.270191
O10	O	1.984300	0.501750	0.770191
O11	O	1.334296	0.186814	0.249582
O12	O	1.834296	0.686814	0.749582
O13	O	1.693914	0.170487	0.298984
O14	O	2.193914	0.670487	0.798984
Zn15	Zn	1.514101	0.178649	0.295331
Zn16	Zn	2.014101	0.678649	0.795331
Zn17	Zn	1.514138	0.178664	0.120661
Zn18	Zn	2.014138	0.678664	0.620661
O19	O	1.543910	0.355551	0.278374
O20	O	2.043910	0.855551	0.778374
C21	C	1.287556	0.185633	0.176872
C22	C	1.787556	0.685633	0.676872
C23	C	1.148239	0.182081	0.157734
C24	C	1.648239	0.682081	0.657734
C25	C	1.086113	0.180492	0.217878
C26	C	1.586113	0.680492	0.717878
C27	C	0.942122	0.176821	0.198099
C28	C	1.442122	0.676821	0.698099
C29	C	1.473318	-0.043547	0.202393
C30	C	1.973318	0.456453	0.702393
C31	C	1.440535	-0.178533	0.197887
C32	C	1.940535	0.321467	0.697887
C33	C	1.531052	-0.251587	0.210320
C34	C	2.031052	0.248413	0.710320
C35	C	1.497173	-0.391103	0.205663
C36	C	1.997173	0.108897	0.705663
C37	C	1.740682	0.171680	0.239118
C38	C	2.240682	0.671680	0.739118
C39	C	1.879999	0.175231	0.258252
C40	C	2.379999	0.675231	0.758252
C41	C	1.554921	0.400859	0.213598
C42	C	2.054921	0.900859	0.713598
C43	C	1.587703	0.535846	0.218099
C44	C	2.087703	1.035846	0.718099
N45	N	1.514084	0.178637	0.414540
N46	N	2.014084	0.678637	0.914540
N47	N	1.514162	0.178666	0.001453
N48	N	2.014162	0.678666	0.501453
C49	C	1.580540	0.096725	0.465388
C50	C	2.080540	0.596725	0.965388
C51	C	1.580546	0.096724	0.548841
C52	C	2.080546	0.596724	1.048841
C53	C	1.514104	0.178642	0.581446
C54	C	2.014104	0.678642	1.081446
C55	C	1.447641	0.260558	0.530591
C56	C	1.947641	0.760558	1.030591
C57	C	1.447628	0.260553	0.447139
C58	C	1.947628	0.760553	0.947139
C59	C	1.447691	0.260583	0.867146
C60	C	1.947691	0.760583	1.367146
C61	C	1.447713	0.260585	0.950605
C62	C	1.947713	0.760585	1.450605
C63	C	1.580610	0.096754	0.968848
C64	C	2.080610	0.596754	1.468848
C65	C	1.580597	0.096748	0.885395
C66	C	2.080597	0.596748	1.385395
C67	C	1.514129	0.178660	0.834547
C68	C	2.014129	0.678660	1.334547
C69	C	1.514120	0.178658	0.744058
C70	C	2.014120	0.678658	1.244058
C71	C	1.514119	0.178651	0.671935
C72	C	2.014119	0.678651	1.171935
H73	H	1.633629	-0.210843	0.224417
H74	H	2.133629	0.289157	0.724417
H75	H	1.394589	-0.431841	0.191566
H76	H	1.894589	0.068159	0.691566
Br77	Br	1.357490	0.371747	0.798143
Br78	Br	1.857490	0.871747	1.298143
H79	H	1.094827	0.180721	0.091600
H80	H	1.594827	0.680721	0.591600
Br81	Br	1.758686	-0.396269	0.241580
Br82	Br	2.258686	0.103731	0.741580
H83	H	1.337958	-0.219277	0.183790
H84	H	1.837958	0.280723	0.683790
Br85	Br	1.670728	-0.014448	0.421149
Br86	Br	2.170728	0.485552	0.921149
Br87	Br	1.670731	-0.014449	0.617851
Br88	Br	2.170731	0.485551	1.117851
H89	H	1.634705	0.030047	0.858852
H90	H	2.134705	0.530047	1.358852
H91	H	1.139524	0.181841	0.284012
H92	H	1.639524	0.681841	0.784012
Br93	Br	1.670818	-0.014416	1.037859
Br94	Br	2.170818	0.485584	1.537859
H95	H	1.393604	0.327295	0.977149
H96	H	1.893604	0.827295	1.477149
H97	H	0.888715	0.175461	0.131960
H98	H	1.388715	0.675461	0.631960
Br99	Br	0.968998	0.177470	0.368489
Br100	Br	1.468998	0.677470	0.868489
H101	H	1.393535	0.327254	0.557142
H102	H	1.893535	0.827254	1.057142
H103	H	1.393511	0.327252	0.405738
H104	H	1.893511	0.827252	0.905738
