data_functionalizedCrystal
_audit_creation_method	'MofGen! by Chris Wilmer'
_symmetry_space_group_name_H-M	'P1'
_symmetry_Int_Tables_number	1
_symmetry_cell_setting	triclinic
loop_
_symmetry_equiv_pos_as_xyz
  x,y,z
_cell_length_a	15.944499
_cell_length_b	11.792241
_cell_length_c	10.868271
_cell_angle_alpha	89.999844
_cell_angle_beta	89.998169
_cell_angle_gamma	96.164488
loop_
_atom_site_label
_atom_site_type_symbol
_atom_site_fract_x
_atom_site_fract_y
_atom_site_fract_z
O1	O	0.115126	-1.505932	0.102193
O2	O	0.615126	-1.005932	0.602193
O3	O	0.126992	-1.175490	0.102221
O4	O	0.626992	-0.675490	0.602221
O5	O	-0.001178	-1.349765	0.102208
O6	O	0.498822	-0.849765	0.602208
O7	O	0.243296	-1.331657	0.102206
O8	O	0.743296	-0.831657	0.602206
O9	O	-0.001174	-1.349749	-0.102436
O10	O	0.498826	-0.849749	0.397564
O11	O	0.126996	-1.175474	-0.102424
O12	O	0.626996	-0.675474	0.397576
O13	O	0.115130	-1.505916	-0.102451
O14	O	0.615130	-1.005916	0.397549
Zn15	Zn	0.121064	-1.340693	-0.134929
Zn16	Zn	0.621064	-0.840693	0.365071
Zn17	Zn	0.121058	-1.340713	0.134699
Zn18	Zn	0.621058	-0.840713	0.634699
O19	O	0.243300	-1.331641	-0.102439
O20	O	0.743300	-0.831641	0.397561
C21	C	0.126248	-1.133197	-0.000098
C22	C	0.626248	-0.633197	0.499902
C23	C	0.124017	-1.007203	-0.000087
C24	C	0.624017	-0.507203	0.499913
C25	C	-0.032474	-1.349016	-0.000111
C26	C	0.467526	-0.849016	0.499889
C27	C	-0.125732	-1.346793	-0.000101
C28	C	0.374268	-0.846793	0.499899
C29	C	0.115874	-1.548208	-0.000130
C30	C	0.615874	-1.048208	0.499870
C31	C	0.118104	-1.674203	-0.000133
C32	C	0.618104	-1.174203	0.499867
C33	C	-0.416811	-1.448042	-0.000116
C34	C	0.083189	-0.948042	0.499884
C35	C	-0.356022	-1.395403	-0.101017
C36	C	0.143978	-0.895403	0.398983
C37	C	-0.461405	-1.338718	-0.000115
C38	C	0.038595	-0.838718	0.499885
C39	C	-0.356032	-1.395389	0.100747
C40	C	0.143968	-0.895389	0.600747
C41	C	-0.296479	-1.342691	-0.000106
C42	C	0.203521	-0.842691	0.499894
C43	C	-0.401844	-1.286048	-0.101099
C44	C	0.098156	-0.786048	0.398901
C45	C	-0.401861	-1.286049	0.100756
C46	C	0.098139	-0.786049	0.600756
C47	C	-0.341089	-1.233330	-0.000170
C48	C	0.158911	-0.733330	0.499830
C49	C	-0.556416	-1.336432	-0.000121
C50	C	-0.056416	-0.836432	0.499879
C51	C	-0.201469	-1.344969	-0.000109
C52	C	0.298531	-0.844969	0.499891
C53	C	0.274596	-1.332390	-0.000117
C54	C	0.774596	-0.832390	0.499883
C55	C	0.367854	-1.334613	-0.000118
C56	C	0.867854	-0.834613	0.499882
N57	N	0.121067	-1.340687	-0.318943
N58	N	0.621067	-0.840687	0.181057
C59	C	0.119915	-0.776525	-0.000122
C60	C	0.619915	-0.276525	0.499878
C61	C	0.122195	-0.904891	-0.000103
C62	C	0.622195	-0.404891	0.499897
C63	C	0.121067	-1.340695	-0.430281
C64	C	0.621067	-0.840695	0.069719
C65	C	0.121059	-1.340710	-0.569959
C66	C	0.621059	-0.840710	-0.069959
N67	N	0.121048	-1.340728	0.318713
N68	N	0.621048	-0.840728	0.818713
H69	H	-0.449732	-1.538771	-0.000221
H70	H	0.050268	-1.038771	0.499779
H71	H	-0.422183	-1.239853	0.186069
H72	H	0.077817	-0.739853	0.686069
H73	H	-0.335721	-1.441637	-0.186326
H74	H	0.164279	-0.941637	0.313674
H75	H	-0.422032	-1.239839	-0.186491
H76	H	0.077968	-0.739839	0.313509
H77	H	-0.308316	-1.142523	-0.000221
H78	H	0.191684	-0.642523	0.499779
H79	H	-0.335745	-1.441655	0.186042
H80	H	0.164255	-0.941655	0.686042
