data_functionalizedCrystal
_audit_creation_method	'MofGen! by Chris Wilmer'
_symmetry_space_group_name_H-M	'P1'
_symmetry_Int_Tables_number	1
_symmetry_cell_setting	triclinic
loop_
_symmetry_equiv_pos_as_xyz
  x,y,z
_cell_length_a	16.974885
_cell_length_b	10.540539
_cell_length_c	16.053833
_cell_angle_alpha	92.858123
_cell_angle_beta	96.535644
_cell_angle_gamma	83.957898
loop_
_atom_site_label
_atom_site_type_symbol
_atom_site_fract_x
_atom_site_fract_y
_atom_site_fract_z
O1	O	1.050111	0.161837	0.001463
O2	O	1.550111	0.661837	0.501463
O3	O	0.819349	0.181384	-0.014116
O4	O	1.319349	0.681384	0.485884
O5	O	0.939995	-0.013157	-0.005970
O6	O	1.439995	0.486843	0.494030
O7	O	0.929465	0.356379	-0.006683
O8	O	1.429465	0.856379	0.493317
O9	O	0.946015	-0.003599	0.133294
O10	O	1.446015	0.496401	0.633294
O11	O	0.825369	0.190942	0.125148
O12	O	1.325369	0.690942	0.625148
O13	O	1.056131	0.171395	0.140727
O14	O	1.556131	0.671395	0.640727
Zn15	Zn	0.941706	0.182686	0.155049
Zn16	Zn	1.441706	0.682686	0.655049
Zn17	Zn	0.933774	0.170093	-0.028438
Zn18	Zn	1.433774	0.670093	0.471562
O19	O	0.935485	0.365936	0.132581
O20	O	1.435485	0.865936	0.632581
C21	C	0.792810	0.185244	0.053521
C22	C	1.292810	0.685244	0.553521
C23	C	0.704764	0.182488	0.047577
C24	C	1.204764	0.682488	0.547577
C25	C	0.208806	0.166375	0.005912
C26	C	0.708806	0.666375	0.505912
C27	C	0.291535	0.168964	0.011508
C28	C	0.791535	0.668964	0.511508
C29	C	0.336172	0.175479	0.090220
C30	C	0.836172	0.675479	0.590220
C31	C	0.298077	0.179390	0.163340
C32	C	0.798077	0.679390	0.663340
C33	C	0.215350	0.176792	0.157743
C34	C	0.715350	0.676792	0.657743
C35	C	0.583942	0.183801	0.115100
C36	C	1.083942	0.683801	0.615100
C37	C	0.666674	0.186404	0.120692
C38	C	1.166674	0.686404	0.620692
C39	C	0.660126	0.175975	-0.031141
C40	C	1.160126	0.675975	0.468859
C41	C	0.577397	0.173385	-0.036731
C42	C	1.077397	0.673385	0.463269
C43	C	0.539310	0.177290	0.036389
C44	C	1.039310	0.677290	0.536389
N45	N	0.420735	0.178130	0.095942
N46	N	0.920735	0.678130	0.595942
N47	N	0.454750	0.174630	0.030666
N48	N	0.954750	0.674630	0.530666
C49	C	0.942215	-0.055672	0.063607
C50	C	1.442215	0.444328	0.563607
C51	C	0.939853	-0.196593	0.063443
C52	C	1.439853	0.303407	0.563443
C53	C	0.849313	-0.378986	0.057019
C54	C	1.349313	0.121014	0.557019
C55	C	0.851722	-0.232374	0.057494
C56	C	1.351722	0.267626	0.557494
C57	C	0.985703	-0.253287	0.145833
C58	C	1.485703	0.246713	0.645833
C59	C	0.982698	-0.399792	0.145697
C60	C	1.482698	0.100208	0.645697
C61	C	0.977644	-0.411200	-0.012552
C62	C	1.477644	0.088800	0.487448
C63	C	0.978411	-0.264300	-0.013548
C64	C	1.478411	0.235700	0.486452
C65	C	1.082670	0.167535	0.073088
C66	C	1.582670	0.667535	0.573088
C67	C	1.170716	0.170290	0.079026
C68	C	1.670716	0.670290	0.579026
C69	C	0.933265	0.408451	0.063002
C70	C	1.433265	0.908451	0.563002
C71	C	0.935627	0.549372	0.063160
C72	C	1.435627	1.049372	0.563160
N73	N	0.947125	0.191279	0.280274
N74	N	1.447125	0.691279	0.780274
N75	N	0.928362	0.161490	-0.153663
N76	N	1.428362	0.661490	0.346337
C77	C	0.974994	0.235651	0.805785
C78	C	1.474994	0.735651	1.305785
C79	C	0.971207	0.229631	0.718123
C80	C	1.471207	0.729631	1.218123
C81	C	0.920792	0.149441	0.671015
C82	C	1.420792	0.649441	1.171015
C83	C	0.874154	0.075277	0.711573
C84	C	1.374154	0.575277	1.211573
C85	C	0.877937	0.081305	0.799233
C86	C	1.377937	0.581305	1.299233
C87	C	0.904270	0.123143	0.408492
C88	C	1.404270	0.623143	0.908492
C89	C	0.900493	0.117118	0.320827
C90	C	1.400493	0.617118	0.820827
C91	C	0.997545	0.271474	0.327382
C92	C	1.497545	0.771474	0.827382
C93	C	1.001327	0.277489	0.415044
C94	C	1.501327	0.777489	0.915044
C95	C	0.954686	0.203330	0.455594
C96	C	1.454686	0.703330	0.955594
N97	N	0.916922	0.143282	0.581411
N98	N	1.416922	0.643282	1.081411
N99	N	0.958553	0.209497	0.545197
N100	N	1.458553	0.709497	1.045197
H101	H	0.541059	0.168079	-0.100827
H102	H	1.041059	0.668079	0.399173
H103	H	0.953923	-0.423546	0.203029
H104	H	1.453923	0.076454	0.703029
H105	H	0.691146	0.172794	-0.090671
H106	H	1.191146	0.672794	0.409329
H107	H	0.552943	0.186963	0.174640
H108	H	1.052943	0.686963	0.674640
H109	H	1.009181	0.290019	0.685109
H110	H	1.509181	0.790019	1.185109
H111	H	0.820584	-0.186307	0.112328
H112	H	1.320584	0.313693	0.612328
H113	H	1.035516	0.331852	0.294356
H114	H	1.535516	0.831852	0.794356
H115	H	1.042382	0.342786	0.453393
H116	H	1.542382	0.842786	0.953393
H117	H	0.812034	-0.411094	-0.002361
H118	H	1.312034	0.088906	0.497639
H119	H	0.866295	0.062753	0.441498
H120	H	1.366295	0.562753	0.941498
H121	H	0.833101	0.009990	0.673211
H122	H	1.333101	0.509990	1.173211
H123	H	0.859434	0.051819	0.282473
H124	H	1.359434	0.551819	0.782473
H125	H	0.703016	0.191717	0.184792
H126	H	1.203016	0.691717	0.684792
H127	H	1.042457	-0.241157	-0.014013
H128	H	1.542457	0.258843	0.485987
H129	H	0.839962	0.020918	0.832250
H130	H	1.339962	0.520918	1.332250
H131	H	0.322544	0.165768	-0.048030
H132	H	0.822544	0.665768	0.451970
H133	H	1.046236	-0.448252	0.153584
H134	H	1.546236	0.051748	0.653584
H135	H	0.334429	0.184686	0.227430
H136	H	0.834429	0.684686	0.727430
H137	H	0.958799	-0.206283	0.203025
H138	H	1.458799	0.293717	0.703025
H139	H	0.184338	0.179993	0.217281
H140	H	0.684338	0.679993	0.717281
H141	H	0.815885	-0.193294	-0.001767
H142	H	1.315885	0.306706	0.498233
H143	H	0.172467	0.161079	-0.058184
H144	H	0.672467	0.661079	0.441816
H145	H	0.817093	-0.404897	0.111389
H146	H	1.317093	0.095103	0.611389
H147	H	0.944835	-0.227117	-0.074475
H148	H	1.444835	0.272883	0.425525
H149	H	0.946515	-0.446557	-0.074754
H150	H	1.446515	0.053443	0.425246
H151	H	1.050551	-0.231485	0.153159
H152	H	1.550551	0.268515	0.653159
H153	H	1.016051	0.300946	0.844134
H154	H	1.516051	0.800946	1.344134
H155	H	1.041278	-0.459205	-0.008789
H156	H	1.541278	0.040795	0.491211
