data_functionalizedCrystal
_audit_creation_method	'MofGen! by Chris Wilmer'
_symmetry_space_group_name_H-M	'P1'
_symmetry_Int_Tables_number	1
_symmetry_cell_setting	triclinic
loop_
_symmetry_equiv_pos_as_xyz
  x,y,z
_cell_length_a	10.685904
_cell_length_b	17.640280
_cell_length_c	10.685880
_cell_angle_alpha	82.229567
_cell_angle_beta	80.918635
_cell_angle_gamma	82.258843
loop_
_atom_site_label
_atom_site_type_symbol
_atom_site_fract_x
_atom_site_fract_y
_atom_site_fract_z
Zn1	Zn	2.071661	-0.253144	-0.790888
Zn2	Zn	2.091041	-0.372506	-0.542894
Zn3	Zn	1.843111	-0.253185	-0.562347
Zn4	Zn	1.900616	-0.390728	-0.733341
O5	O	1.976607	-0.317391	-0.657368
O6	O	2.249574	-0.261335	-0.773934
O7	O	2.042198	-0.349069	-0.370127
O8	O	1.841252	-0.145664	-0.624889
O9	O	2.263813	-0.349029	-0.591734
O10	O	2.009166	-0.145634	-0.792796
O11	O	1.860045	-0.261405	-0.384419
O12	O	1.675397	-0.279074	-0.569088
O13	O	1.939261	-0.380086	-0.916323
O14	O	1.717646	-0.380126	-0.694716
O15	O	2.064926	-0.279004	-0.958602
O16	O	2.097958	-0.482439	-0.535933
O17	O	1.958053	-0.495826	-0.675854
C18	C	1.651057	-0.331582	-0.627769
C19	C	1.511794	-0.337673	-0.615131
C20	C	2.036385	-0.517010	-0.597568
C21	C	2.062077	-0.602405	-0.572038
C22	C	1.781986	-0.918240	-0.851821
C23	C	1.806126	-0.998479	-0.827792
C24	C	1.951923	-0.984476	-0.682263
C25	C	1.927800	-0.904234	-0.706285
C26	C	1.842829	-0.871122	-0.791064
C27	C	1.988643	-0.857116	-0.645528
C28	C	1.964516	-0.776881	-0.669543
C29	C	1.879547	-0.743763	-0.754315
C30	C	1.818703	-0.790887	-0.815079
C31	C	2.073606	-0.890229	-0.560743
C32	C	2.134449	-0.843112	-0.499986
C33	C	2.110330	-0.762875	-0.524008
C34	C	2.025360	-0.729757	-0.608780
C35	C	2.171174	-0.715751	-0.463244
C36	C	2.147048	-0.635516	-0.487259
C37	C	2.001234	-0.649522	-0.632795
C38	C	2.303429	-0.303145	-0.687083
C39	C	2.442701	-0.297074	-0.699746
C40	C	2.006346	-0.331573	-0.984200
C41	C	2.019019	-0.337616	-1.123476
C42	C	1.916633	-0.116992	-0.717432
C43	C	1.891075	-0.031594	-0.743027
C44	C	1.947040	-0.303206	-0.331831
C45	C	1.934545	-0.296935	-0.192642
H46	H	1.490093	-0.257651	-0.781855
H47	H	1.932052	-0.622562	-0.701841
C48	C	1.853001	-0.655507	-0.780739
H49	H	1.793676	-0.642537	-0.839923
H50	H	1.930345	-0.634728	-0.815271
H51	H	1.818578	-0.634809	-0.703318
C52	C	1.725254	-0.754459	-0.908353
H53	H	1.692471	-0.794011	-0.941104
H54	H	1.768705	-0.723412	-0.976710
H55	H	1.656921	-0.723488	-0.864774
C56	C	1.447791	-0.390923	-0.504203
H57	H	1.509808	-0.415573	-0.452808
H58	H	1.411140	-0.428725	-0.537426
H59	H	1.382944	-0.361316	-0.453922
H60	H	2.021102	-1.011447	-0.613232
C61	C	1.823727	-0.243641	-1.128709
H62	H	1.772424	-0.218935	-1.190773
H63	H	1.857035	-0.205885	-1.092031
H64	H	1.773333	-0.273232	-1.063884
C65	C	2.129836	-0.390916	-1.187418
H66	H	2.124118	-0.388120	-1.275782
H67	H	2.125029	-0.442420	-1.148889
H68	H	2.208736	-0.375076	-1.177050
H69	H	1.756590	-1.036841	-0.877290
C70	C	1.688537	-0.881812	-0.945094
H71	H	1.655755	-0.921364	-0.977845
H72	H	1.731988	-0.850765	-1.013452
H73	H	1.620205	-0.850841	-0.901516
C74	C	2.213978	-0.583681	-0.420441
H75	H	2.187430	-0.531154	-0.446880
H76	H	2.303765	-0.593913	-0.442584
H77	H	2.192004	-0.593989	-0.330626
H78	H	2.093251	-0.955563	-0.541196
C79	C	2.227918	-0.879539	-0.406743
H80	H	2.233582	-0.934073	-0.401148
H81	H	2.198053	-0.863551	-0.324805
H82	H	2.309802	-0.863474	-0.436774
C83	C	2.264632	-0.752181	-0.369991
H84	H	2.270289	-0.806714	-0.364394
H85	H	2.234758	-0.736190	-0.288055
H86	H	2.346520	-0.736120	-0.400012
