data_functionalizedCrystal
_audit_creation_method	'MofGen! by Chris Wilmer'
_symmetry_space_group_name_H-M	'P1'
_symmetry_Int_Tables_number	1
_symmetry_cell_setting	triclinic
loop_
_symmetry_equiv_pos_as_xyz
  x,y,z
_cell_length_a	16.109302
_cell_length_b	14.853559
_cell_length_c	14.586319
_cell_angle_alpha	89.998399
_cell_angle_beta	89.994552
_cell_angle_gamma	83.546617
loop_
_atom_site_label
_atom_site_type_symbol
_atom_site_fract_x
_atom_site_fract_y
_atom_site_fract_z
O1	O	1.103290	0.115884	-0.076277
O2	O	1.436623	0.449218	0.257056
O3	O	1.769957	0.782551	0.590390
O4	O	0.861248	0.130305	-0.076269
O5	O	1.194581	0.463638	0.257064
O6	O	1.527915	0.796972	0.590397
O7	O	0.988738	-0.008146	-0.076272
O8	O	1.322071	0.325187	0.257061
O9	O	1.655405	0.658520	0.590394
O10	O	0.975800	0.254336	-0.076274
O11	O	1.309133	0.587669	0.257059
O12	O	1.642467	0.921002	0.590393
O13	O	0.988729	-0.008148	0.076208
O14	O	1.322062	0.325185	0.409542
O15	O	1.655396	0.658518	0.742875
O16	O	0.861239	0.130303	0.076212
O17	O	1.194572	0.463636	0.409545
O18	O	1.527906	0.796969	0.742878
O19	O	1.103281	0.115882	0.076204
O20	O	1.436614	0.449216	0.409537
O21	O	1.769948	0.782549	0.742870
Cu22	Cu	0.982259	0.123092	0.090130
Cu23	Cu	1.315593	0.456426	0.423464
Cu24	Cu	1.648926	0.789759	0.756797
Cu25	Cu	0.982270	0.123095	-0.090196
Cu26	Cu	1.315603	0.456428	0.243137
Cu27	Cu	1.648936	0.789761	0.576471
O28	O	0.975791	0.254333	0.076207
O29	O	1.309124	0.587667	0.409540
O30	O	1.642458	0.921000	0.742874
C31	C	0.830268	0.129720	-0.000028
C32	C	1.163601	0.463053	0.333305
C33	C	1.496934	0.796386	0.666639
C34	C	0.737970	0.127968	-0.000025
C35	C	1.071303	0.461301	0.333308
C36	C	1.404637	0.794635	0.666642
C37	C	0.525619	0.123917	0.083083
C38	C	0.858952	0.457250	0.416416
C39	C	1.192285	0.790583	0.749750
C40	C	0.438896	0.122261	0.083080
C41	C	0.772230	0.455594	0.416413
C42	C	1.105563	0.788928	0.749747
C43	C	0.438917	0.122268	-0.083163
C44	C	0.772250	0.455601	0.250170
C45	C	1.105583	0.788935	0.583504
C46	C	0.525638	0.123917	-0.083159
C47	C	0.858971	0.457250	0.250174
C48	C	1.192305	0.790584	0.583508
C49	C	0.568986	0.124746	-0.000033
C50	C	0.902320	0.458079	0.333300
C51	C	1.235653	0.791412	0.666634
C52	C	0.395543	0.121441	-0.000040
C53	C	0.728876	0.454775	0.333293
C54	C	1.062209	0.788108	0.666626
C55	C	0.301514	0.119646	-0.000044
C56	C	0.634848	0.452980	0.333289
C57	C	0.968181	0.786313	0.666622
C58	C	0.663021	0.126539	-0.000029
C59	C	0.996354	0.459873	0.333305
C60	C	1.329687	0.793206	0.666638
C61	C	0.988149	-0.041735	-0.000034
C62	C	1.321482	0.291598	0.333300
C63	C	1.654815	0.624931	0.666633
C64	C	0.986396	-0.141816	-0.000039
C65	C	1.319729	0.191517	0.333295
C66	C	1.653062	0.524850	0.666628
C67	C	0.978964	-0.564978	-0.083156
C68	C	1.312297	-0.231645	0.250177
C69	C	1.645631	0.101688	0.583511
C70	C	0.978954	-0.564975	0.083085
C71	C	1.312288	-0.231642	0.416418
C72	C	1.645621	0.101692	0.749751
C73	C	0.980608	-0.470945	0.083085
C74	C	1.313941	-0.137611	0.416419
C75	C	1.647275	0.195722	0.749752
C76	C	0.981439	-0.423926	-0.000036
C77	C	1.314772	-0.090593	0.333298
C78	C	1.648105	0.242740	0.666631
C79	C	0.980615	-0.470939	-0.083158
C80	C	1.313949	-0.137605	0.250176
C81	C	1.647282	0.195728	0.583509
C82	C	0.981423	-0.423924	0.166206
C83	C	1.314756	-0.090591	0.499539
C84	C	1.648090	0.242743	0.832872
C85	C	0.983076	-0.329888	0.166210
C86	C	1.316409	0.003446	0.499543
C87	C	1.649743	0.336779	0.832876
C88	C	0.983913	-0.282868	0.083088
C89	C	1.317246	0.050465	0.416421
C90	C	1.650579	0.383798	0.749754
C91	C	0.983090	-0.329887	-0.000038
C92	C	1.316424	0.003447	0.333296
C93	C	1.649757	0.336780	0.666629
C94	C	0.983921	-0.282868	-0.083159
C95	C	1.317254	0.050465	0.250175
C96	C	1.650588	0.383798	0.583508
C97	C	0.983104	-0.329886	-0.166285
C98	C	1.316438	0.003448	0.167048
C99	C	1.649771	0.336781	0.500382
C100	C	0.981452	-0.423919	-0.166280
C101	C	1.314785	-0.090586	0.167053
C102	C	1.648119	0.242747	0.500387
C103	C	0.985565	-0.188835	0.083082
C104	C	1.318898	0.144499	0.416416
C105	C	1.652232	0.477832	0.749749
C106	C	0.985572	-0.188829	-0.083161
C107	C	1.318906	0.144505	0.250173
C108	C	1.652239	0.477838	0.583506
C109	C	1.134261	0.116467	-0.000040
C110	C	1.467595	0.449801	0.333294
C111	C	1.800928	0.783134	0.666627
C112	C	1.226559	0.118219	-0.000048
C113	C	1.559892	0.451552	0.333285
C114	C	1.893226	0.784886	0.666618
C115	C	0.976380	0.287922	-0.000034
C116	C	1.309714	0.621256	0.333300
C117	C	1.643047	0.954589	0.666633
C118	C	0.978133	0.388004	-0.000035
C119	C	1.311467	0.721337	0.333299
C120	C	1.644800	1.054670	0.666632
N121	N	0.982258	0.123090	0.216962
N122	N	1.315591	0.456423	0.550295
N123	N	1.648925	0.789757	0.883629
N124	N	0.982278	0.123090	-0.217028
N125	N	1.315611	0.456423	0.116306
N126	N	1.648944	0.789757	0.449639
C127	C	1.038729	0.061804	0.451967
C128	C	1.372063	0.395138	0.785301
C129	C	1.705396	0.728471	1.118634
C130	C	1.038732	0.061802	0.547948
C131	C	1.372065	0.395136	0.881282
C132	C	1.705398	0.728469	1.214615
C133	C	0.925800	0.184378	0.547961
C134	C	1.259134	0.517712	0.881294
C135	C	1.592467	0.851045	1.214627
C136	C	0.925795	0.184376	0.451981
C137	C	1.259128	0.517709	0.785314
C138	C	1.592461	0.851042	1.118648
C139	C	0.982264	0.123090	0.403987
C140	C	1.315597	0.456423	0.737320
C141	C	1.648930	0.789756	1.070654
C142	C	0.982272	0.123090	0.595948
C143	C	1.315605	0.456424	0.929281
C144	C	1.648939	0.789757	1.262614
C145	C	0.982274	0.123088	0.700015
C146	C	1.315607	0.456422	1.033348
C147	C	1.648941	0.789755	1.366681
C148	C	0.982261	0.123090	0.299913
C149	C	1.315594	0.456423	0.633246
C150	C	1.648927	0.789757	0.966580
H151	H	0.403590	0.121586	0.150761
H152	H	0.736924	0.454919	0.484095
H153	H	1.070257	0.788253	0.817428
H154	H	0.879810	0.234282	0.412913
H155	H	1.213143	0.567615	0.746246
H156	H	1.546476	0.900948	1.079580
H157	H	1.084710	0.011897	0.587011
H158	H	1.418043	0.345231	0.920345
H159	H	1.751377	0.678564	1.253678
H160	H	0.560949	0.124590	-0.150846
H161	H	0.894283	0.457923	0.182487
H162	H	1.227616	0.791256	0.515820
H163	H	1.084709	0.011900	0.412893
H164	H	1.418042	0.345234	0.746226
H165	H	1.751375	0.678567	1.079559
H166	H	0.986253	-0.150554	-0.150849
H167	H	1.319586	0.182780	0.182484
H168	H	1.652919	0.516113	0.515818
H169	H	0.560910	0.124592	0.150770
H170	H	0.894244	0.457925	0.484103
H171	H	1.227577	0.791258	0.817436
H172	H	0.403612	0.121594	-0.150841
H173	H	0.736945	0.454927	0.182492
H174	H	1.070278	0.788261	0.515826
H175	H	0.879825	0.234277	0.587047
H176	H	1.213159	0.567611	0.920380
H177	H	1.546492	0.900944	1.253714
H178	H	0.983775	-0.291590	-0.233962
H179	H	1.317108	0.041743	0.099371
H180	H	1.650441	0.375076	0.432704
H181	H	0.980787	-0.462209	-0.233957
H182	H	1.314120	-0.128876	0.099377
H183	H	1.647453	0.204457	0.432710
H184	H	0.978302	-0.603264	-0.150835
H185	H	1.311636	-0.269931	0.182498
H186	H	1.644969	0.063402	0.515831
H187	H	0.978272	-0.603262	0.150758
H188	H	1.311606	-0.269929	0.484091
H189	H	1.644939	0.063404	0.817425
H190	H	0.980742	-0.462213	0.233878
H191	H	1.314076	-0.128879	0.567212
H192	H	1.647409	0.204454	0.900545
H193	H	0.983744	-0.291614	0.233896
H194	H	1.317077	0.041719	0.567229
H195	H	1.650411	0.375052	0.900563
H196	H	0.986211	-0.150555	0.150762
H197	H	1.319544	0.182779	0.484096
H198	H	1.652878	0.516112	0.817429
