data_functionalizedCrystal
_audit_creation_method	'MofGen! by Chris Wilmer'
_symmetry_space_group_name_H-M	'P1'
_symmetry_Int_Tables_number	1
_symmetry_cell_setting	triclinic
loop_
_symmetry_equiv_pos_as_xyz
  x,y,z
_cell_length_a	12.759401
_cell_length_b	13.032721
_cell_length_c	12.759393
_cell_angle_alpha	97.147972
_cell_angle_beta	89.980163
_cell_angle_gamma	97.205831
loop_
_atom_site_label
_atom_site_type_symbol
_atom_site_fract_x
_atom_site_fract_y
_atom_site_fract_z
Zn1	Zn	1.553102	-0.415933	-0.647097
Zn2	Zn	1.886435	-0.082599	-0.313763
Zn3	Zn	2.219769	0.250734	0.019570
Zn4	Zn	1.530661	-0.590715	-0.493720
Zn5	Zn	1.863994	-0.257382	-0.160387
Zn6	Zn	2.197327	0.075951	0.172946
Zn7	Zn	1.377397	-0.415992	-0.471439
Zn8	Zn	1.710730	-0.082658	-0.138106
Zn9	Zn	2.044063	0.250675	0.195227
Zn10	Zn	1.355067	-0.590639	-0.669348
Zn11	Zn	1.688400	-0.257305	-0.336015
Zn12	Zn	2.021733	0.076028	-0.002681
O13	O	1.454056	-0.503320	-0.570401
O14	O	1.787390	-0.169986	-0.237068
O15	O	2.120723	0.163347	0.096266
O16	O	1.697145	-0.439125	-0.626763
O17	O	2.030479	-0.105792	-0.293430
O18	O	2.363812	0.227541	0.039903
O19	O	1.510283	-0.567594	-0.343751
O20	O	1.843617	-0.234261	-0.010418
O21	O	2.176950	0.099072	0.322916
O22	O	1.419441	-0.269746	-0.476104
O23	O	1.752775	0.063587	-0.142770
O24	O	2.086108	0.396920	0.190563
O25	O	1.680658	-0.567537	-0.514079
O26	O	2.013991	-0.234204	-0.180745
O27	O	2.347324	0.099129	0.152588
O28	O	1.548531	-0.269703	-0.605158
O29	O	1.881865	0.063630	-0.271825
O30	O	2.215198	0.396964	0.061508
O31	O	1.397681	-0.439226	-0.327381
O32	O	1.731014	-0.105892	0.005952
O33	O	2.064347	0.227441	0.339286
O34	O	1.227414	-0.439152	-0.497680
O35	O	1.560748	-0.105818	-0.164347
O36	O	1.894081	0.227515	0.168987
O37	O	1.381383	-0.567407	-0.813410
O38	O	1.714716	-0.234074	-0.480077
O39	O	2.048050	0.099260	-0.146743
O40	O	1.211009	-0.567464	-0.643082
O41	O	1.544342	-0.234131	-0.309749
O42	O	1.877675	0.099202	0.023584
O43	O	1.526879	-0.439051	-0.797062
O44	O	1.860212	-0.105718	-0.463729
O45	O	2.193545	0.227616	-0.130396
O46	O	1.488631	-0.736943	-0.535655
O47	O	1.821964	-0.403609	-0.202322
O48	O	2.155297	-0.070276	0.131012
O49	O	1.359622	-0.736886	-0.664688
O50	O	1.692956	-0.403553	-0.331354
O51	O	2.026289	-0.070220	0.001979
C52	C	1.181091	-0.503307	-0.570379
C53	C	1.514424	-0.169973	-0.237045
C54	C	1.847757	0.163360	0.096288
C55	C	1.064312	-0.503326	-0.570397
C56	C	1.397645	-0.169993	-0.237064
C57	C	1.730978	0.163340	0.096270
C58	C	1.000922	-0.570240	-0.646015
C59	C	1.334255	-0.236907	-0.312682
C60	C	1.667588	0.096426	0.020651
C61	C	0.891197	-0.570244	-0.646037
C62	C	1.224530	-0.236911	-0.312704
C63	C	1.557864	0.096422	0.020630
C64	C	0.908262	-0.436418	-0.494812
C65	C	1.241596	-0.103084	-0.161479
C66	C	1.574929	0.230249	0.171855
C67	C	1.017985	-0.436409	-0.494796
C68	C	1.351319	-0.103076	-0.161463
C69	C	1.684652	0.230258	0.171870
C70	C	1.419297	-0.774832	-0.605026
C71	C	1.752630	-0.441499	-0.271693
C72	C	2.085963	-0.108166	0.061640
C73	C	1.404523	-0.890987	-0.619874
C74	C	1.737856	-0.557653	-0.286541
C75	C	2.071189	-0.224320	0.046792
C76	C	1.461823	-0.942765	-0.562699
C77	C	1.795156	-0.609432	-0.229366
C78	C	2.128490	-0.276098	0.103968
C79	C	1.446555	-1.062817	-0.578044
C80	C	1.779888	-0.729483	-0.244710
C81	C	2.113221	-0.396150	0.088623
C82	C	1.728088	-0.503333	-0.570424
C83	C	2.061421	-0.170000	-0.237091
C84	C	2.394755	0.163334	0.096242
C85	C	1.844864	-0.503339	-0.570434
C86	C	2.178197	-0.170006	-0.237101
C87	C	2.511530	0.163328	0.096232
C88	C	1.454143	-0.503214	-0.844421
C89	C	1.787477	-0.169881	-0.511088
C90	C	2.120810	0.163453	-0.177754
C91	C	1.454180	-0.503169	-0.961192
C92	C	1.787514	-0.169836	-0.627859
C93	C	2.120847	0.163498	-0.294525
C94	C	1.488980	-0.230747	-0.535664
C95	C	1.822314	0.102587	-0.202330
C96	C	2.155647	0.435920	0.131003
C97	C	1.503863	-0.114592	-0.520860
C98	C	1.837196	0.218741	-0.187527
C99	C	2.170530	0.552074	0.145806
C100	C	1.395574	-0.436315	-1.007528
C101	C	1.728907	-0.102982	-0.674195
C102	C	2.062241	0.230352	-0.340862
C103	C	1.395602	-0.436283	-1.117248
C104	C	1.728936	-0.102950	-0.783915
C105	C	2.062269	0.230384	-0.450582
C106	C	1.512853	-0.569961	-1.134287
C107	C	1.846186	-0.236628	-0.800953
C108	C	2.179519	0.096705	-0.467620
C109	C	1.512817	-0.569998	-1.024569
C110	C	1.846151	-0.236665	-0.691236
C111	C	2.179484	0.096669	-0.357903
C112	C	1.454040	-0.503349	-0.297438
C113	C	1.787373	-0.170016	0.035896
C114	C	2.120707	0.163317	0.369229
C115	C	1.454244	-0.503100	-0.180630
C116	C	1.787577	-0.169767	0.152704
C117	C	2.120911	0.163567	0.486037
H118	H	0.839589	-0.624731	-0.707614
H119	H	1.172922	-0.291398	-0.374281
H120	H	1.506256	0.041936	-0.040948
H121	H	1.038637	-0.624726	-0.707577
H122	H	1.371970	-0.291393	-0.374244
H123	H	1.705303	0.041940	-0.040910
H124	H	0.870530	-0.381937	-0.433259
H125	H	1.203863	-0.048604	-0.099926
H126	H	1.537197	0.284729	0.233408
H127	H	1.069601	-0.381913	-0.433218
H128	H	1.402934	-0.048580	-0.099884
H129	H	1.736267	0.284753	0.233449
C130	C	1.491995	-0.819984	-0.405808
C131	C	1.825328	-0.486650	-0.072475
C132	C	2.158662	-0.153317	0.260858
C133	C	1.543309	-0.882637	-0.481277
C134	C	1.876642	-0.549304	-0.147943
C135	C	2.209975	-0.215970	0.185390
H136	H	1.542303	-0.782871	-0.355538
H137	H	1.875636	-0.449537	-0.022205
H138	H	2.208969	-0.116204	0.311129
H139	H	1.458035	-0.771949	-0.439695
H140	H	1.791368	-0.438616	-0.106362
H141	H	2.124701	-0.105282	0.226972
H142	H	1.440858	-0.862646	-0.370998
H143	H	1.774191	-0.529313	-0.037665
H144	H	2.107525	-0.195980	0.295669
H145	H	1.594441	-0.839973	-0.516093
H146	H	1.927774	-0.506640	-0.182759
H147	H	2.261107	-0.173307	0.150574
H148	H	1.577286	-0.930678	-0.447387
H149	H	1.910620	-0.597344	-0.114053
H150	H	2.243953	-0.264011	0.219280
H151	H	1.347828	-0.381899	-0.955929
H152	H	1.681161	-0.048565	-0.622596
H153	H	2.014494	0.284768	-0.289263
C154	C	1.279717	-0.304143	-1.089377
C155	C	1.613050	0.029191	-0.756044
C156	C	1.946384	0.362524	-0.422711
C157	C	1.331186	-0.362790	-1.168180
C158	C	1.664519	-0.029456	-0.834847
C159	C	1.997853	0.303877	-0.501513
H160	H	1.239952	-0.258766	-1.120822
H161	H	1.573286	0.074567	-0.787489
H162	H	1.906619	0.407901	-0.454155
H163	H	1.233682	-0.349682	-1.052381
H164	H	1.567016	-0.016349	-0.719048
H165	H	1.900349	0.316985	-0.385715
H166	H	1.330616	-0.264192	-1.041495
H167	H	1.663949	0.069141	-0.708162
H168	H	1.997282	0.402475	-0.374829
H169	H	1.280287	-0.402747	-1.216058
H170	H	1.613620	-0.069413	-0.882725
H171	H	1.946953	0.263920	-0.549391
H172	H	1.377225	-0.317245	-1.205193
H173	H	1.710558	0.016089	-0.871860
H174	H	2.043891	0.349422	-0.538527
H175	H	1.386194	-1.107361	-0.638362
H176	H	1.719527	-0.774027	-0.305029
H177	H	2.052861	-0.440694	0.028304
H178	H	1.560594	-0.624370	-1.185901
H179	H	1.893927	-0.291037	-0.852568
H180	H	2.227260	0.042296	-0.519235
C181	C	1.534044	-0.991822	-0.363959
C182	C	1.867378	-0.658489	-0.030626
C183	C	2.200711	-0.325156	0.302707
C184	C	1.585354	-1.054475	-0.439432
C185	C	1.918688	-0.721142	-0.106098
C186	C	2.252021	-0.387808	0.227235
H187	H	1.584353	-0.954715	-0.313687
H188	H	1.917687	-0.621382	0.019647
H189	H	2.251020	-0.288049	0.352980
H190	H	1.500088	-0.943782	-0.397842
H191	H	1.833421	-0.610449	-0.064509
H192	H	2.166754	-0.277116	0.268825
H193	H	1.482904	-1.034485	-0.329152
H194	H	1.816238	-0.701152	0.004181
H195	H	2.149571	-0.367818	0.337514
H196	H	1.636489	-1.011811	-0.474244
H197	H	1.969823	-0.678478	-0.140911
H198	H	2.303156	-0.345145	0.192422
H199	H	1.619328	-1.102521	-0.405545
H200	H	1.952661	-0.769187	-0.072212
H201	H	2.285995	-0.435854	0.261121
H202	H	1.560544	-0.624442	-0.986843
H203	H	1.893877	-0.291109	-0.653509
H204	H	2.227210	0.042224	-0.320176
H205	H	1.344166	-0.935535	-0.680189
H206	H	1.677500	-0.602201	-0.346855
H207	H	2.010833	-0.268868	-0.013522
