data_functionalizedCrystal
_audit_creation_method	'MofGen! by Chris Wilmer'
_symmetry_space_group_name_H-M	'P1'
_symmetry_Int_Tables_number	1
_symmetry_cell_setting	triclinic
loop_
_symmetry_equiv_pos_as_xyz
  x,y,z
_cell_length_a	14.853567
_cell_length_b	9.565339
_cell_length_c	14.853567
_cell_angle_alpha	89.997015
_cell_angle_beta	83.634930
_cell_angle_gamma	89.994287
loop_
_atom_site_label
_atom_site_type_symbol
_atom_site_fract_x
_atom_site_fract_y
_atom_site_fract_z
O1	O	1.196356	0.116151	0.117700
O2	O	0.933896	0.116174	0.131721
O3	O	1.072137	0.116166	-0.006519
O4	O	1.058115	0.116159	0.255940
O5	O	1.072143	-0.116354	-0.006515
O6	O	0.933902	-0.116346	0.131725
O7	O	1.196362	-0.116369	0.117704
Zn8	Zn	1.065133	-0.153275	0.124715
Zn9	Zn	1.065125	0.153080	0.124710
O10	O	1.058121	-0.116361	0.255944
C11	C	0.900311	-0.000083	0.131088
C12	C	0.800227	-0.000074	0.129184
C13	C	0.387693	-0.000103	0.039019
C14	C	0.366412	-0.000106	0.203251
C15	C	0.460446	-0.000101	0.205042
C16	C	0.518108	-0.000095	0.123819
C17	C	0.481736	-0.000094	0.040806
C18	C	0.496825	-0.000089	0.288053
C19	C	0.590864	-0.000083	0.289846
C20	C	0.648528	-0.000087	0.208623
C21	C	0.612150	-0.000087	0.125607
C22	C	0.669812	-0.000081	0.044384
C23	C	0.633437	-0.000091	-0.038633
C24	C	0.539399	-0.000098	-0.040417
C25	C	0.742565	-0.000080	0.210407
C26	C	0.763855	-0.000072	0.046172
N27	N	1.065145	-0.362354	0.124718
C28	C	1.129097	-0.453524	0.060791
C29	C	1.047608	-0.546686	0.043178
C30	C	1.146602	-0.546747	0.142273
C31	C	0.983615	-0.453465	0.107065
C32	C	1.082662	-0.453518	0.206195
C33	C	1.001115	-0.546638	0.188617
C34	C	1.229947	-0.000109	0.118337
C35	C	1.330031	-0.000108	0.120241
C36	C	1.071504	-0.000090	-0.040106
C37	C	1.069601	-0.000077	-0.140189
N38	N	1.065120	0.362160	0.124700
C39	C	0.979435	-0.000096	-0.552723
C40	C	1.143668	-0.000110	-0.574004
C41	C	1.145458	-0.000102	-0.479971
C42	C	1.064235	-0.000093	-0.422309
C43	C	0.981223	-0.000092	-0.458680
C44	C	1.228469	-0.000117	-0.443591
C45	C	1.230262	-0.000111	-0.349552
C46	C	1.149039	-0.000092	-0.291889
C47	C	1.066023	-0.000089	-0.328266
C48	C	0.984800	-0.000080	-0.270604
C49	C	0.901783	-0.000068	-0.306979
C50	C	0.899999	-0.000073	-0.401017
C51	C	1.150823	-0.000086	-0.197851
C52	C	0.986588	-0.000076	-0.176561
C53	C	1.058754	-0.000102	0.289531
C54	C	1.060657	-0.000105	0.389615
H55	H	0.509774	-0.000140	-0.108005
N56	N	0.695628	-0.000083	-0.126239
H57	H	0.735107	0.086120	-0.129157
H58	H	0.735072	-0.086328	-0.129098
H59	H	0.835652	-0.000070	-0.260019
H60	H	1.183128	-0.412637	0.006702
N61	N	1.102347	-0.399241	0.297440
H62	H	1.049555	-0.341128	0.324985
H63	H	1.111895	-0.480648	0.338633
N64	N	1.231263	-0.000136	-0.636199
H65	H	1.234178	0.086053	-0.675698
H66	H	1.284074	-0.000190	-0.598828
H67	H	0.358072	-0.000116	-0.028572
H68	H	0.449870	-0.000079	0.354180
N69	N	0.630095	-0.000062	0.379380
H70	H	0.579296	-0.000062	0.430561
H71	H	0.668656	-0.086257	0.383705
N72	N	1.237857	-0.601034	0.161955
H73	H	1.286123	-0.567163	0.113630
H74	H	1.251515	-0.565679	0.223054
H75	H	1.032775	-0.587612	-0.025732
H76	H	0.914702	-0.412663	0.092132
H77	H	0.810798	-0.000073	-0.019971
N78	N	0.810464	-0.000073	-0.440245
H79	H	0.806059	0.086115	-0.478796
H80	H	0.806123	-0.086333	-0.478734
H81	H	0.946963	-0.587265	0.242674
N82	N	0.304226	-0.000097	0.290852
H83	H	0.239134	-0.000098	0.277123
H84	H	0.316020	-0.086297	0.327025
H85	H	1.294596	-0.000137	-0.490546
H86	H	0.772178	-0.000074	0.277998
H87	H	0.920445	-0.000063	-0.129618
N88	N	1.319796	-0.000124	-0.310321
H89	H	1.370977	-0.000132	-0.361120
H90	H	1.324113	0.086079	-0.271775
N91	N	1.240350	-0.000114	-0.158615
H92	H	1.291533	-0.000129	-0.209413
H93	H	1.244673	0.086086	-0.120068
N94	N	0.889898	-0.000076	-0.591948
H95	H	0.901085	-0.000076	-0.660270
H96	H	0.854354	-0.086271	-0.570861
