data_functionalizedCrystal
_audit_creation_method	'MofGen! by Chris Wilmer'
_symmetry_space_group_name_H-M	'P1'
_symmetry_Int_Tables_number	1
_symmetry_cell_setting	triclinic
loop_
_symmetry_equiv_pos_as_xyz
  x,y,z
_cell_length_a	16.120530
_cell_length_b	12.645330
_cell_length_c	12.645324
_cell_angle_alpha	89.968341
_cell_angle_beta	87.080817
_cell_angle_gamma	87.113442
loop_
_atom_site_label
_atom_site_type_symbol
_atom_site_fract_x
_atom_site_fract_y
_atom_site_fract_z
Zn1	Zn	1.274606	-0.504243	-0.681531
Zn2	Zn	1.774606	-0.004243	-0.181531
Zn3	Zn	1.274515	-0.681546	-0.504265
Zn4	Zn	1.774515	-0.181546	-0.004265
Zn5	Zn	1.135183	-0.495302	-0.495296
Zn6	Zn	1.635183	0.004698	0.004704
Zn7	Zn	1.135167	-0.672463	-0.672506
Zn8	Zn	1.635167	-0.172463	-0.172506
O9	O	1.204868	-0.588388	-0.588399
O10	O	1.704868	-0.088388	-0.088399
O11	O	1.391261	-0.535305	-0.665546
O12	O	1.891261	-0.035305	-0.165546
O13	O	1.256001	-0.656899	-0.354726
O14	O	1.756001	-0.156899	0.145274
O15	O	1.153723	-0.348144	-0.520024
O16	O	1.653723	0.151856	-0.020024
O17	O	1.391193	-0.665569	-0.535310
O18	O	1.891193	-0.165569	-0.035310
O19	O	1.256156	-0.354712	-0.656850
O20	O	1.756156	0.145288	-0.156850
O21	O	1.153634	-0.520067	-0.348137
O22	O	1.653634	-0.020067	0.151863
O23	O	1.018514	-0.511260	-0.511273
O24	O	1.518514	-0.011260	-0.011273
O25	O	1.153695	-0.650089	-0.822053
O26	O	1.653695	-0.150089	-0.322053
O27	O	1.018503	-0.641419	-0.641469
O28	O	1.518503	-0.141419	-0.141469
O29	O	1.256141	-0.526498	-0.828683
O30	O	1.756141	-0.026498	-0.328683
O31	O	1.255985	-0.828685	-0.526559
O32	O	1.755985	-0.328685	-0.026559
O33	O	1.153607	-0.822012	-0.650165
O34	O	1.653607	-0.322012	-0.150165
C35	C	0.988258	-0.574385	-0.574419
C36	C	1.488258	-0.074385	-0.074419
C37	C	0.895592	-0.568419	-0.568464
C38	C	1.395592	-0.068419	-0.068464
C39	C	0.725929	-0.557504	-0.557599
C40	C	1.225929	-0.057504	-0.057599
C41	C	0.684647	-0.619351	-0.619277
C42	C	1.184647	-0.119351	-0.119277
C43	C	0.590241	-0.613277	-0.613232
C44	C	1.090241	-0.113277	-0.113232
C45	C	0.820343	-0.563576	-0.563643
C46	C	1.320343	-0.063576	-0.063643
C47	C	1.204807	-0.863814	-0.588381
C48	C	1.704807	-0.363814	-0.088381
C49	C	1.204857	-0.981647	-0.588413
C50	C	1.704857	-0.481647	-0.088413
C51	C	1.140717	-1.145075	-0.666443
C52	C	1.640717	-0.645075	-0.166443
C53	C	1.140389	-1.022494	-0.666158
C54	C	1.640389	-0.522494	-0.166158
C55	C	1.181072	-1.024719	-0.475159
C56	C	1.681072	-0.524719	0.024841
C57	C	1.180680	-1.147292	-0.475633
C58	C	1.680680	-0.647292	0.024367
C59	C	1.293175	-1.154435	-0.622756
C60	C	1.793175	-0.654435	-0.122756
C61	C	1.292634	-1.031793	-0.625164
C62	C	1.792634	-0.531793	-0.125164
C63	C	1.422323	-0.602447	-0.602435
C64	C	1.922323	-0.102447	-0.102435
C65	C	1.514990	-0.608438	-0.608416
C66	C	2.014990	-0.108438	-0.108416
C67	C	1.204927	-0.588277	-0.864909
C68	C	1.704927	-0.088277	-0.364909
C69	C	1.204952	-0.588230	-0.982740
C70	C	1.704952	-0.088230	-0.482740
C71	C	1.204952	-0.311888	-0.588443
C72	C	1.704952	0.188112	-0.088443
C73	C	1.204987	-0.194061	-0.588461
C74	C	1.704987	0.305939	-0.088461
C75	C	1.269414	-0.510462	-1.031794
C76	C	1.769414	-0.010462	-0.531794
C77	C	1.269691	-0.510694	-1.154372
C78	C	1.769691	-0.010694	-0.654372
C79	C	1.228510	-0.701520	-1.152139
C80	C	1.728510	-0.201520	-0.652139
C81	C	1.228954	-0.701103	-1.029569
C82	C	1.728954	-0.201103	-0.529569
C83	C	1.116819	-0.553618	-1.022235
C84	C	1.616819	-0.053618	-0.522235
C85	C	1.117315	-0.551158	-1.144874
C86	C	1.617315	-0.051158	-0.644874
C87	C	1.204857	-0.588425	-0.312969
C88	C	1.704857	-0.088425	0.187031
C89	C	1.204994	-0.588184	-0.195148
C90	C	1.704994	-0.088184	0.304852
H91	H	0.720206	-0.676860	-0.676623
H92	H	1.220206	-0.176860	-0.176623
Cl93	Cl	1.326888	-0.746277	-1.205890
Cl94	Cl	1.826888	-0.246277	-0.705890
Cl95	Cl	1.039448	-0.970837	-0.630393
Cl96	Cl	1.539448	-0.470837	-0.130393
Cl97	Cl	1.320332	-0.988561	-0.753891
Cl98	Cl	1.820332	-0.488561	-0.253891
Cl99	Cl	1.083656	-0.427748	-0.972389
Cl100	Cl	1.583656	0.072252	-0.472389
Cl101	Cl	0.671031	-0.468719	-0.469067
Cl102	Cl	1.171031	0.031281	0.030933
Cl103	Cl	1.040410	-1.186333	-0.631112
Cl104	Cl	1.540410	-0.686333	-0.131112
Cl105	Cl	1.081150	-1.185174	-0.431799
Cl106	Cl	1.581150	-0.685174	0.068201
H107	H	1.155270	-0.993291	-0.749958
H108	H	1.655270	-0.493291	-0.249958
H109	H	1.155461	-1.175428	-0.750506
H110	H	1.655461	-0.675428	-0.250506
Cl111	Cl	1.370531	-0.546814	-1.206175
Cl112	Cl	1.870531	-0.046814	-0.706175
Cl113	Cl	1.249807	-1.197560	-0.382388
Cl114	Cl	1.749807	-0.697560	0.117612
H115	H	1.254893	-0.426376	-1.001403
H116	H	1.754893	0.073624	-0.501403
H117	H	1.226400	-0.998494	-0.415220
H118	H	1.726400	-0.498494	0.084780
Cl119	Cl	1.369673	-0.546186	-0.990727
Cl120	Cl	1.869673	-0.046186	-0.490727
H121	H	1.117278	-0.989993	-0.446372
H122	H	1.617278	-0.489993	0.053628
Cl123	Cl	1.326674	-1.204200	-0.748556
Cl124	Cl	1.826674	-0.704200	-0.248556
Cl125	Cl	1.370463	-0.989499	-0.544562
Cl126	Cl	1.870463	-0.489499	-0.044562
H127	H	1.341058	-1.186521	-0.566027
H128	H	1.841058	-0.686521	-0.066027
Cl129	Cl	1.039248	-0.631463	-1.187072
Cl130	Cl	1.539248	-0.131463	-0.687072
H131	H	1.254997	-0.426848	-1.183532
H132	H	1.754997	0.073152	-0.683532
H133	H	1.293369	-0.729724	-1.005133
H134	H	1.793369	-0.229724	-0.505133
H135	H	1.099575	-0.467724	-1.172836
H136	H	1.599575	0.032276	-0.672836
H137	H	1.184009	-0.761324	-0.996967
H138	H	1.684009	-0.261324	-0.496967
Cl139	Cl	1.158264	-0.793792	-1.192552
Cl140	Cl	1.658264	-0.293792	-0.692552
H141	H	1.068794	-0.610186	-0.990099
H142	H	1.568794	-0.110186	-0.490099
