data_functionalizedCrystal
_audit_creation_method	'MofGen! by Chris Wilmer'
_symmetry_space_group_name_H-M	'P1'
_symmetry_Int_Tables_number	1
_symmetry_cell_setting	triclinic
loop_
_symmetry_equiv_pos_as_xyz
  x,y,z
_cell_length_a	15.944551
_cell_length_b	10.654550
_cell_length_c	9.130313
_cell_angle_alpha	90.003780
_cell_angle_beta	89.997799
_cell_angle_gamma	96.008180
loop_
_atom_site_label
_atom_site_type_symbol
_atom_site_fract_x
_atom_site_fract_y
_atom_site_fract_z
O1	O	0.117973	-1.666308	-0.121923
O2	O	0.129213	-1.300684	-0.121900
O3	O	0.001376	-1.493480	-0.121899
O4	O	0.245810	-1.473511	-0.121924
O5	O	0.001379	-1.493478	0.121700
O6	O	0.129216	-1.300681	0.121699
O7	O	0.117976	-1.666305	0.121676
Cu8	Cu	0.123596	-1.483493	0.143930
Cu9	Cu	0.123592	-1.483496	-0.144154
O10	O	0.245813	-1.473509	0.121675
C11	C	0.128389	-1.253895	-0.000098
C12	C	0.125920	-1.114484	-0.000088
C13	C	-0.029921	-1.492650	-0.000099
C14	C	-0.123182	-1.490165	-0.000098
C15	C	0.118800	-1.713094	-0.000130
C16	C	0.121269	-1.852505	-0.000149
C17	C	-0.338765	-1.364720	-0.000111
C18	C	-0.399443	-1.422971	0.119995
C19	C	-0.293934	-1.485668	-0.000109
C20	C	-0.399430	-1.423002	-0.120175
C21	C	-0.458872	-1.481317	-0.000126
C22	C	-0.353384	-1.543953	0.120095
C23	C	-0.353364	-1.543967	-0.120182
C24	C	-0.414024	-1.602306	-0.000048
C25	C	-0.198917	-1.488172	-0.000098
C26	C	-0.553887	-1.478822	-0.000127
C27	C	0.277110	-1.474339	-0.000128
C28	C	0.370371	-1.476824	-0.000139
N29	N	0.123599	-1.483500	0.346552
C30	C	0.201188	-1.034024	-0.000117
C31	C	0.198863	-0.903034	-0.000142
C32	C	0.045995	-0.932975	-0.000116
C33	C	0.048321	-1.063963	-0.000080
C34	C	0.289446	-1.016737	-0.000139
C35	C	0.287121	-0.885746	-0.000164
N36	N	0.123583	-1.483499	-0.346777
C37	C	0.067012	-1.568892	0.423205
C38	C	0.067002	-1.568889	0.576542
C39	C	0.180173	-1.398098	0.576560
C40	C	0.180178	-1.398096	0.423226
C41	C	0.001676	-1.667501	0.423195
C42	C	0.001666	-1.667498	0.576532
H43	H	-0.306038	-1.264327	0.000016
C44	C	-0.457614	-1.736194	-0.000096
C45	C	-0.545129	-1.732478	-0.001347
C46	C	-0.585306	-1.855792	-0.001425
H47	H	-0.441955	-1.779095	0.085240
H48	H	-0.441172	-1.779459	-0.084661
H49	H	-0.561565	-1.689232	0.083210
H50	H	-0.560812	-1.689602	-0.086677
H51	H	-0.568863	-1.899057	-0.085991
H52	H	-0.569640	-1.898683	0.083912
H53	H	-0.644688	-1.853287	-0.002288
H54	H	0.016057	-1.763823	0.618141
H55	H	0.022134	-1.758420	0.375629
H56	H	-0.333096	-1.595065	0.221746
H57	H	0.226248	-1.328553	0.360817
H58	H	-0.332939	-1.595080	-0.221733
H59	H	-0.419846	-1.371814	0.221540
C60	C	-0.426478	-1.354574	-0.255516
C61	C	-0.388005	-1.230269	-0.254942
C62	C	-0.412889	-1.167192	-0.379597
H63	H	-0.486012	-1.354019	-0.255143
H64	H	-0.409905	-1.396658	-0.340847
H65	H	-0.404583	-1.188196	-0.169633
H66	H	-0.328472	-1.230787	-0.255337
H67	H	-0.396316	-1.209276	-0.464928
H68	H	-0.472423	-1.166646	-0.379213
H69	H	-0.386783	-1.082848	-0.379231
H70	H	0.320373	-0.843584	-0.102121
C71	C	-0.033492	-1.151112	-0.000103
C72	C	-0.101944	-1.078827	-0.000141
C73	C	-0.177326	-1.159065	-0.000177
H74	H	-0.035873	-1.202836	0.084839
H75	H	-0.035818	-1.202840	-0.085068
H76	H	-0.099619	-1.027121	0.084816
H77	H	-0.099591	-1.027106	-0.085076
H78	H	-0.179652	-1.210793	-0.085143
H79	H	-0.179698	-1.210785	0.084766
H80	H	-0.223779	-1.110032	-0.000217
H81	H	0.317547	-1.052030	-0.105314
C82	C	-0.038169	-0.877877	-0.000191
C83	C	-0.024098	-0.745941	-0.000260
C84	C	-0.101611	-0.695145	-0.000351
H85	H	-0.069256	-0.905337	0.084743
H86	H	-0.069202	-0.905443	-0.085165
H87	H	0.006923	-0.718386	0.084706
H88	H	0.006976	-0.718446	-0.085187
H89	H	-0.132645	-0.722712	-0.085325
H90	H	-0.132692	-0.722615	0.084584
H91	H	-0.092075	-0.605623	-0.000411
C92	C	-0.084323	-1.639819	0.367501
C93	C	-0.075331	-1.529945	0.282355
C94	C	-0.154529	-1.504407	0.231013
H95	H	-0.120258	-1.628270	0.448293
H96	H	-0.108206	-1.708576	0.309611
H97	H	-0.051460	-1.461204	0.340242
H98	H	-0.039411	-1.541465	0.201541
H99	H	-0.178412	-1.573164	0.173124
H100	H	-0.190458	-1.492863	0.311814
H101	H	-0.148438	-1.429862	0.173225
C102	C	-0.079687	-1.627694	0.639735
C103	C	-0.090424	-1.505483	0.592144
C104	C	-0.165365	-1.468792	0.650314
H105	H	-0.076991	-1.628950	0.743648
H106	H	-0.125943	-1.684445	0.607538
H107	H	-0.044181	-1.448746	0.624350
H108	H	-0.093136	-1.504195	0.488239
H109	H	-0.211621	-1.525544	0.618116
H110	H	-0.162662	-1.470055	0.754224
H111	H	-0.172664	-1.385874	0.618021
H112	H	0.313795	-0.839729	0.105001
C113	C	0.335325	-1.055220	0.135970
C114	C	0.292776	-1.019571	0.260943
C115	C	0.335006	-1.055017	0.386349
H116	H	0.391265	-1.014565	0.136167
H117	H	0.336882	-1.144115	0.136078
H118	H	0.291229	-0.930693	0.260835
H119	H	0.236839	-1.060222	0.260794
H120	H	0.336562	-1.143912	0.386458
H121	H	0.390944	-1.014359	0.386531
H122	H	0.306138	-1.030844	0.471158
C123	C	0.241503	-1.305178	0.659735
C124	C	0.227095	-1.181783	0.622468
C125	C	0.283569	-1.096151	0.699071
H126	H	0.297686	-1.318640	0.634677
H127	H	0.233388	-1.317321	0.762047
H128	H	0.235216	-1.169645	0.520178
H129	H	0.170922	-1.168281	0.647529
H130	H	0.275454	-1.108294	0.801383
H131	H	0.339749	-1.109624	0.674007
H132	H	0.273796	-1.012418	0.673806
