data_functionalizedCrystal
_audit_creation_method	'MofGen! by Chris Wilmer'
_symmetry_space_group_name_H-M	'P1'
_symmetry_Int_Tables_number	1
_symmetry_cell_setting	triclinic
loop_
_symmetry_equiv_pos_as_xyz
  x,y,z
_cell_length_a	29.839131
_cell_length_b	19.077241
_cell_length_c	19.077271
_cell_angle_alpha	89.928553
_cell_angle_beta	87.672967
_cell_angle_gamma	87.666381
loop_
_atom_site_label
_atom_site_type_symbol
_atom_site_fract_x
_atom_site_fract_y
_atom_site_fract_z
Zn1	Zn	-0.140491	-1.058228	-0.440574
Zn2	Zn	-0.218516	-1.062830	-0.323065
Zn3	Zn	-0.146524	-0.945440	-0.318349
Zn4	Zn	-0.218725	-0.940650	-0.435803
O5	O	-0.181064	-1.001787	-0.379448
O6	O	-0.148229	-1.157173	-0.428957
O7	O	-0.211404	-1.051188	-0.224107
O8	O	-0.082854	-0.960479	-0.334586
O9	O	-0.205553	-1.160554	-0.342624
O10	O	-0.078422	-1.043344	-0.424384
O11	O	-0.158512	-0.964942	-0.220642
O12	O	-0.158714	-0.846469	-0.329959
O13	O	-0.205909	-0.952317	-0.534769
O14	O	-0.211759	-0.842951	-0.416252
O15	O	-0.148431	-1.038700	-0.538274
O16	O	-0.281413	-1.046544	-0.337997
O17	O	-0.281567	-0.956779	-0.420825
C18	C	-0.185915	-0.819213	-0.372077
C19	C	-0.188000	-0.741106	-0.368940
C20	C	-0.159178	-0.702649	-0.412484
C21	C	-0.161136	-0.629260	-0.409531
C22	C	-0.191918	-0.594329	-0.363036
C23	C	-0.220741	-0.632791	-0.319487
C24	C	-0.218781	-0.706179	-0.322438
C25	C	-0.200974	-0.375031	-0.349382
C26	C	-0.202932	-0.301638	-0.346436
C27	C	-0.143326	-0.298111	-0.436479
C28	C	-0.141371	-0.371501	-0.439428
C29	C	-0.170192	-0.409957	-0.395877
N30	N	-0.193920	-0.519313	-0.360018
N31	N	-0.168187	-0.484971	-0.398892
C32	C	-0.297790	-1.001660	-0.379421
C33	C	-0.347724	-1.001669	-0.379436
C34	C	-0.704403	-0.955075	-0.422575
C35	C	-0.516733	-0.954983	-0.422549
O36	O	-0.492551	-0.915215	-0.459208
N37	N	-0.493167	-1.001742	-0.379460
C38	C	-0.516521	-1.048531	-0.336378
O39	O	-0.492170	-1.088305	-0.299733
C40	C	-0.704190	-1.048626	-0.336408
C41	C	-0.727754	-1.001859	-0.379494
C42	C	-0.727967	-0.908313	-0.465658
C43	C	-0.774882	-0.908334	-0.465662
C44	C	-0.798233	-0.955117	-0.422581
C45	C	-0.774669	-1.001880	-0.379497
C46	C	-0.727543	-1.095417	-0.293330
C47	C	-0.774463	-1.095438	-0.293342
C48	C	-0.798027	-1.048671	-0.336429
C49	C	-0.844935	-1.048684	-0.336420
N50	N	-0.868501	-1.001925	-0.379509
C51	C	-0.845150	-0.955141	-0.422590
C52	C	-0.417992	-1.048477	-0.336364
C53	C	-0.371075	-1.048453	-0.336355
C54	C	-0.371290	-0.954906	-0.422528
C55	C	-0.418208	-0.954927	-0.422532
C56	C	-0.441558	-1.001718	-0.379453
C57	C	-0.943674	-0.955188	-0.422593
C58	C	-0.990593	-0.955211	-0.422590
C59	C	-0.990374	-1.048761	-0.336420
C60	C	-0.943459	-1.048735	-0.336420
C61	C	-0.920110	-1.001947	-0.379512
O62	O	-0.869146	-1.088437	-0.299786
O63	O	-0.869508	-0.915384	-0.459241
C64	C	-0.657488	-0.955054	-0.422571
C65	C	-0.633924	-1.001817	-0.379488
C66	C	-0.657275	-1.048601	-0.336407
C67	C	-0.587007	-1.001793	-0.379479
C68	C	-0.563656	-0.955009	-0.422560
C69	C	-0.587222	-0.908250	-0.465649
C70	C	-0.634137	-0.908271	-0.465652
C71	C	-0.633709	-1.095360	-0.293318
C72	C	-0.586794	-1.095335	-0.293318
C73	C	-0.563443	-1.048551	-0.336399
C74	C	-0.063881	-1.001933	-0.379491
C75	C	-0.013944	-1.001995	-0.379509
C76	C	-0.176520	-0.994461	-0.562731
C77	C	-0.174584	-0.991339	-0.640835
C78	C	-0.176192	-0.185074	-0.386843
C79	C	-0.174110	-0.263181	-0.389980
C80	C	-0.160733	-0.968948	-1.080286
C81	C	-0.162551	-0.971885	-1.006899
C82	C	-0.191000	-1.018253	-0.972008
C83	C	-0.217630	-1.061693	-1.010509
C84	C	-0.215810	-1.058759	-1.083895
C85	C	-0.199394	-1.031845	-0.752722
C86	C	-0.201213	-1.034774	-0.679330
C87	C	-0.146133	-0.944967	-0.675725
C88	C	-0.144318	-0.942034	-0.749113
C89	C	-0.170946	-0.985476	-0.787607
N90	N	-0.192859	-1.021254	-0.896995
N91	N	-0.169084	-0.982478	-0.862619
C92	C	-0.185556	-1.009125	-0.196880
C93	C	-0.187362	-1.012383	-0.118781
H94	H	-1.009777	-0.917127	-0.457678
N95	N	-0.109923	-0.407191	-0.486907
N96	N	-0.108176	-0.472716	-0.489531
H97	H	-0.085966	-0.497923	-0.523064
N98	N	-0.252184	-0.597124	-0.271984
N99	N	-0.250527	-0.607904	-0.207482
H100	H	-0.272735	-0.582715	-0.173931
H101	H	-0.567612	-1.133416	-0.258226
H102	H	-0.140867	-0.936515	-0.975559
H103	H	-0.924669	-0.917090	-0.457683
H104	H	-0.237493	-1.094129	-1.115237
N105	N	-0.131679	-0.589988	-0.453995
N106	N	-0.104192	-0.621185	-0.495496
H107	H	-0.083382	-0.593451	-0.526895
H108	H	-0.224371	-1.072549	-0.650925
N109	N	-0.798954	-0.860575	-0.509679
N110	N	-0.840844	-0.860594	-0.509689
H111	H	-0.857843	-0.826864	-0.540780
H112	H	-0.119860	-0.266792	-0.471935
H113	H	-0.228001	-0.273200	-0.308574
H114	H	-0.793472	-1.133544	-0.258263
N115	N	-0.127728	-0.738316	-0.459975
N116	N	-0.086600	-0.730334	-0.455096
H117	H	-0.064386	-0.755522	-0.488636
N118	N	-0.230417	-0.414296	-0.304894
N119	N	-0.257900	-0.383097	-0.263388
H120	H	-0.278697	-0.410829	-0.231966
H121	H	-0.924273	-1.086810	-0.301328
N122	N	-0.248222	-0.745455	-0.277948
N123	N	-0.275703	-0.714260	-0.236436
H124	H	-0.296495	-0.741997	-0.205010
N125	N	-0.704126	-0.860519	-0.509676
N126	N	-0.725179	-0.818776	-0.548138
H127	H	-0.708345	-0.785015	-0.579225
N128	N	-0.442269	-0.907150	-0.466546
N129	N	-0.421409	-0.865381	-0.505001
H130	H	-0.438399	-0.831635	-0.536088
N131	N	-0.441832	-1.096274	-0.292343
N132	N	-0.438330	-1.094254	-0.227314
H133	H	-0.455165	-1.128010	-0.196221
H134	H	-0.352270	-0.916811	-0.457605
N135	N	-0.118932	-0.900611	-0.636391
N136	N	-0.090664	-0.927016	-0.596450
H137	H	-0.071450	-0.895691	-0.568669
N138	N	-0.347016	-1.096218	-0.292328
N139	N	-0.367876	-1.137983	-0.253868
H140	H	-0.350886	-1.171721	-0.222773
H141	H	-0.708364	-1.133499	-0.258245
N142	N	-0.246684	-1.109066	-0.974872
N143	N	-0.230704	-1.155503	-0.935735
H144	H	-0.251225	-1.188961	-0.910566
H145	H	-1.009395	-1.086848	-0.301343
N146	N	-0.658210	-0.860501	-0.509658
N147	N	-0.686228	-0.816742	-0.483096
H148	H	-0.703228	-0.783002	-0.514177
N149	N	-0.226603	-1.076213	-0.792025
N150	N	-0.252007	-1.117600	-0.760861
H151	H	-0.271228	-1.148934	-0.788621
N152	N	-0.563358	-0.860463	-0.509648
N153	N	-0.521468	-0.860458	-0.509631
H154	H	-0.504611	-0.826713	-0.540706
N155	N	-0.657550	-1.143160	-0.249311
N156	N	-0.636499	-1.184905	-0.210848
H157	H	-0.653335	-1.218666	-0.179763
N158	N	-0.131674	-0.921574	-1.115911
N159	N	-0.107900	-0.882798	-1.081528
H160	H	-0.087375	-0.849339	-1.106686
H161	H	-0.121153	-0.904273	-0.777515
