data_functionalizedCrystal
_audit_creation_method	'MofGen! by Chris Wilmer'
_symmetry_space_group_name_H-M	'P1'
_symmetry_Int_Tables_number	1
_symmetry_cell_setting	triclinic
loop_
_symmetry_equiv_pos_as_xyz
  x,y,z
_cell_length_a	13.596369
_cell_length_b	12.837943
_cell_length_c	12.784890
_cell_angle_alpha	83.967749
_cell_angle_beta	89.999966
_cell_angle_gamma	89.994445
loop_
_atom_site_label
_atom_site_type_symbol
_atom_site_fract_x
_atom_site_fract_y
_atom_site_fract_z
O1	O	-0.081772	1.350775	0.273809
O2	O	-0.081778	1.050189	0.260282
O3	O	-0.081770	1.222479	0.114546
O4	O	-0.081780	1.178485	0.419545
O5	O	0.081813	1.222457	0.114554
O6	O	0.081805	1.050167	0.260291
O7	O	0.081811	1.350753	0.273817
Zn8	Zn	0.107780	1.200457	0.267055
Zn9	Zn	-0.107747	1.200485	0.267044
O10	O	0.081802	1.178463	0.419554
C11	C	0.000013	1.011969	0.255717
C12	C	0.000011	0.898121	0.242089
C13	C	0.000019	0.642394	0.405921
C14	C	0.000018	0.535422	0.393122
C15	C	0.000014	0.577202	0.203691
C16	C	0.000015	0.684174	0.216491
C17	C	0.000016	0.716765	0.317609
C18	C	0.000010	0.823740	0.330408
C19	C	0.000014	0.865518	0.140979
C20	C	0.000012	0.758546	0.128179
N21	N	0.254872	1.200445	0.267062
C22	C	0.343870	1.200449	0.267066
C23	C	0.455521	1.200459	0.267061
C24	C	0.544512	1.200473	0.267051
C25	C	0.656170	1.200484	0.267046
N26	N	0.745161	1.200498	0.267036
C27	C	0.000021	1.225330	0.075240
C28	C	0.000019	1.233843	-0.041892
C29	C	0.000018	1.388973	0.278382
C30	C	0.000014	1.502821	0.292010
C31	C	0.000020	1.340544	-0.210061
C32	C	0.000021	1.332551	-0.100006
C33	C	0.000018	1.143122	-0.093841
C34	C	0.000016	1.151114	-0.203896
C35	C	0.000015	1.249829	-0.262003
C36	C	0.000007	1.257821	-0.372060
C37	C	0.000010	1.068392	-0.365893
C38	C	0.000012	1.060399	-0.255838
C39	C	0.000010	1.175612	0.458859
C40	C	0.000005	1.167099	0.575991
H41	H	0.000018	0.668929	0.488255
H42	H	0.000026	1.406421	-0.057719
H43	H	0.000025	1.062753	-0.046512
H44	H	0.000016	0.980029	-0.208513
H45	H	0.000022	0.474870	0.465035
Br46	Br	0.000006	0.867971	0.467637
Br47	Br	-0.000001	0.945270	-0.436390
H48	H	0.000094	0.550647	0.121365
H49	H	0.000023	0.731995	0.045851
H50	H	0.000005	0.926085	0.069068
Br51	Br	-0.000001	1.391788	-0.450919
Br52	Br	-0.000003	1.474509	-0.288925
