data_functionalizedCrystal
_audit_creation_method	'MofGen! by Chris Wilmer'
_symmetry_space_group_name_H-M	'P1'
_symmetry_Int_Tables_number	1
_symmetry_cell_setting	triclinic
loop_
_symmetry_equiv_pos_as_xyz
  x,y,z
_cell_length_a	12.645331
_cell_length_b	18.050589
_cell_length_c	12.645323
_cell_angle_alpha	90.025443
_cell_angle_beta	90.022676
_cell_angle_gamma	90.027200
loop_
_atom_site_label
_atom_site_type_symbol
_atom_site_fract_x
_atom_site_fract_y
_atom_site_fract_z
Zn1	Zn	1.620654	-0.295674	0.599442
Zn2	Zn	2.120654	0.204326	1.099442
Zn3	Zn	1.620503	-0.419873	0.422180
Zn4	Zn	2.120503	0.080127	0.922180
Zn5	Zn	1.443368	-0.295699	0.422186
Zn6	Zn	1.943368	0.204301	0.922186
Zn7	Zn	1.443317	-0.419824	0.599396
Zn8	Zn	1.943317	0.080176	1.099396
O9	O	1.531961	-0.357767	0.510801
O10	O	2.031961	0.142233	1.010801
O11	O	1.768981	-0.312159	0.575945
O12	O	2.268981	0.187841	1.075945
O13	O	1.596964	-0.403432	0.273834
O14	O	2.096964	0.096568	0.773834
O15	O	1.466970	-0.191771	0.445722
O16	O	1.966970	0.308229	0.945722
O17	O	1.768870	-0.403407	0.445711
O18	O	2.268870	0.096593	0.945711
O19	O	1.597221	-0.191753	0.575951
O20	O	2.097221	0.308247	1.075951
O21	O	1.466824	-0.312202	0.273838
O22	O	1.966824	0.187798	0.773838
O23	O	1.295014	-0.312155	0.445677
O24	O	1.795014	0.187845	0.945677
O25	O	1.466883	-0.403325	0.747749
O26	O	1.966883	0.096675	1.247749
O27	O	1.294977	-0.403349	0.575872
O28	O	1.794977	0.096651	1.075872
O29	O	1.597172	-0.312112	0.747783
O30	O	2.097172	0.187888	1.247783
O31	O	1.596914	-0.523791	0.445666
O32	O	2.096914	-0.023791	0.945666
O33	O	1.466737	-0.523755	0.575866
O34	O	1.966737	-0.023755	1.075866
C35	C	1.256531	-0.357750	0.510770
C36	C	1.756531	0.142250	1.010770
C37	C	1.138701	-0.357760	0.510783
C38	C	1.638701	0.142240	1.010783
C39	C	0.971125	-0.300126	0.429329
C40	C	1.471125	0.199874	0.929329
C41	C	1.093685	-0.300275	0.428970
C42	C	1.593685	0.199725	0.928970
C43	C	1.094160	-0.435993	0.480267
C44	C	1.594160	0.064007	0.980267
C45	C	0.971562	-0.435678	0.479711
C46	C	1.471562	0.064322	0.979711
C47	C	0.971557	-0.337906	0.623067
C48	C	1.471557	0.162094	1.123067
C49	C	1.094163	-0.336158	0.622443
C50	C	1.594163	0.163842	1.122443
C51	C	1.531833	-0.550720	0.510784
C52	C	2.031833	-0.050720	1.010784
C53	C	1.531875	-0.633265	0.510811
C54	C	2.031875	-0.133265	1.010811
C55	C	1.461154	-0.832724	0.581589
C56	C	1.961154	-0.332724	1.081589
C57	C	1.435307	-0.882166	0.484854
C58	C	1.935307	-0.382166	0.984854
C59	C	1.531979	-0.784396	0.510825
C60	C	2.031979	-0.284396	1.010825
C61	C	1.557878	-0.882035	0.607571
C62	C	2.057878	-0.382035	1.107571
C63	C	1.532078	-0.930381	0.510847
C64	C	2.032078	-0.430381	1.010847
C65	C	1.506082	-0.832751	0.414039
C66	C	2.006082	-0.332751	0.914039
C67	C	1.628697	-0.832616	0.536821
C68	C	2.128697	-0.332616	1.036821
C69	C	1.602887	-0.882036	0.440020
C70	C	2.102887	-0.382036	0.940020
C71	C	1.531919	-0.700297	0.510814
C72	C	2.031919	-0.200297	1.010814
C73	C	1.532137	-1.014477	0.510847
C74	C	2.032137	-0.514477	1.010847
C75	C	1.808466	-0.357786	0.510832
C76	C	2.308466	0.142214	1.010832
C77	C	1.926296	-0.357793	0.510846
C78	C	2.426296	0.142207	1.010846
C79	C	1.532039	-0.357710	0.787307
C80	C	2.032039	0.142290	1.287307
C81	C	1.532072	-0.357686	0.905137
C82	C	2.032072	0.142314	1.405137
C83	C	1.532118	-0.164062	0.510842
C84	C	2.032118	0.335938	1.010842
C85	C	1.532185	-0.081516	0.510859
C86	C	2.032185	0.418484	1.010859
C87	C	1.531944	-0.357771	0.235371
C88	C	2.031944	0.142229	0.735371
C89	C	1.532116	-0.357586	0.117542
C90	C	2.032116	0.142414	0.617542
C91	C	1.449855	-0.414797	1.072679
C92	C	1.949855	0.085203	1.572679
C93	C	1.450070	-0.415080	0.950119
C94	C	1.950070	0.084920	1.450119
C95	C	1.643766	-0.378927	0.949656
C96	C	2.143766	0.121073	1.449656
C97	C	1.643315	-0.379285	1.072254
C98	C	2.143315	0.120715	1.572254
C99	C	1.503651	-0.279014	1.072336
C100	C	2.003651	0.220986	1.572336
C101	C	1.501159	-0.279485	0.949729
C102	C	2.001159	0.220515	1.449729
H103	H	0.941676	-0.241938	0.448251
H104	H	1.441676	0.258062	0.948251
C105	C	1.338186	-0.397115	0.909448
C106	C	1.838186	0.102885	1.409448
H107	H	1.292191	-0.389582	0.967854
H108	H	1.792191	0.110418	1.467854
H109	H	1.340456	-0.353469	0.867565
H110	H	1.840456	0.146531	1.367565
H111	H	1.312876	-0.437220	0.867851
H112	H	1.812876	0.062780	1.367851
H113	H	1.484121	-0.811191	0.332209
H114	H	1.984121	-0.311191	0.832209
C115	C	0.932396	-0.394640	0.705124
C116	C	1.432396	0.105360	1.205124
H117	H	0.960012	-0.382336	0.772773
H118	H	1.460012	0.117664	1.272773
H119	H	0.857327	-0.393826	0.707616
H120	H	1.357327	0.106174	1.207616
H121	H	0.955707	-0.442765	0.685608
H122	H	1.455707	0.057235	1.185608
H123	H	1.662823	-0.903551	0.380117
H124	H	2.162823	-0.403551	0.880117
C125	C	1.135547	-0.459171	0.370625
C126	C	1.635547	0.040829	0.870625
H127	H	1.108154	-0.506590	0.352861
H128	H	1.608154	-0.006590	0.852861
H129	H	1.113423	-0.424012	0.319318
H130	H	1.613423	0.075988	0.819318
H131	H	1.210602	-0.461221	0.372061
H132	H	1.710602	0.038779	0.872061
H133	H	1.468461	-0.472682	1.103498
H134	H	1.968461	0.027318	1.603498
H135	H	0.940675	-0.281854	0.650819
H136	H	1.440675	0.218146	1.150819
H137	H	1.123801	-0.242262	0.448097
H138	H	1.623801	0.257738	0.948097
C139	C	1.584581	-0.221427	1.111529
C140	C	2.084581	0.278573	1.611529
H141	H	1.566972	-0.174063	1.083946
H142	H	2.066972	0.325937	1.583946
H143	H	1.583416	-0.219664	1.186600
H144	H	2.083416	0.280336	1.686600
H145	H	1.653290	-0.235029	1.088205
H146	H	2.153290	0.264971	1.588205
H147	H	1.556698	-0.234606	0.919109
H148	H	2.056698	0.265394	1.419109
H149	H	1.710423	-0.810837	0.558835
H150	H	2.210423	-0.310837	1.058835
H151	H	1.418962	-0.263466	0.920630
H152	H	1.918962	0.236534	1.420630
H153	H	1.579744	-0.903684	0.689379
H154	H	2.079744	-0.403684	1.189379
H155	H	1.366784	-0.401633	1.102153
H156	H	1.866784	0.098367	1.602153
H157	H	0.940274	-0.313125	0.346658
H158	H	1.440274	0.186875	0.846658
H159	H	1.468859	-0.473329	0.920805
H160	H	1.968859	0.026671	1.420805
C161	C	1.133554	-0.495593	0.557945
C162	C	1.633554	0.004407	1.057945
H163	H	1.177625	-0.473241	0.609798
H164	H	1.677625	0.026759	1.109798
H165	H	1.074704	-0.518285	0.591559
H166	H	1.574704	-0.018285	1.091559
H167	H	1.172660	-0.532018	0.520396
H168	H	1.672660	-0.032018	1.020396
H169	H	1.667445	-0.436723	1.100864
H170	H	2.167445	0.063277	1.600864
H171	H	1.122959	-0.313420	0.345809
H172	H	1.622959	0.186580	0.845809
C173	C	1.133500	-0.258388	0.653536
C174	C	1.633500	0.241612	1.153536
H175	H	1.176891	-0.239159	0.598708
H176	H	1.676891	0.260841	1.098708
H177	H	1.074600	-0.226572	0.663966
H178	H	1.574600	0.273428	1.163966
H179	H	1.173304	-0.261458	0.717113
H180	H	1.673304	0.238542	1.217113
H181	H	0.942911	-0.452544	0.397672
H182	H	1.442911	0.047456	0.897672
C183	C	1.728792	-0.324422	0.910303
C184	C	2.228792	0.175578	1.410303
H185	H	1.795698	-0.338287	0.938161
H186	H	2.295698	0.161713	1.438161
H187	H	1.731403	-0.325599	0.835246
H188	H	2.231403	0.174401	1.335246
H189	H	1.711735	-0.275751	0.933243
H190	H	2.211735	0.224249	1.433243
H191	H	1.423623	-0.259652	1.103240
H192	H	1.923623	0.240348	1.603240
H193	H	1.353563	-0.903947	0.462887
H194	H	1.853563	-0.403947	0.962887
C195	C	0.931492	-0.495625	0.556512
C196	C	1.431492	0.004375	1.056512
H197	H	0.990144	-0.520074	0.587897
H198	H	1.490144	-0.020074	1.087897
H199	H	0.889825	-0.473158	0.610150
H200	H	1.389825	0.026842	1.110150
H201	H	0.889802	-0.530619	0.518888
H202	H	1.389802	-0.030619	1.018888
H203	H	1.401172	-0.811071	0.641347
H204	H	1.901172	-0.311071	1.141347
H205	H	1.668310	-0.435763	0.918967
H206	H	2.168310	0.064237	1.418967
C207	C	1.135542	-0.388768	0.708882
C208	C	1.635542	0.111232	1.208882
H209	H	1.180719	-0.424759	0.677864
H210	H	1.680719	0.075241	1.177864
H211	H	1.173873	-0.361144	0.760106
H212	H	1.673873	0.138856	1.260106
H213	H	1.077550	-0.412876	0.741989
H214	H	1.577550	0.087124	1.241989
C215	C	1.728932	-0.325452	1.112355
C216	C	2.228932	0.174548	1.612355
H217	H	1.763840	-0.303465	1.053715
H218	H	2.263840	0.196535	1.553715
H219	H	1.696932	-0.287876	1.154085
H220	H	2.196932	0.212124	1.654085
H221	H	1.778862	-0.351816	1.153987
H222	H	2.278862	0.148184	1.653987
