data_functionalizedCrystal
_audit_creation_method	'MofGen! by Chris Wilmer'
_symmetry_space_group_name_H-M	'P1'
_symmetry_Int_Tables_number	1
_symmetry_cell_setting	triclinic
loop_
_symmetry_equiv_pos_as_xyz
  x,y,z
_cell_length_a	14.044220
_cell_length_b	16.109301
_cell_length_c	14.586319
_cell_angle_alpha	89.996867
_cell_angle_beta	90.000961
_cell_angle_gamma	91.674821
loop_
_atom_site_label
_atom_site_type_symbol
_atom_site_fract_x
_atom_site_fract_y
_atom_site_fract_z
O1	O	0.121829	-1.112198	0.076185
O2	O	0.621829	-0.612198	0.576185
O3	O	0.136991	-0.871264	0.076199
O4	O	0.636991	-0.371264	0.576199
O5	O	-0.008573	-0.988115	0.076183
O6	O	0.491427	-0.488115	0.576183
O7	O	0.267394	-0.995348	0.076201
O8	O	0.767394	-0.495348	0.576201
O9	O	-0.008565	-0.988100	-0.076298
O10	O	0.491435	-0.488100	0.423702
O11	O	0.137000	-0.871249	-0.076281
O12	O	0.637000	-0.371249	0.423719
O13	O	0.121838	-1.112183	-0.076296
O14	O	0.621838	-0.612183	0.423704
Cu15	Cu	0.129420	-0.991715	-0.090212
Cu16	Cu	0.629420	-0.491715	0.409788
Cu17	Cu	0.129409	-0.991733	0.090115
Cu18	Cu	0.629409	-0.491733	0.590115
O19	O	0.267402	-0.995333	-0.076280
O20	O	0.767402	-0.495333	0.423720
C21	C	-0.043882	-0.984941	-0.000058
C22	C	0.456118	-0.484941	0.499942
C23	C	-0.149105	-0.975498	-0.000058
C24	C	0.350895	-0.475498	0.499942
C25	C	0.136381	-0.840236	-0.000039
C26	C	0.636381	-0.340236	0.499961
C27	C	0.134540	-0.747804	-0.000034
C28	C	0.634540	-0.247804	0.499966
C29	C	0.122448	-1.143211	-0.000056
C30	C	0.622448	-0.643211	0.499944
C31	C	0.124289	-1.235644	-0.000055
C32	C	0.624289	-0.735644	0.499945
C33	C	-0.341761	-0.958232	-0.000044
C34	C	0.158239	-0.458232	0.499956
C35	C	-0.399415	-1.025212	-0.000045
C36	C	0.100585	-0.525212	0.499955
C37	C	-0.506616	-1.015605	-0.000037
C38	C	-0.006616	-0.515605	0.499963
C39	C	-0.234551	-0.967838	-0.000052
C40	C	0.265449	-0.467838	0.499948
C41	C	0.302711	-0.998506	-0.000037
C42	C	0.802711	-0.498506	0.499963
C43	C	0.407934	-1.007950	-0.000031
C44	C	0.907934	-0.507950	0.499969
N45	N	0.129426	-0.991709	-0.217043
N46	N	0.629426	-0.491709	0.282957
C47	C	0.216634	-0.531640	-0.000039
C48	C	0.716634	-0.031640	0.499961
C49	C	0.214896	-0.444790	-0.000045
C50	C	0.714896	0.055210	0.499955
C51	C	0.042189	-0.451815	-0.000052
C52	C	0.542189	0.048185	0.499948
C53	C	0.043927	-0.538663	-0.000053
C54	C	0.543927	-0.038663	0.499947
C55	C	0.131153	-0.578573	-0.000042
C56	C	0.631153	-0.078573	0.499958
C57	C	0.127677	-0.404875	-0.000047
C58	C	0.627677	0.095125	0.499953
C59	C	0.125792	-0.310709	-0.000054
C60	C	0.625792	0.189291	0.499946
C61	C	0.133038	-0.672745	-0.000037
C62	C	0.633038	-0.172745	0.499963
C63	C	0.186918	-1.046409	-0.452049
C64	C	0.686918	-0.546409	0.047951
C65	C	0.186912	-1.046417	-0.548030
C66	C	0.686912	-0.546417	-0.048030
C67	C	0.071897	-0.937042	-0.548041
C68	C	0.571897	-0.437042	-0.048041
C69	C	0.071899	-0.937039	-0.452062
C70	C	0.571899	-0.437039	0.047938
C71	C	0.129415	-0.991721	-0.404068
C72	C	0.629415	-0.491721	0.095932
C73	C	0.129406	-0.991733	-0.596029
C74	C	0.629406	-0.491733	-0.096029
C75	C	0.129399	-0.991741	-0.700096
C76	C	0.629399	-0.491741	-0.200096
C77	C	0.129422	-0.991714	-0.299994
C78	C	0.629422	-0.491714	0.200006
N79	N	0.129395	-0.991745	0.216946
N80	N	0.629395	-0.491745	0.716946
H81	H	-0.368264	-1.089769	0.000012
H82	H	0.131736	-0.589769	0.500012
H83	H	0.025068	-0.892504	-0.412994
H84	H	0.525068	-0.392504	0.087006
H85	H	0.233735	-1.090950	-0.587092
H86	H	0.733735	-0.590950	-0.087092
O87	O	-0.051885	-0.408766	-0.000064
O88	O	0.448115	0.091234	0.499936
H89	H	-0.092966	-0.427128	0.062078
H90	H	0.407034	0.072872	0.562078
H91	H	0.025070	-0.892521	-0.587129
H92	H	0.525070	-0.392521	-0.087129
H93	H	-0.372911	-0.893680	-0.000038
H94	H	0.127089	-0.393680	0.499962
H95	H	0.287658	-0.564132	-0.000037
H96	H	0.787658	-0.064132	0.499963
H97	H	-0.025686	-0.576877	-0.000058
H98	H	0.474314	-0.076877	0.499942
O99	O	0.248942	-1.105390	-0.400280
O100	O	0.748942	-0.605390	0.099720
H101	H	0.288920	-1.143424	-0.449773
H102	H	0.788920	-0.643424	0.050227
H103	H	0.284504	-0.406580	-0.000045
H104	H	0.784504	0.093420	0.499955
