data_functionalizedCrystal
_audit_creation_method	'MofGen! by Chris Wilmer'
_symmetry_space_group_name_H-M	'P1'
_symmetry_Int_Tables_number	1
_symmetry_cell_setting	triclinic
loop_
_symmetry_equiv_pos_as_xyz
  x,y,z
_cell_length_a	23.532407
_cell_length_b	22.010155
_cell_length_c	19.188930
_cell_angle_alpha	89.999121
_cell_angle_beta	97.003270
_cell_angle_gamma	90.003069
loop_
_atom_site_label
_atom_site_type_symbol
_atom_site_fract_x
_atom_site_fract_y
_atom_site_fract_z
O1	O	0.755444	0.050456	-0.084747
O2	O	1.255444	0.550456	0.415253
O3	O	0.589606	0.050475	-0.097010
O4	O	1.089606	0.550475	0.402990
O5	O	0.677311	0.050453	0.010792
O6	O	1.177311	0.550453	0.510792
O7	O	0.667739	0.050478	-0.192549
O8	O	1.167739	0.550478	0.307451
O9	O	0.677295	-0.050597	0.010776
O10	O	1.177295	0.449403	0.510776
O11	O	0.589590	-0.050576	-0.097026
O12	O	1.089590	0.449424	0.402974
O13	O	0.755428	-0.050594	-0.084763
O14	O	1.255428	0.449406	0.415237
Cu15	Cu	0.672508	-0.059812	-0.090896
Cu16	Cu	1.172508	0.440188	0.409104
Cu17	Cu	0.672526	0.059692	-0.090877
Cu18	Cu	1.172526	0.559692	0.409123
O19	O	0.667723	-0.050573	-0.192566
O20	O	1.167723	0.449427	0.307434
C21	C	0.568382	-0.000048	-0.096706
C22	C	1.068382	0.499952	0.403294
C23	C	0.505163	-0.000041	-0.095767
C24	C	1.005163	0.499959	0.404233
N25	N	0.672499	-0.143864	-0.090909
N26	N	1.172499	0.356136	0.409091
C27	C	0.676993	-0.000074	0.036794
C28	C	1.176993	0.499926	0.536794
C29	C	0.676062	-0.000079	0.114296
C30	C	1.176062	0.499921	0.614296
C31	C	0.106183	-0.000062	-0.153674
C32	C	0.606183	0.499938	0.346326
C33	C	0.046780	-0.000066	-0.152801
C34	C	0.546780	0.499934	0.347199
O35	O	0.010150	-0.000081	-0.206481
O36	O	0.510150	0.499919	0.293519
N37	N	0.024018	-0.000073	-0.088713
N38	N	0.524018	0.499927	0.411287
C39	C	0.060662	-0.000082	-0.025492
C40	C	0.560662	0.499918	0.474508
O41	O	0.035846	-0.000088	0.029100
O42	O	0.535846	0.499912	0.529100
C43	C	0.120062	-0.000082	-0.026365
C44	C	0.620062	0.499918	0.473635
C45	C	0.142821	-0.000069	-0.090458
C46	C	0.642821	0.499931	0.409542
C47	C	0.128942	-0.000050	-0.217761
C48	C	0.628942	0.499950	0.282239
C49	C	0.188340	-0.000045	-0.218633
C50	C	0.688340	0.499955	0.281367
C51	C	0.224979	-0.000052	-0.155417
C52	C	0.724979	0.499948	0.344583
C53	C	0.202219	-0.000064	-0.091330
C54	C	0.702219	0.499936	0.408670
C55	C	0.156705	-0.000096	0.036855
C56	C	0.656705	0.499904	0.536855
C57	C	0.216109	-0.000097	0.035976
C58	C	0.716109	0.499903	0.535976
C59	C	0.238868	-0.000084	-0.028116
C60	C	0.738868	0.499916	0.471884
C61	C	0.298256	-0.000067	-0.028986
C62	C	0.798256	0.499933	0.471014
N63	N	0.321018	-0.000060	-0.093075
N64	N	0.821018	0.499940	0.406925
C65	C	0.284379	-0.000053	-0.156290
C66	C	0.784379	0.499947	0.343710
C67	C	-0.064085	-0.000082	-0.023664
C68	C	0.435915	0.499918	0.476336
C69	C	-0.123485	-0.000077	-0.022790
C70	C	0.376515	0.499923	0.477210
C71	C	-0.137362	-0.000062	-0.150100
C72	C	0.362638	0.499938	0.349900
C73	C	-0.077961	-0.000063	-0.150972
C74	C	0.422039	0.499937	0.349028
C75	C	-0.041323	-0.000075	-0.087752
C76	C	0.458677	0.499925	0.412248
C77	C	0.409120	-0.000042	-0.158117
C78	C	0.909120	0.499958	0.341883
C79	C	0.468524	-0.000034	-0.158983
C80	C	0.968524	0.499966	0.341017
C81	C	0.482396	-0.000052	-0.031674
C82	C	0.982396	0.499948	0.468326
C83	C	0.422997	-0.000056	-0.030807
C84	C	0.922997	0.499944	0.469193
C85	C	0.386360	-0.000053	-0.094034
C86	C	0.886360	0.499947	0.405966
O87	O	0.334921	-0.000054	0.024666
O88	O	0.834921	0.499946	0.524666
O89	O	0.309203	-0.000054	-0.210874
O90	O	0.809203	0.499946	0.289126
C91	C	0.776652	-0.000070	-0.085067
C92	C	1.276652	0.499930	0.414933
C93	C	0.839871	-0.000073	-0.086006
C94	C	1.339871	0.499927	0.413994
C95	C	0.711364	-0.563653	-0.043149
C96	C	1.211364	-0.063653	0.456851
C97	C	0.711367	-0.627261	-0.043144
C98	C	1.211367	-0.127261	0.456856
O99	O	0.744389	-0.660160	-0.002545
O100	O	1.244389	-0.160160	0.497455
N101	N	0.672526	-0.659071	-0.090862
N102	N	1.172526	-0.159071	0.409138
C103	C	0.633676	-0.627271	-0.138584
C104	C	1.133676	-0.127271	0.361416
O105	O	0.600639	-0.660169	-0.179172
O106	O	1.100639	-0.160169	0.320828
C107	C	0.633672	-0.563664	-0.138585
C108	C	1.133672	-0.063664	0.361415
C109	C	0.672519	-0.531857	-0.090868
C110	C	1.172519	-0.031857	0.409132
C111	C	0.750208	-0.531846	0.004565
C112	C	1.250208	-0.031846	0.504565
C113	C	0.750206	-0.468243	0.004559
C114	C	1.250206	0.031757	0.504559
C115	C	0.711360	-0.436447	-0.043160
C116	C	1.211360	0.063553	0.456840
C117	C	0.672517	-0.468254	-0.090874
C118	C	1.172517	0.031746	0.409126
C119	C	0.594820	-0.531865	-0.186303
C120	C	1.094820	-0.031865	0.313697
C121	C	0.594818	-0.468254	-0.186299
C122	C	1.094818	0.031746	0.313701
C123	C	0.633665	-0.436447	-0.138582
C124	C	1.133665	0.063553	0.361418
C125	C	0.633669	-0.372855	-0.138599
C126	C	1.133669	0.127145	0.361401
N127	N	0.672510	-0.341044	-0.090881
N128	N	1.172510	0.158956	0.409119
C129	C	0.711355	-0.372840	-0.043161
C130	C	1.211355	0.127160	0.456839
C131	C	0.633689	-0.760849	-0.138578
C132	C	1.133689	-0.260849	0.361422
C133	C	0.633696	-0.824454	-0.138581
C134	C	1.133696	-0.324454	0.361419
C135	C	0.711386	-0.824439	-0.043139
C136	C	1.211386	-0.324439	0.456861
C137	C	0.711381	-0.760833	-0.043140
C138	C	1.211381	-0.260833	0.456860
C139	C	0.672530	-0.729038	-0.090859
C140	C	1.172530	-0.229038	0.409141
C141	C	0.711348	-0.239269	-0.043178
C142	C	1.211348	0.260731	0.456822
C143	C	0.711344	-0.175660	-0.043190
C144	C	1.211344	0.324340	0.456810
C145	C	0.633653	-0.175680	-0.138628
C146	C	1.133653	0.324320	0.361372
C147	C	0.633658	-0.239283	-0.138619
C148	C	1.133658	0.260717	0.361381
C149	C	0.672508	-0.271076	-0.090888
C150	C	1.172508	0.228924	0.409112
O151	O	0.600662	-0.339915	-0.179175
O152	O	1.100662	0.160085	0.320825
O153	O	0.744382	-0.339935	-0.002575
O154	O	1.244382	0.160065	0.497425
N155	N	0.672540	0.143745	-0.090859
N156	N	1.172540	0.643745	0.409141
C157	C	0.668041	-0.000044	-0.218568
C158	C	1.168041	0.499956	0.281432
C159	C	0.668972	-0.000035	-0.296069
C160	C	1.168972	0.499965	0.203931
C161	C	0.727524	-0.000088	0.159384
C162	C	1.227524	0.499912	0.659384
C163	C	0.726650	-0.000078	0.232205
C164	C	1.226650	0.499922	0.732205
C165	C	0.674311	-0.000072	0.259935
C166	C	1.174311	0.499928	0.759935
C167	C	0.622842	-0.000059	0.214837
C168	C	1.122842	0.499941	0.714837
C169	C	0.623718	-0.000063	0.142017
C170	C	1.123718	0.499937	0.642017
N171	N	0.634299	-0.034456	0.367806
N172	N	1.134299	0.465544	0.867806
N173	N	0.633470	-0.034454	0.436982
N174	N	1.133470	0.465546	0.936982
C175	C	0.671670	-0.000059	0.479335
C176	C	1.171670	0.499941	0.979335
N177	N	0.710738	0.034326	0.449899
N178	N	1.210738	0.534326	0.949899
N179	N	0.711568	0.034321	0.380717
N180	N	1.211568	0.534321	0.880717
C181	C	0.673356	-0.000067	0.338894
C182	C	1.173356	0.499933	0.838894
C183	C	0.722188	-0.000056	0.603384
C184	C	1.222188	0.499944	1.103384
C185	C	0.721311	-0.000043	0.676206
C186	C	1.221311	0.499957	1.176206
C187	C	0.617502	-0.000030	0.658836
C188	C	1.117502	0.499970	1.158836
C189	C	0.618380	-0.000038	0.586016
C190	C	1.118380	0.499962	1.086016
C191	C	0.670724	-0.000054	0.558295
C192	C	1.170724	0.499946	1.058295
H193	H	0.379297	-0.000041	-0.209602
H194	H	0.879297	0.499959	0.290398
H195	H	0.763220	-0.000046	0.712917
H196	H	1.263220	0.499954	1.212917
H197	H	0.563178	-0.442370	-0.225157
H198	H	1.063178	0.057630	0.274843
H199	H	0.742980	-0.149765	-0.004333
H200	H	1.242980	0.350235	0.495667
C201	C	0.753446	-0.726246	0.008748
C202	C	1.253446	-0.226246	0.508748
C203	C	0.723191	-0.689751	0.051289
C204	C	1.223191	-0.189751	0.551289
C205	C	0.761914	-0.657888	0.099112
C206	C	1.261914	-0.157888	0.599112
H207	H	0.776578	-0.754245	0.037229
H208	H	1.276578	-0.254245	0.537229
H209	H	0.777100	-0.701378	-0.016155
H210	H	1.277100	-0.201378	0.483845
H211	H	0.699546	-0.714616	0.076190
H212	H	1.199546	-0.214616	0.576190
H213	H	0.700061	-0.661740	0.022827
H214	H	1.200061	-0.161740	0.522827
H215	H	0.785568	-0.633020	0.074210
H216	H	1.285568	-0.133020	0.574210
H217	H	0.785044	-0.685891	0.127589
H218	H	1.285044	-0.185891	0.627589
H219	H	0.741392	-0.633118	0.127978
H220	H	1.241392	-0.133118	0.627978
C221	C	0.792277	-0.433582	0.056366
C222	C	1.292277	0.066418	0.556366
C223	C	0.827074	-0.396951	0.019559
C224	C	1.327074	0.103049	0.519559
C225	C	0.865766	-0.364979	0.067311
C226	C	1.365766	0.135021	0.567311
H227	H	0.771754	-0.408794	0.085202
H228	H	1.271754	0.091206	0.585202
H229	H	0.815451	-0.461534	0.084883
H230	H	1.315451	0.038466	0.584883
H231	H	0.803903	-0.369002	-0.008946
H232	H	1.303903	0.130998	0.491054
H233	H	0.847609	-0.421724	-0.009275
H234	H	1.347609	0.078276	0.490725
H235	H	0.888940	-0.392931	0.095828
H236	H	1.388940	0.107069	0.595828
H237	H	0.845239	-0.340194	0.096145
H238	H	1.345239	0.159806	0.596145
H239	H	0.889384	-0.340125	0.042344
H240	H	1.389384	0.159875	0.542344
C241	C	0.779074	-0.000030	0.573417
C242	C	1.279074	0.499970	1.073417
C243	C	0.823957	-0.000011	0.628494
C244	C	1.323957	0.499989	1.128494
C245	C	0.876369	0.000024	0.600917
C246	C	1.376369	0.500024	1.100917
H247	H	0.781654	-0.035260	0.545384
H248	H	1.281654	0.464740	1.045384
H249	H	0.781606	0.035221	0.545388
H250	H	1.281606	0.535221	1.045388
H251	H	0.821427	-0.035258	0.656510
H252	H	1.321427	0.464742	1.156510
H253	H	0.821397	0.035217	0.656530
H254	H	1.321397	0.535217	1.156530
H255	H	0.878900	0.035275	0.572888
H256	H	1.378900	0.535275	1.072888
H257	H	0.878943	-0.035207	0.572885
H258	H	1.378943	0.464793	1.072885
H259	H	0.906828	0.000043	0.638282
H260	H	1.406828	0.500043	1.138282
H261	H	0.574886	-0.000022	0.681413
H262	H	1.074886	0.499978	1.181413
C263	C	0.562444	-0.000068	0.537174
C264	C	1.062444	0.499932	1.037174
C265	C	0.516419	-0.000076	0.577041
C266	C	1.016419	0.499924	1.077041
C267	C	0.464880	-0.000110	0.532071
C268	C	0.964880	0.499890	1.032071
H269	H	0.560551	0.035159	0.508386
H270	H	1.060551	0.535159	1.008386
H271	H	0.560592	-0.035322	0.508419
H272	H	1.060592	0.464678	1.008419
H273	H	0.518269	0.035175	0.605783
H274	H	1.018269	0.535175	1.105783
H275	H	0.518293	-0.035300	0.605827
H276	H	1.018293	0.464700	1.105827
H277	H	0.463028	-0.035365	0.503317
H278	H	0.963028	0.464635	1.003317
H279	H	0.462993	0.035117	0.503286
H280	H	0.962993	0.535117	1.003286
H281	H	0.433646	-0.000122	0.559115
H282	H	0.933646	0.499878	1.059115
C283	C	0.522156	0.000065	0.036979
C284	C	1.022156	0.500065	0.536979
C285	C	0.511912	0.052053	0.075602
C286	C	1.011912	0.552053	0.575602
C287	C	0.548535	0.052181	0.138843
C288	C	1.048535	0.552181	0.638843
H289	H	0.515308	-0.035138	0.063353
H290	H	1.015308	0.464862	0.563353
H291	H	0.560799	0.000100	0.027302
H292	H	1.060799	0.500100	0.527302
H293	H	0.473278	0.052012	0.085281
H294	H	0.973278	0.552012	0.585281
H295	H	0.518764	0.087264	0.049249
H296	H	1.018764	0.587264	0.549249
H297	H	0.587179	0.052216	0.129166
H298	H	1.087179	0.552216	0.629166
H299	H	0.541685	0.016976	0.165211
H300	H	1.041685	0.516976	0.665211
H301	H	0.541594	0.087457	0.165054
H302	H	1.041594	0.587457	0.665054
H303	H	0.206864	-0.000034	-0.270824
H304	H	0.706864	0.499966	0.229176
C305	C	0.493122	-0.000053	-0.228645
C306	C	0.993122	0.499947	0.271355
C307	C	0.448316	-0.000066	-0.283817
C308	C	0.948316	0.499934	0.216183
C309	C	0.470952	-0.000093	-0.347997
C310	C	0.970952	0.499907	0.152003
H311	H	0.515996	0.035178	-0.231729
H312	H	1.015996	0.535178	0.268271
H313	H	0.515989	-0.035304	-0.231676
H314	H	1.015989	0.464696	0.268324
H315	H	0.425459	0.035181	-0.280788
H316	H	0.925459	0.535181	0.219212
H317	H	0.425438	-0.035294	-0.280757
H318	H	0.925438	0.464706	0.219243
H319	H	0.493819	-0.035343	-0.351028
H320	H	0.993819	0.464657	0.148972
H321	H	0.493826	0.035139	-0.351073
H322	H	0.993826	0.535139	0.148927
H323	H	0.440555	-0.000107	-0.385439
H324	H	0.940555	0.499893	0.114561
C325	C	0.782483	-0.000187	0.281251
C326	C	1.282483	0.499813	0.781251
C327	C	0.784990	-0.052167	0.323575
C328	C	1.284990	0.447833	0.823575
C329	C	0.836411	-0.052285	0.368767
C330	C	1.336411	0.447715	0.868767
H331	H	0.813829	-0.000227	0.254398
H332	H	1.313829	0.499773	0.754398
H333	H	0.784313	0.035033	0.310060
H334	H	1.284313	0.535033	0.810060
H335	H	0.783166	-0.087378	0.294769
H336	H	1.283166	0.412622	0.794769
H337	H	0.753656	-0.052138	0.350442
H338	H	1.253656	0.447862	0.850442
H339	H	0.838241	-0.017065	0.397577
H340	H	1.338241	0.482935	0.897577
H341	H	0.867752	-0.052324	0.341909
H342	H	1.367752	0.447676	0.841909
H343	H	0.838116	-0.087550	0.397494
H344	H	1.338116	0.412450	0.897494
C345	C	0.753532	-0.858890	0.008788
C346	C	1.253532	-0.358890	0.508788
C347	C	0.744478	-0.843409	0.077342
C348	C	1.244478	-0.343409	0.577342
C349	C	0.783295	-0.875128	0.125192
C350	C	1.283295	-0.375128	0.625192
H351	H	0.748009	-0.901336	0.002051
H352	H	1.248009	-0.401336	0.502051
H353	H	0.791533	-0.848452	0.001487
H354	H	1.291533	-0.348452	0.501487
H355	H	0.706486	-0.853851	0.084640
H356	H	1.206486	-0.353851	0.584640
H357	H	0.750006	-0.800969	0.084101
H358	H	1.250006	-0.300969	0.584101
H359	H	0.821295	-0.864690	0.117891
H360	H	1.321295	-0.364690	0.617891
H361	H	0.777768	-0.917572	0.118449
H362	H	1.277768	-0.417572	0.618449
H363	H	0.777160	-0.864624	0.171710
H364	H	1.277160	-0.364624	0.671710
H365	H	0.770147	-0.000099	0.136819
H366	H	1.270147	0.499901	0.636819
H367	H	0.099116	-0.000046	-0.269242
H368	H	0.599116	0.499954	0.230758
H369	H	-0.059435	-0.000055	-0.203162
H370	H	0.440565	0.499945	0.296838
C371	C	-0.148080	-0.000114	0.046869
C372	C	0.351920	0.499886	0.546869
C373	C	-0.103272	-0.000134	0.102039
C374	C	0.396728	0.499866	0.602039
C375	C	-0.125904	-0.000180	0.166221
C376	C	0.374096	0.499820	0.666221
H377	H	-0.170954	0.035112	0.049965
H378	H	0.329046	0.535112	0.549965
H379	H	-0.170946	-0.035369	0.049892
H380	H	0.329054	0.464631	0.549892
H381	H	-0.080415	0.035117	0.099018
H382	H	0.419585	0.535117	0.599018
H383	H	-0.080394	-0.035358	0.098966
H384	H	0.419606	0.464642	0.598966
H385	H	-0.148771	-0.035435	0.169243
H386	H	0.351229	0.464565	0.669243
H387	H	-0.148779	0.035047	0.169309
H388	H	0.351221	0.535047	0.669309
H389	H	-0.095506	-0.000199	0.203661
H390	H	0.404494	0.499801	0.703661
H391	H	0.580227	-0.000053	0.237419
H392	H	1.080227	0.499947	0.737419
H393	H	0.781840	-0.557729	0.043427
H394	H	1.281840	-0.057729	0.543427
C395	C	-0.024241	0.000011	0.044928
C396	C	0.475759	0.500011	0.544928
C397	C	0.010278	0.051992	0.048148
C398	C	0.510278	0.551992	0.548148
C399	C	0.046990	0.052094	0.111319
C400	C	0.546990	0.552094	0.611319
H401	H	-0.046238	0.000040	0.083276
H402	H	0.453762	0.500040	0.583276
H403	H	-0.000748	-0.035209	0.047242
H404	H	0.499252	0.464791	0.547242
H405	H	-0.013213	0.087203	0.045842
H406	H	0.486787	0.587203	0.545842
H407	H	0.032286	0.051975	0.009816
H408	H	0.532286	0.551975	0.509816
H409	H	0.070484	0.016874	0.113632
H410	H	0.570484	0.516874	0.613632
H411	H	0.024989	0.052121	0.149661
H412	H	0.524989	0.552121	0.649661
H413	H	0.070419	0.087359	0.113509
H414	H	0.570419	0.587359	0.613509
H415	H	-0.167204	-0.000059	-0.201573
H416	H	0.332796	0.499941	0.298427
C417	C	0.591459	-0.858873	-0.190425
C418	C	1.091459	-0.358873	0.309575
C419	C	0.557433	-0.817406	-0.232201
C420	C	1.057433	-0.317406	0.267799
C421	C	0.518509	-0.849088	-0.279960
C422	C	1.018509	-0.349088	0.220040
H423	H	0.611802	-0.883688	-0.219430
H424	H	1.111802	-0.383688	0.280570
H425	H	0.567784	-0.883673	-0.165473
H426	H	1.067784	-0.383673	0.334527
H427	H	0.581105	-0.792616	-0.257152
H428	H	1.081105	-0.292616	0.242848
H429	H	0.537077	-0.792589	-0.203215
H430	H	1.037077	-0.292589	0.296785
H431	H	0.494834	-0.873888	-0.255008
H432	H	0.994834	-0.373888	0.244992
H433	H	0.538857	-0.873902	-0.308961
H434	H	1.038857	-0.373902	0.191039
H435	H	0.495414	-0.820957	-0.308307
H436	H	0.995414	-0.320957	0.191693
H437	H	0.138185	-0.000107	0.089046
H438	H	0.638185	0.499893	0.589046
C439	C	0.255792	-0.000075	0.104693
C440	C	0.755792	0.499925	0.604693
C441	C	0.223141	-0.000070	0.161003
C442	C	0.723141	0.499930	0.661003
C443	C	0.259676	-0.000039	0.224314
C444	C	0.759676	0.499961	0.724314
H445	H	0.279267	-0.035302	0.107095
H446	H	0.779267	0.464698	0.607095
H447	H	0.279244	0.035180	0.107045
H448	H	0.779244	0.535180	0.607045
H449	H	0.199699	-0.035321	0.158652
H450	H	0.699699	0.464679	0.658652
H451	H	0.199668	0.035154	0.158624
H452	H	0.699668	0.535154	0.658624
H453	H	0.283128	0.035215	0.226666
H454	H	0.783128	0.535215	0.726666
H455	H	0.283149	-0.035267	0.226709
H456	H	0.783149	0.464733	0.726709
H457	H	0.237528	-0.000031	0.262527
H458	H	0.737528	0.499969	0.762527
H459	H	0.404466	-0.000058	0.021383
H460	H	0.904466	0.499942	0.521383
H461	H	0.602053	-0.734964	-0.177442
H462	H	1.102053	-0.234964	0.322558
C463	C	0.753591	-0.273671	0.008676
C464	C	1.253591	0.226329	0.508676
C465	C	0.787613	-0.232191	0.050444
C466	C	1.287613	0.267809	0.550444
C467	C	0.826539	-0.263859	0.098210
C468	C	1.326539	0.236141	0.598210
H469	H	0.733250	-0.298486	0.037687
H470	H	1.233250	0.201514	0.537687
H471	H	0.777269	-0.298470	-0.016270
H472	H	1.277269	0.201530	0.483730
H473	H	0.763938	-0.207403	0.075388
H474	H	1.263938	0.292597	0.575388
H475	H	0.807967	-0.207375	0.021452
H476	H	1.307967	0.292625	0.521452
H477	H	0.850217	-0.288658	0.073264
H478	H	1.350217	0.211342	0.573264
H479	H	0.806193	-0.288673	0.127216
H480	H	1.306193	0.211327	0.627216
H481	H	0.849631	-0.235720	0.126551
H482	H	1.349631	0.264280	0.626551
H483	H	0.563187	-0.557754	-0.225158
H484	H	1.063187	-0.057754	0.274842
H485	H	0.581810	-0.000056	0.105305
H486	H	1.081810	0.499944	0.605305
C487	C	0.591417	-0.273711	-0.190455
C488	C	1.091417	0.226289	0.309545
C489	C	0.557389	-0.232248	-0.232235
C490	C	1.057389	0.267752	0.267765
C491	C	0.518459	-0.263935	-0.279981
C492	C	1.018459	0.236065	0.220019
H493	H	0.611756	-0.298532	-0.219460
H494	H	1.111756	0.201468	0.280540
H495	H	0.567744	-0.298505	-0.165494
H496	H	1.067744	0.201495	0.334506
H497	H	0.581058	-0.207464	-0.257195
H498	H	1.081058	0.292536	0.242805
H499	H	0.537037	-0.207425	-0.203250
H500	H	1.037037	0.292575	0.296750
H501	H	0.494786	-0.288729	-0.255020
H502	H	0.994786	0.211271	0.244980
H503	H	0.538802	-0.288755	-0.308981
H504	H	1.038802	0.211245	0.191019
H505	H	0.495362	-0.235807	-0.308330
H506	H	0.995362	0.264193	0.191670
H507	H	0.602026	-0.149782	-0.177483
H508	H	1.102026	0.350218	0.322517
