data_functionalizedCrystal
_audit_creation_method	'MofGen! by Chris Wilmer'
_symmetry_space_group_name_H-M	'P1'
_symmetry_Int_Tables_number	1
_symmetry_cell_setting	triclinic
loop_
_symmetry_equiv_pos_as_xyz
  x,y,z
_cell_length_a	11.169417
_cell_length_b	12.759399
_cell_length_c	11.169409
_cell_angle_alpha	89.965848
_cell_angle_beta	89.979436
_cell_angle_gamma	90.015995
loop_
_atom_site_label
_atom_site_type_symbol
_atom_site_fract_x
_atom_site_fract_y
_atom_site_fract_z
Zn1	Zn	1.834931	-0.418157	-0.678527
Zn2	Zn	1.834801	-0.593883	-0.477837
Zn3	Zn	1.634215	-0.418221	-0.477861
Zn4	Zn	1.634208	-0.593797	-0.678482
O5	O	1.734539	-0.506015	-0.578177
O6	O	2.002864	-0.441477	-0.651914
O7	O	1.808141	-0.570643	-0.309891
O8	O	1.660897	-0.271192	-0.504509
O9	O	2.002768	-0.570581	-0.504468
O10	O	1.808363	-0.271145	-0.651937
O11	O	1.660771	-0.441585	-0.309908
O12	O	1.466264	-0.441503	-0.504466
O13	O	1.660886	-0.570436	-0.846438
O14	O	1.466259	-0.570498	-0.651861
O15	O	1.808356	-0.441394	-0.846471
O16	O	1.808135	-0.740892	-0.504425
O17	O	1.660760	-0.740830	-0.651838
C18	C	1.422714	-0.505999	-0.578162
C19	C	1.289314	-0.506017	-0.578184
C20	C	1.734465	-0.778982	-0.578150
C21	C	1.734544	-0.895759	-0.578178
C22	C	1.811369	-0.950618	-0.501508
C23	C	1.811446	-1.060342	-0.501548
C24	C	1.657862	-1.060337	-0.654933
C25	C	1.657791	-0.950615	-0.654898
C26	C	1.953107	-1.210221	-0.458834
C27	C	2.029922	-1.265085	-0.382145
C28	C	2.048383	-1.229550	-0.265042
C29	C	1.990012	-1.139154	-0.224604
C30	C	1.913187	-1.084296	-0.301287
C31	C	1.894749	-1.119829	-0.418407
C32	C	1.516129	-0.800734	-0.697599
C33	C	1.439298	-0.745875	-0.774277
C34	C	1.420825	-0.781407	-0.891382
C35	C	1.479175	-0.871807	-0.931815
C36	C	1.556006	-0.926667	-0.855137
C37	C	1.574482	-0.891126	-0.738033
C38	C	2.047581	-0.506031	-0.578193
C39	C	2.180981	-0.506038	-0.578200
C40	C	1.734635	-0.505898	-0.891220
C41	C	1.734676	-0.505849	-1.024620
C42	C	1.734645	-0.231981	-0.578231
C43	C	1.734691	-0.115205	-0.578254
C44	C	1.734512	-0.506055	-0.266352
C45	C	1.734703	-0.505808	-0.132953
H46	H	1.873867	-0.905957	-0.439040
H47	H	1.595371	-1.105015	-0.717393
C48	C	1.849751	-0.986262	-0.257183
C49	C	1.777686	-1.011616	-0.158742
C50	C	1.719250	-0.921327	-0.118071
H51	H	1.801272	-0.958601	-0.319498
H52	H	1.907485	-0.935480	-0.234035
H53	H	1.719960	-1.062381	-0.181894
H54	H	1.826136	-1.039265	-0.096404
H55	H	1.776984	-0.870544	-0.094923
H56	H	1.670778	-0.893672	-0.180393
H57	H	1.670356	-0.938515	-0.051268
C58	C	1.376015	-0.647616	-0.730593
C59	C	1.409448	-0.562448	-0.802300
C60	C	1.351170	-0.471918	-0.762105
H61	H	1.397974	-0.634158	-0.649899
H62	H	1.291834	-0.657431	-0.735399
H63	H	1.493610	-0.552633	-0.797482
H64	H	1.387488	-0.575871	-0.882995
H65	H	1.266989	-0.481733	-0.766912
H66	H	1.373133	-0.458471	-0.681412
H67	H	1.373838	-0.414123	-0.810759
C68	C	1.459018	-0.910195	-1.059022
C69	C	1.379272	-0.842787	-1.117530
C70	C	1.360681	-0.878107	-1.234720
H71	H	1.426380	-0.978929	-1.057114
H72	H	1.533146	-0.911126	-1.100748
H73	H	1.305158	-0.841867	-1.075816
H74	H	1.411888	-0.774049	-1.119472
H75	H	1.434810	-0.879039	-1.276445
H76	H	1.328047	-0.946842	-1.232799
H77	H	1.306582	-0.832371	-1.274436
H78	H	2.005040	-1.110235	-0.129242
H79	H	1.358259	-0.736731	-0.953811
H80	H	1.938095	-1.239155	-0.554193
H81	H	2.110930	-1.274227	-0.202601
C82	C	1.619596	-1.024737	-0.898931
C83	C	1.743592	-1.009905	-0.891743
C84	C	1.802210	-1.100227	-0.932056
H85	H	1.597747	-1.038138	-0.979667
H86	H	1.597108	-1.082667	-0.850398
H87	H	1.766070	-0.951993	-0.940276
H88	H	1.765475	-0.996518	-0.811019
H89	H	1.779723	-1.158157	-0.883523
H90	H	1.780353	-1.113622	-1.012789
H91	H	1.886347	-1.090180	-0.927173
H92	H	2.077449	-1.338685	-0.415081
C93	C	1.535953	-0.762230	-0.570382
C94	C	1.426512	-0.760939	-0.509237
C95	C	1.444723	-0.725491	-0.392038
H96	H	1.568469	-0.693451	-0.572281
H97	H	1.590018	-0.807856	-0.530448
H98	H	1.372466	-0.715314	-0.549161
H99	H	1.393978	-0.829707	-0.507305
H100	H	1.498788	-0.771118	-0.352105
H101	H	1.477241	-0.656714	-0.393950
H102	H	1.370473	-0.724620	-0.350534
