data_functionalizedCrystal
_audit_creation_method	'MofGen! by Chris Wilmer'
_symmetry_space_group_name_H-M	'P1'
_symmetry_Int_Tables_number	1
_symmetry_cell_setting	triclinic
loop_
_symmetry_equiv_pos_as_xyz
  x,y,z
_cell_length_a	25.639239
_cell_length_b	19.121102
_cell_length_c	19.120904
_cell_angle_alpha	89.911827
_cell_angle_beta	92.410104
_cell_angle_gamma	92.407118
loop_
_atom_site_label
_atom_site_type_symbol
_atom_site_fract_x
_atom_site_fract_y
_atom_site_fract_z
Zn1	Zn	-0.255751	-1.054765	-0.442042
Zn2	Zn	0.244249	-0.554765	0.057958
Zn3	Zn	-0.339618	-1.059658	-0.324799
Zn4	Zn	0.160382	-0.559658	0.175201
Zn5	Zn	-0.248315	-0.942536	-0.319827
Zn6	Zn	0.251685	-0.442536	0.180173
Zn7	Zn	-0.339266	-0.937469	-0.437001
Zn8	Zn	0.160734	-0.437469	0.062999
O9	O	-0.295738	-0.998607	-0.380917
O10	O	0.204262	-0.498607	0.119083
O11	O	-0.270136	-1.153518	-0.430680
O12	O	0.229864	-0.653518	0.069320
O13	O	-0.324541	-1.048290	-0.226035
O14	O	0.175459	-0.548290	0.273965
O15	O	-0.176139	-0.957496	-0.336067
O16	O	0.323861	-0.457496	0.163933
O17	O	-0.331752	-1.157113	-0.344542
O18	O	0.168248	-0.657113	0.155458
O19	O	-0.181603	-1.039950	-0.425859
O20	O	0.318397	-0.539950	0.074141
O21	O	-0.257461	-0.962241	-0.222382
O22	O	0.242539	-0.462241	0.277618
O23	O	-0.257121	-0.843760	-0.331180
O24	O	0.242879	-0.343760	0.168820
O25	O	-0.331153	-0.948861	-0.535775
O26	O	0.168847	-0.448861	-0.035775
O27	O	-0.323942	-0.840037	-0.417267
O28	O	0.176058	-0.340037	0.082733
O29	O	-0.269795	-1.035037	-0.539478
O30	O	0.230205	-0.535037	-0.039478
O31	O	-0.412733	-1.043377	-0.339654
O32	O	0.087267	-0.543377	0.160346
O33	O	-0.412475	-0.953605	-0.422089
O34	O	0.087525	-0.453605	0.077911
C35	C	-0.289687	-0.816461	-0.373137
C36	C	0.210313	-0.316461	0.126863
C37	C	-0.287111	-0.738537	-0.369826
C38	C	0.212889	-0.238537	0.130174
C39	C	-0.431575	-0.998491	-0.380880
C40	C	0.068425	-0.498491	0.119120
C41	C	-0.489690	-0.998504	-0.380890
C42	C	0.010310	-0.498504	0.119110
C43	C	-0.301264	-0.990838	-0.563775
C44	C	0.198736	-0.490838	-0.063775
C45	C	-0.303619	-0.987527	-0.641698
C46	C	0.196381	-0.487527	-0.141698
C47	C	-0.850185	-1.045465	-0.338075
C48	C	-0.350185	-0.545465	0.161925
C49	C	-0.904791	-1.045491	-0.338085
C50	C	-0.404791	-0.545491	0.161915
O51	O	-0.933135	-1.085298	-0.301642
O52	O	-0.433135	-0.585298	0.198358
N53	N	-0.931982	-0.998728	-0.380969
N54	N	-0.431982	-0.498728	0.119031
C55	C	-0.904565	-0.951940	-0.423850
C56	C	-0.404565	-0.451940	0.076150
O57	O	-0.932708	-0.912167	-0.460327
O58	O	-0.432708	-0.412167	0.039673
C59	C	-0.849961	-0.951917	-0.423843
C60	C	-0.349961	-0.451917	0.076157
C61	C	-0.822772	-0.998679	-0.380951
C62	C	-0.322772	-0.498679	0.119049
C63	C	-0.822997	-1.092223	-0.295188
C64	C	-0.322997	-0.592223	0.204812
C65	C	-0.768395	-1.092195	-0.295176
C66	C	-0.268395	-0.592195	0.204824
C67	C	-0.740982	-1.045409	-0.338052
C68	C	-0.240982	-0.545409	0.161948
C69	C	-0.768171	-0.998651	-0.380940
C70	C	-0.268171	-0.498651	0.119060
C71	C	-0.822546	-0.905133	-0.466727
C72	C	-0.322546	-0.405133	0.033273
C73	C	-0.767938	-0.905115	-0.466716
C74	C	-0.267938	-0.405115	0.033284
C75	C	-0.740749	-0.951876	-0.423825
C76	C	-0.240749	-0.451876	0.076175
C77	C	-0.686156	-0.951837	-0.423805
C78	C	-0.186156	-0.451837	0.076195
N79	N	-0.658965	-0.998600	-0.380921
N80	N	-0.158965	-0.498600	0.119079
C81	C	-0.686378	-1.045386	-0.338045
C82	C	-0.186378	-0.545386	0.161955
C83	C	-1.019238	-0.951992	-0.423863
C84	C	-0.519238	-0.451992	0.076137
C85	C	-1.073841	-0.952011	-0.423867
C86	C	-0.573841	-0.452011	0.076133
C87	C	-1.074063	-1.045564	-0.338103
C88	C	-0.574063	-0.545564	0.161897
C89	C	-1.019459	-1.045541	-0.338096
C90	C	-0.519459	-0.545541	0.161904
C91	C	-0.992047	-0.998756	-0.380980
C92	C	-0.492047	-0.498756	0.119020
C93	C	-0.571710	-1.045324	-0.338024
C94	C	-0.071710	-0.545324	0.161976
C95	C	-0.517103	-1.045290	-0.338014
C96	C	-0.017103	-0.545290	0.161986
C97	C	-0.516886	-0.951740	-0.423780
C98	C	-0.016886	-0.451740	0.076220
C99	C	-0.571488	-0.951771	-0.423788
C100	C	-0.071488	-0.451771	0.076212
C101	C	-0.598899	-0.998569	-0.380907
C102	C	-0.098899	-0.498569	0.119093
O103	O	-0.657777	-0.912052	-0.460232
O104	O	-0.157777	-0.412052	0.039768
O105	O	-0.658229	-1.085159	-0.301581
O106	O	-0.158229	-0.585159	0.198419
C107	C	-0.159371	-0.998742	-0.380971
C108	C	0.340629	-0.498742	0.119029
C109	C	-0.101259	-0.998800	-0.380993
C110	C	0.398741	-0.498800	0.119007
C111	C	-0.301813	-1.181464	-0.388728
C112	C	0.198187	-0.681464	0.111272
C113	C	-0.304401	-1.259387	-0.392057
C114	C	0.195599	-0.759387	0.107943
C115	C	-0.320740	-0.700012	-0.413021
C116	C	0.179260	-0.200012	0.086979
C117	C	-0.318313	-0.626794	-0.409912
C118	C	0.181687	-0.126794	0.090088
C119	C	-0.282260	-0.592104	-0.363605
C120	C	0.217740	-0.092104	0.136395
C121	C	-0.248627	-0.630634	-0.320408
C122	C	0.251373	-0.130634	0.179592
C123	C	-0.251052	-0.703850	-0.323520
C124	C	0.248948	-0.203850	0.176480
C125	C	-0.273194	-0.371134	-0.351972
C126	C	0.226806	0.128866	0.148028
C127	C	-0.270773	-0.297913	-0.348862
C128	C	0.229227	0.202087	0.151138
C129	C	-0.340458	-0.294078	-0.438367
C130	C	0.159542	0.205922	0.061633
C131	C	-0.342882	-0.367296	-0.441472
C132	C	0.157118	0.132704	0.058528
C133	C	-0.309247	-0.405820	-0.398278
C134	C	0.190753	0.094180	0.101722
C135	C	-0.279779	-0.517264	-0.360425
C136	C	0.220221	-0.017264	0.139575
C137	C	-0.311726	-0.480658	-0.401462
C138	C	0.188274	0.019342	0.098538
C139	C	-0.272781	-1.030837	-0.680236
C140	C	0.227219	-0.530837	-0.180236
C141	C	-0.274992	-1.027718	-0.753453
C142	C	0.225008	-0.527718	-0.253453
C143	C	-0.308044	-0.981292	-0.788130
C144	C	0.191956	-0.481292	-0.288130
C145	C	-0.338883	-0.937977	-0.749587
C146	C	0.161117	-0.437977	-0.249587
C147	C	-0.336669	-0.941093	-0.676372
C148	C	0.163331	-0.441093	-0.176372
C149	C	-0.316324	-0.969635	-1.009097
C150	C	0.183676	-0.469635	-0.509097
C151	C	-0.318536	-0.966523	-1.082318
C152	C	0.181464	-0.466523	-0.582318
C153	C	-0.254644	-1.056263	-1.086178
C154	C	0.245356	-0.556263	-0.586178
C155	C	-0.252436	-1.059378	-1.012961
C156	C	0.247564	-0.559378	-0.512961
C157	C	-0.283273	-1.016061	-0.974424
C158	C	0.216727	-0.516061	-0.474424
C159	C	-0.310306	-0.978104	-0.862970
C160	C	0.189694	-0.478104	-0.362970
C161	C	-0.281008	-1.019246	-0.899586
C162	C	0.218992	-0.519246	-0.399586
C163	C	-0.290196	-1.006386	-0.198772
C164	C	0.209804	-0.506386	0.301228
C165	C	-0.287698	-1.009833	-0.120856
C166	C	0.212302	-0.509833	0.379144
H167	H	-0.494968	-1.083369	-0.303084
H168	H	0.005032	-0.583369	0.196916
H169	H	-0.229538	-1.091528	-1.117562
H170	H	0.270462	-0.591528	-0.617562
H171	H	-0.844673	-0.867052	-0.501650
H172	H	-0.344673	-0.367052	-0.001650
H173	H	-0.345452	-0.928715	-1.110550
H174	H	0.154548	-0.428715	-0.610550
C175	C	-0.208967	-0.592480	-0.269472
C176	C	0.291033	-0.092480	0.230528
H177	H	-0.189283	-0.625912	-0.244197
H178	H	0.310717	-0.125912	0.255803
H179	H	-0.227060	-0.565195	-0.237661
H180	H	0.272940	-0.065195	0.262339
H181	H	-0.186084	-0.562801	-0.295137
H182	H	0.313916	-0.062801	0.204863
H183	H	-0.593627	-0.913696	-0.458716
H184	H	-0.093627	-0.413696	0.041284
C185	C	-0.350232	-0.921974	-0.966715
C186	C	0.149768	-0.421974	-0.466715
H187	H	-0.370232	-0.893879	-0.997856
H188	H	0.129768	-0.393879	-0.497856
H189	H	-0.328343	-0.892667	-0.936866
H190	H	0.171657	-0.392667	-0.436866
H191	H	-0.373046	-0.949969	-0.939282
H192	H	0.126954	-0.449969	-0.439282
C193	C	-0.375240	-0.886910	-0.787731
C194	C	0.124760	-0.386910	-0.287731
H195	H	-0.372146	-0.891262	-0.836855
H196	H	0.127854	-0.391262	-0.336855
H197	H	-0.365662	-0.840324	-0.773721
H198	H	0.134338	-0.340324	-0.273721
H199	H	-0.410347	-0.897652	-0.776155
H200	H	0.089653	-0.397652	-0.276155
H201	H	-0.745622	-0.867017	-0.501639
H202	H	-0.245622	-0.367017	-0.001639
C203	C	-0.738494	-1.143641	-0.248004
C204	C	-0.238494	-0.643641	0.251996
H205	H	-0.762648	-1.171510	-0.222480
H206	H	-0.262648	-0.671510	0.277520
H207	H	-0.715407	-1.118148	-0.216283
H208	H	-0.215407	-0.618148	0.283717
H209	H	-0.718990	-1.173019	-0.276154
H210	H	-0.218990	-0.673019	0.223846
H211	H	-0.494558	-0.913645	-0.458687
H212	H	0.005442	-0.413645	0.041313
C213	C	-1.104222	-1.097033	-0.290943
C214	C	-0.604222	-0.597033	0.209057
H215	H	-1.080211	-1.124879	-0.265394
H216	H	-0.580211	-0.624879	0.234606
H217	H	-1.127316	-1.126422	-0.319096
H218	H	-0.627316	-0.626422	0.180904
H219	H	-1.123739	-1.071543	-0.259232
H220	H	-0.623739	-0.571543	0.240768
C221	C	-0.601853	-1.096795	-0.290851
C222	C	-0.101853	-0.596795	0.209149
H223	H	-0.577834	-1.124630	-0.265306
H224	H	-0.077834	-0.624630	0.234694
H225	H	-0.624948	-1.126195	-0.318993
H226	H	-0.124948	-0.626195	0.181007
H227	H	-0.621369	-1.071305	-0.259139
H228	H	-0.121369	-0.571305	0.240861
H229	H	-0.245869	-1.068644	-0.652007
H230	H	0.254131	-0.568644	-0.152007
H231	H	-0.225523	-1.097185	-0.984732
H232	H	0.274477	-0.597185	-0.484732
H233	H	-0.241408	-0.269669	-0.311157
H234	H	0.258592	0.230331	0.188843
C235	C	-1.103743	-0.900570	-0.471043
C236	C	-0.603743	-0.400570	0.028957
H237	H	-1.079592	-0.872708	-0.496578
H238	H	-0.579592	-0.372708	0.003422
H239	H	-1.123253	-0.871194	-0.442906
H240	H	-0.623253	-0.371194	0.057094
H241	H	-1.126825	-0.926078	-0.502765
H242	H	-0.626825	-0.426078	-0.002765
C243	C	-0.236206	-0.413502	-0.304448
C244	C	0.263794	0.086498	0.195552
H245	H	-0.214394	-0.382353	-0.276417
H246	H	0.285606	0.117647	0.223583
H247	H	-0.215211	-0.440950	-0.332527
H248	H	0.284789	0.059050	0.167473
H249	H	-0.256199	-0.443336	-0.275066
H250	H	0.243801	0.056664	0.224934
H251	H	-0.223665	-0.735217	-0.288350
H252	H	0.276335	-0.235217	0.211650
H253	H	-0.845310	-1.130325	-0.260273
H254	H	-0.345310	-0.630325	0.239727
H255	H	-0.361775	-0.905819	-0.644995
H256	H	0.138225	-0.405819	-0.144995
H257	H	-0.997325	-1.083618	-0.303171
H258	H	-0.497325	-0.583618	0.196829
H259	H	-0.996922	-0.913888	-0.458781
H260	H	-0.496922	-0.413888	0.041219
H261	H	-0.341078	-0.508906	-0.439168
H262	H	0.158922	-0.008906	0.060832
C263	C	-0.360401	-0.738169	-0.463953
C264	C	0.139599	-0.238169	0.036047
H265	H	-0.357034	-0.787292	-0.459616
H266	H	0.142966	-0.287292	0.040384
H267	H	-0.353835	-0.724186	-0.510568
H268	H	0.146165	-0.224186	-0.010568
H269	H	-0.394808	-0.726575	-0.453088
H270	H	0.105192	-0.226575	0.046912
H271	H	-0.254095	-1.057043	-0.871348
H272	H	0.245905	-0.557043	-0.371348
H273	H	-0.372241	-0.395536	-0.479179
H274	H	0.127759	0.104464	0.020821
H275	H	-0.367840	-0.262704	-0.473534
H276	H	0.132160	0.237296	0.026466
H277	H	-0.345698	-0.595430	-0.445086
H278	H	0.154302	-0.095430	0.054914
C279	C	-0.241073	-1.075362	-0.795841
C280	C	0.258927	-0.575362	-0.295841
H281	H	-0.221077	-1.103464	-0.764703
H282	H	0.278923	-0.603464	-0.264703
H283	H	-0.218263	-1.047355	-0.823265
H284	H	0.281737	-0.547355	-0.323265
H285	H	-0.262956	-1.104673	-0.825701
H286	H	0.237044	-0.604673	-0.325701
H287	H	-0.250426	-0.489010	-0.322720
H288	H	0.249574	0.010990	0.177280
H289	H	-0.337219	-0.940307	-0.891213
H290	H	0.162781	-0.440307	-0.391213
