data_functionalizedCrystal
_audit_creation_method	'MofGen! by Chris Wilmer'
_symmetry_space_group_name_H-M	'P1'
_symmetry_Int_Tables_number	1
_symmetry_cell_setting	triclinic
loop_
_symmetry_equiv_pos_as_xyz
  x,y,z
_cell_length_a	18.050591
_cell_length_b	19.120786
_cell_length_c	18.050582
_cell_angle_alpha	87.534997
_cell_angle_beta	89.979078
_cell_angle_gamma	92.460873
loop_
_atom_site_label
_atom_site_type_symbol
_atom_site_fract_x
_atom_site_fract_y
_atom_site_fract_z
Zn1	Zn	1.122689	-0.279748	-0.407398
Zn2	Zn	1.622689	0.220252	0.092602
Zn3	Zn	1.117309	-0.397198	-0.277904
Zn4	Zn	1.617309	0.102802	0.222096
Zn5	Zn	0.998508	-0.279751	-0.283209
Zn6	Zn	1.498508	0.220249	0.216791
Zn7	Zn	0.993167	-0.397160	-0.402042
Zn8	Zn	1.493167	0.102840	0.097958
O9	O	1.057918	-0.338464	-0.342638
O10	O	1.557918	0.161536	0.157362
O11	O	1.225899	-0.295342	-0.390242
O12	O	1.725899	0.204658	0.109758
O13	O	1.101533	-0.381635	-0.174683
O14	O	1.601533	0.118365	0.325317
O15	O	1.019469	-0.181461	-0.304145
O16	O	1.519469	0.318539	0.195855
O17	O	1.221946	-0.381632	-0.295104
O18	O	1.721946	0.118368	0.204896
O19	O	1.110704	-0.181458	-0.395386
O20	O	1.610704	0.318542	0.104614
O21	O	1.014251	-0.295347	-0.178580
O22	O	1.514251	0.204653	0.321420
O23	O	0.893876	-0.295311	-0.298951
O24	O	1.393876	0.204689	0.201049
O25	O	1.010365	-0.381569	-0.506677
O26	O	1.510365	0.118431	-0.006677
O27	O	0.889951	-0.381571	-0.386256
O28	O	1.389951	0.118429	0.113744
O29	O	1.105524	-0.295306	-0.510613
O30	O	1.605524	0.204694	-0.010613
O31	O	1.096354	-0.495482	-0.289909
O32	O	1.596354	0.004518	0.210091
O33	O	1.005147	-0.495455	-0.381112
O34	O	1.505147	0.004545	0.118888
C35	C	0.864967	-0.338438	-0.342598
C36	C	1.364967	0.161562	0.157402
C37	C	0.782421	-0.338444	-0.342598
C38	C	1.282421	0.161556	0.157402
C39	C	0.585086	-0.291481	-0.295238
C40	C	1.085086	0.208519	0.204762
C41	C	0.532780	-0.355544	-0.274069
C42	C	1.032780	0.144456	0.225931
C43	C	0.631290	-0.338465	-0.342631
C44	C	1.131290	0.161535	0.157369
C45	C	0.536513	-0.274424	-0.363797
C46	C	1.036513	0.225576	0.136203
C47	C	0.485304	-0.338480	-0.342661
C48	C	0.985304	0.161520	0.157339
C49	C	0.580070	-0.402562	-0.321425
C50	C	1.080070	0.097438	0.178575
C51	C	0.583809	-0.321399	-0.411186
C52	C	1.083809	0.178601	0.088814
C53	C	0.531524	-0.385506	-0.390041
C54	C	1.031524	0.114494	0.109959
C55	C	0.715389	-0.338455	-0.342612
C56	C	1.215389	0.161545	0.157388
C57	C	0.401207	-0.338497	-0.342680
C58	C	0.901207	0.161503	0.157320
C59	C	1.049607	-0.520954	-0.334370
C60	C	1.549607	-0.020954	0.165630
C61	C	1.046119	-0.599024	-0.330858
C62	C	1.546119	-0.099024	0.169142
C63	C	1.091947	-0.635640	-0.376751
C64	C	1.591947	-0.135640	0.123249
C65	C	1.088667	-0.708995	-0.373452
C66	C	1.588667	-0.208995	0.126548
C67	C	1.039563	-0.745733	-0.324256
C68	C	1.539563	-0.245733	0.175744
C69	C	0.993730	-0.709112	-0.278361
C70	C	1.493730	-0.209112	0.221639
C71	C	0.997007	-0.635758	-0.281664
C72	C	1.497007	-0.135758	0.218336
C73	C	1.027291	-0.967217	-0.311907
C74	C	1.527291	-0.467217	0.188093
C75	C	1.024019	-1.040576	-0.308606
C76	C	1.524019	-0.540576	0.191394
C77	C	1.118955	-1.040454	-0.403698
C78	C	1.618955	-0.540454	0.096302
C79	C	1.122231	-0.967099	-0.406994
C80	C	1.622231	-0.467099	0.093006
C81	C	1.076395	-0.930484	-0.361102
C82	C	1.576395	-0.430484	0.138898
C83	C	1.036210	-0.820713	-0.320881
C84	C	1.536210	-0.320713	0.179119
C85	C	1.079744	-0.855505	-0.364481
C86	C	1.579744	-0.355505	0.135519
C87	C	1.251623	-0.338491	-0.342679
C88	C	1.751623	0.161509	0.157321
C89	C	1.334168	-0.338502	-0.342696
C90	C	1.834168	0.161498	0.157304
C91	C	1.057949	-0.338433	-0.536345
C92	C	1.557949	0.161567	-0.036345
C93	C	1.057962	-0.338420	-0.618892
C94	C	1.557962	0.161580	-0.118892
C95	C	1.066282	-0.155262	-0.350955
C96	C	1.566282	0.344738	0.149045
C97	C	1.069846	-0.077191	-0.354499
C98	C	1.569846	0.422809	0.145501
C99	C	1.006255	-0.385265	-0.816205
C100	C	1.506255	0.114735	-0.316205
C101	C	1.073236	-0.402439	-0.864828
C102	C	1.573236	0.097561	-0.364828
C103	C	1.058001	-0.338366	-0.770025
C104	C	1.558001	0.161634	-0.270025
C105	C	0.991057	-0.321173	-0.868484
C106	C	1.491057	0.178827	-0.368484
C107	C	1.058032	-0.338316	-0.916012
C108	C	1.558032	0.161684	-0.416012
C109	C	1.125016	-0.355573	-0.817559
C110	C	1.625016	0.144427	-0.317559
C111	C	1.042793	-0.274278	-0.821212
C112	C	1.542793	0.225722	-0.321212
C113	C	1.109822	-0.291427	-0.869814
C114	C	1.609822	0.208573	-0.369814
C115	C	1.057981	-0.338397	-0.685925
C116	C	1.557981	0.161603	-0.185925
C117	C	1.058059	-0.338285	-1.000110
C118	C	1.558059	0.161715	-0.500110
C119	C	1.057933	-0.338444	-0.149687
C120	C	1.557933	0.161556	0.350313
C121	C	1.058073	-0.338260	-0.067150
C122	C	1.558073	0.161740	0.432850
H123	H	0.517245	-0.220266	-0.381661
H124	H	1.017245	0.279734	0.118339
H125	H	0.984029	-1.070485	-0.268544
H126	H	1.484029	-0.570485	0.231456
H127	H	0.934431	-0.306652	-0.890828
H128	H	1.434431	0.193348	-0.390828
H129	H	0.606217	-0.306933	-0.469133
H130	H	1.106217	0.193067	0.030867
H131	H	1.029890	-0.220116	-0.801941
H132	H	1.529890	0.279884	-0.301941
H133	H	0.953745	-0.739029	-0.238308
H134	H	1.453745	-0.239029	0.261692
H135	H	0.608531	-0.251791	-0.255112
H136	H	1.108531	0.248209	0.244888
H137	H	0.962532	-0.424978	-0.792735
H138	H	1.462532	0.075022	-0.292735
H139	H	0.599207	-0.456743	-0.303471
H140	H	1.099207	0.043257	0.196529
H141	H	1.162215	-0.937188	-0.447053
H142	H	1.662215	-0.437188	0.052947
H143	H	0.959689	-0.605946	-0.244294
H144	H	1.459689	-0.105946	0.255706
H145	H	1.131936	-0.605733	-0.416808
H146	H	1.631936	-0.105733	0.083192
H147	H	0.989971	-0.937411	-0.274539
H148	H	1.489971	-0.437411	0.225461
H149	H	0.510391	-0.369990	-0.216106
H150	H	1.010391	0.130010	0.283894
H151	H	1.086118	-0.456616	-0.884082
H152	H	1.586118	0.043384	-0.384082
H153	H	1.181657	-0.370156	-0.795304
H154	H	1.681657	0.129844	-0.295304
H155	H	0.508210	-0.425291	-0.430130
H156	H	1.008210	0.074709	0.069870
H157	H	1.119722	-0.825591	-0.404539
H158	H	1.619722	-0.325591	0.095461
H159	H	1.153644	-0.251744	-0.893146
H160	H	1.653644	0.248256	-0.393146
H161	H	1.156270	-1.070273	-0.441062
H162	H	1.656270	-0.570273	0.058938
H163	H	1.125990	-0.738805	-0.410817
H164	H	1.625990	-0.238805	0.089183
H165	H	0.996232	-0.850634	-0.280823
H166	H	1.496232	-0.350634	0.219177
