data_functionalizedCrystal
_audit_creation_method	'MofGen! by Chris Wilmer'
_symmetry_space_group_name_H-M	'P1'
_symmetry_Int_Tables_number	1
_symmetry_cell_setting	triclinic
loop_
_symmetry_equiv_pos_as_xyz
  x,y,z
_cell_length_a	16.109304
_cell_length_b	16.109318
_cell_length_c	15.186229
_cell_angle_alpha	89.999776
_cell_angle_beta	90.000234
_cell_angle_gamma	83.465593
loop_
_atom_site_label
_atom_site_type_symbol
_atom_site_fract_x
_atom_site_fract_y
_atom_site_fract_z
O1	O	-0.106935	-1.103123	-0.073148
O2	O	-0.120219	-0.861063	-0.073165
O3	O	0.007454	-0.988741	-0.073158
O4	O	-0.234607	-0.975444	-0.073155
O5	O	0.007456	-0.988733	0.073299
O6	O	-0.120217	-0.861054	0.073292
O7	O	-0.106933	-1.103114	0.073309
Zn8	Zn	-0.113575	-0.982083	0.096554
Zn9	Zn	-0.113577	-0.982094	-0.096410
O10	O	-0.234605	-0.975436	0.073302
C11	C	-0.119677	-0.830084	0.000061
C12	C	-0.118056	-0.737789	0.000054
C13	C	0.038430	-0.988198	0.000068
C14	C	0.130725	-0.986582	0.000060
C15	C	0.343061	-0.982853	-0.079773
C16	C	0.429782	-0.981327	-0.079774
C17	C	0.429781	-0.981322	0.079902
C18	C	0.343061	-0.982842	0.079902
C19	C	0.299704	-0.983612	0.000061
C20	C	0.473144	-0.980565	0.000061
C21	C	0.567170	-0.978911	0.000062
C22	C	0.205672	-0.985265	0.000061
C23	C	-0.107474	-1.134093	0.000081
C24	C	-0.109095	-1.226388	0.000082
C25	C	0.734419	-0.975979	0.000071
C26	C	0.642124	-0.977595	0.000062
C27	C	-0.112822	-0.438720	-0.079764
C28	C	-0.114340	-0.525442	-0.079770
C29	C	-0.114326	-0.525451	0.079906
C30	C	-0.112803	-0.438732	0.079911
C31	C	-0.112055	-0.395368	0.000073
C32	C	-0.115096	-0.568809	0.000063
C33	C	-0.116741	-0.662836	0.000058
C34	C	-0.110408	-0.301336	0.000078
N35	N	-0.113572	-0.982081	0.228246
N36	N	-0.113572	-0.982102	-0.228103
C37	C	-0.057058	-1.038636	0.453972
C38	C	-0.057056	-1.038639	0.546162
C39	C	-0.170090	-0.925541	0.546165
C40	C	-0.170087	-0.925535	0.453977
C41	C	-0.113572	-0.982088	0.407883
C42	C	-0.113573	-0.982096	0.592261
C43	C	-0.113571	-0.982099	0.692217
C44	C	-0.113573	-0.982084	0.307920
H45	H	0.465079	-0.980707	-0.144783
C46	C	-0.111961	-0.391038	0.167737
C47	C	-0.110281	-0.295651	0.167741
C48	C	-0.109435	-0.247957	0.255562
C49	C	-0.110269	-0.295650	0.343381
C50	C	-0.111948	-0.391042	0.343381
C51	C	-0.112794	-0.438736	0.255559
H52	H	-0.109665	-0.260341	0.102729
H53	H	-0.108192	-0.177341	0.255562
H54	H	-0.109643	-0.260344	0.408392
H55	H	-0.112565	-0.426352	0.408393
H56	H	-0.114037	-0.509352	0.255560
H57	H	0.307758	-0.983455	0.144917
H58	H	-0.112212	-0.403416	-0.144773
H59	H	0.465093	-0.980697	0.144905
C60	C	-0.115188	-0.573128	-0.167592
C61	C	-0.114364	-0.525426	-0.255406
C62	C	-0.115211	-0.573113	-0.343233
C63	C	-0.116881	-0.668501	-0.343245
C64	C	-0.117704	-0.716208	-0.255428
C65	C	-0.116858	-0.668522	-0.167601
H66	H	-0.113128	-0.454809	-0.255400
H67	H	-0.114601	-0.537796	-0.408241
H68	H	-0.117508	-0.703801	-0.408259
H69	H	-0.118940	-0.786825	-0.255434
H70	H	-0.117467	-0.703838	-0.102593
H71	H	-0.114937	-0.560768	0.144907
H72	H	-0.216104	-0.879498	0.583704
C73	C	0.005113	-1.100836	0.403268
C74	C	0.067280	-1.163035	0.453971
C75	C	0.129455	-1.225234	0.403271
C76	C	0.129463	-1.225235	0.301867
C77	C	0.067293	-1.163034	0.251159
C78	C	0.005118	-1.100835	0.301860
H79	H	0.067277	-1.163036	0.529041
H80	H	0.175478	-1.271280	0.440809
H81	H	0.175488	-1.271279	0.264336
H82	H	0.067296	-1.163033	0.176089
H83	H	-0.040904	-1.054789	0.264321
H84	H	-0.011036	-1.084685	0.583685
C85	C	-0.232257	-0.863328	0.403270
C86	C	-0.294453	-0.801153	0.453966
C87	C	-0.356616	-0.738947	0.403259
C88	C	-0.356584	-0.738916	0.301856
C89	C	-0.294386	-0.801094	0.251154
C90	C	-0.232222	-0.863300	0.301862
H91	H	-0.294479	-0.801174	0.529036
H92	H	-0.402660	-0.692919	0.440792
H93	H	-0.402602	-0.692867	0.264319
H94	H	-0.294360	-0.801073	0.176084
H95	H	-0.186179	-0.909328	0.264328
C96	C	0.295367	-0.983691	-0.167595
C97	C	0.343062	-0.982852	-0.255411
C98	C	0.295370	-0.983688	-0.343235
C99	C	0.199983	-0.985363	-0.343243
C100	C	0.152282	-0.986202	-0.255424
C101	C	0.199974	-0.985366	-0.167599
H102	H	0.413679	-0.981612	-0.255408
H103	H	0.330682	-0.983066	-0.408245
H104	H	0.164678	-0.985981	-0.408256
H105	H	0.081665	-0.987442	-0.255427
H106	H	0.164662	-0.985988	-0.102590
