data_functionalizedCrystal
_audit_creation_method	'MofGen! by Chris Wilmer'
_symmetry_space_group_name_H-M	'P1'
_symmetry_Int_Tables_number	1
_symmetry_cell_setting	triclinic
loop_
_symmetry_equiv_pos_as_xyz
  x,y,z
_cell_length_a	10.654550
_cell_length_b	16.992695
_cell_length_c	9.130313
_cell_angle_alpha	89.995176
_cell_angle_beta	89.999724
_cell_angle_gamma	87.576577
loop_
_atom_site_label
_atom_site_type_symbol
_atom_site_fract_x
_atom_site_fract_y
_atom_site_fract_z
O1	O	1.677362	0.110190	-0.121691
O2	O	1.312790	0.120688	-0.121718
O3	O	1.493615	0.001288	-0.121693
O4	O	1.496538	0.229590	-0.121716
O5	O	1.493601	0.001285	0.121906
O6	O	1.312777	0.120685	0.121881
O7	O	1.677348	0.110186	0.121908
Cu8	Cu	1.495061	0.115435	0.144137
Cu9	Cu	1.495077	0.115439	-0.143947
O10	O	1.496524	0.229586	0.121883
C11	C	1.265919	0.119916	0.000078
C12	C	1.126277	0.117609	0.000068
C13	C	1.052866	0.187910	0.000065
C14	C	0.921658	0.185738	0.000091
C15	C	0.937282	0.042959	0.000116
C16	C	1.068488	0.045132	0.000101
C17	C	1.489848	-0.027946	0.000106
C18	C	1.478628	-0.115051	0.000105
C19	C	1.586879	-0.164703	0.000114
C20	C	1.576330	-0.246547	0.000099
C21	C	1.457529	-0.278738	0.000086
C22	C	1.349270	-0.229080	0.000072
C23	C	1.359820	-0.147237	0.000076
C24	C	1.413802	-0.522573	0.000062
C25	C	1.403260	-0.604422	0.000062
C26	C	1.630321	-0.621884	0.000087
C27	C	1.640861	-0.540039	0.000100
C28	C	1.532602	-0.490388	0.000079
N29	N	1.446743	-0.362395	0.000075
N30	N	1.543389	-0.406733	0.000079
C31	C	1.724220	0.110959	0.000108
C32	C	1.863862	0.113265	0.000109
C33	C	1.500291	0.258821	0.000080
C34	C	1.511510	0.345926	0.000072
N35	N	1.495059	0.115432	0.346759
N36	N	1.495089	0.115437	-0.346570
C37	C	1.575159	0.062584	0.423422
C38	C	1.575171	0.062584	0.576759
C39	C	1.414980	0.168287	0.576756
C40	C	1.414963	0.168282	0.423422
H41	H	1.099913	0.246926	0.000049
O42	O	1.233962	-0.260477	0.000123
C43	C	1.247859	-0.343360	0.000089
H44	H	1.343983	-0.362046	0.046216
H45	H	1.239491	-0.366167	-0.116777
C46	C	1.026435	-0.354898	0.038960
C47	C	1.144493	-0.377848	0.095625
H48	H	0.962672	-0.376173	0.097884
H49	H	1.017071	-0.299057	0.038977
H50	H	1.019479	-0.373905	-0.058428
H51	H	1.151453	-0.358832	0.193003
H52	H	1.153856	-0.433686	0.095626
O53	O	1.652816	0.011118	0.349049
C54	C	1.624594	-0.066649	0.386620
H55	H	1.523953	-0.067593	0.428764
H56	H	1.691913	-0.089276	0.475651
C57	C	1.762386	-0.118600	0.198699
C58	C	1.638774	-0.119760	0.250451
H59	H	1.771138	-0.151363	0.114707
H60	H	1.781404	-0.066207	0.173390
H61	H	1.818472	-0.137453	0.272905
H62	H	1.582692	-0.100898	0.176252
H63	H	1.619746	-0.172151	0.275744
H64	H	0.861892	0.242984	0.000091
H65	H	1.128262	-0.012119	0.000107
O66	O	1.653046	0.011357	0.651390
C67	C	1.734801	0.053826	0.740038
H68	H	1.690910	0.114925	0.763005
H69	H	1.828192	0.059699	0.680930
C70	C	1.811146	-0.065293	0.857486
C71	C	1.757234	0.009748	0.885705
H72	H	1.824990	-0.092484	0.947337
H73	H	1.756070	-0.093906	0.797759
H74	H	1.888966	-0.060389	0.808226
H75	H	1.679408	0.004842	0.934947
H76	H	1.812297	0.038359	0.945444
H77	H	0.890215	-0.016050	0.000152
H78	H	1.349769	0.211318	0.639191
O79	O	1.337110	0.219698	0.349169
C80	C	1.266404	0.266337	0.449710
H81	H	1.318017	0.267531	0.559005
H82	H	1.170514	0.240319	0.466041
C83	C	1.185588	0.349351	0.255600
C84	C	1.248986	0.350823	0.389834
H85	H	1.174838	0.401465	0.218664
H86	H	1.233220	0.317928	0.187862
H87	H	1.105686	0.327666	0.269226
H88	H	1.328892	0.372498	0.376202
H89	H	1.201367	0.382252	0.457569
H90	H	1.683620	-0.138501	0.000134
H91	H	1.664480	-0.286971	0.000110
H92	H	1.737601	-0.513836	0.000112
H93	H	1.718458	-0.662318	0.000102
H94	H	1.306513	-0.630628	0.000075
H95	H	1.325649	-0.482157	0.000045
H96	H	1.271671	-0.106811	0.000068
