data_functionalizedCrystal
_audit_creation_method	'MofGen! by Chris Wilmer'
_symmetry_space_group_name_H-M	'P1'
_symmetry_Int_Tables_number	1
_symmetry_cell_setting	triclinic
loop_
_symmetry_equiv_pos_as_xyz
  x,y,z
_cell_length_a	16.959455
_cell_length_b	11.169416
_cell_length_c	11.169409
_cell_angle_alpha	90.030816
_cell_angle_beta	89.977214
_cell_angle_gamma	89.992713
loop_
_atom_site_label
_atom_site_type_symbol
_atom_site_fract_x
_atom_site_fract_y
_atom_site_fract_z
Zn1	Zn	1.208503	0.477808	-0.678626
Zn2	Zn	1.208429	0.678549	-0.477948
Zn3	Zn	1.076312	0.477868	-0.477953
Zn4	Zn	1.076319	0.678437	-0.678585
O5	O	1.142391	0.578166	-0.578278
O6	O	1.319104	0.504459	-0.652021
O7	O	1.190869	0.651999	-0.309999
O8	O	1.093876	0.309910	-0.504591
O9	O	1.319049	0.651942	-0.504584
O10	O	1.190996	0.309867	-0.652025
O11	O	1.093804	0.504560	-0.310002
O12	O	0.965702	0.504452	-0.504552
O13	O	1.093887	0.651752	-0.846540
O14	O	0.965707	0.651810	-0.651956
O15	O	1.191003	0.504351	-0.846570
O16	O	1.190876	0.846484	-0.504544
O17	O	1.093815	0.846402	-0.651951
C18	C	0.937024	0.578126	-0.578250
C19	C	0.849168	0.578138	-0.578267
C20	C	1.142359	0.889990	-0.578269
C21	C	1.142418	1.023390	-0.578305
C22	C	1.142454	0.578033	-0.891321
C23	C	1.142481	0.577976	-1.024721
C24	C	0.477665	0.501373	-0.501685
C25	C	0.477719	0.655056	-0.654940
C26	C	0.560265	0.655039	-0.654932
C27	C	0.601515	0.578189	-0.578299
C28	C	0.560219	0.501356	-0.501673
C29	C	0.601567	0.731879	-0.731548
C30	C	0.684118	0.731866	-0.731543
C31	C	0.725370	0.655009	-0.654915
C32	C	0.684068	0.578172	-0.578287
C33	C	0.725318	0.501322	-0.501653
C34	C	0.684019	0.424478	-0.425030
C35	C	0.601470	0.424499	-0.425045
C36	C	0.807918	0.654988	-0.654901
C37	C	0.807872	0.501305	-0.501641
C38	C	1.348559	0.578206	-0.578306
C39	C	1.436416	0.578223	-0.578318
C40	C	1.142444	0.265123	-0.578313
C41	C	1.142466	0.131723	-0.578329
C42	C	1.142373	0.578211	-0.266453
C43	C	1.142499	0.577930	-0.133054
H44	H	0.841452	0.438716	-0.439243
C45	C	0.432342	0.739589	-0.739229
N46	N	0.398160	0.803261	-0.802721
H47	H	0.717615	0.361912	-0.362630
C48	C	0.556035	0.339984	-0.340762
N49	N	0.521809	0.276330	-0.277278
C50	C	0.432236	0.416848	-0.417405
N51	N	0.398017	0.353184	-0.353923
H52	H	0.567976	0.794455	-0.793930
C53	C	0.729540	0.816391	-0.815833
N54	N	0.763753	0.880053	-0.879324
C55	C	0.853344	0.739511	-0.739180
N56	N	0.887558	0.803175	-0.802668
