data_functionalizedCrystal
_audit_creation_method	'MofGen! by Chris Wilmer'
_symmetry_space_group_name_H-M	'P1'
_symmetry_Int_Tables_number	1
_symmetry_cell_setting	triclinic
loop_
_symmetry_equiv_pos_as_xyz
  x,y,z
_cell_length_a	17.666332
_cell_length_b	17.699083
_cell_length_c	17.699083
_cell_angle_alpha	83.283015
_cell_angle_beta	89.992629
_cell_angle_gamma	89.996676
loop_
_atom_site_label
_atom_site_type_symbol
_atom_site_fract_x
_atom_site_fract_y
_atom_site_fract_z
O1	O	0.062844	-1.004081	-0.095712
O2	O	0.062869	-0.783703	-0.108165
O3	O	0.062849	-0.900118	0.008250
O4	O	0.062864	-0.887666	-0.212128
O5	O	-0.063048	-0.900098	0.008257
O6	O	-0.063028	-0.783682	-0.108159
O7	O	-0.063053	-1.004061	-0.095706
Cu8	Cu	-0.074536	-0.893870	-0.101932
Cu9	Cu	0.074352	-0.893894	-0.101939
O10	O	-0.063033	-0.887645	-0.212122
C11	C	-0.000100	-0.899662	0.036451
C12	C	-0.000100	-0.898323	0.120469
C13	C	-0.000077	-0.755495	-0.107716
C14	C	-0.000067	-0.671477	-0.106377
N15	N	-0.179255	-0.893858	-0.101926
C16	C	-0.218874	-0.945424	-0.050403
C17	C	-0.298121	-0.945428	-0.050399
C18	C	-0.337748	-0.893874	-0.101932
C19	C	-0.298119	-0.842299	-0.153460
C20	C	-0.218873	-0.842291	-0.153457
N21	N	-0.462161	-0.884117	-0.168921
N22	N	-0.537441	-0.884129	-0.168921
C23	C	-0.576512	-0.893894	-0.101943
N24	N	-0.537457	-0.903662	-0.034962
N25	N	-0.462170	-0.903653	-0.034962
C26	C	-0.423677	-0.893877	-0.101941
C27	C	-0.702059	-0.945467	-0.050411
C28	C	-0.781308	-0.945466	-0.050406
C29	C	-0.781305	-0.842341	-0.153473
C30	C	-0.702057	-0.842338	-0.153471
C31	C	-0.662439	-0.893905	-0.101941
N32	N	0.179071	-0.893911	-0.101939
C33	C	-0.000106	-1.032268	-0.096156
C34	C	-0.000110	-1.116286	-0.097494
C35	C	-0.000063	-0.622856	-0.174710
C36	C	-0.000073	-0.543913	-0.173448
C37	C	-0.000082	-0.513592	-0.103852
C38	C	-0.000088	-0.562219	-0.035513
C39	C	-0.000084	-0.641161	-0.036776
C40	C	-0.000107	-0.243856	-0.030418
C41	C	-0.000109	-0.164908	-0.029160
C42	C	-0.000096	-0.146608	-0.167090
C43	C	-0.000092	-0.225550	-0.168353
C44	C	-0.000102	-0.274170	-0.100015
C45	C	-0.000093	-0.359769	-0.101384
C46	C	-0.000085	-0.427995	-0.102481
C47	C	-0.000083	-0.888102	-0.240322
C48	C	-0.000078	-0.889440	-0.324340
C49	C	-0.000109	-0.966656	0.169090
C50	C	-0.000102	-0.965394	0.248033
C51	C	-0.000092	-0.895798	0.278354
C52	C	-0.000080	-0.827459	0.229727
C53	C	-0.000082	-0.828722	0.150785
C54	C	-0.000074	-0.822364	0.548090
C55	C	-0.000075	-0.821106	0.627038
C56	C	-0.000094	-0.959036	0.645338
C57	C	-0.000095	-0.960299	0.566396
C58	C	-0.000080	-0.891961	0.517776
C59	C	-0.000086	-0.893330	0.432177
C60	C	-0.000091	-0.894427	0.363951
H61	H	-0.186619	-0.987411	-0.008442
C62	C	-0.064841	-1.048095	0.090947
C63	C	-0.000120	-1.043161	0.135767
H64	H	-0.064847	-1.095330	0.070382
H65	H	-0.064832	-1.007586	0.050693
H66	H	-0.108738	-1.044727	0.121376
H67	H	0.043777	-1.046524	0.105337
H68	H	-0.000122	-1.083682	0.176027
C69	C	-0.064820	-0.553512	0.082447
C70	C	-0.000098	-0.528893	0.040990
H71	H	-0.064824	-0.532935	0.129675
H72	H	-0.064814	-0.607479	0.091472
H73	H	-0.108716	-0.536806	0.054312
H74	H	0.043799	-0.545604	0.069123
H75	H	-0.000096	-0.474915	0.031967
C76	C	-0.710020	-1.047395	0.051472
C77	C	-0.658505	-1.002139	0.006238
H78	H	-0.683131	-1.082378	0.086447
H79	H	-0.740918	-1.074562	0.020002
H80	H	-0.740938	-1.015936	0.078654
H81	H	-0.627590	-1.033599	-0.020949
H82	H	-0.627593	-0.974971	0.037712
H83	H	-0.000067	-0.770792	0.254420
C84	C	0.064585	-0.156206	0.088808
C85	C	-0.000125	-0.131580	0.047347
H86	H	0.064572	-0.135634	0.136039
H87	H	0.108484	-0.139508	0.060680
H88	H	0.064575	-0.210180	0.097833
H89	H	-0.000113	-0.077606	0.038317
H90	H	-0.044036	-0.148274	0.075481
H91	H	-0.000092	-0.107012	-0.222734
C92	C	-0.226831	-0.740359	-0.255334
C93	C	-0.175320	-0.785612	-0.210101
H94	H	-0.199940	-0.705372	-0.290308
H95	H	-0.257745	-0.713197	-0.223864
H96	H	-0.257736	-0.771820	-0.282518
H97	H	-0.144419	-0.754151	-0.182913
H98	H	-0.144393	-0.812776	-0.241576
C99	C	-0.805711	-0.711243	-0.198082
C100	C	-0.824852	-0.785669	-0.210119
H101	H	-0.832602	-0.676255	-0.233049
H102	H	-0.752851	-0.703865	-0.205458
H103	H	-0.818712	-0.703131	-0.147576
H104	H	-0.811847	-0.793783	-0.260623
H105	H	-0.877725	-0.793049	-0.202749
C106	C	-0.677644	-0.797655	-0.284555
C107	C	-0.658504	-0.785664	-0.210118
H108	H	-0.650753	-0.762667	-0.319526
H109	H	-0.730505	-0.790279	-0.291925
H110	H	-0.664644	-0.848152	-0.292700
H111	H	-0.671510	-0.735169	-0.201972
H112	H	-0.605632	-0.793034	-0.202745
C113	C	-0.000087	-0.770302	0.022533
C114	C	-0.000088	-0.694610	0.038337
H115	H	-0.000097	-0.803297	0.068907
H116	H	0.043817	-0.779476	-0.006006
H117	H	-0.043990	-0.779468	-0.006012
H118	H	0.043817	-0.685442	0.066877
H119	H	-0.043997	-0.685432	0.066888
C120	C	-0.000058	-0.596829	-0.310925
C121	C	-0.000055	-0.656181	-0.251215
H122	H	-0.000059	-0.617402	-0.358156
H123	H	0.043841	-0.566422	-0.307567
H124	H	-0.043965	-0.566419	-0.307554
H125	H	0.043856	-0.686588	-0.254583
H126	H	-0.043958	-0.686601	-0.254574
H127	H	-0.000111	-1.021038	0.287618
H128	H	-0.000081	-0.250232	-0.225025
C129	C	-0.290173	-1.047366	0.051474
C130	C	-0.341682	-1.002110	0.006242
H131	H	-0.317066	-1.082360	0.086439
H132	H	-0.259275	-1.015914	0.078661
H133	H	-0.259254	-1.074528	0.019996
H134	H	-0.372598	-0.974944	0.037719
H135	H	-0.372594	-1.033567	-0.020947
C136	C	-0.419598	-0.796531	-0.199234
C137	C	-0.341673	-0.785632	-0.210108
H138	H	-0.446484	-0.761547	-0.234210
H139	H	-0.432593	-0.788408	-0.148738
H140	H	-0.432565	-0.847030	-0.207394
H141	H	-0.328705	-0.735135	-0.201943
H142	H	-0.328673	-0.793750	-0.260617
C143	C	0.064656	-0.444520	-0.252045
C144	C	-0.000060	-0.490470	-0.248563
H145	H	0.064660	-0.411525	-0.298419
H146	H	0.108551	-0.475697	-0.249668
H147	H	0.064636	-0.415166	-0.210414
H148	H	-0.000038	-0.519829	-0.290191
H149	H	-0.043967	-0.459289	-0.250948
C150	C	-0.064825	-1.041732	0.488247
C151	C	-0.000105	-1.036801	0.533069
H152	H	-0.064829	-1.088965	0.467677
H153	H	-0.064816	-1.001220	0.447995
H154	H	-0.108722	-1.038367	0.518676
H155	H	0.043793	-1.040160	0.502638
H156	H	-0.000107	-1.077325	0.573325
H157	H	-0.813566	-0.987455	-0.008445
H158	H	-0.000116	-0.283434	0.025228
C159	C	0.064624	-1.037660	0.744718
C160	C	-0.000098	-1.034158	0.698783
H161	H	0.064620	-1.084039	0.777707
H162	H	0.064626	-0.996038	0.774073
H163	H	0.108520	-1.035292	0.713526
H164	H	-0.043995	-1.036521	0.729975
H165	H	-0.000108	-1.075792	0.669425
H166	H	-0.000068	-0.764429	0.651721
C167	C	-0.000072	-0.685897	0.537941
C168	C	-0.000072	-0.747247	0.494653
H169	H	-0.000077	-0.639522	0.504947
H170	H	0.043830	-0.688278	0.569103
H171	H	-0.043976	-0.688279	0.569121
H172	H	0.043836	-0.744868	0.463476
H173	H	-0.043978	-0.744865	0.463478
C174	C	-0.000068	-0.692253	0.140619
C175	C	-0.000074	-0.753608	0.097337
H176	H	-0.000065	-0.645880	0.107622
H177	H	0.043832	-0.694638	0.171784
H178	H	-0.043975	-0.694626	0.171796
H179	H	0.043836	-0.751238	0.066164
H180	H	-0.043978	-0.751222	0.066159
