data_functionalizedCrystal
_audit_creation_method	'MofGen! by Chris Wilmer'
_symmetry_space_group_name_H-M	'P1'
_symmetry_Int_Tables_number	1
_symmetry_cell_setting	triclinic
loop_
_symmetry_equiv_pos_as_xyz
  x,y,z
_cell_length_a	13.635800
_cell_length_b	11.164115
_cell_length_c	17.329402
_cell_angle_alpha	90.225330
_cell_angle_beta	103.025973
_cell_angle_gamma	109.526538
loop_
_atom_site_label
_atom_site_type_symbol
_atom_site_fract_x
_atom_site_fract_y
_atom_site_fract_z
V1	V	2.043582	0.384736	0.108736
O2	O	2.041528	0.389268	-0.005221
O3	O	2.014551	0.370703	0.215601
O4	O	2.034644	0.557735	0.107065
O5	O	2.021296	0.200941	0.104066
V6	V	2.284044	0.364138	0.095105
O7	O	2.177061	0.429920	0.138636
O8	O	2.375663	0.318954	0.065205
O9	O	2.201471	0.378172	-0.011760
O10	O	2.344795	0.359606	0.209062
O11	O	2.365028	0.547933	0.099775
O12	O	2.181379	0.191139	0.096776
V13	V	2.543582	0.384736	0.108736
O14	O	2.541528	0.389268	-0.005221
O15	O	2.514551	0.370703	0.215601
O16	O	2.534644	0.557735	0.107065
O17	O	2.521296	0.200941	0.104066
V18	V	2.784044	0.364138	0.095105
O19	O	2.677061	0.429920	0.138636
O20	O	2.875663	0.318954	0.065205
O21	O	2.701471	0.378172	-0.011760
O22	O	2.844795	0.359606	0.209062
O23	O	2.865028	0.547933	0.099775
O24	O	2.681379	0.191139	0.096776
C25	C	1.935382	0.361691	0.241652
C26	C	1.952391	0.351370	0.329016
C27	C	1.961012	0.600268	0.103203
C28	C	1.994314	0.741621	0.102544
C29	C	2.112311	0.387179	-0.037808
C30	C	2.084921	0.397508	-0.125171
C31	C	1.990258	0.461713	0.381286
C32	C	2.006227	0.452003	0.463372
C33	C	1.984336	0.331950	0.493187
C34	C	1.946463	0.221599	0.440910
C35	C	1.930487	0.231309	0.358825
C36	C	2.031072	0.296867	0.740468
C37	C	2.047055	0.287165	0.822559
C38	C	2.106816	0.517571	0.845016
C39	C	2.090843	0.527271	0.762929
C40	C	2.052966	0.416920	0.710659
C41	C	2.000662	0.322023	0.577092
C42	C	2.036633	0.426848	0.626755
C43	C	2.101416	0.814087	0.106159
C44	C	2.132701	0.946902	0.105537
C45	C	1.949770	0.934773	0.097687
C46	C	1.918486	0.801959	0.098304
C47	C	2.090169	1.148600	0.100643
C48	C	2.056882	1.007249	0.101305
C49	C	2.435382	0.361691	0.241652
C50	C	2.452391	0.351370	0.329016
C51	C	2.461012	0.600268	0.103203
C52	C	2.494314	0.741621	0.102544
C53	C	2.612311	0.387179	-0.037808
C54	C	2.584921	0.397508	-0.125171
C55	C	2.586680	0.148599	0.100641
C56	C	2.542998	0.007246	0.101296
C57	C	2.551832	0.352449	0.374050
C58	C	2.567833	0.342770	0.456140
C59	C	2.484389	0.332004	0.493194
C60	C	2.384940	0.330930	0.448154
C61	C	2.368943	0.340617	0.366066
C62	C	2.657974	0.396433	-0.170204
C63	C	2.632246	0.406118	-0.252294
C64	C	2.533467	0.416886	-0.289347
C65	C	2.460408	0.417958	-0.244308
C66	C	2.486134	0.408264	-0.162221
C67	C	2.601416	0.814087	0.106159
C68	C	2.632701	0.946902	0.105537
C69	C	2.449770	0.934773	0.097687
C70	C	2.418486	0.801959	0.098304
H71	H	2.008099	0.559474	0.357019
H72	H	2.497429	0.324117	0.560035
H73	H	1.899648	0.141456	0.316267
H74	H	2.108655	0.625030	0.738660
H75	H	2.648814	0.343644	0.492801
Cl76	Cl	2.656754	0.365994	0.327488
Cl77	Cl	2.280047	0.317387	0.494747
H78	H	2.331266	0.742954	0.095353
H79	H	2.719911	1.005898	0.108480
H80	H	2.287964	0.339731	0.329405
Cl81	Cl	2.501143	0.429073	-0.392544
Cl82	Cl	2.354455	1.010638	0.092368
H83	H	2.691747	0.405246	-0.288953
Cl84	Cl	2.336231	0.431490	-0.290902
Cl85	Cl	1.783831	0.710852	0.093756
Cl86	Cl	2.394283	0.409623	-0.105616
Cl87	Cl	2.154425	0.656289	0.910730
Cl88	Cl	2.782160	0.382895	-0.123641
Cl89	Cl	2.019526	0.136230	0.860038
Cl90	Cl	2.696743	0.738236	0.111485
H91	H	2.054451	0.524594	0.602476
H92	H	2.037061	0.541857	0.505928
Cl93	Cl	2.267348	1.037997	0.110083
H94	H	2.000241	0.207011	0.697919
H95	H	1.928635	0.123848	0.465191
Cl96	Cl	1.854455	1.010638	0.092368
Cl97	Cl	2.196743	0.738236	0.111485
Cl98	Cl	1.973152	0.171103	0.614581
