data_functionalizedCrystal
_audit_creation_method	'MofGen! by Chris Wilmer'
_symmetry_space_group_name_H-M	'P1'
_symmetry_Int_Tables_number	1
_symmetry_cell_setting	triclinic
loop_
_symmetry_equiv_pos_as_xyz
  x,y,z
_cell_length_a	15.297327
_cell_length_b	21.395364
_cell_length_c	21.395355
_cell_angle_alpha	90.025298
_cell_angle_beta	99.659679
_cell_angle_gamma	80.276484
loop_
_atom_site_label
_atom_site_type_symbol
_atom_site_fract_x
_atom_site_fract_y
_atom_site_fract_z
Zn1	Zn	-0.358899	-0.914745	-0.397393
Zn2	Zn	0.141101	-0.414745	0.102607
Zn3	Zn	-0.509755	-0.896525	-0.310740
Zn4	Zn	-0.009755	-0.396525	0.189260
Zn5	Zn	-0.358943	-0.809955	-0.292634
Zn6	Zn	0.141057	-0.309955	0.207366
Zn7	Zn	-0.509776	-0.791805	-0.415481
Zn8	Zn	-0.009776	-0.291805	0.084519
O9	O	-0.434343	-0.853258	-0.354062
O10	O	0.065657	-0.353258	0.145938
O11	O	-0.378883	-1.000009	-0.385906
O12	O	0.121117	-0.500009	0.114094
O13	O	-0.489760	-0.885013	-0.220661
O14	O	0.010240	-0.385013	0.279339
O15	O	-0.232679	-0.839076	-0.291383
O16	O	0.267321	-0.339076	0.208617
O17	O	-0.489717	-0.986624	-0.322242
O18	O	0.010283	-0.486624	0.177758
O19	O	-0.232647	-0.916065	-0.368349
O20	O	0.267353	-0.416065	0.131651
O21	O	-0.378959	-0.821410	-0.207359
O22	O	0.121041	-0.321410	0.292641
O23	O	-0.378979	-0.719866	-0.308922
O24	O	0.121021	-0.219866	0.191078
O25	O	-0.489752	-0.808142	-0.500758
O26	O	0.010248	-0.308142	-0.000758
O27	O	-0.489795	-0.706531	-0.399178
O28	O	0.010205	-0.206531	0.100822
O29	O	-0.378903	-0.898466	-0.487469
O30	O	0.121097	-0.398466	0.012531
O31	O	-0.636016	-0.867413	-0.339781
O32	O	-0.136016	-0.367413	0.160219
O33	O	-0.636031	-0.790475	-0.416734
O34	O	-0.136031	-0.290475	0.083266
C35	C	-0.434395	-0.690464	-0.354048
C36	C	0.065605	-0.190464	0.145952
C37	C	-0.434438	-0.620817	-0.354060
C38	C	0.065562	-0.120817	0.145940
C39	C	-0.376823	-0.595085	-0.387283
C40	C	0.123177	-0.095085	0.112717
C41	C	-0.376802	-0.529652	-0.387282
C42	C	0.123198	-0.029652	0.112718
C43	C	-0.434412	-0.489952	-0.354067
C44	C	0.065588	0.010048	0.145933
C45	C	-0.492031	-0.515692	-0.320836
C46	C	0.007969	-0.015692	0.179164
C47	C	-0.492044	-0.581124	-0.320833
C48	C	0.007956	-0.081124	0.179167
C49	C	-0.515669	-0.376466	-0.358790
C50	C	-0.015669	0.123534	0.141210
C51	C	-0.515658	-0.311035	-0.358798
C52	C	-0.015658	0.188965	0.141202
C53	C	-0.434371	-0.288136	-0.354073
C54	C	0.065629	0.211864	0.145927
C55	C	-0.353094	-0.330678	-0.349353
C56	C	0.146906	0.169322	0.150647
C57	C	-0.353107	-0.396110	-0.349350
C58	C	0.146893	0.103890	0.150650
C59	C	-0.434404	-0.419001	-0.354066
C60	C	0.065596	0.080999	0.145934
C61	C	-0.376728	-0.191455	-0.387296
C62	C	0.123272	0.308545	0.112704
C63	C	-0.376706	-0.126021	-0.387291
C64	C	0.123294	0.373979	0.112709
C65	C	-0.491943	-0.112061	-0.320850
C66	C	0.008057	0.387939	0.179150
C67	C	-0.491958	-0.177494	-0.320851
C68	C	0.008042	0.322506	0.179149
C69	C	-0.434351	-0.217187	-0.354078
C70	C	0.065649	0.282813	0.145922
C71	C	-0.668761	-0.825015	-0.382199
C72	C	-0.168761	-0.325015	0.117801
C73	C	-0.769046	-0.812989	-0.394257
C74	C	-0.269046	-0.312989	0.105743
C75	C	-1.051575	-0.939461	-0.268094
C76	C	-0.551575	-0.439461	0.231906
C77	C	-0.957353	-0.950759	-0.256762
C78	C	-0.457353	-0.450759	0.243238
C79	C	-0.910271	-0.916318	-0.291135
C80	C	-0.410271	-0.416318	0.208865
C81	C	-0.957422	-0.870576	-0.336842
C82	C	-0.457422	-0.370576	0.163158
C83	C	-1.051654	-0.859274	-0.348172
C84	C	-0.551654	-0.359274	0.151828
C85	C	-0.910350	-0.836131	-0.371212
C86	C	-0.410350	-0.336131	0.128788
C87	C	-0.957500	-0.790389	-0.416920
C88	C	-0.457500	-0.290389	0.083080
C89	C	-1.051723	-0.779089	-0.428248
C90	C	-0.551723	-0.279089	0.071752
C91	C	-1.098804	-0.813530	-0.393875
C92	C	-0.598804	-0.313530	0.106125
C93	C	-0.816118	-0.847433	-0.359882
C94	C	-0.316118	-0.347433	0.140118
C95	C	-0.816196	-0.767246	-0.439960
C96	C	-0.316196	-0.267246	0.060040
C97	C	-0.910419	-0.755948	-0.451293
C98	C	-0.410419	-0.255948	0.048707
C99	C	-0.199011	-0.881628	-0.325829
C100	C	0.300989	-0.381628	0.174171
C101	C	-0.098726	-0.893718	-0.313797
C102	C	0.401274	-0.393718	0.186203
C103	C	-0.434325	-0.853312	-0.517483
C104	C	0.065675	-0.353312	-0.017483
C105	C	-0.434317	-0.853335	-0.587123
C106	C	0.065683	-0.353335	-0.087123
C107	C	-0.434304	-0.016686	-0.354074
C108	C	0.065696	0.483314	0.145926
C109	C	-0.434315	-0.086325	-0.354074
C110	C	0.065685	0.413675	0.145926
C111	C	-0.376596	-0.900365	-0.612917
C112	C	0.123404	-0.400365	-0.112917
C113	C	-0.376557	-0.900369	-0.678348
C114	C	0.123443	-0.400369	-0.178348
C115	C	-0.434256	-0.853347	-0.717984
C116	C	0.065744	-0.353347	-0.217984
C117	C	-0.491981	-0.806309	-0.692183
C118	C	0.008019	-0.306309	-0.192183
C119	C	-0.492012	-0.806302	-0.626752
C120	C	0.007988	-0.306302	-0.126752
C121	C	-0.515497	-0.838612	-0.831410
C122	C	-0.015497	-0.338612	-0.331410
C123	C	-0.515468	-0.838622	-0.896840
C124	C	-0.015468	-0.338622	-0.396840
C125	C	-0.434161	-0.853362	-0.919794
C126	C	0.065839	-0.353362	-0.419794
C127	C	-0.352880	-0.868106	-0.877310
C128	C	0.147120	-0.368106	-0.377310
C129	C	-0.352911	-0.868100	-0.811879
C130	C	0.147089	-0.368100	-0.311879
C131	C	-0.434229	-0.853348	-0.788933
C132	C	0.065771	-0.353348	-0.288933
C133	C	-0.376392	-0.900400	-1.016535
C134	C	0.123608	-0.400400	-0.516535
C135	C	-0.376352	-0.900399	-1.081967
C136	C	0.123648	-0.400399	-0.581967
C137	C	-0.491784	-0.806341	-1.095801
C138	C	0.008216	-0.306341	-0.595801
C139	C	-0.491816	-0.806339	-1.030369
C140	C	0.008184	-0.306339	-0.530369
C141	C	-0.434122	-0.853372	-0.990740
C142	C	0.065878	-0.353372	-0.490740
C143	C	-0.434297	-0.853247	-0.191269
C144	C	0.065703	-0.353247	0.308731
C145	C	-0.434050	-0.853376	-0.121598
C146	C	0.065950	-0.353376	0.378402
H147	H	-0.329816	-0.223775	-0.414347
H148	H	0.170184	0.276225	0.085653
N149	N	-0.554111	-0.205256	-0.285029
N150	N	-0.054111	0.294744	0.214971
H151	H	-0.517388	-0.236826	-0.251626
H152	H	-0.017388	0.263174	0.248374
H153	H	-0.590595	-0.170143	-0.264027
H154	H	-0.090595	0.329857	0.235973
N155	N	-0.554258	-0.755568	-0.598926
N156	N	-0.054258	-0.255568	-0.098926
H157	H	-0.590800	-0.725775	-0.633960
H158	H	-0.090800	-0.225775	-0.133960
H159	H	-0.596023	-0.776028	-0.576802
H160	H	-0.096023	-0.276028	-0.076802
N161	N	-0.314175	-0.951123	-0.973782
N162	N	0.185825	-0.451123	-0.473782
H163	H	-0.249702	-0.949169	-0.977408
H164	H	0.250298	-0.449169	-0.477408
H165	H	-0.323046	-0.943950	-0.928442
H166	H	0.176954	-0.443950	-0.428442
H167	H	-0.948822	-0.718704	-0.488508
H168	H	-0.448822	-0.218704	0.011492
N169	N	-0.314097	-0.951125	-1.109797
N170	N	0.185903	-0.451125	-0.609797
H171	H	-0.272278	-0.930703	-1.131908
H172	H	0.227722	-0.430703	-0.631908
H173	H	-0.277613	-0.980904	-1.074735
H174	H	0.222387	-0.480904	-0.574735
H175	H	-0.286928	-0.430745	-0.345504
H176	H	0.213072	0.069255	0.154496
H177	H	-0.777864	-0.739199	-0.467949
H178	H	-0.277864	-0.239199	0.032051
N179	N	-0.603318	-0.265157	-0.363886
N180	N	-0.103318	0.234843	0.136114
H181	H	-0.602007	-0.238146	-0.325124
H182	H	-0.102007	0.261854	0.174876
H183	H	-0.611813	-0.237039	-0.403096
H184	H	-0.111813	0.262961	0.096904
H185	H	-0.538754	-0.768050	-1.128071
H186	H	-0.038754	-0.268050	-0.628071
N187	N	-0.765264	-0.896768	-0.310592
N188	N	-0.265264	-0.396768	0.189408
H189	H	-0.781708	-0.885088	-0.267794
H190	H	-0.281708	-0.385088	0.232206
H191	H	-0.781608	-0.939552	-0.322385
H192	H	-0.281608	-0.439552	0.177615
H193	H	-0.329615	-0.938662	-0.580655
H194	H	0.170385	-0.438662	-0.080655
N195	N	-0.906500	-1.000098	-0.207475
N196	N	-0.406500	-0.500098	0.292525
H197	H	-0.922943	-0.988422	-0.164675
H198	H	-0.422943	-0.488422	0.335325
H199	H	-0.922846	-1.042880	-0.219272
H200	H	-0.422846	-0.542880	0.280728
N201	N	-0.314683	-0.637889	-0.423117
N202	N	0.185317	-0.137889	0.076883
H203	H	-0.250197	-0.634281	-0.405717
H204	H	0.249803	-0.134281	0.094283
H205	H	-0.323501	-0.683228	-0.418067
H206	H	0.176499	-0.183228	0.081933
N207	N	-0.314657	-0.501888	-0.423116
N208	N	0.185343	-0.001888	0.076884
H209	H	-0.278166	-0.536962	-0.444163
H210	H	0.221834	-0.036962	0.055837
H211	H	-0.351448	-0.470310	-0.456483
H212	H	0.148552	0.029690	0.043517
H213	H	-0.538825	-0.768045	-1.009369
H214	H	-0.038825	-0.268045	-0.509369
N215	N	-0.603130	-0.822726	-0.942659
N216	N	-0.103130	-0.322726	-0.442659
H217	H	-0.654641	-0.813379	-0.918190
H218	H	-0.154641	-0.313379	-0.418190
H219	H	-0.601826	-0.784280	-0.969637
H220	H	-0.101826	-0.284280	-0.469637
H221	H	-0.286902	-0.312036	-0.345506
H222	H	0.213098	0.187964	0.154494
H223	H	-0.329549	-0.938666	-0.699354
H224	H	0.170451	-0.438666	-0.199354
N225	N	-1.102353	-0.976594	-0.231014
N226	N	-0.602353	-0.476594	0.268986
H227	H	-1.169199	-0.962489	-0.245124
H228	H	-0.669199	-0.462489	0.254876
H229	H	-1.085816	-1.023324	-0.238809
H230	H	-0.585816	-0.523324	0.261191
N231	N	-0.265253	-0.884002	-0.766057
N232	N	0.234747	-0.384002	-0.266057
H233	H	-0.213736	-0.893343	-0.790522
H234	H	0.286264	-0.393343	-0.290522
H235	H	-0.256900	-0.846833	-0.737888
H236	H	0.243100	-0.346833	-0.237888
H237	H	-0.538957	-0.768022	-0.724458
H238	H	-0.038957	-0.268022	-0.224458
N239	N	-0.314544	-0.098266	-0.423112
N240	N	0.185456	0.401734	0.076888
H241	H	-0.278054	-0.133342	-0.444157
H242	H	0.221946	0.366658	0.055843
H243	H	-0.351318	-0.066682	-0.456481
H244	H	0.148682	0.433318	0.043519
H245	H	-0.538850	-0.079738	-0.293805
H246	H	-0.038850	0.420262	0.206195
H247	H	-0.581867	-0.395103	-0.362638
H248	H	-0.081867	0.104897	0.137362
H249	H	-0.833551	-0.925519	-0.281904
H250	H	-0.333551	-0.425519	0.218096
H251	H	-0.538937	-0.483364	-0.293792
H252	H	-0.038937	0.016636	0.206208
N253	N	-1.200433	-0.801344	-0.406100
N254	N	-0.700433	-0.301344	0.093900
H255	H	-1.223099	-0.830107	-0.377391
H256	H	-0.723099	-0.330107	0.122609
H257	H	-1.223137	-0.755625	-0.397292
H258	H	-0.723137	-0.255625	0.102708
H259	H	-0.538963	-0.602074	-0.293778
H260	H	-0.038963	-0.102074	0.206222
N261	N	-0.603200	-0.822718	-0.806658
N262	N	-0.103200	-0.322718	-0.306658
H263	H	-0.611652	-0.859869	-0.780541
H264	H	-0.111652	-0.359869	-0.280541
H265	H	-0.601959	-0.784236	-0.779379
H266	H	-0.101959	-0.284236	-0.279379
N267	N	-1.102571	-0.729745	-0.477538
N268	N	-0.602571	-0.229745	0.022462
H269	H	-1.086130	-0.741425	-0.520338
H270	H	-0.586130	-0.241425	-0.020338
H271	H	-1.169391	-0.727828	-0.479446
H272	H	-0.669391	-0.227828	0.020554
N273	N	-0.265176	-0.884012	-0.902055
N274	N	0.234824	-0.384012	-0.402055
H275	H	-0.277486	-0.881777	-0.949951
H276	H	0.222514	-0.381777	-0.449951
H277	H	-0.224853	-0.852642	-0.885756
H278	H	0.275147	-0.352642	-0.385756
