data_functionalizedCrystal
_audit_creation_method	'MofGen! by Chris Wilmer'
_symmetry_space_group_name_H-M	'P1'
_symmetry_Int_Tables_number	1
_symmetry_cell_setting	triclinic
loop_
_symmetry_equiv_pos_as_xyz
  x,y,z
_cell_length_a	16.992694
_cell_length_b	16.992695
_cell_length_c	16.053802
_cell_angle_alpha	92.747646
_cell_angle_beta	92.750953
_cell_angle_gamma	89.331778
loop_
_atom_site_label
_atom_site_type_symbol
_atom_site_fract_x
_atom_site_fract_y
_atom_site_fract_z
O1	O	-1.053958	0.163816	-0.069305
O2	O	-0.825559	0.161984	-0.069330
O3	O	-0.938844	0.048699	-0.069325
O4	O	-0.940674	0.277100	-0.069310
O5	O	-0.932606	0.054907	0.069534
O6	O	-0.819322	0.168192	0.069529
O7	O	-1.047721	0.170024	0.069554
Zn8	Zn	-0.932531	0.170093	0.091588
Zn9	Zn	-0.940749	0.161914	-0.091364
O10	O	-0.934437	0.283308	0.069549
C11	C	-0.793081	0.162732	0.000096
C12	C	-0.705597	0.155703	0.000086
C13	C	-1.080200	0.169276	0.000126
C14	C	-1.167684	0.176305	0.000130
C15	C	-0.659605	0.223521	0.000091
C16	C	-0.577404	0.216912	0.000102
C17	C	-0.541196	0.142485	0.000102
C18	C	-0.587193	0.074662	0.000100
C19	C	-0.669392	0.081271	0.000095
C20	C	-0.295881	0.115091	0.000123
C21	C	-0.213675	0.108487	0.000125
C22	C	-0.203892	0.250738	0.000129
C23	C	-0.286094	0.257341	0.000119
C24	C	-0.332083	0.189518	0.000121
N25	N	-0.457173	0.135728	0.000111
N26	N	-0.416104	0.196276	0.000118
N27	N	-0.926929	0.175676	0.216448
C28	C	-0.939911	0.309564	0.000121
C29	C	-0.946940	0.397049	0.000127
C30	C	-0.933369	0.022443	0.000101
C31	C	-0.926341	-0.065042	0.000089
C32	C	-0.879122	0.443040	0.000120
C33	C	-0.885731	0.525240	0.000110
C34	C	-0.960159	0.561449	0.000114
C35	C	-1.027982	0.515452	0.000119
C36	C	-1.021372	0.433253	0.000123
C37	C	-0.987554	0.806762	0.000098
C38	C	-0.994159	0.888967	0.000097
C39	C	-0.851908	0.898750	0.000086
C40	C	-0.845304	0.816549	0.000095
C41	C	-0.913127	0.770559	0.000095
N42	N	-0.966916	0.645471	0.000107
N43	N	-0.906369	0.686539	0.000097
N44	N	-0.946358	0.156326	-0.216224
C45	C	-0.975151	0.127492	0.260144
C46	C	-0.971240	0.131405	0.347551
C47	C	-0.919109	0.183505	0.391260
C48	C	-0.870882	0.231691	0.347557
C49	C	-0.874789	0.227773	0.260152
C50	C	-0.902038	0.200594	0.652668
C51	C	-0.898135	0.204509	0.740080
C52	C	-0.998493	0.104222	0.740067
C53	C	-1.002399	0.100313	0.652660
C54	C	-0.954169	0.148495	0.608966
N55	N	-0.915112	0.187508	0.480603
N56	N	-0.958163	0.144488	0.519624
H57	H	-0.689080	0.284128	0.000090
O58	O	-0.321167	0.329684	0.000005
C59	C	-0.301324	0.368100	-0.071922
H60	H	-0.244111	0.341989	-0.095888
H61	H	-0.293296	0.433663	-0.055751
H62	H	-0.350519	0.359713	-0.122286
H63	H	-0.784698	0.787074	0.000082
O64	O	-0.159099	0.316539	0.000171
C65	C	-0.078784	0.294750	0.000155
H66	H	-0.070584	0.233897	0.026439
H67	H	-0.042615	0.339464	0.040475
H68	H	-0.058207	0.293269	-0.066461
O69	O	-0.806870	0.407775	0.000004
C70	C	-0.802015	0.357313	-0.071921
H71	H	-0.863854	0.339674	-0.095888
H72	H	-0.766537	0.302307	-0.055748
H73	H	-0.771727	0.389151	-0.122286
H74	H	-0.706838	0.026046	0.000090
H75	H	-1.044848	0.057889	0.617074
O76	O	-0.855162	0.247480	0.610360
C77	C	-0.808303	0.294292	0.667685
H78	H	-0.837852	0.300012	0.729984
H79	H	-0.801357	0.355267	0.642431
H80	H	-0.747811	0.265450	0.676994
H81	H	-0.796690	0.936203	0.000084
O82	O	-1.025811	0.076813	0.217818
C83	C	-1.067547	0.035139	0.275133
H84	H	-1.032430	0.035002	0.337442
H85	H	-1.076749	-0.028100	0.249883
H86	H	-1.127208	0.064813	0.284421
O87	O	-1.017974	0.084519	0.390030
C88	C	-0.970526	0.035558	0.440611
H89	H	-0.909539	0.029117	0.414283
H90	H	-0.998688	-0.024934	0.441594
H91	H	-0.964983	0.062896	0.506855
H92	H	-0.828432	0.274109	0.383150
H93	H	-0.333316	0.059864	0.000125
O94	O	-1.045256	0.057447	0.782642
C95	C	-1.030646	0.072087	0.869160
H96	H	-0.969371	0.098088	0.881106
H97	H	-1.034185	0.014514	0.902379
H98	H	-1.076566	0.115496	0.893956
H99	H	-0.855682	0.246939	0.775663
H100	H	-0.830507	0.562682	0.000101
H101	H	-1.088582	0.544939	0.000124
O102	O	-1.066525	0.924013	0.000052
C103	C	-1.124970	0.865797	0.000069
H104	H	-1.100588	0.807457	-0.026214
H105	H	-1.178425	0.884321	-0.040253
H106	H	-1.143158	0.858537	0.066684
O107	O	-1.053421	0.762058	-0.000046
C108	C	-1.057079	0.710986	-0.071952
H109	H	-1.020961	0.736279	-0.122219
H110	H	-1.120993	0.704655	-0.096088
H111	H	-1.032241	0.650727	-0.055695
O112	O	-0.827865	0.274466	0.217666
C113	C	-0.778937	0.226970	0.167102
H114	H	-0.772544	0.165985	0.193447
H115	H	-0.718423	0.255085	0.166116
H116	H	-0.806276	0.221433	0.100856
H117	H	-1.076597	0.395808	0.000126
O118	O	-0.532772	0.282809	-0.000045
C119	C	-0.553116	0.324480	-0.071953
H120	H	-0.580821	0.282428	-0.122220
H121	H	-0.497921	0.351320	-0.096088
H122	H	-0.597055	0.373389	-0.055700
H123	H	-0.557705	0.014061	0.000112
O124	O	-0.178626	0.036124	0.000162
C125	C	-0.236844	-0.022323	0.000140
H126	H	-0.292827	0.004410	0.026433
H127	H	-0.214705	-0.072172	0.040451
H128	H	-0.250077	-0.046469	-0.066478
