data_functionalizedCrystal
_audit_creation_method	'MofGen! by Chris Wilmer'
_symmetry_space_group_name_H-M	'P1'
_symmetry_Int_Tables_number	1
_symmetry_cell_setting	triclinic
loop_
_symmetry_equiv_pos_as_xyz
  x,y,z
_cell_length_a	10.540539
_cell_length_b	9.016244
_cell_length_c	10.654550
_cell_angle_alpha	89.994384
_cell_angle_beta	95.494803
_cell_angle_gamma	90.000301
loop_
_atom_site_label
_atom_site_type_symbol
_atom_site_fract_x
_atom_site_fract_y
_atom_site_fract_z
O1	O	1.685819	0.123266	-0.176996
O2	O	1.316400	0.123284	-0.193672
O3	O	1.509603	0.123269	-0.002598
O4	O	1.492616	0.123281	-0.368071
O5	O	1.509595	-0.123411	-0.002584
O6	O	1.316392	-0.123397	-0.193658
O7	O	1.685811	-0.123414	-0.176982
Cu8	Cu	1.501101	-0.145929	-0.185319
Cu9	Cu	1.501111	0.145799	-0.185336
O10	O	1.492608	-0.123400	-0.368056
C11	C	1.269094	-0.000054	-0.192415
C12	C	1.128147	-0.000047	-0.188673
C13	C	0.944772	-0.000627	-0.045302
C14	C	1.091388	-0.000056	-0.049095
C15	C	1.066455	0.140816	-0.255852
C16	C	0.919912	0.140919	-0.251089
C17	C	0.919413	-0.139603	-0.253912
C18	C	1.066395	-0.141450	-0.255197
N19	N	1.501103	-0.351116	-0.185306
C20	C	1.604840	-0.586110	-0.083446
C21	C	1.604560	-0.414219	-0.083058
C22	C	1.368409	-0.413535	-0.155496
C23	C	1.369026	-0.585480	-0.154782
C24	C	1.528898	-0.585617	-0.317330
C25	C	1.531893	-0.413661	-0.316468
C26	C	1.733118	-0.000073	-0.178240
C27	C	1.874064	-0.000070	-0.181981
C28	C	1.508352	-0.000069	0.044208
C29	C	1.504620	-0.000064	0.183652
N30	N	1.501118	0.350985	-0.185338
C31	C	1.493859	-0.000058	-0.414862
C32	C	1.497591	-0.000053	-0.554306
C33	C	1.618375	-0.000074	0.263098
C34	C	1.614861	-0.000063	0.394120
C35	C	1.383827	-0.000039	0.366238
C36	C	1.387343	-0.000039	0.235218
C37	C	1.751761	-0.000094	0.279196
C38	C	1.748247	-0.000084	0.410218
H39	H	1.088771	0.146061	-0.358355
Br40	Br	1.822520	-0.177634	0.219785
Br41	Br	1.162448	-0.168358	0.039008
H42	H	1.586690	-0.373102	0.014874
Br43	Br	1.224672	0.000004	0.436229
Br44	Br	0.840644	-0.141185	-0.421946
H45	H	0.916203	-0.101649	0.009846
Br46	Br	0.894456	0.166791	0.046220
Br47	Br	1.160967	0.168825	0.039213
Br48	Br	1.815434	0.177431	0.486272
Br49	Br	1.328508	-0.652362	0.005718
H50	H	1.798501	-0.103320	0.451967
H51	H	1.587225	-0.629339	0.013925
H52	H	0.887880	-0.246377	-0.208735
H53	H	1.703161	-0.372015	-0.100984
H54	H	0.891723	0.246213	-0.201449
Br55	Br	1.232955	0.000020	0.127401
H56	H	1.289316	-0.372662	-0.227680
H57	H	1.109063	0.245647	-0.209197
H58	H	1.289465	-0.627093	-0.226111
H59	H	1.629514	-0.372865	-0.339061
H60	H	1.803936	0.103131	0.249814
Br61	Br	1.326938	-0.341795	0.003196
H62	H	0.871907	0.147316	-0.351472
H63	H	1.107371	-0.245660	-0.206120
H64	H	1.703770	-0.627454	-0.101104
Br65	Br	1.106700	-0.155622	-0.424814
H66	H	1.623654	-0.628974	-0.345690
H67	H	1.453275	-0.626304	-0.393170
Br68	Br	1.414283	-0.342064	-0.448920
