data_functionalizedCrystal
_audit_creation_method	'MofGen! by Chris Wilmer'
_symmetry_space_group_name_H-M	'P1'
_symmetry_Int_Tables_number	1
_symmetry_cell_setting	triclinic
loop_
_symmetry_equiv_pos_as_xyz
  x,y,z
_cell_length_a	12.827893
_cell_length_b	16.625545
_cell_length_c	16.625539
_cell_angle_alpha	89.973630
_cell_angle_beta	90.015091
_cell_angle_gamma	89.975993
loop_
_atom_site_label
_atom_site_type_symbol
_atom_site_fract_x
_atom_site_fract_y
_atom_site_fract_z
Zn1	Zn	1.597564	0.321016	0.455867
Zn2	Zn	1.847564	0.571016	0.705867
Zn3	Zn	2.097564	0.821016	0.955867
Zn4	Zn	2.347564	1.071016	1.205867
Zn5	Zn	1.597444	0.455854	0.321035
Zn6	Zn	1.847444	0.705854	0.571035
Zn7	Zn	2.097444	0.955854	0.821035
Zn8	Zn	2.347444	1.205854	1.071035
Zn9	Zn	1.422818	0.321039	0.321053
Zn10	Zn	1.672818	0.571039	0.571053
Zn11	Zn	1.922818	0.821039	0.821053
Zn12	Zn	2.172818	1.071039	1.071053
Zn13	Zn	1.422764	0.455810	0.455829
Zn14	Zn	1.672764	0.705810	0.705829
Zn15	Zn	1.922764	0.955810	0.955829
Zn16	Zn	2.172764	1.205810	1.205829
O17	O	1.510147	0.388430	0.388446
O18	O	1.760147	0.638430	0.638446
O19	O	2.010147	0.888430	0.888446
O20	O	2.260147	1.138430	1.138446
O21	O	1.743784	0.338911	0.437990
O22	O	1.993784	0.588911	0.687990
O23	O	2.243784	0.838911	0.937990
O24	O	2.493784	1.088911	1.187990
O25	O	1.574252	0.437999	0.208205
O26	O	1.824252	0.687999	0.458205
O27	O	2.074252	0.937999	0.708205
O28	O	2.324252	1.187999	0.958205
O29	O	1.446071	0.208204	0.338959
O30	O	1.696071	0.458204	0.588959
O31	O	1.946071	0.708204	0.838959
O32	O	2.196071	0.958204	1.088959
O33	O	1.743696	0.437976	0.338929
O34	O	1.993696	0.687976	0.588929
O35	O	2.243696	0.937976	0.838929
O36	O	2.493696	1.187976	1.088929
O37	O	1.574456	0.208186	0.438007
O38	O	1.824456	0.458186	0.688007
O39	O	2.074456	0.708186	0.938007
O40	O	2.324456	0.958186	1.188007
O41	O	1.445955	0.338951	0.208218
O42	O	1.695955	0.588951	0.458218
O43	O	1.945955	0.838951	0.708218
O44	O	2.195955	1.088951	0.958218
O45	O	1.276575	0.338908	0.338923
O46	O	1.526575	0.588908	0.588923
O47	O	1.776575	0.838908	0.838923
O48	O	2.026575	1.088908	1.088923
O49	O	1.445979	0.437901	0.568667
O50	O	1.695979	0.687901	0.818667
O51	O	1.945979	0.937901	1.068667
O52	O	2.195979	1.187901	1.318667
O53	O	1.276535	0.437924	0.437942
O54	O	1.526535	0.687924	0.687942
O55	O	1.776535	0.937924	0.937942
O56	O	2.026535	1.187924	1.187942
O57	O	1.574404	0.338868	0.568695
O58	O	1.824404	0.588868	0.818695
O59	O	2.074404	0.838868	1.068695
O60	O	2.324404	1.088868	1.318695
O61	O	1.574200	0.568681	0.338892
O62	O	1.824200	0.818681	0.588892
O63	O	2.074200	1.068681	0.838892
O64	O	2.324200	1.318681	1.088892
O65	O	1.445863	0.568648	0.437925
O66	O	1.695863	0.818648	0.687925
O67	O	1.945863	1.068648	0.937925
O68	O	2.195863	1.318648	1.187925
C69	C	1.238638	0.388414	0.388431
C70	C	1.488638	0.638414	0.638431
C71	C	1.738638	0.888414	0.888431
C72	C	1.988638	1.138414	1.138431
C73	C	1.122484	0.388427	0.388443
C74	C	1.372484	0.638427	0.638443
C75	C	1.622484	0.888427	0.888443
C76	C	1.872484	1.138427	1.138443
C77	C	1.070708	0.437500	0.437366
C78	C	1.320708	0.687500	0.687366
C79	C	1.570708	0.937500	0.937366
C80	C	1.820708	1.187500	1.187366
C81	C	0.950657	0.437514	0.437380
C82	C	1.200657	0.687514	0.687380
C83	C	1.450657	0.937514	0.937380
C84	C	1.700657	1.187514	1.187380
C85	C	1.510041	0.597921	0.388420
C86	C	1.760041	0.847921	0.638420
C87	C	2.010041	1.097921	0.888420
C88	C	2.260041	1.347921	1.138420
C89	C	1.510091	0.687542	0.388436
C90	C	1.760091	0.937542	0.638436
C91	C	2.010091	1.187542	0.888436
C92	C	2.260091	1.437542	1.138436
C93	C	1.510262	1.015717	0.388532
C94	C	1.760262	1.265717	0.638532
C95	C	2.010262	1.515717	0.888532
C96	C	2.260262	1.765717	1.138532
C97	C	1.510211	0.924409	0.388508
C98	C	1.760211	1.174409	0.638508
C99	C	2.010211	1.424409	0.888508
C100	C	2.260211	1.674409	1.138508
C101	C	1.510176	0.851633	0.388484
C102	C	1.760176	1.101633	0.638484
C103	C	2.010176	1.351633	0.888484
C104	C	2.260176	1.601633	1.138484
C105	C	1.510127	0.760318	0.388460
C106	C	1.760127	1.010318	0.638460
C107	C	2.010127	1.260318	0.888460
C108	C	2.260127	1.510318	1.138460
C109	C	1.782718	0.388446	0.388462
C110	C	2.032718	0.638446	0.638462
C111	C	2.282718	0.888446	0.888462
C112	C	2.532718	1.138446	1.138462
C113	C	1.898871	0.388453	0.388469
C114	C	2.148871	0.638453	0.638469
C115	C	2.398871	0.888453	0.888469
C116	C	2.648871	1.138453	1.138469
C117	C	1.510274	1.178121	0.388499
C118	C	1.760274	1.428121	0.638499
C119	C	2.010274	1.678121	0.888499
C120	C	2.260274	1.928121	1.138499
C121	C	1.510305	1.088500	0.388546
C122	C	1.760305	1.338500	0.638546
C123	C	2.010305	1.588500	0.888546
C124	C	2.260305	1.838500	1.138546
C125	C	1.510199	0.388377	0.598755
C126	C	1.760199	0.638377	0.848755
C127	C	2.010199	0.888377	1.098755
C128	C	2.260199	1.138377	1.348755
C129	C	1.510220	0.388354	0.688376
C130	C	1.760220	0.638354	0.938376
C131	C	2.010220	0.888354	1.188376
C132	C	2.260220	1.138354	1.438376
C133	C	1.510157	0.388425	0.178955
C134	C	1.760157	0.638425	0.428955
C135	C	2.010157	0.888425	0.678955
C136	C	2.260157	1.138425	0.928955
C137	C	1.510337	0.388220	0.089335
C138	C	1.760337	0.638220	0.339335
C139	C	2.010337	0.888220	0.589335
C140	C	2.260337	1.138220	0.839335
C141	C	1.510238	0.388336	0.761159
C142	C	1.760238	0.638336	1.011159
C143	C	2.010238	0.888336	1.261159
C144	C	2.260238	1.138336	1.511159
C145	C	1.510262	0.388306	0.852467
C146	C	1.760262	0.638306	1.102467
C147	C	2.010262	0.888306	1.352467
C148	C	2.260262	1.138306	1.602467
C149	C	1.510287	0.388278	0.925244
C150	C	1.760287	0.638278	1.175244
C151	C	2.010287	0.888278	1.425244
C152	C	2.260287	1.138278	1.675244
C153	C	1.510313	0.388249	1.016558
C154	C	1.760313	0.638249	1.266558
C155	C	2.010313	0.888249	1.516558
C156	C	2.260313	1.138249	1.766558
H157	H	1.077936	0.346422	0.346573
H158	H	1.327936	0.596422	0.596573
H159	H	1.577936	0.846422	0.846573
H160	H	1.827936	1.096422	1.096573
H161	H	0.943391	0.346441	0.346579
H162	H	1.193391	0.596441	0.596579
H163	H	1.443391	0.846441	0.846579
H164	H	1.693391	1.096441	1.096579
H165	H	0.906131	0.479529	0.479262
H166	H	1.156131	0.729529	0.729262
H167	H	1.406131	0.979529	0.979262
H168	H	1.656131	1.229529	1.229262
H169	H	1.115256	0.479499	0.479243
H170	H	1.365256	0.729499	0.729243
H171	H	1.615256	0.979499	0.979243
H172	H	1.865256	1.229499	1.229243
