data_functionalizedCrystal
_audit_creation_method	'MofGen! by Chris Wilmer'
_symmetry_space_group_name_H-M	'P1'
_symmetry_Int_Tables_number	1
_symmetry_cell_setting	triclinic
loop_
_symmetry_equiv_pos_as_xyz
  x,y,z
_cell_length_a	23.532407
_cell_length_b	15.944551
_cell_length_c	15.021413
_cell_angle_alpha	89.996935
_cell_angle_beta	90.001925
_cell_angle_gamma	83.173708
loop_
_atom_site_label
_atom_site_type_symbol
_atom_site_fract_x
_atom_site_fract_y
_atom_site_fract_z
O1	O	-0.755658	-0.101953	-0.073923
O2	O	-0.255658	0.398047	0.426077
O3	O	-0.589851	-0.116707	-0.073949
O4	O	-0.089851	0.383293	0.426051
O5	O	-0.677282	0.012983	-0.073927
O6	O	-0.177282	0.512983	0.426073
O7	O	-0.668227	-0.231643	-0.073945
O8	O	-0.168227	0.268357	0.426055
O9	O	-0.677268	0.012965	0.074137
O10	O	-0.177268	0.512965	0.574137
O11	O	-0.589838	-0.116725	0.074115
O12	O	-0.089838	0.383275	0.574115
O13	O	-0.755644	-0.101972	0.074141
O14	O	-0.255644	0.398028	0.574141
Zn15	Zn	-0.672738	-0.109351	0.097636
Zn16	Zn	-0.172738	0.390649	0.597636
Zn17	Zn	-0.672757	-0.109327	-0.097444
Zn18	Zn	-0.172757	0.390673	0.402556
O19	O	-0.668213	-0.231661	0.074119
O20	O	-0.168213	0.268339	0.574119
C21	C	-0.676899	0.044265	0.000105
C22	C	-0.176899	0.544265	0.500105
C23	C	-0.675772	0.137501	0.000105
C24	C	-0.175772	0.637501	0.500105
C25	C	-0.568627	-0.116340	0.000080
C26	C	-0.068627	0.383660	0.500080
C27	C	-0.505406	-0.115211	0.000070
C28	C	-0.005406	0.384789	0.500070
C29	C	-0.776868	-0.102338	0.000111
C30	C	-0.276868	0.397662	0.500111
C31	C	-0.840090	-0.103468	0.000115
C32	C	-0.340090	0.396532	0.500115
C33	C	-0.106572	-0.184874	0.000105
C34	C	0.393428	0.315126	0.500105
C35	C	-0.047168	-0.183824	0.000111
C36	C	0.452832	0.316176	0.500111
O37	O	-0.010674	-0.248403	0.000138
O38	O	0.489326	0.251597	0.500138
N39	N	-0.024243	-0.106724	0.000115
N40	N	0.475757	0.393276	0.500115
C41	C	-0.060726	-0.030668	0.000122
C42	C	0.439274	0.469332	0.500122
O43	O	-0.035772	0.035009	0.000127
O44	O	0.464228	0.535009	0.500127
C45	C	-0.120129	-0.031718	0.000123
C46	C	0.379871	0.468282	0.500123
C47	C	-0.143051	-0.108823	0.000110
C48	C	0.356949	0.391177	0.500110
C49	C	-0.129494	-0.261973	0.000093
C50	C	0.370506	0.238027	0.500093
C51	C	-0.188894	-0.263022	0.000086
C52	C	0.311106	0.236978	0.500086
C53	C	-0.225373	-0.186971	0.000091
C54	C	0.274627	0.313029	0.500091
C55	C	-0.202451	-0.109872	0.000103
C56	C	0.297549	0.390128	0.500103
C57	C	-0.156611	0.044337	0.000137
C58	C	0.343389	0.544337	0.500137
C59	C	-0.216018	0.043281	0.000138
C60	C	0.283982	0.543281	0.500138
C61	C	-0.238939	-0.033825	0.000125
C62	C	0.261061	0.466175	0.500125
C63	C	-0.298329	-0.034871	0.000100
C64	C	0.201671	0.465129	0.500100
N65	N	-0.321254	-0.111971	0.000096
N66	N	0.178746	0.388029	0.500096
C67	C	-0.284776	-0.188022	0.000092
C68	C	0.215224	0.311978	0.500092
C69	C	0.064025	-0.028468	0.000122
C70	C	0.564025	0.471532	0.500122
C71	C	0.123427	-0.027417	0.000115
C72	C	0.623427	0.472583	0.500115
C73	C	0.136981	-0.180574	0.000105
C74	C	0.636981	0.319426	0.500105
C75	C	0.077578	-0.181624	0.000106
C76	C	0.577578	0.318376	0.500106
C77	C	0.041100	-0.105569	0.000118
C78	C	0.541100	0.394431	0.500118
C79	C	-0.409521	-0.190219	0.000076
C80	C	0.090479	0.309781	0.500076
C81	C	-0.468927	-0.191261	0.000065
C82	C	0.031073	0.308739	0.500065
C83	C	-0.482476	-0.038104	0.000079
C84	C	0.017524	0.461896	0.500079
C85	C	-0.423075	-0.037062	0.000086
C86	C	0.076925	0.462938	0.500086
C87	C	-0.386599	-0.113126	0.000087
C88	C	0.113401	0.386874	0.500087
O89	O	-0.334859	0.029673	0.000076
O90	O	0.165141	0.529673	0.500076
O91	O	-0.309738	-0.253687	0.000098
O92	O	0.190262	0.246313	0.500098
C93	C	-0.668596	-0.262943	0.000085
C94	C	-0.168596	0.237057	0.500085
C95	C	-0.669723	-0.356179	0.000079
C96	C	-0.169723	0.143821	0.500079
N97	N	-0.672730	-0.109367	0.230774
N98	N	-0.172730	0.390633	0.730774
C99	C	-0.618885	0.351879	0.000084
C100	C	-0.118885	0.851879	0.500084
C101	C	-0.645295	0.413109	0.073093
C102	C	-0.145295	0.913109	0.573093
C103	C	-0.673733	0.308210	0.000098
C104	C	-0.173733	0.808210	0.500098
C105	C	-0.645321	0.413111	-0.072887
C106	C	-0.145321	0.913111	0.427113
C107	C	-0.671760	0.473106	0.000087
C108	C	-0.171760	0.973106	0.500087
C109	C	-0.700158	0.368212	0.073167
C110	C	-0.200158	0.868212	0.573167
C111	C	-0.700177	0.368208	-0.072878
C112	C	-0.200177	0.868208	0.427122
C113	C	-0.726627	0.429421	0.000148
C114	C	-0.226627	0.929421	0.500148
C115	C	-0.674869	0.213217	0.000105
C116	C	-0.174869	0.713217	0.500105
C117	C	-0.670629	0.568097	0.000087
C118	C	-0.170629	1.068097	0.500087
N119	N	-0.672770	-0.109304	-0.230582
N120	N	-0.172770	0.390696	0.269418
C121	C	-0.632296	-0.169308	0.470447
C122	C	-0.132296	0.330692	0.970447
C123	C	-0.683757	-0.185181	0.529789
C124	C	-0.183757	0.314819	1.029789
C125	C	-0.672745	-0.109346	0.412381
C126	C	-0.172745	0.390654	0.912381
C127	C	-0.621298	-0.093492	0.529781
C128	C	-0.121298	0.406508	1.029781
C129	C	-0.672754	-0.109328	0.587805
C130	C	-0.172754	0.390672	1.087805
C131	C	-0.724232	-0.125257	0.470416
C132	C	-0.224232	0.374743	0.970416
C133	C	-0.661739	-0.033535	0.470403
C134	C	-0.161739	0.466465	0.970403
C135	C	-0.713237	-0.049376	0.529718
C136	C	-0.213237	0.450624	1.029718
C137	C	-0.672738	-0.109359	0.311324
C138	C	-0.172738	0.390641	0.811324
C139	C	-0.672766	-0.109314	0.688860
C140	C	-0.172766	0.390686	1.188860
H141	H	-0.487586	-0.254052	0.000054
H142	H	0.012414	0.245948	0.500054
Br143	Br	-0.125519	0.148987	0.000135
Br144	Br	0.374481	0.648987	0.500135
Br145	Br	-0.770315	0.035160	0.572829
Br146	Br	-0.270315	0.535160	1.072829
H147	H	-0.652405	0.030548	0.444298
H148	H	-0.152405	0.530548	0.944298
H149	H	-0.723332	0.348410	0.134958
H150	H	-0.223332	0.848410	0.634958
H151	H	-0.577786	-0.080090	0.555861
H152	H	-0.077786	0.419910	1.055861
Br153	Br	-0.543004	0.295725	0.000184
Br154	Br	-0.043004	0.795725	0.500184
H155	H	-0.207551	-0.325809	0.000075
H156	H	0.292449	0.174191	0.500075
H157	H	-0.379828	-0.252157	0.000079
H158	H	0.120172	0.247843	0.500079
H159	H	-0.622090	0.433014	0.134809
H160	H	-0.122090	0.933014	0.634809
H161	H	-0.512187	0.023814	0.000080
H162	H	-0.012187	0.523814	0.500080
Br163	Br	-0.079998	-0.365199	0.000086
Br164	Br	0.420002	0.134801	0.500086
Br165	Br	-0.606649	0.446287	-0.175754
Br166	Br	-0.106649	0.946287	0.324246
Br167	Br	-0.802574	0.485331	0.000223
Br168	Br	-0.302574	0.985331	0.500223
Br169	Br	0.046477	-0.286270	0.000088
Br170	Br	0.546477	0.213730	0.500088
H171	H	-0.723362	0.348281	-0.134597
H172	H	-0.223362	0.848281	0.365403
Br173	Br	-0.575340	-0.253886	0.427066
Br174	Br	-0.075340	0.246114	0.927066
Br175	Br	-0.699289	-0.292024	0.573264
Br176	Br	-0.199289	0.207976	1.073264
H177	H	-0.767753	-0.138736	0.444449
H178	H	-0.267753	0.361264	0.944449
H179	H	0.142084	0.035370	0.000111
H180	H	0.642084	0.535370	0.500111
Br181	Br	0.186499	-0.283786	0.000100
Br182	Br	0.686499	0.216214	0.500100
Br183	Br	-0.391966	0.067582	0.000106
Br184	Br	0.108034	0.567582	0.500106
Br185	Br	0.014524	0.074761	0.000131
Br186	Br	0.514524	0.574761	0.500131
H187	H	-0.245716	0.105216	0.000149
H188	H	0.254284	0.605216	0.500149
