data_functionalizedCrystal
_audit_creation_method	'MofGen! by Chris Wilmer'
_symmetry_space_group_name_H-M	'P1'
_symmetry_Int_Tables_number	1
_symmetry_cell_setting	triclinic
loop_
_symmetry_equiv_pos_as_xyz
  x,y,z
_cell_length_a	16.109301
_cell_length_b	16.109301
_cell_length_c	14.586319
_cell_angle_alpha	90.005214
_cell_angle_beta	89.998857
_cell_angle_gamma	96.538468
loop_
_atom_site_label
_atom_site_type_symbol
_atom_site_fract_x
_atom_site_fract_y
_atom_site_fract_z
O1	O	1.103131	-0.106867	-0.076193
O2	O	1.603131	0.393133	0.423807
O3	O	0.861069	-0.120166	-0.076206
O4	O	1.361069	0.379834	0.423794
O5	O	0.988749	0.007514	-0.076190
O6	O	1.488749	0.507514	0.423810
O7	O	0.975450	-0.234548	-0.076209
O8	O	1.475450	0.265452	0.423791
O9	O	0.988740	0.007516	0.076291
O10	O	1.488740	0.507516	0.576291
O11	O	0.861060	-0.120164	0.076275
O12	O	1.361060	0.379836	0.576275
O13	O	1.103122	-0.106865	0.076288
O14	O	1.603122	0.393135	0.576288
Cu15	Cu	0.982090	-0.113515	0.090204
Cu16	Cu	1.482090	0.386485	0.590204
Cu17	Cu	0.982100	-0.113517	-0.090122
Cu18	Cu	1.482100	0.386483	0.409878
O19	O	0.975441	-0.234546	0.076272
O20	O	1.475441	0.265454	0.576272
C21	C	0.830089	-0.119627	0.000033
C22	C	1.330089	0.380373	0.500033
C23	C	0.737794	-0.118011	0.000028
C24	C	1.237794	0.381989	0.500028
C25	C	0.428796	-0.188494	0.000038
C26	C	0.928796	0.311506	0.500038
C27	C	0.515516	-0.190020	0.000033
C28	C	1.015516	0.309980	0.500033
C29	C	0.535389	-0.038531	0.000033
C30	C	1.035389	0.461469	0.500033
C31	C	0.448671	-0.037007	0.000032
C32	C	0.948671	0.462993	0.500032
C33	C	0.395376	-0.111991	0.000039
C34	C	0.895376	0.388009	0.500039
C35	C	0.568815	-0.115041	0.000035
C36	C	1.068815	0.384959	0.500035
C37	C	0.662841	-0.116694	0.000029
C38	C	1.162841	0.383306	0.500029
C39	C	0.301344	-0.110338	0.000043
C40	C	0.801344	0.389662	0.500043
C41	C	1.134101	-0.107405	0.000047
C42	C	1.634101	0.392595	0.500047
C43	C	1.226396	-0.109020	0.000046
C44	C	1.726396	0.390980	0.500046
C45	C	0.988206	0.038490	0.000051
C46	C	1.488206	0.538490	0.500051
C47	C	0.986591	0.130785	0.000052
C48	C	1.486591	0.630785	0.500052
N49	N	0.982089	-0.113513	0.217036
N50	N	1.482089	0.386487	0.717036
C51	C	0.975984	-0.265522	0.000029
C52	C	1.475984	0.234478	0.500029
C53	C	0.977599	-0.357817	0.000021
C54	C	1.477599	0.142183	0.500021
C55	C	1.058599	0.353058	0.000042
C56	C	1.558599	0.853058	0.500042
C57	C	1.057075	0.439778	0.000034
C58	C	1.557075	0.939778	0.500034
C59	C	0.905586	0.419904	0.000029
C60	C	1.405586	0.919904	0.500029
C61	C	0.907111	0.333185	0.000030
C62	C	1.407111	0.833185	0.500030
C63	C	0.983620	0.299765	0.000041
C64	C	1.483620	0.799765	0.500041
C65	C	0.980571	0.473204	0.000033
C66	C	1.480571	0.973204	0.500033
C67	C	0.978918	0.567230	0.000024
C68	C	1.478918	1.067230	0.500024
C69	C	0.985273	0.205733	0.000048
C70	C	1.485273	0.705733	0.500048
N71	N	0.982108	-0.113512	-0.216954
N72	N	1.482108	0.386488	0.283046
C73	C	1.038644	-0.056994	0.452049
C74	C	1.538644	0.443006	0.952049
C75	C	1.038647	-0.056992	0.548031
C76	C	1.538647	0.443008	1.048031
C77	C	0.925547	-0.170033	0.548026
C78	C	1.425547	0.329967	1.048026
C79	C	0.925541	-0.170030	0.452046
C80	C	1.425541	0.329970	0.952046
C81	C	0.982094	-0.113512	0.404060
C82	C	1.482094	0.386488	0.904060
C83	C	0.982103	-0.113513	0.596021
C84	C	1.482103	0.386487	1.096021
C85	C	0.982105	-0.113511	0.700088
C86	C	1.482105	0.386489	1.200088
C87	C	0.982092	-0.113513	0.299987
C88	C	1.482092	0.386487	0.799987
H89	H	0.421461	0.025296	0.000029
H90	H	0.921461	0.525296	0.500029
C91	C	1.151758	-0.038924	0.344055
C92	C	1.651758	0.461076	0.844055
C93	C	1.100762	0.005155	0.399279
C94	C	1.600762	0.505155	0.899279
H95	H	1.190097	-0.000545	0.311477
H96	H	1.690097	0.499455	0.811477
H97	H	1.118078	-0.072596	0.301759
H98	H	1.618078	0.427404	0.801759
H99	H	1.181694	-0.073516	0.381483
H100	H	1.681694	0.426484	0.881483
H101	H	1.070821	0.039742	0.361850
H102	H	1.570821	0.539742	0.861850
H103	H	1.134446	0.038841	0.441580
H104	H	1.634446	0.538841	0.941580
H105	H	0.846050	0.289791	0.000027
H106	H	1.346050	0.789791	0.500027
C107	C	0.644451	0.047628	-0.078345
C108	C	1.144451	0.547628	0.421655
C109	C	0.593977	0.043887	0.000035
C110	C	1.093977	0.543887	0.500035
H111	H	0.680623	0.098509	-0.078337
H112	H	1.180623	0.598509	0.421663
H113	H	0.610211	0.045077	-0.131510
H114	H	1.110211	0.545077	0.368490
H115	H	0.676762	0.001841	-0.078335
H116	H	1.176762	0.501841	0.421665
H117	H	0.561662	0.089670	0.000021
H118	H	1.061662	0.589670	0.500021
H119	H	0.628221	0.046446	0.053214
H120	H	1.128221	0.546446	0.553214
H121	H	1.120897	0.325850	0.000049
H122	H	1.620897	0.825850	0.500049
H123	H	0.879487	-0.216054	0.412971
H124	H	1.379487	0.283946	0.912971
C125	C	0.287037	-0.253425	0.000041
C126	C	0.787037	0.246575	0.500041
C127	C	0.370212	-0.270915	0.000037
C128	C	0.870212	0.229085	0.500037
H129	H	0.250874	-0.304311	0.000044
H130	H	0.750874	0.195689	0.500044
H131	H	0.276913	-0.222062	-0.053128
H132	H	0.776913	0.277938	0.446872
H133	H	0.276915	-0.222052	0.053220
H134	H	0.776915	0.277948	0.553220
H135	H	0.380336	-0.302283	-0.053145
H136	H	0.880336	0.197717	0.446855
H137	H	0.380341	-0.302291	0.053211
H138	H	0.880341	0.197709	0.553211
H139	H	1.118130	0.483167	0.000032
H140	H	1.618130	0.983167	0.500032
C141	C	1.088870	-0.006797	0.695160
C142	C	1.588870	0.493203	1.195160
C143	C	1.100808	0.005133	0.600781
C144	C	1.600808	0.505133	1.100781
H145	H	1.127244	0.031564	0.727724
H146	H	1.627244	0.531564	1.227724
H147	H	1.097885	-0.062281	0.710879
H148	H	1.597885	0.437719	1.210879
H149	H	1.033386	0.002251	0.710884
H150	H	1.533386	0.502251	1.210884
H151	H	1.156291	-0.003921	0.585056
H152	H	1.656291	0.496079	1.085056
H153	H	1.091800	0.060630	0.585056
H154	H	1.591800	0.560630	1.085056
C155	C	0.812410	-0.188046	0.655982
C156	C	1.312410	0.311954	1.155982
C157	C	0.863393	-0.232160	0.600779
C158	C	1.363393	0.267840	1.100779
H159	H	0.774044	-0.226404	0.688552
H160	H	1.274044	0.273596	1.188552
H161	H	0.782512	-0.153438	0.618548
H162	H	1.282512	0.346562	1.118548
H163	H	0.846102	-0.154388	0.698294
H164	H	1.346102	0.345612	1.198294
H165	H	0.829702	-0.265813	0.558462
H166	H	1.329702	0.234187	1.058462
H167	H	0.893293	-0.266782	0.638217
H168	H	1.393293	0.233218	1.138217
C169	C	0.487156	-0.339604	0.000047
C170	C	0.987156	0.160396	0.500047
C171	C	0.552251	-0.274115	0.000038
C172	C	1.052251	0.225885	0.500038
H173	H	0.509836	-0.391522	0.000055
H174	H	1.009836	0.108478	0.500055
H175	H	0.453748	-0.335865	-0.053123
H176	H	0.953748	0.164135	0.446877
H177	H	0.453746	-0.335845	0.053224
H178	H	0.953746	0.164155	0.553224
H179	H	0.585658	-0.277871	-0.053143
H180	H	1.085658	0.222129	0.446857
H181	H	0.585674	-0.277856	0.053213
H182	H	1.085674	0.222144	0.553213
C183	C	0.835983	0.544014	0.000037
C184	C	1.335983	1.044014	0.500037
C185	C	0.821490	0.456643	0.000031
C186	C	1.321490	0.956643	0.500031
H187	H	0.784064	0.566692	0.000046
H188	H	1.284064	1.066692	0.500046
H189	H	0.866848	0.562300	-0.053133
H190	H	1.366848	1.062300	0.446867
H191	H	0.866857	0.562303	0.053214
H192	H	1.366857	1.062303	0.553214
H193	H	0.790622	0.438354	-0.053149
H194	H	1.290622	0.938354	0.446851
H195	H	0.790613	0.438349	0.053207
H196	H	1.290613	0.938349	0.553207
