data_functionalizedCrystal
_audit_creation_method	'MofGen! by Chris Wilmer'
_symmetry_space_group_name_H-M	'P1'
_symmetry_Int_Tables_number	1
_symmetry_cell_setting	triclinic
loop_
_symmetry_equiv_pos_as_xyz
  x,y,z
_cell_length_a	14.044191
_cell_length_b	16.109301
_cell_length_c	14.586319
_cell_angle_alpha	90.001610
_cell_angle_beta	90.003775
_cell_angle_gamma	88.326629
loop_
_atom_site_label
_atom_site_type_symbol
_atom_site_fract_x
_atom_site_fract_y
_atom_site_fract_z
O1	O	1.257649	0.200459	0.076201
O2	O	1.590982	0.533792	0.409535
O3	O	1.924316	0.867126	0.742868
O4	O	0.981682	0.193220	0.076213
O5	O	1.315015	0.526553	0.409546
O6	O	1.648348	0.859887	0.742879
O7	O	1.127246	0.076373	0.076197
O8	O	1.460580	0.409706	0.409531
O9	O	1.793913	0.743039	0.742864
O10	O	1.112084	0.317306	0.076217
O11	O	1.445418	0.650640	0.409550
O12	O	1.778751	0.983973	0.742883
O13	O	1.127229	0.076379	-0.076283
O14	O	1.460562	0.409712	0.257050
O15	O	1.793895	0.743046	0.590383
O16	O	0.981664	0.193226	-0.076268
O17	O	1.314997	0.526560	0.257065
O18	O	1.648331	0.859893	0.590399
O19	O	1.257631	0.200465	-0.076279
O20	O	1.590965	0.533799	0.257054
O21	O	1.924298	0.867132	0.590387
Cu22	Cu	1.119646	0.196846	-0.090196
Cu23	Cu	1.452979	0.530180	0.243137
Cu24	Cu	1.786313	0.863513	0.576470
Cu25	Cu	1.119667	0.196839	0.090130
Cu26	Cu	1.453000	0.530172	0.423463
Cu27	Cu	1.786334	0.863506	0.756796
O28	O	1.112067	0.317313	-0.076264
O29	O	1.445400	0.650646	0.257069
O30	O	1.778733	0.983979	0.590403
C31	C	1.126623	0.045355	-0.000043
C32	C	1.459957	0.378689	0.333290
C33	C	1.793290	0.712022	0.666623
C34	C	1.124782	-0.047077	-0.000045
C35	C	1.458115	0.286256	0.333289
C36	C	1.791449	0.619590	0.666622
C37	C	0.946359	0.190056	-0.000026
C38	C	1.279693	0.523390	0.333307
C39	C	1.613026	0.856723	0.666640
C40	C	0.841136	0.180610	-0.000022
C41	C	1.174470	0.513944	0.333311
C42	C	1.507803	0.847277	0.666644
C43	C	1.206876	-0.263240	-0.000034
C44	C	1.540209	0.070094	0.333300
C45	C	1.873542	0.403427	0.666633
C46	C	1.205138	-0.350089	-0.000026
C47	C	1.538472	-0.016756	0.333307
C48	C	1.871805	0.316577	0.666641
C49	C	1.032431	-0.343068	-0.000022
C50	C	1.365764	-0.009735	0.333311
C51	C	1.699097	0.323598	0.666644
C52	C	1.034169	-0.256220	-0.000023
C53	C	1.367503	0.077113	0.333310
C54	C	1.700836	0.410446	0.666643
C55	C	1.121395	-0.216308	-0.000034
C56	C	1.454728	0.117025	0.333300
C57	C	1.788061	0.450358	0.666633
C58	C	1.117918	-0.390006	-0.000025
C59	C	1.451252	-0.056673	0.333308
C60	C	1.784585	0.276660	0.666642
C61	C	1.116034	-0.484173	-0.000017
C62	C	1.449367	-0.150839	0.333317
C63	C	1.782701	0.182494	0.666650
C64	C	1.123280	-0.122136	-0.000040
C65	C	1.456613	0.211197	0.333293
C66	C	1.789946	0.544531	0.666627
C67	C	0.590834	0.230335	-0.000027
C68	C	0.924168	0.563668	0.333306
C69	C	1.257501	0.897002	0.666639
C70	C	0.648484	0.163354	-0.000031
C71	C	0.981817	0.496687	0.333302
C72	C	1.315151	0.830021	0.666635
C73	C	0.755686	0.172958	-0.000026
C74	C	1.089019	0.506291	0.333307
C75	C	1.422352	0.839624	0.666640
C76	C	0.483623	0.220733	-0.000032
C77	C	0.816956	0.554066	0.333301
C78	C	1.150290	0.887399	0.666634
C79	C	1.292954	0.203629	-0.000038
C80	C	1.626287	0.536962	0.333295
C81	C	1.959620	0.870296	0.666628
C82	C	1.398177	0.213075	-0.000036
C83	C	1.731510	0.546408	0.333297
C84	C	2.064843	0.879742	0.666630
C85	C	1.112690	0.348330	-0.000021
C86	C	1.446023	0.681663	0.333312
C87	C	1.779356	1.014997	0.666645
C88	C	1.114531	0.440762	-0.000014
C89	C	1.447864	0.774096	0.333319
C90	C	1.781198	1.107429	0.666653
N91	N	1.119638	0.196852	-0.217028
N92	N	1.452971	0.530185	0.116305
N93	N	1.786305	0.863518	0.449638
C94	C	1.177124	0.251558	-0.452033
C95	C	1.510457	0.584892	-0.118699
C96	C	1.843790	0.918225	0.214634
C97	C	1.177134	0.251553	-0.548014
C98	C	1.510467	0.584887	-0.214681
C99	C	1.843800	0.918220	0.118653
C100	C	1.062195	0.142115	-0.548027
C101	C	1.395528	0.475448	-0.214694
C102	C	1.728861	0.808782	0.118640
C103	C	1.062190	0.142117	-0.452048
C104	C	1.395524	0.475450	-0.118714
C105	C	1.728857	0.808783	0.214619
C106	C	1.119653	0.196843	-0.404053
C107	C	1.452987	0.530176	-0.070720
C108	C	1.786320	0.863510	0.262614
C109	C	1.119667	0.196836	-0.596014
C110	C	1.453001	0.530170	-0.262680
C111	C	1.786334	0.863503	0.070653
C112	C	1.119678	0.196831	-0.700081
C113	C	1.453011	0.530164	-0.366748
C114	C	1.786344	0.863497	-0.033414
C115	C	1.119645	0.196848	-0.299979
C116	C	1.452978	0.530181	0.033354
C117	C	1.786311	0.863515	0.366687
N118	N	1.119682	0.196828	0.216962
N119	N	1.453016	0.530161	0.550295
N120	N	1.786349	0.863494	0.883628
H121	H	1.274746	-0.388298	-0.000024
H122	H	1.608079	-0.054964	0.333310
H123	H	1.941413	0.278369	0.666643
N124	N	0.943345	-0.383853	-0.000010
N125	N	1.276678	-0.050519	0.333323
N126	N	1.610012	0.282814	0.666656
N127	N	0.941803	-0.461395	-0.000009
N128	N	1.275136	-0.128062	0.333324
N129	N	1.608469	0.205272	0.666657
H130	H	0.878884	-0.490199	-0.000002
H131	H	1.212218	-0.156866	0.333331
H132	H	1.545551	0.176468	0.666665
H133	H	0.617329	0.098797	0.000028
H134	H	0.950662	0.432131	0.333362
H135	H	1.283995	0.765464	0.666695
H136	H	0.964556	-0.218007	-0.000021
H137	H	1.297889	0.115326	0.333313
H138	H	1.631222	0.448659	0.666646
H139	H	0.621988	0.294886	-0.000019
H140	H	0.955321	0.628220	0.333314
H141	H	1.288655	0.961553	0.666647
H142	H	1.223933	0.296107	-0.587075
H143	H	1.557266	0.629441	-0.253742
H144	H	1.890600	0.962774	0.079592
H145	H	1.223914	0.296120	-0.412958
H146	H	1.557247	0.629453	-0.079625
H147	H	1.890580	0.962787	0.253708
H148	H	1.015409	0.097560	-0.587116
H149	H	1.348743	0.430893	-0.253783
H150	H	1.682076	0.764226	0.079551
H151	H	1.015390	0.097556	-0.412981
H152	H	1.348724	0.430890	-0.079648
H153	H	1.682057	0.764223	0.253685
H154	H	1.277900	-0.230746	-0.000040
H155	H	1.611234	0.102587	0.333293
H156	H	1.944567	0.435920	0.666627
