data_functionalizedCrystal
_audit_creation_method	'MofGen! by Chris Wilmer'
_symmetry_space_group_name_H-M	'P1'
_symmetry_Int_Tables_number	1
_symmetry_cell_setting	triclinic
loop_
_symmetry_equiv_pos_as_xyz
  x,y,z
_cell_length_a	21.295411
_cell_length_b	11.169417
_cell_length_c	21.295418
_cell_angle_alpha	89.970735
_cell_angle_beta	89.982512
_cell_angle_gamma	90.021194
loop_
_atom_site_label
_atom_site_type_symbol
_atom_site_fract_x
_atom_site_fract_y
_atom_site_fract_z
Zn1	Zn	-0.355873	-1.834828	-0.250666
Zn2	Zn	-0.250606	-1.834649	-0.355918
Zn3	Zn	-0.250624	-1.634109	-0.250668
Zn4	Zn	-0.355844	-1.634058	-0.355903
O5	O	-0.303237	-1.734411	-0.303289
O6	O	-0.341914	-2.002754	-0.264633
O7	O	-0.162519	-1.807994	-0.341964
O8	O	-0.264606	-1.660831	-0.162579
O9	O	-0.264575	-2.002623	-0.341962
O10	O	-0.341931	-1.808298	-0.162577
O11	O	-0.162532	-1.660658	-0.264637
O12	O	-0.264577	-1.466153	-0.264622
O13	O	-0.443937	-1.660744	-0.341936
O14	O	-0.341882	-1.466115	-0.341938
O15	O	-0.443959	-1.808249	-0.264619
O16	O	-0.264546	-1.807944	-0.444005
O17	O	-0.341864	-1.660571	-0.443994
C18	C	-0.303229	-1.422586	-0.303279
C19	C	-0.303240	-1.289186	-0.303290
C20	C	-0.467427	-1.734511	-0.303276
C21	C	-0.537395	-1.734553	-0.303270
C22	C	-0.303214	-1.734265	-0.466841
C23	C	-0.303225	-1.734313	-0.536809
C24	C	-0.570274	-1.811356	-0.263009
C25	C	-0.636017	-1.811354	-0.262982
C26	C	-0.668878	-1.734562	-0.303227
C27	C	-0.635991	-1.657745	-0.343490
C28	C	-0.570250	-1.657740	-0.343512
N29	N	-0.772098	-1.725307	-0.358294
N30	N	-0.834549	-1.725318	-0.358272
C31	C	-0.866953	-1.734570	-0.303163
N32	N	-0.834546	-1.743834	-0.248075
N33	N	-0.772088	-1.743828	-0.248099
C34	C	-0.740163	-1.734558	-0.303207
C35	C	-0.971117	-1.811375	-0.262869
C36	C	-1.036861	-1.811365	-0.262841
C37	C	-1.036834	-1.657762	-0.343355
C38	C	-0.971092	-1.657766	-0.343377
C39	C	-0.938237	-1.734579	-0.303135
C40	C	-0.139685	-1.734381	-0.303257
C41	C	-0.069718	-1.734571	-0.303085
C42	C	-0.303245	-2.047453	-0.303299
C43	C	-0.303249	-2.180853	-0.303303
C44	C	-0.343581	-1.811347	-1.036212
C45	C	-0.343571	-1.811312	-0.970470
C46	C	-0.303276	-1.734575	-0.937648
C47	C	-0.262977	-1.657889	-0.970574
C48	C	-0.262983	-1.657935	-1.036315
N49	N	-0.298389	-1.629451	-0.834478
N50	N	-0.298386	-1.629411	-0.772027
C51	C	-0.303253	-1.734434	-0.739573
N52	N	-0.308134	-1.839501	-0.771930
N53	N	-0.308140	-1.839539	-0.834387
C54	C	-0.303264	-1.734517	-0.866363
C55	C	-0.343536	-1.811082	-0.635370
C56	C	-0.343521	-1.811049	-0.569626
C57	C	-0.262930	-1.657616	-0.569731
C58	C	-0.262941	-1.657660	-0.635474
C59	C	-0.303247	-1.734391	-0.668289
C60	C	-0.303274	-1.734590	-0.139099
C61	C	-0.303289	-1.734666	-0.069130
H62	H	-0.543528	-1.873901	-0.230240
H63	H	-0.944321	-1.595232	-0.376166
H64	H	-0.376397	-1.873837	-1.062927
Br65	Br	-0.398255	-1.915388	-0.925785
H66	H	-0.662792	-1.873893	-0.230193
Br67	Br	-0.208235	-1.553485	-0.525194
Br68	Br	-0.398203	-1.915135	-0.524950
Br69	Br	-0.208259	-1.553582	-0.680151
Br70	Br	-0.398229	-1.915227	-0.679909
Br71	Br	-1.081424	-1.553528	-0.397966
H72	H	-0.662751	-1.595217	-0.376256
H73	H	-0.230167	-1.595410	-0.943847
Br74	Br	-0.525625	-1.553498	-0.398155
Br75	Br	-0.926525	-1.915613	-0.208254
H76	H	-1.063630	-1.873905	-0.230052
Br77	Br	-0.208297	-1.553861	-1.080993
