data_functionalizedCrystal
_audit_creation_method	'MofGen! by Chris Wilmer'
_symmetry_space_group_name_H-M	'P1'
_symmetry_Int_Tables_number	1
_symmetry_cell_setting	triclinic
loop_
_symmetry_equiv_pos_as_xyz
  x,y,z
_cell_length_a	18.050589
_cell_length_b	19.077142
_cell_length_c	19.077271
_cell_angle_alpha	90.085571
_cell_angle_beta	87.709704
_cell_angle_gamma	92.276109
loop_
_atom_site_label
_atom_site_type_symbol
_atom_site_fract_x
_atom_site_fract_y
_atom_site_fract_z
Zn1	Zn	-0.359418	-1.058164	0.440470
Zn2	Zn	-0.478794	-1.062818	0.322971
Zn3	Zn	-0.349434	-0.945405	0.318260
Zn4	Zn	-0.478375	-0.940619	0.435719
O5	O	-0.416505	-1.001752	0.379355
O6	O	-0.379607	-1.157112	0.428844
O7	O	-0.457632	-1.051194	0.224016
O8	O	-0.246837	-0.960418	0.334488
O9	O	-0.467313	-1.160531	0.342518
O10	O	-0.254172	-1.043262	0.424275
O11	O	-0.362592	-0.964931	0.220554
O12	O	-0.362185	-0.846440	0.329881
O13	O	-0.466598	-0.952261	0.534680
O14	O	-0.456917	-0.842923	0.416178
O15	O	-0.379200	-1.038621	0.538170
O16	O	-0.582660	-1.046553	0.337911
O17	O	-0.582352	-0.956774	0.420746
C18	C	-0.408423	-0.819185	0.372003
C19	C	-0.404983	-0.741082	0.368874
C20	C	-0.452758	-0.702579	0.412264
C21	C	-0.449517	-0.629193	0.409328
C22	C	-0.398504	-0.594311	0.362998
C23	C	-0.350724	-0.632819	0.319607
C24	C	-0.353962	-0.706204	0.322547
C25	C	-0.383520	-0.375027	0.349397
C26	C	-0.380287	-0.301637	0.346459
C27	C	-0.479079	-0.298017	0.436181
C28	C	-0.482316	-0.371403	0.439114
C29	C	-0.434533	-0.409905	0.395726
N30	N	-0.395191	-0.519298	0.359994
N31	N	-0.437843	-0.484916	0.398734
C32	C	-0.609453	-1.001667	0.379340
C33	C	-0.692001	-1.001694	0.379360
C34	C	-0.891312	-0.952919	0.424391
C35	C	-0.937369	-0.938381	0.359584
C36	C	-0.843135	-1.001763	0.379372
C37	C	-0.944162	-1.016335	0.444187
C38	C	-0.989123	-1.001828	0.379389
C39	C	-0.888101	-0.987193	0.314529
C40	C	-0.894893	-1.065175	0.399177
C41	C	-0.940926	-1.050663	0.334327
C42	C	-0.759035	-1.001724	0.379363
C43	C	-1.073222	-1.001867	0.379390
C44	C	-0.222806	-1.001855	0.379386
C45	C	-0.140262	-1.001899	0.379400
C46	C	-0.423966	-0.994388	0.562634
C47	C	-0.427145	-0.991250	0.640736
C48	C	-0.424616	-0.185031	0.386728
C49	C	-0.428061	-0.263134	0.389848
C50	C	-0.383138	-1.034736	0.679248
C51	C	-0.386122	-1.031779	0.752633
C52	C	-0.433117	-0.985338	0.787506
C53	C	-0.477126	-0.941847	0.748989
C54	C	-0.474138	-0.944801	0.675605
C55	C	-0.446930	-0.971679	1.006786
C56	C	-0.449917	-0.968730	1.080175
C57	C	-0.358911	-1.058661	1.083813
C58	C	-0.355930	-1.061613	1.010428
C59	C	-0.399936	-1.018120	0.971918
N60	N	-0.436170	-0.982316	0.862517
N61	N	-0.396879	-1.021139	0.896907
C62	C	-0.409090	-1.009081	1.196789
C63	C	-0.405910	-1.012216	1.118686
H64	H	-0.309185	-0.604412	0.281887
N65	N	-0.334730	-0.414352	0.305064
N66	N	-0.360771	-0.457081	0.261886
H67	H	-0.326313	-0.484859	0.230572
N68	N	-0.974905	-1.031777	0.512941
N69	N	-0.961756	-1.088408	0.541951
H70	H	-0.983466	-1.099310	0.590510
N71	N	-0.498319	-0.589874	0.453658
N72	N	-0.543864	-0.621027	0.495020
H73	H	-0.578332	-0.593259	0.526332
H74	H	-0.869528	-0.911558	0.462404
H75	H	-0.517980	-0.266661	0.471507
H76	H	-0.488188	-0.930910	1.108566
N77	N	-0.491885	-0.927248	0.967465
N78	N	-0.533843	-0.885790	0.998613
H79	H	-0.565596	-0.854408	0.970841
N80	N	-0.960922	-0.871151	0.338557
N81	N	-0.940723	-0.846883	0.279724
H82	H	-0.957355	-0.799400	0.264876
N83	N	-0.504869	-0.738219	0.459580
N84	N	-0.552948	-0.780140	0.436420
H85	H	-0.589752	-0.805311	0.469838
H86	H	-0.338737	-0.273238	0.308736
N87	N	-0.871302	-1.132382	0.420218
N88	N	-0.803650	-1.143236	0.423068
H89	H	-0.786985	-1.190700	0.437936
H90	H	-0.344871	-1.072555	0.650860
H91	H	-0.515389	-0.904032	0.777388
H92	H	-0.523857	-0.399799	0.476839
H93	H	-0.315055	-0.737552	0.287218
N94	N	-0.857453	-0.971676	0.245757
N95	N	-0.788681	-0.969113	0.234658
H96	H	-0.767033	-0.958148	0.186090
H97	H	-0.350288	-1.067192	0.783986
H98	H	-0.962569	-1.091998	0.296217
N99	N	-0.307927	-1.109062	0.974820
N100	N	-0.268641	-1.147889	1.009214
H101	H	-0.234742	-1.181404	0.984067
N102	N	-0.313968	-1.103081	1.123162
N103	N	-0.316641	-1.100441	1.188682
H104	H	-0.284898	-1.131814	1.216473
N105	N	-0.519090	-0.900372	0.636275
N106	N	-0.561046	-0.858908	0.667418
H107	H	-0.592793	-0.827525	0.639642
