data_functionalizedCrystal
_audit_creation_method	'MofGen! by Chris Wilmer'
_symmetry_space_group_name_H-M	'P1'
_symmetry_Int_Tables_number	1
_symmetry_cell_setting	triclinic
loop_
_symmetry_equiv_pos_as_xyz
  x,y,z
_cell_length_a	13.185407
_cell_length_b	13.339070
_cell_length_c	7.681481
_cell_angle_alpha	82.700297
_cell_angle_beta	93.759107
_cell_angle_gamma	83.801389
loop_
_atom_site_label
_atom_site_type_symbol
_atom_site_fract_x
_atom_site_fract_y
_atom_site_fract_z
O1	O	1.366448	-0.232047	-0.146388
O2	O	1.077615	-0.137309	-0.146398
O3	O	1.188883	-0.322917	-0.146389
O4	O	1.255180	-0.046439	-0.146397
O5	O	1.202566	-0.345803	0.146470
O6	O	1.091298	-0.160194	0.146460
O7	O	1.380131	-0.254933	0.146471
Zn8	Zn	1.237887	-0.211197	0.192963
Zn9	Zn	1.219859	-0.181045	-0.192891
O10	O	1.268863	-0.069324	0.146461
C11	C	1.046734	-0.139147	0.000030
C12	C	0.934329	-0.110540	0.000026
C13	C	0.562468	-0.383555	0.000041
C14	C	0.668078	-0.410437	0.000056
C15	C	0.734646	-0.335465	0.000048
C16	C	0.695594	-0.233607	0.000026
C17	C	0.589974	-0.206724	0.000024
C18	C	0.762152	-0.158634	0.000031
C19	C	0.723100	-0.056775	0.000009
C20	C	0.617490	-0.029897	0.000006
C21	C	0.550922	-0.104869	0.000015
C22	C	0.867771	-0.185517	0.000033
C23	C	0.895278	-0.008685	0.000016
C24	C	0.789668	0.018196	0.000001
C25	C	1.184526	-0.369000	0.000037
C26	C	1.151144	-0.472213	0.000029
C27	C	1.410699	-0.907671	0.000039
C28	C	1.442067	-0.810699	0.000057
C29	C	1.369339	-0.726073	0.000049
C30	C	1.265238	-0.738428	0.000025
C31	C	1.233868	-0.835410	0.000021
C32	C	1.192507	-0.653813	0.000032
C33	C	1.088407	-0.666167	0.000007
C34	C	1.057042	-0.763141	0.000002
C35	C	1.129770	-0.847767	0.000010
C36	C	1.223877	-0.556830	0.000035
C37	C	1.047046	-0.484569	0.000018
C38	C	1.015679	-0.581541	-0.000000
C39	C	1.411012	-0.253094	0.000039
C40	C	1.523416	-0.281700	0.000031
C41	C	1.273220	-0.023241	0.000031
C42	C	1.306601	0.079973	0.000028
N43	N	1.250198	-0.231778	0.456298
N44	N	1.207554	-0.160474	-0.456226
H45	H	0.757856	0.101131	-0.000016
H46	H	1.164021	-0.087692	0.468573
H47	H	1.308636	-0.546782	0.000056
Br48	Br	1.322780	-0.353086	0.581640
H49	H	0.899557	-0.268451	0.000048
Br50	Br	0.564494	0.108337	0.000005
H51	H	0.699867	-0.493370	0.000081
Br52	Br	0.877974	-0.371945	0.000024
H53	H	0.508262	-0.444590	0.000097
Br54	Br	0.407586	-0.068386	-0.000041
H55	H	0.949478	0.052363	0.000015
H56	H	1.394884	-0.647117	0.000064
H57	H	1.526825	-0.800648	0.000079
H58	H	1.104236	-0.926732	-0.000011
H59	H	1.469904	-0.976580	0.000060
Br60	Br	0.915765	-0.779909	0.000003
H61	H	0.987825	-0.415665	0.000020
H62	H	0.930918	-0.591615	-0.000019
