data_functionalizedCrystal
_audit_creation_method	'MofGen! by Chris Wilmer'
_symmetry_space_group_name_H-M	'P1'
_symmetry_Int_Tables_number	1
_symmetry_cell_setting	triclinic
loop_
_symmetry_equiv_pos_as_xyz
  x,y,z
_cell_length_a	11.792241
_cell_length_b	15.995350
_cell_length_c	10.268362
_cell_angle_alpha	89.996947
_cell_angle_beta	89.999626
_cell_angle_gamma	83.842895
loop_
_atom_site_label
_atom_site_type_symbol
_atom_site_fract_x
_atom_site_fract_y
_atom_site_fract_z
O1	O	1.505952	0.114763	-0.108167
O2	O	1.175512	0.126591	-0.108197
O3	O	1.349764	-0.001170	-0.108180
O4	O	1.331699	0.242524	-0.108184
O5	O	1.349749	-0.001175	0.108421
O6	O	1.175497	0.126586	0.108404
O7	O	1.505936	0.114758	0.108434
Cu8	Cu	1.340715	0.120671	0.128196
Cu9	Cu	1.340733	0.120678	-0.127959
O10	O	1.331684	0.242518	0.108417
C11	C	1.133220	0.125845	0.000100
C12	C	1.007224	0.123621	0.000088
C13	C	0.776546	0.119532	0.000126
C14	C	0.904913	0.121804	0.000105
C15	C	1.349010	-0.032370	0.000118
C16	C	1.346771	-0.125331	0.000111
C17	C	1.338730	-0.463115	0.000114
C18	C	1.214630	-0.416244	-0.000383
C19	C	1.216870	-0.319544	0.000106
C20	C	1.342718	-0.295536	0.000112
C21	C	1.403920	-0.336339	0.123804
C22	C	1.400803	-0.432989	0.123908
C23	C	1.403383	-0.433329	-0.122408
C24	C	1.403354	-0.336384	-0.124042
C25	C	1.344979	-0.200829	0.000115
C26	C	1.336473	-0.557823	0.000120
C27	C	1.548229	0.115504	0.000134
C28	C	1.674224	0.117727	0.000137
C29	C	1.332438	0.273719	0.000116
C30	C	1.334677	0.366680	0.000115
N31	N	1.340711	0.120666	0.308362
N32	N	1.340746	0.120676	-0.308125
C33	C	1.340727	0.120676	0.574033
C34	C	1.340715	0.120673	0.426195
H35	H	1.168761	-0.291338	-0.088562
H36	H	1.361400	-0.308153	0.215848
C37	C	1.343689	-0.300405	-0.246107
C38	C	1.302701	-0.365451	-0.317423
C39	C	1.247720	-0.332332	-0.429866
H40	H	1.396123	-0.273808	-0.297878
H41	H	1.281742	-0.260418	-0.222230
H42	H	1.364639	-0.405424	-0.341303
H43	H	1.250252	-0.392054	-0.265691
H44	H	1.185774	-0.292345	-0.405989
H45	H	1.300161	-0.305736	-0.481626
H46	H	1.219894	-0.376459	-0.478262
C47	C	1.525719	-0.315294	-0.133736
C48	C	1.549727	-0.264858	-0.027936
C49	C	1.662448	-0.245425	-0.036801
H50	H	1.535467	-0.285861	-0.212605
H51	H	1.576156	-0.365765	-0.132626
H52	H	1.499305	-0.214395	-0.029058
H53	H	1.540005	-0.294275	0.050948
H54	H	1.712884	-0.295896	-0.035691
H55	H	1.672184	-0.215994	-0.115674
H56	H	1.678754	-0.211209	0.034988
C57	C	1.525303	-0.475283	-0.123601
C58	C	1.524340	-0.562684	-0.128319
C59	C	1.636625	-0.601363	-0.129427
H60	H	1.563466	-0.460430	-0.046895
H61	H	1.563959	-0.457093	-0.197880
H62	H	1.485700	-0.580867	-0.054047
H63	H	1.486200	-0.577561	-0.205020
H64	H	1.675281	-0.583173	-0.203706
H65	H	1.674778	-0.586504	-0.052720
H66	H	1.635986	-0.660668	-0.132641
C67	C	1.148657	-0.441393	-0.118695
C68	C	1.218297	-0.499452	-0.193312
C69	C	1.157554	-0.522653	-0.302303
H70	H	1.125822	-0.392990	-0.169776
H71	H	1.083051	-0.466168	-0.090925
H72	H	1.283881	-0.474676	-0.221083
H73	H	1.241134	-0.547867	-0.142269
H74	H	1.091949	-0.547428	-0.274533
H75	H	1.134722	-0.474246	-0.353373
H76	H	1.204792	-0.562054	-0.352938
H77	H	1.491914	-0.464823	0.129524
C78	C	1.152281	-0.282512	0.118420
C79	C	1.154110	-0.195135	0.119145
C80	C	1.094609	-0.160993	0.228113
H81	H	1.187404	-0.305743	0.195454
H82	H	1.075542	-0.295382	0.114796
H83	H	1.230834	-0.182272	0.122780
H84	H	1.118979	-0.171881	0.042135
H85	H	1.017870	-0.173862	0.224489
H86	H	1.129738	-0.184230	0.305139
H87	H	1.095833	-0.101704	0.228613
C88	C	1.148854	-0.442836	0.117175
C89	C	1.142895	-0.529740	0.112593
C90	C	1.082330	-0.554270	0.220876
H91	H	1.073931	-0.414320	0.116255
H92	H	1.186754	-0.429055	0.194664
H93	H	1.104993	-0.543513	0.035124
H94	H	1.217800	-0.558277	0.113531
H95	H	1.120229	-0.540488	0.298366
H96	H	1.007411	-0.525747	0.219947
H97	H	1.078287	-0.613236	0.217788
C98	C	1.341343	-0.457844	0.247130
C99	C	1.337922	-0.545066	0.248545
C100	C	1.283164	-0.567989	0.362043
H101	H	1.265788	-0.430469	0.249159
H102	H	1.382091	-0.441613	0.321140
H103	H	1.297172	-0.561288	0.174555
H104	H	1.413461	-0.572462	0.246536
H105	H	1.323912	-0.551758	0.436053
H106	H	1.207613	-0.540608	0.364063
H107	H	1.280845	-0.627171	0.363024
H108	H	1.496377	-0.321794	0.128409
H109	H	1.362816	-0.454051	-0.216159
