data_functionalizedCrystal
_audit_creation_method	'MofGen! by Chris Wilmer'
_symmetry_space_group_name_H-M	'P1'
_symmetry_Int_Tables_number	1
_symmetry_cell_setting	triclinic
loop_
_symmetry_equiv_pos_as_xyz
  x,y,z
_cell_length_a	14.044220
_cell_length_b	9.065215
_cell_length_c	7.540329
_cell_angle_alpha	90.001076
_cell_angle_beta	89.997811
_cell_angle_gamma	90.898213
loop_
_atom_site_label
_atom_site_type_symbol
_atom_site_fract_x
_atom_site_fract_y
_atom_site_fract_z
O1	O	-0.139127	1.975816	0.147458
O2	O	0.194206	2.309150	0.480791
O3	O	0.527539	2.642483	0.814125
O4	O	-0.150543	1.547796	0.147466
O5	O	0.182790	1.881129	0.480799
O6	O	0.516123	2.214463	0.814132
O7	O	-0.006796	1.755382	0.147454
O8	O	0.326538	2.088715	0.480787
O9	O	0.659871	2.422048	0.814121
O10	O	-0.282875	1.768231	0.147470
O11	O	0.050458	2.101564	0.480803
O12	O	0.383792	2.434897	0.814136
O13	O	-0.006794	1.755374	-0.147511
O14	O	0.326539	2.088707	0.185822
O15	O	0.659872	2.422040	0.519156
O16	O	-0.150542	1.547788	-0.147499
O17	O	0.182791	1.881122	0.185834
O18	O	0.516125	2.214455	0.519167
O19	O	-0.139126	1.975808	-0.147507
O20	O	0.194207	2.309142	0.185826
O21	O	0.527540	2.642475	0.519160
Cu22	Cu	-0.144834	1.761798	-0.174436
Cu23	Cu	0.188499	2.095131	0.158897
Cu24	Cu	0.521833	2.428464	0.492231
Cu25	Cu	-0.144835	1.761807	0.174394
Cu26	Cu	0.188498	2.095140	0.507728
Cu27	Cu	0.521831	2.428474	0.841061
O28	O	-0.282874	1.768223	-0.147496
O29	O	0.050459	2.101556	0.185838
O30	O	0.383793	2.434890	0.519171
C31	C	-0.149446	1.492684	-0.000016
C32	C	0.183887	1.826017	0.333317
C33	C	0.517220	2.159351	0.666651
C34	C	-0.146168	1.328478	-0.000013
C35	C	0.187166	1.661811	0.333320
C36	C	0.520499	1.995144	0.666654
C37	C	-0.318237	1.773851	-0.000011
C38	C	0.015096	2.107185	0.333322
C39	C	0.348430	2.440518	0.666656
C40	C	-0.423607	1.790628	-0.000005
C41	C	-0.090274	2.123962	0.333328
C42	C	0.243060	2.457295	0.666662
C43	C	-0.616531	1.821300	-0.000013
C44	C	-0.283198	2.154633	0.333320
C45	C	0.050135	2.487967	0.666653
C46	C	-0.673144	1.702311	-0.000013
C47	C	-0.339810	2.035644	0.333321
C48	C	-0.006477	2.368978	0.666654
C49	C	-0.780494	1.719377	-0.000017
C50	C	-0.447160	2.052711	0.333316
C51	C	-0.113827	2.386044	0.666649
C52	C	-0.509171	1.804236	-0.000009
C53	C	-0.175838	2.137569	0.333325
C54	C	0.157495	2.470903	0.666658
C55	C	0.028568	1.749753	-0.000027
C56	C	0.361901	2.083087	0.333307
C57	C	0.695234	2.416420	0.666640
C58	C	0.133937	1.732976	-0.000021
C59	C	0.467271	2.066310	0.333312
C60	C	0.800604	2.399643	0.666646
C61	C	-0.140223	2.030921	-0.000022
C62	C	0.193110	2.364254	0.333312
C63	C	0.526443	2.697587	0.666645
C64	C	-0.143502	2.195127	-0.000013
C65	C	0.189831	2.528460	0.333320
C66	C	0.523165	2.861794	0.666654
N67	N	-0.144833	1.761802	-0.419784
N68	N	0.188501	2.095135	-0.086451
N69	N	0.521834	2.428468	0.246882
N70	N	-0.144829	1.761814	0.419743
N71	N	0.188504	2.095147	0.753076
N72	N	0.521837	2.428480	1.086410
H73	H	-0.648684	1.935978	-0.000022
H74	H	-0.315351	2.269311	0.333311
H75	H	0.017982	2.602645	0.666644
N76	N	-0.630558	1.550393	-0.000058
N77	N	-0.297224	1.883726	0.333275
N78	N	0.036109	2.217060	0.666609
H79	H	-0.683299	1.473359	-0.000072
H80	H	-0.349965	1.806692	0.333261
H81	H	-0.016632	2.140025	0.666595
H82	H	-0.589907	1.538133	0.109279
H83	H	-0.256574	1.871467	0.442613
H84	H	0.076760	2.204800	0.775946
