data_functionalizedCrystal
_audit_creation_method	'MofGen! by Chris Wilmer'
_symmetry_space_group_name_H-M	'P1'
_symmetry_Int_Tables_number	1
_symmetry_cell_setting	triclinic
loop_
_symmetry_equiv_pos_as_xyz
  x,y,z
_cell_length_a	10.967926
_cell_length_b	10.967829
_cell_length_c	9.482900
_cell_angle_alpha	87.494390
_cell_angle_beta	92.549900
_cell_angle_gamma	87.248880
loop_
_atom_site_label
_atom_site_type_symbol
_atom_site_fract_x
_atom_site_fract_y
_atom_site_fract_z
O1	O	1.620175	0.212170	0.231862
O2	O	1.271086	0.214806	0.143741
O3	O	1.446976	0.038970	0.231865
O4	O	1.444285	0.388006	0.143737
O5	O	1.411256	0.074837	0.455722
O6	O	1.235365	0.250672	0.367597
O7	O	1.584455	0.248037	0.455718
Cu8	Cu	1.406649	0.252629	0.432098
Cu9	Cu	1.448892	0.210213	0.167361
O10	O	1.408564	0.423872	0.367594
C11	C	1.208402	0.229837	0.245166
C12	C	1.074842	0.221176	0.213873
C13	C	0.996792	0.235895	0.315886
C14	C	0.858750	0.226943	0.283546
C15	C	1.426222	0.012086	0.354295
C16	C	1.417582	-0.121457	0.385581
C17	C	1.432235	-0.199568	0.283564
C18	C	1.423306	-0.337592	0.315898
C19	C	1.647139	0.233005	0.354290
C20	C	1.780701	0.241664	0.385574
C21	C	1.429320	0.450756	0.245161
C22	C	1.437961	0.584297	0.213866
N23	N	1.376946	0.282463	0.618301
N24	N	1.478604	0.180371	-0.018837
C25	C	1.440122	0.219006	0.722228
C26	C	1.415418	0.243837	0.877234
H27	H	0.823381	0.207711	0.172261
H28	H	0.816069	0.260890	0.496862
H29	H	1.039467	0.201945	0.102595
C30	C	1.280528	0.379408	0.652946
C31	C	1.275222	0.384792	0.799802
C32	C	1.186426	0.474096	0.831764
H33	H	1.203211	0.359190	0.613962
H34	H	1.301227	0.456567	0.614009
H35	H	1.254517	0.307650	0.838723
H36	H	1.352517	0.405026	0.838821
H37	H	1.207125	0.551255	0.792827
H38	H	1.109115	0.453869	0.792772
H39	H	1.182822	0.477768	0.931408
C40	C	1.574781	0.083078	0.946806
C41	C	1.519679	-0.006195	0.868185
C42	C	1.608161	-0.095937	0.836582
H43	H	1.611109	0.046379	1.032090
H44	H	1.635847	0.119462	0.893389
H45	H	1.458634	-0.042576	0.921602
H46	H	1.483358	0.030466	0.782886
H47	H	1.669228	-0.059553	0.783164
H48	H	1.644484	-0.132626	0.921872
H49	H	1.570790	-0.156513	0.783223
C50	C	1.044134	0.261340	0.464257
C51	C	1.123757	0.164448	0.516053
C52	C	1.167401	0.187853	0.652722
H53	H	0.977393	0.269381	0.524230
H54	H	1.086493	0.334901	0.461850
H55	H	1.081398	0.090908	0.518469
H56	H	1.190518	0.156392	0.456120
H57	H	1.209761	0.261413	0.650315
H58	H	1.100652	0.195894	0.712682
H59	H	1.221438	0.122122	0.687878
H60	H	1.404142	-0.372894	0.427181
H61	H	1.451385	-0.164259	0.172285
H62	H	1.343032	0.316548	0.903005
H63	H	1.457103	-0.380401	0.102576
H64	H	1.512495	0.146290	0.696452
C65	C	1.392095	-0.168765	0.533887
C66	C	1.388337	-0.296262	0.536481
C67	C	1.364870	-0.339882	0.673080
H68	H	1.315782	-0.134487	0.560467
H69	H	1.455058	-0.146162	0.598211
H70	H	1.325377	-0.318854	0.472178
H71	H	1.464639	-0.330573	0.509927
H72	H	1.427834	-0.317279	0.737404
H73	H	1.288558	-0.305595	0.699649
H74	H	1.362328	-0.426393	0.674862
