data_functionalizedCrystal
_audit_creation_method	'MofGen! by Chris Wilmer'
_symmetry_space_group_name_H-M	'P1'
_symmetry_Int_Tables_number	1
_symmetry_cell_setting	triclinic
loop_
_symmetry_equiv_pos_as_xyz
  x,y,z
_cell_length_a	19.077105
_cell_length_b	19.077068
_cell_length_c	19.805399
_cell_angle_alpha	92.269429
_cell_angle_beta	87.684312
_cell_angle_gamma	90.115316
loop_
_atom_site_label
_atom_site_type_symbol
_atom_site_fract_x
_atom_site_fract_y
_atom_site_fract_z
Zn1	Zn	1.062984	-0.322994	-0.436187
Zn2	Zn	1.312984	-0.072994	-0.186187
Zn3	Zn	1.562984	0.177006	0.063813
Zn4	Zn	1.812984	0.427006	0.313813
Zn5	Zn	1.058172	-0.440500	-0.327347
Zn6	Zn	1.308172	-0.190500	-0.077347
Zn7	Zn	1.558172	0.059500	0.172653
Zn8	Zn	1.808172	0.309500	0.422653
Zn9	Zn	0.945478	-0.318285	-0.318297
Zn10	Zn	1.195478	-0.068285	-0.068297
Zn11	Zn	1.445478	0.181715	0.181703
Zn12	Zn	1.695478	0.431715	0.431703
Zn13	Zn	0.940719	-0.435736	-0.435780
Zn14	Zn	1.190719	-0.185736	-0.185780
Zn15	Zn	1.440719	0.064264	0.064220
Zn16	Zn	1.690719	0.314264	0.314220
O17	O	1.001838	-0.379379	-0.379403
O18	O	1.251838	-0.129379	-0.129403
O19	O	1.501838	0.120621	0.120597
O20	O	1.751838	0.370621	0.370597
O21	O	1.160677	-0.342546	-0.425707
O22	O	1.410677	-0.092546	-0.175707
O23	O	1.660677	0.157454	0.074293
O24	O	1.910677	0.407454	0.324293
O25	O	1.043201	-0.424310	-0.231430
O26	O	1.293201	-0.174310	0.018570
O27	O	1.543201	0.075690	0.268570
O28	O	1.793201	0.325690	0.518570
O29	O	0.965071	-0.220580	-0.330318
O30	O	1.215071	0.029420	-0.080318
O31	O	1.465071	0.279420	0.169682
O32	O	1.715071	0.529420	0.419682
O33	O	1.157142	-0.428877	-0.345743
O34	O	1.407142	-0.178877	-0.095743
O35	O	1.657142	0.071123	0.154257
O36	O	1.907142	0.321123	0.404257
O37	O	1.051402	-0.224039	-0.416931
O38	O	1.301402	0.025961	-0.166931
O39	O	1.551402	0.275961	0.083069
O40	O	1.801402	0.525961	0.333069
O41	O	0.960405	-0.334520	-0.224781
O42	O	1.210405	-0.084520	0.025219
O43	O	1.460405	0.165480	0.275219
O44	O	1.710405	0.415480	0.525219
O45	O	0.846515	-0.329900	-0.329923
O46	O	1.096515	-0.079900	-0.079923
O47	O	1.346515	0.170100	0.170077
O48	O	1.596515	0.420100	0.420077
O49	O	0.956960	-0.420757	-0.530550
O50	O	1.206960	-0.170757	-0.280550
O51	O	1.456960	0.079243	-0.030550
O52	O	1.706960	0.329243	0.219450
O53	O	0.843019	-0.416191	-0.416238
O54	O	1.093019	-0.166191	-0.166238
O55	O	1.343019	0.083809	0.083762
O56	O	1.593019	0.333809	0.333762
O57	O	1.046787	-0.337927	-0.530849
O58	O	1.296787	-0.087927	-0.280849
O59	O	1.546787	0.162073	-0.030849
O60	O	1.796787	0.412073	0.219151
O61	O	1.038587	-0.538198	-0.345349
O62	O	1.288587	-0.288198	-0.095349
O63	O	1.538587	-0.038198	0.154651
O64	O	1.788587	0.211802	0.404651
O65	O	0.952294	-0.534698	-0.425014
O66	O	1.202294	-0.284698	-0.175014
O67	O	1.452294	-0.034698	0.074986
O68	O	1.702294	0.215302	0.324986
C69	C	0.819271	-0.372018	-0.372055
C70	C	1.069271	-0.122018	-0.122055
C71	C	1.319271	0.127982	0.127945
C72	C	1.569271	0.377982	0.377945
C73	C	0.741167	-0.368886	-0.368928
C74	C	0.991167	-0.118886	-0.118928
C75	C	1.241167	0.131114	0.131072
C76	C	1.491167	0.381114	0.381072
C77	C	0.702669	-0.412410	-0.412333
C78	C	0.952669	-0.162410	-0.162333
C79	C	1.202669	0.087590	0.087667
C80	C	1.452669	0.337590	0.337667
C81	C	0.629282	-0.409458	-0.409398
C82	C	0.879282	-0.159458	-0.159398
C83	C	1.129282	0.090542	0.090602
C84	C	1.379282	0.340542	0.340602
C85	C	0.594395	-0.362986	-0.363054
C86	C	0.844395	-0.112986	-0.113054
C87	C	1.094395	0.137014	0.136946
C88	C	1.344395	0.387014	0.386946
C89	C	0.632899	-0.319458	-0.319647
C90	C	0.882899	-0.069458	-0.069647
C91	C	1.132899	0.180542	0.180353
C92	C	1.382899	0.430542	0.430353
C93	C	0.706284	-0.322406	-0.322586
C94	C	0.956284	-0.072406	-0.072586
C95	C	1.206284	0.177594	0.177414
C96	C	1.456284	0.427594	0.427414
C97	C	0.375110	-0.349338	-0.349456
C98	C	0.625110	-0.099338	-0.099456
C99	C	0.875110	0.150662	0.150544
C100	C	1.125110	0.400662	0.400544
C101	C	0.301720	-0.346394	-0.346519
C102	C	0.551720	-0.096394	-0.096519
C103	C	0.801720	0.153606	0.153481
C104	C	1.051720	0.403606	0.403481
C105	C	0.298109	-0.436393	-0.436270
C106	C	0.548109	-0.186393	-0.186270
C107	C	0.798109	0.063607	0.063730
C108	C	1.048109	0.313607	0.313730
C109	C	0.371496	-0.439341	-0.439202
C110	C	0.621496	-0.189341	-0.189202
C111	C	0.871496	0.060659	0.060798
C112	C	1.121496	0.310659	0.310798
C113	C	0.409993	-0.395811	-0.395798
C114	C	0.659993	-0.145811	-0.145798
C115	C	0.909993	0.104189	0.104202
C116	C	1.159993	0.354189	0.354202
N117	N	0.519382	-0.359969	-0.360051
N118	N	0.769382	-0.109969	-0.110051
N119	N	1.019382	0.140031	0.139949
N120	N	1.269382	0.390031	0.389949
N121	N	0.485004	-0.398824	-0.398804
N122	N	0.735004	-0.148824	-0.148804
N123	N	0.985004	0.101176	0.101196
N124	N	1.235004	0.351176	0.351196
C125	C	0.994421	-0.561944	-0.386135
C126	C	1.244421	-0.311944	-0.136135
C127	C	1.494421	-0.061944	0.113865
C128	C	1.744421	0.188056	0.363865
C129	C	0.991312	-0.640049	-0.389040
C130	C	1.241312	-0.390049	-0.139040
C131	C	1.491312	-0.140049	0.110960
C132	C	1.741312	0.109951	0.360960
C133	C	1.034814	-0.678543	-0.348965
C134	C	1.284814	-0.428543	-0.098965
C135	C	1.534814	-0.178543	0.151035
C136	C	1.784814	0.071457	0.401035
C137	C	1.031894	-0.751931	-0.351702
C138	C	1.281894	-0.501931	-0.101702
C139	C	1.531894	-0.251931	0.148298
C140	C	1.781894	-0.001931	0.398298
C141	C	0.985468	-0.786824	-0.394510
C142	C	1.235468	-0.536824	-0.144510
C143	C	1.485468	-0.286824	0.105490
C144	C	1.735468	-0.036824	0.355490
C145	C	0.941964	-0.748324	-0.434590
C146	C	1.191964	-0.498324	-0.184590
C147	C	1.441964	-0.248324	0.065410
C148	C	1.691964	0.001676	0.315410
C149	C	0.944888	-0.674938	-0.431856
C150	C	1.194888	-0.424938	-0.181856
C151	C	1.444888	-0.174938	0.068144
C152	C	1.694888	0.075062	0.318144
C153	C	0.971905	-1.006113	-0.407133
C154	C	1.221905	-0.756113	-0.157133
C155	C	1.471905	-0.506113	0.092867
C156	C	1.721905	-0.256113	0.342867
C157	C	0.968983	-1.079504	-0.409862
C158	C	1.218983	-0.829504	-0.159862
C159	C	1.468983	-0.579504	0.090138
C160	C	1.718983	-0.329504	0.340138
C161	C	1.058914	-1.083107	-0.326974
C162	C	1.308914	-0.833107	-0.076974
C163	C	1.558914	-0.583107	0.173026
C164	C	1.808914	-0.333107	0.423026
C165	C	1.061831	-1.009718	-0.324241
C166	C	1.311831	-0.759718	-0.074241
C167	C	1.561831	-0.509718	0.175759
C168	C	1.811831	-0.259718	0.425759
C169	C	1.018330	-0.971225	-0.364323
C170	C	1.268330	-0.721225	-0.114323
C171	C	1.518330	-0.471225	0.135677
C172	C	1.768330	-0.221225	0.385677
N173	N	0.982481	-0.861838	-0.397307
N174	N	1.232481	-0.611838	-0.147307
N175	N	1.482481	-0.361838	0.102693
N176	N	1.732481	-0.111838	0.352693
N177	N	1.021321	-0.896213	-0.361530
N178	N	1.271321	-0.646213	-0.111530
N179	N	1.521321	-0.396213	0.138470
N180	N	1.771321	-0.146213	0.388470
C181	C	1.185119	-0.386768	-0.386780
C182	C	1.435119	-0.136768	-0.136780
C183	C	1.685119	0.113232	0.113220
C184	C	1.935119	0.363232	0.363220
C185	C	1.263222	-0.389917	-0.389923
C186	C	1.513222	-0.139917	-0.139923
C187	C	1.763222	0.110083	0.110077
C188	C	2.013222	0.360083	0.360077
C189	C	1.001879	-0.379336	-0.555945
C190	C	1.251879	-0.129336	-0.305945
C191	C	1.501879	0.120664	-0.055945
C192	C	1.751879	0.370664	0.194055
C193	C	1.001897	-0.379318	-0.631177
C194	C	1.251897	-0.129318	-0.381177
C195	C	1.501897	0.120682	-0.131177
C196	C	1.751897	0.370682	0.118823
C197	C	1.009304	-0.196101	-0.372660
C198	C	1.259304	0.053899	-0.122660
C199	C	1.509304	0.303899	0.127340
C200	C	1.759304	0.553899	0.377340
C201	C	1.012485	-0.117999	-0.369787
C202	C	1.262485	0.132001	-0.119787
C203	C	1.512485	0.382001	0.130213
C204	C	1.762485	0.632001	0.380213
C205	C	1.048671	-0.336186	-0.666678
C206	C	1.298671	-0.086186	-0.416678
C207	C	1.548671	0.163814	-0.166678
C208	C	1.798671	0.413814	0.083322
C209	C	1.048679	-0.336165	-0.737366
C210	C	1.298679	-0.086165	-0.487366
C211	C	1.548679	0.163835	-0.237366
C212	C	1.798679	0.413835	0.012634
C213	C	1.001916	-0.379282	-0.772552
C214	C	1.251916	-0.129282	-0.522552
C215	C	1.501916	0.120718	-0.272552
C216	C	1.751916	0.370718	-0.022552
C217	C	0.955137	-0.422416	-0.737047
C218	C	1.205137	-0.172416	-0.487047
C219	C	1.455137	0.077584	-0.237047
C220	C	1.705137	0.327584	0.012953
C221	C	0.955126	-0.422432	-0.666360
C222	C	1.205126	-0.172432	-0.416360
C223	C	1.455126	0.077568	-0.166360
C224	C	1.705126	0.327568	0.083640
C225	C	0.955179	-0.422352	-1.022119
C226	C	1.205179	-0.172352	-0.772119
C227	C	1.455179	0.077648	-0.522119
C228	C	1.705179	0.327648	-0.272119
C229	C	0.955195	-0.422334	-1.092811
C230	C	1.205195	-0.172334	-0.842811
C231	C	1.455195	0.077666	-0.592811
C232	C	1.705195	0.327666	-0.342811
C233	C	1.048733	-0.336086	-1.093126
C234	C	1.298733	-0.086086	-0.843126
C235	C	1.548733	0.163914	-0.593126
C236	C	1.798733	0.413914	-0.343126
C237	C	1.048722	-0.336102	-1.022439
C238	C	1.298722	-0.086102	-0.772439
C239	C	1.548722	0.163898	-0.522439
C240	C	1.798722	0.413898	-0.272439
C241	C	1.001940	-0.379232	-0.986939
C242	C	1.251940	-0.129232	-0.736939
C243	C	1.501940	0.120768	-0.486939
C244	C	1.751940	0.370768	-0.236939
C245	C	1.001931	-0.379253	-0.910291
C246	C	1.251931	-0.129253	-0.660291
C247	C	1.501931	0.120747	-0.410291
C248	C	1.751931	0.370747	-0.160291
C249	C	1.001928	-0.379266	-0.849199
C250	C	1.251928	-0.129266	-0.599199
C251	C	1.501928	0.120734	-0.349199
C252	C	1.751928	0.370734	-0.099199
C253	C	1.001840	-0.379372	-0.203547
C254	C	1.251840	-0.129372	0.046453
C255	C	1.501840	0.120628	0.296453
C256	C	1.751840	0.370628	0.546453
C257	C	1.001966	-0.379198	-0.128313
C258	C	1.251966	-0.129198	0.121687
C259	C	1.501966	0.120802	0.371687
C260	C	1.751966	0.370802	0.621687
H261	H	0.597940	-0.444900	-0.444742
H262	H	0.847940	-0.194900	-0.194742
H263	H	1.097940	0.055100	0.055258
H264	H	1.347940	0.305100	0.305258
Br265	Br	0.427347	-0.290256	-0.290553
Br266	Br	0.677347	-0.040256	-0.040553
Br267	Br	0.927347	0.209744	0.209447
Br268	Br	1.177347	0.459744	0.459447
Br269	Br	0.891667	-0.480927	-0.784798
Br270	Br	1.141667	-0.230927	-0.534798
Br271	Br	1.391667	0.019073	-0.284798
Br272	Br	1.641667	0.269073	-0.034798
H273	H	0.604488	-0.281616	-0.281916
H274	H	0.854488	-0.031616	-0.031916
H275	H	1.104488	0.218384	0.218084
H276	H	1.354488	0.468384	0.468084
Br277	Br	0.758532	-0.263333	-0.263681
Br278	Br	1.008532	-0.013333	-0.013681
Br279	Br	1.258532	0.236667	0.236319
Br280	Br	1.508532	0.486667	0.486319
H281	H	0.917111	-0.457446	-1.121458
H282	H	1.167111	-0.207446	-0.871458
H283	H	1.417111	0.042554	-0.621458
H284	H	1.667111	0.292554	-0.371458
H285	H	0.917030	-0.457547	-0.637455
H286	H	1.167030	-0.207547	-0.387455
H287	H	1.417030	0.042453	-0.137455
H288	H	1.667030	0.292453	0.112545
Br289	Br	1.097818	-0.631197	-0.290858
Br290	Br	1.347818	-0.381197	-0.040858
Br291	Br	1.597818	-0.131197	0.209142
Br292	Br	1.847818	0.118803	0.459142
Br293	Br	1.117952	-1.135350	-0.272584
Br294	Br	1.367952	-0.885350	-0.022584
Br295	Br	1.617952	-0.635350	0.227416
Br296	Br	1.867952	-0.385350	0.477416
Br297	Br	1.112193	-0.277660	-0.785546
Br298	Br	1.362193	-0.027660	-0.535546
Br299	Br	1.612193	0.222340	-0.285546
Br300	Br	1.862193	0.472340	-0.035546
H301	H	0.731069	-0.450255	-0.450068
H302	H	0.981069	-0.200255	-0.200068
H303	H	1.231069	0.049745	0.049932
H304	H	1.481069	0.299745	0.299932
H305	H	0.399896	-0.477185	-0.476938
H306	H	0.649896	-0.227185	-0.226938
H307	H	0.899896	0.022815	0.023062
H308	H	1.149896	0.272815	0.273062
H309	H	1.099635	-0.981311	-0.289383
H310	H	1.349635	-0.731311	-0.039383
H311	H	1.599635	-0.481311	0.210617
H312	H	1.849635	-0.231311	0.460617
Br313	Br	1.112145	-0.277673	-0.618933
Br314	Br	1.362145	-0.027673	-0.368933
Br315	Br	1.612145	0.222327	-0.118933
Br316	Br	1.862145	0.472327	0.131067
H317	H	0.266757	-0.471833	-0.471608
H318	H	0.516757	-0.221833	-0.221608
H319	H	0.766757	0.028167	0.028392
H320	H	1.016757	0.278167	0.278392
Br321	Br	0.254373	-0.283328	-0.283613
Br322	Br	0.504373	-0.033328	-0.033613
Br323	Br	0.754373	0.216672	0.216387
Br324	Br	1.004373	0.466672	0.466387
Br325	Br	1.090940	-0.804171	-0.297316
Br326	Br	1.340940	-0.554171	-0.047316
Br327	Br	1.590940	-0.304171	0.202684
Br328	Br	1.840940	-0.054171	0.452684
H329	H	0.931186	-1.107912	-0.444734
H330	H	1.181186	-0.857912	-0.194734
H331	H	1.431186	-0.607912	0.055266
H332	H	1.681186	-0.357912	0.305266
Br333	Br	0.912868	-0.953881	-0.461530
Br334	Br	1.162868	-0.703881	-0.211530
Br335	Br	1.412868	-0.453881	0.038470
Br336	Br	1.662868	-0.203881	0.288470
H337	H	1.086804	-0.300994	-0.993794
H338	H	1.336804	-0.050994	-0.743794
H339	H	1.586804	0.199006	-0.493794
H340	H	1.836804	0.449006	-0.243794
H341	H	0.904166	-0.776739	-0.469448
H342	H	1.154166	-0.526739	-0.219448
H343	H	1.404166	-0.276739	0.030552
H344	H	1.654166	-0.026739	0.280552
H345	H	1.086822	-0.300964	-1.122038
H346	H	1.336822	-0.050964	-0.872038
H347	H	1.586822	0.199036	-0.622038
H348	H	1.836822	0.449036	-0.372038
Br349	Br	0.885852	-0.622695	-0.486250
Br350	Br	1.135852	-0.372695	-0.236250
Br351	Br	1.385852	-0.122695	0.013750
Br352	Br	1.635852	0.127305	0.263750
Br353	Br	0.891688	-0.480885	-0.973950
Br354	Br	1.141688	-0.230885	-0.723950
Br355	Br	1.391688	0.019115	-0.473950
Br356	Br	1.641688	0.269115	-0.223950
