data_functionalizedCrystal
_audit_creation_method	'MofGen! by Chris Wilmer'
_symmetry_space_group_name_H-M	'P1'
_symmetry_Int_Tables_number	1
_symmetry_cell_setting	triclinic
loop_
_symmetry_equiv_pos_as_xyz
  x,y,z
_cell_length_a	19.121368
_cell_length_b	16.120530
_cell_length_c	16.120297
_cell_angle_alpha	90.128140
_cell_angle_beta	89.678906
_cell_angle_gamma	90.586674
loop_
_atom_site_label
_atom_site_type_symbol
_atom_site_fract_x
_atom_site_fract_y
_atom_site_fract_z
Zn1	Zn	0.354309	1.230611	-0.515844
Zn2	Zn	0.854309	1.730611	-0.015844
Zn3	Zn	0.465640	1.232273	-0.370904
Zn4	Zn	0.965640	1.732273	0.129096
Zn5	Zn	0.342492	1.099162	-0.370386
Zn6	Zn	0.842492	1.599162	0.129614
Zn7	Zn	0.464996	1.086260	-0.502907
Zn8	Zn	0.964996	1.586260	-0.002907
O9	O	0.406859	1.162077	-0.440010
O10	O	0.906859	1.662077	0.059990
O11	O	0.374293	1.346950	-0.502248
O12	O	0.874293	1.846950	-0.002248
O13	O	0.444628	1.220711	-0.254717
O14	O	0.944628	1.720711	0.245283
O15	O	0.246198	1.121303	-0.394879
O16	O	0.746198	1.621303	0.105121
O17	O	0.456087	1.348171	-0.395761
O18	O	0.956087	1.848171	0.104239
O19	O	0.254880	1.217878	-0.501746
O20	O	0.754880	1.717878	-0.001746
O21	O	0.354151	1.122915	-0.254337
O22	O	0.854151	1.622915	0.245663
O23	O	0.353527	0.981332	-0.382335
O24	O	0.853527	1.481332	0.117665
O25	O	0.454990	1.099313	-0.620742
O26	O	0.954990	1.599313	-0.120742
O27	O	0.443531	0.971853	-0.479697
O28	O	0.943531	1.471853	0.020303
O29	O	0.373668	1.205367	-0.630246
O30	O	0.873668	1.705367	-0.130246
O31	O	0.563416	1.208200	-0.383217
O32	O	1.063416	1.708200	0.116783
O33	O	0.562943	1.100925	-0.480199
O34	O	1.062943	1.600925	0.019801
C35	C	0.397177	0.946484	-0.429557
C36	C	0.897177	1.446484	0.070443
C37	C	0.393052	0.854251	-0.425103
C38	C	0.893052	1.354251	0.074897
C39	C	0.224455	1.170844	-0.449698
C40	C	0.724455	1.670844	0.050302
C41	C	0.146726	1.174580	-0.453826
C42	C	0.646726	1.674580	0.046174
C43	C	0.385506	0.685380	-0.416981
C44	C	0.885506	1.185380	0.083019
C45	C	0.428267	0.639608	-0.463098
C46	C	0.928267	1.139608	0.036902
C47	C	0.424068	0.545642	-0.458578
C48	C	0.924068	1.045642	0.041422
C49	C	0.389704	0.779354	-0.421499
C50	C	0.889704	1.279354	0.078501
C51	C	0.105687	1.126058	-0.400128
C52	C	0.605687	1.626058	0.099872
C53	C	0.032652	1.129566	-0.404015
C54	C	0.532652	1.629566	0.095985
C55	C	0.000657	1.181603	-0.461597
C56	C	0.500657	1.681603	0.038403
C57	C	0.041701	1.230127	-0.515301
C58	C	0.541701	1.730127	-0.015301
C59	C	0.114735	1.226613	-0.511418
C60	C	0.614735	1.726613	-0.011418
C61	C	-0.219631	1.194723	-0.476111
C62	C	0.280369	1.694723	0.023889
C63	C	-0.292670	1.198235	-0.479989
C64	C	0.207330	1.698235	0.020011
C65	C	-0.301715	1.097672	-0.368703
C66	C	0.198285	1.597672	0.131297
C67	C	-0.228680	1.094167	-0.364821
C68	C	0.271320	1.594167	0.135179
C69	C	-0.187642	1.142688	-0.418528
C70	C	0.312358	1.642688	0.081472
C71	C	-0.073996	1.185192	-0.465570
C72	C	0.426004	1.685192	0.034430
C73	C	-0.112990	1.139094	-0.414559
C74	C	0.387010	1.639094	0.085441
C75	C	0.588556	1.153365	-0.430379
C76	C	1.088556	1.653365	0.069621
C77	C	0.666291	1.149712	-0.426291
C78	C	1.166291	1.649712	0.073709
C79	C	0.415575	1.150715	-0.656444
C80	C	0.915575	1.650715	-0.156444
C81	C	0.419290	1.145874	-0.748675
C82	C	0.919290	1.645874	-0.248675
C83	C	0.416580	1.378511	-0.450505
C84	C	0.916580	1.878511	0.049495
C85	C	0.420723	1.470742	-0.454978
C86	C	0.920723	1.970742	0.045022
C87	C	0.426054	1.137005	-0.917542
C88	C	0.926054	1.637005	-0.417542
C89	C	0.387463	1.187322	-0.963349
C90	C	0.887463	1.687322	-0.463349
C91	C	0.391226	1.182387	-1.057313
C92	C	0.891226	1.682387	-0.557313
C93	C	0.422291	1.141939	-0.823570
C94	C	0.922291	1.641939	-0.323570
C95	C	0.398129	1.173444	-0.224424
C96	C	0.898129	1.673444	0.275576
C97	C	0.394225	1.178455	-0.132211
C98	C	0.894225	1.678455	0.367789
H99	H	0.345748	0.653998	-0.374107
H100	H	0.845748	1.153998	0.125893
O101	O	0.344619	1.243164	-0.926086
O102	O	0.844619	1.743164	-0.426086
C103	C	0.309492	1.288998	-0.987183
C104	C	0.809492	1.788998	-0.487183
H105	H	0.307965	1.251944	-1.047472
H106	H	0.807965	1.751944	-0.547472
H107	H	0.253806	1.301802	-0.965405
H108	H	0.753806	1.801802	-0.465405
H109	H	0.338300	1.350310	-0.998076
H110	H	0.838300	1.850310	-0.498076
O111	O	0.475686	0.677174	-0.514178
O112	O	0.975686	1.177174	-0.014178
C113	C	0.469369	0.763992	-0.507386
C114	C	0.969369	1.263992	-0.007386
H115	H	0.444314	0.780170	-0.445165
H116	H	0.944314	1.280170	0.054835
H117	H	0.523428	0.794208	-0.511688
H118	H	1.023428	1.294208	-0.011688
H119	H	0.435258	0.787801	-0.559811
H120	H	0.935258	1.287801	-0.059811
H121	H	0.131731	1.083687	-0.353235
H122	H	0.631731	1.583687	0.146765
O123	O	-0.007110	1.082411	-0.351760
O124	O	0.492890	1.582411	0.148240
C125	C	0.036791	1.035721	-0.300112
C126	C	0.536791	1.535721	0.199888
H127	H	0.090264	1.067355	-0.296126
H128	H	0.590264	1.567355	0.203874
H129	H	0.012657	1.031328	-0.235425
H130	H	0.512657	1.531328	0.264575
H131	H	0.042949	0.970727	-0.327019
H132	H	0.542949	1.470727	0.172981
H133	H	0.461918	1.090226	-0.948893
H134	H	0.961918	1.590226	-0.448893
O135	O	-0.197641	1.043489	-0.308972
O136	O	0.302359	1.543489	0.191028
C137	C	-0.218492	0.960698	-0.324037
C138	C	0.281508	1.460698	0.175963
H139	H	-0.236081	0.953999	-0.391193
H140	H	0.263919	1.453999	0.108807
H141	H	-0.172596	0.917763	-0.312345
H142	H	0.327404	1.417763	0.187655
H143	H	-0.263657	0.943386	-0.280756
H144	H	0.236343	1.443386	0.219244
O145	O	-0.341683	1.050564	-0.316626
O146	O	0.158317	1.550564	0.183374
C147	C	-0.413006	1.064836	-0.332384
C148	C	0.086994	1.564836	0.167616
H149	H	-0.419179	1.089132	-0.398268
H150	H	0.080821	1.589132	0.101732
H151	H	-0.443781	1.004310	-0.325219
H152	H	0.056219	1.504310	0.174781
H153	H	-0.433730	1.112603	-0.286407
H154	H	0.066270	1.612603	0.213593
H155	H	0.148148	1.266119	-0.555151
H156	H	0.648148	1.766119	-0.055151
H157	H	-0.318716	1.240612	-0.526882
H158	H	0.181284	1.740612	-0.026882
O159	O	-0.179877	1.241955	-0.528299
O160	O	0.320123	1.741955	-0.028299
C161	C	-0.223780	1.288630	-0.579957
C162	C	0.276220	1.788630	-0.079957
H163	H	-0.277085	1.295772	-0.548878
H164	H	0.222915	1.795772	-0.048878
H165	H	-0.199392	1.352537	-0.590836
H166	H	0.300608	1.852537	-0.090836
H167	H	-0.230365	1.255326	-0.641928
H168	H	0.269635	1.755326	-0.141928
O169	O	0.010542	1.280560	-0.571277
O170	O	0.510542	1.780560	-0.071277
C171	C	-0.031655	1.232533	-0.624836
C172	C	0.468345	1.732533	-0.124836
H173	H	-0.046601	1.171712	-0.593101
H174	H	0.453399	1.671712	-0.093101
H175	H	-0.081046	1.268218	-0.640324
H176	H	0.418954	1.768218	-0.140324
H177	H	-0.001441	1.218833	-0.684392
H178	H	0.498559	1.718833	-0.184392
O179	O	-0.081834	1.088496	-0.358734
O180	O	0.418166	1.588496	0.141266
C181	C	-0.040107	1.030376	-0.401133
C182	C	0.459893	1.530376	0.098867
H183	H	-0.025322	1.055810	-0.464858
H184	H	0.474678	1.555810	0.035142
H185	H	0.009392	1.018566	-0.364068
H186	H	0.509392	1.518566	0.135932
H187	H	-0.070648	0.969756	-0.408756
H188	H	0.429352	1.469756	0.091244
O189	O	-0.105161	1.235629	-0.521538
O190	O	0.394839	1.735629	-0.021538
C191	C	-0.147354	1.187598	-0.575098
C192	C	0.352646	1.687598	-0.075098
H193	H	-0.162291	1.126772	-0.543366
H194	H	0.337709	1.626772	-0.043366
H195	H	-0.196751	1.223276	-0.590580
H196	H	0.303249	1.723276	-0.090580
H197	H	-0.117142	1.173907	-0.634657
H198	H	0.382858	1.673907	-0.134657
