data_functionalizedCrystal
_audit_creation_method	'MofGen! by Chris Wilmer'
_symmetry_space_group_name_H-M	'P1'
_symmetry_Int_Tables_number	1
_symmetry_cell_setting	triclinic
loop_
_symmetry_equiv_pos_as_xyz
  x,y,z
_cell_length_a	15.995300
_cell_length_b	15.995292
_cell_length_c	10.065875
_cell_angle_alpha	98.790453
_cell_angle_beta	81.253009
_cell_angle_gamma	83.470212
loop_
_atom_site_label
_atom_site_type_symbol
_atom_site_fract_x
_atom_site_fract_y
_atom_site_fract_z
O1	O	1.123248	0.095414	-0.113535
O2	O	0.879463	0.108787	-0.113526
O3	O	1.008045	-0.019792	-0.113533
O4	O	0.994666	0.223993	-0.113528
O5	O	0.983526	0.004825	0.113457
O6	O	0.854944	0.133404	0.113464
O7	O	1.098729	0.120031	0.113455
Zn8	Zn	0.972943	0.130626	0.149499
Zn9	Zn	1.005248	0.098192	-0.149570
O10	O	0.970147	0.248610	0.113462
C11	C	0.836008	0.120550	-0.000030
C12	C	0.743055	0.118915	-0.000026
C13	C	0.572874	0.115895	-0.000037
C14	C	0.525388	0.207446	-0.000032
C15	C	0.428757	0.205719	-0.000551
C16	C	0.405319	0.112922	-0.000046
C17	C	0.460435	0.053471	-0.129414
C18	C	0.557079	0.055776	-0.129518
C19	C	0.529475	0.082415	0.128621
C20	C	0.432348	0.082608	0.130317
C21	C	0.310625	0.111236	-0.000055
C22	C	0.667569	0.117577	-0.000037
C23	C	0.995241	-0.038679	-0.000041
C24	C	0.993610	-0.131633	-0.000051
C25	C	0.987607	-0.469369	-0.000039
C26	C	1.080359	-0.446019	0.000465
C27	C	1.082179	-0.349400	-0.000052
C28	C	0.990586	-0.301814	-0.000044
C29	C	0.958188	-0.344964	-0.129661
C30	C	0.957081	-0.441765	-0.129764
C31	C	0.927304	-0.413628	0.128366
C32	C	0.930558	-0.316951	0.130074
C33	C	0.992264	-0.207119	-0.000052
C34	C	0.985926	-0.564065	-0.000040
C35	C	1.142184	0.108267	-0.000044
C36	C	1.235137	0.109901	-0.000056
C37	C	0.982951	0.267497	-0.000033
C38	C	0.984583	0.360450	-0.000031
N39	N	0.950902	0.152760	0.353606
N40	N	1.027296	0.076051	-0.353677
C41	C	0.997574	0.105888	0.421382
C42	C	0.980617	0.122930	0.578550
H43	H	0.410977	0.231140	-0.093826
H44	H	0.928100	0.175676	0.636874
C45	C	0.381444	0.141436	0.259614
H46	H	0.343869	0.184291	0.234271
H47	H	0.419835	0.167622	0.310396
H48	H	0.349205	0.108686	0.313933
C49	C	0.879951	0.224005	0.432386
H50	H	0.852861	0.251195	0.369483
H51	H	0.904173	0.264793	0.488133
H52	H	0.839030	0.199970	0.488127
H53	H	0.999682	-0.479095	-0.226660
H54	H	0.446830	-0.015237	-0.133862
H55	H	0.533853	0.254296	0.092723
C56	C	0.595985	0.085784	-0.260640
H57	H	0.552692	0.096457	-0.313339
H58	H	0.639567	0.042676	-0.312256
H59	H	0.619682	0.136748	-0.237213
H60	H	0.953986	-0.287993	0.225963
C61	C	0.866025	-0.462276	-0.137744
H62	H	0.829874	-0.411466	-0.140917
H63	H	0.844860	-0.485141	-0.059589
H64	H	0.867168	-0.502866	-0.217684
C65	C	1.098258	0.004812	0.567545
H66	H	1.100360	0.002714	0.472245
H67	H	1.086539	-0.048524	0.590883
H68	H	1.151667	0.016314	0.590894
H69	H	0.390271	0.251464	0.092164
H70	H	0.945918	-0.431067	0.226615
C71	C	0.565372	0.242837	-0.125172
H72	H	0.610876	0.202060	-0.177425
H73	H	0.586689	0.294308	-0.095634
H74	H	0.523213	0.253958	-0.179682
H75	H	0.589964	-0.012050	-0.135047
H76	H	0.442481	0.074131	-0.226050
H77	H	0.539374	0.123193	0.226705
C78	C	0.410422	-0.007629	0.141421
H79	H	0.384391	-0.028093	0.066354
H80	H	0.372113	-0.005550	0.224191
H81	H	0.461240	-0.044920	0.140544
C82	C	0.867844	-0.302600	-0.136181
H83	H	0.849037	-0.258112	-0.059732
H84	H	0.829765	-0.344034	-0.134975
H85	H	0.868998	-0.279502	-0.217855
H86	H	1.050082	0.053139	0.363055
H87	H	1.000828	-0.335370	-0.226126
C88	C	0.572247	-0.008583	0.130311
H89	H	0.616339	-0.026115	0.053037
H90	H	0.530889	-0.046707	0.127666
H91	H	0.595919	-0.009058	0.211264
C92	C	1.145131	-0.338175	-0.125800
H93	H	1.169685	-0.392716	-0.176774
H94	H	1.188997	-0.308222	-0.096908
H95	H	1.115540	-0.306674	-0.181319
C96	C	0.839103	-0.271243	0.140672
H97	H	0.836317	-0.242208	0.065537
H98	H	0.824155	-0.231209	0.223404
H99	H	0.800414	-0.312121	0.139582
C100	C	1.117722	-0.310093	0.125450
H101	H	1.131179	-0.353168	0.177207
H102	H	1.076071	-0.266344	0.180299
H103	H	1.167863	-0.286534	0.096260
C104	C	1.115122	-0.470222	0.126041
H105	H	1.073387	-0.494791	0.179285
H106	H	1.127822	-0.420469	0.179401
H107	H	1.165600	-0.510352	0.096909
H108	H	1.125917	-0.485067	-0.091970
H109	H	0.858896	-0.427511	0.129245
