data_functionalizedCrystal
_audit_creation_method	'MofGen! by Chris Wilmer'
_symmetry_space_group_name_H-M	'P1'
_symmetry_Int_Tables_number	1
_symmetry_cell_setting	triclinic
loop_
_symmetry_equiv_pos_as_xyz
  x,y,z
_cell_length_a	12.811438
_cell_length_b	15.021413
_cell_length_c	12.837942
_cell_angle_alpha	89.999064
_cell_angle_beta	89.411773
_cell_angle_gamma	95.424668
loop_
_atom_site_label
_atom_site_type_symbol
_atom_site_fract_x
_atom_site_fract_y
_atom_site_fract_z
O1	O	1.406606	0.187586	0.139669
O2	O	1.102546	0.163041	0.154860
O3	O	1.247834	0.174764	-0.003667
O4	O	1.261318	0.175863	0.298196
O5	O	1.247854	0.026701	-0.003657
O6	O	1.102566	0.014978	0.154870
O7	O	1.406626	0.039523	0.139679
Zn8	Zn	1.254599	0.003743	0.147276
Zn9	Zn	1.254573	0.198822	0.147263
O10	O	1.261338	0.027801	0.298206
C11	C	1.063367	0.085846	0.154014
C12	C	0.946596	0.076420	0.151466
C13	C	0.782024	-0.017570	0.147880
C14	C	0.891741	-0.008717	0.150275
C15	C	0.891727	0.152710	0.150265
C16	C	0.782011	0.143857	0.147870
C17	C	0.727163	0.058714	0.146676
C18	C	0.617444	0.049862	0.144274
C19	C	0.617433	0.211288	0.144272
C20	C	0.727150	0.220141	0.146666
N21	N	1.254624	-0.129393	0.147285
C22	C	1.321818	-0.363631	0.073965
C23	C	1.224923	-0.430782	0.053415
C24	C	1.254599	-0.311002	0.147271
C25	C	1.351464	-0.420594	0.167760
C26	C	1.254582	-0.486427	0.147256
C27	C	1.157651	-0.376851	0.126675
C28	C	1.284258	-0.366653	0.241061
C29	C	1.187299	-0.433783	0.220551
C30	C	1.254609	-0.209944	0.147277
C31	C	1.254561	-0.587484	0.147251
C32	C	1.445805	0.116720	0.140525
C33	C	1.562576	0.126152	0.143073
C34	C	1.243288	0.100365	-0.042302
C35	C	1.229703	0.099270	-0.157438
N36	N	1.254555	0.331958	0.147247
C37	C	1.393030	0.112473	-0.397693
C38	C	1.380269	0.111444	-0.505874
C39	C	1.191423	0.096191	-0.481982
C40	C	1.204183	0.097219	-0.373802
C41	C	1.304990	0.105359	-0.331661
C42	C	1.317749	0.106381	-0.223478
C43	C	1.128903	0.091134	-0.199589
C44	C	1.116143	0.090106	-0.307770
C45	C	1.265883	0.102201	0.336842
C46	C	1.279469	0.103302	0.451977
H47	H	0.771822	0.289462	0.147643
N48	N	1.115900	-0.471997	0.298324
N49	N	1.064585	-0.422580	0.353206
H50	H	1.014156	-0.449571	0.408130
N51	N	1.315788	-0.331391	0.340539
N52	N	1.404377	-0.343239	0.374864
H53	H	1.426657	-0.318334	0.445122
N54	N	1.054845	-0.352572	0.104788
N55	N	1.011845	-0.375686	0.020808
H56	H	0.939240	-0.358538	0.005346
N57	N	0.561433	-0.037111	0.143069
N58	N	0.571325	-0.090348	0.216360
H59	H	0.531770	-0.151777	0.215513
N60	N	1.013170	0.081772	-0.350803
N61	N	0.934571	0.075410	-0.291831
H62	H	0.861842	0.069518	-0.322219
H63	H	1.451961	0.117240	-0.559634
H64	H	0.572753	0.273405	0.143295
H65	H	1.109350	0.089573	-0.516313
N66	N	1.454240	-0.445024	0.189496
N67	N	1.529258	-0.419968	0.130146
H68	H	1.601845	-0.437220	0.145488
N69	N	1.038976	0.083860	-0.132123
N70	N	1.050380	0.084773	-0.035535
H71	H	0.986871	0.079632	0.012115
N72	N	1.193462	-0.466028	-0.046097
N73	N	1.253917	-0.509825	-0.098000
H74	H	1.231708	-0.534714	-0.168285
N75	N	0.726008	-0.104541	0.146644
N76	N	0.775006	-0.172647	0.147708
H77	H	0.735447	-0.234074	0.146834
N78	N	1.393042	-0.325228	-0.003852
N79	N	1.379421	-0.345364	-0.097525
H80	H	1.429718	-0.318244	-0.152486
N81	N	1.420723	0.114687	-0.180446
N82	N	1.499320	0.121037	-0.239421
H83	H	1.572050	0.126904	-0.209034
N84	N	1.496002	0.120770	-0.354657
N85	N	1.574603	0.127108	-0.413627
H86	H	1.647330	0.132966	-0.383236
H87	H	0.936403	0.222029	0.151246
N88	N	0.947764	-0.086648	0.151520
N89	N	0.898774	-0.162659	0.150463
H90	H	0.938340	-0.217702	0.151348
