data_functionalizedCrystal
_audit_creation_method	'MofGen! by Chris Wilmer'
_symmetry_space_group_name_H-M	'P1'
_symmetry_Int_Tables_number	1
_symmetry_cell_setting	triclinic
loop_
_symmetry_equiv_pos_as_xyz
  x,y,z
_cell_length_a	14.519731
_cell_length_b	13.596369
_cell_length_c	11.792254
_cell_angle_alpha	90.006156
_cell_angle_beta	83.943725
_cell_angle_gamma	90.005416
loop_
_atom_site_label
_atom_site_type_symbol
_atom_site_fract_x
_atom_site_fract_y
_atom_site_fract_z
O1	O	1.224407	0.081794	0.148896
O2	O	0.955997	0.081796	0.166392
O3	O	1.096709	0.081788	-0.007561
O4	O	1.083695	0.081802	0.322849
O5	O	1.096695	-0.081795	-0.007570
O6	O	0.955983	-0.081787	0.166383
O7	O	1.224393	-0.081789	0.148887
Zn8	Zn	1.090186	-0.107760	0.157634
Zn9	Zn	1.090204	0.107767	0.157646
O10	O	1.083680	-0.081781	0.322840
C11	C	0.921628	0.000004	0.165568
C12	C	0.819238	0.000005	0.163111
N13	N	1.090180	-0.254852	0.157625
C14	C	0.736087	0.000009	0.161115
C15	C	0.631769	0.000009	0.158621
C16	C	0.548623	0.000009	0.156641
C17	C	0.444298	0.000011	0.154148
C18	C	1.090203	-0.656143	0.157647
C19	C	1.090194	-0.544492	0.157645
C20	C	1.090192	-0.455501	0.157637
C21	C	1.090182	-0.343843	0.157632
C22	C	1.258762	0.000005	0.149712
C23	C	1.361152	0.000011	0.152168
C24	C	1.095883	-0.000003	-0.049852
C25	C	1.093429	-0.000002	-0.175851
N26	N	1.090217	0.254859	0.157646
C27	C	1.091435	0.000001	-0.278177
C28	C	1.088942	0.000010	-0.406550
C29	C	1.084507	0.000012	0.365131
C30	C	1.086961	0.000018	0.491131
