data_functionalizedCrystal
_audit_creation_method	'MofGen! by Chris Wilmer'
_symmetry_space_group_name_H-M	'P1'
_symmetry_Int_Tables_number	1
_symmetry_cell_setting	triclinic
loop_
_symmetry_equiv_pos_as_xyz
  x,y,z
_cell_length_a	12.759401
_cell_length_b	29.839131
_cell_length_c	12.759393
_cell_angle_alpha	89.962110
_cell_angle_beta	89.981504
_cell_angle_gamma	90.041581
loop_
_atom_site_label
_atom_site_type_symbol
_atom_site_fract_x
_atom_site_fract_y
_atom_site_fract_z
Zn1	Zn	1.606060	-0.178825	-0.593935
Zn2	Zn	1.605873	-0.253963	-0.418236
Zn3	Zn	1.430362	-0.178848	-0.418275
Zn4	Zn	1.430269	-0.253929	-0.593877
O5	O	1.518141	-0.216391	-0.506081
O6	O	1.753056	-0.188797	-0.570636
O7	O	1.582551	-0.244024	-0.271220
O8	O	1.453787	-0.115978	-0.441617
O9	O	1.752919	-0.244001	-0.441551
O10	O	1.582871	-0.115961	-0.570674
O11	O	1.453605	-0.188837	-0.271248
O12	O	1.283329	-0.188803	-0.441561
O13	O	1.453628	-0.243942	-0.740906
O14	O	1.283260	-0.243965	-0.570575
O15	O	1.582781	-0.188763	-0.740949
O16	O	1.582461	-0.316826	-0.441495
O17	O	1.453446	-0.316801	-0.570538
C18	C	1.245174	-0.216383	-0.506066
C19	C	1.128397	-0.216390	-0.506085
C20	C	1.073527	-0.245159	-0.573152
C21	C	0.963803	-0.245165	-0.573163
C22	C	0.963829	-0.187632	-0.439032
C23	C	1.073551	-0.187624	-0.439027
C24	C	1.073511	-0.278376	-0.650588
C25	C	0.963787	-0.278382	-0.650600
C26	C	1.517951	-0.333114	-0.506029
C27	C	1.517966	-0.383048	-0.506041
C28	C	1.585441	-0.692692	-0.438986
C29	C	1.585571	-0.880365	-0.439027
O30	O	1.642790	-0.904631	-0.381974
N31	N	1.518359	-0.903833	-0.506160
C32	C	1.451114	-0.880380	-0.573292
O33	O	1.393957	-0.904648	-0.630402
C34	C	1.450991	-0.692708	-0.573256
C35	C	1.518200	-0.669243	-0.506111
C36	C	1.652646	-0.669227	-0.371848
C37	C	1.652609	-0.622311	-0.371834
C38	C	1.585367	-0.598861	-0.438959
C39	C	1.518163	-0.622327	-0.506098
C40	C	1.383752	-0.669256	-0.640393
C41	C	1.383729	-0.622335	-0.640380
C42	C	1.450938	-0.598869	-0.573235
C43	C	1.450884	-0.551962	-0.573209
N44	N	1.518096	-0.528494	-0.506076
C45	C	1.585338	-0.551944	-0.438951
C46	C	1.451183	-0.978911	-0.573305
C47	C	1.451212	-1.025829	-0.573313
C48	C	1.585670	-1.025811	-0.439049
C49	C	1.585635	-0.978892	-0.439036
C50	C	1.518395	-0.955443	-0.506172
C51	C	1.585254	-0.453418	-0.438927
C52	C	1.585208	-0.406498	-0.438916
C53	C	1.450754	-0.406521	-0.573184
C54	C	1.450796	-0.453436	-0.573191
C55	C	1.518054	-0.476884	-0.506059
O56	O	1.393703	-0.527668	-0.630240
O57	O	1.642503	-0.527668	-0.381867
C58	C	1.585479	-0.739608	-0.439000
C59	C	1.518274	-0.763073	-0.506138
C60	C	1.451033	-0.739624	-0.573263
C61	C	1.518304	-0.809991	-0.506146
C62	C	1.585545	-0.833441	-0.439021
C63	C	1.652757	-0.809973	-0.371888
C64	C	1.652720	-0.763058	-0.371875
C65	C	1.383820	-0.763092	-0.640396
C66	C	1.383862	-0.810007	-0.640404
C67	C	1.451104	-0.833457	-0.573279
C68	C	1.792174	-0.216400	-0.506096
C69	C	1.908951	-0.216404	-0.506102
C70	C	1.518215	-0.216346	-0.780114
C71	C	1.518246	-0.216327	-0.896891
C72	C	1.518360	-0.099213	-0.506156
C73	C	1.518454	-0.049279	-0.506188
C74	C	1.585505	-0.187593	-0.951777
C75	C	1.585530	-0.187576	-1.061501
C76	C	1.451034	-0.245032	-1.061444
C77	C	1.451004	-0.245046	-0.951722
C78	C	1.663159	-0.154422	-0.951811
C79	C	1.663184	-0.154406	-1.061535
C80	C	1.518128	-0.216404	-0.233113
C81	C	1.518301	-0.216297	-0.116337
H82	H	0.929803	-0.265962	-0.727955
H83	H	1.329123	-0.829109	-0.695080
H84	H	1.396286	-0.268414	-1.106100
C85	C	1.377992	-0.478975	-0.646143
C86	C	1.437467	-0.505866	-0.713527
C87	C	1.370442	-0.529400	-0.780741
H88	H	1.337911	-0.458340	-0.686216
H89	H	1.332270	-0.497340	-0.605949
H90	H	1.483169	-0.487503	-0.753716
H91	H	1.477545	-0.526509	-0.673482
H92	H	1.324721	-0.547765	-0.740548
H93	H	1.330365	-0.508762	-0.820808
H94	H	1.410785	-0.547652	-0.826463
C95	C	1.766173	-0.171122	-0.906557
C96	C	1.784334	-0.215036	-0.940581
C97	C	1.879226	-0.230433	-0.898926
H98	H	1.762718	-0.170601	-0.832201
H99	H	1.821685	-0.152300	-0.929598
H100	H	1.728836	-0.233853	-0.917534
H101	H	1.787810	-0.215569	-1.014931
H102	H	1.934738	-0.211611	-0.921967
H103	H	1.875762	-0.229910	-0.824571
H104	H	1.891565	-0.260229	-0.922013
C105	C	1.113338	-0.266096	-0.759170
C106	C	1.174195	-0.301284	-0.798616
C107	C	1.210888	-0.289991	-0.898641
H108	H	1.154801	-0.239706	-0.754995
H109	H	1.055475	-0.260965	-0.804447
H110	H	1.232050	-0.306410	-0.753350
H111	H	1.132754	-0.327678	-0.802817
H112	H	1.153025	-0.284860	-0.943919
H113	H	1.252347	-0.263601	-0.894456
H114	H	1.252175	-0.313866	-0.925422
C115	C	1.771570	-0.166890	-1.101403
C116	C	1.764690	-0.205791	-1.162323
C117	C	1.864506	-0.217299	-1.199082
H118	H	1.816848	-0.172115	-1.043599
H119	H	1.798661	-0.143085	-1.142838
H120	H	1.737613	-0.229591	-1.120890
H121	H	1.719431	-0.200577	-1.220142
H122	H	1.891597	-0.193493	-1.240516
H123	H	1.909776	-0.222521	-1.141272
H124	H	1.859850	-0.243691	-1.240427
C125	C	0.924202	-0.324786	-0.621269
C126	C	1.009682	-0.353164	-0.603317
C127	C	0.973257	-0.395911	-0.576284
H128	H	0.882874	-0.336436	-0.676859
H129	H	0.882847	-0.322883	-0.559502
H130	H	1.051019	-0.355069	-0.665077
H131	H	1.051018	-0.341529	-0.547723
H132	H	0.931903	-0.394008	-0.514516
H133	H	0.931930	-0.407556	-0.631877
H134	H	1.031249	-0.415170	-0.564090
H135	H	1.634107	-0.121348	-1.095591
C136	C	1.634106	-0.108010	-0.912341
C137	C	1.616364	-0.079606	-0.997892
C138	C	1.589584	-0.036851	-0.961573
H139	H	1.689751	-0.096398	-0.871018
H140	H	1.572310	-0.109887	-0.871007
H141	H	1.678152	-0.077727	-1.039209
H142	H	1.560714	-0.091203	-1.039224
H143	H	1.527788	-0.038728	-0.920239
H144	H	1.645233	-0.025244	-0.920249
H145	H	1.577533	-0.017575	-1.019613
H146	H	1.640422	-1.044911	-0.384393
H147	H	1.707448	-0.743955	-0.317199
H148	H	1.639938	-0.387394	-0.384235
H149	H	1.118222	-0.164195	-0.384422
C150	C	1.658435	-0.953393	-0.366012
C151	C	1.598972	-0.926512	-0.298596
C152	C	1.666003	-0.903023	-0.231301
H153	H	1.704205	-0.935023	-0.406113
H154	H	1.698463	-0.974068	-0.325975
H155	H	1.558963	-0.905839	-0.338628
H156	H	1.553206	-0.944871	-0.258471
H157	H	1.706031	-0.923698	-0.191264
H158	H	1.711769	-0.884655	-0.271411
H159	H	1.625667	-0.884785	-0.185545
C160	C	1.378193	-1.051222	-0.646321
C161	C	1.319325	-1.020637	-0.705120
C162	C	1.252062	-1.044011	-0.772402
H163	H	1.332352	-1.069559	-0.606218
H164	H	1.418345	-1.069482	-0.692195
H165	H	1.279176	-1.002385	-0.659251
H166	H	1.365138	-1.002299	-0.745244
H167	H	1.292214	-1.062271	-0.818277
H168	H	1.206229	-1.062347	-0.732291
H169	H	1.212120	-1.023263	-0.812312
H170	H	1.328975	-0.603245	-0.695053
H171	H	1.707505	-0.829074	-0.317230
H172	H	1.396232	-0.268443	-0.907038
C173	C	0.904090	-0.156455	-0.366258
C174	C	0.796255	-0.162626	-0.380597
C175	C	0.741193	-0.133920	-0.313561
H176	H	0.921990	-0.126258	-0.381690
H177	H	0.921976	-0.163000	-0.295617
H178	H	0.778375	-0.156078	-0.451222
H179	H	0.778323	-0.192818	-0.365157
H180	H	0.759080	-0.140465	-0.242919
H181	H	0.759102	-0.103724	-0.328999
H182	H	0.668022	-0.138106	-0.323273
H183	H	1.107489	-0.311410	-0.621295
H184	H	1.707408	-0.688315	-0.317186
H185	H	1.707339	-0.603208	-0.317162
C186	C	1.658312	-0.478790	-0.365921
C187	C	1.717130	-0.448190	-0.307109
C188	C	1.784425	-0.471545	-0.239831
H189	H	1.704181	-0.497061	-0.406028
H190	H	1.618184	-0.497115	-0.320055
H191	H	1.757255	-0.429872	-0.352969
H192	H	1.671288	-0.429918	-0.266980
H193	H	1.744297	-0.489870	-0.193964
H194	H	1.830288	-0.489815	-0.279946
H195	H	1.824334	-0.450787	-0.199911
C196	C	1.378340	-0.953433	-0.646325
C197	C	1.437759	-0.926459	-0.713743
C198	C	1.370688	-0.902990	-0.781029
H199	H	1.332548	-0.935126	-0.606217
H200	H	1.338338	-0.974120	-0.686361
H201	H	1.477743	-0.905775	-0.673712
H202	H	1.483547	-0.944755	-0.753874
H203	H	1.330686	-0.923677	-0.821064
H204	H	1.324900	-0.884686	-0.740912
H205	H	1.410994	-0.884689	-0.826786
C206	C	1.377869	-0.380974	-0.646023
C207	C	1.392254	-0.334864	-0.631655
C208	C	1.325146	-0.311316	-0.698753
H209	H	1.307245	-0.388642	-0.630665
H210	H	1.393229	-0.388606	-0.716651
H211	H	1.376886	-0.327235	-0.561043
H212	H	1.462863	-0.327183	-0.647021
H213	H	1.340506	-0.318948	-0.769381
H214	H	1.254527	-0.318987	-0.683389
H215	H	1.334904	-0.280028	-0.689020
C216	C	1.310745	-0.694644	-0.713415
C217	C	1.251886	-0.664056	-0.772214
C218	C	1.184627	-0.687426	-0.839508
H219	H	1.264899	-0.712982	-0.673321
H220	H	1.350900	-0.712903	-0.759290
H221	H	1.211733	-0.645805	-0.726344
H222	H	1.297704	-0.645717	-0.812329
H223	H	1.224783	-0.705685	-0.885383
H224	H	1.138789	-0.705763	-0.799406
H225	H	1.144691	-0.666676	-0.879417
H226	H	1.329065	-0.744003	-0.695059
