data_functionalizedCrystal
_audit_creation_method	'MofGen! by Chris Wilmer'
_symmetry_space_group_name_H-M	'P1'
_symmetry_Int_Tables_number	1
_symmetry_cell_setting	triclinic
loop_
_symmetry_equiv_pos_as_xyz
  x,y,z
_cell_length_a	23.532407
_cell_length_b	15.995350
_cell_length_c	22.610064
_cell_angle_alpha	89.995416
_cell_angle_beta	90.000603
_cell_angle_gamma	96.829474
loop_
_atom_site_label
_atom_site_type_symbol
_atom_site_fract_x
_atom_site_fract_y
_atom_site_fract_z
O1	O	0.073400	-1.110381	0.049141
O2	O	0.406733	-0.777048	0.382474
O3	O	0.740067	-0.443714	0.715807
O4	O	0.082465	-0.866530	0.049154
O5	O	0.415798	-0.533197	0.382487
O6	O	0.749131	-0.199864	0.715820
O7	O	-0.004971	-0.995809	0.049136
O8	O	0.328362	-0.662475	0.382469
O9	O	0.661696	-0.329142	0.715803
O10	O	0.160836	-0.981102	0.049158
O11	O	0.494169	-0.647769	0.382492
O12	O	0.827502	-0.314436	0.715825
O13	O	-0.004958	-0.995786	-0.049233
O14	O	0.328375	-0.662453	0.284100
O15	O	0.661708	-0.329119	0.617433
O16	O	0.082478	-0.866507	-0.049216
O17	O	0.415811	-0.533174	0.284118
O18	O	0.749144	-0.199841	0.617451
O19	O	0.073413	-1.110358	-0.049229
O20	O	0.406746	-0.777025	0.284105
O21	O	0.740079	-0.443691	0.617438
Zn22	Zn	0.077947	-0.988429	-0.064840
Zn23	Zn	0.411280	-0.655096	0.268493
Zn24	Zn	0.744614	-0.321762	0.601826
Zn25	Zn	0.077930	-0.988459	0.064765
Zn26	Zn	0.411264	-0.655126	0.398099
Zn27	Zn	0.744597	-0.321792	0.731432
O28	O	0.160848	-0.981079	-0.049211
O29	O	0.494182	-0.647746	0.284122
O30	O	0.827515	-0.314413	0.617456
C31	C	-0.026182	-0.995423	-0.000050
C32	C	0.307151	-0.662090	0.333283
C33	C	0.640484	-0.328756	0.666616
C34	C	-0.089404	-0.994297	-0.000055
C35	C	0.243930	-0.660964	0.333279
C36	C	0.577263	-0.327630	0.666612
C37	C	0.082096	-0.835327	-0.000029
C38	C	0.415430	-0.501994	0.333304
C39	C	0.748763	-0.168660	0.666637
C40	C	0.080973	-0.742386	-0.000025
C41	C	0.414306	-0.409053	0.333308
C42	C	0.747640	-0.075719	0.666642
C43	C	0.073781	-1.141561	-0.000044
C44	C	0.407114	-0.808228	0.333289
C45	C	0.740448	-0.474894	0.666623
C46	C	0.074905	-1.234502	-0.000045
C47	C	0.408238	-0.901169	0.333289
C48	C	0.741571	-0.567835	0.666622
C49	C	-0.488239	-1.063739	-0.000026
C50	C	-0.154906	-0.730406	0.333307
C51	C	0.178427	-0.397072	0.666641
C52	C	-0.547644	-1.062693	-0.000021
C53	C	-0.214310	-0.729360	0.333312
C54	C	0.119023	-0.396026	0.666645
O55	O	-0.584141	-1.127067	-0.000003
O56	O	-0.250807	-0.793733	0.333330
O57	O	0.082526	-0.460400	0.666664
N58	N	-0.570566	-0.985837	-0.000018
N59	N	-0.237232	-0.652504	0.333316
N60	N	0.096101	-0.319170	0.666649
C61	C	-0.534080	-0.910022	-0.000013
C62	C	-0.200746	-0.576689	0.333321
C63	C	0.132587	-0.243355	0.666654
O64	O	-0.559031	-0.844554	-0.000009
O65	O	-0.225698	-0.511220	0.333325
O66	O	0.107635	-0.177887	0.666658
C67	C	-0.474677	-0.911069	-0.000013
C68	C	-0.141343	-0.577735	0.333320
C69	C	0.191990	-0.244402	0.666654
C70	C	-0.451758	-0.987930	-0.000023
C71	C	-0.118425	-0.654597	0.333311
C72	C	0.214908	-0.321263	0.666644
C73	C	-0.465320	-1.140594	-0.000035
C74	C	-0.131987	-0.807261	0.333298
C75	C	0.201346	-0.473927	0.666632
C76	C	-0.405920	-1.141640	-0.000041
C77	C	-0.072587	-0.808306	0.333293
C78	C	0.260746	-0.474973	0.666626
C79	C	-0.369439	-1.065830	-0.000037
C80	C	-0.036106	-0.732497	0.333296
C81	C	0.297228	-0.399164	0.666629
C82	C	-0.392358	-0.988975	-0.000028
C83	C	-0.059025	-0.655642	0.333305
C84	C	0.274309	-0.322309	0.666638
C85	C	-0.438192	-0.835255	-0.000004
C86	C	-0.104859	-0.501921	0.333330
C87	C	0.228475	-0.168588	0.666663
C88	C	-0.378785	-0.836308	-0.000003
C89	C	-0.045452	-0.502975	0.333330
C90	C	0.287881	-0.169641	0.666663
C91	C	-0.355867	-0.913169	-0.000013
C92	C	-0.022534	-0.579836	0.333320
C93	C	0.310800	-0.246502	0.666654
C94	C	-0.296477	-0.914212	-0.000031
C95	C	0.036857	-0.580878	0.333303
C96	C	0.370190	-0.247545	0.666636
N97	N	-0.273555	-0.991068	-0.000034
N98	N	0.059779	-0.657735	0.333299
N99	N	0.393112	-0.324401	0.666632
C100	C	-0.310036	-1.066877	-0.000038
C101	C	0.023297	-0.733544	0.333296
C102	C	0.356631	-0.400211	0.666629
C103	C	-0.658831	-0.907829	-0.000011
C104	C	-0.325497	-0.574496	0.333322
C105	C	0.007836	-0.241163	0.666656
C106	C	-0.718233	-0.906781	-0.000015
C107	C	-0.384899	-0.573448	0.333318
C108	C	-0.051566	-0.240115	0.666652
C109	C	-0.731793	-1.059453	-0.000023
C110	C	-0.398459	-0.726120	0.333311
C111	C	-0.065126	-0.392786	0.666644
C112	C	-0.672389	-1.060500	-0.000023
C113	C	-0.339056	-0.727167	0.333311
C114	C	-0.005723	-0.393833	0.666644
C115	C	-0.635909	-0.984685	-0.000015
C116	C	-0.302575	-0.651352	0.333319
C117	C	0.030758	-0.318019	0.666652
C118	C	-0.185291	-1.069067	-0.000050
C119	C	0.148043	-0.735734	0.333283
C120	C	0.481376	-0.402401	0.666617
C121	C	-0.125885	-1.070106	-0.000058
C122	C	0.207449	-0.736773	0.333275
C123	C	0.540782	-0.403440	0.666609
C124	C	-0.112330	-0.917435	-0.000047
C125	C	0.221003	-0.584102	0.333286
C126	C	0.554337	-0.250768	0.666619
C127	C	-0.171731	-0.916396	-0.000042
C128	C	0.161602	-0.583062	0.333291
C129	C	0.494936	-0.249729	0.666624
C130	C	-0.208210	-0.992219	-0.000042
C131	C	0.125123	-0.658885	0.333292
C132	C	0.458456	-0.325552	0.666625
O133	O	-0.259945	-0.849872	-0.000047
O134	O	0.073388	-0.516539	0.333287
O135	O	0.406722	-0.183205	0.666620
O136	O	-0.285076	-1.132335	-0.000034
O137	O	0.048257	-0.799001	0.333299
O138	O	0.381591	-0.465668	0.666633
C139	C	0.182060	-0.981465	-0.000023
C140	C	0.515393	-0.648132	0.333310
C141	C	0.848726	-0.314799	0.666643
C142	C	0.245281	-0.982591	-0.000015
C143	C	0.578614	-0.649258	0.333318
C144	C	0.911948	-0.315925	0.666652
N145	N	0.077958	-0.988415	-0.153293
N146	N	0.411292	-0.655081	0.180041
N147	N	0.744625	-0.321748	0.513374
C148	C	0.076938	-0.404672	-0.000038
C149	C	0.410271	-0.071339	0.333295
C150	C	0.743605	0.261995	0.666629
C151	C	0.014668	-0.452624	-0.000266
C152	C	0.348001	-0.119291	0.333068
C153	C	0.681335	0.214043	0.666401
C154	C	0.015792	-0.549305	-0.000040
C155	C	0.349125	-0.215972	0.333294
C156	C	0.682458	0.117362	0.666627
C157	C	0.078939	-0.572216	-0.000032
C158	C	0.412273	-0.238883	0.333301
C159	C	0.745606	0.094451	0.666635
C160	C	0.109646	-0.530886	0.056144
C161	C	0.442979	-0.197553	0.389477
C162	C	0.776313	0.135780	0.722810
C163	C	0.108082	-0.434264	0.056186
C164	C	0.441415	-0.100930	0.389520
C165	C	0.774748	0.232403	0.722853
C166	C	0.109383	-0.433888	-0.055678
C167	C	0.442716	-0.100555	0.277656
C168	C	0.776049	0.232778	0.610989
C169	C	0.109368	-0.530834	-0.056416
C170	C	0.442701	-0.197500	0.276917
C171	C	0.776035	0.135833	0.610251
C172	C	0.080074	-0.666904	-0.000026
C173	C	0.413407	-0.333571	0.333307
C174	C	0.746740	-0.000237	0.666640
C175	C	0.075805	-0.309984	-0.000039
C176	C	0.409139	0.023350	0.333294
C177	C	0.742472	0.356683	0.666627
C178	C	0.039220	-1.045706	-0.561942
C179	C	0.372553	-0.712373	-0.228609
C180	C	0.705886	-0.379040	0.104725
C181	C	0.039216	-1.045711	-0.623862
C182	C	0.372549	-0.712377	-0.290529
C183	C	0.705882	-0.379044	0.042805
O184	O	0.006287	-1.094386	-0.655887
O185	O	0.339620	-0.761053	-0.322554
O186	O	0.672954	-0.427720	0.010779
N187	N	0.077918	-0.988459	-0.654830
N188	N	0.411252	-0.655125	-0.321497
N189	N	0.744585	-0.321792	0.011837
C190	C	0.116624	-0.931193	-0.623875
C191	C	0.449958	-0.597860	-0.290541
C192	C	0.783291	-0.264526	0.042792
O193	O	0.149543	-0.882495	-0.655901
O194	O	0.482877	-0.549162	-0.322568
O195	O	0.816210	-0.215829	0.010765
C196	C	0.116625	-0.931185	-0.561956
C197	C	0.449958	-0.597852	-0.228623
C198	C	0.783292	-0.264519	0.104711
C199	C	0.077924	-0.988447	-0.530991
C200	C	0.411257	-0.655113	-0.197658
C201	C	0.744590	-0.321780	0.135675
C202	C	0.000521	-1.102962	-0.530977
C203	C	0.333854	-0.769629	-0.197644
C204	C	0.667187	-0.436296	0.135690
C205	C	0.000526	-1.102959	-0.469061
C206	C	0.333859	-0.769626	-0.135728
C207	C	0.667192	-0.436292	0.197605
C208	C	0.039230	-1.045699	-0.438111
C209	C	0.372563	-0.712366	-0.104777
C210	C	0.705896	-0.379033	0.228556
C211	C	0.077929	-0.988443	-0.469076
C212	C	0.411262	-0.655110	-0.135742
C213	C	0.744595	-0.321776	0.197591
C214	C	0.155328	-0.873916	-0.531002
C215	C	0.488661	-0.540583	-0.197669
C216	C	0.821994	-0.207250	0.135665
C217	C	0.155325	-0.873913	-0.469079
C218	C	0.488658	-0.540580	-0.135746
C219	C	0.821992	-0.207246	0.197588
C220	C	0.116623	-0.931175	-0.438114
C221	C	0.449957	-0.597841	-0.104781
C222	C	0.783290	-0.264508	0.228552
C223	C	0.116637	-0.931180	-0.376209
C224	C	0.449971	-0.597847	-0.042876
C225	C	0.783304	-0.264513	0.290458
N226	N	0.077934	-0.988432	-0.345241
N227	N	0.411268	-0.655099	-0.011908
N228	N	0.744601	-0.321765	0.321426
C229	C	0.039231	-1.045692	-0.376192
C230	C	0.372564	-0.712358	-0.042859
C231	C	0.705897	-0.379025	0.290475
C232	C	0.116619	-0.931212	-0.753908
C233	C	0.449952	-0.597879	-0.420575
C234	C	0.783285	-0.264546	-0.087242
C235	C	0.116621	-0.931223	-0.815826
C236	C	0.449954	-0.597890	-0.482493
C237	C	0.783288	-0.264556	-0.149159
C238	C	0.039211	-1.045740	-0.815809
C239	C	0.372545	-0.712407	-0.482476
C240	C	0.705878	-0.379073	-0.149142
C241	C	0.039212	-1.045732	-0.753890
C242	C	0.372546	-0.712399	-0.420557
C243	C	0.705879	-0.379066	-0.087223
C244	C	0.077916	-0.988464	-0.722940
C245	C	0.411249	-0.655131	-0.389607
C246	C	0.744582	-0.321798	-0.056274
C247	C	0.039244	-1.045680	-0.246165
C248	C	0.372578	-0.712347	0.087169
C249	C	0.705911	-0.379014	0.420502
C250	C	0.039254	-1.045674	-0.184243
C251	C	0.372588	-0.712341	0.149090
C252	C	0.705921	-0.379008	0.482423
C253	C	0.116662	-0.931155	-0.184266
C254	C	0.449995	-0.597821	0.149067
C255	C	0.783328	-0.264488	0.482401
C256	C	0.116654	-0.931164	-0.246182
C257	C	0.449987	-0.597830	0.087152
C258	C	0.783321	-0.264497	0.420485
C259	C	0.077940	-0.988430	-0.277130
C260	C	0.411274	-0.655096	0.056204
C261	C	0.744607	-0.321763	0.389537
O262	O	0.149548	-0.882527	-0.344144
O263	O	0.482881	-0.549194	-0.010811
O264	O	0.816214	-0.215860	0.322522
O265	O	0.006312	-1.094374	-0.344158
O266	O	0.339645	-0.761040	-0.010825
O267	O	0.672979	-0.427707	0.322509
N268	N	0.077915	-0.988480	0.153218
N269	N	0.411248	-0.655147	0.486551
N270	N	0.744581	-0.321814	0.819884
H271	H	-0.107228	-1.132698	-0.000067
H272	H	0.226105	-0.799365	0.333266
H273	H	0.559438	-0.466032	0.666599
Br274	Br	-0.749328	-0.802466	-0.000016
Br275	Br	-0.415995	-0.469133	0.333318
Br276	Br	-0.082662	-0.135799	0.666651
H277	H	0.007720	-1.092311	-0.271355
H278	H	0.341053	-0.758977	0.061978
H279	H	0.674386	-0.425644	0.395311
Br280	Br	0.207853	-0.796201	-0.573013
Br281	Br	0.541187	-0.462867	-0.239680
Br282	Br	0.874520	-0.129534	0.093654
Br283	Br	0.169156	-0.853522	-0.857843
Br284	Br	0.502489	-0.520189	-0.524509
Br285	Br	0.835822	-0.186856	-0.191176
H286	H	-0.629131	-0.846088	-0.000009
H287	H	-0.295797	-0.512755	0.333324
H288	H	0.037536	-0.179421	0.666657
H289	H	-0.214986	-1.130810	-0.000047
H290	H	0.118347	-0.797476	0.333286
H291	H	0.451681	-0.464143	0.666620
Br292	Br	0.070742	-0.404070	0.126167
Br293	Br	0.404075	-0.070737	0.459500
Br294	Br	0.737409	0.262597	0.792833
Br295	Br	-0.024547	-0.596060	0.067302
Br296	Br	0.308786	-0.262727	0.400635
Br297	Br	0.642119	0.070606	0.733969
H298	H	-0.387266	-1.204228	-0.000046
H299	H	-0.053933	-0.870894	0.333287
H300	H	0.279401	-0.537561	0.666621
H301	H	0.186842	-0.827276	-0.443883
H302	H	0.520175	-0.493942	-0.110549
H303	H	0.853508	-0.160609	0.222784
Br304	Br	0.185905	-0.380317	-0.056302
Br305	Br	0.519238	-0.046984	0.277032
Br306	Br	0.852571	0.286349	0.610365
Br307	Br	0.074084	-0.578487	0.125818
Br308	Br	0.407417	-0.245153	0.459151
Br309	Br	0.740750	0.088180	0.792484
Br310	Br	-0.013270	-1.123394	-0.142223
Br311	Br	0.320063	-0.790061	0.191111
Br312	Br	0.653396	-0.456728	0.524444
H313	H	-0.030990	-1.149584	-0.443854
H314	H	0.302343	-0.816250	-0.110520
H315	H	0.635677	-0.482917	0.222813
H316	H	-0.030999	-1.149590	-0.556172
H317	H	0.302334	-0.816257	-0.222838
H318	H	0.635667	-0.482923	0.110495
H319	H	0.153799	-0.401636	0.058741
H320	H	0.487132	-0.068302	0.392075
H321	H	0.820466	0.265031	0.725408
Br322	Br	-0.013313	-1.123447	-0.711873
Br323	Br	0.320020	-0.790114	-0.378540
Br324	Br	0.653353	-0.456780	-0.045207
Br325	Br	0.186965	-0.553810	0.059651
Br326	Br	0.520298	-0.220477	0.392984
Br327	Br	0.853632	0.112856	0.726318
Br328	Br	-0.514821	-1.243493	-0.000039
Br329	Br	-0.181487	-0.910159	0.333294
Br330	Br	0.151846	-0.576826	0.666628
Br331	Br	-0.013316	-1.123450	-0.857827
Br332	Br	0.320018	-0.790116	-0.524493
Br333	Br	0.653351	-0.456783	-0.191160
Br334	Br	0.075460	-0.399932	-0.126647
Br335	Br	0.408793	-0.066599	0.206686
Br336	Br	0.742127	0.266735	0.540020
H337	H	-0.653734	-1.123087	-0.000030
H338	H	-0.320400	-0.789754	0.333303
H339	H	0.012933	-0.456420	0.666636
H340	H	0.148140	-0.884580	-0.728712
H341	H	0.481474	-0.551246	-0.395379
H342	H	0.814807	-0.217913	-0.062045
H343	H	0.148174	-0.884544	-0.271394
H344	H	0.481507	-0.551211	0.061940
H345	H	0.814840	-0.217878	0.395273
H346	H	-0.010218	-0.434300	-0.040552
H347	H	0.323115	-0.100966	0.292782
H348	H	0.656449	0.232367	0.626115
Br349	Br	0.169188	-0.853450	-0.142252
Br350	Br	0.502522	-0.520117	0.191082
Br351	Br	0.835855	-0.186783	0.524415
H352	H	-0.761507	-1.121181	-0.000023
H353	H	-0.428173	-0.787848	0.333310
H354	H	-0.094840	-0.454514	0.666644
H355	H	-0.456841	-0.772666	0.000008
H356	H	-0.123508	-0.439333	0.333341
H357	H	0.209826	-0.106000	0.666675
Br358	Br	0.071943	-0.576541	-0.125683
Br359	Br	0.405277	-0.243207	0.207650
Br360	Br	0.738610	0.090126	0.540983
Br361	Br	-0.329279	-0.733411	0.000010
Br362	Br	0.004055	-0.400077	0.333344
Br363	Br	0.337388	-0.066744	0.666677
H364	H	-0.190392	-0.853809	-0.000051
H365	H	0.142942	-0.520476	0.333282
H366	H	0.476275	-0.187143	0.666616
H367	H	-0.082617	-0.855713	-0.000047
H368	H	0.250717	-0.522380	0.333287
H369	H	0.584050	-0.189047	0.666620
H370	H	-0.008346	-0.577925	-0.040309
H371	H	0.324987	-0.244592	0.293024
H372	H	0.658321	0.088741	0.626358
H373	H	-0.010114	-0.433246	0.039791
H374	H	0.323220	-0.099912	0.373125
H375	H	0.656553	0.233421	0.706458
H376	H	0.155418	-0.545815	-0.059803
H377	H	0.488751	-0.212482	0.273530
H378	H	0.822084	0.120852	0.606864
