data_functionalizedCrystal
_audit_creation_method	'MofGen! by Chris Wilmer'
_symmetry_space_group_name_H-M	'P1'
_symmetry_Int_Tables_number	1
_symmetry_cell_setting	triclinic
loop_
_symmetry_equiv_pos_as_xyz
  x,y,z
_cell_length_a	17.019372
_cell_length_b	17.038272
_cell_length_c	15.500237
_cell_angle_alpha	93.033514
_cell_angle_beta	91.029213
_cell_angle_gamma	87.242864
loop_
_atom_site_label
_atom_site_type_symbol
_atom_site_fract_x
_atom_site_fract_y
_atom_site_fract_z
O1	O	1.053042	0.099898	0.006440
O2	O	0.825041	0.111748	-0.010534
O3	O	0.937686	-0.007996	-0.002141
O4	O	0.940397	0.219642	-0.001953
O5	O	0.930847	-0.000757	0.141238
O6	O	0.818202	0.118986	0.132845
O7	O	1.046203	0.107137	0.149819
Cu8	Cu	0.931578	0.113723	0.154424
Cu9	Cu	0.939666	0.105162	-0.015139
O10	O	0.933558	0.226881	0.141426
C11	C	0.792304	0.114776	0.058973
C12	C	0.704948	0.113006	0.052470
C13	C	0.211070	0.102765	0.011712
C14	C	0.293150	0.104429	0.017834
C15	C	0.330454	0.109213	0.099052
C16	C	0.285674	0.112325	0.174152
C17	C	0.203596	0.110655	0.168030
C18	C	0.578090	0.114447	0.121448
C19	C	0.660174	0.116119	0.127565
C20	C	0.667644	0.108223	-0.028754
C21	C	0.585564	0.106558	-0.034869
C22	C	0.540792	0.109665	0.040231
C23	C	0.414353	0.110917	0.105311
C24	C	0.456895	0.107956	0.033971
C25	C	0.931802	-0.033512	0.069365
C26	C	0.924447	-0.120326	0.068817
C27	C	0.991967	-0.170246	0.073845
C28	C	0.985053	-0.251817	0.073322
C29	C	0.910618	-0.283466	0.067777
C30	C	0.843093	-0.233539	0.062747
C31	C	0.850008	-0.151970	0.063264
C32	C	0.886187	-0.529294	0.065947
C33	C	0.879277	-0.610869	0.065433
C34	C	1.021238	-0.629142	0.076006
C35	C	1.028146	-0.547570	0.076528
C36	C	0.960622	-0.497651	0.071493
C37	C	0.903548	-0.366844	0.067245
C38	C	0.967692	-0.414275	0.072018
C39	C	1.078940	0.104109	0.080310
C40	C	1.166296	0.105879	0.086807
C41	C	0.939442	0.252397	0.069918
C42	C	0.946797	0.339210	0.070460
N43	N	0.925896	0.119743	0.273685
C44	C	0.973646	0.069022	0.322520
C45	C	0.969357	0.073583	0.412773
C46	C	0.917320	0.128868	0.454190
C47	C	0.869564	0.179591	0.405349
C48	C	0.873850	0.175026	0.315098
C49	C	0.901878	0.145298	0.726507
C50	C	0.897597	0.149861	0.816765
C51	C	0.997389	0.043851	0.824183
C52	C	1.001674	0.039295	0.733929
C53	C	0.953916	0.090015	0.685096
C54	C	0.912936	0.133532	0.546444
C55	C	0.958296	0.085346	0.592844
N56	N	0.945348	0.099140	0.865600
H57	H	0.690544	0.120020	0.193706
C58	C	1.099875	-0.065041	0.750329
C59	C	1.058870	-0.021481	0.688405
H60	H	1.135183	-0.102563	0.722222
H61	H	1.128650	-0.030621	0.787781
H62	H	1.063599	-0.091492	0.782971
H63	H	1.095146	0.004974	0.655768
H64	H	1.030093	-0.055907	0.650938
C65	C	0.102601	0.180512	0.251496
C66	C	0.154375	0.114078	0.250575
H67	H	0.072212	0.182618	0.302455
H68	H	0.131825	0.226549	0.250418
H69	H	0.068644	0.177415	0.202245
H70	H	0.188336	0.117178	0.299823
H71	H	0.125148	0.068029	0.251662
C72	C	0.463063	0.100499	-0.113661
C73	C	0.544561	0.101301	-0.124146
H74	H	0.437750	0.097261	-0.168778
H75	H	0.451029	0.056292	-0.082335
H76	H	0.445137	0.147407	-0.082770
H77	H	0.562488	0.054390	-0.155031
H78	H	0.556601	0.145512	-0.155486
H79	H	0.704107	0.105692	-0.089896
H80	H	0.862993	0.186598	0.686754
H81	H	1.040035	-0.292459	0.077417
H82	H	0.541647	0.116966	0.182601
C83	C	0.408175	0.118400	0.252948
C84	C	0.326677	0.117586	0.263429
H85	H	0.433484	0.121655	0.308066
H86	H	0.426108	0.071497	0.222070
H87	H	0.420202	0.162610	0.221609
H88	H	0.314649	0.073372	0.294763
H89	H	0.308737	0.164494	0.294320
H90	H	1.000662	0.040330	0.559119
H91	H	0.834966	0.216327	0.275337
C92	C	0.802295	0.155291	0.640098
C93	C	0.855744	0.194304	0.591980
H94	H	0.766990	0.192810	0.668217
H95	H	0.773516	0.120885	0.602634
H96	H	0.830131	0.125731	0.682089
H97	H	0.827907	0.223860	0.549985
H98	H	0.884525	0.228725	0.629447
H99	H	0.818660	-0.636633	0.060932
H100	H	0.795026	-0.111325	0.059170
H101	H	0.426519	0.104058	-0.032156
H102	H	0.855220	0.194884	0.850483
C103	C	1.070361	0.062101	0.522132
C104	C	1.021846	0.017836	0.466460
H105	H	1.102762	0.027683	0.555280
H106	H	1.102477	0.092955	0.489177
H107	H	1.038743	0.095676	0.559705
H108	H	1.053465	-0.015735	0.428882
H109	H	0.989727	-0.013032	0.499418
C110	C	0.226707	0.095123	-0.142185
C111	C	0.170070	0.097508	-0.077566
H112	H	0.201396	0.091872	-0.197302
H113	H	0.255615	0.141492	-0.136771
H114	H	0.261515	0.050379	-0.136314
H115	H	0.135265	0.142256	-0.083434
H116	H	0.141149	0.051134	-0.082983
H117	H	1.088759	-0.521808	0.081042
H118	H	0.444735	0.114813	0.171439
H119	H	1.076212	-0.669794	0.080103
H120	H	0.827191	0.224603	0.439076
H121	H	0.329602	0.101889	-0.043316
C122	C	1.061332	-0.336857	0.005029
C123	C	1.049509	-0.379486	0.078113
H124	H	1.111841	-0.315371	0.008799
H125	H	1.058081	-0.370822	-0.045381
H126	H	1.022099	-0.295459	0.002114
H127	H	1.088739	-0.420888	0.081025
H128	H	1.052767	-0.345519	0.128537
H129	H	0.831204	-0.488659	0.061847
H130	H	0.782487	-0.259314	0.058227
C131	C	1.131593	-0.196510	0.084228
C132	C	1.073790	-0.135462	0.079933
H133	H	1.182108	-0.175036	0.087979
H134	H	1.123562	-0.225420	0.133805
H135	H	1.128318	-0.230467	0.033805
H136	H	1.077062	-0.101508	0.130360
H137	H	1.081824	-0.106539	0.030351
H138	H	1.016024	0.024007	0.288804
C139	C	0.816941	-0.451699	-0.013164
C140	C	0.821731	-0.401639	0.061160
H141	H	0.766432	-0.473186	-0.016916
H142	H	0.824960	-0.422775	-0.062733
H143	H	0.856174	-0.493096	-0.010238
H144	H	0.782501	-0.360239	0.058232
H145	H	0.813703	-0.430565	0.110742
H146	H	1.036271	0.002557	0.863951
