data_functionalizedCrystal
_audit_creation_method	'MofGen! by Chris Wilmer'
_symmetry_space_group_name_H-M	'P1'
_symmetry_Int_Tables_number	1
_symmetry_cell_setting	triclinic
loop_
_symmetry_equiv_pos_as_xyz
  x,y,z
_cell_length_a	11.792241
_cell_length_b	11.792241
_cell_length_c	10.268362
_cell_angle_alpha	90.001488
_cell_angle_beta	90.000426
_cell_angle_gamma	84.193416
loop_
_atom_site_label
_atom_site_type_symbol
_atom_site_fract_x
_atom_site_fract_y
_atom_site_fract_z
O1	O	1.506910	0.155562	0.108174
O2	O	1.840243	0.488895	0.441508
O3	O	2.173576	0.822229	0.774841
O4	O	1.176568	0.171595	0.108205
O5	O	1.509902	0.504928	0.441538
O6	O	1.843235	0.838262	0.774871
O7	O	1.349755	-0.001592	0.108180
O8	O	1.683089	0.331741	0.441513
O9	O	2.016422	0.665075	0.774846
O10	O	1.333723	0.328749	0.108199
O11	O	1.667056	0.662082	0.441533
O12	O	2.000389	0.995416	0.774866
O13	O	1.349739	-0.001586	-0.108421
O14	O	1.683072	0.331747	0.224912
O15	O	2.016405	0.665081	0.558246
O16	O	1.176552	0.171601	-0.108396
O17	O	1.509885	0.504934	0.224937
O18	O	1.843218	0.838268	0.558271
O19	O	1.506893	0.155568	-0.108426
O20	O	1.840226	0.488901	0.224907
O21	O	2.173560	0.822235	0.558240
Cu22	Cu	1.341721	0.163585	-0.128188
Cu23	Cu	1.675054	0.496918	0.205145
Cu24	Cu	2.008387	0.830252	0.538478
Cu25	Cu	1.341741	0.163578	0.127967
Cu26	Cu	1.675074	0.496911	0.461300
Cu27	Cu	2.008407	0.830245	0.794634
O28	O	1.333706	0.328755	-0.108401
O29	O	1.667039	0.662088	0.224932
O30	O	2.000373	0.995422	0.558265
C31	C	1.134269	0.170591	-0.000092
C32	C	1.467603	0.503924	0.333242
C33	C	1.800936	0.837258	0.666575
C34	C	1.008255	0.167576	-0.000080
C35	C	1.341589	0.500910	0.333253
C36	C	1.674922	0.834243	0.666586
C37	C	1.348740	-0.043880	-0.000120
C38	C	1.682073	0.289453	0.333213
C39	C	2.015407	0.622787	0.666546
C40	C	1.345726	-0.169894	-0.000119
C41	C	1.679059	0.163440	0.333215
C42	C	2.012392	0.496773	0.666548
C43	C	0.777543	0.162034	-0.000118
C44	C	1.110877	0.495367	0.333215
C45	C	1.444210	0.828700	0.666549
C46	C	0.905928	0.165113	-0.000097
C47	C	1.239262	0.498447	0.333236
C48	C	1.572595	0.831780	0.666569
C49	C	1.340183	-0.400606	-0.000096
C50	C	1.673516	-0.067272	0.333237
C51	C	2.006849	0.266061	0.666570
C52	C	1.343262	-0.272221	-0.000108
C53	C	1.676596	0.061113	0.333225
C54	C	2.009929	0.394446	0.666558
C55	C	1.549192	0.156572	-0.000127
C56	C	1.882525	0.489906	0.333206
C57	C	2.215859	0.823239	0.666540
C58	C	1.675206	0.159587	-0.000130
C59	C	2.008539	0.492920	0.333204
C60	C	2.341873	0.826253	0.666537
C61	C	1.334721	0.371043	-0.000099
C62	C	1.668055	0.704376	0.333235
C63	C	2.001388	1.037710	0.666568
C64	C	1.337736	0.497057	-0.000092
C65	C	1.671069	0.830390	0.333242
C66	C	2.004402	1.163723	0.666575
N67	N	1.341715	0.163589	-0.308354
N68	N	1.675049	0.496923	0.024979
N69	N	2.008382	0.830256	0.358312
C70	C	1.341724	0.163590	-0.426197
C71	C	1.675057	0.496923	-0.092863
C72	C	2.008390	0.830257	0.240470
C73	C	1.341738	0.163580	-0.574035
C74	C	1.675071	0.496913	-0.240701
C75	C	2.008404	0.830246	0.092632
N76	N	1.341755	0.163565	0.308133
N77	N	1.675088	0.496898	0.641466
N78	N	2.008422	0.830232	0.974799
