data_functionalizedCrystal
_audit_creation_method	'MofGen! by Chris Wilmer'
_symmetry_space_group_name_H-M	'P1'
_symmetry_Int_Tables_number	1
_symmetry_cell_setting	triclinic
loop_
_symmetry_equiv_pos_as_xyz
  x,y,z
_cell_length_a	10.654547
_cell_length_b	15.072220
_cell_length_c	10.654541
_cell_angle_alpha	90.009153
_cell_angle_beta	84.484992
_cell_angle_gamma	90.004628
loop_
_atom_site_label
_atom_site_type_symbol
_atom_site_fract_x
_atom_site_fract_y
_atom_site_fract_z
O1	O	1.667837	0.073797	0.176424
O2	O	1.302358	0.073796	0.193227
O3	O	1.493502	0.073791	0.002086
O4	O	1.476693	0.073802	0.367565
O5	O	1.493489	-0.073774	0.002063
O6	O	1.302345	-0.073769	0.193204
O7	O	1.667824	-0.073768	0.176401
Zn8	Zn	1.485083	-0.097198	0.184799
Zn9	Zn	1.485100	0.097226	0.184829
O10	O	1.476680	-0.073763	0.367542
C11	C	1.255554	0.000013	0.191981
C12	C	1.116111	0.000012	0.188287
N13	N	1.485080	-0.229886	0.184777
C14	C	0.854105	0.160904	0.181351
C15	C	0.919630	0.241342	0.183101
C16	C	1.050648	0.241339	0.186581
C17	C	1.116144	0.160890	0.188307
C18	C	1.050618	0.080452	0.186557
C19	C	0.919598	0.080463	0.183081
C20	C	1.050586	-0.080426	0.186538
C21	C	0.919567	-0.080425	0.183067
C22	C	1.116082	-0.160875	0.188264
C23	C	1.050555	-0.241314	0.186524
C24	C	0.919530	-0.241309	0.183045
C25	C	0.854042	-0.160863	0.181317
C26	C	1.485100	-0.589088	0.184820
C27	C	1.587715	-0.551456	0.082891
C28	C	1.587442	-0.448630	0.082509
C29	C	1.485091	-0.410884	0.184798
C30	C	1.353811	-0.448228	0.155036
C31	C	1.354417	-0.551086	0.154314
C32	C	1.512588	-0.551161	0.316804
C33	C	1.515555	-0.448296	0.315946
C34	C	1.485078	-0.310171	0.184789
C35	C	1.485105	-0.689801	0.184827
C36	C	1.714628	0.000017	0.177647
C37	C	1.854071	0.000024	0.181340
C38	C	1.492262	0.000009	-0.044724
C39	C	1.488571	0.000011	-0.184167
N40	N	1.485112	0.229915	0.184841
C41	C	1.717136	0.000000	-0.212136
C42	C	1.829679	-0.000006	-0.291629
C43	C	1.826203	-0.000004	-0.422647
C44	C	1.710172	0.000009	-0.474173
C45	C	1.597629	0.000016	-0.394680
C46	C	1.601117	0.000010	-0.263661
C47	C	1.369068	0.000032	-0.366712
C48	C	1.372540	0.000023	-0.235693
C49	C	1.253037	0.000044	-0.418238
C50	C	1.140491	0.000045	-0.338745
C51	C	1.143971	0.000041	-0.207719
C52	C	1.259997	0.000030	-0.156200
C53	C	1.477920	0.000021	0.414351
C54	C	1.481611	0.000025	0.553795
H55	H	0.747422	0.160914	0.178534
C56	C	1.639231	-0.586182	0.355071
H57	H	1.654013	-0.562501	0.434970
H58	H	1.705326	-0.568560	0.293955
H59	H	1.636474	-0.649099	0.359909
C60	C	1.564169	-0.586373	-0.048649
H61	H	1.626582	-0.563321	-0.109671
H62	H	1.483081	-0.568012	-0.068412
H63	H	1.568337	-0.649335	-0.049017
C64	C	1.321935	-0.583517	0.024237
H65	H	1.308500	-0.533830	-0.027671
H66	H	1.247598	-0.618626	0.034178
H67	H	1.389688	-0.618090	-0.014060
H68	H	1.569761	-0.424036	-0.015414
C69	C	1.719224	-0.414515	0.106664
H70	H	1.773411	-0.463519	0.116793
H71	H	1.712973	-0.379369	0.181018
H72	H	1.752604	-0.379623	0.037054
H73	H	1.262842	0.000021	-0.049520
C74	C	0.847439	-0.329790	0.181255
H75	H	0.760025	-0.318270	0.178971
H76	H	0.860011	-0.362779	0.254969
H77	H	0.877796	-0.362903	0.108740
H78	H	1.052324	0.000051	-0.143002
C79	C	1.122598	-0.329798	0.188394
H80	H	1.064814	-0.377705	0.186843
H81	H	1.164784	-0.333150	0.262845
H82	H	1.182635	-0.333134	0.116617
C83	C	1.260197	-0.160883	0.192086
H84	H	1.289818	-0.220313	0.192853
H85	H	1.280902	-0.131174	0.265985
H86	H	1.298786	-0.131180	0.119758
C87	C	1.320551	-0.413455	0.026428
H88	H	1.240936	-0.436421	0.009262
H89	H	1.383218	-0.431999	-0.037648
H90	H	1.316961	-0.350485	0.028339
H91	H	1.222827	0.160896	0.191125
C92	C	0.847583	0.329829	0.181208
H93	H	0.760167	0.318314	0.178897
H94	H	0.878004	0.362879	0.108676
H95	H	0.860118	0.362878	0.254902
C96	C	0.709926	-0.160858	0.177492
H97	H	0.680277	-0.220284	0.176705
H98	H	0.689238	-0.131148	0.103603
H99	H	0.671351	-0.131147	0.249830
C100	C	1.249205	0.000055	-0.562353
H101	H	1.163987	0.000072	-0.581652
H102	H	1.290610	-0.051405	-0.597178
H103	H	1.290637	0.051520	-0.597137
C104	C	1.411525	-0.584041	0.419294
H105	H	1.352857	-0.620705	0.381902
H106	H	1.368682	-0.534585	0.458572
H107	H	1.450690	-0.617138	0.480624
C108	C	1.706344	0.000027	-0.618289
H109	H	1.621126	0.000042	-0.637591
H110	H	1.747756	-0.051428	-0.653121
H111	H	1.747771	0.051497	-0.653062
C112	C	1.719939	-0.584858	0.106687
H113	H	1.713752	-0.622059	0.178991
H114	H	1.772662	-0.535638	0.120270
H115	H	1.754970	-0.617505	0.035481
C116	C	1.012875	0.000058	-0.395425
H117	H	1.026924	0.000058	-0.484839
H118	H	0.966494	0.051516	-0.368191
H119	H	0.966482	-0.051409	-0.368231
H120	H	1.445746	-0.422600	0.395437
C121	C	1.247855	-0.584722	0.250441
H122	H	1.204403	-0.535522	0.289778
H123	H	1.282658	-0.619796	0.312564
H124	H	1.190677	-0.619587	0.208192
H125	H	1.103998	0.306839	0.188004
H126	H	1.275564	-0.423780	0.227250
C127	C	1.720964	-0.000006	-0.068020
H128	H	1.806181	-0.000009	-0.048718
H129	H	1.679527	-0.051460	-0.033228
H130	H	1.679562	0.051465	-0.033207
C131	C	1.646019	-0.415319	0.346434
H132	H	1.681781	-0.378897	0.279528
H133	H	1.699543	-0.464745	0.356158
H134	H	1.637211	-0.381947	0.422419
H135	H	1.917846	-0.000002	-0.487371
C136	C	1.957303	-0.000024	-0.234948
H137	H	1.943260	-0.000033	-0.145533
H138	H	2.003706	0.051431	-0.262151
H139	H	2.003671	-0.051494	-0.262180
