data_functionalizedCrystal
_audit_creation_method	'MofGen! by Chris Wilmer'
_symmetry_space_group_name_H-M	'P1'
_symmetry_Int_Tables_number	1
_symmetry_cell_setting	triclinic
loop_
_symmetry_equiv_pos_as_xyz
  x,y,z
_cell_length_a	18.215407
_cell_length_b	25.639239
_cell_length_c	18.215399
_cell_angle_alpha	89.969965
_cell_angle_beta	89.980167
_cell_angle_gamma	90.039134
loop_
_atom_site_label
_atom_site_type_symbol
_atom_site_fract_x
_atom_site_fract_y
_atom_site_fract_z
Zn1	Zn	1.125001	-0.208150	-0.416105
Zn2	Zn	1.124880	-0.295586	-0.293034
Zn3	Zn	1.001934	-0.208167	-0.293053
Zn4	Zn	1.001870	-0.295557	-0.416059
O5	O	1.063421	-0.251865	-0.354563
O6	O	1.227970	-0.219754	-0.399791
O7	O	1.108547	-0.284009	-0.190052
O8	O	1.018337	-0.135000	-0.309403
O9	O	1.227880	-0.283992	-0.309372
O10	O	1.108754	-0.134987	-0.399809
O11	O	1.018219	-0.219783	-0.190066
O12	O	0.898941	-0.219754	-0.309358
O13	O	1.018228	-0.283943	-0.519050
O14	O	0.898894	-0.283959	-0.399731
O15	O	1.108692	-0.219725	-0.519083
O16	O	1.108485	-0.368747	-0.309327
O17	O	1.018110	-0.368726	-0.399713
C18	C	0.872215	-0.251856	-0.354542
C19	C	0.790416	-0.251865	-0.354550
C20	C	1.063298	-0.387708	-0.354529
C21	C	1.063312	-0.445822	-0.354539
C22	C	0.602217	-0.285349	-0.401548
C23	C	0.525358	-0.285350	-0.401557
C24	C	0.525378	-0.218391	-0.307594
C25	C	0.602235	-0.218387	-0.307589
C26	C	0.640653	-0.251869	-0.354565
C27	C	0.486937	-0.251874	-0.354579
C28	C	0.403603	-0.251876	-0.354589
C29	C	0.723992	-0.251867	-0.354556
C30	C	1.110602	-0.806183	-0.307579
C31	C	1.110631	-0.860787	-0.307589
O32	O	1.150711	-0.889023	-0.267625
N33	N	1.063551	-0.888104	-0.354612
C34	C	1.016444	-0.860813	-0.401633
O35	O	0.976402	-0.889062	-0.441631
C36	C	1.016420	-0.806210	-0.401626
C37	C	1.063498	-0.778896	-0.354595
C38	C	1.157677	-0.778869	-0.260553
C39	C	1.157647	-0.724269	-0.260542
C40	C	1.110543	-0.696982	-0.307558
C41	C	1.063468	-0.724296	-0.354584
C42	C	0.969318	-0.778920	-0.448650
C43	C	0.969298	-0.724313	-0.448640
C44	C	1.016376	-0.697000	-0.401609
C45	C	1.016334	-0.642408	-0.401590
N46	N	1.063414	-0.615092	-0.354567
C47	C	1.110519	-0.642379	-0.307551
C48	C	1.016500	-0.975484	-0.401644
C49	C	1.016520	-1.030086	-0.401648
C50	C	1.110708	-1.030057	-0.307605
C51	C	1.110683	-0.975453	-0.307598
C52	C	1.063580	-0.948167	-0.354621
C53	C	1.110452	-0.527714	-0.307532
C54	C	1.110416	-0.473108	-0.307523
C55	C	1.016232	-0.473143	-0.401569
C56	C	1.016265	-0.527743	-0.401575
C57	C	1.063381	-0.555027	-0.354554
O58	O	0.976277	-0.614138	-0.441536
O59	O	1.150561	-0.614123	-0.267567
C60	C	1.255374	-0.251874	-0.354584
C61	C	1.337173	-0.251878	-0.354594
C62	C	1.063466	-0.251829	-0.546516
C63	C	1.063485	-0.251814	-0.628315
C64	C	1.063566	-0.115492	-0.354613
C65	C	1.063627	-0.057378	-0.354634
C66	C	1.110607	-0.218344	-0.816528
C67	C	1.110616	-0.218329	-0.893386
C68	C	1.016416	-0.285202	-0.893340
C69	C	1.016404	-0.285214	-0.816483
C70	C	1.063504	-0.251786	-0.778078
C71	C	1.063524	-0.251759	-0.931795
C72	C	1.063534	-0.251742	-1.015128
C73	C	1.063494	-0.251801	-0.694739
C74	C	1.063419	-0.251863	-0.163357
C75	C	1.063543	-0.251731	-0.081558
H76	H	0.633495	-0.312611	-0.439801
H77	H	1.148971	-0.191096	-0.924688
C78	C	1.162410	-0.181571	-0.774282
C79	C	1.162403	-0.181582	-0.689742
C80	C	1.214205	-0.144806	-0.647499
C81	C	1.266015	-0.108019	-0.689796
C82	C	1.266024	-0.108006	-0.774341
C83	C	1.214221	-0.144782	-0.816584
H84	H	1.124048	-0.208816	-0.658427
H85	H	1.214198	-0.144816	-0.584913
H86	H	1.304362	-0.080795	-0.658525
H87	H	1.304378	-0.080772	-0.805656
H88	H	1.214228	-0.144772	-0.879170
H89	H	0.978071	-0.312419	-0.924618
C90	C	0.964581	-0.321999	-0.774182
C91	C	0.964562	-0.322006	-0.689642
C92	C	0.912737	-0.358785	-0.647342
C93	C	0.860931	-0.395556	-0.689581
C94	C	0.860948	-0.395550	-0.774126
C95	C	0.912773	-0.358771	-0.816427
H96	H	1.002914	-0.294785	-0.658370
H97	H	0.912724	-0.358790	-0.584756
H98	H	0.822567	-0.422782	-0.658268
H99	H	0.822596	-0.422771	-0.805399
H100	H	0.912786	-0.358767	-0.879013
H101	H	0.494089	-0.191131	-0.269346
H102	H	0.494068	-0.312613	-0.439817
H103	H	0.633530	-0.191120	-0.269329
H104	H	1.148821	-0.549922	-0.269245
C105	C	1.162208	-0.443064	-0.255788
C106	C	1.156257	-0.450620	-0.172123
C107	C	1.208048	-0.420579	-0.120391
C108	C	1.265789	-0.382982	-0.152324
C109	C	1.271742	-0.375425	-0.235993
C110	C	1.219951	-0.405466	-0.287726
H111	H	1.113512	-0.478453	-0.148480
H112	H	1.203641	-0.426173	-0.058453
H113	H	1.304127	-0.360743	-0.114028
H114	H	1.314487	-0.347592	-0.259636
H115	H	1.224358	-0.399871	-0.349663
H116	H	0.978177	-1.052320	-0.439938
H117	H	1.195984	-0.702033	-0.222248
C118	C	1.209496	-0.808878	-0.208827
C119	C	1.203528	-0.801400	-0.125161
C120	C	1.255346	-0.831404	-0.073428
C121	C	1.313134	-0.868885	-0.105360
C122	C	1.319106	-0.876364	-0.189030
C123	C	1.267287	-0.846361	-0.240763
H124	H	1.160747	-0.773653	-0.101520
H125	H	1.250926	-0.825867	-0.011489
H126	H	1.351494	-0.891095	-0.067063
H127	H	1.361886	-0.904111	-0.212671
H128	H	1.271707	-0.851898	-0.302702
H129	H	1.149019	-0.953218	-0.269302
H130	H	1.149065	-1.052283	-0.269324
H131	H	0.978136	-0.953270	-0.439934
C132	C	0.917533	-0.808953	-0.500392
C133	C	0.833872	-0.801500	-0.494319
C134	C	0.782084	-0.831531	-0.546067
C135	C	0.813958	-0.869015	-0.603887
C136	C	0.897623	-0.876470	-0.609962
C137	C	0.949411	-0.846439	-0.558215
H138	H	0.810273	-0.773751	-0.451515
H139	H	0.720150	-0.826012	-0.541569
H140	H	0.775622	-0.891246	-0.642193
H141	H	0.921222	-0.904219	-0.652766
H142	H	1.011346	-0.851958	-0.562712
C143	C	0.917479	-0.694299	-0.500365
C144	C	0.833825	-0.701875	-0.494284
C145	C	0.782005	-0.671861	-0.546006
C146	C	0.813839	-0.634273	-0.603808
C147	C	0.897498	-0.626696	-0.609892
C148	C	0.949317	-0.656709	-0.558170
H149	H	0.810256	-0.729701	-0.451493
H150	H	0.720076	-0.677471	-0.541502
H151	H	0.775479	-0.612055	-0.642096
H152	H	0.921067	-0.598869	-0.652683
H153	H	1.011247	-0.651100	-0.562674
C154	C	0.964421	-0.443119	-0.453286
C155	C	0.906649	-0.405633	-0.421338
C156	C	0.854843	-0.375607	-0.473059
C157	C	0.860810	-0.383067	-0.556728
C158	C	0.918585	-0.420555	-0.588680
C159	C	0.970391	-0.450581	-0.536959
H160	H	0.902229	-0.400109	-0.359397
H161	H	0.812074	-0.347856	-0.449406
H162	H	0.822461	-0.360840	-0.595016
H163	H	0.923005	-0.426079	-0.650621
H164	H	1.013160	-0.478332	-0.560612
H165	H	0.977932	-0.549983	-0.439874
