data_functionalizedCrystal
_audit_creation_method	'MofGen! by Chris Wilmer'
_symmetry_space_group_name_H-M	'P1'
_symmetry_Int_Tables_number	1
_symmetry_cell_setting	triclinic
loop_
_symmetry_equiv_pos_as_xyz
  x,y,z
_cell_length_a	29.839126
_cell_length_b	16.959455
_cell_length_c	16.959453
_cell_angle_alpha	89.978232
_cell_angle_beta	89.978666
_cell_angle_gamma	90.018785
loop_
_atom_site_label
_atom_site_type_symbol
_atom_site_fract_x
_atom_site_fract_y
_atom_site_fract_z
Zn1	Zn	-0.254004	-1.208392	-0.314806
Zn2	Zn	0.079330	-0.875059	0.018527
Zn3	Zn	0.412663	-0.541726	0.351860
Zn4	Zn	-0.178877	-1.208294	-0.446976
Zn5	Zn	0.154456	-0.874960	-0.113643
Zn6	Zn	0.487789	-0.541627	0.219690
Zn7	Zn	-0.178888	-1.076211	-0.314809
Zn8	Zn	0.154446	-0.742877	0.018525
Zn9	Zn	0.487779	-0.409544	0.351858
Zn10	Zn	-0.253980	-1.076175	-0.446940
Zn11	Zn	0.079353	-0.742841	-0.113607
Zn12	Zn	0.412687	-0.409508	0.219727
O13	O	-0.216437	-1.142268	-0.380883
O14	O	0.116896	-0.808935	-0.047550
O15	O	0.450229	-0.475601	0.285784
O16	O	-0.244044	-1.318990	-0.332353
O17	O	0.089290	-0.985657	0.000980
O18	O	0.422623	-0.652324	0.334313
O19	O	-0.116012	-1.190746	-0.429460
O20	O	0.217322	-0.857413	-0.096127
O21	O	0.550655	-0.524080	0.237206
O22	O	-0.188866	-1.093801	-0.204198
O23	O	0.144467	-0.760468	0.129136
O24	O	0.477801	-0.427135	0.462469
O25	O	-0.188849	-1.318918	-0.429458
O26	O	0.144485	-0.985584	-0.096125
O27	O	0.477818	-0.652251	0.237209
O28	O	-0.244054	-1.190915	-0.204196
O29	O	0.089280	-0.857581	0.129137
O30	O	0.422613	-0.524248	0.462471
O31	O	-0.116019	-1.093705	-0.332357
O32	O	0.217314	-0.760372	0.000976
O33	O	0.550648	-0.427039	0.334309
O34	O	-0.188843	-0.965595	-0.332322
O35	O	0.144490	-0.632262	0.001011
O36	O	0.477824	-0.298928	0.334345
O37	O	-0.316850	-1.093740	-0.429396
O38	O	0.016483	-0.760407	-0.096062
O39	O	0.349816	-0.427073	0.237271
O40	O	-0.244013	-0.965569	-0.429398
O41	O	0.089320	-0.632235	-0.096065
O42	O	0.422653	-0.298902	0.237269
O43	O	-0.316868	-1.190880	-0.332318
O44	O	0.016466	-0.857546	0.001015
O45	O	0.349799	-0.524213	0.334349
O46	O	-0.188826	-1.190711	-0.557582
O47	O	0.144508	-0.857378	-0.224249
O48	O	0.477841	-0.524045	0.109084
O49	O	-0.244003	-1.093644	-0.557556
O50	O	0.089330	-0.760311	-0.224222
O51	O	0.422663	-0.426977	0.109111
C52	C	-0.216427	-0.936902	-0.380857
C53	C	0.116906	-0.603568	-0.047523
C54	C	0.450240	-0.270235	0.285810
C55	C	-0.216433	-0.849045	-0.380865
C56	C	0.116900	-0.515712	-0.047531
C57	C	0.450234	-0.182378	0.285802
C58	C	-0.216421	-1.142185	-0.586249
C59	C	0.116913	-0.808851	-0.252916
C60	C	0.450246	-0.475518	0.080417
C61	C	-0.216429	-1.142221	-0.674106
C62	C	0.116905	-0.808888	-0.340772
C63	C	0.450238	-0.475555	-0.007439
C64	C	-0.333616	-1.142317	-0.380853
C65	C	-0.000282	-0.808983	-0.047519
C66	C	0.333051	-0.475650	0.285814
C67	C	-0.383550	-1.142338	-0.380840
C68	C	-0.050217	-0.809004	-0.047506
C69	C	0.283117	-0.475671	0.285827
C70	C	-0.693200	-1.091824	-0.330199
C71	C	-0.359867	-0.758491	0.003134
C72	C	-0.026534	-0.425158	0.336468
C73	C	-0.880873	-1.091847	-0.330144
C74	C	-0.547540	-0.758513	0.003189
C75	C	-0.214207	-0.425180	0.336522
O76	O	-0.905144	-1.048859	-0.287167
O77	O	-0.571811	-0.715525	0.046167
O78	O	-0.238477	-0.382192	0.379500
N79	N	-0.904335	-1.142375	-0.380691
N80	N	-0.571002	-0.809042	-0.047358
N81	N	-0.237669	-0.475708	0.285975
C82	C	-0.880876	-1.192898	-0.431260
C83	C	-0.547543	-0.859565	-0.097926
C84	C	-0.214209	-0.526231	0.235407
O85	O	-0.905138	-1.235870	-0.474258
O86	O	-0.571805	-0.902537	-0.140924
O87	O	-0.238471	-0.569204	0.192409
C88	C	-0.693204	-1.192871	-0.431318
C89	C	-0.359870	-0.859538	-0.097984
C90	C	-0.026537	-0.526204	0.235349
C91	C	-0.669744	-1.142345	-0.380762
C92	C	-0.336411	-0.809012	-0.047428
C93	C	-0.003078	-0.475678	0.285905
C94	C	-0.669741	-1.041302	-0.279648
C95	C	-0.336407	-0.707968	0.053686
C96	C	-0.003074	-0.374635	0.387019
C97	C	-0.622825	-1.041300	-0.279659
C98	C	-0.289492	-0.707966	0.053674
C99	C	0.043841	-0.374633	0.387008
C100	C	-0.599369	-1.091820	-0.330221
C101	C	-0.266036	-0.758487	0.003112
C102	C	0.067297	-0.425153	0.336445
C103	C	-0.622829	-1.142343	-0.380773
C104	C	-0.289496	-0.809009	-0.047440
C105	C	0.043838	-0.475676	0.285894
C106	C	-0.669745	-1.243389	-0.481889
C107	C	-0.336412	-0.910056	-0.148556
C108	C	-0.003079	-0.576723	0.184777
C109	C	-0.622824	-1.243377	-0.481901
C110	C	-0.289491	-0.910043	-0.148568
C111	C	0.043842	-0.576710	0.184766
C112	C	-0.599365	-1.192850	-0.431345
C113	C	-0.266032	-0.859517	-0.098011
C114	C	0.067302	-0.526184	0.235322
C115	C	-0.552457	-1.192861	-0.431347
C116	C	-0.219124	-0.859528	-0.098013
C117	C	0.114209	-0.526195	0.235320
N118	N	-0.528996	-1.142333	-0.380799
N119	N	-0.195662	-0.809000	-0.047466
N120	N	0.137671	-0.475666	0.285867
C121	C	-0.552451	-1.091812	-0.330237
C122	C	-0.219118	-0.758479	0.003096
C123	C	0.114215	-0.425146	0.336430
C124	C	-0.979407	-1.192910	-0.431224
C125	C	-0.646073	-0.859576	-0.097891
C126	C	-0.312740	-0.526243	0.235442
C127	C	-1.026325	-1.192918	-0.431209
C128	C	-0.692991	-0.859584	-0.097876
C129	C	-0.359658	-0.526251	0.235458
C130	C	-1.026319	-1.091865	-0.330094
C131	C	-0.692985	-0.758532	0.003239
C132	C	-0.359652	-0.425198	0.336572
C133	C	-0.979400	-1.091862	-0.330106
C134	C	-0.646067	-0.758528	0.003227
C135	C	-0.312733	-0.425195	0.336560
C136	C	-0.955945	-1.142381	-0.380677
C137	C	-0.622611	-0.809048	-0.047344
C138	C	-0.289278	-0.475714	0.285990
C139	C	-0.453926	-1.091812	-0.330264
C140	C	-0.120592	-0.758479	0.003070
C141	C	0.212741	-0.425146	0.336403
C142	C	-0.407006	-1.091817	-0.330277
C143	C	-0.073673	-0.758484	0.003056
C144	C	0.259661	-0.425150	0.336390
C145	C	-0.407016	-1.192866	-0.431394
C146	C	-0.073683	-0.859533	-0.098061
C147	C	0.259651	-0.526200	0.235273
C148	C	-0.453931	-1.192865	-0.431378
C149	C	-0.120598	-0.859532	-0.098045
C150	C	0.212735	-0.526198	0.235288
C151	C	-0.477385	-1.142331	-0.380810
C152	C	-0.144052	-0.808998	-0.047477
C153	C	0.189282	-0.475665	0.285856
O154	O	-0.528158	-1.235820	-0.474308
O155	O	-0.194825	-0.902487	-0.140975
O156	O	0.138509	-0.569154	0.192359
O157	O	-0.528181	-1.048834	-0.287258
O158	O	-0.194848	-0.715501	0.046076
O159	O	0.138485	-0.382167	0.379409
C160	C	-0.740116	-1.091826	-0.330188
C161	C	-0.406782	-0.758493	0.003145
C162	C	-0.073449	-0.425160	0.336479
C163	C	-0.763575	-1.142349	-0.380739
C164	C	-0.430242	-0.809016	-0.047406
C165	C	-0.096909	-0.475682	0.285927
C166	C	-0.740119	-1.192870	-0.431302
C167	C	-0.406786	-0.859536	-0.097969
C168	C	-0.073453	-0.526203	0.235365
C169	C	-0.810493	-1.142357	-0.380724
C170	C	-0.477160	-0.809023	-0.047391
C171	C	-0.143826	-0.475690	0.285943
C172	C	-0.833949	-1.091836	-0.330161
C173	C	-0.500616	-0.758503	0.003172
C174	C	-0.167282	-0.425170	0.336505
C175	C	-0.810487	-1.041308	-0.279614
C176	C	-0.477154	-0.707974	0.053719
C177	C	-0.143821	-0.374641	0.387053
C178	C	-0.763572	-1.041306	-0.279625
C179	C	-0.430238	-0.707972	0.053708
C180	C	-0.096905	-0.374639	0.387041
C181	C	-0.763581	-1.243398	-0.481849
C182	C	-0.430248	-0.910065	-0.148516
C183	C	-0.096915	-0.576731	0.184818
C184	C	-0.810497	-1.243397	-0.481833
C185	C	-0.477163	-0.910063	-0.148500
C186	C	-0.143830	-0.576730	0.184834
C187	C	-0.833953	-1.192876	-0.431271
C188	C	-0.500619	-0.859543	-0.097937
C189	C	-0.167286	-0.526209	0.235396
C190	C	-0.099715	-1.142265	-0.380856
C191	C	0.233619	-0.808931	-0.047523
C192	C	0.566952	-0.475598	0.285811
C193	C	-0.049781	-1.142397	-0.380646
C194	C	0.283553	-0.809064	-0.047313
C195	C	0.616886	-0.475730	0.286020
C196	C	-0.216448	-1.348436	-0.380910
C197	C	0.116886	-1.015103	-0.047576
C198	C	0.450219	-0.681769	0.285757
C199	C	-0.216452	-1.436293	-0.380921
C200	C	0.116881	-1.102959	-0.047588
C201	C	0.450214	-0.769626	0.285746
C202	C	-0.187770	-0.477559	-0.330294
C203	C	0.145563	-0.144225	0.003039
C204	C	0.478897	0.189108	0.336373
C205	C	-0.245130	-0.477580	-0.431537
C206	C	0.088203	-0.144247	-0.098204
C207	C	0.421537	0.189087	0.235130
C208	C	-0.245127	-0.560126	-0.431526
C209	C	0.088206	-0.226793	-0.098192
C210	C	0.421539	0.106541	0.235141
C211	C	-0.216445	-0.601392	-0.380898
C212	C	0.116888	-0.268059	-0.047565
C213	C	0.450222	0.065275	0.285768
C214	C	-0.187766	-0.560112	-0.330283
C215	C	0.145568	-0.226779	0.003051
C216	C	0.478901	0.106554	0.336384
C217	C	-0.273803	-0.601412	-0.482146
C218	C	0.059530	-0.268079	-0.148813
C219	C	0.392864	0.065255	0.184521
C220	C	-0.273801	-0.683963	-0.482137
C221	C	0.059532	-0.350629	-0.148804
C222	C	0.392866	-0.017296	0.184529
C223	C	-0.245121	-0.725230	-0.431506
C224	C	0.088213	-0.391897	-0.098172
C225	C	0.421546	-0.058564	0.235161
C226	C	-0.216440	-0.683946	-0.380887
C227	C	0.116893	-0.350612	-0.047554
C228	C	0.450226	-0.017279	0.285779
C229	C	-0.187758	-0.725212	-0.330260
C230	C	0.145575	-0.391878	0.003073
C231	C	0.478908	-0.058545	0.336406
C232	C	-0.159080	-0.683928	-0.279637
C233	C	0.174253	-0.350595	0.053696
C234	C	0.507587	-0.017262	0.387029
C235	C	-0.159085	-0.601380	-0.279651
C236	C	0.174248	-0.268047	0.053682
C237	C	0.507581	0.065287	0.387016
C238	C	-0.245115	-0.807779	-0.431492
C239	C	0.088218	-0.474446	-0.098158
C240	C	0.421551	-0.141112	0.235175
C241	C	-0.187754	-0.807765	-0.330249
C242	C	0.145580	-0.474432	0.003084
C243	C	0.478913	-0.141099	0.336418
C244	C	-0.245137	-1.091658	-0.715395
C245	C	0.088197	-0.758325	-0.382061
C246	C	0.421530	-0.424991	-0.048728
C247	C	-0.187731	-1.192824	-0.715370
C248	C	0.145603	-0.859491	-0.382037
C249	C	0.478936	-0.526157	-0.048704
C250	C	-0.187739	-1.192863	-0.797916
C251	C	0.145595	-0.859530	-0.464583
C252	C	0.478928	-0.526197	-0.131249
C253	C	-0.216447	-1.142300	-0.839205
C254	C	0.116887	-0.808967	-0.505872
C255	C	0.450220	-0.475633	-0.172538
C256	C	-0.245147	-1.091697	-0.797948
C257	C	0.088187	-0.758364	-0.464615
C258	C	0.421520	-0.425031	-0.131282
C259	C	-0.159042	-1.243471	-0.839179
C260	C	0.174291	-0.910137	-0.505846
C261	C	0.507624	-0.576804	-0.172513
C262	C	-0.159050	-1.243512	-0.921730
C263	C	0.174284	-0.910179	-0.588397
C264	C	0.507617	-0.576846	-0.255063
C265	C	-0.187756	-1.192944	-0.963021
C266	C	0.145577	-0.859611	-0.629687
C267	C	0.478911	-0.526278	-0.296354
C268	C	-0.216457	-1.142339	-0.921759
C269	C	0.116877	-0.809006	-0.588425
C270	C	0.450210	-0.475673	-0.255092
C271	C	-0.245165	-1.091776	-0.963048
C272	C	0.088168	-0.758443	-0.629714
C273	C	0.421502	-0.425109	-0.296381
C274	C	-0.273864	-1.041166	-0.921787
C275	C	0.059470	-0.707833	-0.588454
C276	C	0.392803	-0.374499	-0.255121
C277	C	-0.273853	-1.041129	-0.839239
C278	C	0.059480	-0.707796	-0.505905
C279	C	0.392814	-0.374463	-0.172572
C280	C	-0.187767	-1.192981	-1.045569
C281	C	0.145567	-0.859648	-0.712236
C282	C	0.478900	-0.526314	-0.378902
C283	C	-0.245175	-1.091815	-1.045601
C284	C	0.088158	-0.758482	-0.712268
C285	C	0.421492	-0.425148	-0.378935
C286	C	-0.216464	-1.142373	-0.174715
C287	C	0.116870	-0.809040	0.158619
C288	C	0.450203	-0.475706	0.491952
C289	C	-0.216475	-1.142418	-0.086858
C290	C	0.116858	-0.809084	0.246475
C291	C	0.450192	-0.475751	0.579809
H292	H	-0.387907	-1.050673	-0.289105
H293	H	-0.054574	-0.717339	0.044229
H294	H	0.278759	-0.384006	0.377562
H295	H	-0.744488	-1.284536	-0.523027
H296	H	-0.411155	-0.951203	-0.189694
H297	H	-0.077821	-0.617869	0.143640
F298	F	-0.128553	-0.727856	-0.225762
F299	F	0.204781	-0.394523	0.107571
F300	F	0.538114	-0.061190	0.440904
F301	F	-0.157228	-0.851677	-0.276359
F302	F	0.176106	-0.518344	0.056974
F303	F	0.509439	-0.185011	0.390307
H304	H	-1.045421	-1.234070	-0.472368
H305	H	-0.712088	-0.900736	-0.139035
H306	H	-0.378755	-0.567403	0.194299
H307	H	-0.135736	-0.567760	-0.238438
H308	H	0.197597	-0.234426	0.094896
H309	H	0.530930	0.098907	0.428229
F310	F	-0.304419	-0.987360	-0.965739
F311	F	0.028914	-0.654026	-0.632406
F312	F	0.362248	-0.320693	-0.299073
F313	F	-0.157252	-0.433623	-0.276416
F314	F	0.176081	-0.100290	0.056917
F315	F	0.509414	0.233044	0.390250
F316	F	-0.478900	-1.246652	-0.485173
F317	F	-0.145566	-0.913319	-0.151840
F318	F	0.187767	-0.579986	0.181494
F319	F	-0.304323	-0.727892	-0.536013
F320	F	0.029010	-0.394559	-0.202679
F321	F	0.362343	-0.061226	0.130654
F322	F	-0.157182	-1.246640	-0.671426
F323	F	0.176151	-0.913306	-0.338092
F324	F	0.509484	-0.579973	-0.004759
F325	F	-0.304397	-0.987278	-0.795321
F326	F	0.028936	-0.653945	-0.461988
F327	F	0.362270	-0.320611	-0.128655
H328	H	-0.268502	-1.050450	-0.681798
H329	H	0.064832	-0.717117	-0.348465
H330	H	0.398165	-0.383783	-0.015132
H331	H	-0.268479	-0.443976	-0.472760
H332	H	0.064854	-0.110643	-0.139426
H333	H	0.398188	0.222690	0.193907
F334	F	-0.275632	-0.851712	-0.485369
F335	F	0.057701	-0.518379	-0.152035
F336	F	0.391035	-0.185045	0.181298
F337	F	-0.954437	-1.038084	-0.276299
F338	F	-0.621104	-0.704751	0.057034
F339	F	-0.287770	-0.371418	0.390367
F340	F	-0.275729	-1.037994	-1.089538
F341	F	0.057605	-0.704660	-0.756204
F342	F	0.390938	-0.371327	-0.422871
F343	F	-0.128495	-1.297286	-0.795233
F344	F	0.204838	-0.963953	-0.461900
F345	F	0.538172	-0.630619	-0.128566
H346	H	-0.135681	-1.284721	-0.955317
H347	H	0.197652	-0.951388	-0.621984
H348	H	0.530986	-0.618054	-0.288651
F349	F	-0.304315	-0.557490	-0.536043
F350	F	0.029019	-0.224157	-0.202710
F351	F	0.362352	0.109177	0.130623
H352	H	-0.164403	-1.234192	-1.079160
H353	H	0.168930	-0.900858	-0.745826
H354	H	0.502263	-0.567525	-0.412493
H355	H	-0.960314	-1.234049	-0.472409
H356	H	-0.626980	-0.900716	-0.139076
H357	H	-0.293647	-0.567382	0.194257
F358	F	-0.597864	-0.987519	-0.225853
F359	F	-0.264530	-0.654185	0.107480
F360	F	0.068803	-0.320852	0.440813
F361	F	-0.694697	-0.987517	-0.225836
F362	F	-0.361364	-0.654184	0.107497
F363	F	-0.028031	-0.320850	0.440831
F364	F	-1.051290	-1.038097	-0.276281
F365	F	-0.717957	-0.704764	0.057052
F366	F	-0.384623	-0.371430	0.390385
F367	F	-0.478880	-1.038033	-0.276440
F368	F	-0.145547	-0.704699	0.056893
F369	F	0.187786	-0.371366	0.390227
H370	H	-0.603730	-1.284522	-0.523078
H371	H	-0.270396	-0.951188	-0.189744
H372	H	0.062937	-0.617855	0.143589
F373	F	-0.694703	-1.297162	-0.535704
F374	F	-0.361369	-0.963829	-0.202371
F375	F	-0.028036	-0.630496	0.130963
F376	F	-0.382044	-1.246635	-0.485200
F377	F	-0.048711	-0.913302	-0.151866
F378	F	0.284622	-0.579969	0.181467
F379	F	-0.738610	-0.987528	-0.225817
F380	F	-0.405277	-0.654194	0.107517
F381	F	-0.071944	-0.320861	0.440850
H382	H	-0.829593	-1.284549	-0.523001
H383	H	-0.496260	-0.951215	-0.189667
H384	H	-0.162927	-0.617882	0.143666
F385	F	-0.835459	-0.987543	-0.225799
F386	F	-0.502126	-0.654209	0.107534
F387	F	-0.168792	-0.320876	0.440868
