data_functionalizedCrystal
_audit_creation_method	'MofGen! by Chris Wilmer'
_symmetry_space_group_name_H-M	'P1'
_symmetry_Int_Tables_number	1
_symmetry_cell_setting	triclinic
loop_
_symmetry_equiv_pos_as_xyz
  x,y,z
_cell_length_a	14.044220
_cell_length_b	14.044190
_cell_length_c	13.596369
_cell_angle_alpha	89.989293
_cell_angle_beta	89.999747
_cell_angle_gamma	93.190328
loop_
_atom_site_label
_atom_site_type_symbol
_atom_site_fract_x
_atom_site_fract_y
_atom_site_fract_z
O1	O	1.277175	0.230170	-0.081707
O2	O	1.610508	0.563503	0.251627
O3	O	1.943842	0.896837	0.584960
O4	O	1.000503	0.221864	-0.081731
O5	O	1.333837	0.555198	0.251602
O6	O	1.667170	0.888531	0.584936
O7	O	1.134683	0.087681	-0.081700
O8	O	1.468016	0.421014	0.251633
O9	O	1.801349	0.754348	0.584967
O10	O	1.142995	0.364353	-0.081738
O11	O	1.476329	0.697687	0.251596
O12	O	1.809662	1.031020	0.584929
O13	O	1.134667	0.087672	0.081883
O14	O	1.468001	0.421005	0.415216
O15	O	1.801334	0.754339	0.748550
O16	O	1.000488	0.221855	0.081852
O17	O	1.333821	0.555189	0.415185
O18	O	1.667155	0.888522	0.748519
O19	O	1.277160	0.230161	0.081876
O20	O	1.610493	0.563494	0.415210
O21	O	1.943826	0.896828	0.748543
Zn22	Zn	1.138821	0.226007	0.107836
Zn23	Zn	1.472155	0.559340	0.441170
Zn24	Zn	1.805488	0.892673	0.774503
Zn25	Zn	1.138841	0.226019	-0.107691
Zn26	Zn	1.472175	0.559352	0.225642
Zn27	Zn	1.805508	0.892685	0.558976
O28	O	1.142980	0.364344	0.081845
O29	O	1.476313	0.697678	0.415178
O30	O	1.809647	1.031011	0.748512
C31	C	0.964874	0.218224	0.000058
C32	C	1.298207	0.551557	0.333391
C33	C	1.631540	0.884891	0.666724
C34	C	0.858731	0.207380	0.000049
C35	C	1.192064	0.540713	0.333383
C36	C	1.525397	0.874046	0.666716
C37	C	0.664392	0.187553	0.000072
C38	C	0.997726	0.520887	0.333405
C39	C	1.331059	0.854220	0.666738
C40	C	0.613264	0.264468	0.000065
C41	C	0.946598	0.597801	0.333398
C42	C	1.279931	0.931135	0.666732
C43	C	0.505128	0.253436	0.000077
C44	C	0.838461	0.586770	0.333411
C45	C	1.171795	0.920103	0.666744
C46	C	0.772539	0.198583	0.000059
C47	C	1.105872	0.531917	0.333392
C48	C	1.439205	0.865250	0.666726
C49	C	1.131039	0.052054	0.000094
C50	C	1.464372	0.385388	0.333428
C51	C	1.797705	0.718721	0.666761
C52	C	1.120191	-0.054089	0.000102
C53	C	1.453525	0.279245	0.333435
C54	C	1.786858	0.612578	0.666768
C55	C	1.177292	-0.299547	0.000068
C56	C	1.510625	0.033786	0.333402
C57	C	1.843958	0.367120	0.666735
C58	C	1.100375	-0.248422	0.000068
C59	C	1.433709	0.084912	0.333402
C60	C	1.767042	0.418245	0.666735
C61	C	1.111404	-0.140285	0.000087
C62	C	1.444737	0.193049	0.333420
C63	C	1.778070	0.526382	0.666754
C64	C	1.166265	-0.407694	0.000050
C65	C	1.499598	-0.074361	0.333383
C66	C	1.832932	0.258973	0.666716
C67	C	1.312789	0.233801	0.000085
C68	C	1.646123	0.567135	0.333419
C69	C	1.979456	0.900468	0.666752
C70	C	1.418932	0.244646	0.000087
C71	C	1.752266	0.577979	0.333421
C72	C	2.085599	0.911312	0.666754
C73	C	1.146624	0.399971	0.000049
C74	C	1.479958	0.733304	0.333382
C75	C	1.813291	1.066638	0.666716
C76	C	1.157472	0.506114	0.000035
C77	C	1.490805	0.839447	0.333368
C78	C	1.824138	1.172781	0.666701
N79	N	1.138815	0.225999	0.254928
N80	N	1.472148	0.559332	0.588262
N81	N	1.805481	0.892665	0.921595
N82	N	1.138855	0.226020	-0.254783
N83	N	1.472189	0.559353	0.078550
N84	N	1.805522	0.892686	0.411884
C85	C	1.138840	0.226019	0.656219
C86	C	1.472174	0.559353	0.989553
C87	C	1.805507	0.892686	1.322886
C88	C	1.138831	0.226017	0.544568
C89	C	1.472164	0.559350	0.877901
C90	C	1.805497	0.892683	1.211234
C91	C	1.138828	0.226010	0.455577
C92	C	1.472161	0.559343	0.788911
C93	C	1.805495	0.892677	1.122244
C94	C	1.138817	0.226006	0.343919
C95	C	1.472151	0.559339	0.677252
C96	C	1.805484	0.892672	1.010585
H97	H	0.626954	0.113425	0.000087
H98	H	0.960287	0.446759	0.333420
H99	H	1.293620	0.780092	0.666754
H100	H	0.650706	0.338602	0.000050
H101	H	0.984039	0.671935	0.333384
H102	H	1.317372	1.005268	0.666717
O103	O	1.265778	-0.254996	0.000220
O104	O	1.599111	0.078337	0.333554
O105	O	1.932445	0.411671	0.666887
C106	C	1.315638	-0.281740	0.084958
C107	C	1.648971	0.051593	0.418291
C108	C	1.982304	0.384926	0.751625
H109	H	1.283893	-0.353063	0.113186
H110	H	1.617226	-0.019730	0.446519
H111	H	1.950559	0.313603	0.779853
H112	H	1.393996	-0.288696	0.065917
H113	H	1.727330	0.044637	0.399250
H114	H	2.060663	0.377970	0.732583
H115	H	1.309343	-0.225089	0.144291
H116	H	1.642676	0.108245	0.477625
H117	H	1.976010	0.441578	0.810958
H118	H	1.026243	-0.285865	0.000056
H119	H	1.359576	0.047468	0.333390
H120	H	1.692910	0.380802	0.666723
