data_functionalizedCrystal
_audit_creation_method	'MofGen! by Chris Wilmer'
_symmetry_space_group_name_H-M	'P1'
_symmetry_Int_Tables_number	1
_symmetry_cell_setting	triclinic
loop_
_symmetry_equiv_pos_as_xyz
  x,y,z
_cell_length_a	12.837943
_cell_length_b	9.065218
_cell_length_c	11.892277
_cell_angle_alpha	94.310675
_cell_angle_beta	86.047812
_cell_angle_gamma	90.077587
loop_
_atom_site_label
_atom_site_type_symbol
_atom_site_fract_x
_atom_site_fract_y
_atom_site_fract_z
O1	O	1.373064	-0.374770	0.093972
O2	O	1.071079	-0.355799	0.093979
O3	O	1.228314	-0.151401	0.093973
O4	O	1.215829	-0.579168	0.093978
O5	O	1.240295	-0.169920	-0.094029
O6	O	1.083061	-0.374317	-0.094023
O7	O	1.385045	-0.393289	-0.094030
Zn8	Zn	1.235956	-0.386743	-0.123876
Zn9	Zn	1.220169	-0.362344	0.123825
O10	O	1.227811	-0.597686	-0.094024
C11	C	1.038389	-0.358650	-0.000021
C12	C	0.923133	-0.339536	-0.000018
C13	C	1.233105	-0.105528	-0.000026
C14	C	1.229517	0.058752	-0.000021
N15	N	1.246737	-0.403395	-0.292925
C16	C	0.684333	-0.569314	-0.000032
C17	C	0.576038	-0.551362	-0.000030
C18	C	0.598248	-0.285682	-0.000021
C19	C	0.706542	-0.303634	-0.000023
C20	C	0.749580	-0.445454	-0.000026
C21	C	0.857876	-0.463404	-0.000020
C22	C	0.880084	-0.197727	-0.000019
C23	C	0.771790	-0.179775	-0.000017
C24	C	1.417735	-0.390438	-0.000028
C25	C	1.532991	-0.409551	-0.000023
C26	C	1.223020	-0.643559	-0.000022
C27	C	1.226607	-0.807838	-0.000021
C28	C	1.134262	-0.229713	-0.529623
C29	C	1.141822	-0.241365	-0.647961
C30	C	1.269411	-0.438357	-0.647943
C31	C	1.261851	-0.426705	-0.529605
C32	C	1.194275	-0.322378	-0.470449
C33	C	1.186721	-0.310720	-0.352108
C34	C	1.314305	-0.507718	-0.352092
C35	C	1.321865	-0.519370	-0.470431
N36	N	1.209396	-0.345682	0.292874
H37	H	0.892916	-0.578882	-0.000025
H38	H	0.522917	-0.652222	-0.000037
H39	H	0.736734	-0.064310	-0.000027
Cl40	Cl	1.101777	-0.179560	-0.277741
H41	H	1.092950	-0.165910	-0.696136
Cl42	Cl	0.738441	-0.747595	-0.000021
H43	H	1.324425	-0.523300	-0.696129
Cl44	Cl	1.389762	-0.624208	-0.277695
Cl45	Cl	0.544125	-0.107411	-0.000031
H46	H	0.933221	-0.096870	-0.000007
Cl47	Cl	1.049336	-0.098534	-0.455251
Cl48	Cl	1.406807	-0.650524	-0.544809
