data_functionalizedCrystal
_audit_creation_method	'MofGen! by Chris Wilmer'
_symmetry_space_group_name_H-M	'P1'
_symmetry_Int_Tables_number	1
_symmetry_cell_setting	triclinic
loop_
_symmetry_equiv_pos_as_xyz
  x,y,z
_cell_length_a	8.559649
_cell_length_b	8.559649
_cell_length_c	7.681481
_cell_angle_alpha	94.930900
_cell_angle_beta	85.086760
_cell_angle_gamma	69.778664
loop_
_atom_site_label
_atom_site_type_symbol
_atom_site_fract_x
_atom_site_fract_y
_atom_site_fract_z
O1	O	-2.109661	0.037797	-0.146402
O2	O	-1.609661	0.537797	0.353598
O3	O	-1.634175	-0.045985	-0.146408
O4	O	-1.134175	0.454015	0.353592
O5	O	-1.913809	0.233649	-0.146402
O6	O	-1.413809	0.733649	0.353598
O7	O	-1.830027	-0.241837	-0.146407
O8	O	-1.330027	0.258163	0.353593
O9	O	-1.948236	0.268136	0.146456
O10	O	-1.448236	0.768136	0.646456
O11	O	-1.668602	-0.011497	0.146450
O12	O	-1.168602	0.488503	0.646450
O13	O	-2.144088	0.072285	0.146457
O14	O	-1.644088	0.572285	0.646457
Zn15	Zn	-1.911811	0.035869	0.192951
Zn16	Zn	-1.411811	0.535869	0.692951
Zn17	Zn	-1.866452	-0.009570	-0.192902
Zn18	Zn	-1.366452	0.490430	0.307098
O19	O	-1.864454	-0.207349	0.146451
O20	O	-1.364454	0.292651	0.646451
C21	C	-1.591080	-0.035090	0.000020
C22	C	-1.091080	0.464910	0.500020
C23	C	-1.411380	-0.053990	0.000017
C24	C	-0.911380	0.446010	0.500017
C25	C	-1.937371	0.311201	0.000024
C26	C	-1.437371	0.811201	0.500024
C27	C	-1.956269	0.490899	0.000014
C28	C	-1.456269	0.990899	0.500014
C29	C	-2.187183	0.061390	0.000025
C30	C	-1.687183	0.561390	0.500025
C31	C	-2.366881	0.080288	0.000016
C32	C	-1.866881	0.580288	0.500016
C33	C	-1.840891	-0.284902	0.000021
C34	C	-1.340891	0.215098	0.500021
C35	C	-1.821992	-0.464601	0.000019
C36	C	-1.321992	0.035399	0.500019
N37	N	-1.942779	0.066883	0.456286
N38	N	-1.442779	0.566883	0.956286
N39	N	-1.835499	-0.040569	-0.456237
N40	N	-1.335499	0.459431	0.043763
H41	H	-1.466259	0.209706	0.000009
H42	H	-0.966259	0.709706	0.500009
F43	F	-2.125446	0.620803	0.000037
F44	F	-1.625446	1.120803	0.500037
H45	H	-2.052307	0.176556	0.531494
H46	H	-1.552307	0.676556	1.031494
H47	H	-1.311991	-0.183419	0.000006
H48	H	-0.811991	0.316581	0.500006
F49	F	-1.652827	0.405506	0.000021
F50	F	-1.152827	0.905506	0.500021
H51	H	-1.725988	-0.150245	0.468564
H52	H	-1.225988	0.349755	0.968564
