data_functionalizedCrystal
_audit_creation_method	'MofGen! by Chris Wilmer'
_symmetry_space_group_name_H-M	'P1'
_symmetry_Int_Tables_number	1
_symmetry_cell_setting	triclinic
loop_
_symmetry_equiv_pos_as_xyz
  x,y,z
_cell_length_a	14.519731
_cell_length_b	15.995343
_cell_length_c	12.996460
_cell_angle_alpha	89.989133
_cell_angle_beta	89.994327
_cell_angle_gamma	83.589018
loop_
_atom_site_label
_atom_site_type_symbol
_atom_site_fract_x
_atom_site_fract_y
_atom_site_fract_z
O1	O	1.223654	0.109845	-0.085580
O2	O	0.955156	0.122752	-0.085583
O3	O	1.096748	-0.005578	-0.085562
O4	O	1.082061	0.238175	-0.085601
O5	O	1.096733	-0.005585	0.085571
O6	O	0.955141	0.122745	0.085551
O7	O	1.223639	0.109838	0.085554
Cu8	Cu	1.089389	0.116291	0.101178
Cu9	Cu	1.089406	0.116300	-0.101208
O10	O	1.082047	0.238168	0.085533
C11	C	0.920790	0.122144	-0.000016
C12	C	0.818413	0.120332	-0.000017
C13	C	0.735272	0.118859	-0.000020
C14	C	0.630966	0.117019	-0.000021
C15	C	0.547830	0.115559	-0.000020
C16	C	0.443518	0.113719	-0.000022
C17	C	1.096135	-0.036777	0.000007
C18	C	1.094318	-0.129731	0.000015
C19	C	1.091021	-0.299922	-0.000008
C20	C	0.988813	-0.323428	-0.000012
C21	C	0.986890	-0.420109	-0.000411
C22	C	1.087774	-0.467487	-0.000030
C23	C	1.139174	-0.438304	-0.097559
C24	C	1.140386	-0.341509	-0.097629
C25	C	1.141866	-0.341619	0.096989
C26	C	1.138092	-0.438120	0.098259
C27	C	1.085944	-0.562188	-0.000046
C28	C	1.092854	-0.205221	0.000001
C29	C	1.258005	0.110447	-0.000015
C30	C	1.360382	0.112259	-0.000022
C31	C	1.082660	0.269368	-0.000039
C32	C	1.084476	0.362321	-0.000054
N33	N	1.089383	0.116285	0.243525
N34	N	1.089419	0.116299	-0.243555
C35	C	1.089405	0.116300	0.663339
C36	C	1.089396	0.116299	0.546534
C37	C	1.089394	0.116293	0.453436
C38	C	1.089385	0.116290	0.336623
H39	H	0.946646	-0.439198	0.069481
Cl40	Cl	1.256105	-0.318822	-0.104013
Cl41	Cl	1.253808	-0.487288	-0.102742
H42	H	1.211707	-0.470954	0.104442
H43	H	0.949190	-0.295490	0.069919
Cl44	Cl	1.080304	-0.466876	0.209662
H45	H	0.949848	-0.294497	-0.069848
Cl46	Cl	0.925086	-0.448665	-0.108993
Cl47	Cl	1.092068	-0.298067	0.211163
H48	H	1.105218	-0.314770	-0.170812
H49	H	1.217094	-0.327481	0.097937
Cl50	Cl	1.084746	-0.469393	-0.210053
