data_functionalizedCrystal
_audit_creation_method	'MofGen! by Chris Wilmer'
_symmetry_space_group_name_H-M	'P1'
_symmetry_Int_Tables_number	1
_symmetry_cell_setting	triclinic
loop_
_symmetry_equiv_pos_as_xyz
  x,y,z
_cell_length_a	9.065215
_cell_length_b	16.974813
_cell_length_c	8.140239
_cell_angle_alpha	86.341924
_cell_angle_beta	89.997810
_cell_angle_gamma	84.203340
loop_
_atom_site_label
_atom_site_type_symbol
_atom_site_fract_x
_atom_site_fract_y
_atom_site_fract_z
O1	O	1.957274	0.115924	-0.152003
O2	O	2.457274	0.615924	0.347997
O3	O	1.527733	0.125436	-0.153275
O4	O	2.027733	0.625436	0.346725
O5	O	1.754478	0.005662	-0.137340
O6	O	2.254478	0.505662	0.362660
O7	O	1.730529	0.235698	-0.167938
O8	O	2.230529	0.735698	0.332062
O9	O	1.754466	0.005661	0.135887
O10	O	2.254466	0.505661	0.635887
O11	O	1.527720	0.125435	0.119952
O12	O	2.027720	0.625435	0.619952
O13	O	1.957262	0.115923	0.121224
O14	O	2.457262	0.615923	0.621224
Zn15	Zn	1.742489	0.120678	0.163969
Zn16	Zn	2.242489	0.620678	0.663969
Zn17	Zn	1.742505	0.120680	-0.196020
Zn18	Zn	2.242505	0.620680	0.303980
O19	O	1.730516	0.235696	0.105289
O20	O	2.230516	0.735696	0.605289
C21	C	1.472764	0.124522	-0.016541
C22	C	1.972764	0.624522	0.483459
C23	C	1.308995	0.121790	-0.016180
C24	C	1.808995	0.621790	0.483820
C25	C	1.753561	-0.023803	0.003189
C26	C	2.253561	0.476197	0.503189
C27	C	1.750829	-0.111600	0.014857
C28	C	2.250829	0.388400	0.514857
C29	C	1.749555	-0.152841	-0.128597
C30	C	2.249555	0.347159	0.371403
C31	C	1.746979	-0.235334	-0.117629
C32	C	2.246979	0.264666	0.382371
C33	C	1.745686	-0.276585	0.036795
C34	C	2.245686	0.223415	0.536795
C35	C	1.746955	-0.235338	0.180259
C36	C	2.246955	0.264662	0.680259
C37	C	1.749521	-0.152845	0.169289
C38	C	2.249521	0.347155	0.669289
C39	C	1.738001	-0.523301	0.085573
C40	C	2.238001	-0.023301	0.585573
C41	C	1.735439	-0.605800	0.096532
C42	C	2.235439	-0.105800	0.596532
C43	C	1.735460	-0.605791	-0.201357
C44	C	2.235460	-0.105791	0.298643
C45	C	1.738035	-0.523297	-0.212313
C46	C	2.238035	-0.023297	0.287687
C47	C	1.739296	-0.482056	-0.068849
C48	C	2.239296	0.017944	0.431151
N49	N	1.743057	-0.360907	0.048009
N50	N	2.243057	0.139093	0.548009
N51	N	1.741915	-0.397735	-0.080065
N52	N	2.241915	0.102265	0.419935
C53	C	2.012230	0.116837	-0.015514
C54	C	2.512230	0.616837	0.484486
C55	C	2.176000	0.119569	-0.015885
C56	C	2.676000	0.619569	0.484115
C57	C	1.731433	0.265162	-0.035244
C58	C	2.231433	0.765162	0.464756
C59	C	1.734166	0.352958	-0.046922
C60	C	2.234166	0.852958	0.453078
N61	N	1.742489	0.120677	0.409652
N62	N	2.242489	0.620677	0.909652
N63	N	1.742518	0.120676	-0.441702
N64	N	2.242518	0.620676	0.058298
H65	H	1.745948	-0.268910	-0.234444
H66	H	2.245948	0.231090	0.265556
C67	C	1.879174	-0.068036	-0.312704
C68	C	2.379174	0.431964	0.187296
C69	C	1.750951	-0.107494	-0.298339
C70	C	2.250951	0.392506	0.201661
H71	H	1.880025	-0.040043	-0.417501
H72	H	2.380025	0.459957	0.082499
H73	H	1.880300	-0.031674	-0.228841
H74	H	2.380300	0.468326	0.271159
H75	H	1.964158	-0.105634	-0.301539
H76	H	2.464158	0.394366	0.198461
H77	H	1.665966	-0.069894	-0.309492
H78	H	2.165966	0.430106	0.190508
H79	H	1.749811	-0.143859	-0.382226
H80	H	2.249811	0.356141	0.117774
H81	H	1.734430	-0.639378	-0.318158
H82	H	2.234430	-0.139378	0.181842
H83	H	1.734379	-0.639384	0.222288
H84	H	2.234379	-0.139384	0.722288
H85	H	1.745894	-0.268930	0.305994
H86	H	2.245894	0.231070	0.805994
C87	C	1.737804	-0.531614	0.381120
C88	C	2.237804	-0.031614	0.881120
C89	C	1.739448	-0.477980	0.243268
C90	C	2.239448	0.022020	0.743268
H91	H	1.738721	-0.503631	0.478477
H92	H	2.238721	-0.003631	0.978477
H93	H	1.650809	-0.558364	0.378509
H94	H	2.150809	-0.058364	0.878509
H95	H	1.822786	-0.569211	0.379873
H96	H	2.322786	-0.069211	0.879873
H97	H	1.654461	-0.440386	0.244508
H98	H	2.154461	0.059614	0.744508
H99	H	1.826453	-0.451216	0.245880
H100	H	2.326453	0.048784	0.745880
C101	C	1.623520	-0.119470	0.418730
C102	C	2.123520	0.380530	0.918730
C103	C	1.750908	-0.107505	0.326973
C104	C	2.250908	0.392495	0.826973
H105	H	1.624374	-0.091481	0.516083
H106	H	2.124374	0.408519	1.016083
H107	H	1.537978	-0.100541	0.354999
H108	H	2.037978	0.399459	0.854999
H109	H	1.621831	-0.174505	0.447361
H110	H	2.121831	0.325495	0.947361
H111	H	1.752592	-0.052470	0.298332
H112	H	2.252592	0.447530	0.798332
H113	H	1.836473	-0.126431	0.390718
H114	H	2.336473	0.373569	0.890718
C115	C	1.611928	-0.490062	-0.470567
C116	C	2.111928	0.009938	0.029433
C117	C	1.739348	-0.478023	-0.382140
C118	C	2.239348	0.021977	0.117860
H119	H	1.612713	-0.462128	-0.575430
H120	H	2.112713	0.037872	-0.075430
H121	H	1.610257	-0.545104	-0.484402
H122	H	2.110257	-0.045104	0.015598
H123	H	1.526398	-0.471106	-0.411845
H124	H	2.026398	0.028894	0.088155
H125	H	1.824879	-0.496984	-0.440856
H126	H	2.324879	0.003016	0.059144
H127	H	1.741033	-0.422970	-0.368310
H128	H	2.241033	0.077030	0.131690
