data_functionalizedCrystal
_audit_creation_method	'MofGen! by Chris Wilmer'
_symmetry_space_group_name_H-M	'P1'
_symmetry_Int_Tables_number	1
_symmetry_cell_setting	triclinic
loop_
_symmetry_equiv_pos_as_xyz
  x,y,z
_cell_length_a	21.395364
_cell_length_b	18.050589
_cell_length_c	21.395355
_cell_angle_alpha	90.012701
_cell_angle_beta	89.975484
_cell_angle_gamma	89.969537
loop_
_atom_site_label
_atom_site_type_symbol
_atom_site_fract_x
_atom_site_fract_y
_atom_site_fract_z
Zn1	Zn	0.957842	0.295829	-0.354286
Zn2	Zn	0.957737	0.420001	-0.249519
Zn3	Zn	0.853057	0.295820	-0.249523
Zn4	Zn	0.853019	0.419973	-0.354259
O5	O	0.905413	0.357906	-0.301897
O6	O	1.045506	0.312317	-0.340398
O7	O	0.943823	0.403536	-0.161842
O8	O	0.867016	0.191897	-0.263433
O9	O	1.045429	0.403545	-0.263426
O10	O	0.944001	0.191904	-0.340402
O11	O	0.866915	0.312301	-0.161844
O12	O	0.765374	0.312274	-0.263407
O13	O	0.866951	0.403497	-0.441941
O14	O	0.765346	0.403488	-0.340356
O15	O	0.943965	0.312289	-0.441960
O16	O	0.943786	0.523922	-0.263401
O17	O	0.866850	0.523901	-0.340353
C18	C	0.742626	0.357878	-0.301879
C19	C	0.672985	0.357883	-0.301887
C20	C	0.171228	0.310515	-0.342050
C21	C	0.236663	0.310510	-0.342050
C22	C	0.269346	0.357929	-0.301911
C23	C	0.236588	0.405370	-0.261780
C24	C	0.171154	0.405379	-0.261786
C25	C	0.372982	0.363679	-0.245444
C26	C	0.438415	0.363665	-0.245438
C27	C	0.471167	0.357904	-0.301894
C28	C	0.438478	0.352142	-0.358358
C29	C	0.373043	0.352152	-0.358364
C30	C	0.340299	0.357924	-0.301901
C31	C	0.574869	0.310463	-0.342025
C32	C	0.640306	0.310463	-0.342026
C33	C	0.640230	0.405319	-0.261750
C34	C	0.574795	0.405323	-0.261755
C35	C	0.542118	0.357892	-0.301891
C36	C	0.905319	0.550858	-0.301887
C37	C	0.905336	0.633404	-0.301904
C38	C	0.863521	0.832870	-0.343736
C39	C	0.848238	0.882297	-0.286563
C40	C	0.905384	0.784534	-0.301912
C41	C	0.920683	0.882190	-0.359092
C42	C	0.905428	0.930519	-0.301926
C43	C	0.890071	0.832873	-0.244709
C44	C	0.962543	0.832762	-0.317277
C45	C	0.947282	0.882166	-0.260064
C46	C	0.905356	0.700436	-0.301906
C47	C	0.905455	1.014616	-0.301926
C48	C	1.068837	0.357935	-0.301915
C49	C	1.138478	0.357948	-0.301922
C50	C	0.905501	1.164200	-0.301921
C51	C	0.905477	1.081655	-0.301934
C52	C	0.905465	0.357891	-0.465320
C53	C	0.905488	0.357885	-0.534962
C54	C	0.945587	0.310391	-0.567686
C55	C	0.945586	0.310359	-0.633121
C56	C	0.905492	0.357834	-0.665830
C57	C	0.865386	0.405331	-0.633098
C58	C	0.865383	0.405356	-0.567664
C59	C	0.900513	0.424703	-0.769501
C60	C	0.900519	0.424679	-0.834934
C61	C	0.905496	0.357755	-0.867651
C62	C	0.910480	0.290854	-0.834926
C63	C	0.910477	0.290880	-0.769492
C64	C	0.905490	0.357811	-0.736782
C65	C	0.945597	0.310223	-0.971328
C66	C	0.945591	0.310190	-1.036764
C67	C	0.865395	0.405169	-1.036740
C68	C	0.865397	0.405195	-0.971304
C69	C	0.905501	0.357723	-0.938602
C70	C	0.905398	0.357867	-0.139109
C71	C	0.905497	0.357665	-0.069468
H72	H	0.465143	0.347447	-0.404330
H73	H	0.914533	0.236407	-0.742851
H74	H	0.666970	0.271840	-0.374707
H75	H	0.933606	0.903852	-0.407444
H76	H	0.914533	0.236359	-0.861563
H77	H	0.144627	0.271896	-0.374735
H78	H	0.982703	0.903675	-0.224660
H79	H	0.263333	0.271882	-0.374726
H80	H	0.548129	0.443945	-0.229076
H81	H	0.896292	0.479185	-0.742869
H82	H	0.144490	0.444006	-0.229108
H83	H	0.832747	0.443874	-0.944660
H84	H	0.832740	0.443983	-0.659733
H85	H	0.828073	0.811224	-0.379055
H86	H	0.799921	0.904071	-0.273580
H87	H	0.465026	0.368352	-0.199460
H88	H	0.832743	0.443816	-1.063370
H89	H	0.548263	0.271841	-0.374706
H90	H	1.010848	0.810990	-0.330287
H91	H	0.877092	0.811301	-0.196345
H92	H	0.346321	0.368374	-0.199468
H93	H	0.978244	0.271510	-1.063407
H94	H	0.978242	0.271734	-0.541064
H95	H	0.263203	0.443981	-0.229100
H96	H	0.832727	0.444031	-0.541020
H97	H	0.978248	0.271564	-0.944700
H98	H	0.896466	0.479153	-0.861573
H99	H	0.346430	0.347462	-0.404340
H100	H	0.666840	0.443934	-0.229073
H101	H	0.978238	0.271680	-0.659771
