data_functionalizedCrystal
_audit_creation_method	'MofGen! by Chris Wilmer'
_symmetry_space_group_name_H-M	'P1'
_symmetry_Int_Tables_number	1
_symmetry_cell_setting	triclinic
loop_
_symmetry_equiv_pos_as_xyz
  x,y,z
_cell_length_a	14.044191
_cell_length_b	19.188930
_cell_length_c	12.503552
_cell_angle_alpha	86.497392
_cell_angle_beta	93.842477
_cell_angle_gamma	88.168279
loop_
_atom_site_label
_atom_site_type_symbol
_atom_site_fract_x
_atom_site_fract_y
_atom_site_fract_z
O1	O	1.262496	0.164613	0.089291
O2	O	0.986553	0.158535	0.089304
O3	O	1.132486	0.060434	0.089276
O4	O	1.116563	0.262715	0.089319
O5	O	1.121499	0.067818	-0.089364
O6	O	0.975565	0.165919	-0.089336
O7	O	1.251509	0.171997	-0.089349
Cu8	Cu	1.112534	0.169633	-0.105654
Cu9	Cu	1.125528	0.160900	0.105609
O10	O	1.105575	0.270099	-0.089322
C11	C	0.945756	0.159568	-0.000015
C12	C	0.840563	0.151637	-0.000011
C13	C	0.590103	0.193385	-0.000013
C14	C	0.647965	0.137150	-0.000023
C15	C	0.755136	0.145213	-0.000016
C16	C	0.482922	0.185324	-0.000020
C17	C	1.126477	0.038081	-0.000047
C18	C	1.124928	-0.039523	-0.000056
C19	C	1.210557	-0.078919	-0.000065
C20	C	1.209104	-0.151837	-0.000048
C21	C	1.122015	-0.185356	-0.000043
C22	C	1.036374	-0.145950	-0.000028
C23	C	1.037831	-0.073034	-0.000035
N24	N	1.051706	-0.295145	-0.060835
N25	N	1.050328	-0.364412	-0.060831
C26	C	1.117621	-0.405049	-0.000021
N27	N	1.186358	-0.373801	0.060771
N28	N	1.187738	-0.304526	0.060762
C29	C	1.120426	-0.264421	-0.000036
C30	C	1.201681	-0.523512	-0.000010
C31	C	1.200224	-0.596432	0.000014
C32	C	1.027491	-0.590543	0.000023
C33	C	1.028951	-0.517625	0.000010
C34	C	1.116048	-0.484114	-0.000012
C35	C	1.292306	0.170964	-0.000028
C36	C	1.397499	0.178895	-0.000025
C37	C	1.111585	0.292451	0.000004
C38	C	1.113134	0.370055	0.000020
N39	N	1.103401	0.175775	-0.254245
C40	C	1.148097	0.145715	-0.526687
C41	C	1.089975	0.184810	-0.473352
C42	C	1.097447	0.179782	-0.351429
C43	C	1.140626	0.150743	-0.648620
N44	N	1.134668	0.154753	0.254200
H45	H	1.281479	-0.051639	-0.000079
H46	H	0.968099	-0.040958	-0.000028
H47	H	1.203467	0.108471	-0.480787
C48	C	1.015998	0.234390	-0.534494
C49	C	0.924552	0.216163	-0.507270
C50	C	0.856386	0.261815	-0.563587
H51	H	1.027119	0.280893	-0.516162
H52	H	1.020658	0.231209	-0.609503
H53	H	0.919894	0.219351	-0.432277
H54	H	0.913399	0.169668	-0.525605
H55	H	0.861047	0.258634	-0.638597
H56	H	0.867517	0.308315	-0.545251
H57	H	0.794332	0.249450	-0.545131
H58	H	1.278836	-0.183920	-0.000051
C59	C	0.631553	0.265590	0.000068
C60	C	0.731156	0.259329	0.000101
C61	C	0.769385	0.325827	0.000194
H62	H	0.606943	0.292871	-0.062202
H63	H	0.614544	0.287660	0.062397
H64	H	0.748157	0.237269	-0.062222
H65	H	0.755792	0.232061	0.062367
H66	H	0.752376	0.347898	0.062523
H67	H	0.744768	0.353103	-0.062078
H68	H	0.836969	0.321588	0.000226
H69	H	0.965466	-0.173246	-0.000022
H70	H	0.617018	0.082947	0.000041
C71	C	1.296340	-0.487255	0.000043
C72	C	1.371026	-0.537369	0.000083
C73	C	1.458240	-0.503999	0.000151
H74	H	1.296811	-0.456368	-0.062238
H75	H	1.304376	-0.461517	0.062362
H76	H	1.362992	-0.563095	-0.062230
H77	H	1.370587	-0.568259	0.062359
H78	H	1.466276	-0.478261	0.062470
H79	H	1.458701	-0.473113	-0.062131
H80	H	1.508925	-0.537996	0.000188
C81	C	1.293186	-0.639251	0.000231
C82	C	1.303068	-0.685055	0.092160
C83	C	1.388700	-0.724504	0.092405
H84	H	1.292471	-0.665318	-0.061986
H85	H	1.345291	-0.608871	0.000274
H86	H	1.250977	-0.715432	0.092106
H87	H	1.303800	-0.659006	0.154392
H88	H	1.440805	-0.694124	0.092449
H89	H	1.387977	-0.750567	0.030184
H90	H	1.395421	-0.755582	0.154782
H91	H	0.956582	-0.617833	0.000032
C92	C	0.935873	-0.474967	-0.000050
C93	C	0.859289	-0.519923	-0.000071
C94	C	0.773526	-0.480651	-0.000138
H95	H	0.936545	-0.448958	0.062225
H96	H	0.928968	-0.443846	-0.062375
H97	H	0.866192	-0.551032	0.062248
H98	H	0.858586	-0.545933	-0.062341
H99	H	0.766621	-0.449530	-0.062462
H100	H	0.774208	-0.454644	0.062139
H101	H	0.721553	-0.511148	-0.000162
