data_functionalizedCrystal
_audit_creation_method	'MofGen! by Chris Wilmer'
_symmetry_space_group_name_H-M	'P1'
_symmetry_Int_Tables_number	1
_symmetry_cell_setting	triclinic
loop_
_symmetry_equiv_pos_as_xyz
  x,y,z
_cell_length_a	16.974800
_cell_length_b	10.489716
_cell_length_c	15.455313
_cell_angle_alpha	92.696181
_cell_angle_beta	90.973911
_cell_angle_gamma	83.958131
loop_
_atom_site_label
_atom_site_type_symbol
_atom_site_fract_x
_atom_site_fract_y
_atom_site_fract_z
O1	O	1.049988	0.162600	0.001611
O2	O	1.549988	0.662600	0.501611
O3	O	0.820665	0.182079	-0.014494
O4	O	1.320665	0.682079	0.485506
O5	O	0.940555	-0.013319	-0.006078
O6	O	1.440555	0.486681	0.493922
O7	O	0.930098	0.357999	-0.006806
O8	O	1.430098	0.857999	0.493194
O9	O	0.933699	-0.002192	0.137703
O10	O	1.433699	0.497808	0.637703
O11	O	0.813809	0.193207	0.129287
O12	O	1.313809	0.693207	0.629287
O13	O	1.043132	0.173728	0.145391
O14	O	1.543132	0.673728	0.645391
Cu15	Cu	0.927844	0.184483	0.150467
Cu16	Cu	1.427844	0.684483	0.650467
Cu17	Cu	0.935952	0.171324	-0.019570
Cu18	Cu	1.435952	0.671324	0.480430
O19	O	0.923242	0.369126	0.136975
O20	O	1.423242	0.869126	0.636975
C21	C	0.787872	0.186698	0.055334
C22	C	1.287872	0.686698	0.555334
C23	C	0.700375	0.183868	0.049189
C24	C	1.200375	0.683868	0.549189
C25	C	0.655536	0.188601	0.124679
C26	C	1.155536	0.688601	0.624679
C27	C	0.573324	0.185921	0.118908
C28	C	1.073324	0.685921	0.618908
C29	C	0.535952	0.178518	0.037645
C30	C	1.035952	0.678518	0.537645
C31	C	0.580797	0.173781	-0.037850
C32	C	1.080797	0.673781	0.462150
C33	C	0.663008	0.176451	-0.032078
C34	C	1.163008	0.676451	0.467922
C35	C	0.290479	0.169872	0.011977
C36	C	0.790479	0.669872	0.511977
C37	C	0.208262	0.167205	0.006211
C38	C	0.708262	0.667205	0.506211
C39	C	0.200794	0.179344	0.162969
C40	C	0.700794	0.679344	0.662969
C41	C	0.283006	0.182022	0.168734
C42	C	0.783006	0.682022	0.668734
C43	C	0.327845	0.177277	0.093239
C44	C	0.827845	0.677277	0.593239
N45	N	0.451918	0.175783	0.031744
N46	N	0.951918	0.675783	0.531744
N47	N	0.411878	0.180004	0.099141
N48	N	0.911878	0.680004	0.599141
C49	C	0.936341	-0.055279	0.065755
C50	C	1.436341	0.444721	0.565755
C51	C	0.933991	-0.196884	0.065582
C52	C	1.433991	0.303116	0.565582
C53	C	1.007511	-0.295387	0.070753
C54	C	1.507511	0.204613	0.570753
C55	C	0.972041	-0.377795	-0.002865
C56	C	1.472041	0.122205	0.497135
C57	C	0.965265	-0.366788	0.138891
C58	C	1.465265	0.133212	0.638891
C59	C	0.898555	-0.277432	-0.008092
C60	C	1.398555	0.222568	0.491908
C61	C	0.891786	-0.266415	0.133728
C62	C	1.391786	0.233585	0.633728
C63	C	0.856264	-0.348776	0.060089
C64	C	1.356264	0.151224	0.560089
C65	C	1.075925	0.169108	0.075561
C66	C	1.575925	0.669108	0.575561
C67	C	1.163423	0.171938	0.081701
C68	C	1.663423	0.671938	0.581701
C69	C	0.927456	0.411086	0.065141
C70	C	1.427456	0.911086	0.565141
C71	C	0.929806	0.552691	0.065308
C72	C	1.429806	1.052691	0.565308
N73	N	0.922147	0.193738	0.270063
N74	N	1.422147	0.693738	0.770063
N75	N	0.941656	0.162058	-0.139165
N76	N	1.441656	0.662058	0.360835
C77	C	0.973099	0.110757	0.319034
C78	C	1.473099	0.610757	0.819034
C79	C	0.968798	0.117768	0.409540
C80	C	1.468798	0.617768	0.909540
C81	C	0.913548	0.207768	0.451073
C82	C	1.413548	0.707768	0.951073
C83	C	0.862591	0.290753	0.402096
C84	C	1.362591	0.790753	0.902096
C85	C	0.866889	0.283735	0.311591
C86	C	1.366889	0.783735	0.811591
C87	C	0.894997	0.238026	0.721353
C88	C	1.394997	0.738026	1.221353
C89	C	0.890704	0.245040	0.811864
C90	C	1.390704	0.745040	1.311864
C91	C	0.996910	0.072053	0.819302
C92	C	1.496910	0.572053	1.319302
C93	C	1.001206	0.065048	0.728795
C94	C	1.501206	0.565048	1.228795
C95	C	0.950247	0.148028	0.679825
C96	C	1.450247	0.648028	1.179825
N97	N	0.909152	0.214939	0.543585
N98	N	1.409152	0.714939	1.043585
N99	N	0.954639	0.140850	0.587315
N100	N	1.454639	0.640850	1.087315
H101	H	0.313429	0.188044	0.234907
H102	H	0.813429	0.688044	0.734907
H103	H	0.870397	-0.238422	-0.070268
H104	H	1.370397	0.261578	0.429732
H105	H	1.018092	0.037475	0.285224
H106	H	1.518092	0.537475	0.785224
Br107	Br	0.787602	0.412889	0.458459
Br108	Br	1.287602	0.912889	0.958459
Br109	Br	0.749600	-0.388302	0.052541
Br110	Br	1.249600	0.111698	0.552541
Br111	Br	1.066065	-0.040561	0.885764
Br112	Br	1.566065	0.459439	1.385764
H113	H	0.825398	0.351306	0.271719
H114	H	1.325398	0.851306	0.771719
H115	H	0.857920	-0.217909	0.191485
H116	H	1.357920	0.282091	0.691485
H117	H	0.699515	0.172600	-0.093550
H118	H	1.199515	0.672600	0.406450
H119	H	1.071464	-0.271437	0.075172
H120	H	1.571464	0.228563	0.575172
Br121	Br	0.530084	0.163677	-0.148136
Br122	Br	1.030084	0.663677	0.351864
H123	H	0.164278	0.183204	0.224433
H124	H	0.664278	0.683204	0.724433
Br125	Br	0.157542	0.157166	-0.104081
Br126	Br	0.657542	0.657166	0.395919
Br127	Br	0.825841	0.350641	0.654898
Br128	Br	1.325841	0.850641	1.154898
Br129	Br	0.351321	0.163432	-0.090481
Br130	Br	0.851321	0.663432	0.409519
H131	H	1.005935	-0.426279	-0.060618
H132	H	1.505935	0.073721	0.439382
H133	H	0.993459	-0.405973	0.201001
H134	H	1.493459	0.094027	0.701001
H135	H	1.046195	-0.008237	0.694981
H136	H	1.546195	0.491763	1.194981
Br137	Br	0.706245	0.198662	0.234969
Br138	Br	1.206245	0.698662	0.734969
H139	H	0.536821	0.189754	0.180380
H140	H	1.036821	0.689754	0.680380
H141	H	1.010286	0.050197	0.449412
H142	H	1.510286	0.550197	0.949412
H143	H	0.845711	0.318334	0.845676
H144	H	1.345711	0.818334	1.345676
