data_functionalizedCrystal
_audit_creation_method	'MofGen! by Chris Wilmer'
_symmetry_space_group_name_H-M	'P1'
_symmetry_Int_Tables_number	1
_symmetry_cell_setting	triclinic
loop_
_symmetry_equiv_pos_as_xyz
  x,y,z
_cell_length_a	16.956984
_cell_length_b	16.956984
_cell_length_c	15.455313
_cell_angle_alpha	92.464369
_cell_angle_beta	87.518126
_cell_angle_gamma	76.053419
loop_
_atom_site_label
_atom_site_type_symbol
_atom_site_fract_x
_atom_site_fract_y
_atom_site_fract_z
O1	O	1.059594	0.029448	-0.072135
O2	O	0.825582	0.057566	-0.072136
O3	O	0.956647	-0.073498	-0.072129
O4	O	0.928529	0.160512	-0.072142
O5	O	0.949154	-0.066033	0.072132
O6	O	0.818089	0.065032	0.072126
O7	O	1.052101	0.036914	0.072127
Cu8	Cu	0.934411	0.051654	0.085299
Cu9	Cu	0.943272	0.042825	-0.085308
O10	O	0.921036	0.167978	0.072120
C11	C	0.792033	0.062739	-0.000005
C12	C	0.703230	0.067019	-0.000005
C13	C	0.675864	-0.004554	-0.000000
C14	C	0.592423	-0.000527	-0.000006
C15	C	0.536350	0.075074	-0.000012
C16	C	0.563722	0.146652	-0.000020
C17	C	0.647161	0.142624	-0.000020
C18	C	0.285264	0.095010	-0.000019
C19	C	0.201820	0.099033	-0.000017
C20	C	0.230527	-0.048147	-0.000005
C21	C	0.313966	-0.052168	0.000001
C22	C	0.341331	0.019410	-0.000012
N23	N	0.451061	0.079192	-0.000016
N24	N	0.426620	0.015291	-0.000014
C25	C	0.954340	-0.099568	0.000001
C26	C	0.958621	-0.188371	0.000001
C27	C	0.887048	-0.215738	-0.000004
C28	C	0.891075	-0.299178	-0.000001
C29	C	0.966676	-0.355251	-0.000001
C30	C	1.038254	-0.327880	0.000006
C31	C	1.034226	-0.244441	0.000010
C32	C	0.986613	-0.606339	-0.000007
C33	C	0.990636	-0.689783	-0.000013
C34	C	0.843456	-0.661075	-0.000018
C35	C	0.839435	-0.577636	-0.000020
C36	C	0.911013	-0.550271	-0.000008
N37	N	0.970794	-0.440542	-0.000001
N38	N	0.906893	-0.464982	-0.000002
C39	C	1.085650	0.031741	-0.000006
C40	C	1.174453	0.027460	-0.000011
C41	C	0.923343	0.194048	-0.000012
C42	C	0.919063	0.282851	-0.000017
N43	N	0.928184	0.057864	0.205294
N44	N	0.949506	0.036609	-0.205303
C45	C	0.983882	0.002201	0.250691
C46	C	0.979180	0.006904	0.341498
C47	C	0.918783	0.067273	0.386907
C48	C	0.863080	0.122938	0.341504
C49	C	0.867779	0.118232	0.250698
C50	C	0.898501	0.087568	0.658488
C51	C	0.893808	0.092272	0.749300
C52	C	1.009908	-0.023764	0.749288
C53	C	1.014604	-0.028463	0.658480
C54	C	0.958898	0.027200	0.613085
N55	N	0.913977	0.072083	0.479727
N56	N	0.963702	0.022386	0.520267
H57	H	0.669440	0.200907	-0.000020
H58	H	0.777872	-0.531985	-0.000023
H59	H	0.785181	-0.683365	-0.000026
H60	H	1.092508	-0.222161	0.000014
N61	N	1.039279	-0.053107	0.390463
H62	H	1.078265	-0.092052	0.347918
H63	H	1.070692	-0.022772	0.428108
H64	H	0.822423	0.163557	0.213737
N65	N	1.072181	-0.750266	-0.000019
H66	H	1.116915	-0.720270	-0.000012
H67	H	1.074277	-0.782752	0.053455
H68	H	1.033066	-0.046955	0.213725
H69	H	0.721514	-0.066116	0.000008
H70	H	0.570147	-0.058809	-0.000003
N71	N	0.201019	-0.125349	-0.000005
H72	H	0.219038	-0.155454	0.053475
H73	H	0.139656	-0.111269	-0.000040
H74	H	0.825485	-0.170088	-0.000008
H75	H	0.853145	0.132892	0.621534
H76	H	1.063784	-0.077621	0.621510
H77	H	0.832793	-0.321455	-0.000011
H78	H	1.055260	-0.069083	0.786257
H79	H	0.359617	-0.113730	0.000009
H80	H	1.044897	-0.584069	0.000000
N81	N	0.797931	0.188047	0.390476
H82	H	0.803406	0.182585	0.454890
H83	H	0.804253	0.243436	0.374590
H84	H	1.099810	-0.373541	0.000012
H85	H	0.844623	0.141436	0.786268
H86	H	0.307534	0.153294	-0.000035
N87	N	0.141339	0.180576	-0.000053
H88	H	0.171335	0.225309	-0.000073
H89	H	0.108887	0.182656	-0.053541
H90	H	0.518061	0.208208	-0.000030
