data_functionalizedCrystal
_audit_creation_method	'MofGen! by Chris Wilmer'
_symmetry_space_group_name_H-M	'P1'
_symmetry_Int_Tables_number	1
_symmetry_cell_setting	triclinic
loop_
_symmetry_equiv_pos_as_xyz
  x,y,z
_cell_length_a	17.699083
_cell_length_b	11.792254
_cell_length_c	16.176319
_cell_angle_alpha	89.993043
_cell_angle_beta	89.998611
_cell_angle_gamma	83.740806
loop_
_atom_site_label
_atom_site_type_symbol
_atom_site_fract_x
_atom_site_fract_y
_atom_site_fract_z
O1	O	1.004848	0.143526	-0.068631
O2	O	1.504848	0.643526	0.431369
O3	O	0.784570	0.162199	-0.068658
O4	O	1.284570	0.662199	0.431342
O5	O	0.900049	-0.012371	-0.068638
O6	O	1.400049	0.487629	0.431362
O7	O	0.889368	0.318096	-0.068651
O8	O	1.389368	0.818096	0.431349
O9	O	0.900033	-0.012382	0.068855
O10	O	1.400033	0.487618	0.568855
O11	O	0.784554	0.162188	0.068835
O12	O	1.284554	0.662188	0.568835
O13	O	1.004832	0.143515	0.068862
O14	O	1.504832	0.643515	0.568862
Cu15	Cu	0.894691	0.152850	0.081403
Cu16	Cu	1.394691	0.652850	0.581403
Cu17	Cu	0.894710	0.152864	-0.081199
Cu18	Cu	1.394710	0.652864	0.418801
O19	O	0.889352	0.318085	0.068842
O20	O	1.389352	0.818085	0.568842
C21	C	0.756361	0.161524	0.000085
C22	C	1.256361	0.661524	0.500085
C23	C	0.672332	0.159517	0.000075
C24	C	1.172332	0.659517	0.500075
C25	C	0.624261	0.261986	0.000071
C26	C	1.124261	0.761986	0.500071
C27	C	0.545307	0.260093	0.000082
C28	C	1.045307	0.760093	0.500082
C29	C	0.514427	0.155730	0.000091
C30	C	1.014427	0.655730	0.500091
C31	C	0.562505	0.053253	0.000097
C32	C	1.062505	0.553253	0.500097
C33	C	0.641457	0.055147	0.000092
C34	C	1.141457	0.555147	0.500092
C35	C	0.244101	0.045613	0.000118
C36	C	0.744101	0.545613	0.500118
C37	C	0.165143	0.043727	0.000120
C38	C	0.665143	0.543727	0.500120
C39	C	0.147951	0.250559	0.000107
C40	C	0.647951	0.750559	0.500107
C41	C	0.226903	0.252453	0.000103
C42	C	0.726903	0.752453	0.500103
C43	C	0.274974	0.149977	0.000113
C44	C	0.774974	0.649977	0.500113
C45	C	0.360584	0.152030	0.000103
C46	C	0.860584	0.652030	0.500103
C47	C	0.428818	0.153675	0.000095
C48	C	0.928818	0.653675	0.500095
C49	C	0.899369	-0.054659	0.000108
C50	C	1.399369	0.445341	0.500108
C51	C	0.897355	-0.180648	0.000107
C52	C	1.397355	0.319352	0.500107
C53	C	0.895718	-0.282965	0.000104
C54	C	1.395718	0.217035	0.500104
C55	C	0.893672	-0.411327	0.000096
C56	C	1.393672	0.088673	0.500096
C57	C	1.033041	0.144190	0.000117
C58	C	1.533041	0.644190	0.500117
C59	C	1.117070	0.146197	0.000122
C60	C	1.617070	0.646197	0.500122
C61	C	0.890033	0.360373	0.000094
C62	C	1.390033	0.860373	0.500094
C63	C	0.892047	0.486362	0.000090
C64	C	1.392047	0.986362	0.500090
N65	N	0.894684	0.152841	0.195768
N66	N	1.394684	0.652841	0.695768
N67	N	0.894724	0.152865	-0.195564
N68	N	1.394724	0.652865	0.304436
C69	C	0.945834	0.075572	0.239041
C70	C	1.445834	0.575572	0.739041
C71	C	0.945838	0.075571	0.325588
C72	C	1.445838	0.575571	0.825588
C73	C	0.894694	0.152844	0.368861
C74	C	1.394694	0.652844	0.868861
C75	C	0.843539	0.230116	0.325582
C76	C	1.343539	0.730116	0.825582
C77	C	0.843532	0.230111	0.239036
C78	C	1.343532	0.730111	0.739036
C79	C	0.843565	0.230138	0.674610
C80	C	1.343565	0.730138	1.174610
C81	C	0.843577	0.230139	0.761161
C82	C	1.343577	0.730139	1.261161
C83	C	0.945870	0.075598	0.761162
C84	C	1.445870	0.575598	1.261162
C85	C	0.945864	0.075592	0.674617
C86	C	1.445864	0.575592	1.174617
C87	C	0.894706	0.152860	0.631345
C88	C	1.394706	0.652860	1.131345
C89	C	0.894701	0.152859	0.537501
C90	C	1.394701	0.652859	1.037501
C91	C	0.894702	0.152852	0.462703
C92	C	1.394702	0.652852	0.962703
H93	H	0.506170	0.343534	0.000078
H94	H	1.006170	0.843534	0.500078
H95	H	0.252041	0.337436	0.000092
H96	H	0.752041	0.837436	0.500092
H97	H	0.801893	0.293030	0.360819
H98	H	1.301893	0.793030	0.860819
H99	H	0.283231	-0.037830	0.000127
H100	H	0.783231	0.462170	0.500127
H101	H	0.537356	-0.031721	0.000116
H102	H	1.037356	0.468279	0.500116
H103	H	0.680597	-0.028293	0.000095
H104	H	1.180597	0.471707	0.500095
H105	H	0.801879	0.293029	0.203804
H106	H	1.301879	0.793029	0.703804
H107	H	0.649397	0.346971	0.000063
H108	H	1.149397	0.846971	0.500063
H109	H	0.108802	0.334000	0.000103
H110	H	0.608802	0.834000	0.500103
H111	H	0.987483	0.012652	0.203814
H112	H	1.487483	0.512652	0.703814
H113	H	0.987487	0.012653	0.360821
H114	H	1.487487	0.512653	0.860821
H115	H	0.140004	-0.041263	0.000128
H116	H	0.640004	0.458737	0.500128
H117	H	0.987511	0.012673	0.639387
H118	H	1.487511	0.512673	1.139387
H119	H	0.987524	0.012679	0.796403
H120	H	1.487524	0.512679	1.296403
H121	H	0.801927	0.293066	0.796392
H122	H	1.301927	0.793066	1.296392
H123	H	0.801912	0.293053	0.639385
H124	H	1.301912	0.793053	1.139385
