data_functionalizedCrystal
_audit_creation_method	'MofGen! by Chris Wilmer'
_symmetry_space_group_name_H-M	'P1'
_symmetry_Int_Tables_number	1
_symmetry_cell_setting	triclinic
loop_
_symmetry_equiv_pos_as_xyz
  x,y,z
_cell_length_a	16.625548
_cell_length_b	18.101397
_cell_length_c	16.625539
_cell_angle_alpha	89.970010
_cell_angle_beta	89.982945
_cell_angle_gamma	90.021534
loop_
_atom_site_label
_atom_site_type_symbol
_atom_site_fract_x
_atom_site_fract_y
_atom_site_fract_z
Zn1	Zn	1.232664	-0.294821	-0.455889
Zn2	Zn	1.232580	-0.418666	-0.321048
Zn3	Zn	1.097834	-0.294845	-0.321070
Zn4	Zn	1.097801	-0.418627	-0.455838
O5	O	1.165220	-0.356740	-0.388461
O6	O	1.345485	-0.311255	-0.438015
O7	O	1.214684	-0.402267	-0.208219
O8	O	1.115768	-0.191209	-0.338985
O9	O	1.345423	-0.402243	-0.338948
O10	O	1.214827	-0.191191	-0.438036
O11	O	1.115687	-0.311296	-0.208235
O12	O	0.984997	-0.311259	-0.338935
O13	O	1.115712	-0.402178	-0.568677
O14	O	0.984973	-0.402201	-0.437949
O15	O	1.214795	-0.311218	-0.568715
O16	O	1.214652	-0.522294	-0.338898
O17	O	1.115630	-0.522265	-0.437928
C18	C	0.955729	-0.356729	-0.388439
C19	C	0.866108	-0.356742	-0.388448
C20	C	1.165151	-0.549150	-0.388422
C21	C	1.165195	-0.631464	-0.388433
C22	C	0.537932	-0.356747	-0.388483
C23	C	0.629240	-0.356744	-0.388471
C24	C	0.702017	-0.356745	-0.388465
C25	C	0.793331	-0.356741	-0.388454
C26	C	1.165298	-0.930555	-0.388506
C27	C	1.227426	-0.899217	-0.326033
C28	C	1.227641	-0.813598	-0.326194
C29	C	1.165247	-0.782173	-0.388469
C30	C	1.188278	-0.813180	-0.473459
C31	C	1.188759	-0.898825	-0.473119
C32	C	1.079973	-0.899065	-0.366725
C33	C	1.080394	-0.813416	-0.364828
C34	C	1.165216	-0.698313	-0.388453
C35	C	1.165330	-1.014415	-0.388528
C36	C	1.375528	-0.356751	-0.388485
C37	C	1.465149	-0.356756	-0.388494
C38	C	1.165259	-0.356691	-0.598770
C39	C	1.165276	-0.356670	-0.688392
C40	C	1.165311	-0.163578	-0.388518
C41	C	1.165350	-0.081264	-0.388543
C42	C	1.165289	-0.356654	-0.761174
C43	C	1.165308	-0.356626	-0.852483
C44	C	1.165327	-0.356600	-0.925259
C45	C	1.165347	-0.356573	-1.016574
C46	C	1.165227	-0.356735	-0.178971
C47	C	1.165366	-0.356547	-0.089350
H48	H	1.213233	-0.792637	-0.263176
H49	H	1.290284	-0.920684	-0.340278
C50	C	1.313021	-0.785836	-0.345674
C51	C	1.381220	-0.841597	-0.361136
C52	C	1.466603	-0.813835	-0.380621
C53	C	1.483788	-0.730313	-0.384645
C54	C	1.415587	-0.674548	-0.369183
C55	C	1.330204	-0.702309	-0.349697
H56	H	1.368500	-0.903429	-0.358157
H57	H	1.517089	-0.855117	-0.392067
H58	H	1.546994	-0.709763	-0.399069
H59	H	1.428307	-0.612715	-0.372161
H60	H	1.279718	-0.661028	-0.338251
H61	H	1.031615	-0.792032	-0.406999
C62	C	1.273014	-0.925740	-0.498035
C63	C	1.339393	-0.869305	-0.518104
C64	C	1.423652	-0.896215	-0.543019
C65	C	1.441531	-0.979560	-0.547866
C66	C	1.375150	-1.036001	-0.527796
C67	C	1.290892	-1.009091	-0.502881
H68	H	1.326160	-0.807603	-0.514517
H69	H	1.472791	-0.854433	-0.557876
H70	H	1.503904	-0.999481	-0.566309
H71	H	1.388384	-1.097703	-0.531383
H72	H	1.241753	-1.050872	-0.488024
C73	C	1.208215	-0.927116	-0.240642
C74	C	1.135879	-0.978697	-0.226590
C75	C	1.116668	-1.006603	-0.141197
C76	C	1.169792	-0.982928	-0.069856
C77	C	1.242131	-0.931344	-0.083906
C78	C	1.261343	-0.903438	-0.169298
H79	H	1.096550	-0.996225	-0.279403
H80	H	1.063117	-1.044789	-0.130797
H81	H	1.155570	-1.003586	-0.006643
H82	H	1.281461	-0.913816	-0.031093
H83	H	1.314894	-0.865252	-0.179698
C84	C	1.130288	-0.926834	-0.538149
C85	C	1.083310	-0.871269	-0.590226
C86	C	1.024845	-0.899274	-0.655259
C87	C	1.013359	-0.982844	-0.668215
C88	C	1.060339	-1.038415	-0.616136
C89	C	1.118803	-1.010410	-0.551103
H90	H	1.091811	-0.809400	-0.580637
H91	H	0.990068	-0.858136	-0.693811
H92	H	0.970080	-1.003575	-0.716356
H93	H	1.051837	-1.100283	-0.625725
H94	H	1.153581	-1.051547	-0.512551
H95	H	1.144410	-0.792822	-0.521259
C96	C	1.051665	-0.928316	-0.284449
C97	C	1.101452	-0.912131	-0.208377
C98	C	1.073155	-0.941382	-0.126097
C99	C	0.995071	-0.986817	-0.119891
C100	C	0.945279	-1.003004	-0.195966
C101	C	0.973576	-0.973754	-0.278245
H102	H	1.159259	-0.878495	-0.212969
H103	H	1.110014	-0.929398	-0.069781
H104	H	0.974123	-1.008470	-0.058983
H105	H	0.887472	-1.036640	-0.191374
H106	H	0.936717	-0.985737	-0.334561
C107	C	1.056929	-0.786054	-0.280331
C108	C	1.114518	-0.735578	-0.232997
C109	C	1.091057	-0.708215	-0.148498
C110	C	1.010007	-0.731327	-0.111334
C111	C	0.952412	-0.781806	-0.158669
C112	C	0.975873	-0.809169	-0.243167
H113	H	1.174521	-0.718466	-0.260508
H114	H	1.133693	-0.670847	-0.113458
H115	H	0.992639	-0.711071	-0.048783
H116	H	0.892409	-0.798917	-0.131158
H117	H	0.933237	-0.846537	-0.278208
H118	H	1.249948	-0.791672	-0.492221
C119	C	1.017431	-0.926448	-0.428186
C120	C	1.002549	-1.009850	-0.438770
C121	C	0.940015	-1.037237	-0.500232
C122	C	0.892364	-0.981221	-0.551112
C123	C	0.907245	-0.897814	-0.540530
C124	C	0.969779	-0.870427	-0.479067
H125	H	1.037824	-1.051321	-0.401104
H126	H	0.928999	-1.098981	-0.508065
H127	H	0.846072	-1.001494	-0.596610
H128	H	0.871970	-0.856343	-0.578195
H129	H	0.980795	-0.808683	-0.471234
