data_functionalizedCrystal
_audit_creation_method	'MofGen! by Chris Wilmer'
_symmetry_space_group_name_H-M	'P1'
_symmetry_Int_Tables_number	1
_symmetry_cell_setting	triclinic
loop_
_symmetry_equiv_pos_as_xyz
  x,y,z
_cell_length_a	12.645331
_cell_length_b	12.645330
_cell_length_c	12.759393
_cell_angle_alpha	90.032183
_cell_angle_beta	90.022025
_cell_angle_gamma	90.012860
loop_
_atom_site_label
_atom_site_type_symbol
_atom_site_fract_x
_atom_site_fract_y
_atom_site_fract_z
Zn1	Zn	1.620760	-0.421971	0.594076
Zn2	Zn	1.620660	-0.599275	0.418394
Zn3	Zn	1.443477	-0.422026	0.418404
Zn4	Zn	1.443472	-0.599193	0.594025
O5	O	1.532092	-0.510616	0.506225
O6	O	1.769094	-0.445501	0.570788
O7	O	1.597116	-0.575820	0.271374
O8	O	1.467038	-0.273672	0.441733
O9	O	1.769020	-0.575766	0.441716
O10	O	1.597287	-0.273631	0.570798
O11	O	1.466941	-0.445596	0.271382
O12	O	1.295129	-0.445517	0.441684
O13	O	1.467029	-0.575627	0.741053
O14	O	1.295125	-0.575681	0.570711
O15	O	1.597282	-0.445422	0.741090
O16	O	1.597111	-0.747611	0.441666
O17	O	1.466932	-0.747551	0.570701
C18	C	1.256663	-0.510597	0.506194
C19	C	1.138833	-0.510614	0.506205
C20	C	1.093917	-0.428601	0.425166
C21	C	0.971358	-0.428298	0.425444
C22	C	0.970999	-0.480812	0.617114
C23	C	1.093597	-0.480199	0.616607
C24	C	1.093628	-0.622675	0.477382
C25	C	0.971020	-0.622090	0.474978
C26	C	1.532039	-0.786046	0.506200
C27	C	1.532113	-0.903876	0.506224
C28	C	1.613878	-1.071434	0.424884
C29	C	1.614144	-0.948873	0.425083
C30	C	1.562412	-0.948248	0.616970
C31	C	1.563061	-1.070846	0.616539
C32	C	1.420019	-1.071206	0.477911
C33	C	1.420556	-0.948602	0.475427
C34	C	1.808597	-0.510636	0.506256
C35	C	1.926428	-0.510645	0.506270
C36	C	1.532166	-0.510509	0.780258
C37	C	1.532198	-0.510464	0.897035
C38	C	1.532174	-0.234111	0.506273
C39	C	1.532209	-0.116281	0.506293
C40	C	1.532079	-0.510646	0.233257
C41	C	1.532253	-0.510393	0.116481
C42	C	1.600030	-0.442660	0.951918
C43	C	1.600055	-0.442621	1.061642
C44	C	1.464414	-0.578200	1.061590
C45	C	1.464384	-0.578232	0.951868
C46	C	1.667844	-0.374891	0.897085
C47	C	1.735683	-0.307082	0.951968
C48	C	1.735708	-0.307044	1.061693
C49	C	1.667895	-0.374814	1.116533
H50	H	0.941217	-0.446912	0.343269
N51	N	1.724210	-0.909903	0.449950
H52	H	1.772743	-0.972367	0.460832
H53	H	1.722272	-0.865638	0.515831
H54	H	1.790937	-0.251823	1.106376
N55	N	1.667917	-0.374780	1.234879
H56	H	1.595206	-0.355279	1.261301
H57	H	1.721222	-0.321549	1.261247
N58	N	1.134708	-0.319229	0.450213
H59	H	1.214492	-0.318987	0.446545
H60	H	1.111406	-0.298473	0.523076
H61	H	1.696528	-1.102162	0.443447
N62	N	1.391226	-0.651370	0.892671
H63	H	1.434281	-0.700511	0.847138
H64	H	1.342115	-0.608221	0.847215
H65	H	1.122672	-0.683773	0.536407
H66	H	1.667834	-0.374917	0.807742
N67	N	1.391276	-0.651279	1.120749
H68	H	1.434351	-0.700395	1.166268
H69	H	1.348304	-0.694169	1.069272
N70	N	1.132908	-0.452930	0.315949
H71	H	1.180066	-0.517350	0.317937
H72	H	1.174202	-0.390534	0.288292
H73	H	0.942041	-0.345271	0.444586
H74	H	1.122208	-0.398300	0.640971
H75	H	1.359169	-1.100209	0.537204
H76	H	1.790887	-0.251900	0.907310
H77	H	1.123316	-0.537361	0.679079
H78	H	0.941903	-0.538729	0.679171
N79	N	0.930355	-0.373534	0.649974
H80	H	0.883082	-0.344106	0.593230
H81	H	0.992052	-0.324151	0.661545
H82	H	1.504740	-0.919097	0.679252
N83	N	1.487698	-1.110142	0.699628
H84	H	1.527678	-1.154327	0.752321
H85	H	1.430742	-1.154555	0.665776
H86	H	1.124496	-0.649913	0.397899
N87	N	0.932435	-0.651908	0.366921
H88	H	0.886259	-0.593479	0.338349
H89	H	0.890210	-0.719572	0.371158
H90	H	0.940427	-0.686438	0.529666
N91	N	1.589048	-0.909130	0.316311
H92	H	1.577711	-0.971252	0.267802
H93	H	1.649892	-0.864856	0.289805
H94	H	1.595158	-1.100994	0.342527
H95	H	1.645067	-1.099356	0.640580
N96	N	1.669817	-0.907484	0.649349
H97	H	1.699001	-0.860283	0.592451
H98	H	1.719256	-0.969134	0.660746
H99	H	1.392466	-1.102223	0.398561
H100	H	1.397711	-0.919613	0.393927
N101	N	1.335593	-0.908026	0.548186
H102	H	1.368361	-0.859866	0.602390
H103	H	1.300327	-0.969692	0.584328
