data_functionalizedCrystal
_audit_creation_method	'MofGen! by Chris Wilmer'
_symmetry_space_group_name_H-M	'P1'
_symmetry_Int_Tables_number	1
_symmetry_cell_setting	triclinic
loop_
_symmetry_equiv_pos_as_xyz
  x,y,z
_cell_length_a	25.639239
_cell_length_b	25.639243
_cell_length_c	21.395355
_cell_angle_alpha	90.027154
_cell_angle_beta	89.980666
_cell_angle_gamma	89.958634
loop_
_atom_site_label
_atom_site_type_symbol
_atom_site_fract_x
_atom_site_fract_y
_atom_site_fract_z
Zn1	Zn	-0.208174	-0.799283	-0.354301
Zn2	Zn	0.291826	-0.299283	0.145699
Zn3	Zn	-0.295594	-0.799189	-0.249522
Zn4	Zn	0.204406	-0.299189	0.250478
Zn5	Zn	-0.208178	-0.711842	-0.249533
Zn6	Zn	0.291822	-0.211842	0.250467
Zn7	Zn	-0.295584	-0.711804	-0.354258
Zn8	Zn	0.204416	-0.211804	0.145742
O9	O	-0.251883	-0.755529	-0.301904
O10	O	0.248117	-0.255529	0.198096
O11	O	-0.219773	-0.872435	-0.340416
O12	O	0.280227	-0.372435	0.159584
O13	O	-0.284003	-0.787579	-0.161846
O14	O	0.215997	-0.287579	0.338154
O15	O	-0.135012	-0.723496	-0.263454
O16	O	0.364988	-0.223496	0.236546
O17	O	-0.283999	-0.872367	-0.263435
O18	O	0.216001	-0.372367	0.236565
O19	O	-0.135009	-0.787738	-0.340426
O20	O	0.364991	-0.287738	0.159574
O21	O	-0.219780	-0.723405	-0.161854
O22	O	0.280220	-0.223405	0.338146
O23	O	-0.219771	-0.638672	-0.263412
O24	O	0.280229	-0.138672	0.236588
O25	O	-0.283983	-0.723432	-0.441941
O26	O	0.216017	-0.223432	0.058059
O27	O	-0.283987	-0.638644	-0.340352
O28	O	0.216013	-0.138644	0.159648
O29	O	-0.219763	-0.787702	-0.441973
O30	O	0.280237	-0.287702	0.058027
O31	O	-0.368758	-0.787542	-0.263393
O32	O	0.131242	-0.287542	0.236607
O33	O	-0.368751	-0.723341	-0.340342
O34	O	0.131249	-0.223341	0.159658
C35	C	-0.251879	-0.619687	-0.301879
C36	C	0.248121	-0.119687	0.198121
C37	C	-0.251890	-0.561573	-0.301883
C38	C	0.248110	-0.061573	0.198117
C39	C	-0.218492	-0.201240	-0.342054
C40	C	0.281508	0.298760	0.157946
C41	C	-0.218491	-0.146636	-0.342058
C42	C	0.281509	0.353364	0.157942
O43	O	-0.190085	-0.118425	-0.376182
O44	O	0.309915	0.381575	0.123818
N45	N	-0.251881	-0.119290	-0.301920
N46	N	0.248119	0.380710	0.198080
C47	C	-0.285269	-0.146552	-0.261772
C48	C	0.214731	0.353448	0.238228
O49	O	-0.313668	-0.118279	-0.227632
O50	O	0.186332	0.381721	0.272368
C51	C	-0.285266	-0.201155	-0.261765
C52	C	0.214734	0.298845	0.238235
C53	C	-0.251878	-0.228498	-0.301910
C54	C	0.248122	0.271502	0.198090
C55	C	-0.185106	-0.228582	-0.382195
C56	C	0.314894	0.271418	0.117805
C57	C	-0.185108	-0.283183	-0.382191
C58	C	0.314892	0.216817	0.117809
C59	C	-0.218494	-0.310441	-0.342047
C60	C	0.281506	0.189559	0.157953
C61	C	-0.251880	-0.283098	-0.301907
C62	C	0.248120	0.216902	0.198093
C63	C	-0.318651	-0.228416	-0.221615
C64	C	0.181349	0.271584	0.278385
C65	C	-0.318646	-0.283023	-0.221611
C66	C	0.181354	0.216977	0.278389
C67	C	-0.285258	-0.310366	-0.261756
C68	C	0.214742	0.189634	0.238244
C69	C	-0.285268	-0.364957	-0.261760
C70	C	0.214732	0.135043	0.238240
N71	N	-0.251878	-0.392302	-0.301897
N72	N	0.248122	0.107698	0.198103
C73	C	-0.218492	-0.365044	-0.342041
C74	C	0.281508	0.134956	0.157959
C75	C	-0.285271	-0.031882	-0.261788
C76	C	0.214729	0.468118	0.238212
C77	C	-0.285276	0.022721	-0.261797
C78	C	0.214724	0.522721	0.238203
C79	C	-0.218498	0.022634	-0.342082
C80	C	0.281502	0.522634	0.157918
C81	C	-0.218496	-0.031970	-0.342076
C82	C	0.281504	0.468030	0.157924
C83	C	-0.251882	-0.059227	-0.301925
C84	C	0.248118	0.440773	0.198075
C85	C	-0.218497	-0.479709	-0.342032
C86	C	0.281503	0.020291	0.157968
C87	C	-0.218503	-0.534315	-0.342027
C88	C	0.281497	-0.034315	0.157973
C89	C	-0.285279	-0.534223	-0.261740
C90	C	0.214721	-0.034223	0.238260
C91	C	-0.285276	-0.479622	-0.261747
C92	C	0.214724	0.020378	0.238253
C93	C	-0.251880	-0.452367	-0.301895
C94	C	0.248120	0.047633	0.198105
O95	O	-0.313658	-0.393203	-0.227651
O96	O	0.186342	0.106797	0.272349
O97	O	-0.190092	-0.393324	-0.376169
O98	O	0.309908	0.106676	0.123831
C99	C	-0.387725	-0.755441	-0.301875
C100	C	0.112275	-0.255441	0.198125
C101	C	-0.445839	-0.755452	-0.301884
C102	C	0.054161	-0.255452	0.198116
C103	C	-0.806193	-0.789046	-0.261905
C104	C	-0.306193	-0.289046	0.238095
C105	C	-0.860797	-0.789067	-0.261913
C106	C	-0.360797	-0.289067	0.238087
O107	O	-0.889027	-0.817539	-0.227890
O108	O	-0.389027	-0.317539	0.272110
N109	N	-0.888122	-0.755621	-0.301945
N110	N	-0.388122	-0.255621	0.198055
C111	C	-0.860838	-0.722157	-0.341976
C112	C	-0.360838	-0.222157	0.158024
O113	O	-0.889094	-0.693712	-0.376028
O114	O	-0.389094	-0.193712	0.123972
C115	C	-0.806235	-0.722140	-0.341970
C116	C	-0.306235	-0.222140	0.158030
C117	C	-0.778914	-0.755584	-0.301931
C118	C	-0.278914	-0.255584	0.198069
C119	C	-0.778872	-0.822488	-0.221869
C120	C	-0.278872	-0.322488	0.278131
C121	C	-0.724271	-0.822467	-0.221860
C122	C	-0.224271	-0.322467	0.278140
C123	C	-0.696992	-0.789004	-0.261887
C124	C	-0.196992	-0.289004	0.238113
C125	C	-0.724313	-0.755563	-0.301922
C126	C	-0.224313	-0.255563	0.198078
C127	C	-0.778953	-0.688679	-0.382004
C128	C	-0.278953	-0.188679	0.117996
C129	C	-0.724346	-0.688665	-0.381995
C130	C	-0.224346	-0.188665	0.118005
C131	C	-0.697025	-0.722109	-0.341956
C132	C	-0.197025	-0.222109	0.158044
C133	C	-0.642434	-0.722079	-0.341939
C134	C	-0.142434	-0.222079	0.158061
N135	N	-0.615110	-0.755524	-0.301907
N136	N	-0.115110	-0.255524	0.198093
C137	C	-0.642389	-0.788987	-0.261881
C138	C	-0.142389	-0.288987	0.238119
C139	C	-0.975509	-0.722197	-0.341986
C140	C	-0.475509	-0.222197	0.158014
C141	C	-1.030111	-0.722211	-0.341989
C142	C	-0.530111	-0.222211	0.158011
C143	C	-1.030067	-0.789121	-0.261927
C144	C	-0.530067	-0.289121	0.238073
C145	C	-0.975463	-0.789104	-0.261921
C146	C	-0.475463	-0.289104	0.238079
C147	C	-0.948185	-0.755642	-0.301954
C148	C	-0.448185	-0.255642	0.198046
C149	C	-0.527724	-0.788940	-0.261865
C150	C	-0.027724	-0.288940	0.238135
C151	C	-0.473118	-0.788914	-0.261857
C152	C	0.026882	-0.288914	0.238143
C153	C	-0.473168	-0.722006	-0.341921
C154	C	0.026832	-0.222006	0.158079
C155	C	-0.527769	-0.722030	-0.341927
C156	C	-0.027769	-0.222030	0.158073
C157	C	-0.555045	-0.755501	-0.301896
C158	C	-0.055045	-0.255501	0.198104
O159	O	-0.614170	-0.693623	-0.375947
O160	O	-0.114170	-0.193623	0.124053
O161	O	-0.614127	-0.817433	-0.227841
O162	O	-0.114127	-0.317433	0.272159
C163	C	-0.115509	-0.755632	-0.301946
C164	C	0.384491	-0.255632	0.198054
C165	C	-0.057395	-0.755676	-0.301964
C166	C	0.442605	-0.255676	0.198036
C167	C	-0.251872	-0.755573	-0.465327
C168	C	0.248128	-0.255573	0.034673
C169	C	-0.251867	-0.755591	-0.534968
C170	C	0.248133	-0.255591	-0.034968
C171	C	-0.251886	0.108098	-0.301929
C172	C	0.248114	0.608098	0.198071
C173	C	-0.251888	0.049984	-0.301939
C174	C	0.248112	0.549984	0.198061
C175	C	-0.218427	-0.789055	-0.567699
C176	C	0.281573	-0.289055	-0.067699
C177	C	-0.218404	-0.789055	-0.633135
C178	C	0.281596	-0.289055	-0.133135
C179	C	-0.251832	-0.755595	-0.665837
C180	C	0.248168	-0.255595	-0.165837
C181	C	-0.285275	-0.722125	-0.633098
C182	C	0.214725	-0.222125	-0.133098
C183	C	-0.285293	-0.722123	-0.567664
C184	C	0.214707	-0.222123	-0.067664
C185	C	-0.298909	-0.751437	-0.769501
C186	C	0.201091	-0.251437	-0.269501
C187	C	-0.298892	-0.751442	-0.834934
C188	C	0.201108	-0.251442	-0.334934
C189	C	-0.251777	-0.755599	-0.867658
C190	C	0.248223	-0.255599	-0.367658
C191	C	-0.204676	-0.759760	-0.834940
C192	C	0.295324	-0.259760	-0.334940
C193	C	-0.204694	-0.759758	-0.769506
C194	C	0.295306	-0.259758	-0.269506
C195	C	-0.251816	-0.755594	-0.736789
C196	C	0.248184	-0.255594	-0.236789
C197	C	-0.218309	-0.789064	-0.971341
C198	C	0.281691	-0.289064	-0.471341
C199	C	-0.218285	-0.789059	-1.036778
C200	C	0.281715	-0.289059	-0.536778
C201	C	-0.285161	-0.722132	-1.036740
C202	C	0.214839	-0.222132	-0.536740
C203	C	-0.285179	-0.722134	-0.971304
C204	C	0.214821	-0.222134	-0.471304
C205	C	-0.251754	-0.755602	-0.938609
C206	C	0.248246	-0.255602	-0.438609
C207	C	-0.251855	-0.755516	-0.139116
C208	C	0.248145	-0.255516	0.360884
C209	C	-0.251713	-0.755599	-0.069475
C210	C	0.248287	-0.255599	0.430525
H211	H	-0.191311	0.044837	-0.374768
H212	H	0.308689	0.544837	0.125232
H213	H	-0.337244	-0.748057	-0.861568
H214	H	0.162756	-0.248057	-0.361568
H215	H	-0.312490	-0.694880	-0.659728
H216	H	0.187510	-0.194880	-0.159728
H217	H	-0.191209	-0.816307	-0.541082
H218	H	0.308791	-0.316307	-0.041082
H219	H	-0.345839	-0.206163	-0.188924
H220	H	0.154161	0.293837	0.311076
H221	H	-0.191314	-0.556575	-0.374719
H222	H	0.308686	-0.056575	0.125281
H223	H	-0.312463	-0.556426	-0.229057
H224	H	0.187537	-0.056426	0.270943
O225	O	-0.182328	-0.825138	-0.668456
O226	O	0.317672	-0.325138	-0.168456
H227	H	-0.205720	-0.851716	-0.698291
H228	H	0.294280	-0.351716	-0.198291
O229	O	-1.059493	-0.825225	-0.218764
O230	O	-0.559493	-0.325225	0.281236
H231	H	-1.102052	-0.819621	-0.225506
H232	H	-0.602052	-0.319621	0.274494
H233	H	-0.953222	-0.816337	-0.229318
H234	H	-0.453222	-0.316337	0.270682
O235	O	-0.153851	-0.764243	-0.870219
O236	O	0.346149	-0.264243	-0.370219
H237	H	-0.128183	-0.731019	-0.857631
H238	H	0.371817	-0.231019	-0.357631
O239	O	-1.059574	-0.686130	-0.385166
O240	O	-0.559574	-0.186130	0.114834
H241	H	-1.102127	-0.691758	-0.378448
H242	H	-0.602127	-0.191758	0.121552
O243	O	-0.182483	-0.450316	-0.385336
O244	O	0.317517	0.049684	0.114664
H245	H	-0.159274	-0.478509	-0.413249
H246	H	0.340726	0.021491	0.086751
O247	O	-0.443653	-0.824995	-0.218676
O248	O	0.056347	-0.324995	0.281324
H249	H	-0.401100	-0.819360	-0.225389
H250	H	0.098900	-0.319360	0.274611
O251	O	-0.149087	-0.312671	-0.425478
O252	O	0.350913	0.187329	0.074522
H253	H	-0.125868	-0.284536	-0.453382
H254	H	0.374132	0.215464	0.046618
H255	H	-0.345832	-0.305213	-0.188914
H256	H	0.154168	0.194787	0.311086
O257	O	-0.321240	-0.686025	-0.936007
O258	O	0.178760	-0.186025	-0.436007
H259	H	-0.362276	-0.694950	-0.948563
H260	H	0.137724	-0.194950	-0.448563
H261	H	-0.191089	-0.816313	-0.944719
H262	H	0.308911	-0.316313	-0.444719
O263	O	-0.349729	-0.746947	-0.734208
O264	O	0.150271	-0.246947	-0.234208
H265	H	-0.382477	-0.744059	-0.767949
H266	H	0.117523	-0.244059	-0.267949
H267	H	-0.312523	-0.694870	-0.541015
H268	H	0.187477	-0.194870	-0.041015
H269	H	-0.312462	-0.054071	-0.229094
H270	H	0.187538	0.445929	0.270906
H271	H	-0.157916	-0.206395	-0.414885
H272	H	0.342084	0.293605	0.085115
O273	O	-0.182479	-0.061460	-0.385365
O274	O	0.317521	0.438540	0.114635
H275	H	-0.159263	-0.033327	-0.413275
H276	H	0.340737	0.466673	0.086725
H277	H	-0.312470	0.044978	-0.229115
H278	H	0.187530	0.544978	0.270885
O279	O	-0.443740	-0.685913	-0.385089
O280	O	0.056260	-0.185913	0.114911
H281	H	-0.454193	-0.694863	-0.434275
H282	H	0.045807	-0.194863	0.065725
O283	O	-0.321286	-0.450126	-0.218451
O284	O	0.178714	0.049874	0.281549
H285	H	-0.344500	-0.478256	-0.190535
H286	H	0.155500	0.021744	0.309465
H287	H	-0.549926	-0.816196	-0.229269
H288	H	-0.049926	-0.316196	0.270731
O289	O	-0.694806	-0.858546	-0.178685
O290	O	-0.194806	-0.358546	0.321315
H291	H	-0.722956	-0.881820	-0.150863
H292	H	-0.222956	-0.381820	0.349137
H293	H	-0.801077	-0.849740	-0.189275
H294	H	-0.301077	-0.349740	0.310725
H295	H	-0.953302	-0.694944	-0.374583
H296	H	-0.453302	-0.194944	0.125417
H297	H	-0.801189	-0.661443	-0.414605
H298	H	-0.301189	-0.161443	0.085395
O299	O	-0.182216	-0.825155	-1.072085
O300	O	0.317784	-0.325155	-0.572085
H301	H	-0.158982	-0.848430	-1.038354
H302	H	0.341018	-0.348430	-0.538354
O303	O	-0.694923	-0.652567	-0.425166
O304	O	-0.194923	-0.152567	0.074834
H305	H	-0.723099	-0.629313	-0.453000
H306	H	-0.223099	-0.129313	0.047000
O307	O	-0.557242	-0.685959	-0.385108
O308	O	-0.057242	-0.185959	0.114892
H309	H	-0.529097	-0.662688	-0.412941
H310	H	-0.029097	-0.162688	0.087059
H311	H	-0.166343	-0.763145	-0.742870
H312	H	0.333657	-0.263145	-0.242870
O313	O	-0.321216	-0.686042	-1.072000
O314	O	0.178784	-0.186042	-0.572000
H315	H	-0.315588	-0.691666	-1.123001
H316	H	0.184412	-0.191666	-0.623001
