data_functionalizedCrystal
_audit_creation_method	'MofGen! by Chris Wilmer'
_symmetry_space_group_name_H-M	'P1'
_symmetry_Int_Tables_number	1
_symmetry_cell_setting	triclinic
loop_
_symmetry_equiv_pos_as_xyz
  x,y,z
_cell_length_a	12.811457
_cell_length_b	14.044190
_cell_length_c	11.892095
_cell_angle_alpha	94.240074
_cell_angle_beta	91.498327
_cell_angle_gamma	88.597539
loop_
_atom_site_label
_atom_site_type_symbol
_atom_site_fract_x
_atom_site_fract_y
_atom_site_fract_z
O1	O	1.401373	0.130896	0.049646
O2	O	1.901373	0.630896	0.549646
O3	O	1.099119	0.142797	0.018657
O4	O	1.599119	0.642797	0.518657
O5	O	1.245704	-0.001185	0.033708
O6	O	1.745704	0.498815	0.533708
O7	O	1.254788	0.274878	0.034595
O8	O	1.754788	0.774878	0.534595
O9	O	1.233480	0.010802	0.220460
O10	O	1.733480	0.510802	0.720460
O11	O	1.086895	0.154783	0.205409
O12	O	1.586895	0.654783	0.705409
O13	O	1.389149	0.142883	0.236399
O14	O	1.889149	0.642883	0.736399
Zn15	Zn	1.236081	0.150736	0.250555
Zn16	Zn	1.736081	0.650736	0.750555
Zn17	Zn	1.252187	0.134943	0.004501
Zn18	Zn	1.752187	0.634943	0.504501
O19	O	1.242564	0.286864	0.221347
O20	O	1.742564	0.786864	0.721347
C21	C	1.054092	0.147756	0.108043
C22	C	1.554092	0.647756	0.608043
C23	C	0.938134	0.144663	0.096155
C24	C	1.438134	0.644663	0.596155
C25	C	0.706909	0.151902	0.277437
C26	C	1.206909	0.651902	0.777437
C27	C	0.597956	0.148996	0.266273
C28	C	1.097956	0.648996	0.766273
C29	C	0.611274	0.135938	0.062664
C30	C	1.111274	0.635938	0.562664
C31	C	0.720227	0.138844	0.073828
C32	C	1.220227	0.638844	0.573828
C33	C	0.768040	0.146828	0.181218
C34	C	1.268040	0.646828	0.681218
C35	C	0.876995	0.149740	0.192381
C36	C	1.376995	0.649740	0.692381
C37	C	0.890311	0.136676	-0.011226
C38	C	1.390311	0.636676	0.488774
C39	C	0.781358	0.133770	-0.022390
C40	C	1.281358	0.633770	0.477610
C41	C	1.235619	-0.030548	0.126680
C42	C	1.735619	0.469452	0.626680
C43	C	1.223768	-0.135898	0.125475
C44	C	1.723768	0.364102	0.625475
C45	C	1.286151	-0.385529	0.131827
C46	C	1.786151	0.114471	0.631827
C47	C	1.202122	-0.328786	0.123219
C48	C	1.702122	0.171214	0.623219
C49	C	1.214169	-0.221453	0.124475
C50	C	1.714169	0.278547	0.624475
C51	C	1.274106	-0.492872	0.130571
C52	C	1.774106	0.007128	0.630571
C53	C	1.434177	0.137924	0.147010
C54	C	1.934177	0.637924	0.647010
C55	C	1.550135	0.141016	0.158890
C56	C	2.050135	0.641016	0.658890
C57	C	1.252649	0.316227	0.128373
C58	C	1.752649	0.816227	0.628373
C59	C	1.264501	0.421577	0.129570
C60	C	1.764501	0.921577	0.629570
N61	N	1.225098	0.161513	0.418481
N62	N	1.725098	0.661513	0.918481
N63	N	1.263178	0.124159	-0.163425
N64	N	1.763178	0.624159	0.336575
C65	C	1.339604	0.049111	0.666886
C66	C	1.839604	0.549111	1.166886
C67	C	1.331934	0.056651	0.784441
C68	C	1.831934	0.556651	1.284441
C69	C	1.202085	0.184129	0.771146
C70	C	1.702085	0.684129	1.271146
C71	C	1.209754	0.176588	0.653592
C72	C	1.709754	0.676588	1.153592
C73	C	1.278517	0.109078	0.601466
C74	C	1.778517	0.609078	1.101466
C75	C	1.286191	0.101543	0.483910
C76	C	1.786191	0.601543	0.983910
C77	C	1.156337	0.229016	0.470617
C78	C	1.656337	0.729016	0.970617
C79	C	1.148667	0.236556	0.588171
C80	C	1.648667	0.736556	1.088171
H81	H	0.940095	0.132550	-0.089575
H82	H	1.440095	0.632550	0.410425
O83	O	1.135136	0.249593	0.821731
O84	O	1.635136	0.749593	1.321731
C85	C	1.032334	0.231195	0.782276
C86	C	1.532334	0.731195	1.282276
H87	H	1.026882	0.153155	0.749174
H88	H	1.526882	0.653155	1.249174
H89	H	0.975959	0.246468	0.854337
H90	H	1.475959	0.746468	1.354337
H91	H	1.011030	0.279082	0.711417
H92	H	1.511030	0.779082	1.211417
O93	O	1.352860	0.035820	0.433336
O94	O	1.852860	0.535820	0.933336
C95	C	1.325279	-0.056429	0.459501
C96	C	1.825279	0.443571	0.959501
H97	H	1.239616	-0.055710	0.483253
H98	H	1.739616	0.444290	0.983253
H99	H	1.337892	-0.108899	0.382996
H100	H	1.837892	0.391101	0.882996
H101	H	1.376024	-0.079272	0.533410
H102	H	1.876024	0.420728	1.033410
H103	H	1.367131	-0.353501	0.140141
H104	H	1.867131	0.146499	0.640141
O105	O	1.406419	-0.016541	0.616422
O106	O	1.906419	0.483459	1.116422
C107	C	1.458719	-0.067833	0.699376
C108	C	1.958719	0.432167	1.199376
H109	H	1.410392	-0.064006	0.778791
H110	H	1.910392	0.435994	1.278791
H111	H	1.469809	-0.145608	0.666324
H112	H	1.969809	0.354392	1.166324
H113	H	1.538245	-0.035363	0.720091
H114	H	2.038245	0.464637	1.220091
H115	H	1.121136	-0.360816	0.114909
H116	H	1.621136	0.139184	0.614909
H117	H	1.381676	0.007818	0.837703
H118	H	1.881676	0.507818	1.337703
H119	H	1.092679	0.291519	0.630625
H120	H	1.592679	0.791519	1.130625
H121	H	1.106599	0.277848	0.417338
H122	H	1.606599	0.777848	0.917338
H123	H	0.915922	0.156247	0.279823
H124	H	1.415922	0.656247	0.779823
H125	H	0.745839	0.158415	0.364878
H126	H	1.245839	0.658415	0.864878
H127	H	0.572326	0.129422	-0.024767
H128	H	1.072326	0.629422	0.475233
O129	O	0.538726	0.153981	0.359856
O130	O	1.038726	0.653981	0.859856
C131	C	0.604297	0.161624	0.457029
C132	C	1.104297	0.661624	0.957029
H133	H	0.682388	0.191755	0.434983
H134	H	1.182388	0.691755	0.934983
H135	H	0.565820	0.211315	0.524760
H136	H	1.065820	0.711315	1.024760
H137	H	0.617705	0.087985	0.489920
H138	H	1.117705	0.587985	0.989920
O139	O	0.734848	0.126188	-0.126678
O140	O	1.234848	0.626188	0.373322
C141	C	0.668025	0.206101	-0.139644
C142	C	1.168025	0.706101	0.360356
H143	H	0.694163	0.267990	-0.078809
H144	H	1.194163	0.767990	0.421191
H145	H	0.671273	0.227823	-0.229953
H146	H	1.171273	0.727823	0.270047
H147	H	0.584609	0.187112	-0.120654
H148	H	1.084609	0.687112	0.379346
