data_functionalizedCrystal
_audit_creation_method	'MofGen! by Chris Wilmer'
_symmetry_space_group_name_H-M	'P1'
_symmetry_Int_Tables_number	1
_symmetry_cell_setting	triclinic
loop_
_symmetry_equiv_pos_as_xyz
  x,y,z
_cell_length_a	10.723023
_cell_length_b	10.723023
_cell_length_c	16.176319
_cell_angle_alpha	89.994236
_cell_angle_beta	89.993069
_cell_angle_gamma	84.467548
loop_
_atom_site_label
_atom_site_type_symbol
_atom_site_fract_x
_atom_site_fract_y
_atom_site_fract_z
O1	O	1.657194	0.175026	-0.068736
O2	O	2.157194	0.675026	0.431264
O3	O	1.294041	0.191780	-0.068739
O4	O	1.794041	0.691780	0.431261
O5	O	1.483994	0.001827	-0.068734
O6	O	1.983994	0.501827	0.431266
O7	O	1.467240	0.364979	-0.068741
O8	O	1.967240	0.864979	0.431259
O9	O	1.483968	0.001814	0.068759
O10	O	1.983968	0.501814	0.568759
O11	O	1.294015	0.191768	0.068754
O12	O	1.794015	0.691768	0.568754
O13	O	1.657167	0.175013	0.068757
O14	O	2.157167	0.675013	0.568757
Cu15	Cu	1.475588	0.183389	0.081310
Cu16	Cu	1.975588	0.683389	0.581310
Cu17	Cu	1.475620	0.183404	-0.081292
Cu18	Cu	1.975620	0.683404	0.418708
O19	O	1.467214	0.364967	0.068752
O20	O	1.967214	0.864967	0.568752
C21	C	1.247528	0.190555	0.000007
C22	C	1.747528	0.690555	0.500007
C23	C	1.108974	0.186908	0.000005
C24	C	1.608974	0.686908	0.500005
C25	C	0.904020	0.181518	-0.071220
C26	C	1.404020	0.681518	0.428780
C27	C	1.047223	0.185288	-0.071220
C28	C	1.547223	0.685288	0.428780
C29	C	1.482762	-0.044679	0.000011
C30	C	1.982762	0.455321	0.500011
C31	C	1.479115	-0.183233	0.000009
C32	C	1.979115	0.316767	0.500009
C33	C	1.477503	-0.244993	-0.071218
C34	C	1.977503	0.255007	0.428782
C35	C	1.473733	-0.388196	-0.071222
C36	C	1.973733	0.111804	0.428778
C37	C	1.703680	0.176239	0.000009
C38	C	2.203680	0.676239	0.500009
C39	C	1.842234	0.179886	0.000005
C40	C	2.342234	0.679886	0.500005
C41	C	1.468446	0.411473	0.000004
C42	C	1.968446	0.911473	0.500004
C43	C	1.472093	0.550027	0.000002
C44	C	1.972093	1.050027	0.500002
N45	N	1.475575	0.183378	0.195675
N46	N	1.975575	0.683378	0.695675
N47	N	1.475642	0.183405	-0.195657
N48	N	1.975642	0.683405	0.304343
C49	C	1.559713	0.099302	0.238941
C50	C	2.059713	0.599302	0.738941
C51	C	1.559719	0.099301	0.325488
C52	C	2.059719	0.599301	0.825488
C53	C	1.475593	0.183383	0.368767
C54	C	1.975593	0.683383	0.868767
C55	C	1.391447	0.267463	0.325495
C56	C	1.891447	0.767463	0.825495
C57	C	1.391435	0.267457	0.238949
C58	C	1.891435	0.767457	0.738949
C59	C	1.391490	0.267487	0.674523
C60	C	1.891490	0.767487	1.174523
C61	C	1.391510	0.267489	0.761075
C62	C	1.891510	0.767489	1.261075
C63	C	1.559773	0.099330	0.761062
C64	C	2.059773	0.599330	1.261062
C65	C	1.559762	0.099324	0.674517
C66	C	2.059762	0.599324	1.174517
C67	C	1.475612	0.183400	0.631252
C68	C	1.975612	0.683400	1.131252
C69	C	1.475604	0.183399	0.537407
C70	C	1.975604	0.683399	1.037407
C71	C	1.475606	0.183391	0.462610
C72	C	1.975606	0.683391	0.962610
H73	H	1.055847	0.185511	0.060987
H74	H	1.555847	0.685511	0.560987
O75	O	0.912580	0.181753	0.080784
O76	O	1.412580	0.681753	0.580784
H77	H	0.898062	0.096191	0.116752
H78	H	1.398062	0.596191	0.616752
H79	H	1.323000	0.335961	0.796311
H80	H	1.823000	0.835961	1.296311
O81	O	1.300675	0.358120	0.192273
O82	O	1.800675	0.858120	0.692273
H83	H	1.353699	0.419245	0.152815
H84	H	1.853699	0.919245	0.652815
O85	O	1.479367	-0.174617	-0.151996
O86	O	1.979367	0.325383	0.348004
H87	H	1.482041	-0.073184	-0.139316
H88	H	1.982041	0.426816	0.360684
O89	O	1.471870	-0.458539	-0.152001
O90	O	1.971870	0.041461	0.347999
H91	H	1.473643	-0.391494	-0.204173
H92	H	1.973643	0.108506	0.295827
O93	O	1.300744	0.358175	0.627863
O94	O	1.800744	0.858175	1.127863
H95	H	1.242263	0.416652	0.672500
H96	H	1.742263	0.916652	1.172500
O97	O	1.300712	0.358161	0.372168
O98	O	1.800712	0.858161	0.872168
H99	H	1.314864	0.344053	0.439618
H100	H	1.814864	0.844053	0.939618
H101	H	1.473486	-0.396870	0.060985
H102	H	1.973486	0.103130	0.560985
O103	O	1.477264	-0.253621	0.080783
O104	O	1.977264	0.246379	0.580783
H105	H	1.390804	-0.302559	0.084316
H106	H	1.890804	0.197441	0.584316
H107	H	1.628269	0.030861	0.639281
H108	H	2.128269	0.530861	1.139281
H109	H	1.628223	0.030838	0.203709
H110	H	2.128223	0.530838	0.703709
O111	O	1.650489	0.008642	0.372158
O112	O	2.150489	0.508642	0.872158
H113	H	1.709003	-0.049808	0.327523
H114	H	2.209003	0.450192	0.827523
O115	O	1.650530	0.008631	0.807725
O116	O	2.150530	0.508631	1.307725
H117	H	1.636400	0.022745	0.875176
H118	H	2.136400	0.522745	1.375176
H119	H	0.850901	0.180117	-0.132198
H120	H	1.350901	0.680117	0.367802
H121	H	1.100356	0.186700	-0.132199
H122	H	1.600356	0.686700	0.367801
