data_functionalizedCrystal
_audit_creation_method	'MofGen! by Chris Wilmer'
_symmetry_space_group_name_H-M	'P1'
_symmetry_Int_Tables_number	1
_symmetry_cell_setting	triclinic
loop_
_symmetry_equiv_pos_as_xyz
  x,y,z
_cell_length_a	19.288864
_cell_length_b	23.532357
_cell_length_c	17.766277
_cell_angle_alpha	89.988084
_cell_angle_beta	89.976791
_cell_angle_gamma	82.982267
loop_
_atom_site_label
_atom_site_type_symbol
_atom_site_fract_x
_atom_site_fract_y
_atom_site_fract_z
O1	O	0.921118	0.071047	-0.062845
O2	O	1.421118	0.571047	0.437155
O3	O	0.718826	0.080631	-0.062794
O4	O	1.218826	0.580631	0.437206
O5	O	0.826091	-0.007082	-0.062805
O6	O	1.326091	0.492918	0.437195
O7	O	0.813854	0.158760	-0.062833
O8	O	1.313854	0.658760	0.437167
O9	O	0.826072	-0.007086	0.062383
O10	O	1.326072	0.492914	0.562383
O11	O	0.718807	0.080627	0.062394
O12	O	1.218807	0.580627	0.562394
O13	O	0.921100	0.071043	0.062344
O14	O	1.421100	0.571043	0.562344
Cu15	Cu	0.819952	0.075834	0.073800
Cu16	Cu	1.319952	0.575834	0.573800
Cu17	Cu	0.819974	0.075839	-0.074250
Cu18	Cu	1.319974	0.575839	0.425750
O19	O	0.813835	0.158756	0.062355
O20	O	1.313835	0.658756	0.562355
C21	C	0.692941	0.080320	-0.000193
C22	C	1.192941	0.580320	0.499807
C23	C	0.615841	0.079395	-0.000174
C24	C	1.115841	0.579395	0.499826
C25	C	0.825775	-0.028301	-0.000209
C26	C	1.325775	0.471699	0.499791
C27	C	0.824855	-0.091522	-0.000202
C28	C	1.324855	0.408478	0.499798
C29	C	0.570975	0.130861	-0.000194
C30	C	1.070975	0.630861	0.499806
C31	C	0.498530	0.129991	-0.000202
C32	C	0.998530	0.629991	0.499798
C33	C	0.470956	0.077652	-0.000205
C34	C	0.970956	0.577652	0.499795
C35	C	0.515832	0.026180	-0.000180
C36	C	1.015832	0.526180	0.499820
C37	C	0.588274	0.027051	-0.000165
C38	C	1.088274	0.527051	0.499835
C39	C	0.362836	0.036510	-0.044082
C40	C	0.862836	0.536510	0.455918
C41	C	0.290395	0.035641	-0.044103
C42	C	0.790395	0.535641	0.455897
C43	C	0.247519	0.074963	-0.000250
C44	C	0.747519	0.574963	0.499750
C45	C	0.277092	0.115164	0.043613
C46	C	0.777092	0.615164	0.543613
C47	C	0.349535	0.116036	0.043629
C48	C	0.849535	0.616036	0.543629
C49	C	0.392405	0.076702	-0.000222
C50	C	0.892405	0.576702	0.499778
C51	C	0.124100	0.125490	-0.000278
C52	C	0.624100	0.625490	0.499722
C53	C	0.051655	0.124618	-0.000282
C54	C	0.551655	0.624618	0.499718
C55	C	0.068958	0.020805	-0.000268
C56	C	0.568958	0.520805	0.499732
C57	C	0.141401	0.021678	-0.000256
C58	C	0.641401	0.521678	0.499744
C59	C	0.168968	0.074022	-0.000265
C60	C	0.668968	0.574022	0.499735
C61	C	0.819088	-0.483543	-0.068481
C62	C	1.319088	0.016457	0.431519
C63	C	0.818213	-0.542944	-0.068485
C64	C	1.318213	-0.042944	0.431515
O65	O	0.817746	-0.573659	-0.126521
O66	O	1.317746	-0.073659	0.373479
N67	N	0.817769	-0.572659	-0.000246
N68	N	1.317769	-0.072659	0.499754
C69	C	0.818193	-0.542968	0.068002
C70	C	1.318193	-0.042968	0.568002
O71	O	0.817734	-0.573697	0.126045
O72	O	1.317734	-0.073697	0.626045
C73	C	0.819063	-0.483567	0.068006
C74	C	1.319063	0.016433	0.568006
C75	C	0.819514	-0.453857	-0.000238
C76	C	1.319514	0.046143	0.499762
C77	C	0.819538	-0.453832	-0.136719
C78	C	1.319538	0.046168	0.363281
C79	C	0.820414	-0.394435	-0.136715
C80	C	1.320414	0.105565	0.363285
C81	C	0.820840	-0.364749	-0.068472
C82	C	1.320840	0.135251	0.431528
C83	C	0.820390	-0.394460	-0.000234
C84	C	1.320390	0.105540	0.499766
C85	C	0.819482	-0.453877	0.136253
C86	C	1.319482	0.046123	0.636253
C87	C	0.820351	-0.394472	0.136250
C88	C	1.320351	0.105528	0.636250
C89	C	0.820802	-0.364762	0.068006
C90	C	1.320802	0.135238	0.568006
C91	C	0.821692	-0.305376	0.068013
C92	C	1.321692	0.194624	0.568013
N93	N	0.822136	-0.275662	-0.000226
N94	N	1.322136	0.224338	0.499774
C95	C	0.821710	-0.305348	-0.068469
C96	C	1.321710	0.194652	0.431531
C97	C	0.816365	-0.667713	0.067990
C98	C	1.316365	-0.167713	0.567990
C99	C	0.815501	-0.727113	0.067988
C100	C	1.315501	-0.227113	0.567988
C101	C	0.815520	-0.727085	-0.068500
C102	C	1.315520	-0.227085	0.431500
C103	C	0.816389	-0.667685	-0.068497
C104	C	1.316389	-0.167685	0.431503
C105	C	0.816809	-0.637999	-0.000249
C106	C	1.316809	-0.137999	0.499751
C107	C	0.823550	-0.180610	-0.068455
C108	C	1.323550	0.319390	0.431545
C109	C	0.824429	-0.121208	-0.068444
C110	C	1.324429	0.378792	0.431556
C111	C	0.824406	-0.121241	0.068043
C112	C	1.324406	0.378759	0.568043
C113	C	0.823531	-0.180638	0.068033
C114	C	1.323531	0.319362	0.568033
C115	C	0.823101	-0.210321	-0.000222
C116	C	1.323101	0.289679	0.499778
O117	O	0.822157	-0.274623	0.126019
O118	O	1.322157	0.225377	0.626019
O119	O	0.822159	-0.274611	-0.126502
O120	O	1.322159	0.225389	0.373498
C121	C	0.946985	0.071353	-0.000259
C122	C	1.446985	0.571353	0.499741
C123	C	1.024085	0.072279	-0.000283
C124	C	1.524085	0.572279	0.499717
C125	C	0.814151	0.179975	-0.000243
C126	C	1.314151	0.679975	0.499757
C127	C	0.815071	0.243196	-0.000255
C128	C	1.315071	0.743196	0.499745
N129	N	0.819941	0.075830	0.177930
N130	N	1.319941	0.575830	0.677930
N131	N	0.819990	0.075839	-0.178380
N132	N	1.319990	0.575839	0.321620
C133	C	0.867453	0.037010	0.217312
C134	C	1.367453	0.537010	0.717312
C135	C	0.867457	0.037007	0.296114
C136	C	1.367457	0.537007	0.796114
C137	C	0.819956	0.075835	0.335531
C138	C	1.319956	0.575835	0.835531
C139	C	0.772435	0.114658	0.296139
C140	C	1.272435	0.614658	0.796139
C141	C	0.772428	0.114656	0.217339
C142	C	1.272428	0.614656	0.717339
C143	C	0.810486	0.127727	0.460361
C144	C	1.310486	0.627727	0.960361
C145	C	0.810498	0.127730	0.539160
C146	C	1.310498	0.627730	1.039160
C147	C	0.819975	0.075842	0.578577
C148	C	1.319975	0.575842	1.078577
C149	C	0.829454	0.023948	0.539185
C150	C	1.329454	0.523948	1.039185
C151	C	0.829446	0.023946	0.460385
C152	C	1.329446	0.523946	0.960385
C153	C	0.819958	0.075841	0.420976
C154	C	1.319958	0.575841	0.920976
C155	C	0.867493	0.037015	0.703405
C156	C	1.367493	0.537015	1.203405
C157	C	0.867493	0.037012	0.782208
C158	C	1.367493	0.537012	1.282208
C159	C	0.772474	0.114667	0.782232
C160	C	1.272474	0.614667	1.282232
C161	C	0.772471	0.114666	0.703430
C162	C	1.272471	0.614666	1.203430
C163	C	0.819985	0.075840	0.664021
C164	C	1.319985	0.575840	1.164021
H165	H	0.461993	0.171902	-0.000217
H166	H	0.961993	0.671902	0.499783
O167	O	0.486094	-0.030272	-0.000177
O168	O	0.986094	0.469728	0.499823
H169	H	0.504180	-0.054998	-0.051189
H170	H	1.004180	0.445002	0.448811
O171	O	0.636673	-0.028461	-0.000146
O172	O	1.136673	0.471539	0.499854
H173	H	0.605332	-0.065003	-0.000151
H174	H	1.105332	0.434997	0.499849
O175	O	0.918709	-0.004864	0.338599
O176	O	1.418709	0.495136	0.838599
H177	H	0.910729	0.001660	0.400015
H178	H	1.410729	0.501660	0.900015
O179	O	0.819072	-0.485837	-0.210336
O180	O	1.319072	0.014163	0.289664
H181	H	0.866021	-0.518102	-0.213627
H182	H	1.366021	-0.018102	0.286373
H183	H	0.802757	0.169983	0.428275
H184	H	1.302757	0.669983	0.928275
H185	H	0.837163	-0.018308	0.428315
H186	H	1.337163	0.481692	0.928315
O187	O	0.800289	0.183697	0.581646
O188	O	1.300289	0.683697	1.081646
H189	H	0.793688	0.219778	0.541001
H190	H	1.293688	0.719778	1.041001
O191	O	0.721204	0.156541	0.338646
O192	O	1.221204	0.656541	0.838646
H193	H	0.729196	0.150026	0.400058
H194	H	1.229196	0.650026	0.900058
H195	H	0.733786	0.146279	0.671363
H196	H	1.233786	0.646279	1.171363
O197	O	0.381430	0.159390	0.090940
O198	O	0.881430	0.659390	0.590940
H199	H	0.439006	0.153390	0.083578
H200	H	0.939006	0.653390	0.583578
O201	O	0.824913	-0.089166	-0.142056
O202	O	1.324913	0.410834	0.357944
H203	H	0.825600	-0.042874	-0.130594
H204	H	1.325600	0.457126	0.369406
O205	O	0.815039	-0.759116	-0.142102
O206	O	1.315039	-0.259116	0.357898
H207	H	0.767857	-0.742503	-0.174803
H208	H	1.267857	-0.242503	0.325197
O209	O	0.839670	-0.032024	0.581685
O210	O	1.339670	0.467976	1.081685
H211	H	0.838073	-0.023308	0.643097
H212	H	1.338073	0.476692	1.143097
H213	H	0.177933	-0.020231	-0.000244
H214	H	0.677933	0.479769	0.499756
O215	O	0.823080	-0.212621	-0.142070
O216	O	1.323080	0.287379	0.357930
H217	H	0.823542	-0.181974	-0.189513
H218	H	1.323542	0.318026	0.310487
H219	H	0.733795	0.146279	0.814325
H220	H	1.233795	0.646279	1.314325
H221	H	0.146546	0.168111	-0.000275
H222	H	0.646546	0.668111	0.499725
O223	O	0.721184	0.156527	0.174850
O224	O	1.221184	0.656527	0.674850
H225	H	0.729716	0.200909	0.189947
H226	H	1.229716	0.700909	0.689947
O227	O	0.258499	-0.007722	-0.091400
O228	O	0.758499	0.492278	0.408600
H229	H	0.300483	-0.034929	-0.121875
H230	H	0.800483	0.465071	0.378125
H231	H	0.015124	0.166530	-0.000294
H232	H	0.515124	0.666530	0.499706
H233	H	0.593414	0.173483	-0.000203
H234	H	1.093414	0.673483	0.499797
H235	H	0.906140	0.005394	0.185228
H236	H	1.406140	0.505394	0.685228
O237	O	0.820882	-0.362395	-0.210324
O238	O	1.320882	0.137605	0.289676
H239	H	0.868061	-0.378996	-0.243068
H240	H	1.368061	0.121004	0.256932
O241	O	0.230861	0.157579	0.090922
O242	O	0.730861	0.657579	0.590922
H243	H	0.175520	0.150216	0.083553
H244	H	0.675520	0.650216	0.583553
H245	H	0.815144	-0.751300	0.123559
H246	H	1.315144	-0.251300	0.623559
O247	O	0.918727	-0.004865	0.660890
O248	O	1.418727	0.495135	1.160890
H249	H	0.951759	-0.031868	0.701518
H250	H	1.451759	0.468132	1.201518
H251	H	0.816709	-0.643547	0.123569
H252	H	1.316709	-0.143547	0.623569
O253	O	0.039221	-0.035645	-0.000267
O254	O	0.539221	0.464355	0.499733
H255	H	0.057241	-0.060365	0.050769
H256	H	0.557241	0.439635	0.550769
O257	O	0.409079	-0.005902	-0.091388
O258	O	0.909079	0.494098	0.408612
H259	H	0.376346	-0.033994	-0.121901
H260	H	0.876346	0.466006	0.378099
H261	H	0.816755	-0.643498	-0.124067
H262	H	1.316755	-0.143498	0.375933
O263	O	0.818988	-0.485913	0.209859
O264	O	1.318988	0.014087	0.709859
H265	H	0.819420	-0.455281	0.257305
H266	H	1.319420	0.044719	0.757305
O267	O	0.918747	-0.004855	0.824691
O268	O	1.418747	0.495145	1.324691
H269	H	0.951789	-0.031845	0.784045
H270	H	1.451789	0.468155	1.284045
H271	H	0.820682	-0.370304	0.191827
H272	H	1.320682	0.129696	0.691827
H273	H	0.824756	-0.097060	0.123604
H274	H	1.324756	0.402940	0.623604
O275	O	0.823047	-0.212689	0.141636
O276	O	1.323047	0.287311	0.641636
H277	H	0.823487	-0.182064	0.189089
H278	H	1.323487	0.317936	0.689089
