data_functionalizedCrystal
_audit_creation_method	'MofGen! by Chris Wilmer'
_symmetry_space_group_name_H-M	'P1'
_symmetry_Int_Tables_number	1
_symmetry_cell_setting	triclinic
loop_
_symmetry_equiv_pos_as_xyz
  x,y,z
_cell_length_a	14.971486
_cell_length_b	15.538191
_cell_length_c	14.048226
_cell_angle_alpha	89.996115
_cell_angle_beta	89.998499
_cell_angle_gamma	65.443111
loop_
_atom_site_label
_atom_site_type_symbol
_atom_site_fract_x
_atom_site_fract_y
_atom_site_fract_z
O1	O	1.146981	0.122716	-0.079045
O2	O	0.881795	0.137412	-0.079071
O3	O	1.066008	-0.007007	-0.079057
O4	O	0.962767	0.267135	-0.079058
O5	O	1.065995	-0.007016	0.079264
O6	O	0.881781	0.137403	0.079251
O7	O	1.146967	0.122708	0.079276
Zn8	Zn	1.014372	0.130054	0.104400
Zn9	Zn	1.014390	0.130065	-0.104195
O10	O	0.962753	0.267127	0.079263
C11	C	0.848677	0.136750	0.000087
C12	C	0.750021	0.134781	0.000077
C13	C	0.665165	0.219623	0.000078
C14	C	0.572470	0.217767	0.000092
C15	C	0.564634	0.131067	0.000099
C16	C	0.649500	0.046219	0.000100
C17	C	0.742193	0.048076	0.000093
C18	C	0.456296	0.042354	0.000113
C19	C	0.363597	0.040496	0.000119
C20	C	0.286573	0.212045	0.000113
C21	C	0.379266	0.213902	0.000105
C22	C	0.464126	0.129053	0.000105
C23	C	1.076803	-0.042095	0.000101
C24	C	1.108978	-0.146632	0.000095
C25	C	0.789329	-0.434783	0.000085
C26	C	0.819585	-0.533015	0.000090
C27	C	0.989766	-0.555266	0.000105
C28	C	0.959525	-0.457034	0.000096
C29	C	0.859305	-0.396800	0.000086
C30	C	1.029501	-0.419051	0.000098
C31	C	0.999261	-0.320828	0.000093
C32	C	0.899046	-0.260588	0.000086
C33	C	0.829066	-0.298577	0.000082
C34	C	1.129720	-0.479287	0.000114
C35	C	1.199696	-0.441304	0.000115
C36	C	1.169457	-0.343079	0.000104
C37	C	1.069242	-0.282839	0.000097
C38	C	1.239438	-0.305090	0.000109
C39	C	1.209198	-0.206867	0.000104
C40	C	1.039002	-0.184615	0.000093
C41	C	1.180085	0.123369	0.000117
C42	C	1.278740	0.125339	0.000120
C43	C	0.951958	0.302214	0.000102
C44	C	0.919784	0.406752	0.000103
N45	N	1.014366	0.130046	0.246761
N46	N	1.014405	0.130066	-0.246555
C47	C	1.095947	0.066124	0.296585
C48	C	1.095953	0.066123	0.396243
C49	C	1.014381	0.130050	0.446075
C50	C	0.932793	0.193975	0.396244
C51	C	0.932785	0.193971	0.296588
C52	C	0.932816	0.193982	0.603958
C53	C	0.932825	0.193988	0.703621
C54	C	1.095984	0.066135	0.703613
C55	C	1.095976	0.066130	0.603957
C56	C	1.014389	0.130057	0.554133
H57	H	0.525390	-0.026740	0.000115
O58	O	1.336775	-0.363646	-0.000046
C59	C	1.359364	-0.421152	-0.082020
H60	H	1.301970	-0.385242	-0.139341
H61	H	1.434975	-0.432113	-0.109535
H62	H	1.359413	-0.492601	-0.063473
O63	O	1.277134	-0.169921	0.000269
C64	C	1.264715	-0.113753	0.082251
H65	H	1.225536	-0.137041	0.139561
H66	H	1.339634	-0.122477	0.109776
H67	H	1.218935	-0.036322	0.063708
O68	O	1.175195	0.004164	0.444751
C69	C	1.213974	0.054703	0.502366
H70	H	1.154439	0.128326	0.517287
H71	H	1.240882	0.015429	0.572449
H72	H	1.277958	0.061220	0.463953
H73	H	1.162374	0.014071	0.256018
H74	H	0.957393	-0.135569	0.000078
H75	H	0.217474	0.281132	0.000117
H76	H	1.162415	0.014083	0.744185
O77	O	0.853481	0.256108	0.751882
C78	C	0.781471	0.312536	0.686539
H79	H	0.793000	0.273929	0.615501
H80	H	0.705428	0.326752	0.715343
H81	H	0.787754	0.382553	0.675936
O82	O	0.853674	0.256120	0.555452
C83	C	0.882676	0.314309	0.497811
H84	H	0.964802	0.276923	0.482879
H85	H	0.840524	0.329138	0.427735
H86	H	0.866154	0.383918	0.536208
O87	O	1.175278	0.003943	0.555696
C88	C	1.247300	-0.052465	0.621038
H89	H	1.211009	-0.053594	0.692084
H90	H	1.285354	-0.127644	0.592247
H91	H	1.303777	-0.021772	0.631621
O92	O	0.356158	-0.043804	0.000170
C93	C	0.450931	-0.118296	0.000151
H94	H	0.505719	-0.091833	0.030122
H95	H	0.451079	-0.178819	0.046120
H96	H	0.472631	-0.144473	-0.075802
H97	H	0.747457	-0.249530	0.000067
O98	O	1.159053	-0.574696	-0.000054
C99	C	1.122472	-0.601405	-0.082046
H100	H	1.106551	-0.544994	-0.139356
H101	H	1.179376	-0.671908	-0.109565
H102	H	1.051913	-0.608914	-0.063520
O103	O	0.824725	-0.034253	0.000130
C104	C	0.908218	-0.014024	0.000101
H105	H	0.887779	0.059943	0.030071
H106	H	0.968045	-0.068098	0.046065
H107	H	0.936345	-0.017560	-0.075856
H108	H	0.866372	0.246023	0.436823
O109	O	0.853649	0.256106	0.248081
C110	C	0.882645	0.314298	0.190438
H111	H	0.964770	0.276916	0.175503
H112	H	0.840491	0.329124	0.120363
H113	H	0.866120	0.383909	0.228833
O114	O	0.672597	0.303926	0.000113
C115	C	0.577819	0.378411	0.000095
H116	H	0.523039	0.351938	0.030074
H117	H	0.577666	0.438934	0.046057
H118	H	0.556112	0.404591	-0.075859
O119	O	0.869498	-0.165150	0.000122
C120	C	0.766039	-0.120134	0.000088
H121	H	0.735278	-0.170441	0.030062
H122	H	0.740630	-0.053745	0.046048
H123	H	0.738548	-0.099815	-0.075870
O124	O	0.489972	0.300123	-0.000043
C125	C	0.434060	0.304190	-0.082047
H126	H	0.453606	0.229440	-0.109371
H127	H	0.352578	0.339195	-0.063606
H128	H	0.450783	0.347225	-0.139473
O129	O	0.751569	-0.569869	-0.000088
C130	C	0.692403	-0.539079	-0.082077
H131	H	0.733885	-0.518583	-0.139384
H132	H	0.673695	-0.598629	-0.109603
H133	H	0.621787	-0.475130	-0.063545
H134	H	0.643113	-0.024374	0.000119
O135	O	0.692001	-0.376170	0.000197
C136	C	0.669401	-0.318705	0.082202
H137	H	0.738752	-0.313653	0.109550
H138	H	0.612127	-0.244924	0.063752
H139	H	0.639050	-0.351068	0.139613
O140	O	1.087077	-0.613915	0.000071
C141	C	1.098764	-0.708755	0.000102
H142	H	1.029762	-0.712610	-0.029871
H143	H	1.164605	-0.753191	-0.045859
H144	H	1.111377	-0.737155	0.076059
O145	O	0.386705	0.298202	0.000140
C146	C	0.291932	0.372694	0.000119
H147	H	0.237145	0.346230	0.030098
H148	H	0.291786	0.433216	0.046080
H149	H	0.270229	0.398874	-0.075836
O150	O	1.297057	-0.499779	0.000289
C151	C	1.341442	-0.482529	0.082270
H152	H	1.283339	-0.449020	0.139581
H153	H	1.399930	-0.552170	0.109795
H154	H	1.376947	-0.432449	0.063727
