data_functionalizedCrystal
_audit_creation_method	'MofGen! by Chris Wilmer'
_symmetry_space_group_name_H-M	'P1'
_symmetry_Int_Tables_number	1
_symmetry_cell_setting	triclinic
loop_
_symmetry_equiv_pos_as_xyz
  x,y,z
_cell_length_a	15.995355
_cell_length_b	14.472311
_cell_length_c	15.995350
_cell_angle_alpha	90.007338
_cell_angle_beta	96.506710
_cell_angle_gamma	89.997149
loop_
_atom_site_label
_atom_site_type_symbol
_atom_site_fract_x
_atom_site_fract_y
_atom_site_fract_z
O1	O	-1.110986	0.076747	0.107950
O2	O	-0.867211	0.076768	0.121274
O3	O	-0.995762	0.076756	-0.007276
O4	O	-0.982435	0.076759	0.236499
O5	O	-0.995746	-0.076926	-0.007291
O6	O	-0.867195	-0.076914	0.121258
O7	O	-1.110970	-0.076935	0.107935
Cu8	Cu	-0.989081	-0.090957	0.114595
Cu9	Cu	-0.989100	0.090790	0.114613
O10	O	-0.982419	-0.076923	0.236484
C11	C	-0.836008	-0.000071	0.120715
C12	C	-0.743058	-0.000062	0.119061
C13	C	-0.572873	-0.000075	0.116060
C14	C	-0.549527	-0.000076	0.023262
C15	C	-0.452850	-0.000431	0.021512
C16	C	-0.405314	-0.000087	0.113104
C17	C	-0.434396	-0.087672	0.159757
C18	C	-0.531188	-0.087740	0.160862
C19	C	-0.531117	0.087032	0.162238
C20	C	-0.434622	0.088177	0.158808
C21	C	-0.310616	-0.000097	0.111439
C22	C	-0.667570	-0.000072	0.117729
N23	N	-0.989074	-0.218788	0.114582
C24	C	-0.995203	-0.000083	-0.038478
C25	C	-0.993551	-0.000078	-0.131428
C26	C	-0.142174	-0.000096	0.108483
C27	C	-0.235128	-0.000100	0.110103
N28	N	-0.989114	0.218620	0.114620
C29	C	-0.989100	0.407121	0.114607
C30	C	-1.058015	0.446316	0.045961
C31	C	-1.057831	0.553404	0.045709
C32	C	-0.989088	0.592712	0.114595
C33	C	-0.901689	0.553820	0.095647
C34	C	-0.902100	0.446698	0.095161
C35	C	-1.006794	0.446616	0.202405
C36	C	-1.008773	0.553745	0.201814
C37	C	-0.989075	0.697600	0.114589
C38	C	-0.989106	0.302233	0.114611
C39	C	-0.987619	-0.000081	-0.469176
C40	C	-0.896067	0.000272	-0.421743
C41	C	-0.897719	-0.000075	-0.325053
C42	C	-0.990562	-0.000079	-0.301615
C43	C	-1.035709	-0.087841	-0.342701
C44	C	-1.033409	-0.087914	-0.439337
C45	C	-1.035319	0.086851	-0.439677
C46	C	-1.035297	0.088011	-0.342732
C47	C	-0.992229	-0.000081	-0.206918
C48	C	-0.985954	-0.000085	-0.563874
C49	C	-0.982978	-0.000082	0.267687
C50	C	-0.984629	-0.000081	0.360637
H51	H	-0.577541	0.062722	-0.012699
H52	H	-0.961839	0.580504	0.255280
Cl53	Cl	-1.108034	0.593000	0.224027
H54	H	-0.859481	0.063208	-0.440270
Cl55	Cl	-0.820535	0.406661	0.169424
H56	H	-0.956541	0.421264	0.253488
H57	H	-1.102819	0.087437	-0.471437
Cl58	Cl	-1.040793	0.404746	-0.054071
Cl59	Cl	-0.820588	0.593126	0.170790
H60	H	-0.433837	0.062341	-0.015008
Cl61	Cl	-0.594262	-0.096904	-0.031378
H62	H	-0.416072	0.152974	0.124834
Cl63	Cl	-0.842535	-0.097360	-0.282036
H64	H	-1.103002	0.093306	-0.327368
Cl65	Cl	-0.877050	0.595220	-0.002079
H66	H	-0.434406	-0.063583	-0.014849
Cl67	Cl	-1.103107	0.404930	0.230566
H68	H	-0.545130	0.087877	0.230542
H69	H	-1.046510	0.579021	-0.019449
Cl70	Cl	-1.158126	0.594008	0.063112
Cl71	Cl	-0.989107	0.189551	-0.471366
H72	H	-0.557967	-0.153460	0.128920
Cl73	Cl	-0.383750	0.096759	0.261997
H74	H	-1.004339	-0.153148	-0.314326
H75	H	-0.862230	0.062837	-0.296626
H76	H	-0.545761	-0.091484	0.228912
H77	H	-0.886524	0.421703	0.031135
H78	H	-0.402550	-0.090682	0.227166
Cl79	Cl	-0.403371	-0.188692	0.110318
H80	H	-0.859631	-0.062308	-0.441344
Cl81	Cl	-1.158658	0.406562	0.063068
Cl82	Cl	-0.984753	0.188265	-0.300164
H83	H	-1.000474	-0.153515	-0.457645
H84	H	-1.100625	-0.091899	-0.471584
Cl85	Cl	-0.574770	0.189561	0.117046
Cl86	Cl	-1.141018	-0.092891	-0.320893
