data_functionalizedCrystal
_audit_creation_method	'MofGen! by Chris Wilmer'
_symmetry_space_group_name_H-M	'P1'
_symmetry_Int_Tables_number	1
_symmetry_cell_setting	triclinic
loop_
_symmetry_equiv_pos_as_xyz
  x,y,z
_cell_length_a	23.532407
_cell_length_b	27.732048
_cell_length_c	22.010155
_cell_angle_alpha	89.999275
_cell_angle_beta	89.996931
_cell_angle_gamma	82.745667
loop_
_atom_site_label
_atom_site_type_symbol
_atom_site_fract_x
_atom_site_fract_y
_atom_site_fract_z
O1	O	0.755138	0.058672	-0.050456
O2	O	0.589257	0.067162	-0.050475
O3	O	0.677350	-0.007472	-0.050453
O4	O	0.667046	0.133306	-0.050477
O5	O	0.677334	-0.007461	0.050597
O6	O	0.589241	0.067173	0.050576
O7	O	0.755122	0.058683	0.050595
Cu8	Cu	0.672180	0.062929	0.059812
Cu9	Cu	0.672199	0.062916	-0.059692
O10	O	0.667030	0.133317	0.050573
C11	C	0.568033	0.066952	0.000048
C12	C	0.504818	0.066302	0.000042
C13	C	0.105629	0.106391	0.000062
C14	C	0.046230	0.105787	0.000066
O15	O	0.009406	0.142951	0.000082
N16	N	0.023699	0.061418	0.000073
C17	C	0.060570	0.017649	0.000082
O18	O	0.035951	-0.020147	0.000088
C19	C	0.119967	0.018253	0.000082
C20	C	0.142495	0.062626	0.000070
C21	C	0.128158	0.150760	0.000050
C22	C	0.187552	0.151364	0.000045
C23	C	0.224419	0.107599	0.000052
C24	C	0.201890	0.063229	0.000065
C25	C	0.156837	-0.025515	0.000096
C26	C	0.216239	-0.024907	0.000097
C27	C	0.238766	0.019466	0.000084
C28	C	0.298151	0.020068	0.000067
N29	N	0.320683	0.064437	0.000060
C30	C	0.283817	0.108203	0.000053
C31	C	-0.064170	0.016383	0.000082
C32	C	-0.123567	0.015778	0.000077
C33	C	-0.137902	0.103917	0.000062
C34	C	-0.078505	0.104521	0.000063
C35	C	-0.041639	0.060753	0.000075
C36	C	0.408551	0.109467	0.000042
C37	C	0.467951	0.110067	0.000035
C38	C	0.482282	0.021928	0.000052
C39	C	0.422886	0.021328	0.000057
C40	C	0.386021	0.065102	0.000053
O41	O	0.335010	-0.017077	0.000054
O42	O	0.308444	0.145992	0.000054
C43	C	0.677125	-0.025473	0.000074
C44	C	0.676474	-0.079129	0.000079
C45	C	0.724431	-0.417871	0.000053
C46	C	0.722014	-0.619534	0.000044
O47	O	0.765867	-0.650722	0.000023
N48	N	0.669779	-0.638738	0.000039
C49	C	0.618144	-0.607523	0.000032
O50	O	0.573659	-0.628484	0.000021
C51	C	0.620561	-0.405860	0.000036
C52	C	0.672800	-0.386659	0.000048
C53	C	0.776665	-0.398669	0.000064
C54	C	0.777269	-0.348256	0.000069
C55	C	0.725638	-0.317045	0.000064
C56	C	0.673403	-0.336247	0.000053
C57	C	0.568927	-0.374646	0.000025
C58	C	0.569536	-0.324228	0.000024
C59	C	0.621775	-0.305027	0.000036
C60	C	0.622376	-0.254622	0.000053
N61	N	0.674611	-0.235418	0.000059
C62	C	0.726242	-0.266630	0.000064
C63	C	0.616879	-0.713399	0.000031
C64	C	0.616274	-0.763814	0.000031
C65	C	0.720145	-0.775822	0.000042
C66	C	0.720749	-0.725406	0.000046
C67	C	0.669114	-0.694195	0.000036
C68	C	0.727506	-0.160758	0.000076
C69	C	0.728105	-0.110341	0.000084
C70	C	0.624235	-0.098337	0.000069
C71	C	0.623635	-0.148751	0.000065
C72	C	0.675276	-0.179961	0.000066
O73	O	0.578547	-0.223406	0.000068
O74	O	0.770721	-0.245659	0.000061
C75	C	0.723827	-0.468283	0.000047
C76	C	0.671593	-0.487485	0.000037
C77	C	0.619962	-0.456274	0.000031
C78	C	0.670988	-0.537900	0.000037
C79	C	0.722619	-0.569112	0.000042
C80	C	0.774855	-0.549908	0.000047
C81	C	0.775458	-0.499495	0.000053
C82	C	0.567727	-0.475478	0.000026
C83	C	0.567127	-0.525891	0.000021
C84	C	0.618758	-0.557103	0.000026
C85	C	0.776346	0.058894	0.000070
C86	C	0.839562	0.059544	0.000073
C87	C	0.667254	0.151319	0.000045
C88	C	0.667905	0.204975	0.000036
N89	N	0.672171	0.062938	0.143864
N90	N	0.672213	0.062903	-0.143744
C91	C	0.711209	0.029873	0.563653
C92	C	0.711211	0.029869	0.627261
O93	O	0.744380	0.001762	0.660160
N94	N	0.672199	0.062906	0.659071
C95	C	0.633177	0.095945	0.627271
O96	O	0.599994	0.124044	0.660169
C97	C	0.633172	0.095945	0.563665
C98	C	0.672191	0.062910	0.531857
C99	C	0.750224	-0.003160	0.531846
C100	C	0.750222	-0.003156	0.468243
C101	C	0.711205	0.029881	0.436447
C102	C	0.672189	0.062914	0.468254
C103	C	0.594148	0.128981	0.531866
C104	C	0.594147	0.128979	0.468255
C105	C	0.633166	0.095943	0.436447
C106	C	0.633170	0.095955	0.372855
N107	N	0.672182	0.062919	0.341045
C108	C	0.711200	0.029881	0.372840
C109	C	0.633190	0.095940	0.760849
C110	C	0.633197	0.095942	0.824454
C111	C	0.711231	0.029866	0.824440
C112	C	0.711226	0.029867	0.760833
C113	C	0.672202	0.062904	0.729038
C114	C	0.711193	0.029893	0.239269
C115	C	0.711189	0.029901	0.175660
C116	C	0.633153	0.095975	0.175680
C117	C	0.633159	0.095969	0.239284
C118	C	0.672181	0.062924	0.271076
O119	O	0.600017	0.124047	0.339915
O120	O	0.744372	0.001783	0.339935
H121	H	0.138506	-0.061648	0.000107
H122	H	0.762185	-0.801243	0.000047
C123	C	0.556019	0.161276	0.232906
C124	C	0.590267	0.132279	0.274250
H125	H	0.529534	0.183687	0.254491
H126	H	0.579569	0.178569	0.208104
H127	H	0.535721	0.141238	0.208090
H128	H	0.610569	0.152318	0.299063
H129	H	0.566714	0.114986	0.299062
C130	C	0.838213	-0.298535	0.052020
C131	C	0.834691	-0.327154	0.000073
H132	H	0.873667	-0.285512	0.052020
H133	H	0.807558	-0.272729	0.052014
H134	H	0.835813	-0.317957	0.087254
H135	H	0.837088	-0.307731	-0.035162
H136	H	0.865355	-0.352963	0.000073
H137	H	0.512309	-0.013704	0.000056
C138	C	0.513666	-0.746869	0.000014
C139	C	0.558852	-0.784916	0.000023
H140	H	0.478215	-0.759896	0.000003
H141	H	0.516057	-0.727457	0.035252
H142	H	0.516076	-0.727454	-0.035225
H143	H	0.556444	-0.804329	0.035265
H144	H	0.556460	-0.804336	-0.035218
C145	C	0.745414	-0.053965	0.844022
C146	C	0.754118	-0.006453	0.859396
H147	H	0.771893	-0.076384	0.865601
H148	H	0.707457	-0.059046	0.854450
H149	H	0.751000	-0.058687	0.801588
H150	H	0.748528	-0.001729	0.901830
H151	H	0.792085	-0.001371	0.848972
C152	C	0.010945	-0.034081	-0.051862
C153	C	-0.023648	-0.031731	0.000084
H154	H	0.035962	-0.063783	-0.051857
H155	H	-0.012524	-0.032486	-0.087093
H156	H	0.032866	-0.007570	-0.051858
H157	H	-0.045572	-0.058240	0.000078
H158	H	-0.000176	-0.033331	0.035324
H159	H	-0.141903	-0.020355	0.000078
H160	H	0.378542	0.145112	0.000041
C161	C	0.830239	-0.167550	0.000096
C162	C	0.784269	-0.195059	0.000083
H163	H	0.865281	-0.188726	0.000107
H164	H	0.828318	-0.147637	-0.035139
H165	H	0.828297	-0.147635	0.035338
H166	H	0.786209	-0.214971	-0.035161
H167	H	0.786190	-0.214981	0.035322
H168	H	0.574829	-0.687991	0.000022
C169	C	0.516537	0.139809	0.396739
C170	C	0.551251	0.165296	0.433308
H171	H	0.490054	0.162231	0.375168
H172	H	0.539771	0.120142	0.368691
H173	H	0.496236	0.119773	0.421559
H174	H	0.571555	0.185329	0.408487
H175	H	0.528013	0.184971	0.461359
H176	H	0.601387	0.122875	0.149782
C177	C	0.788327	-0.035419	0.232848
C178	C	0.754086	-0.006430	0.274209
H179	H	0.814811	-0.057839	0.254420
H180	H	0.764773	-0.052700	0.208042
H181	H	0.808628	-0.015376	0.208038
H182	H	0.733782	-0.026473	0.299016
H183	H	0.777644	0.010853	0.299026
C184	C	0.879393	-0.405460	0.000086
C185	C	0.833425	-0.432972	0.000075
H186	H	0.914436	-0.426636	0.000100
H187	H	0.877473	-0.385550	-0.035153
H188	H	0.877449	-0.385542	0.035325
H189	H	0.835367	-0.452887	-0.035166
H190	H	0.835346	-0.452890	0.035317
H191	H	0.524585	-0.541520	0.000017
H192	H	0.781993	-0.030058	0.442349
C193	C	0.877592	-0.556727	0.000061
C194	C	0.831609	-0.584221	0.000052
H195	H	0.912627	-0.577913	0.000065
H196	H	0.875675	-0.536812	-0.035174
H197	H	0.875663	-0.536814	0.035303
H198	H	0.833535	-0.604132	-0.035193
H199	H	0.833527	-0.604144	0.035290
H200	H	0.742998	0.002967	0.734939
H201	H	0.781997	-0.030065	0.557728
C202	C	0.823357	-0.742350	0.000053
C203	C	0.778170	-0.704302	0.000049
H204	H	0.858807	-0.729323	0.000050
H205	H	0.820955	-0.761760	0.035292
H206	H	0.820957	-0.761766	-0.035186
H207	H	0.780568	-0.684888	0.035291
H208	H	0.780574	-0.684884	-0.035192
H209	H	0.525681	-0.450070	0.000020
C210	C	0.466321	-0.357692	-0.000005
C211	C	0.511503	-0.395743	0.000006
H212	H	0.430868	-0.370716	-0.000021
H213	H	0.468711	-0.338282	0.035234
H214	H	0.468737	-0.338277	-0.035243
H215	H	0.509090	-0.415156	0.035247
H216	H	0.509112	-0.415161	-0.035236
C217	C	0.556064	0.161253	0.818064
C218	C	0.590309	0.132258	0.859412
H219	H	0.529582	0.183670	0.839645
H220	H	0.579616	0.178539	0.793257
H221	H	0.535761	0.141214	0.793254
H222	H	0.610615	0.152298	0.884220
H223	H	0.566754	0.114971	0.884230
C224	C	0.224438	-0.112091	0.000112
C225	C	0.256761	-0.073020	0.000104
H226	H	0.249455	-0.141792	0.000111
H227	H	0.200975	-0.110488	0.035351
H228	H	0.200969	-0.110491	-0.035126
H229	H	0.280226	-0.074618	0.035345
H230	H	0.280234	-0.074624	-0.035139
H231	H	0.527488	-0.298818	0.000015
C232	C	0.521025	-0.131815	0.000048
C233	C	0.566215	-0.169860	0.000051
H234	H	0.485576	-0.144845	0.000030
H235	H	0.523412	-0.112408	0.035290
H236	H	0.523436	-0.112395	-0.035187
H237	H	0.563807	-0.189278	0.035288
H238	H	0.563827	-0.189275	-0.035195
C239	C	0.193594	0.226673	-0.051912
C240	C	0.212302	0.200144	0.000036
H241	H	0.208866	0.256792	-0.051914
H242	H	0.206286	0.208666	-0.087142
H243	H	0.152941	0.232561	-0.051906
H244	H	0.252954	0.194253	0.000027
H245	H	0.199613	0.218155	0.035275
H246	H	0.582198	-0.072916	0.000067
H247	H	0.601414	0.122847	0.734965
C248	C	0.517008	0.194283	0.525464
C249	C	0.551254	0.165293	0.566817
H250	H	0.490523	0.216699	0.547042
H251	H	0.540559	0.211569	0.500656
H252	H	0.496709	0.174240	0.500655
H253	H	0.571556	0.185336	0.591623
H254	H	0.527700	0.148006	0.591635
H255	H	0.486290	0.146202	0.000024
H256	H	-0.060167	0.140653	0.000056
C257	C	0.053055	0.201212	-0.051911
C258	C	0.087639	0.198873	0.000037
H259	H	0.028042	0.230915	-0.051920
H260	H	0.076531	0.199605	-0.087141
H261	H	0.031131	0.174703	-0.051898
H262	H	0.109566	0.225380	0.000021
H263	H	0.064160	0.200484	0.035276
H264	H	0.404543	-0.014804	0.000058
C265	C	-0.213025	0.154361	-0.051884
C266	C	-0.178434	0.152026	0.000059
H267	H	-0.238050	0.184059	-0.051884
H268	H	-0.189554	0.152767	-0.087117
H269	H	-0.234936	0.127845	-0.051873
H270	H	-0.156519	0.178541	0.000045
H271	H	-0.201907	0.153625	0.035301
H272	H	0.817996	-0.483866	0.000062
H273	H	0.770646	-0.094710	0.000095
H274	H	0.742965	0.003000	0.149765
