data_functionalizedCrystal
_audit_creation_method	'MofGen! by Chris Wilmer'
_symmetry_space_group_name_H-M	'P1'
_symmetry_Int_Tables_number	1
_symmetry_cell_setting	triclinic
loop_
_symmetry_equiv_pos_as_xyz
  x,y,z
_cell_length_a	25.639239
_cell_length_b	21.395362
_cell_length_c	21.395355
_cell_angle_alpha	89.956060
_cell_angle_beta	89.980666
_cell_angle_gamma	90.054564
loop_
_atom_site_label
_atom_site_type_symbol
_atom_site_fract_x
_atom_site_fract_y
_atom_site_fract_z
Zn1	Zn	-0.207990	0.957825	-0.354582
Zn2	Zn	0.292010	1.457825	0.145418
Zn3	Zn	-0.295409	0.957713	-0.249803
Zn4	Zn	0.204591	1.457713	0.250197
Zn5	Zn	-0.208014	0.853040	-0.249783
Zn6	Zn	0.291986	1.353040	0.250217
Zn7	Zn	-0.295420	0.852994	-0.354508
Zn8	Zn	0.204580	1.352994	0.145492
O9	O	-0.251708	0.905393	-0.302169
O10	O	0.248292	1.405393	0.197831
O11	O	-0.219571	1.045488	-0.340722
O12	O	0.280429	1.545488	0.159278
O13	O	-0.283822	0.943800	-0.162122
O14	O	0.216178	1.443800	0.337878
O15	O	-0.134846	0.867006	-0.263708
O16	O	0.365154	1.367006	0.236292
O17	O	-0.283798	1.045405	-0.263742
O18	O	0.216202	1.545405	0.236258
O19	O	-0.134828	0.943991	-0.340703
O20	O	0.365172	1.443991	0.159297
O21	O	-0.219613	0.866897	-0.162108
O22	O	0.280387	1.366897	0.337892
O23	O	-0.219623	0.765356	-0.263636
O24	O	0.280377	1.265356	0.236364
O25	O	-0.283817	0.866928	-0.442196
O26	O	0.216183	1.366928	0.057804
O27	O	-0.283840	0.765322	-0.340576
O28	O	0.216160	1.265322	0.159424
O29	O	-0.219582	0.943947	-0.442250
O30	O	0.280418	1.443947	0.057750
O31	O	-0.368576	0.943756	-0.263669
O32	O	0.131424	1.443756	0.236331
O33	O	-0.368584	0.866820	-0.340596
O34	O	0.131416	1.366820	0.159404
C35	C	-0.251736	0.742605	-0.302096
C36	C	0.248264	1.242605	0.197904
C37	C	-0.251760	0.672964	-0.302080
C38	C	0.248240	1.172964	0.197920
C39	C	-0.285243	0.640250	-0.342083
C40	C	0.214757	1.140250	0.157917
C41	C	-0.285230	0.574814	-0.342111
C42	C	0.214770	1.074814	0.157889
C43	C	-0.251740	0.542096	-0.302125
C44	C	0.248260	1.042096	0.197875
C45	C	-0.218252	0.574818	-0.262119
C46	C	0.281748	1.074818	0.237881
C47	C	-0.218262	0.640252	-0.262097
C48	C	0.281738	1.140252	0.237903
C49	C	-0.247528	0.438372	-0.245720
C50	C	0.252472	0.938372	0.254280
C51	C	-0.247522	0.372939	-0.245741
C52	C	0.252478	0.872939	0.254259
C53	C	-0.251706	0.340275	-0.302194
C54	C	0.248294	0.840275	0.197806
C55	C	-0.255908	0.373052	-0.358627
C56	C	0.244092	0.873052	0.141373
C57	C	-0.255918	0.438486	-0.358605
C58	C	0.244082	0.938486	0.141395
C59	C	-0.251725	0.471143	-0.302145
C60	C	0.248275	0.971143	0.197855
C61	C	-0.285176	0.236608	-0.342231
C62	C	0.214824	0.736608	0.157769
C63	C	-0.285160	0.171172	-0.342260
C64	C	0.214840	0.671172	0.157740
C65	C	-0.218185	0.171176	-0.262262
C66	C	0.281815	0.671176	0.237738
C67	C	-0.218198	0.236612	-0.262239
C68	C	0.281802	0.736612	0.237761
C69	C	-0.251697	0.269324	-0.302222
C70	C	0.248303	0.769324	0.197778
C71	C	-0.387551	0.905288	-0.302140
C72	C	0.112449	1.405288	0.197860
C73	C	-0.445665	0.905300	-0.302149
C74	C	0.054335	1.405300	0.197851
C75	C	-0.806011	0.945558	-0.262182
C76	C	-0.306011	1.445558	0.237818
C77	C	-0.860616	0.945582	-0.262190
C78	C	-0.360616	1.445582	0.237810
O79	O	-0.888838	0.979702	-0.228177
O80	O	-0.388838	1.479702	0.271823
N81	N	-0.887947	0.905503	-0.302211
N82	N	-0.387947	1.405503	0.197789
C83	C	-0.860672	0.865401	-0.342230
C84	C	-0.360672	1.365401	0.157770
O85	O	-0.888934	0.831313	-0.376271
O86	O	-0.388934	1.331313	0.123729
C87	C	-0.806069	0.865381	-0.342224
C88	C	-0.306069	1.365381	0.157776
C89	C	-0.778740	0.905458	-0.302196
C90	C	-0.278740	1.405458	0.197804
C91	C	-0.778682	0.985633	-0.222158
C92	C	-0.278682	1.485633	0.277842
C93	C	-0.724082	0.985608	-0.222149
C94	C	-0.224082	1.485608	0.277851
C95	C	-0.696810	0.945508	-0.262164
C96	C	-0.196810	1.445508	0.237836
C97	C	-0.724139	0.905433	-0.302187
C98	C	-0.224139	1.405433	0.197813
C99	C	-0.778794	0.825282	-0.382246
C100	C	-0.278794	1.325282	0.117754
C101	C	-0.724187	0.825266	-0.382237
C102	C	-0.224187	1.325266	0.117763
C103	C	-0.696858	0.865343	-0.342209
C104	C	-0.196858	1.365343	0.157791
C105	C	-0.642267	0.865308	-0.342193
C106	C	-0.142267	1.365308	0.157807
N107	N	-0.614935	0.905387	-0.302173
N108	N	-0.114935	1.405387	0.197827
C109	C	-0.642207	0.945487	-0.262158
C110	C	-0.142207	1.445487	0.237842
C111	C	-0.975343	0.865448	-0.342239
C112	C	-0.475343	1.365448	0.157761
C113	C	-1.029945	0.865465	-0.342242
C114	C	-0.529945	1.365465	0.157758
C115	C	-1.029885	0.945648	-0.262204
C116	C	-0.529885	1.445648	0.237796
C117	C	-0.975281	0.945627	-0.262198
C118	C	-0.475281	1.445627	0.237802
C119	C	-0.948011	0.905528	-0.302219
C120	C	-0.448011	1.405528	0.197781
C121	C	-0.527542	0.945430	-0.262142
C122	C	-0.027542	1.445430	0.237858
C123	C	-0.472937	0.945400	-0.262134
C124	C	0.027063	1.445400	0.237866
C125	C	-0.473002	0.865220	-0.342175
C126	C	0.026998	1.365220	0.157825
C127	C	-0.527602	0.865248	-0.342180
C128	C	-0.027602	1.365248	0.157820
C129	C	-0.554871	0.905358	-0.302162
C130	C	-0.054871	1.405358	0.197838
O131	O	-0.614010	0.831207	-0.376190
O132	O	-0.114010	1.331207	0.123810
O133	O	-0.613939	0.979575	-0.228128
O134	O	-0.113939	1.479575	0.271872
C135	C	-0.115335	0.905516	-0.302212
C136	C	0.384665	1.405516	0.197788
C137	C	-0.057221	0.905568	-0.302230
C138	C	0.442779	1.405568	0.197770
C139	C	-0.251681	1.068816	-0.302242
C140	C	0.248319	1.568816	0.197758
C141	C	-0.251669	1.138458	-0.302274
C142	C	0.248331	1.638458	0.197726
C143	C	-0.251698	0.905445	-0.465592
C144	C	0.248302	1.405445	0.034408
C145	C	-0.251693	0.905467	-0.535234
C146	C	0.248307	1.405467	-0.035234
C147	C	-0.218245	0.945569	-0.567976
C148	C	0.281755	1.445569	-0.067976
C149	C	-0.218222	0.945568	-0.633412
C150	C	0.281778	1.445568	-0.133412
C151	C	-0.251658	0.905472	-0.666102
C152	C	0.248342	1.405472	-0.166102
C153	C	-0.285108	0.865362	-0.633352
C154	C	0.214892	1.365362	-0.133352
C155	C	-0.285126	0.865360	-0.567917
C156	C	0.214874	1.365360	-0.067917
C157	C	-0.298736	0.900488	-0.769765
C158	C	0.201264	1.400488	-0.269765
C159	C	-0.298719	0.900495	-0.835198
C160	C	0.201281	1.400495	-0.335198
C161	C	-0.251602	0.905476	-0.867923
C162	C	0.248398	1.405476	-0.367923
C163	C	-0.204501	0.910463	-0.835207
C164	C	0.295499	1.410463	-0.335207
C165	C	-0.204519	0.910461	-0.769773
C166	C	0.295481	1.410461	-0.269773
C167	C	-0.251642	0.905470	-0.737054
C168	C	0.248358	1.405470	-0.237054
C169	C	-0.218127	0.945579	-0.971618
C170	C	0.281873	1.445579	-0.471618
C171	C	-0.218103	0.945574	-1.037055
C172	C	0.281897	1.445574	-0.537055
C173	C	-0.284994	0.865371	-1.036993
C174	C	0.215006	1.365371	-0.536993
C175	C	-0.285013	0.865373	-0.971558
C176	C	0.214987	1.365373	-0.471558
C177	C	-0.251580	0.905480	-0.938874
C178	C	0.248420	1.405480	-0.438874
C179	C	-0.251681	0.905377	-0.139381
C180	C	0.248319	1.405377	0.360619
C181	C	-0.251538	0.905476	-0.069741
C182	C	0.248462	1.405476	0.430259
H183	H	-0.244104	0.346256	-0.199789
H184	H	0.255896	0.846256	0.300211
N185	N	-0.346819	0.895377	-0.868631
N186	N	0.153181	1.395377	-0.368631
N187	N	-0.354111	0.850610	-0.905111
N188	N	0.145889	1.350610	-0.405111
H189	H	-0.388079	0.846989	-0.928729
H190	H	0.111921	1.346989	-0.428729
N191	N	-1.057739	0.986615	-0.221324
N192	N	-0.557739	1.486615	0.278676
N193	N	-1.051670	0.982490	-0.163502
N194	N	-0.551670	1.482490	0.336498
H195	H	-1.071342	1.011422	-0.134632
H196	H	-0.571342	1.511422	0.365368
N197	N	-0.346873	0.895393	-0.736351
N198	N	0.153127	1.395393	-0.236351
N199	N	-0.388922	0.890946	-0.765566
N200	N	0.111078	1.390946	-0.265566
H201	H	-0.422917	0.887347	-0.741968
H202	H	0.077083	1.387347	-0.241968
H203	H	-0.800881	1.018290	-0.189573
H204	H	-0.300881	1.518290	0.310427
N205	N	-0.156405	0.915542	-0.736364
N206	N	0.343595	1.415542	-0.236364
N207	N	-0.121682	0.875226	-0.743644
N208	N	0.378318	1.375226	-0.243644
H209	H	-0.087699	0.878812	-0.720050
H210	H	0.412301	1.378812	-0.220050
H211	H	-0.450789	0.832569	-0.374753
H212	H	0.049211	1.332569	0.125247
N213	N	-0.696177	1.026542	-0.181251
N214	N	-0.196177	1.526542	0.318749
N215	N	-0.702315	1.022412	-0.123434
N216	N	-0.202315	1.522412	0.376566
H217	H	-0.682613	1.051325	-0.094545
H218	H	-0.182613	1.551325	0.405455
N219	N	-0.555523	0.824298	-0.383051
N220	N	-0.055523	1.324298	0.116949
N221	N	-0.549494	0.766482	-0.378818
N222	N	-0.049494	1.266482	0.121182
H223	H	-0.569211	0.737563	-0.407685
H224	H	-0.069211	1.237563	0.092315
H225	H	-0.312330	0.832714	-0.659972
H226	H	0.187670	1.332714	-0.159972
H227	H	-0.166134	0.914520	-0.861850
H228	H	0.333866	1.414520	-0.361850
N229	N	-0.184093	0.986541	-0.534601
N230	N	0.315907	1.486541	-0.034601
N231	N	-0.154230	1.022345	-0.563849
N232	N	0.345770	1.522345	-0.063849
H233	H	-0.130110	1.051283	-0.540278
H234	H	0.369890	1.551283	-0.040278
N235	N	-0.183979	0.986540	-0.938219
N236	N	0.316021	1.486540	-0.438219
N237	N	-0.202378	1.026449	-0.901737
N238	N	0.297622	1.526449	-0.401737
H239	H	-0.178262	1.055378	-0.878149
H240	H	0.321738	1.555378	-0.378149
H241	H	-0.190936	0.263248	-0.229661
H242	H	0.309064	0.763248	0.270339
H243	H	-1.052192	0.832824	-0.374831
H244	H	-0.552192	1.332824	0.125169
N245	N	-0.243241	0.471736	-0.188053
N246	N	0.256759	0.971736	0.311947
N247	N	-0.204009	0.464446	-0.154165
N248	N	0.295991	0.964446	0.345835
H249	H	-0.200978	0.488011	-0.113440
H250	H	0.299022	0.988011	0.386560
H251	H	-0.190984	0.548174	-0.229563
H252	H	0.309016	1.048174	0.270437
N253	N	-0.947376	0.986567	-0.221306
N254	N	-0.447376	1.486567	0.278694
N255	N	-0.971739	1.022363	-0.185581
N256	N	-0.471739	1.522363	0.314419
H257	H	-0.952034	1.051279	-0.156699
H258	H	-0.452034	1.551279	0.343301
N259	N	-0.184047	0.986532	-0.666857
N260	N	0.315953	1.486532	-0.166857
N261	N	-0.154197	1.022334	-0.637668
N262	N	0.345803	1.522334	-0.137668
H263	H	-0.130059	1.051265	-0.661286
H264	H	0.369941	1.551265	-0.161286
H265	H	-0.259338	0.465171	-0.404555
H266	H	0.240662	0.965171	0.095445
N267	N	-0.184054	0.673662	-0.221231
N268	N	0.315946	1.173662	0.278769
N269	N	-0.154150	0.644445	-0.185535
N270	N	0.345850	1.144445	0.314465
H271	H	-0.129990	0.668042	-0.156673
H272	H	0.370010	1.168042	0.343327
N273	N	-0.445030	0.986341	-0.221238
N274	N	0.054970	1.486341	0.278762
N275	N	-0.469390	1.022140	-0.185515
N276	N	0.030610	1.522140	0.314485
H277	H	-0.449683	1.051055	-0.156632
H278	H	0.050317	1.551055	0.343368
H279	H	-0.312424	0.144537	-0.374839
H280	H	0.187576	0.644537	0.125161
N281	N	-0.947497	0.824479	-0.383125
N282	N	-0.447497	1.324479	0.116875
N283	N	-0.971911	0.788700	-0.418852
N284	N	-0.471911	1.288700	0.081148
H285	H	-0.952248	0.759766	-0.447728
H286	H	-0.452248	1.259766	0.052272
H287	H	-0.801036	0.792644	-0.414837
H288	H	-0.301036	1.292644	0.085163
N289	N	-0.183927	0.986538	-1.070493
N290	N	0.316073	1.486538	-0.570493
N291	N	-0.154081	1.022342	-1.041300
N292	N	0.345919	1.522342	-0.541300
H293	H	-0.129943	1.051274	-1.064916
H294	H	0.370057	1.551274	-0.564916
H295	H	-0.312213	0.832718	-1.063609
H296	H	0.187787	1.332718	-0.563609
N297	N	-0.319296	0.824389	-0.534478
N298	N	0.180704	1.324389	-0.034478
N299	N	-0.349144	0.788586	-0.563669
N300	N	0.150856	1.288586	-0.063669
H301	H	-0.373278	0.759650	-0.540052
H302	H	0.126722	1.259650	-0.040052
H303	H	-0.701986	0.792613	-0.414829
H304	H	-0.201986	1.292613	0.085171
N305	N	-0.319184	0.824407	-0.938118
N306	N	0.180816	1.324407	-0.438118
N307	N	-0.349034	0.788606	-0.967311
N308	N	0.150966	1.288606	-0.467311
H309	H	-0.373168	0.759670	-0.943694
H310	H	0.126832	1.259670	-0.443694
H311	H	-0.190914	0.144537	-0.229707
H312	H	0.309086	0.644537	0.270293
N313	N	-0.555384	0.986395	-0.221251
N314	N	-0.055384	1.486395	0.278749
N315	N	-0.549304	0.982256	-0.163432
N316	N	-0.049304	1.482256	0.336568
H317	H	-0.568967	1.011183	-0.134549
H318	H	-0.068967	1.511183	0.365451
N319	N	-0.319465	0.673660	-0.382920
N320	N	0.180535	1.173660	0.117080
N321	N	-0.367703	0.666279	-0.378657
N322	N	0.132297	1.166279	0.121343
H323	H	-0.391873	0.689875	-0.407498
H324	H	0.108127	1.189875	0.092502
N325	N	-0.319442	0.541398	-0.382971
N326	N	0.180558	1.041398	0.117029
N327	N	-0.367682	0.548637	-0.378699
N328	N	0.132318	1.048637	0.121301
H329	H	-0.391846	0.525038	-0.407556
H330	H	0.108154	1.025038	0.092444
N331	N	-0.260198	0.339687	-0.416291
N332	N	0.239802	0.839687	0.083709
N333	N	-0.260194	0.281264	-0.416305
N334	N	0.239806	0.781264	0.083695
H335	H	-0.263230	0.257696	-0.457027
H336	H	0.236770	0.757696	0.042973
N337	N	-0.319396	0.270018	-0.383074
N338	N	0.180604	0.770018	0.116926
N339	N	-0.349286	0.240797	-0.418793
N340	N	0.150714	0.740797	0.081207
H341	H	-0.373455	0.264391	-0.447639
H342	H	0.126545	0.764391	0.052361
