data_functionalizedCrystal
_audit_creation_method	'MofGen! by Chris Wilmer'
_symmetry_space_group_name_H-M	'P1'
_symmetry_Int_Tables_number	1
_symmetry_cell_setting	triclinic
loop_
_symmetry_equiv_pos_as_xyz
  x,y,z
_cell_length_a	14.044220
_cell_length_b	19.288865
_cell_length_c	17.766277
_cell_angle_alpha	89.988397
_cell_angle_beta	89.995720
_cell_angle_gamma	88.162563
loop_
_atom_site_label
_atom_site_type_symbol
_atom_site_fract_x
_atom_site_fract_y
_atom_site_fract_z
O1	O	1.256998	0.167413	-0.062531
O2	O	1.756998	0.667413	0.437469
O3	O	0.981055	0.161372	-0.062549
O4	O	1.481055	0.661372	0.437451
O5	O	1.127000	0.063774	-0.062525
O6	O	1.627000	0.563774	0.437475
O7	O	1.111053	0.265010	-0.062556
O8	O	1.611053	0.765010	0.437444
O9	O	1.126975	0.063767	0.062664
O10	O	1.626975	0.563767	0.562664
O11	O	0.981029	0.161365	0.062639
O12	O	1.481029	0.661365	0.562639
O13	O	1.256973	0.167406	0.062658
O14	O	1.756973	0.667406	0.562658
Cu15	Cu	1.118999	0.164385	0.074079
Cu16	Cu	1.618999	0.664385	0.574079
Cu17	Cu	1.119029	0.164393	-0.073971
Cu18	Cu	1.619029	0.664393	0.426029
O19	O	1.111028	0.265003	0.062633
O20	O	1.611028	0.765003	0.562633
C21	C	1.126474	0.037862	0.000072
C22	C	1.626474	0.537862	0.500072
C23	C	1.124934	-0.039341	0.000078
C24	C	1.624934	0.460659	0.500078
C25	C	0.945739	0.158724	0.000043
C26	C	1.445739	0.658724	0.500043
C27	C	0.840547	0.150836	0.000036
C28	C	1.340547	0.650836	0.500036
C29	C	1.210568	-0.078535	0.000088
C30	C	1.710568	0.421465	0.500088
C31	C	1.209121	-0.151075	0.000076
C32	C	1.709121	0.348925	0.500076
C33	C	1.122035	-0.184418	0.000069
C34	C	1.622035	0.315582	0.500069
C35	C	1.036390	-0.145215	0.000056
C36	C	1.536390	0.354785	0.500056
C37	C	1.037839	-0.072676	0.000060
C38	C	1.537839	0.427324	0.500060
C39	C	1.053566	-0.297107	0.043916
C40	C	1.553566	0.202893	0.543916
C41	C	1.052120	-0.369644	0.043916
C42	C	1.552120	0.130356	0.543916
C43	C	1.117560	-0.408151	0.000052
C44	C	1.617560	0.091849	0.500052
C45	C	1.184463	-0.374113	-0.043802
C46	C	1.684463	0.125887	0.456198
C47	C	1.185912	-0.301574	-0.043797
C48	C	1.685912	0.198426	0.456203
C49	C	1.120453	-0.263074	0.000064
C50	C	1.620453	0.236926	0.500064
C51	C	1.201631	-0.526002	0.000048
C52	C	1.701631	-0.026002	0.500048
C53	C	1.200181	-0.598543	0.000031
C54	C	1.700181	-0.098543	0.500031
C55	C	1.027447	-0.592681	0.000019
C56	C	1.527447	-0.092681	0.500019
C57	C	1.028900	-0.520142	0.000028
C58	C	1.528900	-0.020142	0.500028
C59	C	1.115995	-0.486806	0.000046
C60	C	1.615995	0.013194	0.500046
C61	C	0.647947	0.136416	0.000053
C62	C	1.147947	0.636416	0.500053
C63	C	0.590075	0.192359	0.000048
C64	C	1.090075	0.692359	0.500048
C65	C	0.482906	0.184335	0.000058
C66	C	0.982906	0.684335	0.500058
C67	C	0.755126	0.144438	0.000044
C68	C	1.255126	0.644438	0.500044
C69	C	1.292289	0.170054	0.000064
C70	C	1.792289	0.670054	0.500064
C71	C	1.397481	0.177942	0.000065
C72	C	1.897481	0.677942	0.500065
C73	C	1.111554	0.290916	0.000035
C74	C	1.611554	0.790916	0.500035
C75	C	1.113094	0.368119	0.000023
C76	C	1.613094	0.868119	0.500023
N77	N	1.118984	0.164379	0.178209
N78	N	1.618984	0.664379	0.678209
N79	N	1.119051	0.164394	-0.178101
N80	N	1.619051	0.664394	0.321899
C81	C	1.183630	0.121187	0.217607
C82	C	1.683630	0.621187	0.717607
C83	C	1.183635	0.121184	0.296409
C84	C	1.683635	0.621184	0.796409
C85	C	1.119004	0.164386	0.335810
C86	C	1.619004	0.664386	0.835810
C87	C	1.054347	0.207580	0.296403
C88	C	1.554347	0.707580	0.796403
C89	C	1.054337	0.207577	0.217602
C90	C	1.554337	0.707577	0.717602
C91	C	1.106318	0.226858	0.460638
C92	C	1.606318	0.726858	0.960638
C93	C	1.106335	0.226863	0.539437
C94	C	1.606335	0.726863	1.039437
C95	C	1.119030	0.164396	0.578856
C96	C	1.619030	0.664396	1.078856
C97	C	1.131728	0.101922	0.539467
C98	C	1.631728	0.601922	1.039467
C99	C	1.131718	0.101919	0.460667
C100	C	1.631718	0.601919	0.960667
C101	C	1.119008	0.164394	0.421256
C102	C	1.619008	0.664394	0.921256
C103	C	1.183684	0.121197	0.703700
C104	C	1.683684	0.621197	1.203700
C105	C	1.183683	0.121193	0.782503
C106	C	1.683683	0.621193	1.282503
C107	C	1.054400	0.207595	0.782495
C108	C	1.554400	0.707595	1.282495
C109	C	1.054396	0.207593	0.703694
C110	C	1.554396	0.707593	1.203694
C111	C	1.119044	0.164395	0.664301
C112	C	1.619044	0.664395	1.164301
H113	H	1.281487	-0.051398	0.000100
H114	H	1.781487	0.448602	0.500100
H115	H	1.096001	0.277733	0.571501
H116	H	1.596001	0.777733	1.071501
H117	H	1.236279	0.086011	0.328493
H118	H	1.736279	0.586011	0.828493
H119	H	0.621016	0.246280	0.000036
H120	H	1.121016	0.746280	0.500036
H121	H	1.000274	-0.265760	0.079639
H122	H	1.500274	0.234240	0.579639
H123	H	0.617008	0.082499	0.000066
H124	H	1.117008	0.582499	0.500066
H125	H	1.142055	0.051051	0.428600
H126	H	1.642055	0.551051	0.928600
H127	H	1.240385	-0.273863	-0.079506
H128	H	1.740385	0.226137	0.420494
H129	H	1.001760	0.242767	0.671614
H130	H	1.501760	0.742767	1.171614
H131	H	1.236267	0.086011	0.185536
H132	H	1.736267	0.586011	0.685536
H133	H	1.142065	0.051055	0.571561
H134	H	1.642065	0.551055	1.071561
H135	H	0.968103	-0.040764	0.000053
H136	H	1.468103	0.459236	0.500053
H137	H	0.965484	-0.172367	0.000049
H138	H	1.465484	0.327633	0.500049
H139	H	1.237750	-0.405464	-0.079520
H140	H	1.737750	0.094536	0.420480
H141	H	1.095964	0.277729	0.428549
H142	H	1.595964	0.777729	0.928549
H143	H	1.236322	0.086020	0.671625
H144	H	1.736322	0.586020	1.171625
H145	H	1.236323	0.086017	0.814582
H146	H	1.736323	0.586017	1.314582
H147	H	1.001722	0.242754	0.328487
H148	H	1.501722	0.742754	0.828487
H149	H	1.001772	0.242768	0.814575
H150	H	1.501772	0.742768	1.314575
H151	H	1.001694	0.242749	0.185524
H152	H	1.501694	0.742749	0.685524
H153	H	1.272549	-0.498859	0.000059
H154	H	1.772549	0.001141	0.500059
H155	H	1.278856	-0.182993	0.000080
H156	H	1.778856	0.317007	0.500080
H157	H	1.269917	-0.630454	0.000034
H158	H	1.769917	-0.130454	0.500034
H159	H	0.956540	-0.619828	0.000010
H160	H	1.456540	-0.119828	0.500010
H161	H	0.959167	-0.488229	0.000024
H162	H	1.459167	0.011771	0.500024
H163	H	0.997640	-0.397352	0.079620
H164	H	1.497640	0.102648	0.579620
