data_functionalizedCrystal
_audit_creation_method	'MofGen! by Chris Wilmer'
_symmetry_space_group_name_H-M	'P1'
_symmetry_Int_Tables_number	1
_symmetry_cell_setting	triclinic
loop_
_symmetry_equiv_pos_as_xyz
  x,y,z
_cell_length_a	25.639242
_cell_length_b	29.839131
_cell_length_c	25.639233
_cell_angle_alpha	89.980415
_cell_angle_beta	89.977834
_cell_angle_gamma	90.036947
loop_
_atom_site_label
_atom_site_type_symbol
_atom_site_fract_x
_atom_site_fract_y
_atom_site_fract_z
Zn1	Zn	0.799215	-0.178962	-0.295739
Zn2	Zn	1.299215	0.321038	0.204261
Zn3	Zn	0.799134	-0.254076	-0.208302
Zn4	Zn	1.299134	0.245924	0.291698
Zn5	Zn	0.711791	-0.178955	-0.208303
Zn6	Zn	1.211791	0.321045	0.291697
Zn7	Zn	0.711732	-0.254059	-0.295692
Zn8	Zn	1.211732	0.245941	0.204308
O9	O	0.755468	-0.216513	-0.252009
O10	O	1.255468	0.283487	0.247991
O11	O	0.872370	-0.188935	-0.284160
O12	O	1.372370	0.311065	0.215840
O13	O	0.787539	-0.244115	-0.135137
O14	O	1.287539	0.255885	0.364863
O15	O	0.723447	-0.116089	-0.219922
O16	O	1.223447	0.383911	0.280078
O17	O	0.872310	-0.244122	-0.219920
O18	O	1.372310	0.255878	0.280080
O19	O	0.787677	-0.116094	-0.284161
O20	O	1.287677	0.383906	0.215839
O21	O	0.723369	-0.188924	-0.135138
O22	O	1.223369	0.311076	0.364862
O23	O	0.638618	-0.188908	-0.219876
O24	O	1.138618	0.311092	0.280124
O25	O	0.723346	-0.244093	-0.368864
O26	O	1.223346	0.255907	0.131136
O27	O	0.638575	-0.244087	-0.284081
O28	O	1.138575	0.255913	0.215919
O29	O	0.787619	-0.188919	-0.368898
O30	O	1.287619	0.311081	0.131102
O31	O	0.787482	-0.316941	-0.219875
O32	O	1.287482	0.183059	0.280125
O33	O	0.723268	-0.316929	-0.284080
O34	O	1.223268	0.183071	0.215920
C35	C	0.619626	-0.216495	-0.251974
C36	C	1.119626	0.283505	0.248026
C37	C	0.561512	-0.216499	-0.251971
C38	C	1.061512	0.283501	0.248029
C39	C	0.201135	-0.245293	-0.285409
C40	C	0.701135	0.254707	0.214591
C41	C	0.146531	-0.245295	-0.285417
C42	C	0.646531	0.254705	0.214583
O43	O	0.118282	-0.269755	-0.313817
O44	O	0.618282	0.230245	0.186183
N45	N	0.119229	-0.216525	-0.252043
N46	N	0.619229	0.283475	0.247957
C47	C	0.146535	-0.187748	-0.218663
C48	C	0.646535	0.312252	0.281337
O49	O	0.118299	-0.163276	-0.190277
O50	O	0.618299	0.336724	0.309723
C51	C	0.201138	-0.187743	-0.218658
C52	C	0.701138	0.312257	0.281342
C53	C	0.228437	-0.216518	-0.252030
C54	C	0.728437	0.283482	0.247970
C55	C	0.228434	-0.274065	-0.318778
C56	C	0.728434	0.225935	0.181222
C57	C	0.283034	-0.274063	-0.318769
C58	C	0.783034	0.225937	0.181231
C59	C	0.310336	-0.245288	-0.285390
C60	C	0.810336	0.254712	0.214610
C61	C	0.283037	-0.216516	-0.252021
C62	C	0.783037	0.283484	0.247979
C63	C	0.228443	-0.158963	-0.185281
C64	C	0.728443	0.341037	0.314719
C65	C	0.283050	-0.158961	-0.185279
C66	C	0.783050	0.341039	0.314721
C67	C	0.310349	-0.187736	-0.218651
C68	C	0.810349	0.312264	0.281349
C69	C	0.364940	-0.187739	-0.218633
C70	C	0.864940	0.312261	0.281367
N71	N	0.392241	-0.216509	-0.252006
N72	N	0.892241	0.283491	0.247994
C73	C	0.364939	-0.245283	-0.285385
C74	C	0.864939	0.254717	0.214615
C75	C	0.031864	-0.187759	-0.218677
C76	C	0.531864	0.312241	0.281323
C77	C	-0.022738	-0.187766	-0.218679
C78	C	0.477262	0.312234	0.281321
C79	C	-0.022739	-0.245313	-0.285434
C80	C	0.477261	0.254687	0.214566
C81	C	0.031865	-0.245308	-0.285429
C82	C	0.531865	0.254692	0.214571
C83	C	0.059166	-0.216529	-0.252051
C84	C	0.559166	0.283471	0.247949
C85	C	0.479604	-0.245277	-0.285363
C86	C	0.979604	0.254723	0.214637
C87	C	0.534210	-0.245273	-0.285350
C88	C	1.034210	0.254727	0.214650
C89	C	0.534206	-0.187724	-0.218597
C90	C	1.034206	0.312276	0.281403
C91	C	0.479605	-0.187729	-0.218609
C92	C	0.979605	0.312271	0.281391
C93	C	0.452306	-0.216507	-0.251996
C94	C	0.952306	0.283493	0.248004
O95	O	0.393223	-0.163290	-0.190249
O96	O	0.893223	0.336710	0.309751
O97	O	0.393182	-0.269746	-0.313771
O98	O	0.893182	0.230254	0.186229
C99	C	0.755374	-0.333236	-0.251983
C100	C	1.255374	0.166764	0.248017
C101	C	0.755381	-0.383170	-0.251990
C102	C	1.255381	0.116830	0.248010
C103	C	0.788965	-0.692807	-0.218627
C104	C	1.288965	-0.192807	0.281373
C105	C	0.789030	-0.880480	-0.218647
C106	C	1.289030	-0.380480	0.281353
O107	O	0.817509	-0.904740	-0.190260
O108	O	1.317509	-0.404740	0.309740
N109	N	0.755577	-0.903955	-0.252049
N110	N	1.255577	-0.403955	0.247951
C111	C	0.722108	-0.880509	-0.285450
C112	C	1.222108	-0.380509	0.214550
O113	O	0.693659	-0.904782	-0.313865
O114	O	1.193659	-0.404782	0.186135
C115	C	0.722046	-0.692837	-0.285432
C116	C	1.222046	-0.192837	0.214568
C117	C	0.755498	-0.669364	-0.252024
C118	C	1.255498	-0.169364	0.247976
C119	C	0.822415	-0.669335	-0.185222
C120	C	1.322415	-0.169335	0.314778
C121	C	0.822396	-0.622419	-0.185215
C122	C	1.322396	-0.122419	0.314785
C123	C	0.788928	-0.598976	-0.218613
C124	C	1.288928	-0.098976	0.281387
C125	C	0.755479	-0.622449	-0.252018
C126	C	1.255479	-0.122449	0.247982
C127	C	0.688580	-0.669391	-0.318836
C128	C	1.188580	-0.169391	0.181164
C129	C	0.688568	-0.622470	-0.318829
C130	C	1.188568	-0.122470	0.181171
C131	C	0.722020	-0.598998	-0.285422
C132	C	1.222020	-0.098998	0.214578
C133	C	0.721993	-0.552090	-0.285409
C134	C	1.221993	-0.052090	0.214591
N135	N	0.755446	-0.528615	-0.252007
N136	N	1.255446	-0.028615	0.247993
C137	C	0.788914	-0.552058	-0.218609
C138	C	1.288914	-0.052058	0.281391
C139	C	0.722141	-0.979039	-0.285457
C140	C	1.222141	-0.479039	0.214543
C141	C	0.722156	-1.025957	-0.285461
C142	C	1.222156	-0.525957	0.214539
C143	C	0.789079	-1.025925	-0.218658
C144	C	1.289079	-0.525925	0.281342
C145	C	0.789062	-0.979007	-0.218652
C146	C	1.289062	-0.479007	0.281348
C147	C	0.755595	-0.955565	-0.252055
C148	C	1.255595	-0.455565	0.247945
C149	C	0.788872	-0.453533	-0.218597
C150	C	1.288872	0.046467	0.281403
C151	C	0.788849	-0.406613	-0.218592
C152	C	1.288849	0.093387	0.281408
C153	C	0.721928	-0.406649	-0.285396
C154	C	1.221928	0.093351	0.214604
C155	C	0.721949	-0.453564	-0.285400
C156	C	1.221949	0.046436	0.214600
C157	C	0.755425	-0.477005	-0.251999
C158	C	1.255425	0.022995	0.248001
O159	O	0.693533	-0.527802	-0.313784
O160	O	1.193533	-0.027802	0.186216
O161	O	0.817366	-0.527777	-0.190207
O162	O	1.317366	-0.027777	0.309793
C163	C	0.788984	-0.739723	-0.218633
C164	C	1.288984	-0.239723	0.281367
C165	C	0.755535	-0.763195	-0.252038
C166	C	1.255535	-0.263195	0.247962
C167	C	0.722067	-0.739752	-0.285436
C168	C	1.222067	-0.239752	0.214564
C169	C	0.755549	-0.810113	-0.252042
C170	C	1.255549	-0.310113	0.247958
C171	C	0.789017	-0.833556	-0.218644
C172	C	1.289017	-0.333556	0.281356
C173	C	0.822470	-0.810081	-0.185242
C174	C	1.322470	-0.310081	0.314758
C175	C	0.822451	-0.763166	-0.185235
C176	C	1.322451	-0.263166	0.314765
C177	C	0.688614	-0.763227	-0.318838
C178	C	1.188614	-0.263227	0.181162
C179	C	0.688635	-0.810143	-0.318841
C180	C	1.188635	-0.310143	0.181159
C181	C	0.722102	-0.833585	-0.285443
C182	C	1.222102	-0.333585	0.214557
C183	C	0.891841	-0.216531	-0.252045
C184	C	1.391841	0.283469	0.247955
C185	C	0.949955	-0.216539	-0.252060
C186	C	1.449955	0.283461	0.247940
C187	C	0.755485	-0.216505	-0.388382
C188	C	1.255485	0.283495	0.111618
C189	C	0.755492	-0.216502	-0.446496
C190	C	1.255492	0.283498	0.053504
C191	C	0.755577	-0.099335	-0.252047
C192	C	1.255577	0.400665	0.247953
C193	C	0.755624	-0.049400	-0.252063
C194	C	1.255624	0.450600	0.247937
C195	C	0.789002	-0.187687	-0.806883
C196	C	1.289002	0.312313	-0.306883
C197	C	0.789008	-0.187675	-0.861488
C198	C	1.289008	0.312325	-0.361488
O199	O	0.817457	-0.163229	-0.889744
O200	O	1.317457	0.336771	-0.389744
N201	N	0.755550	-0.216396	-0.888779
N202	N	1.255550	0.283604	-0.388779
C203	C	0.722079	-0.245129	-0.861463
C204	C	1.222079	0.254871	-0.361463
O205	O	0.693621	-0.269558	-0.889691
O206	O	1.193621	0.230442	-0.389691
C207	C	0.722071	-0.245139	-0.806860
C208	C	1.222071	0.254861	-0.306860
C209	C	0.755535	-0.216419	-0.779571
C210	C	1.255535	0.283581	-0.279571
C211	C	0.822463	-0.158969	-0.779594
C212	C	1.322463	0.341031	-0.279594
C213	C	0.822457	-0.158982	-0.724994
C214	C	1.322457	0.341018	-0.224994
C215	C	0.788990	-0.187714	-0.697682
C216	C	1.288990	0.312286	-0.197682
C217	C	0.755529	-0.216432	-0.724971
C218	C	1.255529	0.283568	-0.224971
C219	C	0.688598	-0.273869	-0.779545
C220	C	1.188598	0.226131	-0.279545
C221	C	0.688592	-0.273876	-0.724938
C222	C	1.188592	0.226124	-0.224938
C223	C	0.722056	-0.245156	-0.697650
C224	C	1.222056	0.254844	-0.197650
C225	C	0.722056	-0.245176	-0.643058
C226	C	1.222056	0.254824	-0.143058
N227	N	0.755514	-0.216455	-0.615767
N228	N	1.255514	0.283545	-0.115767
C229	C	0.788981	-0.187723	-0.643079
C230	C	1.288981	0.312277	-0.143079
C231	C	0.722100	-0.245106	-0.976134
C232	C	1.222100	0.254894	-0.476134
C233	C	0.722110	-0.245099	-1.030736
C234	C	1.222110	0.254901	-0.530736
C235	C	0.789039	-0.187644	-1.030757
C236	C	1.289039	0.312356	-0.530757
C237	C	0.789030	-0.187653	-0.976153
C238	C	1.289030	0.312347	-0.476153
C239	C	0.755558	-0.216384	-0.948843
C240	C	1.255558	0.283616	-0.448843
C241	C	0.788967	-0.187753	-0.528414
C242	C	1.288967	0.312247	-0.028414
C243	C	0.788959	-0.187770	-0.473808
C244	C	1.288959	0.312230	0.026192
C245	C	0.722029	-0.245223	-0.473793
C246	C	1.222029	0.254777	0.026207
C247	C	0.722038	-0.245208	-0.528393
C248	C	1.222038	0.254792	-0.028393
C249	C	0.755509	-0.216470	-0.555702
C250	C	1.255509	0.283530	-0.055702
O251	O	0.693620	-0.269609	-0.614767
O252	O	1.193620	0.230391	-0.114767
O253	O	0.817430	-0.163295	-0.614845
O254	O	1.317430	0.336705	-0.114845
C255	C	0.755482	-0.216488	-0.116167
C256	C	1.255482	0.283512	0.383833
C257	C	0.755576	-0.216365	-0.058053
C258	C	1.255576	0.283635	0.441947
H259	H	0.816089	-0.387503	-0.191385
H260	H	1.316089	0.112497	0.308615
H261	H	0.305256	-0.297494	-0.345945
H262	H	0.805256	0.202506	0.154055
C263	C	-0.017239	-0.130883	-0.152696
C264	C	0.482761	0.369117	0.347304
C265	C	-0.052741	-0.156138	-0.181993
C266	C	0.447259	0.343862	0.318007
H267	H	-0.035761	-0.111353	-0.130051
H268	H	0.464239	0.388647	0.369949
H269	H	0.004032	-0.150431	-0.132654
H270	H	0.504032	0.349569	0.367346
H271	H	0.004084	-0.113729	-0.175517
H272	H	0.504084	0.386271	0.324483
H273	H	-0.074061	-0.173294	-0.159172
H274	H	0.425939	0.326706	0.340828
H275	H	-0.074021	-0.136587	-0.202036
H276	H	0.425979	0.363413	0.297964
H277	H	0.694842	-0.268504	-0.953901
H278	H	1.194842	0.231496	-0.453901
C279	C	0.093236	-0.181423	-0.148347
C280	C	0.593236	0.318577	0.351653
C281	C	0.061873	-0.156128	-0.181979
C282	C	0.561873	0.343872	0.318021
H283	H	0.111762	-0.161894	-0.125694
H284	H	0.611762	0.338106	0.374306
H285	H	0.071911	-0.200970	-0.128314
H286	H	0.571911	0.299030	0.371686
H287	H	0.117310	-0.198552	-0.168227
H288	H	0.617310	0.301448	0.331773
H289	H	0.037795	-0.139001	-0.162099
H290	H	0.537795	0.360999	0.337901
H291	H	0.083200	-0.136572	-0.202014
H292	H	0.583200	0.363428	0.297986
H293	H	0.206226	-0.135532	-0.158104
H294	H	0.706226	0.364468	0.341896
C295	C	0.418243	-0.251620	-0.355700
C296	C	0.918243	0.248380	0.144300
C297	C	0.449601	-0.276910	-0.322061
C298	C	0.949601	0.223090	0.177939
H299	H	0.399723	-0.271150	-0.378355
H300	H	0.899723	0.228850	0.121645
H301	H	0.394167	-0.234491	-0.335829
H302	H	0.894167	0.265509	0.164171
H303	H	0.439573	-0.232071	-0.375735
H304	H	0.939573	0.267929	0.124265
H305	H	0.428270	-0.296457	-0.302023
H306	H	0.928270	0.203543	0.197977
H307	H	0.473680	-0.294047	-0.341934
H308	H	0.973680	0.205953	0.158066
C309	C	0.622488	-0.805450	-0.384881
C310	C	1.122488	-0.305450	0.115119
C311	C	0.651862	-0.835940	-0.355568
C312	C	1.151862	-0.335940	0.144432
H313	H	0.599792	-0.821376	-0.407558
H314	H	1.099792	-0.321376	0.092442
H315	H	0.602495	-0.787179	-0.362076
H316	H	1.102495	-0.287179	0.137924
H317	H	0.645256	-0.787120	-0.404895
H318	H	1.145256	-0.287120	0.095105
H319	H	0.629094	-0.854268	-0.335551
H320	H	1.129094	-0.354268	0.164449
H321	H	0.671856	-0.854218	-0.378375
H322	H	1.171856	-0.354218	0.121625
H323	H	0.206210	-0.297497	-0.345962
H324	H	0.706210	0.202503	0.154038
C325	C	0.026367	-0.302189	-0.351413
C326	C	0.526367	0.197811	0.148587
C327	C	0.061869	-0.276934	-0.322117
C328	C	0.561869	0.223066	0.177883
H329	H	0.044889	-0.321712	-0.374067
H330	H	0.544889	0.178288	0.125933
H331	H	0.005051	-0.319346	-0.328597
H332	H	0.505051	0.180654	0.171403
H333	H	0.005089	-0.282637	-0.371452
H334	H	0.505089	0.217363	0.128548
H335	H	0.083144	-0.296487	-0.302076
H336	H	0.583144	0.203513	0.197924
H337	H	0.083193	-0.259776	-0.344936
H338	H	0.583193	0.240224	0.155064
C339	C	0.277562	-0.102078	-0.119293
C340	C	0.777562	0.397922	0.380707
C341	C	0.313058	-0.127329	-0.148582
C342	C	0.813058	0.372671	0.351418
H343	H	0.296088	-0.082554	-0.096635
H344	H	0.796088	0.417446	0.403365
H345	H	0.256292	-0.084924	-0.142114
H346	H	0.756292	0.415076	0.357886
H347	H	0.256237	-0.121633	-0.099260
H348	H	0.756237	0.378367	0.400740
H349	H	0.334380	-0.107774	-0.168618
H350	H	0.834380	0.392226	0.331382
H351	H	0.334337	-0.144485	-0.125759
H352	H	0.834337	0.355515	0.374241
H353	H	0.694866	-0.268490	-1.052950
H354	H	1.194866	0.231510	-0.552950
C355	C	0.681238	-0.569690	-0.389151
C356	C	1.181238	-0.069690	0.110849
C357	C	0.651780	-0.596703	-0.355548
C358	C	1.151780	-0.096703	0.144452
H359	H	0.658526	-0.553785	-0.411820
H360	H	1.158526	-0.053785	0.088180
H361	H	0.701150	-0.548996	-0.369255
H362	H	1.201150	-0.048996	0.130745
H363	H	0.704011	-0.587971	-0.409173
H364	H	1.204011	-0.087971	0.090827
H365	H	0.629009	-0.578421	-0.335523
H366	H	1.129009	-0.078421	0.164477
H367	H	0.631859	-0.617399	-0.375446
H368	H	1.131859	-0.117399	0.124554
H369	H	0.816288	-0.164248	-1.053004
H370	H	1.316288	0.335752	-0.553004
C371	C	-0.106447	-0.270861	-0.315087
C372	C	0.393553	0.229139	0.184913
C373	C	-0.052756	-0.276939	-0.322131
C374	C	0.447244	0.223061	0.177869
H375	H	-0.124978	-0.290383	-0.337744
H376	H	0.375022	0.209617	0.162256
H377	H	-0.115414	-0.277395	-0.279950
H378	H	0.384586	0.222605	0.220050
H379	H	-0.115362	-0.240683	-0.322801
H380	H	0.384638	0.259317	0.177199
H381	H	-0.043841	-0.307116	-0.314413
H382	H	0.456159	0.192884	0.185587
H383	H	-0.043786	-0.270409	-0.357277
H384	H	0.456214	0.229591	0.142723
H385	H	0.849716	-0.135570	-0.801826
H386	H	1.349716	0.364430	-0.301826
C387	C	0.618271	-0.280093	-0.840932
C388	C	1.118271	0.219907	-0.340932
C389	C	0.651818	-0.305440	-0.809538
C390	C	1.151818	0.194560	-0.309538
H391	H	0.595568	-0.299587	-0.859450
H392	H	1.095568	0.200413	-0.359450
H393	H	0.598288	-0.260525	-0.819629
H394	H	1.098288	0.239475	-0.319629
H395	H	0.638209	-0.262983	-0.865013
H396	H	1.138209	0.237017	-0.365013
H397	H	0.631880	-0.322548	-0.785454
H398	H	1.131880	0.177452	-0.285454
H399	H	0.671803	-0.325017	-0.830842
H400	H	1.171803	0.174983	-0.330842
H401	H	0.457377	-0.164299	-0.191433
H402	H	0.957377	0.335701	0.308567
H403	H	0.556445	-0.164298	-0.191419
H404	H	1.056445	0.335702	0.308581
H405	H	0.816133	-0.472612	-0.191400
H406	H	1.316133	0.027388	0.308600
C407	C	0.814493	-0.111701	-0.457019
C408	C	1.314493	0.388299	0.042981
C409	C	0.825743	-0.156194	-0.443816
C410	C	1.325743	0.343806	0.056184
H411	H	0.837199	-0.092208	-0.438502
H412	H	1.337199	0.407792	0.061498
H413	H	0.819285	-0.107589	-0.493444
H414	H	1.319285	0.392411	0.006556
H415	H	0.779368	-0.105131	-0.448056
H416	H	1.279368	0.394869	0.051944
H417	H	0.860867	-0.162766	-0.452782
H418	H	1.360867	0.337234	0.047218
H419	H	0.820956	-0.160309	-0.407382
H420	H	1.320956	0.339691	0.092618
H421	H	0.849637	-0.603311	-0.158013
H422	H	1.349637	-0.103311	0.341987
H423	H	0.849671	-0.688417	-0.158025
H424	H	1.349671	-0.188417	0.341975
H425	H	0.816279	-0.164266	-0.953939
H426	H	1.316279	0.335734	-0.453939
H427	H	0.661328	-0.297268	-0.702705
H428	H	1.161328	0.202732	-0.202705
C429	C	0.681269	-0.710450	-0.389160
C430	C	1.181269	-0.210450	0.110840
C431	C	0.651820	-0.737464	-0.355550
C432	C	1.151820	-0.237464	0.144450
H433	H	0.658550	-0.694549	-0.411827
H434	H	1.158550	-0.194549	0.088173
H435	H	0.701180	-0.689752	-0.369269
H436	H	1.201180	-0.189752	0.130731
H437	H	0.704042	-0.728729	-0.409184
H438	H	1.204042	-0.228729	0.090816
H439	H	0.629050	-0.719184	-0.335523
H440	H	1.129050	-0.219184	0.164477
H441	H	0.631900	-0.758164	-0.375444
H442	H	1.131900	-0.258164	0.124556
C443	C	0.796306	-0.127299	-0.589814
C444	C	1.296306	0.372701	-0.089814
C445	C	0.825759	-0.156165	-0.558425
C446	C	1.325759	0.343835	-0.058425
H447	H	0.819023	-0.107797	-0.608339
H448	H	1.319023	0.392203	-0.108339
H449	H	0.776387	-0.144398	-0.613885
H450	H	1.276387	0.355602	-0.113885
H451	H	0.773540	-0.110119	-0.568503
H452	H	1.273540	0.389881	-0.068503
H453	H	0.848523	-0.173347	-0.579737
H454	H	1.348523	0.326653	-0.079737
H455	H	0.845687	-0.139064	-0.534352
H456	H	1.345687	0.360936	-0.034352
H457	H	0.849706	-0.135594	-0.702780
H458	H	1.349706	0.364406	-0.202780
C459	C	0.656008	-1.021264	-0.351494
C460	C	1.156008	-0.521264	0.148506
C461	C	0.685382	-1.051755	-0.322180
C462	C	1.185382	-0.551755	0.177820
H463	H	0.633309	-1.037191	-0.374167
H464	H	1.133309	-0.537191	0.125833
H465	H	0.636020	-1.002991	-0.328689
H466	H	1.136020	-0.502991	0.171311
H467	H	0.678777	-1.002938	-0.371511
H468	H	1.178777	-0.502938	0.128489
H469	H	0.662614	-1.070079	-0.302160
H470	H	1.162614	-0.570079	0.197840
H471	H	0.705372	-1.070036	-0.344988
H472	H	1.205372	-0.570036	0.155012
H473	H	0.694794	-0.268599	-0.550613
H474	H	1.194794	0.231401	-0.050613
H475	H	0.694887	-0.959956	-0.312658
H476	H	1.194887	-0.459956	0.187342
C477	C	0.692303	-0.270741	-0.390075
C478	C	1.192303	0.229259	0.109925
C479	C	0.685241	-0.276802	-0.443764
C480	C	1.185241	0.223198	0.056236
H481	H	0.669586	-0.290233	-0.371537
H482	H	1.169586	0.209767	0.128463
H483	H	0.727420	-0.277327	-0.381139
H484	H	1.227420	0.222673	0.118861
H485	H	0.684682	-0.240554	-0.381138
H486	H	1.184682	0.259446	0.118862
H487	H	0.692865	-0.306989	-0.452702
H488	H	1.192865	0.193011	0.047298
H489	H	0.650115	-0.270219	-0.452704
H490	H	1.150115	0.229781	0.047296
H491	H	0.556434	-0.268707	-0.312526
H492	H	1.056434	0.231293	0.187474
H493	H	0.816301	-0.959898	-0.191448
H494	H	1.316301	-0.459898	0.308552
H495	H	0.661337	-0.688495	-0.346038
H496	H	1.161337	-0.188495	0.153962
C497	C	0.818869	-1.097837	-0.189066
C498	C	1.318869	-0.597837	0.310934
C499	C	0.825908	-1.051700	-0.181985
C500	C	1.325908	-0.551700	0.318015
H501	H	0.841620	-1.113749	-0.166442
H502	H	1.341620	-0.613749	0.333558
H503	H	0.783765	-1.105569	-0.181337
H504	H	1.283765	-0.605569	0.318663
H505	H	0.826459	-1.105482	-0.224221
H506	H	1.326459	-0.605482	0.275779
H507	H	0.818314	-1.044054	-0.146831
H508	H	1.318314	-0.544054	0.353169
H509	H	0.861020	-1.043965	-0.189711
H510	H	1.361020	-0.543965	0.310289
C511	C	0.655800	-0.448881	-0.351434
C512	C	1.155800	0.051119	0.148566
C513	C	0.685179	-0.479368	-0.322122
C514	C	1.185179	0.020632	0.177878
H515	H	0.633105	-0.464810	-0.374110
H516	H	1.133105	0.035190	0.125890
H517	H	0.635806	-0.430612	-0.328629
H518	H	1.135806	0.069388	0.171371
H519	H	0.678565	-0.430550	-0.371449
H520	H	1.178565	0.069450	0.128551
H521	H	0.662414	-0.497697	-0.302103
H522	H	1.162414	0.002303	0.197897
H523	H	0.705174	-0.497645	-0.344929
H524	H	1.205174	0.002355	0.155071
C525	C	0.714614	-0.353862	-0.355705
C526	C	1.214614	0.146138	0.144295
C527	C	0.685146	-0.380873	-0.322109
C528	C	1.185146	0.119127	0.177891
H529	H	0.691908	-0.337951	-0.378374
H530	H	1.191908	0.162049	0.121626
H531	H	0.734530	-0.333175	-0.335805
H532	H	1.234530	0.166825	0.164195
H533	H	0.737384	-0.372146	-0.375728
H534	H	1.237384	0.127854	0.124272
H535	H	0.662378	-0.362589	-0.302084
H536	H	1.162378	0.137411	0.197916
H537	H	0.665221	-0.401563	-0.342012
H538	H	1.165221	0.098437	0.157988
C539	C	0.888604	-0.767861	-0.119209
C540	C	1.388604	-0.267861	0.380791
C541	C	0.859227	-0.737369	-0.148516
C542	C	1.359227	-0.237369	0.351484
H543	H	0.911311	-0.751937	-0.096542
H544	H	1.411311	-0.251937	0.403458
H545	H	0.865842	-0.786185	-0.099189
H546	H	1.365842	-0.286185	0.400811
H547	H	0.908589	-0.786137	-0.142022
H548	H	1.408589	-0.286137	0.357978
H549	H	0.839239	-0.719095	-0.125704
H550	H	1.339239	-0.219095	0.374296
H551	H	0.881992	-0.719037	-0.168537
H552	H	1.381992	-0.219037	0.331463
C553	C	0.852230	-0.881993	-0.155621
C554	C	1.352230	-0.381993	0.344379
C555	C	0.859276	-0.835856	-0.148548
C556	C	1.359276	-0.335856	0.351452
H557	H	0.874960	-0.897906	-0.132977
H558	H	1.374960	-0.397906	0.367023
H559	H	0.817118	-0.889716	-0.147915
H560	H	1.317118	-0.389716	0.352085
H561	H	0.859843	-0.889646	-0.190769
H562	H	1.359843	-0.389646	0.309231
H563	H	0.851659	-0.828201	-0.113401
H564	H	1.351659	-0.328201	0.386599
H565	H	0.894396	-0.828129	-0.156250
H566	H	1.394396	-0.328129	0.343750
