data_functionalizedCrystal
_audit_creation_method	'MofGen! by Chris Wilmer'
_symmetry_space_group_name_H-M	'P1'
_symmetry_Int_Tables_number	1
_symmetry_cell_setting	triclinic
loop_
_symmetry_equiv_pos_as_xyz
  x,y,z
_cell_length_a	16.120490
_cell_length_b	12.594516
_cell_length_c	16.120704
_cell_angle_alpha	92.898296
_cell_angle_beta	89.858135
_cell_angle_gamma	92.880665
loop_
_atom_site_label
_atom_site_type_symbol
_atom_site_fract_x
_atom_site_fract_y
_atom_site_fract_z
Zn1	Zn	1.247318	0.539579	0.534563
Zn2	Zn	1.497318	0.789579	0.784563
Zn3	Zn	1.747318	1.039579	1.034563
Zn4	Zn	1.997318	1.289579	1.284563
Zn5	Zn	1.254287	0.708956	0.395516
Zn6	Zn	1.504287	0.958956	0.645516
Zn7	Zn	1.754287	1.208956	0.895516
Zn8	Zn	2.004287	1.458956	1.145516
Zn9	Zn	1.115336	0.521516	0.388484
Zn10	Zn	1.365336	0.771516	0.638484
Zn11	Zn	1.615336	1.021516	0.888484
Zn12	Zn	1.865336	1.271516	1.138484
Zn13	Zn	1.108217	0.708028	0.527487
Zn14	Zn	1.358217	0.958028	0.777487
Zn15	Zn	1.608217	1.208028	1.027487
Zn16	Zn	1.858217	1.458028	1.277487
O17	O	1.181290	0.619520	0.461512
O18	O	1.431290	0.869520	0.711512
O19	O	1.681290	1.119520	0.961512
O20	O	1.931290	1.369520	1.211512
O21	O	1.364608	0.569996	0.522021
O22	O	1.614608	0.819996	0.772021
O23	O	1.864608	1.069996	1.022021
O24	O	2.114608	1.319996	1.272021
O25	O	1.241752	0.676921	0.278217
O26	O	1.491752	0.926921	0.528217
O27	O	1.741752	1.176921	0.778217
O28	O	1.991752	1.426921	1.028217
O29	O	1.132907	0.374972	0.407879
O30	O	1.382907	0.624972	0.657879
O31	O	1.632907	0.874972	0.907879
O32	O	1.882907	1.124972	1.157879
O33	O	1.369728	0.694436	0.419864
O34	O	1.619728	0.944436	0.669864
O35	O	1.869728	1.194436	0.919864
O36	O	2.119728	1.444436	1.169864
O37	O	1.229872	0.388243	0.515203
O38	O	1.479872	0.638243	0.765203
O39	O	1.729872	0.888243	1.015203
O40	O	1.979872	1.138243	1.265203
O41	O	1.139665	0.539210	0.273051
O42	O	1.389665	0.789210	0.523051
O43	O	1.639665	1.039210	0.773051
O44	O	1.889665	1.289210	1.023051
O45	O	0.998027	0.538309	0.401019
O46	O	1.248027	0.788309	0.651019
O47	O	1.498027	1.038309	0.901019
O48	O	1.748027	1.288309	1.151019
O49	O	1.120773	0.692853	0.644791
O50	O	1.370773	0.942853	0.894791
O51	O	1.620773	1.192853	1.144791
O52	O	1.870773	1.442853	1.394791
O53	O	0.992796	0.675338	0.503144
O54	O	1.242796	0.925338	0.753144
O55	O	1.492796	1.175338	1.003144
O56	O	1.742796	1.425338	1.253144
O57	O	1.222969	0.569095	0.649989
O58	O	1.472969	0.819095	0.899989
O59	O	1.722969	1.069095	1.149989
O60	O	1.972969	1.319095	1.399989
O61	O	1.234849	0.857774	0.413004
O62	O	1.484849	1.107774	0.663004
O63	O	1.734849	1.357774	0.913004
O64	O	1.984849	1.607774	1.163004
O65	O	1.127532	0.857091	0.509963
O66	O	1.377532	1.107091	0.759963
O67	O	1.627532	1.357091	1.009963
O68	O	1.877532	1.607091	1.259963
C69	C	0.965239	0.604763	0.450551
C70	C	1.215239	0.854763	0.700551
C71	C	1.465239	1.104763	0.950551
C72	C	1.715239	1.354763	1.200551
C73	C	0.872811	0.598477	0.445882
C74	C	1.122811	0.848477	0.695882
C75	C	1.372811	1.098477	0.945882
C76	C	1.622811	1.348477	1.195882
C77	C	0.659839	0.652118	0.485735
C78	C	0.909839	0.902118	0.735735
C79	C	1.159839	1.152118	0.985735
C80	C	1.409839	1.402118	1.235735
C81	C	0.703589	0.587011	0.437356
C82	C	0.953589	0.837011	0.687356
C83	C	1.203589	1.087011	0.937356
C84	C	1.453589	1.337011	1.187356
C85	C	0.797753	0.593393	0.442101
C86	C	1.047753	0.843393	0.692101
C87	C	1.297753	1.093393	0.942101
C88	C	1.547753	1.343393	1.192101
C89	C	0.565666	0.645737	0.480990
C90	C	0.815666	0.895737	0.730990
C91	C	1.065666	1.145737	0.980990
C92	C	1.315666	1.395737	1.230990
C93	C	1.181195	0.896054	0.461498
C94	C	1.431195	1.146054	0.711498
C95	C	1.681195	1.396054	0.961498
C96	C	1.931195	1.646054	1.211498
C97	C	1.181230	1.014363	0.461524
C98	C	1.431230	1.264363	0.711524
C99	C	1.681230	1.514363	0.961524
C100	C	1.931230	1.764363	1.211524
C101	C	1.122847	1.083280	0.514220
C102	C	1.372847	1.333280	0.764220
C103	C	1.622847	1.583280	1.014220
C104	C	1.872847	1.833280	1.264220
C105	C	1.106440	1.148056	0.437316
C106	C	1.356440	1.398056	0.687316
C107	C	1.606440	1.648056	0.937316
C108	C	1.856440	1.898056	1.187316
C109	C	1.197681	1.160390	0.538442
C110	C	1.447681	1.410390	0.788442
C111	C	1.697681	1.660390	1.038442
C112	C	1.947681	1.910390	1.288442
C113	C	1.164785	1.077575	0.384578
C114	C	1.414785	1.327575	0.634578
C115	C	1.664785	1.577575	0.884578
C116	C	1.914785	1.827575	1.134578
C117	C	1.256059	1.089909	0.485756
C118	C	1.506059	1.339909	0.735756
C119	C	1.756059	1.589909	0.985756
C120	C	2.006059	1.839909	1.235756
C121	C	1.239684	1.154651	0.408802
C122	C	1.489684	1.404651	0.658802
C123	C	1.739684	1.654651	0.908802
C124	C	1.989684	1.904651	1.158802
C125	C	1.398184	0.634335	0.472516
C126	C	1.648184	0.884335	0.722516
C127	C	1.898184	1.134335	0.972516
C128	C	2.148184	1.384335	1.222516
C129	C	1.490611	0.640648	0.477206
C130	C	1.740611	0.890648	0.727206
C131	C	1.990611	1.140648	0.977206
C132	C	2.240611	1.390648	1.227206
C133	C	1.170300	0.632886	0.678406
C134	C	1.420300	0.882886	0.928406
C135	C	1.670300	1.132886	1.178406
C136	C	1.920300	1.382886	1.428406
C137	C	1.165616	0.638581	0.770833
C138	C	1.415616	0.888581	1.020833
C139	C	1.665616	1.138581	1.270833
C140	C	1.915616	1.388581	1.520833
C141	C	1.181370	1.341906	0.461543
C142	C	1.431370	1.591906	0.711543
C143	C	1.681370	1.841906	0.961543
C144	C	1.931370	2.091906	1.211543
C145	C	1.181310	1.223597	0.461548
C146	C	1.431310	1.473597	0.711548
C147	C	1.681310	1.723597	0.961548
C148	C	1.931310	1.973597	1.211548
C149	C	1.205517	0.590219	0.983811
C150	C	1.455517	0.840219	1.233811
C151	C	1.705517	1.090219	1.483811
C152	C	1.955517	1.340219	1.733811
C153	C	1.157038	0.648934	0.940052
C154	C	1.407038	0.898934	1.190052
C155	C	1.657038	1.148934	1.440052
C156	C	1.907038	1.398934	1.690052
C157	C	1.161813	0.643172	0.845890
C158	C	1.411813	0.893172	1.095890
C159	C	1.661813	1.143172	1.345890
C160	C	1.911813	1.393172	1.595890
C161	C	1.200743	0.595980	1.077982
C162	C	1.450743	0.845980	1.327982
C163	C	1.700743	1.095980	1.577982
C164	C	1.950743	1.345980	1.827982
C165	C	1.192236	0.606240	1.245462
C166	C	1.442236	0.856240	1.495462
C167	C	1.692236	1.106240	1.745462
C168	C	1.942236	1.356240	1.995462
C169	C	1.196936	0.600575	1.153036
C170	C	1.446936	0.850575	1.403036
C171	C	1.696936	1.100575	1.653036
C172	C	1.946936	1.350575	1.903036
H173	H	0.670324	0.526477	0.392373
H174	H	0.920324	0.776477	0.642373
H175	H	1.170324	1.026477	0.892373
H176	H	1.420324	1.276477	1.142373
F177	F	1.146546	1.030457	0.299538
F178	F	1.396546	1.280457	0.549538
F179	F	1.646546	1.530457	0.799538
F180	F	1.896546	1.780457	1.049538
H181	H	0.693101	0.712647	0.530713
H182	H	0.943101	0.962647	0.780713
H183	H	1.193101	1.212647	1.030713
H184	H	1.443101	1.462647	1.280713
F185	F	1.058227	1.042320	0.572375
F186	F	1.308227	1.292320	0.822375
F187	F	1.558227	1.542320	1.072375
F188	F	1.808227	1.792320	1.322375
F189	F	1.023773	1.181714	0.410531
F190	F	1.273773	1.431714	0.660531
F191	F	1.523773	1.681714	0.910531
F192	F	1.773773	1.931714	1.160531
F193	F	1.264439	0.518852	0.940347
F194	F	1.514439	0.768852	1.190347
F195	F	1.764439	1.018852	1.440347
F196	F	2.014439	1.268852	1.690347
F197	F	1.098103	0.720296	0.983517
F198	F	1.348103	0.970296	1.233517
F199	F	1.598103	1.220296	1.483517
F200	F	1.848103	1.470296	1.733517
H201	H	1.289094	1.185781	0.364195
H202	H	1.539094	1.435781	0.614195
H203	H	1.789094	1.685781	0.864195
H204	H	2.039094	1.935781	1.114195
F205	F	1.338702	1.056219	0.512567
F206	F	1.588702	1.306219	0.762567
F207	F	1.838702	1.556219	1.012567
F208	F	2.088702	1.806219	1.262567
F209	F	1.215827	1.207677	0.623451
F210	F	1.465827	1.457677	0.873451
F211	F	1.715827	1.707677	1.123451
F212	F	1.965827	1.957677	1.373451
