data_functionalizedCrystal
_audit_creation_method	'MofGen! by Chris Wilmer'
_symmetry_space_group_name_H-M	'P1'
_symmetry_Int_Tables_number	1
_symmetry_cell_setting	triclinic
loop_
_symmetry_equiv_pos_as_xyz
  x,y,z
_cell_length_a	10.654562
_cell_length_b	15.944493
_cell_length_c	9.130313
_cell_angle_alpha	90.004626
_cell_angle_beta	89.996930
_cell_angle_gamma	83.982574
loop_
_atom_site_label
_atom_site_type_symbol
_atom_site_fract_x
_atom_site_fract_y
_atom_site_fract_z
O1	O	1.666261	0.118026	-0.121875
O2	O	1.300636	0.129256	-0.121854
O3	O	1.493471	0.001421	-0.121877
O4	O	1.473426	0.245861	-0.121852
O5	O	1.493468	0.001425	0.121722
O6	O	1.300633	0.129259	0.121744
O7	O	1.666259	0.118030	0.121724
Cu8	Cu	1.483446	0.123645	0.143977
Cu9	Cu	1.483449	0.123641	-0.144107
O10	O	1.473424	0.245864	0.121747
C11	C	1.253848	0.128431	-0.000053
C12	C	1.114438	0.125957	-0.000046
C13	C	1.048921	0.124805	0.132728
C14	C	0.917930	0.122488	0.132703
C15	C	0.917983	0.122478	-0.132881
C16	C	1.048973	0.124789	-0.132855
C17	C	1.048889	0.124815	0.286062
C18	C	0.917898	0.122497	0.286037
C19	C	1.492650	-0.029877	-0.000084
C20	C	1.490194	-0.123140	-0.000102
C21	C	1.603701	-0.358239	-0.000081
C22	C	1.542492	-0.409165	-0.120184
C23	C	1.485643	-0.293887	-0.000084
C24	C	1.542462	-0.409138	0.119986
C25	C	1.481256	-0.458822	-0.000060
C26	C	1.424466	-0.343585	-0.120286
C27	C	1.424453	-0.343554	0.119991
C28	C	1.363158	-0.394447	-0.000141
C29	C	1.488174	-0.198872	-0.000099
C30	C	1.478715	-0.553834	-0.000056
C31	C	1.713047	0.118855	-0.000081
C32	C	1.852456	0.121328	-0.000097
C33	C	1.474244	0.277162	-0.000049
C34	C	1.476700	0.370425	-0.000040
N35	N	1.483453	0.123647	0.346600
N36	N	1.483451	0.123632	-0.346730
C37	C	1.568862	0.067062	0.423241
C38	C	1.568859	0.067051	0.576578
C39	C	1.398033	0.180220	0.576618
C40	C	1.398032	0.180225	0.423284
C41	C	1.667490	0.001727	0.423220
C42	C	1.667487	0.001717	0.576557
H43	H	0.864665	0.121527	-0.241010
H44	H	1.328474	0.226295	0.360883
H45	H	1.095917	0.066766	0.344939
C46	C	1.304073	0.242452	0.660985
N47	N	1.233300	0.289326	0.724528
H48	H	1.077651	0.186077	0.333645
H49	H	1.758403	0.022188	0.375659
H50	H	1.763807	0.016112	0.618170
C51	C	1.741080	-0.336322	-0.000250
N52	N	1.844551	-0.319813	-0.000384
H53	H	1.637783	-0.059296	0.624099
C54	C	1.357165	-0.305048	-0.257618
N55	N	1.306481	-0.276021	-0.361058
H56	H	1.646903	-0.062837	0.381594
C57	C	0.879013	0.039746	0.350328
N58	N	0.849723	-0.022579	0.398756
C59	C	0.854298	0.201044	0.365197
N60	N	0.806388	0.260247	0.424685
C61	C	1.609844	-0.447819	0.257160
N62	N	1.660604	-0.476950	0.360475
H63	H	1.261387	-0.410506	-0.000201
H64	H	1.374638	-0.314882	0.221540
C65	C	1.121041	0.126036	-0.278917
N66	N	1.175323	0.126971	-0.388936
C67	C	1.609851	-0.447888	-0.257359
N68	N	1.660594	-0.477054	-0.360673
