data_functionalizedCrystal
_audit_creation_method	'MofGen! by Chris Wilmer'
_symmetry_space_group_name_H-M	'P1'
_symmetry_Int_Tables_number	1
_symmetry_cell_setting	triclinic
loop_
_symmetry_equiv_pos_as_xyz
  x,y,z
_cell_length_a	13.897449
_cell_length_b	16.959454
_cell_length_c	16.959447
_cell_angle_alpha	90.026736
_cell_angle_beta	89.985709
_cell_angle_gamma	89.978645
loop_
_atom_site_label
_atom_site_type_symbol
_atom_site_fract_x
_atom_site_fract_y
_atom_site_fract_z
Zn1	Zn	1.474625	0.314639	-0.446928
Zn2	Zn	1.974625	0.814639	0.053072
Zn3	Zn	1.474531	0.446831	-0.314757
Zn4	Zn	1.974531	0.946831	0.185243
Zn5	Zn	1.313333	0.314674	-0.314765
Zn6	Zn	1.813333	0.814674	0.185235
Zn7	Zn	1.313289	0.446782	-0.446896
Zn8	Zn	1.813289	0.946782	0.053104
O9	O	1.393945	0.380732	-0.380837
O10	O	1.893945	0.880732	0.119163
O11	O	1.609594	0.332181	-0.429405
O12	O	2.109594	0.832181	0.070595
O13	O	1.453126	0.429336	-0.204148
O14	O	1.953126	0.929336	0.295852
O15	O	1.334786	0.204058	-0.332313
O16	O	1.834786	0.704058	0.167687
O17	O	1.609525	0.429302	-0.332300
O18	O	2.109525	0.929302	0.167700
O19	O	1.453287	0.204033	-0.429413
O20	O	1.953287	0.704033	0.070587
O21	O	1.334694	0.332240	-0.204153
O22	O	1.834694	0.832240	0.295847
O23	O	1.178345	0.332192	-0.332283
O24	O	1.678345	0.832192	0.167717
O25	O	1.334713	0.429218	-0.557511
O26	O	1.834713	0.929218	-0.057511
O27	O	1.178314	0.429252	-0.429359
O28	O	1.678314	0.929252	0.070641
O29	O	1.453245	0.332133	-0.557535
O30	O	1.953245	0.832133	-0.057535
O31	O	1.453084	0.557436	-0.332269
O32	O	1.953084	1.057436	0.167731
O33	O	1.334621	0.557400	-0.429351
O34	O	1.834621	1.057400	0.070649
C35	C	1.393864	0.586098	-0.380823
C36	C	1.893864	1.086098	0.119177
C37	C	1.393917	0.673954	-0.380844
C38	C	1.893917	1.173954	0.119156
C39	C	1.143330	0.380721	-0.380819
C40	C	1.643330	0.880721	0.119181
C41	C	1.036116	0.380736	-0.380830
C42	C	1.536116	0.880736	0.119170
C43	C	1.393985	0.380666	-0.587005
C44	C	1.893985	0.880666	-0.087005
C45	C	1.394002	0.380638	-0.674862
C46	C	1.894002	0.880638	-0.174862
C47	C	0.839821	0.380738	-0.380850
C48	C	1.339821	0.880738	0.119150
C49	C	0.949054	0.380734	-0.380837
C50	C	1.449054	0.880734	0.119163
C51	C	1.645537	0.380743	-0.380855
C52	C	2.145537	0.880743	0.119145
C53	C	1.752751	0.380748	-0.380863
C54	C	2.252751	0.880748	0.119137
C55	C	1.394052	0.174563	-0.380867
C56	C	1.894052	0.674563	0.119133
C57	C	1.394098	0.086707	-0.380881
C58	C	1.894098	0.586707	0.119119
C59	C	1.332350	1.045441	-0.431382
C60	C	1.832350	1.545441	0.068618
C61	C	1.455808	1.045419	-0.330372
C62	C	1.955808	1.545419	0.169628
C63	C	1.455774	0.962873	-0.330365
C64	C	1.955774	1.462873	0.169635
C65	C	1.394026	0.921607	-0.380866
C66	C	1.894026	1.421607	0.119134
C67	C	1.332313	0.962888	-0.431374
C68	C	1.832313	1.462888	0.068626
C69	C	1.517480	0.921586	-0.279852
C70	C	2.017480	1.421586	0.220148
C71	C	1.517448	0.839036	-0.279842
C72	C	2.017448	1.339036	0.220158
C73	C	1.455704	0.797768	-0.330348
C74	C	1.955704	1.297768	0.169652
C75	C	1.393989	0.839054	-0.380859
C76	C	1.893989	1.339054	0.119141
C77	C	1.332241	0.797788	-0.431360
C78	C	1.832241	1.297788	0.068640
C79	C	1.270530	0.839072	-0.481875
C80	C	1.770530	1.339072	0.018125
C81	C	1.270569	0.921621	-0.481880
C82	C	1.770569	1.421621	0.018120
C83	C	1.455665	0.715220	-0.330343
C84	C	1.955665	1.215220	0.169657
C85	C	1.332204	0.715235	-0.431352
C86	C	1.832204	1.215235	0.068648
C87	C	1.332402	0.431103	-1.046328
C88	C	1.832402	0.931103	-0.546328
C89	C	1.455832	0.330007	-1.046347
C90	C	1.955832	0.830007	-0.546347
C91	C	1.455806	0.330024	-0.963801
C92	C	1.955806	0.830024	-0.463801
C93	C	1.394079	0.380582	-0.922515
C94	C	1.894079	0.880582	-0.422515
C95	C	1.332377	0.431123	-0.963774
C96	C	1.832377	0.931123	-0.463774
C97	C	1.517513	0.279490	-0.922535
C98	C	2.017513	0.779490	-0.422535
C99	C	1.517491	0.279505	-0.839984
C100	C	2.017491	0.779505	-0.339984
C101	C	1.455758	0.330059	-0.798697
C102	C	1.955758	0.830059	-0.298697
C103	C	1.394053	0.380602	-0.839961
C104	C	1.894053	0.880602	-0.339961
C105	C	1.332326	0.431159	-0.798675
C106	C	1.832326	0.931159	-0.298675
C107	C	1.270615	0.481698	-0.839938
C108	C	1.770615	0.981698	-0.339938
C109	C	1.270644	0.481677	-0.922486
C110	C	1.770644	0.981677	-0.422486
C111	C	1.455729	0.330081	-0.716148
C112	C	1.955729	0.830081	-0.216148
C113	C	1.332300	0.431179	-0.716121
C114	C	1.832300	0.931179	-0.216121
C115	C	1.393960	0.380740	-0.175470
C116	C	1.893960	0.880740	0.324530
C117	C	1.394130	0.380545	-0.087614
C118	C	1.894130	0.880545	0.412386
H119	H	1.281925	0.681641	-0.472480
H120	H	1.781925	1.181641	0.027520
C121	C	1.523721	0.274392	-1.091765
C122	C	2.023721	0.774392	-0.591765
N123	N	1.574854	0.232496	-1.125977
N124	N	2.074854	0.732496	-0.625977
C125	C	1.585363	0.223903	-0.794603
C126	C	2.085363	0.723903	-0.294603
N127	N	1.636481	0.182020	-0.760420
N128	N	2.136481	0.682020	-0.260420
C129	C	1.202682	0.967039	-0.537433
C130	C	1.702682	1.467039	-0.037433
N131	N	1.151545	1.001251	-0.579271
N132	N	1.651545	1.501251	-0.079271
C133	C	1.202763	0.537261	-0.967882
C134	C	1.702763	1.037261	-0.467882
N135	N	1.151635	0.579125	-1.002077
N136	N	1.651635	1.079125	-0.502077
C137	C	1.264517	0.486687	-1.091717
C138	C	1.764517	0.986687	-0.591717
N139	N	1.213384	0.528553	-1.125906
N140	N	1.713384	1.028553	-0.625906
H141	H	1.505905	0.681610	-0.289210
H142	H	2.005905	1.181610	0.210790
H143	H	1.506074	1.079022	-0.289252
H144	H	2.006074	1.579022	0.210748
H145	H	1.567774	0.238333	-0.956157
H146	H	2.067774	0.738333	-0.456157
H147	H	1.220250	0.805464	-0.522990
H148	H	1.720250	1.305464	-0.022990
H149	H	1.282109	1.079058	-0.472512
H150	H	1.782109	1.579058	0.027488
C151	C	1.585383	0.966983	-0.224293
C152	C	2.085383	1.466983	0.275707
N153	N	1.636528	1.001180	-0.182442
N154	N	2.136528	1.501180	0.317558
H155	H	1.567697	0.805427	-0.238711
H156	H	2.067697	1.305427	0.261289
H157	H	1.505976	0.288935	-0.682555
H158	H	2.005976	0.788935	-0.182555
H159	H	1.282025	0.472343	-0.682512
H160	H	1.782025	0.972343	-0.182512
H161	H	1.220361	0.522866	-0.806312
H162	H	1.720361	1.022866	-0.306312
