data_functionalizedCrystal
_audit_creation_method	'MofGen! by Chris Wilmer'
_symmetry_space_group_name_H-M	'P1'
_symmetry_Int_Tables_number	1
_symmetry_cell_setting	triclinic
loop_
_symmetry_equiv_pos_as_xyz
  x,y,z
_cell_length_a	16.109301
_cell_length_b	27.732048
_cell_length_c	14.586319
_cell_angle_alpha	89.991275
_cell_angle_beta	89.999213
_cell_angle_gamma	83.052068
loop_
_atom_site_label
_atom_site_type_symbol
_atom_site_fract_x
_atom_site_fract_y
_atom_site_fract_z
O1	O	1.102362	0.062130	-0.076193
O2	O	0.860204	0.069862	-0.076208
O3	O	0.988804	-0.004369	-0.076183
O4	O	0.973762	0.136361	-0.076218
O5	O	0.988795	-0.004370	0.076298
O6	O	0.860195	0.069861	0.076272
O7	O	1.102353	0.062129	0.076288
Cu8	Cu	0.981273	0.065995	0.090203
Cu9	Cu	0.981283	0.065996	-0.090123
O10	O	0.973753	0.136360	0.076262
C11	C	0.829228	0.069548	0.000030
C12	C	0.736945	0.068609	0.000025
C13	C	0.514154	0.110473	0.000025
C14	C	0.427445	0.109587	0.000031
C15	C	0.448409	0.021514	0.000050
C16	C	0.535117	0.022401	0.000050
C17	C	0.567987	0.066882	0.000033
C18	C	0.394570	0.065109	0.000039
C19	C	0.300556	0.064148	0.000045
C20	C	0.662007	0.067843	0.000028
C21	C	0.988483	-0.022378	0.000060
C22	C	0.987533	-0.076037	0.000068
C23	C	1.057541	-0.414559	0.000025
C24	C	1.054013	-0.616233	0.000012
O25	O	1.118031	-0.647221	-0.000024
N26	N	0.977759	-0.635676	0.000008
C27	C	0.902381	-0.604697	0.000001
O28	O	0.837441	-0.625862	-0.000012
C29	C	0.905910	-0.403024	0.000008
C30	C	0.982169	-0.383584	0.000021
C31	C	1.133794	-0.395119	0.000038
C32	C	1.134675	-0.344703	0.000046
C33	C	1.059303	-0.313728	0.000042
C34	C	0.983050	-0.333168	0.000029
C35	C	0.830533	-0.372045	-0.000006
C36	C	0.831422	-0.321624	-0.000006
C37	C	0.907681	-0.302184	0.000007
C38	C	0.908559	-0.251777	0.000034
N39	N	0.984814	-0.232334	0.000038
C40	C	1.060186	-0.263310	0.000042
C41	C	0.900534	-0.710579	-0.000000
C42	C	0.899652	-0.760997	-0.000000
C43	C	1.051284	-0.772530	0.000009
C44	C	1.052166	-0.722111	0.000016
C45	C	0.976789	-0.691136	0.000004
C46	C	1.062030	-0.157433	0.000060
C47	C	1.062905	-0.107012	0.000072
C48	C	0.911273	-0.095484	0.000058
C49	C	0.910398	-0.145900	0.000051
C50	C	0.985783	-0.176874	0.000049
O51	O	0.844576	-0.220761	0.000059
O52	O	1.125116	-0.242135	0.000035
C53	C	1.056660	-0.464975	0.000017
C54	C	0.980407	-0.484415	0.000005
C55	C	0.905035	-0.453440	0.000001
C56	C	0.979525	-0.534833	0.000005
C57	C	1.054897	-0.565808	0.000009
C58	C	1.131151	-0.546365	0.000013
C59	C	1.132032	-0.495950	0.000021
C60	C	0.828781	-0.472883	-0.000004
C61	C	0.827906	-0.523299	-0.000011
C62	C	0.903278	-0.554274	-0.000007
C63	C	1.133328	0.062443	0.000048
C64	C	1.225612	0.063382	0.000047
C65	C	0.974073	0.154369	0.000017
C66	C	0.975024	0.208028	0.000004
N67	N	0.981272	0.065994	0.217035
N68	N	0.981291	0.065994	-0.216955
C69	C	1.038234	0.033135	0.452053
C70	C	1.038237	0.033134	0.548034
C71	C	0.924323	0.098854	0.548020
C72	C	0.924317	0.098852	0.452041
C73	C	0.981278	0.065993	0.404060
C74	C	0.981286	0.065994	0.596020
C75	C	0.981288	0.065993	0.700087
C76	C	0.981275	0.065994	0.299986
H77	H	0.421636	-0.014700	0.000069
H78	H	0.877932	0.125610	0.412962
H79	H	0.877948	0.125607	0.587097
H80	H	0.765802	-0.539121	-0.000014
N81	N	0.819225	-0.677177	-0.000002
H82	H	0.816205	-0.656006	0.056523
H83	H	0.816251	-0.656028	-0.056564
N84	N	0.817400	-0.781960	-0.000012
H85	H	0.828269	-0.818600	-0.000012
H86	H	0.784443	-0.770631	0.056511
H87	H	0.540913	0.146692	0.000018
H88	H	0.770039	-0.296407	-0.000017
N89	N	0.369381	0.156603	0.000073
H90	H	0.403364	0.184914	0.000079
H91	H	0.332925	0.158173	-0.056436
N92	N	1.099680	-0.002299	0.599799
H93	H	1.135764	-0.023111	0.554836
H94	H	1.136189	0.016221	0.639606
N95	N	0.593188	-0.024618	0.000070
H96	H	0.559209	-0.052931	0.000075
H97	H	0.629625	-0.026168	-0.056453
H98	H	1.125007	-0.091187	0.000085
N99	N	1.134415	-0.701145	0.000024
H100	H	1.138160	-0.680489	0.056549
H101	H	1.181976	-0.728449	-0.000005
N102	N	1.143336	-0.190836	0.000058
H103	H	1.191770	-0.170863	0.000069
H104	H	1.146272	-0.212011	0.056583
H105	H	1.196773	-0.328880	0.000053
N106	N	0.748274	-0.392997	-0.000029
H107	H	0.744528	-0.413651	-0.056557
H108	H	0.744554	-0.413639	0.056529
H109	H	1.195175	-0.420334	0.000038
H110	H	1.112655	-0.797759	0.000013
H111	H	0.848301	-0.161728	0.000065
H112	H	0.849907	-0.070255	0.000058
H113	H	1.194130	-0.480127	0.000032
H114	H	1.192521	-0.571594	0.000020
N115	N	1.099665	-0.002304	0.400299
H116	H	1.135746	-0.023120	0.445271
H117	H	1.068111	-0.023679	0.360486
N118	N	0.747485	-0.439475	-0.000003
H119	H	0.714187	-0.445723	-0.056529
H120	H	0.714256	-0.445754	0.056558
