data_functionalizedCrystal
_audit_creation_method	'MofGen! by Chris Wilmer'
_symmetry_space_group_name_H-M	'P1'
_symmetry_Int_Tables_number	1
_symmetry_cell_setting	triclinic
loop_
_symmetry_equiv_pos_as_xyz
  x,y,z
_cell_length_a	12.759387
_cell_length_b	13.032831
_cell_length_c	13.032721
_cell_angle_alpha	90.902885
_cell_angle_beta	82.851191
_cell_angle_gamma	97.194792
loop_
_atom_site_label
_atom_site_type_symbol
_atom_site_fract_x
_atom_site_fract_y
_atom_site_fract_z
Zn1	Zn	-0.865598	-1.520311	0.609333
Zn2	Zn	-0.365598	-1.020311	1.109333
Zn3	Zn	-0.709064	-1.498341	0.781319
Zn4	Zn	-0.209064	-0.998341	1.281319
Zn5	Zn	-0.665221	-1.348314	0.587511
Zn6	Zn	-0.165221	-0.848314	1.087511
Zn7	Zn	-0.859989	-1.326459	0.759380
Zn8	Zn	-0.359989	-0.826459	1.259380
O9	O	-0.774968	-1.423356	0.684386
O10	O	-0.274968	-0.923356	1.184386
O11	O	-0.865529	-1.661312	0.650461
O12	O	-0.365529	-1.161312	1.150461
O13	O	-0.556227	-1.478391	0.755659
O14	O	-0.056227	-0.978391	1.255659
O15	O	-0.675800	-1.389470	0.446501
O16	O	-0.175800	-0.889470	0.946501
O17	O	-0.750524	-1.645170	0.776819
O18	O	-0.250524	-1.145170	1.276819
O19	O	-0.823016	-1.515836	0.462534
O20	O	-0.323016	-1.015836	0.962534
O21	O	-0.524015	-1.368166	0.613269
O22	O	-0.024015	-0.868166	1.113269
O23	O	-0.670361	-1.201500	0.591996
O24	O	-0.170361	-0.701500	1.091996
O25	O	-1.007754	-1.352223	0.739427
O26	O	-0.507754	-0.852223	1.239427
O27	O	-0.813456	-1.185443	0.718267
O28	O	-0.313456	-0.685443	1.218267
O29	O	-1.011875	-1.494645	0.629188
O30	O	-0.511875	-0.994645	1.129188
O31	O	-0.745085	-1.457200	0.922313
O32	O	-0.245085	-0.957200	1.422313
O33	O	-0.855969	-1.330919	0.906195
O34	O	-0.355969	-0.830919	1.406195
C35	C	-0.736543	-1.156156	0.650384
C36	C	-0.236543	-0.656156	1.150384
C37	C	-0.720133	-1.041843	0.635862
C38	C	-0.220133	-0.541843	1.135862
C39	C	-0.804703	-1.389331	0.951571
C40	C	-0.304703	-0.889331	1.451571
C41	C	-0.817473	-1.374870	1.065886
C42	C	-0.317473	-0.874870	1.565886
C43	C	-1.049001	-1.423447	0.684295
C44	C	-0.549001	-0.923447	1.184295
C45	C	-1.165778	-1.423485	0.684256
C46	C	-0.665778	-0.923485	1.184256
C47	C	-1.170091	-1.571798	0.569474
C48	C	-0.670091	-1.071798	1.069474
C49	C	-1.227109	-1.645970	0.512069
C50	C	-0.727109	-1.145970	1.012069
C51	C	-1.336830	-1.646000	0.512035
C52	C	-0.836830	-1.146000	1.012035
C53	C	-1.389535	-1.571847	0.569409
C54	C	-0.889535	-1.071847	1.069409
C55	C	-1.332517	-1.497675	0.626814
C56	C	-0.832517	-0.997675	1.126814
C57	C	-1.222795	-1.497655	0.626844
C58	C	-0.722795	-0.997655	1.126844
C59	C	-1.328203	-1.349360	0.741589
C60	C	-0.828203	-0.849360	1.241589
C61	C	-1.218483	-1.349333	0.741630
C62	C	-0.718483	-0.849333	1.241630
C63	C	-1.380908	-1.275207	0.798963
C64	C	-0.880908	-0.775207	1.298963
C65	C	-1.323891	-1.201038	0.856375
C66	C	-0.823891	-0.701038	1.356375
C67	C	-1.214164	-1.201012	0.856407
C68	C	-0.714164	-0.701012	1.356407
C69	C	-1.161465	-1.275160	0.799035
C70	C	-0.661465	-0.775160	1.299035
C71	C	-0.502001	-1.423335	0.684410
C72	C	-0.002001	-0.923335	1.184410
C73	C	-0.385221	-1.423532	0.684184
C74	C	0.114779	-0.923532	1.184184
C75	C	-0.813543	-1.691600	0.718522
C76	C	-0.313543	-1.191600	1.218522
C77	C	-0.829982	-1.805909	0.733068
C78	C	-0.329982	-1.305909	1.233068
C79	C	-0.783533	-0.982950	0.691965
C80	C	-0.283533	-0.482950	1.191965
C81	C	-0.766573	-0.864801	0.676958
C82	C	-0.266573	-0.364801	1.176958
C83	C	-0.745143	-1.457542	0.416161
C84	C	-0.245143	-0.957542	0.916161
C85	C	-0.732434	-1.472110	0.301860
C86	C	-0.232434	-0.972110	0.801860
C87	C	-0.768358	-1.430959	1.124798
C88	C	-0.268358	-0.930959	1.624798
C89	C	-0.781555	-1.416013	1.242949
C90	C	-0.281555	-0.916013	1.742949
H91	H	-1.080753	-1.571789	0.569507
H92	H	-0.580753	-1.071789	1.069507
Br93	Br	-1.538440	-1.571878	0.569347
Br94	Br	-1.038440	-1.071878	1.069347
H95	H	-0.716544	-1.490048	1.087768
H96	H	-0.216544	-0.990048	1.587768
H97	H	-0.869296	-1.315789	1.102919
H98	H	-0.369296	-0.815789	1.602919
H99	H	-1.383253	-1.706392	0.465284
H100	H	-0.883253	-1.206392	0.965284
H101	H	-0.850370	-1.019998	0.751103
H102	H	-0.350370	-0.519998	1.251103
H103	H	-0.699738	-0.827759	0.617807
H104	H	-0.199738	-0.327759	1.117807
H105	H	-0.896827	-0.842952	0.792209
H106	H	-0.396827	-0.342952	1.292209
H107	H	-0.653302	-1.004796	0.576716
H108	H	-0.153302	-0.504796	1.076716
H109	H	-0.680616	-1.531203	1.264833
H110	H	-0.180616	-1.031203	1.764833
H111	H	-1.184184	-1.706342	0.465355
H112	H	-0.684184	-1.206342	0.965355
Br113	Br	-1.529816	-1.275244	0.798915
Br114	Br	-1.029816	-0.775244	1.298915
Br115	Br	-1.395421	-1.100406	0.934221
Br116	Br	-0.895421	-0.600406	1.434221
Br117	Br	-1.012559	-1.275137	0.799083
Br118	Br	-0.512559	-0.775137	1.299083
Br119	Br	-1.136789	-1.100335	0.934309
Br120	Br	-0.636789	-0.600335	1.434309
H121	H	-0.833382	-1.356928	1.279978
H122	H	-0.333382	-0.856928	1.779978
