data_functionalizedCrystal
_audit_creation_method	'MofGen! by Chris Wilmer'
_symmetry_space_group_name_H-M	'P1'
_symmetry_Int_Tables_number	1
_symmetry_cell_setting	triclinic
loop_
_symmetry_equiv_pos_as_xyz
  x,y,z
_cell_length_a	10.654550
_cell_length_b	16.109301
_cell_length_c	9.730223
_cell_angle_alpha	89.994178
_cell_angle_beta	89.999957
_cell_angle_gamma	83.973206
loop_
_atom_site_label
_atom_site_type_symbol
_atom_site_fract_x
_atom_site_fract_y
_atom_site_fract_z
O1	O	1.666255	0.116774	-0.114192
O2	O	1.300625	0.127899	-0.114218
O3	O	1.493484	0.001365	-0.114190
O4	O	1.473396	0.243308	-0.114220
O5	O	1.493472	0.001362	0.114390
O6	O	1.300613	0.127896	0.114362
O7	O	1.666243	0.116770	0.114388
Zn8	Zn	1.483426	0.122333	0.150667
Zn9	Zn	1.483442	0.122337	-0.150497
O10	O	1.473384	0.243304	0.114360
C11	C	1.253832	0.127081	0.000069
C12	C	1.114422	0.124637	0.000060
C13	C	1.492664	-0.029616	0.000100
C14	C	1.490225	-0.121926	0.000102
C15	C	1.033926	0.199138	0.000054
C16	C	0.902936	0.196836	0.000079
C17	C	0.932952	0.045526	0.000107
C18	C	1.063939	0.047828	0.000093
C19	C	1.598991	-0.343552	0.000088
C20	C	1.596689	-0.430286	0.000076
C21	C	1.367868	-0.411772	0.000066
C22	C	1.370172	-0.325039	0.000067
C23	C	1.485737	-0.290932	0.000085
C24	C	1.481131	-0.464398	0.000072
C25	C	1.478634	-0.558439	0.000060
C26	C	1.488234	-0.196885	0.000095
C27	C	1.713036	0.117589	0.000098
C28	C	1.852446	0.120033	0.000098
C29	C	1.474203	0.274286	0.000067
C30	C	1.476643	0.366596	0.000056
N31	N	1.483424	0.122329	0.356203
N32	N	1.483454	0.122334	-0.356033
C33	C	1.568851	0.066324	0.428141
C34	C	1.568863	0.066324	0.572024
C35	C	1.398018	0.178342	0.572018
C36	C	1.398001	0.178337	0.428138
H37	H	1.075024	0.261680	0.000038
H38	H	1.693091	-0.315784	0.000100
H39	H	1.129483	-0.012843	0.000101
H40	H	1.688912	-0.473126	0.000075
H41	H	0.837401	0.257503	0.000077
H42	H	1.638406	0.020717	0.369575
H43	H	1.277941	-0.282194	0.000061
C44	C	1.242531	-0.448966	0.000131
C45	C	1.264750	-0.536185	0.000172
C46	C	1.149317	-0.570474	0.000256
H47	H	1.195802	-0.431037	-0.079558
H48	H	1.195889	-0.430999	0.079874
H49	H	1.311372	-0.554145	-0.079563
H50	H	1.311459	-0.554137	0.079855
H51	H	1.102676	-0.552507	0.079998
H52	H	1.102597	-0.552540	-0.079435
H53	H	1.164377	-0.629655	0.000296
H54	H	1.328470	0.223944	0.630602
C55	C	0.877895	-0.037779	0.000061
C56	C	0.745952	-0.023852	0.000032
C57	C	0.695195	-0.100575	-0.000034
H58	H	0.905394	-0.068552	0.079752
H59	H	0.905453	-0.068494	-0.079680
H60	H	0.718406	0.006850	0.079764
H61	H	0.718419	0.006908	-0.079654
H62	H	0.722752	-0.131290	-0.079774
H63	H	0.722703	-0.131342	0.079659
H64	H	0.605667	-0.091135	-0.000066
H65	H	1.638424	0.020718	0.630592
H66	H	1.328430	0.223944	0.369562
