data_functionalizedCrystal
_audit_creation_method	'MofGen! by Chris Wilmer'
_symmetry_space_group_name_H-M	'P1'
_symmetry_Int_Tables_number	1
_symmetry_cell_setting	triclinic
loop_
_symmetry_equiv_pos_as_xyz
  x,y,z
_cell_length_a	10.967926
_cell_length_b	14.971506
_cell_length_c	14.048226
_cell_angle_alpha	89.993237
_cell_angle_beta	102.133279
_cell_angle_gamma	95.821639
loop_
_atom_site_label
_atom_site_type_symbol
_atom_site_fract_x
_atom_site_fract_y
_atom_site_fract_z
O1	O	-0.162738	1.187812	-0.105859
O2	O	-0.182185	0.927519	-0.109049
O3	O	0.009178	1.063667	-0.077656
O4	O	-0.354101	1.051664	-0.137252
O5	O	0.009189	1.063650	0.080667
O6	O	-0.182174	0.927503	0.049274
O7	O	-0.162727	1.187796	0.052464
Zn8	Zn	-0.172448	1.057646	0.076007
Zn9	Zn	-0.172463	1.057668	-0.132591
O10	O	-0.354090	1.051648	0.021072
C11	C	-0.181305	0.894182	-0.029744
C12	C	-0.178685	0.794871	-0.029314
C13	C	-0.281110	0.357140	-0.046127
C14	C	-0.283562	0.450454	-0.046533
C15	C	-0.171129	0.507068	-0.028084
C16	C	-0.056236	0.470365	-0.009237
C17	C	-0.053785	0.377053	-0.008838
C18	C	-0.061352	0.664856	-0.010069
C19	C	-0.063802	0.758174	-0.010466
C20	C	-0.291128	0.738256	-0.047763
C21	C	-0.288678	0.644944	-0.047364
C22	C	-0.173785	0.608248	-0.028516
C23	C	-0.400587	1.052531	-0.065717
C24	C	-0.539115	1.055147	-0.088443
C25	C	-0.600869	1.056305	-0.016558
C26	C	-0.744046	1.059010	-0.040045
C27	C	0.055675	1.062784	0.009130
C28	C	0.194203	1.060167	0.031850
C29	C	-0.163606	1.221133	-0.026843
C30	C	-0.166226	1.320443	-0.027279
N31	N	-0.172438	1.057638	0.218369
N32	N	-0.172464	1.057684	-0.274952
C33	C	-0.087737	1.117944	0.282082
C34	C	-0.087736	1.117950	0.381740
C35	C	-0.172443	1.057654	0.417682
C36	C	-0.257148	0.997342	0.353961
C37	C	-0.257142	0.997332	0.254306
C38	C	-0.257157	0.997368	0.561674
C39	C	-0.257165	0.997378	0.661335
C40	C	-0.087751	1.117985	0.689108
C41	C	-0.087745	1.117975	0.589453
C42	C	-0.172452	1.057664	0.525739
H43	H	0.035309	0.516468	0.005778
H44	H	-0.797169	1.060013	-0.118980
H45	H	-0.018766	1.167054	0.433616
H46	H	0.039765	0.347177	0.006508
Cl47	Cl	-0.363623	0.921512	0.174210
Cl48	Cl	-0.621130	1.056701	-0.210309
Cl49	Cl	0.018733	1.193805	0.769208
Cl50	Cl	-0.422464	0.285976	-0.069313
H51	H	-0.547743	1.055290	0.062372
H52	H	-0.326130	0.948253	0.509800
Cl53	Cl	-0.723792	1.058605	0.153722
H54	H	-0.018764	1.167047	0.252826
Cl55	Cl	-0.435565	0.784388	-0.071448
Cl56	Cl	0.083088	0.618725	0.013634
H57	H	-0.018777	1.167077	0.560189
Cl58	Cl	-0.363656	0.921572	0.706511
H59	H	-0.377112	0.480328	-0.061890
H60	H	-0.326114	0.948243	0.383231
H61	H	0.027752	0.804268	0.004549
H62	H	-0.380231	0.598851	-0.062381
