data_functionalizedCrystal
_audit_creation_method	'MofGen! by Chris Wilmer'
_symmetry_space_group_name_H-M	'P1'
_symmetry_Int_Tables_number	1
_symmetry_cell_setting	triclinic
loop_
_symmetry_equiv_pos_as_xyz
  x,y,z
_cell_length_a	16.974897
_cell_length_b	16.992695
_cell_length_c	16.053802
_cell_angle_alpha	87.258926
_cell_angle_beta	83.774775
_cell_angle_gamma	92.972799
loop_
_atom_site_label
_atom_site_type_symbol
_atom_site_fract_x
_atom_site_fract_y
_atom_site_fract_z
O1	O	1.061806	-0.093271	-0.141098
O2	O	1.395140	0.240062	0.192235
O3	O	1.728473	0.573396	0.525568
O4	O	0.831707	-0.106726	-0.125569
O5	O	1.165040	0.226607	0.207764
O6	O	1.498374	0.559941	0.541097
O7	O	0.945834	0.014140	-0.133265
O8	O	1.279167	0.347473	0.200068
O9	O	1.612501	0.680807	0.533402
O10	O	0.947679	-0.214137	-0.133403
O11	O	1.281013	0.119196	0.199931
O12	O	1.614346	0.452530	0.533264
O13	O	0.939550	0.007514	0.006018
O14	O	1.272884	0.340848	0.339351
O15	O	1.606217	0.674181	0.672684
O16	O	0.825423	-0.113351	0.013713
O17	O	1.158757	0.219982	0.347047
O18	O	1.492090	0.553315	0.680380
O19	O	1.055523	-0.099897	-0.001816
O20	O	1.388856	0.233437	0.331518
O21	O	1.722190	0.566770	0.664851
Zn22	Zn	0.939475	-0.107676	0.028063
Zn23	Zn	1.272809	0.225657	0.361396
Zn24	Zn	1.606142	0.558991	0.694730
Zn25	Zn	0.947754	-0.098947	-0.155448
Zn26	Zn	1.281088	0.234387	0.177885
Zn27	Zn	1.614421	0.567720	0.511219
O28	O	0.941396	-0.220762	0.005880
O29	O	1.274729	0.112571	0.339213
O30	O	1.608063	0.445904	0.672547
C31	C	0.798987	-0.109648	-0.053932
C32	C	1.132320	0.223685	0.279402
C33	C	1.465653	0.557019	0.612735
C34	C	0.710851	-0.108474	-0.047983
C35	C	1.044184	0.224859	0.285350
C36	C	1.377518	0.558192	0.618683
C37	C	0.672862	-0.104314	-0.121106
C38	C	1.006196	0.229020	0.212228
C39	C	1.339529	0.562353	0.545561
C40	C	0.590048	-0.103224	-0.115504
C41	C	0.923382	0.230109	0.217829
C42	C	1.256715	0.563443	0.551163
C43	C	0.545225	-0.106289	-0.036780
C44	C	0.878558	0.227044	0.296554
C45	C	1.211891	0.560377	0.629887
C46	C	0.583219	-0.110453	0.036348
C47	C	0.916552	0.222880	0.369681
C48	C	1.249885	0.556214	0.703015
C49	C	0.666031	-0.111548	0.030746
C50	C	0.999364	0.221785	0.364079
C51	C	1.332698	0.555118	0.697413
C52	C	0.297185	-0.103407	-0.011883
C53	C	0.630519	0.229927	0.321450
C54	C	0.963852	0.563260	0.654783
C55	C	0.214368	-0.102309	-0.006287
C56	C	0.547701	0.231025	0.327047
C57	C	0.881034	0.564358	0.660380
C58	C	0.221203	-0.095081	-0.158140
C59	C	0.554536	0.238252	0.175194
C60	C	0.887870	0.571586	0.508527
C61	C	0.304017	-0.096172	-0.163735
C62	C	0.637350	0.237161	0.169598
C63	C	0.970684	0.570495	0.502932
C64	C	0.342003	-0.100339	-0.090607
C65	C	0.675337	0.232994	0.242726
C66	C	1.008670	0.566327	0.576059
N67	N	0.460575	-0.105173	-0.031052
N68	N	0.793909	0.228160	0.302281
N69	N	1.127242	0.561493	0.635614
N70	N	0.426651	-0.101461	-0.096335
N71	N	0.759984	0.231872	0.236998
N72	N	1.093318	0.565205	0.570331
C73	C	0.940319	0.040030	-0.063464
C74	C	1.273652	0.373363	0.269870
C75	C	1.606986	0.706696	0.603203
C76	C	0.933238	0.127044	-0.062986
C77	C	1.266571	0.460377	0.270347
C78	C	1.599905	0.793711	0.603681
C79	C	1.088243	-0.096974	-0.073455
C80	C	1.421577	0.236359	0.259878
C81	C	1.754910	0.569692	0.593212
C82	C	1.176379	-0.098148	-0.079409
C83	C	1.509713	0.235186	0.253924
C84	C	1.843046	0.568519	0.587258
C85	C	0.946911	-0.246652	-0.063923
C86	C	1.280244	0.086681	0.269410
C87	C	1.613578	0.420015	0.602743
C88	C	0.953992	-0.333666	-0.064406
C89	C	1.287326	-0.000333	0.268927
C90	C	1.620659	0.333001	0.602260
N91	N	0.933831	-0.113633	0.153304
N92	N	1.267164	0.219700	0.486637
N93	N	1.600498	0.553034	0.819971
C94	C	1.001560	0.177574	-0.067596
C95	C	1.334894	0.510907	0.265737
C96	C	1.668227	0.844240	0.599071
C97	C	0.994903	0.259332	-0.067155
C98	C	1.328236	0.592666	0.266179
C99	C	1.661569	0.925999	0.599512
C100	C	0.919921	0.290560	-0.062097
C101	C	1.253255	0.623893	0.271236
C102	C	1.586588	0.957226	0.604570
C103	C	0.851594	0.240024	-0.057489
C104	C	1.184927	0.573357	0.275844
C105	C	1.518261	0.906690	0.609178
C106	C	0.858253	0.158267	-0.057936
C107	C	1.191586	0.491600	0.275397
C108	C	1.524919	0.824933	0.608730
C109	C	0.892324	0.534041	-0.060246
C110	C	1.225657	0.867374	0.273087
C111	C	1.558990	1.200708	0.606421
C112	C	0.885670	0.615804	-0.059796
C113	C	1.219003	0.949138	0.273537
C114	C	1.552336	1.282471	0.606870
C115	C	1.028979	0.635108	-0.069463
C116	C	1.362313	0.968441	0.263870
C117	C	1.695646	1.301774	0.597203
C118	C	1.035631	0.553348	-0.069905
C119	C	1.368965	0.886681	0.263428
C120	C	1.702298	1.220015	0.596761
C121	C	0.967304	0.502819	-0.065302
C122	C	1.300637	0.836153	0.268031
C123	C	1.633971	1.169486	0.601365
N124	N	0.913114	0.374130	-0.061643
N125	N	1.246448	0.707463	0.271690
N126	N	1.579781	1.040797	0.605024
N127	N	0.974112	0.419251	-0.065762
N128	N	1.307446	0.752584	0.267571
N129	N	1.640779	1.085918	0.600905
N130	N	0.953405	-0.092983	-0.280689
N131	N	1.286738	0.240350	0.052644
N132	N	1.620071	0.573683	0.385977
C133	C	0.982412	-0.062223	0.193722
C134	C	1.315746	0.271111	0.527055
C135	C	1.649079	0.604444	0.860389
C136	C	0.978472	-0.066397	0.281394
C137	C	1.311805	0.266936	0.614728
C138	C	1.645139	0.600270	0.948061
C139	C	0.925954	-0.121986	0.328647
C140	C	1.259287	0.211347	0.661980
C141	C	1.592620	0.544680	0.995314
C142	C	0.877367	-0.173399	0.288223
C143	C	1.210700	0.159934	0.621556
C144	C	1.544034	0.493268	0.954890
C145	C	0.881304	-0.169220	0.200553
C146	C	1.214637	0.164113	0.533886
C147	C	1.547971	0.497446	0.867219
C148	C	0.908755	-0.140217	0.591216
C149	C	1.242088	0.193116	0.924550
C150	C	1.575422	0.526449	1.257883
C151	C	0.904823	-0.144394	0.678893
C152	C	1.238157	0.188940	1.012226
C153	C	1.571490	0.522273	1.345559
C154	C	1.005928	-0.037390	0.672058
C155	C	1.339261	0.295943	1.005391
C156	C	1.672594	0.629276	1.338725
C157	C	1.009863	-0.033220	0.584386
C158	C	1.343197	0.300114	0.917719
C159	C	1.676530	0.633447	1.251052
C160	C	0.961274	-0.084630	0.543970
C161	C	1.294607	0.248704	0.877303
C162	C	1.627940	0.582037	1.210636
N163	N	0.921926	-0.126256	0.418262
N164	N	1.255260	0.207077	0.751596
N165	N	1.588593	0.540411	1.084929
N166	N	0.965298	-0.080355	0.454356
N167	N	1.298631	0.252978	0.787690
N168	N	1.631964	0.586311	1.121023
H169	H	0.328104	-0.106795	0.047662
H170	H	0.661438	0.226539	0.380996
H171	H	0.994771	0.559872	0.714329
F172	F	1.065760	0.025944	0.534097
F173	F	1.399093	0.359277	0.867430
F174	F	1.732426	0.692610	1.200764
H175	H	1.096689	0.527929	-0.074024
H176	H	1.430022	0.861263	0.259310
H177	H	1.763356	1.194596	0.592643
F178	F	1.057635	0.017322	0.715077
F179	F	1.390968	0.350655	1.048410
F180	F	1.724301	0.683989	1.381744
H181	H	1.084607	0.676256	-0.073213
H182	H	1.417941	1.009590	0.260120
H183	H	1.751274	1.342923	0.593454
F184	F	1.081366	0.144347	-0.072971
F185	F	1.414699	0.477680	0.260362
F186	F	1.748033	0.811014	0.593696
F187	F	0.351716	-0.092905	-0.247524
F188	F	0.685050	0.240428	0.085809
F189	F	1.018383	0.573761	0.419142
H190	H	0.802617	0.117125	-0.054183
H191	H	1.135950	0.450459	0.279151
H192	H	1.469284	0.783792	0.612484
H193	H	0.869193	-0.182079	0.558316
H194	H	1.202526	0.151255	0.891650
H195	H	1.535860	0.484588	1.224983
H196	H	0.709352	-0.101815	-0.185212
H197	H	1.042686	0.231519	0.148122
H198	H	1.376019	0.564852	0.481455
F199	F	0.821468	-0.232558	0.338514
F200	F	1.154802	0.100775	0.671847
F201	F	1.488135	0.434108	1.005181
F202	F	0.706460	-0.115979	0.108573
F203	F	1.039794	0.217354	0.441906
F204	F	1.373127	0.550687	0.775239
H205	H	0.841743	-0.211083	0.167645
H206	H	1.175076	0.122250	0.500979
H207	H	1.508410	0.455584	0.834312
H208	H	0.862055	-0.189664	0.717362
H209	H	1.195388	0.143669	1.050696
H210	H	1.528721	0.477002	1.384029
F211	F	0.549622	-0.098796	-0.193331
F212	F	0.882955	0.234537	0.140002
F213	F	1.216288	0.567870	0.473335
F214	F	0.180770	-0.090639	-0.235962
F215	F	0.514103	0.242695	0.097372
F216	F	0.847436	0.576028	0.430705
H217	H	0.177873	-0.104827	0.057823
H218	H	0.511206	0.228506	0.391157
H219	H	0.844539	0.561839	0.724490
F220	F	1.067621	0.313107	-0.072060
F221	F	1.400955	0.646440	0.261274
F222	F	1.734288	0.979773	0.594607
F223	F	0.805861	0.649036	-0.054409
F224	F	1.139194	0.982369	0.278924
F225	F	1.472527	1.315702	0.612258
F226	F	0.819603	0.480275	-0.055349
F227	F	1.152936	0.813608	0.277985
F228	F	1.486269	1.146942	0.611318
F229	F	0.535511	-0.113722	0.120133
F230	F	0.868845	0.219612	0.453466
F231	F	1.202178	0.552945	0.786800
H232	H	1.025182	-0.016959	0.155254
H233	H	1.358515	0.316374	0.488587
H234	H	1.691848	0.649708	0.821921
F235	F	0.771793	0.273260	-0.052116
F236	F	1.105126	0.606594	0.281218
F237	F	1.438460	0.939927	0.614551
F238	F	1.030176	-0.011679	0.324410
F239	F	1.363510	0.321654	0.657744
F240	F	1.696843	0.654987	0.991077
