data_functionalizedCrystal
_audit_creation_method	'MofGen! by Chris Wilmer'
_symmetry_space_group_name_H-M	'P1'
_symmetry_Int_Tables_number	1
_symmetry_cell_setting	triclinic
loop_
_symmetry_equiv_pos_as_xyz
  x,y,z
_cell_length_a	8.597304
_cell_length_b	9.065218
_cell_length_c	8.140239
_cell_angle_alpha	89.997198
_cell_angle_beta	82.296592
_cell_angle_gamma	85.172810
loop_
_atom_site_label
_atom_site_type_symbol
_atom_site_fract_x
_atom_site_fract_y
_atom_site_fract_z
O1	O	0.230168	1.960827	-0.169189
O2	O	0.730168	2.460827	0.330811
O3	O	0.249048	1.531577	-0.171862
O4	O	0.749048	2.031577	0.328138
O5	O	0.011261	1.754650	-0.138202
O6	O	0.511261	2.254650	0.361798
O7	O	0.467955	1.737755	-0.202849
O8	O	0.967955	2.237755	0.297151
O9	O	0.011258	1.754637	0.135026
O10	O	0.511258	2.254637	0.635026
O11	O	0.249045	1.531565	0.101365
O12	O	0.749045	2.031565	0.601365
O13	O	0.230165	1.960815	0.104039
O14	O	0.730165	2.460815	0.604039
Zn15	Zn	0.239605	1.746188	0.146083
Zn16	Zn	0.739605	2.246188	0.646083
Zn17	Zn	0.239608	1.746204	-0.213906
Zn18	Zn	0.739608	2.246204	0.286094
O19	O	0.467952	1.737742	0.070378
O20	O	0.967952	2.237742	0.570378
C21	C	0.247232	1.476581	-0.034992
C22	C	0.747232	1.976581	0.465008
C23	C	0.241807	1.312728	-0.034225
C24	C	0.741807	1.812728	0.465775
C25	C	-0.047238	1.752829	0.006689
C26	C	0.452762	2.252829	0.506689
C27	C	-0.221541	1.747404	0.031352
C28	C	0.278459	2.247404	0.531352
C29	C	0.526450	1.739563	-0.074516
C30	C	1.026450	2.239563	0.425484
C31	C	0.700754	1.744988	-0.099190
C32	C	1.200754	2.244988	0.400810
C33	C	0.231981	2.015811	-0.032835
C34	C	0.731981	2.515811	0.467165
C35	C	0.237406	2.179664	-0.033613
C36	C	0.737406	2.679664	0.466387
N37	N	0.239601	1.746187	0.391766
N38	N	0.739601	2.246187	0.891766
N39	N	0.239600	1.746216	-0.459588
N40	N	0.739600	2.246216	0.040412
H41	H	-0.232424	1.747065	-0.229832
H42	H	0.267576	2.247065	0.270168
H43	H	-0.288369	1.745306	0.162002
H44	H	0.211631	2.245306	0.662002
