data_functionalizedCrystal
_audit_creation_method	'MofGen! by Chris Wilmer'
_symmetry_space_group_name_H-M	'P1'
_symmetry_Int_Tables_number	1
_symmetry_cell_setting	triclinic
loop_
_symmetry_equiv_pos_as_xyz
  x,y,z
_cell_length_a	16.959455
_cell_length_b	16.625546
_cell_length_c	16.625548
_cell_angle_alpha	90.011514
_cell_angle_beta	90.003642
_cell_angle_gamma	90.019415
loop_
_atom_site_label
_atom_site_type_symbol
_atom_site_fract_x
_atom_site_fract_y
_atom_site_fract_z
Zn1	Zn	1.208287	-0.321216	0.455873
Zn2	Zn	1.208229	-0.456015	0.321036
Zn3	Zn	1.076140	-0.321193	0.321057
Zn4	Zn	1.076075	-0.456003	0.455828
O5	O	1.142183	-0.388607	0.388449
O6	O	1.318890	-0.339112	0.437997
O7	O	1.190710	-0.438125	0.208206
O8	O	1.093722	-0.208363	0.338968
O9	O	1.318847	-0.438148	0.338933
O10	O	1.190810	-0.208381	0.438017
O11	O	1.093665	-0.339072	0.208222
O12	O	0.965521	-0.339061	0.338924
O13	O	1.093610	-0.438128	0.568667
O14	O	0.965473	-0.438106	0.437940
O15	O	1.190746	-0.339101	0.568700
O16	O	1.190647	-0.568846	0.338889
O17	O	1.093554	-0.568837	0.437920
C18	C	0.936817	-0.388580	0.388430
C19	C	0.848960	-0.388588	0.388441
C20	C	0.477485	-0.336992	0.336999
C21	C	0.477484	-0.440288	0.439945
C22	C	0.560030	-0.440276	0.439940
C23	C	0.601307	-0.388623	0.388463
C24	C	0.560039	-0.336981	0.336990
C25	C	0.601304	-0.491923	0.491405
C26	C	0.683855	-0.491914	0.491402
C27	C	0.725134	-0.440256	0.439928
C28	C	0.683861	-0.388611	0.388454
C29	C	0.725138	-0.336957	0.336977
C30	C	0.683866	-0.285308	0.285507
C31	C	0.601317	-0.285322	0.285517
C32	C	0.807683	-0.440242	0.439918
C33	C	0.807692	-0.336946	0.336969
C34	C	1.142108	-0.598098	0.388415
C35	C	1.142148	-0.687719	0.388427
C36	C	1.142286	-1.015894	0.388511
C37	C	1.142245	-0.924586	0.388490
C38	C	1.142217	-0.851809	0.388469
C39	C	1.142177	-0.760495	0.388449
C40	C	1.348351	-0.388634	0.388468
C41	C	1.436208	-0.388646	0.388476
C42	C	1.142177	-0.388616	0.598757
C43	C	1.142175	-0.388620	0.688379
C44	C	1.142279	-0.178298	0.388500
C45	C	1.142321	-0.088677	0.388522
C46	C	1.142172	-0.388624	0.761161
C47	C	1.142172	-0.388621	0.852469
C48	C	1.142175	-0.388614	0.925246
C49	C	1.142175	-0.388612	1.016560
C50	C	1.142181	-0.388614	1.178958
C51	C	1.142179	-0.388605	1.089337
H52	H	0.717485	-0.243255	0.243591
H53	H	0.567690	-0.533983	0.533309
Cl54	Cl	0.549428	-0.220399	0.220817
H55	H	0.841294	-0.294878	0.295054
Cl56	Cl	0.425591	-0.505237	0.504638
H57	H	0.443878	-0.294938	0.295095
Cl58	Cl	0.735733	-0.556841	0.556108
H59	H	0.841283	-0.482297	0.481822
