data_functionalizedCrystal
_audit_creation_method	'MofGen! by Chris Wilmer'
_symmetry_space_group_name_H-M	'P1'
_symmetry_Int_Tables_number	1
_symmetry_cell_setting	triclinic
loop_
_symmetry_equiv_pos_as_xyz
  x,y,z
_cell_length_a	10.723023
_cell_length_b	17.699091
_cell_length_c	16.176319
_cell_angle_alpha	90.005674
_cell_angle_beta	89.993069
_cell_angle_gamma	96.123188
loop_
_atom_site_label
_atom_site_type_symbol
_atom_site_fract_x
_atom_site_fract_y
_atom_site_fract_z
O1	O	1.655379	-0.106151	-0.068736
O2	O	2.155379	0.393849	0.431264
O3	O	1.292052	-0.116313	-0.068739
O4	O	1.792052	0.383687	0.431261
O5	O	1.483975	-0.001108	-0.068734
O6	O	1.983975	0.498892	0.431266
O7	O	1.463456	-0.221356	-0.068741
O8	O	1.963456	0.278644	0.431259
O9	O	1.483949	-0.001100	0.068759
O10	O	1.983949	0.498900	0.568759
O11	O	1.292026	-0.116305	0.068754
O12	O	1.792026	0.383695	0.568754
O13	O	1.655352	-0.106144	0.068757
O14	O	2.155352	0.393856	0.568757
Cu15	Cu	1.473687	-0.111224	0.081310
Cu16	Cu	1.973687	0.388776	0.581310
Cu17	Cu	1.473718	-0.111233	-0.081292
Cu18	Cu	1.973718	0.388767	0.418708
O19	O	1.463429	-0.221349	0.068753
O20	O	1.963429	0.278651	0.568753
C21	C	1.245552	-0.115570	0.000007
C22	C	1.745552	0.384430	0.500007
C23	C	1.107036	-0.113358	0.000006
C24	C	1.607036	0.386642	0.500006
C25	C	1.045267	-0.112367	0.071231
C26	C	1.545267	0.387633	0.571231
C27	C	0.902103	-0.110081	0.071231
C28	C	1.402103	0.389919	0.571231
C29	C	1.483225	0.027097	0.000011
C30	C	1.983225	0.527097	0.500011
C31	C	1.481015	0.111129	0.000008
C32	C	1.981015	0.611129	0.500008
C33	C	1.701852	-0.106887	0.000009
C34	C	2.201852	0.393113	0.500009
C35	C	1.840369	-0.109099	0.000005
C36	C	2.340369	0.390901	0.500005
C37	C	1.479994	0.150599	-0.074940
C38	C	1.979994	0.650599	0.425060
C39	C	1.477908	0.229555	-0.074940
C40	C	1.977908	0.729555	0.425060
C41	C	1.476854	0.269041	0.000009
C42	C	1.976854	0.769041	0.500009
C43	C	1.477871	0.229565	0.074963
C44	C	1.977871	0.729565	0.574963
C45	C	1.479947	0.150610	0.074962
C46	C	1.979947	0.650610	0.574962
C47	C	1.469497	0.547983	0.074967
C48	C	1.969497	1.047983	0.574967
C49	C	1.467424	0.626944	0.074962
C50	C	1.967424	1.126944	0.574962
C51	C	1.467458	0.626928	-0.074935
C52	C	1.967458	1.126928	0.425065
C53	C	1.469534	0.547973	-0.074935
C54	C	1.969534	1.047973	0.425065
C55	C	1.470545	0.508504	0.000018
C56	C	1.970545	1.008504	0.500018
C57	C	1.472803	0.422890	0.000017
C58	C	1.972803	0.922890	0.500017
C59	C	1.474604	0.354653	0.000010
C60	C	1.974604	0.854653	0.500010
C61	C	1.464180	0.750446	0.000008
C62	C	1.964180	1.250446	0.500008
C63	C	1.466394	0.666415	0.000013
C64	C	1.966394	1.166415	0.500013
N65	N	1.473674	-0.111217	0.195675
N66	N	1.973674	0.388783	0.695675
N67	N	1.473741	-0.111233	-0.195657
N68	N	1.973741	0.388767	0.304343
C69	C	1.558683	-0.060226	0.238941
C70	C	2.058683	0.439774	0.738941
C71	C	1.558689	-0.060225	0.325489
C72	C	2.058689	0.439775	0.825489
C73	C	1.473692	-0.111220	0.368768
C74	C	1.973692	0.388780	0.868768
C75	C	1.388673	-0.162214	0.325495
C76	C	1.888673	0.337786	0.825495
C77	C	1.388662	-0.162210	0.238950
C78	C	1.888662	0.337790	0.738950
C79	C	1.388716	-0.162228	0.674524
C80	C	1.888716	0.337772	1.174524
C81	C	1.388737	-0.162229	0.761075
C82	C	1.888737	0.337771	1.261075
C83	C	1.558743	-0.060243	0.761062
C84	C	2.058743	0.439757	1.261062
C85	C	1.558732	-0.060239	0.674517
C86	C	2.058732	0.439761	1.174517
C87	C	1.473710	-0.111230	0.631252
C88	C	1.973710	0.388770	1.131252
C89	C	1.473703	-0.111229	0.537408
C90	C	1.973703	0.388771	1.037408
C91	C	1.473704	-0.111225	0.462610
C92	C	1.973704	0.388775	0.962610
H93	H	1.053930	-0.112511	-0.060972
H94	H	1.553930	0.387489	0.439028
O95	O	0.838718	-0.108928	0.143961
O96	O	1.338718	0.391072	0.643961
C97	C	0.777727	-0.042301	0.148373
C98	C	1.277727	0.457699	0.648373
H99	H	0.827049	0.002802	0.105873
H100	H	1.327049	0.502802	0.605873
H101	H	0.780923	-0.020306	0.214661
H102	H	1.280923	0.479694	0.714661
H103	H	0.675892	-0.055522	0.128155
H104	H	1.175892	0.444478	0.628155
H105	H	1.480761	0.118473	0.135992
H106	H	1.980761	0.618473	0.635992
O107	O	0.903837	-0.110219	-0.072696
O108	O	1.403837	0.389781	0.427304
C109	C	0.964774	-0.176865	-0.077128
C110	C	1.464774	0.323135	0.422872
H111	H	0.979357	-0.198986	-0.012038
H112	H	1.479357	0.301014	0.487962
H113	H	1.059584	-0.163614	-0.108770
H114	H	1.559584	0.336386	0.391230
H115	H	0.904660	-0.221885	-0.114159
H116	H	1.404660	0.278115	0.385841
O117	O	1.480961	0.112359	-0.147820
O118	O	1.980961	0.612359	0.352180
C119	C	1.479641	0.164133	-0.213971
C120	C	1.979641	0.664133	0.286029
H121	H	1.438668	0.217489	-0.191996
H122	H	1.938668	0.717489	0.308004
H123	H	1.419694	0.136828	-0.266391
H124	H	1.919694	0.636828	0.233609
H125	H	1.579491	0.179949	-0.237016
H126	H	2.079491	0.679949	0.262984
H127	H	1.098374	-0.113208	0.132209
H128	H	1.598374	0.386792	0.632209
O129	O	1.641128	-0.010568	0.196959
O130	O	2.141128	0.489432	0.696959
C131	C	1.621064	0.064454	0.218166
C132	C	2.121064	0.564454	0.718166
H133	H	1.521159	0.065355	0.241958
H134	H	2.021159	0.565355	0.741958
H135	H	1.635534	0.102383	0.161272
H136	H	2.135534	0.602383	0.661272
H137	H	1.690273	0.086289	0.268414
H138	H	2.190273	0.586289	0.768414
O139	O	1.641270	-0.010597	0.803002
O140	O	2.141270	0.489403	1.303002
C141	C	1.621194	0.064438	0.781879
C142	C	2.121194	0.564438	1.281879
H143	H	1.573094	0.064610	0.719047
H144	H	2.073094	0.564610	1.219047
H145	H	1.715096	0.101192	0.778912
H146	H	2.215096	0.601192	1.278912
H147	H	1.559160	0.088188	0.830597
H148	H	2.059160	0.588188	1.330597
H149	H	1.477082	0.261688	-0.135970
H150	H	1.977082	0.761688	0.364030
H151	H	1.470399	0.515828	-0.135966
H152	H	1.970399	1.015828	0.364034
O153	O	1.466232	0.665292	-0.147722
O154	O	1.966232	1.165292	0.352278
C155	C	1.357016	0.702963	-0.152193
C156	C	1.857016	1.202963	0.347807
H157	H	1.282134	0.673567	-0.109663
H158	H	1.782134	1.173567	0.390337
H159	H	1.320743	0.701169	-0.218482
H160	H	1.820743	1.201169	0.281518
H161	H	1.379855	0.764613	-0.132050
H162	H	1.879855	1.264613	0.367950
H163	H	1.466562	0.659091	0.135998
H164	H	1.966562	1.159091	0.635998
O165	O	1.641034	-0.010559	0.632454
O166	O	2.141034	0.489441	1.132454
C167	C	1.574174	0.036506	0.582524
C168	C	2.074174	0.536506	1.082524
H169	H	1.476535	0.006800	0.569504
H170	H	1.976535	0.506800	1.069504
H171	H	1.626272	0.048370	0.521685
H172	H	2.126272	0.548370	1.021685
H173	H	1.565652	0.092404	0.616007
H174	H	2.065652	0.592404	1.116007
H175	H	1.470345	0.515858	0.135999
H176	H	1.970345	1.015858	0.635999
O177	O	1.476904	0.268040	0.147695
O178	O	1.976904	0.768040	0.647695
C179	C	1.474828	0.346191	0.131626
C180	C	1.974828	0.846191	0.631626
H181	H	1.514042	0.359896	0.067212
H182	H	2.014042	0.859896	0.567212
H183	H	1.534594	0.380689	0.179492
H184	H	2.034594	0.880689	0.679492
H185	H	1.374174	0.361181	0.135182
H186	H	1.874174	0.861181	0.635182
H187	H	1.627909	-0.018703	0.360716
H188	H	2.127909	0.481297	0.860716
O189	O	1.305985	-0.211688	0.803082
O190	O	1.805985	0.288312	1.303082
C191	C	1.182508	-0.198701	0.781943
C192	C	1.682508	0.301299	1.281943
H193	H	1.182092	-0.138101	0.758159
H194	H	1.682092	0.361899	1.258159
H195	H	1.119875	-0.207054	0.838870
H196	H	1.619875	0.292946	1.338870
H197	H	1.145708	-0.240447	0.731710
H198	H	1.645708	0.259553	1.231710
H199	H	1.319491	-0.203748	0.639304
H200	H	1.819491	0.296252	1.139304
O201	O	1.306226	-0.211723	0.367662
O202	O	1.806226	0.288277	0.867662
C203	C	1.324444	-0.200782	0.453328
C204	C	1.824444	0.299218	0.953328
H205	H	1.423733	-0.173045	0.465138
H206	H	1.923733	0.326955	0.965138
H207	H	1.310391	-0.258024	0.486211
H208	H	1.810391	0.241976	0.986211
H209	H	1.253942	-0.162431	0.477906
H210	H	1.753942	0.337569	0.977906
O211	O	1.306040	-0.211818	0.197046
O212	O	1.806040	0.288182	0.697046
C213	C	1.231001	-0.256817	0.253802
C214	C	1.731001	0.243183	0.753802
H215	H	1.282163	-0.257960	0.315487
H216	H	1.782163	0.242040	0.815487
H217	H	1.211773	-0.317153	0.228787
H218	H	1.711773	0.182847	0.728787
H219	H	1.138389	-0.231727	0.263024
H220	H	1.638389	0.268273	0.763024
