data_functionalizedCrystal
_audit_creation_method	'MofGen! by Chris Wilmer'
_symmetry_space_group_name_H-M	'P1'
_symmetry_Int_Tables_number	1
_symmetry_cell_setting	triclinic
loop_
_symmetry_equiv_pos_as_xyz
  x,y,z
_cell_length_a	17.077404
_cell_length_b	16.120507
_cell_length_c	16.120256
_cell_angle_alpha	95.613568
_cell_angle_beta	87.120369
_cell_angle_gamma	87.068191
loop_
_atom_site_label
_atom_site_type_symbol
_atom_site_fract_x
_atom_site_fract_y
_atom_site_fract_z
Zn1	Zn	1.159590	0.356806	0.489421
Zn2	Zn	1.659590	0.856806	0.989421
Zn3	Zn	1.159473	0.489492	0.356725
Zn4	Zn	1.659473	0.989492	0.856725
Zn5	Zn	1.035332	0.349733	0.349669
Zn6	Zn	1.535332	0.849733	0.849669
Zn7	Zn	1.021258	0.496533	0.496451
Zn8	Zn	1.521258	0.996533	0.996451
O9	O	1.093913	0.423141	0.423066
O10	O	1.593913	0.923141	0.923066
O11	O	1.269420	0.374421	0.471829
O12	O	1.769420	0.874421	0.971829
O13	O	1.148847	0.465047	0.238827
O14	O	1.648847	0.965047	0.738827
O15	O	1.057754	0.233706	0.362311
O16	O	1.557754	0.733706	0.862311
O17	O	1.269334	0.471905	0.374339
O18	O	1.769334	0.971905	0.874339
O19	O	1.149046	0.238903	0.464987
O20	O	1.649046	0.738903	0.964987
O21	O	1.057641	0.362366	0.233642
O22	O	1.557641	0.862366	0.733642
O23	O	0.923620	0.369193	0.369129
O24	O	1.423620	0.869193	0.869129
O25	O	1.033766	0.483904	0.612481
O26	O	1.533766	0.983904	1.112481
O27	O	0.913279	0.477046	0.476969
O28	O	1.413279	0.977046	0.976969
O29	O	1.135398	0.381248	0.607316
O30	O	1.635398	0.881248	1.107316
O31	O	1.135199	0.607392	0.381156
O32	O	1.635199	1.107392	0.881156
O33	O	1.033653	0.612564	0.483812
O34	O	1.533653	1.112564	0.983812
C35	C	0.889967	0.423117	0.423046
C36	C	1.389967	0.923117	0.923046
C37	C	0.802717	0.423127	0.423059
C38	C	1.302717	0.923127	0.923059
C39	C	0.761763	0.372467	0.473909
C40	C	1.261763	0.872467	0.973909
C41	C	0.679782	0.372472	0.473913
C42	C	1.179782	0.872472	0.973913
C43	C	0.638756	0.423143	0.423071
C44	C	1.138756	0.923143	0.923071
C45	C	0.679715	0.473806	0.372215
C46	C	1.179715	0.973806	0.872215
C47	C	0.761695	0.473795	0.372207
C48	C	1.261695	0.973795	0.872207
C49	C	0.508843	0.473826	0.372237
C50	C	1.008843	0.973826	0.872237
C51	C	0.426858	0.473838	0.372246
C52	C	0.926858	0.973838	0.872246
C53	C	0.426930	0.372503	0.473942
C54	C	0.926930	0.872503	0.973942
C55	C	0.508910	0.372492	0.473934
C56	C	1.008910	0.872492	0.973934
C57	C	0.549864	0.423156	0.423080
C58	C	1.049864	0.923156	0.923080
C59	C	1.082907	0.640307	0.434031
C60	C	1.582907	1.140307	0.934031
C61	C	1.078268	0.733212	0.438749
C62	C	1.578268	1.233212	0.938749
C63	C	1.118039	0.942122	0.398718
C64	C	1.618039	1.442122	0.898718
C65	C	1.069814	0.903307	0.447373
C66	C	1.569814	1.403307	0.947373
C67	C	1.074520	0.808658	0.442573
C68	C	1.574520	1.308658	0.942573
C69	C	1.113335	1.036780	0.403517
C70	C	1.613335	1.536780	0.903517
C71	C	1.298655	0.423167	0.423087
C72	C	1.798655	0.923167	0.923087
C73	C	1.385904	0.423177	0.423096
C74	C	1.885904	0.923177	0.923096
C75	C	1.083025	0.434150	0.641073
C76	C	1.583025	0.934150	1.141073
C77	C	1.078385	0.438842	0.733975
C78	C	1.578385	0.938842	1.233975
C79	C	1.104954	1.205128	0.412065
C80	C	1.604954	1.705128	0.912065
C81	C	1.109583	1.112222	0.407344
C82	C	1.609583	1.612222	0.907344
C83	C	1.104807	0.412115	0.205905
C84	C	1.604807	0.912115	0.705905
C85	C	1.109611	0.407188	0.112992
C86	C	1.609611	0.907188	0.612992
C87	C	1.118109	0.398655	0.942901
C88	C	1.618109	0.898655	1.442901
C89	C	1.069890	0.447372	0.904060
C90	C	1.569890	0.947372	1.404060
C91	C	1.074618	0.442624	0.809416
C92	C	1.574618	0.942624	1.309416
C93	C	1.113382	0.403401	1.037554
C94	C	1.613382	0.903401	1.537554
H95	H	0.646441	0.331221	0.515321
H96	H	1.146441	0.831221	1.015321
Br97	Br	0.995164	0.522834	0.967102
Br98	Br	1.495164	1.022834	1.467102
H99	H	1.162939	0.353385	0.905077
H100	H	1.662939	0.853385	1.405077
Br101	Br	0.995107	0.966394	0.522807
Br102	Br	1.495107	1.466394	1.022807
H103	H	0.542311	0.331236	0.515339
H104	H	1.042311	0.831236	1.015339
H105	H	1.162857	0.904273	0.353461
H106	H	1.662857	1.404273	0.853461
H107	H	0.393582	0.331249	0.515348
H108	H	0.893582	0.831249	1.015348
Br109	Br	0.817433	0.303701	0.542918
Br110	Br	1.317433	0.803701	1.042918
H111	H	0.795039	0.515048	0.330800
H112	H	1.295039	1.015048	0.830800
H113	H	0.393456	0.515100	0.330847
H114	H	0.893456	1.015100	0.830847
H115	H	0.646306	0.515059	0.330815
H116	H	1.146306	1.015059	0.830815
Br117	Br	0.564423	0.542590	0.303224
Br118	Br	1.064423	1.042590	0.803224
