data_functionalizedCrystal
_audit_creation_method	'MofGen! by Chris Wilmer'
_symmetry_space_group_name_H-M	'P1'
_symmetry_Int_Tables_number	1
_symmetry_cell_setting	triclinic
loop_
_symmetry_equiv_pos_as_xyz
  x,y,z
_cell_length_a	8.559649
_cell_length_b	10.489716
_cell_length_c	7.088929
_cell_angle_alpha	83.717280
_cell_angle_beta	95.324505
_cell_angle_gamma	77.153900
loop_
_atom_site_label
_atom_site_type_symbol
_atom_site_fract_x
_atom_site_fract_y
_atom_site_fract_z
O1	O	2.103401	-0.028521	-0.158982
O2	O	2.603401	0.471479	0.341018
O3	O	1.638947	0.037278	-0.158981
O4	O	2.138947	0.537278	0.341019
O5	O	1.881762	-0.182336	-0.158989
O6	O	2.381762	0.317664	0.341011
O7	O	1.860586	0.191093	-0.158975
O8	O	2.360586	0.691093	0.341025
O9	O	1.914211	-0.211744	0.158985
O10	O	2.414211	0.288256	0.658985
O11	O	1.671396	0.007870	0.158993
O12	O	2.171396	0.507870	0.658993
O13	O	2.135850	-0.057929	0.158992
O14	O	2.635850	0.442071	0.658992
Cu15	Cu	1.906586	-0.027715	0.188026
Cu16	Cu	2.406586	0.472285	0.688026
Cu17	Cu	1.868211	0.007064	-0.188015
Cu18	Cu	2.368211	0.507064	0.311985
O19	O	1.893035	0.161684	0.158999
O20	O	2.393035	0.661684	0.658999
C21	C	1.595698	0.027560	0.000006
C22	C	2.095698	0.527560	0.500006
C23	C	1.418487	0.042403	0.000005
C24	C	1.918487	0.542403	0.500005
C25	C	1.896395	-0.244404	-0.000008
C26	C	2.396395	0.255596	0.499992
C27	C	1.891632	-0.385532	-0.000025
C28	C	2.391632	0.114468	0.499975
C29	C	2.040536	-0.498887	-0.000008
C30	C	2.540536	0.001113	0.499992
C31	C	1.945854	-0.553463	-0.156781
C32	C	2.445854	-0.053463	0.343219
C33	C	1.977812	-0.582417	0.156717
C34	C	2.477812	-0.082417	0.656717
C35	C	1.796999	-0.438237	-0.156927
C36	C	2.296999	0.061763	0.343073
C37	C	1.828994	-0.467202	0.156711
C38	C	2.328994	0.032798	0.656711
C39	C	1.734198	-0.521714	-0.000100
C40	C	2.234198	-0.021714	0.499900
C41	C	2.179098	-0.048211	0.000001
C42	C	2.679098	0.451789	0.500001
C43	C	2.356308	-0.063053	-0.000012
C44	C	2.856308	0.436947	0.499988
C45	C	1.878402	0.223753	0.000014
C46	C	2.378402	0.723753	0.500014
C47	C	1.883163	0.364882	0.000018
C48	C	2.383163	0.864882	0.500018
N49	N	1.933588	-0.052178	0.452513
N50	N	2.433588	0.447822	0.952513
N51	N	1.841221	0.031516	-0.452503
N52	N	2.341221	0.531516	0.047497
H53	H	1.336147	0.144046	-0.000010
H54	H	1.836147	0.644046	0.499990
H55	H	2.170039	-0.487833	-0.000167
H56	H	2.670039	0.012167	0.499833
H57	H	1.745493	0.118248	0.465854
H58	H	2.245493	0.618248	0.965854
Br59	Br	2.105169	-0.686342	0.377620
Br60	Br	2.605169	-0.186342	0.877620
H61	H	1.438655	-0.164701	-0.000016
H62	H	1.938655	0.335299	0.499984
H63	H	1.995186	-0.591318	-0.289324
H64	H	2.495186	-0.091318	0.210676
Br65	Br	1.669722	-0.334592	-0.378086
Br66	Br	2.169722	0.165408	0.121914
H67	H	2.029334	-0.138908	0.534166
H68	H	2.529334	0.361092	1.034166
H69	H	1.604572	-0.532488	-0.000184
H70	H	2.104572	-0.032488	0.499816
H71	H	1.779717	-0.429330	0.289259
H72	H	2.279717	0.070670	0.789259
