data_functionalizedCrystal
_audit_creation_method	'MofGen! by Chris Wilmer'
_symmetry_space_group_name_H-M	'P1'
_symmetry_Int_Tables_number	1
_symmetry_cell_setting	triclinic
loop_
_symmetry_equiv_pos_as_xyz
  x,y,z
_cell_length_a	29.839134
_cell_length_b	17.640280
_cell_length_c	17.640968
_cell_angle_alpha	114.317439
_cell_angle_beta	78.764696
_cell_angle_gamma	101.206663
loop_
_atom_site_label
_atom_site_type_symbol
_atom_site_fract_x
_atom_site_fract_y
_atom_site_fract_z
Zn1	Zn	0.759681	0.233925	-0.399943
Zn2	Zn	1.259681	0.733925	0.100057
Zn3	Zn	0.759644	0.399593	-0.234304
Zn4	Zn	1.259644	0.899593	0.265696
Zn5	Zn	0.671920	0.261803	-0.262116
Zn6	Zn	1.171920	0.761803	0.237884
Zn7	Zn	0.697176	0.371684	-0.372063
Zn8	Zn	1.197176	0.871684	0.127937
O9	O	0.722105	0.316751	-0.317106
O10	O	1.222105	0.816751	0.182894
O11	O	0.822548	0.255913	-0.377999
O12	O	1.322548	0.755913	0.122001
O13	O	0.737422	0.404662	-0.122659
O14	O	1.237422	0.904662	0.377341
O15	O	0.673007	0.142787	-0.303706
O16	O	1.173007	0.642787	0.196294
O17	O	0.822521	0.377630	-0.256305
O18	O	1.322521	0.877630	0.243695
O19	O	0.737485	0.122304	-0.404967
O20	O	1.237485	0.622304	0.095033
O21	O	0.672972	0.303429	-0.143093
O22	O	1.172972	0.803429	0.356907
O23	O	0.612398	0.276367	-0.276672
O24	O	1.112398	0.776367	0.223328
O25	O	0.716052	0.330063	-0.491095
O26	O	1.216052	0.830063	0.008905
O27	O	0.630954	0.357096	-0.357450
O28	O	1.130954	0.857096	0.142550
O29	O	0.761975	0.228851	-0.511578
O30	O	1.261975	0.728851	-0.011578
O31	O	0.761912	0.511209	-0.229271
O32	O	1.261912	1.011209	0.270729
O33	O	0.716017	0.490705	-0.330482
O34	O	1.216017	0.990705	0.169518
C35	C	0.605374	0.316728	-0.317054
C36	C	1.105374	0.816728	0.182946
C37	C	0.555440	0.316734	-0.317047
C38	C	1.055440	0.816734	0.182953
C39	C	0.741715	0.530854	-0.273851
C40	C	1.241715	1.030854	0.226149
C41	C	0.750148	0.622443	-0.255374
C42	C	1.250148	1.122443	0.244626
C43	C	0.741835	0.273234	-0.532078
C44	C	1.241835	0.773234	-0.032078
C45	C	0.750243	0.254690	-0.623686
C46	C	1.250243	0.754690	-0.123686
C47	C	0.255477	0.358878	-0.359087
C48	C	0.755477	0.858878	0.140913
C49	C	0.067810	0.358894	-0.359119
C50	C	0.567810	0.858894	0.140881
O51	O	0.051770	0.394694	-0.394836
O52	O	0.551770	0.894694	0.105164
N53	N	0.034672	0.316769	-0.317162
N54	N	0.534672	0.816769	0.182838
C55	C	0.048453	0.274633	-0.275199
C56	C	0.548453	0.774633	0.224801
O57	O	0.015960	0.238796	-0.239520
O58	O	0.515960	0.738796	0.260480
C59	C	0.236119	0.274612	-0.275173
C60	C	0.736119	0.774612	0.224827
C61	C	0.269256	0.316747	-0.317125
C62	C	0.769256	0.816747	0.182875
C63	C	0.288613	0.401008	-0.401037
C64	C	0.788613	0.901008	0.098963
C65	C	0.335527	0.401008	-0.401025
C66	C	0.835527	0.901008	0.098975
C67	C	0.349305	0.358877	-0.359063
C68	C	0.849305	0.858877	0.140937
C69	C	0.316170	0.316746	-0.317113
C70	C	0.816170	0.816746	0.182887
C71	C	0.249899	0.232472	-0.233215
C72	C	0.749899	0.732472	0.266785
C73	C	0.296820	0.232469	-0.233214
C74	C	0.796820	0.732469	0.266786
C75	C	0.329956	0.274603	-0.275166
C76	C	0.829956	0.774603	0.224834
C77	C	0.376862	0.274615	-0.275139
C78	C	0.876862	0.774615	0.224861
N79	N	0.410000	0.316740	-0.317095
N80	N	0.910000	0.816740	0.182905
C81	C	0.396222	0.358871	-0.359058
C82	C	0.896222	0.858871	0.140942
C83	C	-0.050075	0.274648	-0.275215
C84	C	0.449925	0.774648	0.224785
C85	C	-0.096991	0.274654	-0.275220
C86	C	0.403009	0.774654	0.224780
C87	C	-0.077630	0.358914	-0.359141
C88	C	0.422370	0.858914	0.140859
C89	C	-0.030713	0.358912	-0.359131
C90	C	0.469287	0.858912	0.140869
C91	C	-0.016936	0.316772	-0.317171
C92	C	0.483064	0.816772	0.182829
C93	C	0.494744	0.358867	-0.359028
C94	C	0.994744	0.858867	0.140972
C95	C	0.541661	0.358865	-0.359009
C96	C	1.041661	0.858865	0.140991
C97	C	0.522297	0.274602	-0.275092
C98	C	1.022297	0.774602	0.224908
C99	C	0.475383	0.274607	-0.275107
C100	C	0.975383	0.774607	0.224893
C101	C	0.461609	0.316741	-0.317081
C102	C	0.961609	0.816741	0.182919
O103	O	0.392936	0.238826	-0.239449
O104	O	0.892936	0.738826	0.260551
O105	O	0.428721	0.394686	-0.394747
O106	O	0.928721	0.894686	0.105253
C107	C	0.208563	0.358879	-0.359099
C108	C	0.708563	0.858879	0.140901
C109	C	0.175428	0.316748	-0.317150
C110	C	0.675428	0.816748	0.182850
C111	C	0.189206	0.274617	-0.275188
C112	C	0.689206	0.774617	0.224812
C113	C	0.128511	0.316754	-0.317155
C114	C	0.628511	0.816754	0.182845
C115	C	0.114733	0.358885	-0.359117
C116	C	0.614733	0.858885	0.140883
C117	C	0.147871	0.401010	-0.401074
C118	C	0.647871	0.901010	0.098926
C119	C	0.194785	0.401009	-0.401061
C120	C	0.694785	0.901009	0.098939
C121	C	0.156068	0.232492	-0.233231
C122	C	0.656068	0.732492	0.266769
C123	C	0.109155	0.232497	-0.233246
C124	C	0.609155	0.732497	0.266754
C125	C	0.095376	0.274628	-0.275208
C126	C	0.595376	0.774628	0.224792
C127	C	0.839292	0.316775	-0.317159
C128	C	1.339292	0.816775	0.182841
C129	C	0.889231	0.316785	-0.317182
C130	C	1.389231	0.816785	0.182818
C131	C	0.702433	0.101809	-0.360548
C132	C	1.202433	0.601809	0.139452
C133	C	0.694050	0.010213	-0.379061
C134	C	1.194050	0.510213	0.120939
C135	C	0.658255	0.870487	-0.457775
C136	C	1.158255	1.370487	0.042225
C137	C	0.666177	0.956554	-0.440386
C138	C	1.166177	1.456554	0.059614
C139	C	0.714013	0.977819	-0.335102
C140	C	1.214013	1.477819	0.164898
C141	C	0.706097	0.891751	-0.352484
C142	C	1.206097	1.391751	0.147516
C143	C	0.678217	0.838092	-0.413821
C144	C	1.178217	1.338092	0.086179
C145	C	0.726059	0.859356	-0.308530
C146	C	1.226059	1.359356	0.191470
C147	C	0.718141	0.773297	-0.325909
C148	C	1.218141	1.273297	0.174091
C149	C	0.690261	0.719633	-0.387241
C150	C	1.190261	1.219633	0.112759
C151	C	0.670299	0.752033	-0.431199
C152	C	1.170299	1.252033	0.068801
C153	C	0.753936	0.913018	-0.247190
C154	C	1.253936	1.413018	0.252810
C155	C	0.773898	0.880623	-0.203236
C156	C	1.273898	1.380623	0.296764
C157	C	0.765983	0.794561	-0.220618
C158	C	1.265983	1.294561	0.279382
C159	C	0.738103	0.740897	-0.281950
C160	C	1.238103	1.240897	0.218050
C161	C	0.785946	0.762161	-0.176660
C162	C	1.285946	1.262161	0.323340
C163	C	0.778028	0.676102	-0.194038
C164	C	1.278028	1.176102	0.305962
C165	C	0.730186	0.654838	-0.299328
C166	C	1.230186	1.154838	0.200672
C167	C	0.658365	0.457183	-0.871649
C168	C	1.158365	0.957183	-0.371649
C169	C	0.666274	0.439747	-0.957731
C170	C	1.166274	0.939747	-0.457731
C171	C	0.714089	0.334365	-0.979048
C172	C	1.214089	0.834365	-0.479048
C173	C	0.706182	0.351789	-0.892967
C174	C	1.206182	0.851789	-0.392967
C175	C	0.678320	0.413200	-0.839274
C176	C	1.178320	0.913200	-0.339274
C177	C	0.726138	0.307806	-0.860591
C178	C	1.226138	0.807806	-0.360591
C179	C	0.718233	0.325232	-0.774517
C180	C	1.218233	0.825232	-0.274517
C181	C	0.690374	0.386641	-0.720818
C182	C	1.190374	0.886641	-0.220818
C183	C	0.670416	0.430626	-0.753200
C184	C	1.170416	0.930626	-0.253200
C185	C	0.754002	0.246399	-0.914285
C186	C	1.254002	0.746399	-0.414285
C187	C	0.773957	0.202416	-0.881909
C188	C	1.273957	0.702416	-0.381909
C189	C	0.766051	0.219837	-0.795834
C190	C	1.266051	0.719837	-0.295834
C191	C	0.738191	0.281247	-0.742136
C192	C	1.238191	0.781247	-0.242136
C193	C	0.786008	0.175853	-0.763453
C194	C	1.286008	0.675853	-0.263453
C195	C	0.778104	0.193279	-0.677379
C196	C	1.278104	0.693279	-0.177379
C197	C	0.730287	0.298673	-0.656061
C198	C	1.230287	0.798673	-0.156061
C199	C	0.702473	0.360040	-0.102983
C200	C	1.202473	0.860040	0.397017
C201	C	0.694131	0.378352	-0.011423
C202	C	1.194131	0.878352	0.488577
H203	H	0.568640	0.393179	-0.393172
H204	H	1.068640	0.893179	0.106828
Cl205	Cl	-0.032763	0.221667	-0.222460
Cl206	Cl	0.467237	0.721667	0.277540
Cl207	Cl	0.803193	0.137988	-0.636674
Cl208	Cl	1.303193	0.637988	-0.136674
H209	H	0.483535	0.393174	-0.393210
H210	H	0.983535	0.893174	0.106790
H211	H	0.760438	0.232215	-0.984371
H212	H	1.260438	0.732215	-0.484371
H213	H	0.796644	0.152418	-0.925637
H214	H	1.296644	0.652418	-0.425637
H215	H	0.808642	0.805864	-0.126714
H216	H	1.308642	1.305864	0.373286
H217	H	0.362504	0.435316	-0.435189
H218	H	0.862504	0.935316	0.064811
H219	H	0.136645	0.435317	-0.435238
H220	H	0.636645	0.935317	0.064762
H221	H	-0.123968	0.240354	-0.241048
H222	H	0.376032	0.740354	0.258952
Cl223	Cl	0.808948	0.948086	-0.126132
Cl224	Cl	1.308948	1.448086	0.373868
Cl225	Cl	0.067502	0.179525	-0.180497
Cl226	Cl	0.567502	0.679525	0.319503
H227	H	0.635556	0.826794	-0.507727
H228	H	1.135556	1.326794	-0.007727
Cl229	Cl	0.173381	0.179520	-0.180475
Cl230	Cl	0.673381	0.679520	0.319525
H231	H	0.808697	0.125858	-0.807181
H232	H	1.308697	0.625858	-0.307181
H233	H	0.649926	0.982923	-0.476194
H234	H	1.149926	1.482923	0.023806
H235	H	0.222927	0.198164	-0.199050
H236	H	0.722927	0.698164	0.300950
H237	H	0.794283	0.649727	-0.158245
H238	H	1.294283	1.149727	0.341755
Cl239	Cl	0.695140	0.587373	-0.376446
Cl240	Cl	1.195140	1.087373	0.123554
Cl241	Cl	0.695256	0.375869	-0.588556
Cl242	Cl	1.195256	0.875869	-0.088556
Cl243	Cl	0.680427	0.611405	-0.409279
Cl244	Cl	1.180427	1.111405	0.090721
Cl245	Cl	-0.094960	0.411871	-0.411900
Cl246	Cl	0.405040	0.911871	0.088100
Cl247	Cl	0.763909	1.021202	-0.225373
Cl248	Cl	1.263909	1.521202	0.274627
Cl249	Cl	0.749115	0.257168	-1.046554
Cl250	Cl	1.249115	0.757168	-0.546554
H251	H	0.277401	0.435316	-0.435212
H252	H	0.777401	0.935316	0.064788
Cl253	Cl	0.635254	0.684568	-0.508317
Cl254	Cl	1.135254	1.184568	-0.008317
H255	H	0.448402	0.240300	-0.240944
H256	H	0.948402	0.740300	0.259056
Cl257	Cl	0.314136	0.179489	-0.180462
Cl258	Cl	0.814136	0.679489	0.319538
Cl259	Cl	0.010940	0.411881	-0.411875
Cl260	Cl	0.510940	0.911881	0.088125
H261	H	0.533524	0.240303	-0.240924
H262	H	1.033524	0.740303	0.259076
H263	H	0.683941	0.400832	-0.650731
H264	H	1.183941	0.900832	-0.150731
Cl265	Cl	0.236436	0.453980	-0.453806
Cl266	Cl	0.736436	0.953980	0.046194
H267	H	0.736712	1.021520	-0.285159
H268	H	1.236712	1.521520	0.214841
Cl269	Cl	0.635385	0.507822	-0.685694
Cl270	Cl	1.135385	1.007822	-0.185694
Cl271	Cl	0.623333	0.534380	-0.804144
Cl272	Cl	1.123333	1.034380	-0.304144
H273	H	0.650022	0.475569	-0.984086
H274	H	1.150022	0.975569	-0.484086
