data_functionalizedCrystal
_audit_creation_method	'MofGen! by Chris Wilmer'
_symmetry_space_group_name_H-M	'P1'
_symmetry_Int_Tables_number	1
_symmetry_cell_setting	triclinic
loop_
_symmetry_equiv_pos_as_xyz
  x,y,z
_cell_length_a	19.077105
_cell_length_b	12.759400
_cell_length_c	19.076929
_cell_angle_alpha	92.271996
_cell_angle_beta	90.078300
_cell_angle_gamma	87.711168
loop_
_atom_site_label
_atom_site_type_symbol
_atom_site_fract_x
_atom_site_fract_y
_atom_site_fract_z
Zn1	Zn	1.058311	-0.508242	-0.440435
Zn2	Zn	1.062974	-0.677178	-0.322935
Zn3	Zn	0.945532	-0.494177	-0.318228
Zn4	Zn	0.940792	-0.676536	-0.435687
O5	O	1.001902	-0.589033	-0.379321
O6	O	1.157262	-0.536807	-0.428805
O7	O	1.051331	-0.647285	-0.223979
O8	O	0.960524	-0.349025	-0.334457
O9	O	1.160688	-0.660923	-0.342478
O10	O	1.043382	-0.359358	-0.424241
O11	O	0.965046	-0.512835	-0.220521
O12	O	0.846571	-0.512212	-0.329853
O13	O	0.952445	-0.659829	-0.534648
O14	O	0.843088	-0.646190	-0.416149
O15	O	1.038786	-0.536184	-0.538136
O16	O	1.046734	-0.824111	-0.337874
O17	O	0.956967	-0.823639	-0.420713
C18	C	0.819333	-0.577606	-0.371975
C19	C	0.741228	-0.572744	-0.368849
C20	C	0.702743	-0.640312	-0.412240
C21	C	0.629355	-0.635730	-0.409306
C22	C	0.594454	-0.563584	-0.362978
C23	C	0.632945	-0.496008	-0.319585
C24	C	0.706331	-0.500586	-0.322523
C25	C	0.375165	-0.542397	-0.349384
C26	C	0.301774	-0.537826	-0.346448
C27	C	0.298189	-0.677547	-0.436171
C28	C	0.371576	-0.682123	-0.439101
C29	C	0.410061	-0.614544	-0.395711
N30	N	0.519440	-0.558901	-0.359976
N31	N	0.485073	-0.619223	-0.398717
C32	C	1.001861	-0.861997	-0.379305
C33	C	1.001907	-0.978778	-0.379324
C34	C	1.048696	-1.033856	-0.336241
C35	C	1.048739	-1.143584	-0.336265
C36	C	0.955196	-1.143145	-0.422455
C37	C	0.955157	-1.033419	-0.422435
C38	C	1.095446	-0.979215	-0.293131
C39	C	1.142239	-1.034294	-0.250044
C40	C	1.142281	-1.144022	-0.250068
C41	C	1.095530	-1.198671	-0.293178
C42	C	1.185184	-0.600506	-0.386696
C43	C	1.263288	-0.605394	-0.389839
C44	C	0.994567	-0.599504	-0.562601
C45	C	0.991441	-0.603965	-0.640704
C46	C	1.001962	-0.315005	-0.379354
C47	C	1.001987	-0.198231	-0.379368
C48	C	0.969026	-0.636051	-1.080147
C49	C	0.971960	-0.631843	-1.006761
C50	C	1.018384	-0.565370	-0.971888
C51	C	1.061871	-0.503093	-1.010404
C52	C	1.058933	-0.507296	-1.083789
C53	C	1.031990	-0.545892	-0.752606
C54	C	1.034926	-0.541696	-0.679216
C55	C	0.945014	-0.670445	-0.675577
C56	C	0.942083	-0.674646	-0.748964
C57	C	0.985567	-0.612366	-0.787474
N58	N	1.021386	-0.561070	-0.896875
N59	N	0.982561	-0.616661	-0.862485
C60	C	1.009249	-0.578530	-0.196756
C61	C	1.012511	-0.573781	-0.118659
H62	H	0.266847	-0.732565	-0.471497
C63	C	0.903686	-0.972827	-0.469824
C64	C	0.931856	-0.902378	-0.526226
C65	C	0.880386	-0.841787	-0.573618
C66	C	0.800745	-0.851646	-0.564609
C67	C	0.772570	-0.922098	-0.508204
C68	C	0.824041	-0.982689	-0.460812
H69	H	0.990815	-0.895078	-0.532897
H70	H	0.901243	-0.789634	-0.615373
H71	H	0.762643	-0.806793	-0.599692
H72	H	0.713612	-0.929399	-0.501533
H73	H	0.803184	-1.034842	-0.419057
C74	C	0.917960	-0.709174	-1.118506
C75	C	0.946367	-0.796456	-1.170165
C76	C	0.895298	-0.869578	-1.208522
C77	C	0.815822	-0.855417	-1.195221
C78	C	0.787410	-0.768131	-1.143559
C79	C	0.838479	-0.695009	-1.105202
H80	H	1.005204	-0.806942	-1.180014
H81	H	0.916331	-0.934193	-1.246765
H82	H	0.778017	-0.909547	-1.223615
H83	H	0.728573	-0.757645	-1.133710
H84	H	0.817446	-0.630394	-1.066959
C85	C	1.085992	-0.468568	-0.640850
C86	C	1.079878	-0.349351	-0.650718
C87	C	1.130941	-0.276230	-0.612351
C88	C	1.188118	-0.322328	-0.564115
C89	C	1.194233	-0.441551	-0.554244
C90	C	1.143170	-0.514671	-0.592612
H91	H	1.037551	-0.315221	-0.686428
H92	H	1.126413	-0.187973	-0.619658
H93	H	1.225917	-0.268200	-0.535713
H94	H	1.236561	-0.475680	-0.518535
H95	H	1.147698	-0.602929	-0.585305
H96	H	0.904280	-0.728777	-0.777352
C97	C	1.079829	-0.477391	-0.794957
C98	C	1.132968	-0.529258	-0.847620
C99	C	1.180812	-0.460754	-0.889973
C100	C	1.175517	-0.340385	-0.879665
C101	C	1.122376	-0.288513	-0.827000
C102	C	1.074532	-0.357016	-0.784646
H103	H	1.136890	-0.618368	-0.855253
H104	H	1.220151	-0.499155	-0.928959
H105	H	1.210934	-0.289675	-0.911017
H106	H	1.118454	-0.199403	-0.819367
H107	H	1.035193	-0.318616	-0.745661
C108	C	0.587024	-0.710061	-0.457036
C109	C	0.597333	-0.829776	-0.451561
C110	C	0.555004	-0.904111	-0.499296
C111	C	0.502365	-0.858731	-0.552505
C112	C	0.492053	-0.739011	-0.557982
C113	C	0.534383	-0.664676	-0.510248
H114	H	0.636301	-0.863374	-0.412171
H115	H	0.562637	-0.992736	-0.495241
H116	H	0.471030	-0.913758	-0.587840
H117	H	0.453085	-0.705413	-0.597372
H118	H	0.526749	-0.576051	-0.514302
C119	C	1.106770	-0.438802	-1.126155
C120	C	1.157837	-0.365685	-1.087799
C121	C	1.205674	-0.297185	-1.130164
C122	C	1.202442	-0.301802	-1.210884
C123	C	1.151372	-0.374922	-1.249244
C124	C	1.103536	-0.443422	-1.206879
H125	H	1.160232	-0.362265	-1.028041
H126	H	1.243479	-0.243057	-1.101767
H127	H	1.237853	-0.251094	-1.242245
H128	H	1.148977	-0.378342	-1.309002
H129	H	1.065730	-0.497550	-1.235277
H130	H	0.731153	-0.699065	-0.449963
H131	H	0.936558	-0.682561	-0.975408
C132	C	0.903769	-1.203256	-0.469868
C133	C	0.849872	-1.273584	-0.437168
C134	C	0.798443	-1.333694	-0.484580
C135	C	0.800910	-1.323477	-0.564692
C136	C	0.854809	-1.253146	-0.597397
C137	C	0.906239	-1.193035	-0.549985
H138	H	0.848044	-1.281151	-0.377860
H139	H	0.758543	-1.385758	-0.460370
H140	H	0.762839	-1.367974	-0.599790
H141	H	0.856638	-1.245579	-0.656705
H142	H	0.946138	-1.140972	-0.574195
C143	C	0.417484	-0.468080	-0.301636
C144	C	0.407170	-0.348362	-0.307083
C145	C	0.449489	-0.274047	-0.259324
C146	C	0.502123	-0.319451	-0.206119
C147	C	0.512439	-0.439175	-0.200671
C148	C	0.470120	-0.513490	-0.248429
H149	H	0.368206	-0.314746	-0.346470
H150	H	0.441852	-0.185419	-0.263358
H151	H	0.533450	-0.264438	-0.170765
H152	H	0.551404	-0.472791	-0.161283
H153	H	0.477757	-0.602118	-0.244395
H154	H	0.399987	-0.740874	-0.476825
H155	H	0.909611	-0.721149	-0.644215
H156	H	0.273360	-0.479064	-0.308726
H157	H	0.604523	-0.437261	-0.281867
H158	H	0.737665	-0.445560	-0.287193
H159	H	1.095415	-0.889869	-0.293105
C160	C	1.193665	-0.974186	-0.202629
C161	C	1.193622	-0.853491	-0.202599
C162	C	1.245051	-0.793386	-0.155184
C163	C	1.296523	-0.853976	-0.107798
C164	C	1.296568	-0.974677	-0.107825
C165	C	1.245139	-1.034782	-0.155241
H166	H	1.155518	-0.808634	-0.237679
H167	H	1.245017	-0.704035	-0.155164
H168	H	1.334594	-0.809482	-0.072698
H169	H	1.334672	-1.019534	-0.072746
H170	H	1.245173	-1.124133	-0.155261
H171	H	1.180387	-1.188865	-0.214990
H172	H	1.099667	-0.448965	-0.982005
H173	H	1.095574	-1.288019	-0.293199
