data_functionalizedCrystal
_audit_creation_method	'MofGen! by Chris Wilmer'
_symmetry_space_group_name_H-M	'P1'
_symmetry_Int_Tables_number	1
_symmetry_cell_setting	triclinic
loop_
_symmetry_equiv_pos_as_xyz
  x,y,z
_cell_length_a	19.805407
_cell_length_b	19.805406
_cell_length_c	19.805399
_cell_angle_alpha	89.983420
_cell_angle_beta	90.021064
_cell_angle_gamma	89.997903
loop_
_atom_site_label
_atom_site_type_symbol
_atom_site_fract_x
_atom_site_fract_y
_atom_site_fract_z
Zn1	Zn	-1.034845	-0.269497	-0.382798
Zn2	Zn	-0.534845	0.230503	0.117202
Zn3	Zn	-1.034806	-0.382685	-0.269632
Zn4	Zn	-0.534806	0.117315	0.230368
Zn5	Zn	-0.921660	-0.269514	-0.269620
Zn6	Zn	-0.421660	0.230486	0.230380
Zn7	Zn	-0.921669	-0.382647	-0.382776
Zn8	Zn	-0.421669	0.117353	0.117224
O9	O	-0.978245	-0.326086	-0.326206
O10	O	-0.478245	0.173914	0.173794
O11	O	-1.129557	-0.284521	-0.367801
O12	O	-0.629557	0.215479	0.132199
O13	O	-1.019777	-0.367696	-0.174914
O14	O	-0.519777	0.132304	0.325086
O15	O	-0.936687	-0.174795	-0.284638
O16	O	-0.436687	0.325205	0.215362
O17	O	-1.129528	-0.367680	-0.284658
O18	O	-0.629528	0.132320	0.215342
O19	O	-1.019843	-0.174783	-0.367790
O20	O	-0.519843	0.325217	0.132210
O21	O	-0.936649	-0.284549	-0.174905
O22	O	-0.436649	0.215451	0.325095
O23	O	-0.826945	-0.284512	-0.284616
O24	O	-0.326945	0.215488	0.215384
O25	O	-0.936703	-0.367615	-0.477495
O26	O	-0.436703	0.132385	0.022505
O27	O	-0.826952	-0.367631	-0.367751
O28	O	-0.326952	0.132369	0.132249
O29	O	-1.019853	-0.284484	-0.477512
O30	O	-0.519853	0.215516	0.022488
O31	O	-1.019786	-0.477397	-0.284636
O32	O	-0.519786	0.022603	0.215364
O33	O	-0.936665	-0.477369	-0.367762
O34	O	-0.436665	0.022631	0.132238
C35	C	-0.802389	-0.326070	-0.326180
C36	C	-0.302389	0.173930	0.173820
C37	C	-0.727157	-0.326079	-0.326185
C38	C	-0.227157	0.173921	0.173815
C39	C	-0.691834	-0.369424	-0.369402
C40	C	-0.191834	0.130576	0.130598
C41	C	-0.621146	-0.369424	-0.369410
C42	C	-0.121146	0.130576	0.130590
C43	C	-0.585782	-0.326082	-0.326196
C44	C	-0.085782	0.173918	0.173804
C45	C	-0.621109	-0.282733	-0.282977
C46	C	-0.121109	0.217267	0.217023
C47	C	-0.691796	-0.282730	-0.282973
C48	C	-0.191796	0.217270	0.217027
C49	C	-0.336036	-0.282743	-0.282992
C50	C	0.163964	0.217257	0.217008
C51	C	-0.265344	-0.282750	-0.282998
C52	C	0.234656	0.217250	0.217002
C53	C	-0.265386	-0.369437	-0.369429
C54	C	0.234614	0.130563	0.130571
C55	C	-0.336073	-0.369434	-0.369425
C56	C	0.163927	0.130566	0.130575
C57	C	-0.371394	-0.326082	-0.326208
C58	C	0.128606	0.173918	0.173792
C59	C	-0.448043	-0.326082	-0.326201
C60	C	0.051957	0.173918	0.173799
C61	C	-0.509134	-0.326085	-0.326199
C62	C	-0.009134	0.173915	0.173801
C63	C	-0.978241	-0.501942	-0.326213
C64	C	-0.478241	-0.001942	0.173787
C65	C	-0.978301	-0.577174	-0.326238
C66	C	-0.478301	-0.077174	0.173762
C67	C	-0.154788	-0.326098	-0.326227
C68	C	0.345212	0.173902	0.173773
C69	C	-0.230020	-0.326092	-0.326219
C70	C	0.269980	0.173908	0.173781
C71	C	-0.978283	-0.326043	-0.502749
C72	C	-0.478283	0.173957	-0.002749
C73	C	-0.978299	-0.326025	-0.577981
C74	C	-0.478299	0.173975	-0.077981
C75	C	-0.978268	-0.149543	-0.326215
C76	C	-0.478268	0.350457	0.173785
C77	C	-0.978278	-0.074311	-0.326219
C78	C	-0.478278	0.425689	0.173781
C79	C	-0.935003	0.387474	-0.282946
C80	C	-0.435003	0.887474	0.217054
C81	C	-0.935001	0.316786	-0.282940
C82	C	-0.435001	0.816786	0.217060
C83	C	-0.978295	0.281450	-0.326231
C84	C	-0.478295	0.781450	0.173769
C85	C	-1.021598	0.316807	-0.369525
C86	C	-0.521598	0.816807	0.130475
C87	C	-1.021602	0.387494	-0.369527
C88	C	-0.521602	0.887494	0.130473
C89	C	-1.021582	0.031734	-0.369518
C90	C	-0.521582	0.531734	0.130482
C91	C	-1.021573	-0.038958	-0.369515
C92	C	-0.521573	0.461042	0.130485
C93	C	-0.934982	-0.038974	-0.282932
C94	C	-0.434982	0.461026	0.217068
C95	C	-0.934986	0.031713	-0.282934
C96	C	-0.434986	0.531713	0.217066
C97	C	-0.978291	0.067063	-0.326225
C98	C	-0.478291	0.567063	0.173775
C99	C	-0.978292	0.143712	-0.326230
C100	C	-0.478292	0.643712	0.173770
C101	C	-0.978290	0.204803	-0.326230
C102	C	-0.478290	0.704803	0.173770
C103	C	-1.021596	-0.282737	-0.613335
C104	C	-0.521596	0.217263	-0.113335
C105	C	-1.021603	-0.282717	-0.684024
C106	C	-0.521603	0.217283	-0.184024
C107	C	-0.978316	-0.325990	-0.719357
C108	C	-0.478316	0.174010	-0.219357
C109	C	-0.935014	-0.369280	-0.683998
C110	C	-0.435014	0.130720	-0.183998
C111	C	-0.935004	-0.369296	-0.613311
C112	C	-0.435004	0.130704	-0.113311
C113	C	-0.935052	-0.369217	-0.969071
C114	C	-0.435052	0.130783	-0.469071
C115	C	-0.935067	-0.369200	-1.039764
C116	C	-0.435067	0.130800	-0.539764
C117	C	-1.021651	-0.282638	-1.039784
C118	C	-0.521651	0.217362	-0.539784
C119	C	-1.021642	-0.282654	-0.969097
C120	C	-0.521642	0.217346	-0.469097
C121	C	-0.978337	-0.325941	-0.933744
C122	C	-0.478337	0.174059	-0.433744
C123	C	-0.978330	-0.325961	-0.857096
C124	C	-0.478330	0.174039	-0.357096
C125	C	-0.978327	-0.325974	-0.796004
C126	C	-0.478327	0.174026	-0.296004
C127	C	-0.978246	-0.326080	-0.150350
C128	C	-0.478246	0.173920	0.349650
C129	C	-0.978361	-0.325907	-0.075119
C130	C	-0.478361	0.174093	0.424881
H131	H	-0.236552	-0.247452	-0.247808
H132	H	0.263448	0.252548	0.252192
H133	H	-0.364786	-0.247448	-0.247797
H134	H	0.135214	0.252552	0.252203
O135	O	-0.893053	-0.411360	-0.934773
O136	O	-0.393053	0.088640	-0.434773
C137	C	-0.907818	-0.478818	-0.952057
C138	C	-0.407818	0.021182	-0.452057
H139	H	-0.961897	-0.482248	-0.971485
H140	H	-0.461897	0.017752	-0.471485
H141	H	-0.901954	-0.512269	-0.905571
H142	H	-0.401954	-0.012269	-0.405571
H143	H	-0.871541	-0.496487	-0.993091
H144	H	-0.371541	0.003513	-0.493091
H145	H	-0.899722	-0.067765	-0.247680
H146	H	-0.399722	0.432235	0.252320
O147	O	-0.892996	0.282341	-0.240918
O148	O	-0.392996	0.782341	0.259082
C149	C	-0.902259	0.212374	-0.250210
C150	C	-0.402259	0.712374	0.249790
H151	H	-0.954504	0.202721	-0.272371
H152	H	-0.454504	0.702721	0.227629
H153	H	-0.897639	0.185494	-0.199513
H154	H	-0.397639	0.685494	0.300487
H155	H	-0.862127	0.192330	-0.286261
H156	H	-0.362127	0.692330	0.213739
H157	H	-1.056841	0.060511	-0.404769
H158	H	-0.556841	0.560511	0.095231
H159	H	-1.056851	0.288031	-0.404770
H160	H	-0.556851	0.788031	0.095230
H161	H	-0.592310	-0.247440	-0.247795
H162	H	-0.092310	0.252560	0.252205
H163	H	-0.899814	-0.404439	-1.068530
H164	H	-0.399814	0.095561	-0.568530
O165	O	-0.586807	-0.411437	-0.411462
O166	O	-0.086807	0.088563	0.088538
C167	C	-0.545926	-0.372969	-0.455239
C168	C	-0.045926	0.127031	0.044761
H169	H	-0.567226	-0.319664	-0.459508
H170	H	-0.067226	0.180336	0.040492
H171	H	-0.545153	-0.397524	-0.507286
H172	H	-0.045153	0.102476	-0.007286
H173	H	-0.492342	-0.370614	-0.434324
H174	H	0.007658	0.129386	0.065676
O175	O	-0.893027	-0.411293	-0.718423
O176	O	-0.393027	0.088707	-0.218423
C177	C	-0.902308	-0.401987	-0.788395
C178	C	-0.402308	0.098013	-0.288395
H179	H	-0.954547	-0.379824	-0.798063
H180	H	-0.454547	0.120176	-0.298063
H181	H	-0.897712	-0.452679	-0.815255
H182	H	-0.397712	0.047321	-0.315255
H183	H	-0.862169	-0.365933	-0.808449
H184	H	-0.362169	0.134067	-0.308449
H185	H	-1.056893	-0.247419	-0.940332
H186	H	-0.556893	0.252581	-0.440332
O187	O	-0.892909	0.065932	-0.240817
O188	O	-0.392909	0.565932	0.259183
C189	C	-0.854681	0.019571	-0.202615
C190	C	-0.354681	0.519571	0.297385
H191	H	-0.882399	-0.030819	-0.200275
H192	H	-0.382399	0.469181	0.299725
H193	H	-0.847453	0.039982	-0.149286
H194	H	-0.347453	0.539982	0.350714
H195	H	-0.803279	0.012063	-0.227391
H196	H	-0.303279	0.512063	0.272609
H197	H	-0.899745	0.416240	-0.247697
H198	H	-0.399745	0.916240	0.252303
O199	O	-0.892933	-0.411419	-0.579070
O200	O	-0.392933	0.088581	-0.079070
C201	C	-0.854720	-0.449602	-0.625412
C202	C	-0.354720	0.050398	-0.125412
H203	H	-0.882447	-0.451930	-0.675809
H204	H	-0.382447	0.048070	-0.175809
H205	H	-0.847501	-0.502937	-0.604986
H206	H	-0.347501	-0.002937	-0.104986
H207	H	-0.803314	-0.424818	-0.632915
H208	H	-0.303314	0.075182	-0.132915
O209	O	-0.726007	-0.240607	-0.240924
O210	O	-0.226007	0.259393	0.259076
C211	C	-0.679637	-0.202343	-0.202793
C212	C	-0.179637	0.297657	0.297207
H213	H	-0.629248	-0.230065	-0.200409
H214	H	-0.129248	0.269935	0.299591
H215	H	-0.700038	-0.195055	-0.149474
H216	H	-0.200038	0.304945	0.350526
H217	H	-0.672131	-0.150969	-0.227659
H218	H	-0.172131	0.349031	0.272341
O219	O	-1.063696	-0.073180	-0.411591
O220	O	-0.563696	0.426820	0.088409
C221	C	-1.101907	-0.026822	-0.449814
C222	C	-0.601907	0.473178	0.050186
H223	H	-1.104253	0.023559	-0.422092
H224	H	-0.604253	0.523559	0.077908
H225	H	-1.155233	-0.047252	-0.457040
H226	H	-0.655233	0.452748	0.042960
H227	H	-1.077135	-0.019287	-0.501217
H228	H	-0.577135	0.480713	-0.001217
O229	O	-1.063679	0.421732	-0.411648
O230	O	-0.563679	0.921732	0.088352
C231	C	-1.101901	0.375389	-0.449848
C232	C	-0.601901	0.875389	0.050152
H233	H	-1.074176	0.325001	-0.452185
H234	H	-0.574176	0.825001	0.047815
H235	H	-1.109133	0.395826	-0.503178
H236	H	-0.609133	0.895826	-0.003178
H237	H	-1.153302	0.367864	-0.425070
H238	H	-0.653302	0.867864	0.074930
H239	H	-0.364863	-0.404729	-0.404611
H240	H	0.135137	0.095271	0.095389
H241	H	-1.056848	-0.247501	-0.584572
H242	H	-0.556848	0.252499	-0.084572
O243	O	-1.063729	-0.240648	-0.718262
O244	O	-0.563729	0.259352	-0.218262
C245	C	-1.101924	-0.202450	-0.671918
C246	C	-0.601924	0.297550	-0.171918
H247	H	-1.104255	-0.230187	-0.621529
H248	H	-0.604255	0.269813	-0.121529
H249	H	-1.155257	-0.195234	-0.692354
H250	H	-0.655257	0.304766	-0.192354
H251	H	-1.077149	-0.151042	-0.664396
H252	H	-0.577149	0.348958	-0.164396
H253	H	-1.056909	-0.247389	-1.068577
H254	H	-0.556909	0.252611	-0.568577
O255	O	-0.230968	-0.411481	-0.411394
O256	O	0.269032	0.088519	0.088606
C257	C	-0.160995	-0.402203	-0.402125
C258	C	0.339005	0.097797	0.097875
H259	H	-0.151328	-0.349939	-0.380045
H260	H	0.348672	0.150061	0.119955
H261	H	-0.134154	-0.406865	-0.452820
H262	H	0.365846	0.093135	0.047180
H263	H	-0.140918	-0.442303	-0.366017
H264	H	0.359082	0.057697	0.133983
H265	H	-0.720623	-0.404720	-0.404590
H266	H	-0.220623	0.095280	0.095410
