data_functionalizedCrystal
_audit_creation_method	'MofGen! by Chris Wilmer'
_symmetry_space_group_name_H-M	'P1'
_symmetry_Int_Tables_number	1
_symmetry_cell_setting	triclinic
loop_
_symmetry_equiv_pos_as_xyz
  x,y,z
_cell_length_a	14.560438
_cell_length_b	19.902436
_cell_length_c	14.560438
_cell_angle_alpha	59.994031
_cell_angle_beta	90.000977
_cell_angle_gamma	60.004023
loop_
_atom_site_label
_atom_site_type_symbol
_atom_site_fract_x
_atom_site_fract_y
_atom_site_fract_z
Zr1	Zr	0.884774	0.735498	-0.120609
O2	O	0.738131	0.875678	-0.267279
O3	O	0.929725	0.595318	-0.075634
O4	O	0.929728	0.735500	-0.267257
O5	O	0.738128	0.735494	0.075485
O6	O	1.080867	0.735502	-0.267255
O7	O	0.738127	0.735495	-0.075656
O8	O	1.080860	0.484741	0.075524
O9	O	0.738134	0.986254	-0.267293
O10	O	1.061692	0.652977	-0.056467
O11	O	0.948899	0.652974	0.056326
O12	O	0.948904	0.818021	-0.169285
O13	O	0.836111	0.818018	-0.056492
Zr14	Zr	1.125822	0.735498	0.120447
Zr15	Zr	1.125822	0.735501	-0.120605
Zr16	Zr	0.884774	0.735495	0.120443
Zr17	Zr	0.884779	0.911855	-0.120633
Zr18	Zr	1.125817	0.559141	0.120470
O19	O	1.080871	0.875678	0.075472
O20	O	1.080871	0.875682	-0.267273
O21	O	0.738132	0.875674	0.075466
O22	O	1.272464	0.595318	0.267116
O23	O	1.272464	0.595322	-0.075629
O24	O	0.929725	0.595313	0.267111
O25	O	1.272468	0.735502	-0.075647
O26	O	1.080867	0.735495	0.267095
O27	O	0.929729	0.735494	0.267092
O28	O	1.272468	0.735500	0.075493
O29	O	0.929736	0.986257	-0.267290
O30	O	1.080860	0.484739	0.267128
O31	O	1.272461	0.484741	0.267131
O32	O	1.272461	0.484744	0.075527
O33	O	0.738135	0.986252	-0.075689
O34	O	0.929736	0.986254	-0.075686
O35	O	1.061692	0.652974	0.169123
O36	O	1.174485	0.652977	0.056330
O37	O	1.061696	0.818021	-0.056489
O38	O	0.948904	0.818018	0.056304
C39	C	0.703783	0.735494	-0.000086
C40	C	0.601452	0.735493	-0.000088
C41	C	1.005291	0.514902	-0.000052
C42	C	1.005289	0.440034	-0.000042
C43	C	0.612248	0.649343	0.058802
C44	C	0.516093	0.649348	0.058812
C45	C	0.398350	0.821659	-0.058966
C46	C	0.494504	0.821654	-0.058969
C47	C	0.719196	0.563182	0.117683
C48	C	0.729997	0.477026	0.176577
C49	C	0.633842	0.477030	0.176587
C50	C	0.526887	0.563191	0.117704
C51	C	1.005300	0.168024	-0.000095
C52	C	0.934493	0.196261	0.071402
C53	C	0.934109	0.274380	0.071107
C54	C	1.005295	0.302971	-0.000068
C55	C	0.953404	0.338536	-0.122643
C56	C	0.952871	0.260698	-0.122266
C57	C	1.128035	0.133510	0.050001
C58	C	1.127855	0.210562	0.052496
C59	C	1.005293	0.379240	-0.000059
C60	C	1.005299	0.091760	-0.000111
C61	C	1.306812	0.735502	-0.000076
C62	C	1.409143	0.735503	-0.000075
C63	C	1.005297	0.735502	-0.301601
C64	C	1.005297	0.735503	-0.403934
C65	C	1.005304	0.956093	-0.000110
C66	C	1.005306	1.030961	-0.000120
C67	C	0.946418	0.821653	-0.510900
C68	C	0.946422	0.821648	-0.607049
C69	C	1.064184	0.649337	-0.489251
C70	C	1.064187	0.649342	-0.393105
C71	C	0.887529	0.907813	-0.521729
C72	C	0.828644	0.993970	-0.628700
C73	C	0.828648	0.993965	-0.724849
C74	C	0.887536	0.907804	-0.714026
C75	C	1.005298	0.735494	0.301438
C76	C	1.005298	0.735493	0.403771
C77	C	1.306806	0.514906	-0.000047
C78	C	1.409135	0.440039	-0.000036
C79	C	1.005292	0.514899	0.301468
C80	C	1.005290	0.440029	0.403810
C81	C	1.306806	0.514902	0.301472
C82	C	1.409135	0.440034	0.403817
C83	C	0.703789	0.956093	-0.301635
C84	C	0.601460	1.030961	-0.403979
C85	C	0.703790	0.956089	-0.000115
C86	C	0.601461	1.030956	-0.000127
C87	C	1.005304	0.956097	-0.301630
C88	C	1.005306	1.030966	-0.403973
C89	C	1.398313	0.404881	-0.058919
C90	C	1.494453	0.334546	-0.058931
C91	C	1.601413	0.299365	-0.000052
C92	C	1.612233	0.334530	0.058833
C93	C	1.516094	0.404869	0.058838
C94	C	1.064165	0.404870	0.510760
C95	C	1.064159	0.334532	0.606932
C96	C	1.005283	0.299350	0.596150
C97	C	0.946400	0.334517	0.489189
C98	C	0.946400	0.404858	0.393020
C99	C	1.516077	0.404877	0.393002
C100	C	1.612235	0.334540	0.489157
C101	C	1.601449	0.299358	0.596124
C102	C	1.494497	0.334522	0.606937
C103	C	1.398341	0.404862	0.510784
C104	C	0.494519	1.066127	-0.393165
C105	C	0.398360	1.136486	-0.489319
C106	C	0.409146	1.171672	-0.596287
C107	C	0.516099	1.136503	-0.607099
C108	C	0.612255	1.066151	-0.510946
C109	C	0.612283	1.066122	0.058746
C110	C	0.516143	1.136477	0.058732
C111	C	0.409182	1.171660	-0.000151
C112	C	0.398362	1.136492	-0.059031
C113	C	0.494501	1.066143	-0.059022
C114	C	1.064193	1.066126	-0.393155
C115	C	1.064217	1.136464	-0.489308
C116	C	1.005346	1.171647	-0.596277
C117	C	0.946457	1.136480	-0.607092
C118	C	0.946440	1.066138	-0.510941
H119	H	0.797497	0.563169	0.117680
H120	H	0.311262	1.165149	-0.106972
C121	C	0.847635	0.382254	0.241354
H122	H	0.840291	0.330947	0.276440
H123	H	0.887589	0.378668	0.190536
H124	H	0.887594	0.378673	0.297074
C125	C	0.832562	0.429047	-0.177201
H126	H	0.801878	0.450023	-0.251365
H127	H	0.787690	0.415572	-0.133902
H128	H	0.833571	0.477393	-0.180010
C129	C	0.763881	1.088731	-0.842510
H130	H	0.728804	1.140042	-0.835184
H131	H	0.814694	1.092319	-0.882474
H132	H	0.708162	1.092304	-0.882458
C133	C	1.186579	0.041621	0.170090
H134	H	1.136710	0.023446	0.190800
H135	H	1.252233	-0.007560	0.172564
H136	H	1.206885	0.052301	0.221000
H137	H	1.112133	1.037491	-0.306065
H138	H	0.485715	1.037482	-0.306075
C139	C	1.128983	1.175146	-0.477392
H140	H	1.164020	1.144127	-0.399912
H141	H	1.184713	1.163615	-0.512432
H142	H	1.078157	1.241563	-0.512464
C143	C	1.528006	0.443538	0.123613
H144	H	1.455437	0.490475	0.115183
H145	H	1.567966	0.393030	0.201077
H146	H	1.567958	0.470984	0.094519
H147	H	1.005369	1.228924	-0.674561
H148	H	0.699367	1.037481	0.106703
C149	C	0.482640	0.916413	-0.123823
H150	H	0.555223	0.904068	-0.115404
H151	H	0.442694	0.951768	-0.201279
H152	H	0.442695	0.951860	-0.094799
H153	H	0.968916	0.247733	0.161367
C154	C	0.482583	1.027456	-0.123771
H155	H	0.405110	1.058483	-0.158825
H156	H	0.517638	1.038976	-0.179495
H157	H	0.517629	0.961041	-0.072927
H158	H	0.898465	0.305861	0.480427
H159	H	0.843578	0.338838	0.036374
H160	H	0.699329	1.037519	-0.519765
H161	H	1.699312	0.305917	0.480333
H162	H	1.679755	0.242082	0.674409
H163	H	0.898526	1.165136	-0.694199
H164	H	1.112129	0.579191	-0.306007
C165	C	1.527963	0.443569	0.275350
H166	H	1.605432	0.412556	0.282697
H167	H	1.492911	0.432037	0.235390
H168	H	1.492901	0.509987	0.235388
C169	C	1.280669	0.443573	-0.123698
H170	H	1.288009	0.412560	-0.158774
H171	H	1.240706	0.432041	-0.072884
H172	H	1.240721	0.509991	-0.179425
C173	C	1.707156	0.221985	-0.000054
H174	H	1.685382	0.206082	-0.043548
H175	H	1.750664	0.245031	-0.031578
H176	H	1.750647	0.167090	0.074972
C177	C	0.887540	0.907800	-0.819789
H178	H	0.844035	0.971449	-0.885047
H179	H	0.962551	0.875980	-0.819790
H180	H	0.856007	0.875981	-0.819784
C181	C	0.280708	0.916427	-0.123742
H182	H	0.224989	0.904091	-0.115315
H183	H	0.272277	0.951828	-0.094675
H184	H	0.272275	0.951822	-0.201214
C185	C	1.128942	0.554569	-0.477351
H186	H	1.120498	0.566905	-0.549933
H187	H	1.206403	0.519167	-0.437398
H188	H	1.099856	0.519174	-0.437392
H189	H	1.699333	0.305876	0.106770
H190	H	1.002500	0.359430	-0.178219
C191	C	1.482647	0.295806	0.724604
H192	H	1.555236	0.248871	0.780312
H193	H	1.442700	0.346291	0.733056
H194	H	1.442710	0.268346	0.733046
C195	C	1.482531	0.295867	-0.123693
H196	H	1.405059	0.326884	-0.158737
H197	H	1.517574	0.307401	-0.179425
H198	H	1.517591	0.229448	-0.072856
C199	C	1.280711	0.443517	0.522694
H200	H	1.288070	0.412477	0.600173
H201	H	1.240735	0.509931	0.487629
H202	H	1.240765	0.431969	0.487646
H203	H	0.311284	1.165108	-0.480493
C204	C	0.881641	1.027482	-0.522848
H205	H	0.890056	0.980548	-0.450269
H206	H	0.804189	1.077999	-0.562815
H207	H	0.910714	1.000037	-0.562797
C208	C	1.128944	0.295854	0.724574
H209	H	1.164022	0.326872	0.717213
H210	H	1.078137	0.307387	0.764538
H211	H	1.184663	0.229435	0.764541
H212	H	0.524974	1.165099	0.106683
H213	H	0.330841	1.228957	-0.674572
C214	C	1.005299	0.221970	0.701942
H215	H	1.048808	0.206068	0.767179
H216	H	0.930292	0.245017	0.701959
H217	H	1.036835	0.167075	0.701967
C218	C	0.527955	1.175202	-0.724764
H219	H	0.605416	1.144190	-0.717446
H220	H	0.492877	1.163673	-0.764706
H221	H	0.492895	1.241620	-0.764728
C222	C	0.981249	0.109119	0.193640
H223	H	1.044368	0.054732	0.202171
H224	H	1.003542	0.120100	0.243194
H225	H	0.924681	0.098751	0.210962
C226	C	0.830865	0.300596	-0.176428
H227	H	0.782093	0.364127	-0.198449
H228	H	0.825313	0.299538	-0.240635
H229	H	0.809913	0.262745	-0.123598
H230	H	0.330909	1.228943	-0.000149
H231	H	1.001113	0.244751	-0.178431
C232	C	1.180222	0.171713	0.174495
H233	H	1.127626	0.211642	0.193324
H234	H	1.199216	0.109218	0.223969
H235	H	1.246120	0.170331	0.181450
H236	H	0.642641	0.406878	0.224550
H237	H	1.185057	0.226170	0.005837
H238	H	0.448595	0.563188	0.117723
H239	H	1.112110	0.433507	0.519560
H240	H	1.181039	0.114655	-0.001826
H241	H	0.844495	0.222220	0.036962
H242	H	0.887517	0.907827	-0.443446
H243	H	0.898460	0.433475	0.305940
H244	H	0.780707	1.064119	-0.637503
