data_functionalizedCrystal
_audit_creation_method	'MofGen! by Chris Wilmer'
_symmetry_space_group_name_H-M	'P1'
_symmetry_Int_Tables_number	1
_symmetry_cell_setting	triclinic
loop_
_symmetry_equiv_pos_as_xyz
  x,y,z
_cell_length_a	18.101398
_cell_length_b	25.639239
_cell_length_c	18.101389
_cell_angle_alpha	90.026369
_cell_angle_beta	90.008593
_cell_angle_gamma	90.034689
loop_
_atom_site_label
_atom_site_type_symbol
_atom_site_fract_x
_atom_site_fract_y
_atom_site_fract_z
Zn1	Zn	-1.132076	0.208278	-0.418487
Zn2	Zn	-1.131953	0.295700	-0.294628
Zn3	Zn	-1.008235	0.208272	-0.294682
Zn4	Zn	-1.008166	0.295676	-0.418451
O5	O	-1.070107	0.251982	-0.356562
O6	O	-1.235692	0.219887	-0.402049
O7	O	-1.115518	0.284109	-0.191002
O8	O	-1.024742	0.135108	-0.311143
O9	O	-1.235602	0.284115	-0.311051
O10	O	-1.115728	0.135112	-0.402102
O11	O	-1.024623	0.219877	-0.191042
O12	O	-0.904593	0.219854	-0.311108
O13	O	-1.024626	0.284076	-0.522088
O14	O	-0.904543	0.284070	-0.402040
O15	O	-1.115662	0.219865	-0.522115
O16	O	-1.115452	0.368862	-0.311016
O17	O	-1.024507	0.368845	-0.401988
C18	C	-0.877697	0.251959	-0.356576
C19	C	-0.795383	0.251962	-0.356600
C20	C	-0.496292	0.251990	-0.356575
C21	C	-0.527610	0.292589	-0.413504
C22	C	-0.613228	0.292462	-0.413736
C23	C	-0.644674	0.251977	-0.356587
C24	C	-0.613632	0.196909	-0.377926
C25	C	-0.527987	0.197152	-0.378333
C26	C	-0.527836	0.265974	-0.278169
C27	C	-0.613486	0.267183	-0.278586
C28	C	-0.728534	0.251966	-0.356593
C29	C	-0.412432	0.251998	-0.356571
C30	C	-1.069979	0.387824	-0.356508
C31	C	-1.069991	0.445938	-0.356510
C32	C	-1.070150	0.251968	-0.549724
C33	C	-1.070168	0.251963	-0.632038
C34	C	-0.263269	0.252002	-0.356553
C35	C	-0.345583	0.252005	-0.356562
C36	C	-1.117409	0.806265	-0.404027
C37	C	-1.117422	0.860869	-0.404044
O38	O	-1.157662	0.889075	-0.444376
N39	N	-1.070098	0.888221	-0.356653
C40	C	-1.022754	0.860965	-0.309248
O41	O	-0.982502	0.889243	-0.268941
C42	C	-1.022738	0.806361	-0.309236
C43	C	-1.070070	0.779013	-0.356624
C44	C	-1.164737	0.778917	-0.451412
C45	C	-1.164725	0.724316	-0.451394
C46	C	-1.117386	0.697064	-0.403991
C47	C	-1.070059	0.724412	-0.356606
C48	C	-0.975391	0.779106	-0.261835
C49	C	-0.975379	0.724499	-0.261827
C50	C	-1.022711	0.697151	-0.309216
C51	C	-1.022709	0.642560	-0.309186
N52	N	-1.070032	0.615209	-0.356576
C53	C	-1.117371	0.642461	-0.403979
C54	C	-1.022789	0.975635	-0.309279
C55	C	-1.022807	1.030238	-0.309287
C56	C	-1.117474	1.030139	-0.404084
C57	C	-1.117459	0.975535	-0.404071
C58	C	-1.070112	0.948284	-0.356670
C59	C	-1.117344	0.527796	-0.403937
C60	C	-1.117330	0.473190	-0.403913
C61	C	-1.022661	0.473294	-0.309119
C62	C	-1.022677	0.527895	-0.309141
C63	C	-1.070021	0.555144	-0.356555
O64	O	-0.982486	0.614319	-0.268876
O65	O	-1.157609	0.614176	-0.444286
C66	C	-1.070212	1.115609	-0.356640
C67	C	-1.070144	1.057494	-0.356693
C68	C	-1.070212	0.251865	-0.931129
C69	C	-1.012737	0.292136	-0.899787
C70	C	-1.012892	0.292323	-0.814169
C71	C	-1.070189	0.251913	-0.782747
C72	C	-1.148212	0.266874	-0.813828
C73	C	-1.147891	0.267139	-0.899473
C74	C	-1.050342	0.196543	-0.899570
C75	C	-1.048606	0.196862	-0.813919
C76	C	-1.070182	0.251940	-0.698887
C77	C	-1.070224	0.251839	-1.014989
C78	C	-1.070107	0.251957	-0.164151
C79	C	-1.070233	0.251815	-0.081838
H80	H	-0.634892	0.239760	-0.233889
H81	H	-0.634003	0.165841	-0.337755
Cl82	Cl	-0.963312	1.064612	-0.249701
Cl83	Cl	-1.032743	0.355054	-0.933056
H84	H	-0.984120	0.451097	-0.270522
Cl85	Cl	-0.494388	0.278498	-0.502676
H86	H	-1.203286	0.801100	-0.490017
Cl87	Cl	-0.646771	0.178263	-0.465460
H88	H	-0.955036	0.282960	-0.793154
Cl89	Cl	-1.033186	0.355627	-0.782522
H90	H	-0.507584	0.236403	-0.235751
Cl91	Cl	-0.644891	0.278178	-0.503427
Cl92	Cl	-1.176839	0.438813	-0.463490
Cl93	Cl	-0.494442	0.326904	-0.248226
H94	H	-0.633781	0.307705	-0.262492
Cl95	Cl	-0.495762	0.355843	-0.393093
H96	H	-0.507272	0.165820	-0.338770
Cl97	Cl	-0.923137	0.277828	-0.931590
Cl98	Cl	-1.173897	0.329577	-0.930310
H99	H	-1.156000	0.953271	-0.442659
Cl100	Cl	-0.915881	0.813474	-0.202261
Cl101	Cl	-1.216206	0.223790	-0.931488
H102	H	-1.155891	0.549976	-0.442552
H103	H	-0.994438	0.182913	-0.921174
Cl104	Cl	-1.224226	0.689943	-0.510977
Cl105	Cl	-0.915854	0.690244	-0.202232
Cl106	Cl	-0.963267	0.941382	-0.249677
H107	H	-1.156019	1.052337	-0.442683
H108	H	-1.192184	0.238464	-0.793476
Cl109	Cl	-1.174673	0.328649	-0.780707
H110	H	-0.984141	0.550163	-0.270547
H111	H	-0.991189	0.185580	-0.793605
Cl112	Cl	-1.108531	0.148077	-0.780910
H113	H	-1.092204	0.166538	-0.919840
H114	H	-0.634215	0.333298	-0.400361
H115	H	-0.508028	0.185290	-0.435652
