data_functionalizedCrystal
_audit_creation_method	'MofGen! by Chris Wilmer'
_symmetry_space_group_name_H-M	'P1'
_symmetry_Int_Tables_number	1
_symmetry_cell_setting	triclinic
loop_
_symmetry_equiv_pos_as_xyz
  x,y,z
_cell_length_a	14.853566
_cell_length_b	10.489716
_cell_length_c	13.330367
_cell_angle_alpha	89.999430
_cell_angle_beta	89.995295
_cell_angle_gamma	84.081775
loop_
_atom_site_label
_atom_site_type_symbol
_atom_site_fract_x
_atom_site_fract_y
_atom_site_fract_z
O1	O	1.197293	0.166522	-0.083348
O2	O	0.934943	0.186362	-0.083363
O3	O	1.072099	-0.009225	-0.083359
O4	O	1.060137	0.362109	-0.083352
O5	O	1.072079	-0.009230	0.083488
O6	O	0.934923	0.186357	0.083484
O7	O	1.197273	0.166518	0.083499
Cu8	Cu	1.066096	0.176437	0.098726
Cu9	Cu	1.066120	0.176442	-0.098590
O10	O	1.060117	0.362105	0.083495
C11	C	0.901339	0.185461	0.000058
C12	C	0.801241	0.182768	0.000052
C13	C	0.378004	0.171380	-0.090879
C14	C	0.378003	0.171376	0.091024
C15	C	0.472051	0.173905	0.091021
C16	C	0.519080	0.175173	0.000066
C17	C	0.472060	0.173913	-0.090885
C18	C	0.519077	0.175178	0.181971
C19	C	0.613131	0.177709	0.181971
C20	C	0.660161	0.178968	0.091016
C21	C	0.613136	0.177706	0.000061
C22	C	0.660165	0.178975	-0.090894
C23	C	0.613142	0.177703	-0.181850
C24	C	0.519091	0.175172	-0.181841
C25	C	0.754212	0.181499	0.091006
C26	C	0.754221	0.181507	-0.090900
C27	C	1.071190	-0.056749	0.000061
C28	C	1.068501	-0.198350	0.000052
C29	C	1.152610	-0.296969	0.000066
C30	C	1.108175	-0.373828	-0.082198
C31	C	1.108136	-0.373796	0.082300
C32	C	1.024102	-0.273344	-0.082280
C33	C	1.024075	-0.273307	0.082292
C34	C	0.979578	-0.350117	0.000008
C35	C	1.230877	0.167419	0.000075
C36	C	1.330975	0.170112	0.000075
C37	C	1.061026	0.409629	0.000072
C38	C	1.063715	0.551230	0.000075
N39	N	1.066086	0.176433	0.237507
N40	N	1.066137	0.176437	-0.237372
C41	C	1.005384	0.263014	0.710128
C42	C	1.126880	0.089861	0.710100
C43	C	1.126869	0.089857	0.605082
C44	C	1.066117	0.176434	0.552582
C45	C	1.005374	0.263015	0.605100
C46	C	1.187617	0.003286	0.552556
C47	C	1.187610	0.003279	0.447531
C48	C	1.126852	0.089851	0.395029
C49	C	1.066106	0.176435	0.447554
C50	C	1.005354	0.263013	0.395054
C51	C	0.944603	0.349591	0.447577
C52	C	0.944616	0.349588	0.552598
C53	C	1.126839	0.089855	0.290007
C54	C	1.005343	0.263014	0.290026
H55	H	0.339714	0.170340	-0.164934
C56	C	1.253451	-0.091068	0.390688
C57	C	1.237906	-0.216356	0.416376
C58	C	1.298529	-0.303368	0.364077
H59	H	1.313746	-0.077277	0.407878
H60	H	1.244810	-0.078907	0.320588
H61	H	1.246554	-0.228512	0.486461
H62	H	1.177623	-0.230188	0.399183
H63	H	1.289889	-0.291207	0.293977
H64	H	1.358821	-0.289565	0.381271
H65	H	1.287985	-0.388385	0.381492
H66	H	0.792506	0.182536	-0.164967
H67	H	1.237085	-0.067197	0.595305
H68	H	0.988624	-0.229640	-0.151905
H69	H	1.176305	0.019370	0.247248
C70	C	0.881915	-0.381426	0.000104
C71	C	0.837788	-0.328284	0.085486
C72	C	0.747820	-0.357089	0.085597
H73	H	0.880593	-0.471765	0.000713
H74	H	0.852136	-0.346650	-0.058347
H75	H	0.867560	-0.363065	0.143921
H76	H	0.839085	-0.237946	0.084895
H77	H	0.718040	-0.322312	0.027146
H78	H	0.746506	-0.447428	0.086203
H79	H	0.717866	-0.321027	0.143522
H80	H	1.143650	-0.417669	0.151846
H81	H	0.651444	0.178745	-0.255905
H82	H	0.480797	0.174136	-0.255892
C83	C	0.327104	0.170068	0.189875
C84	C	0.388412	0.171742	0.269524
C85	C	0.341552	0.170551	0.360604
H86	H	0.296804	0.094779	0.193796
H87	H	0.284036	0.243434	0.193715
H88	H	0.431464	0.098382	0.265686
H89	H	0.418714	0.247025	0.265636
H90	H	0.298484	0.243918	0.364444
H91	H	0.311254	0.095261	0.364514
H92	H	0.383141	0.171699	0.414656
C93	C	0.939342	0.357159	0.233211
C94	C	0.886162	0.432994	0.301689
C95	C	0.825361	0.519745	0.249388
H96	H	0.901435	0.311328	0.192242
H97	H	0.972085	0.410416	0.192260
H98	H	0.853421	0.379744	0.342622
H99	H	0.924044	0.478853	0.342659
H100	H	0.858104	0.573002	0.208437
H101	H	0.787460	0.473903	0.208421
H102	H	0.789276	0.571217	0.295842
C103	C	0.976758	-0.214490	0.174935
C104	C	0.979219	-0.081437	0.173180
C105	C	0.935636	-0.027209	0.258508
H106	H	1.006672	-0.248904	0.233409
H107	H	0.915599	-0.233530	0.175523
H108	H	1.040366	-0.062407	0.172602
H109	H	0.949299	-0.046988	0.114726
H110	H	0.874477	-0.046250	0.259096
H111	H	0.965554	-0.061633	0.316975
H112	H	0.937292	0.063073	0.257324
H113	H	0.895141	0.420089	0.404819
C114	C	0.878771	0.443533	0.609805
C115	C	0.891805	0.425027	0.713014
C116	C	0.831177	0.511560	0.765748
H117	H	0.818472	0.429615	0.592734
H118	H	0.889114	0.528714	0.592645
H119	H	0.881455	0.339866	0.730167
H120	H	0.952092	0.438956	0.730115
H121	H	0.841521	0.596740	0.748588
H122	H	0.770882	0.497634	0.748669
H123	H	0.840018	0.499023	0.835780
C124	C	1.250199	-0.265332	0.000095
C125	C	1.294458	-0.318397	0.085419
C126	C	1.384357	-0.289292	0.085456
H127	H	1.251375	-0.174969	0.000732
H128	H	1.279990	-0.299982	-0.058394
H129	H	1.264674	-0.283742	0.143893
H130	H	1.293307	-0.408760	0.084800
H131	H	1.414149	-0.323942	0.026966
H132	H	1.385524	-0.198927	0.086090
H133	H	1.414400	-0.325301	0.143342
C134	C	0.664024	0.179008	0.280824
C135	C	0.602709	0.177324	0.360477
C136	C	0.649562	0.178498	0.451554
H137	H	0.694325	0.254294	0.284749
H138	H	0.707090	0.105638	0.284655
H139	H	0.559659	0.250687	0.356648
H140	H	0.572405	0.102044	0.356585
H141	H	0.692628	0.105129	0.455385
H142	H	0.679861	0.253785	0.455469
H143	H	0.607968	0.177344	0.505609
H144	H	0.792493	0.182547	0.165061
C145	C	1.155696	-0.432326	-0.174842
C146	C	1.246198	-0.405955	-0.174450
C147	C	1.290011	-0.459833	-0.259766
H148	H	1.126541	-0.396642	-0.233336
H149	H	1.153192	-0.522461	-0.174475
H150	H	1.248697	-0.315837	-0.174827
H151	H	1.275378	-0.441640	-0.115975
H152	H	1.287507	-0.549968	-0.259399
H153	H	1.260849	-0.424144	-0.318254
H154	H	1.351423	-0.441958	-0.259507
C155	C	1.192928	-0.004204	0.766915
C156	C	1.246129	-0.080014	0.698441
C157	C	1.306987	-0.166681	0.750746
H158	H	1.160256	-0.057497	0.807892
H159	H	1.230808	0.041732	0.807858
H160	H	1.208254	-0.125947	0.657515
H161	H	1.278821	-0.026757	0.657462
H162	H	1.344868	-0.120745	0.791689
H163	H	1.274308	-0.219964	0.791721
H164	H	1.343098	-0.218120	0.704294
H165	H	0.480779	0.174154	0.256021
H166	H	0.955919	0.333502	0.752895
