data_functionalizedCrystal
_audit_creation_method	'MofGen! by Chris Wilmer'
_symmetry_space_group_name_H-M	'P1'
_symmetry_Int_Tables_number	1
_symmetry_cell_setting	triclinic
loop_
_symmetry_equiv_pos_as_xyz
  x,y,z
_cell_length_a	27.731994
_cell_length_b	27.732048
_cell_length_c	26.809956
_cell_angle_alpha	90.009578
_cell_angle_beta	90.009960
_cell_angle_gamma	82.631595
loop_
_atom_site_label
_atom_site_type_symbol
_atom_site_fract_x
_atom_site_fract_y
_atom_site_fract_z
O1	O	0.640953	0.057391	0.041414
O2	O	0.500155	0.066164	0.041431
O3	O	0.574927	-0.008620	0.041412
O4	O	0.566181	0.132175	0.041432
O5	O	0.574904	-0.008620	-0.041547
O6	O	0.500132	0.066164	-0.041528
O7	O	0.640930	0.057391	-0.041545
Zn8	Zn	0.570527	0.061778	-0.054708
Zn9	Zn	0.570558	0.061778	0.054594
O10	O	0.566158	0.132175	-0.041527
C11	C	0.482137	0.065984	-0.000046
C12	C	0.428480	0.065442	-0.000040
C13	C	0.095749	0.062026	-0.045281
C14	C	-0.105909	0.059964	-0.045287
O15	O	-0.131992	0.059677	-0.083746
N16	N	-0.131111	0.059708	-0.000066
C17	C	-0.105896	0.059964	0.045160
O18	O	-0.131958	0.059694	0.083623
C19	C	0.095762	0.062023	0.045165
C20	C	0.120961	0.062283	-0.000059
C21	C	0.120949	0.062286	-0.090501
C22	C	0.171360	0.062804	-0.090499
C23	C	0.196572	0.063062	-0.045277
C24	C	0.171372	0.062801	-0.000057
C25	C	0.120977	0.062275	0.090390
C26	C	0.171395	0.062789	0.090388
C27	C	0.196594	0.063050	0.045164
C28	C	0.246996	0.063577	0.045167
N29	N	0.272198	0.063833	-0.000054
C30	C	0.246986	0.063576	-0.045276
C31	C	-0.211769	0.058885	0.045154
C32	C	-0.262183	0.058371	0.045152
C33	C	-0.262193	0.058370	-0.045294
C34	C	-0.211778	0.058887	-0.045293
C35	C	-0.186566	0.059141	-0.000067
C36	C	0.352853	0.064664	-0.045268
C37	C	0.403268	0.065184	-0.045262
C38	C	0.403274	0.065182	0.045184
C39	C	0.352863	0.064665	0.045179
C40	C	0.327654	0.064404	-0.000052
O41	O	0.273111	0.063859	0.083606
O42	O	0.273059	0.063835	-0.083733
C43	C	0.045338	0.061508	-0.045283
C44	C	0.020139	0.061247	-0.000063
C45	C	0.045351	0.061505	0.045160
C46	C	-0.030275	0.060734	-0.000064
C47	C	-0.055487	0.060476	-0.045286
C48	C	-0.030285	0.060732	-0.090507
C49	C	0.020126	0.061250	-0.090505
C50	C	0.020149	0.061249	0.090381
C51	C	-0.030263	0.060732	0.090375
C52	C	-0.055475	0.060474	0.045153
C53	C	0.574732	-0.026627	-0.000069
C54	C	0.574179	-0.080282	-0.000073
C55	C	0.614884	-0.419105	-0.000052
C56	C	0.612833	-0.620764	-0.000045
O57	O	0.650055	-0.652027	-0.000028
N58	N	0.568496	-0.639879	-0.000040
C59	C	0.524670	-0.608576	-0.000033
O60	O	0.486912	-0.629462	-0.000024
C61	C	0.526721	-0.406918	-0.000037
C62	C	0.571061	-0.387805	-0.000047
C63	C	0.659220	-0.399992	-0.000061
C64	C	0.659732	-0.349580	-0.000066
C65	C	0.615908	-0.318281	-0.000061
C66	C	0.571573	-0.337394	-0.000052
C67	C	0.482895	-0.375615	-0.000027
C68	C	0.483412	-0.325198	-0.000027
C69	C	0.527751	-0.306086	-0.000037
C70	C	0.528262	-0.255683	-0.000051
N71	N	0.572598	-0.236567	-0.000056
C72	C	0.616421	-0.267867	-0.000061
C73	C	0.523596	-0.714450	-0.000032
C74	C	0.523083	-0.764864	-0.000032
C75	C	0.611246	-0.777049	-0.000043
C76	C	0.611759	-0.726633	-0.000047
C77	C	0.567932	-0.695335	-0.000037
C78	C	0.617494	-0.161998	-0.000071
C79	C	0.618002	-0.111581	-0.000078
C80	C	0.529839	-0.099401	-0.000064
C81	C	0.529331	-0.149813	-0.000060
C82	C	0.573162	-0.181111	-0.000062
O83	O	0.491060	-0.224391	-0.000063
O84	O	0.654174	-0.246971	-0.000060
C85	C	0.614372	-0.469517	-0.000047
C86	C	0.570036	-0.488629	-0.000038
C87	C	0.526213	-0.457330	-0.000033
C88	C	0.569523	-0.539043	-0.000038
C89	C	0.613346	-0.570343	-0.000043
C90	C	0.657683	-0.551228	-0.000048
C91	C	0.658195	-0.500816	-0.000052
C92	C	0.481876	-0.476445	-0.000028
C93	C	0.481367	-0.526857	-0.000024
C94	C	0.525191	-0.558157	-0.000029
C95	C	0.658949	0.057571	-0.000067
C96	C	0.712605	0.058114	-0.000070
C97	C	0.566353	0.150182	-0.000045
C98	C	0.566906	0.203837	-0.000037
N99	N	0.570510	0.061777	-0.129304
C100	C	0.599649	0.090883	-0.473930
C101	C	0.599665	0.090882	-0.682808
O102	O	0.624426	0.115623	-0.709811
N103	N	0.570569	0.061773	-0.708931
C104	C	0.541470	0.032659	-0.682833
O105	O	0.516727	0.007895	-0.709845
C106	C	0.541458	0.032657	-0.473956
C107	C	0.570551	0.061772	-0.447835
C108	C	0.628741	0.119995	-0.447809
C109	C	0.628734	0.119997	-0.395592
C110	C	0.599637	0.090886	-0.369497
C111	C	0.570545	0.061774	-0.395618
C112	C	0.512362	0.003540	-0.447858
C113	C	0.512362	0.003542	-0.395636
C114	C	0.541455	0.032657	-0.369514
C115	C	0.541441	0.032665	-0.317307
N116	N	0.570536	0.061775	-0.291183
C117	C	0.599634	0.090885	-0.317278
C118	C	0.541478	0.032662	-0.792496
C119	C	0.541481	0.032663	-0.844715
C120	C	0.599676	0.090886	-0.844686
C121	C	0.599670	0.090888	-0.792466
C122	C	0.570574	0.061772	-0.766372
C123	C	0.599619	0.090887	-0.207620
C124	C	0.599608	0.090888	-0.155399
C125	C	0.541415	0.032663	-0.155433
C126	C	0.541423	0.032664	-0.207649
C127	C	0.570529	0.061777	-0.233742
O128	O	0.516696	0.007933	-0.290272
O129	O	0.624382	0.115637	-0.290257
C130	C	0.599655	0.090881	-0.526146
C131	C	0.570564	0.061768	-0.552267
C132	C	0.541466	0.032658	-0.526172
C133	C	0.570566	0.061769	-0.604486
C134	C	0.599664	0.090880	-0.630581
C135	C	0.628759	0.119990	-0.604458
C136	C	0.628753	0.119991	-0.552241
C137	C	0.512370	0.003548	-0.552296
C138	C	0.512378	0.003549	-0.604512
C139	C	0.541476	0.032660	-0.630608
N140	N	0.570578	0.061774	0.129190
H141	H	0.100426	0.062075	-0.127329
H142	H	0.447722	-0.299716	-0.000018
H143	H	0.488671	-0.020169	-0.469117
H144	H	0.191920	0.062995	0.127217
O145	O	-0.187373	0.059114	-0.089267
C146	C	-0.220445	0.058790	-0.129178
H147	H	-0.254263	0.043117	-0.115919
H148	H	-0.231171	0.097531	-0.143078
C149	C	-0.154861	0.046527	-0.188195
C150	C	-0.196395	0.027273	-0.171911
H151	H	-0.140026	0.027088	-0.214556
H152	H	-0.132580	0.046747	-0.161307
H153	H	-0.163806	0.078810	-0.199774
H154	H	-0.187449	-0.005007	-0.160326
H155	H	-0.218675	0.027047	-0.198798
O156	O	0.513271	0.004313	-0.870064
C157	C	0.527026	-0.044847	-0.857298
H158	H	0.566042	-0.049795	-0.842937
H159	H	0.501770	-0.055886	-0.826993
C160	C	0.475543	-0.070871	-0.921329
C161	C	0.523465	-0.076949	-0.903694
H162	H	0.473345	-0.090674	-0.949947
H163	H	0.466275	-0.037751	-0.929928
H164	H	0.454502	-0.080070	-0.896070
H165	H	0.544504	-0.067744	-0.928950
H166	H	0.532737	-0.110068	-0.895100
H167	H	0.652449	0.143695	-0.625713
O168	O	0.661063	-0.092993	-0.000173
C169	C	0.663985	-0.064195	-0.043134
H170	H	0.638807	-0.075934	-0.073161
H171	H	0.652535	-0.024347	-0.033422
C172	C	0.747575	-0.056290	-0.025741
C173	C	0.716655	-0.070711	-0.062623
H174	H	0.780065	-0.060307	-0.037762
H175	H	0.745607	-0.075690	0.003204
H176	H	0.738028	-0.023085	-0.017651
H177	H	0.726199	-0.103917	-0.070708
H178	H	0.718626	-0.051316	-0.091569
O179	O	0.328458	0.064400	0.089152
C180	C	0.361521	0.064756	0.129066
H181	H	0.399574	0.049815	0.115808
H182	H	0.361517	0.103608	0.142973
C183	C	0.299503	0.051197	0.188075
C184	C	0.346240	0.032843	0.171792
H185	H	0.290076	0.031513	0.214431
H186	H	0.277227	0.050959	0.161184
H187	H	0.299506	0.083573	0.199660
H188	H	0.346235	0.000470	0.160202
H189	H	0.368516	0.033075	0.198682
H190	H	0.488676	-0.020159	-0.531055
H191	H	0.488667	-0.020169	-0.374392
O192	O	0.427675	0.065413	-0.089240
C193	C	0.394606	0.065085	-0.129153
H194	H	0.360790	0.049407	-0.115896
H195	H	0.383875	0.103825	-0.143052
C196	C	0.460193	0.052830	-0.188166
C197	C	0.418661	0.033570	-0.171884
H198	H	0.475031	0.033393	-0.214525
H199	H	0.482472	0.053053	-0.161276
H200	H	0.451244	0.085113	-0.199745
H201	H	0.427611	0.001291	-0.160299
H202	H	0.396384	0.033341	-0.198773
H203	H	0.517727	0.008962	-0.228918
O204	O	-0.286582	0.058103	0.089128
C205	C	-0.253514	0.058452	0.129039
H206	H	-0.215463	0.043510	0.115775
H207	H	-0.253513	0.097301	0.142949
C208	C	-0.315527	0.044891	0.188051
C209	C	-0.268794	0.026535	0.171762
H210	H	-0.324953	0.025205	0.214406
H211	H	-0.337807	0.044658	0.161163
H212	H	-0.315520	0.077265	0.199640
H213	H	-0.268802	-0.005836	0.160168
H214	H	-0.246514	0.026762	0.198649
H215	H	0.040671	0.061457	0.127207
H216	H	0.423810	0.065394	0.082003
H217	H	0.487905	-0.688970	-0.000025
O218	O	0.484102	-0.024780	-0.629807
C219	C	0.458411	-0.050463	-0.595573
H220	H	0.478439	-0.053419	-0.558344
H221	H	0.420317	-0.030284	-0.590029
C222	C	0.430155	-0.098156	-0.661681
C223	C	0.454756	-0.101790	-0.615957
H224	H	0.427898	-0.129816	-0.674255
H225	H	0.447462	-0.080852	-0.684746
H226	H	0.398413	-0.081338	-0.657054
H227	H	0.486500	-0.118602	-0.620584
H228	H	0.437454	-0.119098	-0.592893
O229	O	0.328307	0.064477	-0.089172
C230	C	0.293361	0.106065	-0.091882
H231	H	0.283877	0.119948	-0.052616
H232	H	0.308735	0.135591	-0.114188
C233	C	0.258882	0.075803	-0.165975
C234	C	0.247230	0.092851	-0.117749
H235	H	0.230427	0.067654	-0.181934
H236	H	0.282427	0.047785	-0.164152
H237	H	0.271694	0.100411	-0.184558
H238	H	0.234424	0.068241	-0.099166
H239	H	0.223682	0.120865	-0.119570
O240	O	0.439336	-0.445995	-0.000091
C241	C	0.436975	-0.416487	-0.043066
H242	H	0.475320	-0.414223	-0.057394
H243	H	0.415020	-0.432920	-0.073148
C244	C	0.365160	-0.367895	-0.012420
C245	C	0.412257	-0.365111	-0.030015
H246	H	0.349911	-0.336204	-0.004371
H247	H	0.366749	-0.387776	0.016532
H248	H	0.346871	-0.381590	-0.037491
H249	H	0.430547	-0.351421	-0.004942
H250	H	0.410670	-0.345226	-0.058963
H251	H	0.517723	0.008963	-0.134177
H252	H	0.695837	-0.334024	-0.000072
O253	O	0.486218	-0.168301	-0.000030
C254	C	0.447649	-0.129862	-0.000041
H255	H	0.460944	-0.095707	0.015653
H256	H	0.434135	-0.122639	-0.039839
C257	C	0.389484	-0.185719	0.013229
C258	C	0.405812	-0.143770	0.032510
H259	H	0.363676	-0.194298	0.033306
H260	H	0.415468	-0.211616	0.013235
H261	H	0.378226	-0.179694	-0.019936
H262	H	0.417075	-0.149797	0.065671
H263	H	0.379829	-0.117873	0.032511
O264	O	0.627799	0.119228	-0.130004
C265	C	0.598075	0.152416	-0.099794
H266	H	0.559573	0.157876	-0.115540
H267	H	0.597369	0.137489	-0.060220
C268	C	0.665858	0.194752	-0.079646
C269	C	0.618570	0.201461	-0.098987
H270	H	0.678501	0.225004	-0.079146
H271	H	0.685884	0.172392	-0.099998
H272	H	0.665263	0.182311	-0.046669
H273	H	0.619166	0.213896	-0.131966
H274	H	0.598545	0.223825	-0.078641
H275	H	0.623361	0.114596	-0.771202
O276	O	0.513132	0.004437	-0.767178
C277	C	0.463974	0.018179	-0.779968
H278	H	0.459017	0.057198	-0.794310
H279	H	0.452950	-0.007076	-0.810295
C280	C	0.437950	-0.033326	-0.715985
C281	C	0.431862	0.014599	-0.733595
H282	H	0.418141	-0.035536	-0.687381
H283	H	0.471069	-0.042586	-0.707369
H284	H	0.428764	-0.054366	-0.741262
H285	H	0.441053	0.035638	-0.708321
H286	H	0.398743	0.023863	-0.742206
O287	O	0.660115	-0.192327	-0.000097
C288	C	0.699352	-0.164638	-0.000094
H289	H	0.686783	-0.126919	-0.015799
H290	H	0.712973	-0.161141	0.039703
C291	C	0.756229	-0.236397	-0.013345
C292	C	0.740792	-0.190071	-0.032638
H293	H	0.781793	-0.252086	-0.033418
H294	H	0.729795	-0.255052	-0.013345
H295	H	0.767576	-0.233476	0.019819
H296	H	0.729440	-0.192992	-0.065799
H297	H	0.767225	-0.171416	-0.032645
H298	H	0.040639	0.061463	-0.127331
H299	H	-0.050822	0.060525	-0.127329
O300	O	-0.054661	0.060458	0.134354
C301	C	-0.021593	0.060808	0.174265
H302	H	0.016459	0.045871	0.161000
H303	H	-0.021596	0.099657	0.188179
C304	C	-0.083603	0.047233	0.233276
C305	C	-0.036867	0.028884	0.216985
H306	H	-0.093026	0.027543	0.259629
H307	H	-0.105882	0.046999	0.206388
H308	H	-0.083600	0.079607	0.244868
H309	H	-0.036872	-0.003487	0.205388
H310	H	-0.014588	0.029112	0.243872
H311	H	0.623366	0.114591	-0.865942
H312	H	0.191873	0.063014	-0.127325
H313	H	0.694908	-0.425472	-0.000064
H314	H	0.652444	0.143700	-0.530978
H315	H	0.694301	-0.485260	-0.000060
H316	H	-0.191246	0.059091	0.081984
O317	O	-0.286696	0.058028	-0.089212
C318	C	-0.310074	0.015854	-0.091907
H319	H	-0.290826	-0.013257	-0.066244
H320	H	-0.349589	0.024933	-0.079755
C321	C	-0.331874	0.032598	-0.177454
C322	C	-0.308231	-0.003157	-0.145937
H323	H	-0.330739	0.020872	-0.210783
H324	H	-0.316125	0.061013	-0.175638
H325	H	-0.364801	0.040161	-0.167322
H326	H	-0.275303	-0.010715	-0.156066
H327	H	-0.323974	-0.031574	-0.147756
H328	H	0.647863	-0.711076	-0.000054
O329	O	0.096585	0.061995	0.134366
C330	C	0.129658	0.062340	0.174274
H331	H	0.167708	0.047404	0.161004
H332	H	0.129656	0.101187	0.188192
C333	C	0.067653	0.048761	0.233290
C334	C	0.114386	0.030412	0.216993
H335	H	0.058233	0.029068	0.259642
H336	H	0.045371	0.048530	0.206404
H337	H	0.067658	0.081133	0.244885
H338	H	0.114380	-0.001957	0.205392
H339	H	0.136668	0.030637	0.243878
H340	H	0.646929	-0.802541	-0.000047
H341	H	0.486977	-0.780420	-0.000033
O342	O	0.439810	-0.394148	0.000075
C343	C	0.413135	-0.378097	0.043040
H344	H	0.439084	-0.367805	0.073062
H345	H	0.385951	-0.345030	0.033331
C346	C	0.353793	-0.431776	0.025660
C347	C	0.385665	-0.419139	0.062535
H348	H	0.336847	-0.457092	0.037685
H349	H	0.371764	-0.442589	-0.003287
H350	H	0.331144	-0.404217	0.017573
H351	H	0.408317	-0.446697	0.070617
H352	H	0.367698	-0.408332	0.091485
H353	H	0.494160	-0.073908	-0.000062
O354	O	0.700285	-0.581588	0.000015
C355	C	0.727232	-0.572979	0.042984
H356	H	0.715080	-0.534638	0.057305
H357	H	0.720834	-0.600500	0.073073
C358	C	0.796653	-0.625284	0.012339
C359	C	0.781730	-0.578191	0.029927
H360	H	0.830270	-0.628500	0.004286
H361	H	0.778498	-0.631085	-0.016609
H362	H	0.791318	-0.648212	0.037417
H363	H	0.787060	-0.555263	0.004848
H364	H	0.799888	-0.572385	0.058871
O365	O	0.438250	-0.545339	0.000007
C366	C	0.399684	-0.506897	-0.000001
H367	H	0.412983	-0.472744	0.015696
H368	H	0.386170	-0.499670	-0.039798
C369	C	0.341513	-0.562748	0.013267
C370	C	0.357846	-0.520802	0.032550
H371	H	0.315705	-0.571326	0.033343
H372	H	0.367496	-0.588648	0.013270
H373	H	0.330255	-0.556720	-0.019898
H374	H	0.369110	-0.526833	0.065711
H375	H	0.331865	-0.494904	0.032553
O376	O	0.627902	0.119214	-0.232884
C377	C	0.653584	0.144897	-0.198623
H378	H	0.633544	0.147855	-0.161407
H379	H	0.691675	0.124716	-0.193060
C380	C	0.681863	0.192586	-0.264695
C381	C	0.657248	0.196222	-0.218987
H382	H	0.684125	0.224245	-0.277257
H383	H	0.664562	0.175282	-0.287778
H384	H	0.713603	0.175766	-0.260053
H385	H	0.625506	0.213036	-0.223631
H386	H	0.674543	0.213531	-0.195905
O387	O	0.657020	0.148322	-0.473075
C388	C	0.682702	0.174003	-0.438812
H389	H	0.662665	0.176956	-0.401595
H390	H	0.720794	0.153822	-0.433253
C391	C	0.710975	0.221700	-0.504880
C392	C	0.686363	0.225330	-0.459171
H393	H	0.713236	0.253361	-0.517439
H394	H	0.693675	0.204397	-0.527965
H395	H	0.742717	0.204881	-0.500241
H396	H	0.654621	0.242144	-0.463811
H397	H	0.703659	0.242637	-0.436087
H398	H	0.652427	0.143703	-0.374329
