data_functionalizedCrystal
_audit_creation_method	'MofGen! by Chris Wilmer'
_symmetry_space_group_name_H-M	'P1'
_symmetry_Int_Tables_number	1
_symmetry_cell_setting	triclinic
loop_
_symmetry_equiv_pos_as_xyz
  x,y,z
_cell_length_a	19.288864
_cell_length_b	15.944551
_cell_length_c	17.766277
_cell_angle_alpha	89.992686
_cell_angle_beta	89.976791
_cell_angle_gamma	83.317492
loop_
_atom_site_label
_atom_site_type_symbol
_atom_site_fract_x
_atom_site_fract_y
_atom_site_fract_z
O1	O	0.921629	0.104784	-0.062837
O2	O	0.719406	0.118919	-0.062786
O3	O	0.826040	-0.010445	-0.062806
O4	O	0.814995	0.234147	-0.062817
O5	O	0.826021	-0.010451	0.062382
O6	O	0.719387	0.118912	0.062403
O7	O	0.921610	0.104777	0.062351
Cu8	Cu	0.820497	0.111844	0.073808
Cu9	Cu	0.820519	0.111852	-0.074242
O10	O	0.814976	0.234141	0.062372
C11	C	0.693519	0.118461	-0.000185
C12	C	0.616411	0.117095	-0.000165
C13	C	0.571915	0.193000	-0.000181
C14	C	0.499465	0.191717	-0.000189
C15	C	0.471514	0.114526	-0.000197
C16	C	0.516020	0.038611	-0.000178
C17	C	0.588469	0.039896	-0.000162
C18	C	0.363099	0.053847	-0.044079
C19	C	0.290651	0.052565	-0.044099
C20	C	0.248058	0.110560	-0.000242
C21	C	0.277920	0.169850	0.043625
C22	C	0.350369	0.171135	0.043641
C23	C	0.392956	0.113124	-0.000214
C24	C	0.125002	0.185079	-0.000265
C25	C	0.052550	0.183793	-0.000269
C26	C	0.069107	0.030684	-0.000265
C27	C	0.141557	0.031972	-0.000254
C28	C	0.169500	0.109172	-0.000258
C29	C	0.825572	-0.041740	-0.000212
C30	C	0.824197	-0.134981	-0.000211
C31	C	0.754815	-0.349571	-0.000204
C32	C	0.787024	-0.410715	0.061514
C33	C	0.821710	-0.305697	-0.000216
C34	C	0.787059	-0.410692	-0.061912
C35	C	0.819303	-0.470601	-0.000224
C36	C	0.853938	-0.365614	0.061552
C37	C	0.853963	-0.365585	-0.061929
C38	C	0.886222	-0.426712	-0.000197
C39	C	0.823095	-0.210700	-0.000211
C40	C	0.817924	-0.565597	-0.000224
C41	C	0.947497	0.105235	-0.000251
C42	C	1.024605	0.106600	-0.000276
C43	C	0.815444	0.265436	-0.000225
C44	C	0.816819	0.358677	-0.000230
N45	N	0.820486	0.111838	0.177938
N46	N	0.820535	0.111851	-0.178373
C47	C	0.867719	0.054584	0.217316
C48	C	0.867723	0.054580	0.296118
C49	C	0.820501	0.111845	0.335539
C50	C	0.773259	0.169103	0.296151
C51	C	0.773252	0.169100	0.217351
C52	C	0.811404	0.188378	0.460375
C53	C	0.811416	0.188382	0.539173
C54	C	0.820520	0.111855	0.578585
C55	C	0.829626	0.035319	0.539188
C56	C	0.829618	0.035316	0.460387
C57	C	0.820503	0.111854	0.420984
C58	C	0.867759	0.054592	0.703409
C59	C	0.867759	0.054587	0.782212
C60	C	0.773298	0.169117	0.782244
C61	C	0.773295	0.169115	0.703442
C62	C	0.820530	0.111853	0.664029
H63	H	0.016321	0.245606	-0.000277
H64	H	0.882241	-0.345560	-0.114123
N65	N	0.749576	-0.437149	-0.131024
H66	H	0.774346	-0.419926	-0.177651
H67	H	0.749324	-0.500454	-0.130702
N68	N	0.918660	-0.007177	0.174806
H69	H	0.948582	-0.043449	0.211715
H70	H	0.892068	-0.044233	0.142134
H71	H	0.463229	0.253530	-0.000199
H72	H	0.758722	-0.430717	0.113705
N73	N	0.382578	0.235067	0.090965
H74	H	0.434936	0.227076	0.084319
H75	H	0.363541	0.293918	0.074569
N76	N	0.231992	0.232412	0.090928
H77	H	0.181564	0.222602	0.084266
H78	H	0.245477	0.224783	0.145637
N79	N	0.959834	-0.470923	-0.000177
H80	H	0.984997	-0.454549	0.046459
H81	H	0.958452	-0.534046	-0.000648
H82	H	0.734846	0.215740	0.814340
H83	H	0.906219	0.007963	0.671318
N84	N	0.801589	0.270926	0.581663
H85	H	0.840189	0.305837	0.567921
H86	H	0.754994	0.302859	0.567950
H87	H	0.906219	0.007959	0.814274
N88	N	0.485882	-0.044650	-0.000191
H89	H	0.502083	-0.077893	0.046221
H90	H	0.433239	-0.033881	-0.000235
H91	H	0.803978	0.250700	0.428292
N92	N	0.189549	-0.049902	-0.000241
H93	H	0.180585	-0.083590	-0.046649
H94	H	0.239667	-0.037310	-0.000200
N95	N	0.155147	0.268338	-0.000266
H96	H	0.115962	0.316231	-0.000270
H97	H	0.184823	0.272202	0.046148
N98	N	0.409031	-0.008711	-0.091386
H99	H	0.435777	0.022673	-0.128885
H100	H	0.442930	-0.044241	-0.057731
N101	N	0.918677	-0.007173	0.338595
H102	H	0.949427	0.024841	0.371265
H103	H	0.892095	-0.044272	0.371268
H104	H	0.734837	0.215740	0.671378
N105	N	0.839437	-0.047224	0.417893
H106	H	0.845206	-0.095708	0.454812
H107	H	0.797239	-0.051998	0.385223
N108	N	0.681268	-0.305160	-0.000110
H109	H	0.655735	-0.322239	-0.046244
H110	H	0.656140	-0.321460	0.046597
H111	H	0.882201	-0.345735	0.113786
N112	N	0.839449	-0.047229	0.581683
H113	H	0.838069	-0.035617	0.637580
H114	H	0.800834	-0.082093	0.567932
H115	H	0.734809	0.215728	0.328251
N116	N	0.722304	0.230852	0.174873
H117	H	0.692385	0.267128	0.211800
H118	H	0.748889	0.267906	0.142159
N119	N	0.636461	-0.041980	-0.000144
H120	H	0.627496	-0.075671	-0.046552
H121	H	0.686579	-0.029386	-0.000106
N122	N	0.602054	0.276261	-0.000190
H123	H	0.562867	0.324153	-0.000203
H124	H	0.631728	0.280136	0.046224
H125	H	0.046351	-0.032167	-0.000319
H126	H	0.266342	0.004291	-0.079822
