data_functionalizedCrystal
_audit_creation_method	'MofGen! by Chris Wilmer'
_symmetry_space_group_name_H-M	'P1'
_symmetry_Int_Tables_number	1
_symmetry_cell_setting	triclinic
loop_
_symmetry_equiv_pos_as_xyz
  x,y,z
_cell_length_a	23.532407
_cell_length_b	23.532407
_cell_length_c	22.610064
_cell_angle_alpha	89.990850
_cell_angle_beta	89.990066
_cell_angle_gamma	82.848678
loop_
_atom_site_label
_atom_site_type_symbol
_atom_site_fract_x
_atom_site_fract_y
_atom_site_fract_z
O1	O	-0.755269	-0.069133	0.049117
O2	O	-0.421935	0.264200	0.382450
O3	O	-0.088602	0.597533	0.715783
O4	O	-0.589405	-0.079137	0.049135
O5	O	-0.256072	0.254197	0.382468
O6	O	0.077261	0.587530	0.715802
O7	O	-0.677338	0.008797	0.049114
O8	O	-0.344005	0.342130	0.382448
O9	O	-0.010672	0.675463	0.715781
O10	O	-0.667335	-0.157067	0.049137
O11	O	-0.334002	0.176267	0.382471
O12	O	-0.000669	0.509600	0.715804
O13	O	-0.677313	0.008797	-0.049255
O14	O	-0.343979	0.342130	0.284079
O15	O	-0.010646	0.675463	0.617412
O16	O	-0.589380	-0.079137	-0.049234
O17	O	-0.256046	0.254197	0.284099
O18	O	0.077287	0.587530	0.617432
O19	O	-0.755243	-0.069133	-0.049252
O20	O	-0.421910	0.264200	0.284081
O21	O	-0.088576	0.597533	0.617414
Zn22	Zn	-0.672307	-0.074135	-0.064862
Zn23	Zn	-0.338974	0.259198	0.268472
Zn24	Zn	-0.005640	0.592532	0.601805
Zn25	Zn	-0.672341	-0.074135	0.064744
Zn26	Zn	-0.339008	0.259198	0.398077
Zn27	Zn	-0.005674	0.592532	0.731411
O28	O	-0.667310	-0.157067	-0.049232
O29	O	-0.333976	0.176267	0.284101
O30	O	-0.000643	0.509600	0.617435
C31	C	-0.568176	-0.078882	-0.000048
C32	C	-0.234843	0.254451	0.333286
C33	C	0.098490	0.587785	0.666619
C34	C	-0.504959	-0.078116	-0.000041
C35	C	-0.171626	0.255217	0.333292
C36	C	0.161707	0.588551	0.666626
C37	C	-0.677071	0.030013	-0.000072
C38	C	-0.343738	0.363346	0.333262
C39	C	-0.010404	0.696679	0.666595
C40	C	-0.676305	0.093230	-0.000076
C41	C	-0.342972	0.426563	0.333257
C42	C	-0.009638	0.759896	0.666591
C43	C	-0.776472	-0.069388	-0.000069
C44	C	-0.443138	0.263945	0.333265
C45	C	-0.109805	0.597278	0.666598
C46	C	-0.839689	-0.070154	-0.000071
C47	C	-0.506355	0.263179	0.333262
C48	C	-0.173022	0.596513	0.666595
C49	C	-0.105856	-0.125350	-0.000061
C50	C	0.227477	0.207984	0.333272
C51	C	0.560810	0.541317	0.666605
C52	C	-0.046456	-0.124638	-0.000065
C53	C	0.286877	0.208695	0.333268
C54	C	0.620211	0.542029	0.666602
O55	O	-0.009711	-0.168424	-0.000081
O56	O	0.323622	0.164909	0.333253
O57	O	0.656955	0.498243	0.666586
N58	N	-0.023830	-0.072362	-0.000071
N59	N	0.309504	0.260972	0.333262
N60	N	0.642837	0.594305	0.666595
C61	C	-0.060607	-0.020794	-0.000080
C62	C	0.272726	0.312540	0.333254
C63	C	0.606059	0.645873	0.666587
O64	O	-0.035908	0.023737	-0.000086
O65	O	0.297426	0.357070	0.333247
O66	O	0.630759	0.690404	0.666581
C67	C	-0.120006	-0.021506	-0.000080
C68	C	0.213327	0.311828	0.333253
C69	C	0.546660	0.645161	0.666586
C70	C	-0.142629	-0.073785	-0.000068
C71	C	0.190704	0.259548	0.333265
C72	C	0.524038	0.592881	0.666599
C73	C	-0.128479	-0.177625	-0.000050
C74	C	0.204854	0.155708	0.333284
C75	C	0.538187	0.489042	0.666617
C76	C	-0.187876	-0.178336	-0.000045
C77	C	0.145458	0.154997	0.333288
C78	C	0.478791	0.488330	0.666622
C79	C	-0.224649	-0.126772	-0.000052
C80	C	0.108685	0.206561	0.333282
C81	C	0.442018	0.539895	0.666615
C82	C	-0.202025	-0.074497	-0.000063
C83	C	0.131308	0.258837	0.333270
C84	C	0.464641	0.592170	0.666603
C85	C	-0.156783	0.030062	-0.000093
C86	C	0.176550	0.363395	0.333240
C87	C	0.509884	0.696729	0.666574
C88	C	-0.216185	0.029345	-0.000094
C89	C	0.117148	0.362679	0.333239
C90	C	0.450481	0.696012	0.666573
C91	C	-0.238808	-0.022934	-0.000082
C92	C	0.094525	0.310399	0.333252
C93	C	0.427859	0.643732	0.666585
C94	C	-0.298194	-0.023643	-0.000065
C95	C	0.035139	0.309690	0.333268
C96	C	0.368472	0.643023	0.666602
N97	N	-0.320820	-0.075920	-0.000059
N98	N	0.012513	0.257414	0.333274
N99	N	0.345846	0.590747	0.666608
C100	C	-0.284048	-0.127484	-0.000052
C101	C	0.049286	0.205849	0.333281
C102	C	0.382619	0.539183	0.666614
C103	C	0.064135	-0.019302	-0.000080
C104	C	0.397468	0.314031	0.333254
C105	C	0.730802	0.647365	0.666587
C106	C	0.123533	-0.018589	-0.000075
C107	C	0.456866	0.314744	0.333258
C108	C	0.790200	0.648077	0.666592
C109	C	0.137680	-0.122434	-0.000061
C110	C	0.471014	0.210899	0.333272
C111	C	0.804347	0.544232	0.666605
C112	C	0.078281	-0.123146	-0.000062
C113	C	0.411615	0.210187	0.333271
C114	C	0.744948	0.543520	0.666605
C115	C	0.041509	-0.071578	-0.000074
C116	C	0.374842	0.261755	0.333260
C117	C	0.708176	0.595088	0.666593
C118	C	-0.408784	-0.128974	-0.000042
C119	C	-0.075451	0.204360	0.333292
C120	C	0.257882	0.537693	0.666625
C121	C	-0.468186	-0.129680	-0.000034
C122	C	-0.134853	0.203653	0.333299
C123	C	0.198480	0.536986	0.666632
C124	C	-0.482329	-0.025836	-0.000051
C125	C	-0.148995	0.307497	0.333282
C126	C	0.184338	0.640831	0.666616
C127	C	-0.422932	-0.025129	-0.000055
C128	C	-0.089598	0.308204	0.333278
C129	C	0.243735	0.641538	0.666611
C130	C	-0.386160	-0.076702	-0.000052
C131	C	-0.052827	0.256631	0.333281
C132	C	0.280506	0.589964	0.666614
O133	O	-0.334974	0.020119	-0.000052
O134	O	-0.001640	0.353453	0.333281
O135	O	0.331693	0.686786	0.666615
O136	O	-0.308755	-0.172007	-0.000054
O137	O	0.024578	0.161326	0.333279
O138	O	0.357911	0.494660	0.666613
C139	C	-0.667577	-0.178283	-0.000045
C140	C	-0.334244	0.155051	0.333289
C141	C	-0.000910	0.488384	0.666622
C142	C	-0.668343	-0.241500	-0.000036
C143	C	-0.335010	0.091833	0.333297
C144	C	-0.001676	0.425167	0.666630
N145	N	-0.672288	-0.074135	-0.153314
N146	N	-0.338955	0.259199	0.180019
N147	N	-0.005622	0.592532	0.513353
C148	C	-0.723539	0.492333	-0.000049
C149	C	-0.390205	0.825666	0.333284
C150	C	-0.056872	1.158999	0.666618
C151	C	-0.722827	0.551733	-0.000044
C152	C	-0.389494	0.885066	0.333289
C153	C	-0.056160	1.218400	0.666622
O154	O	-0.766613	0.588478	-0.000027
O155	O	-0.433280	0.921811	0.333306
O156	O	-0.099946	1.255144	0.666639
N157	N	-0.670551	0.574359	-0.000039
N158	N	-0.337217	0.907693	0.333294
N159	N	-0.003884	1.241026	0.666628
C160	C	-0.618983	0.537582	-0.000032
C161	C	-0.285649	0.870915	0.333301
C162	C	0.047684	1.204248	0.666634
O163	O	-0.574452	0.562281	-0.000027
O164	O	-0.241119	0.895615	0.333307
O165	O	0.092215	1.228948	0.666640
C166	C	-0.619695	0.478182	-0.000033
C167	C	-0.286361	0.811516	0.333301
C168	C	0.046972	1.144849	0.666634
C169	C	-0.671974	0.455560	-0.000044
C170	C	-0.338641	0.788893	0.333289
C171	C	-0.005308	1.122227	0.666623
C172	C	-0.775814	0.469710	-0.000060
C173	C	-0.442481	0.803043	0.333274
C174	C	-0.109147	1.136376	0.666607
C175	C	-0.776525	0.410313	-0.000065
C176	C	-0.443192	0.743647	0.333268
C177	C	-0.109859	1.076980	0.666601
C178	C	-0.724961	0.373540	-0.000060
C179	C	-0.391628	0.706874	0.333273
C180	C	-0.058294	1.040207	0.666606
C181	C	-0.672685	0.396164	-0.000050
C182	C	-0.339352	0.729497	0.333284
C183	C	-0.006019	1.062830	0.666617
C184	C	-0.568127	0.441406	-0.000022
C185	C	-0.234794	0.774739	0.333312
C186	C	0.098540	1.108073	0.666645
C187	C	-0.568844	0.382004	-0.000021
C188	C	-0.235510	0.715337	0.333312
C189	C	0.097823	1.048670	0.666645
C190	C	-0.621123	0.359381	-0.000033
C191	C	-0.287790	0.692714	0.333301
C192	C	0.045543	1.026048	0.666634
C193	C	-0.621832	0.299995	-0.000050
C194	C	-0.288499	0.633328	0.333283
C195	C	0.044834	0.966661	0.666616
N196	N	-0.674109	0.277368	-0.000056
N197	N	-0.340775	0.610702	0.333278
N198	N	-0.007442	0.944035	0.666611
C199	C	-0.725673	0.314141	-0.000061
C200	C	-0.392340	0.647475	0.333273
C201	C	-0.059006	0.980808	0.666606
C202	C	-0.617491	0.662324	-0.000031
C203	C	-0.284158	0.995657	0.333303
C204	C	0.049176	1.328991	0.666636
C205	C	-0.616778	0.721722	-0.000034
C206	C	-0.283445	1.055055	0.333299
C207	C	0.049888	1.388389	0.666632
C208	C	-0.720623	0.735869	-0.000045
C209	C	-0.387290	1.069203	0.333288
C210	C	-0.053957	1.402536	0.666621
C211	C	-0.721335	0.676470	-0.000046
C212	C	-0.388002	1.009804	0.333288
C213	C	-0.054669	1.343137	0.666621
C214	C	-0.669767	0.639698	-0.000036
C215	C	-0.336434	0.973031	0.333298
C216	C	-0.003101	1.306365	0.666631
C217	C	-0.727163	0.189405	-0.000073
C218	C	-0.393829	0.522738	0.333260
C219	C	-0.060496	0.856071	0.666594
C220	C	-0.727869	0.130003	-0.000081
C221	C	-0.394536	0.463336	0.333252
C222	C	-0.061203	0.796669	0.666586
C223	C	-0.624025	0.115860	-0.000067
C224	C	-0.290691	0.449194	0.333266
C225	C	0.042642	0.782527	0.666600
C226	C	-0.623318	0.175257	-0.000062
C227	C	-0.289985	0.508591	0.333271
C228	C	0.043349	0.841924	0.666605
C229	C	-0.674891	0.212029	-0.000063
C230	C	-0.341558	0.545362	0.333270
C231	C	-0.008225	0.878695	0.666604
O232	O	-0.578070	0.263215	-0.000065
O233	O	-0.244736	0.596549	0.333268
O234	O	0.088597	0.929882	0.666602
O235	O	-0.770196	0.289433	-0.000058
O236	O	-0.436863	0.622767	0.333275
O237	O	-0.103529	0.956100	0.666608
C238	C	-0.706686	-0.108496	-0.561955
C239	C	-0.373352	0.224838	-0.228621
C240	C	-0.040019	0.558171	0.104712
C241	C	-0.706693	-0.108494	-0.623874
C242	C	-0.373359	0.224839	-0.290541
C243	C	-0.040026	0.558173	0.042792
O244	O	-0.735916	-0.137705	-0.655892
O245	O	-0.402583	0.195628	-0.322559
O246	O	-0.069249	0.528962	0.010774
N247	N	-0.672352	-0.074128	-0.654851
N248	N	-0.339019	0.259205	-0.321518
N249	N	-0.005685	0.592538	0.011815
C250	C	-0.638006	-0.039758	-0.623905
C251	C	-0.304673	0.293576	-0.290572
C252	C	0.028661	0.626909	0.042762
O253	O	-0.608797	-0.010527	-0.655939
O254	O	-0.275464	0.322807	-0.322605
O255	O	0.057869	0.656140	0.010728
C256	C	-0.638002	-0.039757	-0.561986
C257	C	-0.304669	0.293577	-0.228653
C258	C	0.028664	0.626910	0.104681
C259	C	-0.672341	-0.074129	-0.531013
C260	C	-0.339008	0.259205	-0.197679
C261	C	-0.005674	0.592538	0.135654
C262	C	-0.741022	-0.142864	-0.530981
C263	C	-0.407689	0.190469	-0.197648
C264	C	-0.074355	0.523802	0.135686
C265	C	-0.741014	-0.142867	-0.469065
C266	C	-0.407681	0.190467	-0.135732
C267	C	-0.074347	0.523800	0.197601
C268	C	-0.706669	-0.108500	-0.438123
C269	C	-0.373336	0.224834	-0.104790
C270	C	-0.040003	0.558167	0.228543
C271	C	-0.672333	-0.074131	-0.469097
C272	C	-0.339000	0.259203	-0.135764
C273	C	-0.005666	0.592536	0.197570
C274	C	-0.603660	-0.005383	-0.531041
C275	C	-0.270327	0.327950	-0.197708
C276	C	0.063007	0.661284	0.135626
C277	C	-0.603659	-0.005384	-0.469118
C278	C	-0.270326	0.327949	-0.135785
C279	C	0.063007	0.661282	0.197549
C280	C	-0.637998	-0.039757	-0.438144
C281	C	-0.304665	0.293577	-0.104811
C282	C	0.028668	0.626910	0.228522
C283	C	-0.637980	-0.039766	-0.376239
C284	C	-0.304647	0.293567	-0.042906
C285	C	0.028686	0.626901	0.290427
N286	N	-0.672321	-0.074132	-0.345262
N287	N	-0.338988	0.259202	-0.011929
N288	N	-0.005655	0.592535	0.321404
C289	C	-0.706666	-0.108498	-0.376204
C290	C	-0.373332	0.224835	-0.042871
C291	C	-0.039999	0.558168	0.290462
C292	C	-0.638017	-0.039762	-0.753938
C293	C	-0.304684	0.293571	-0.420605
C294	C	0.028650	0.626904	-0.087272
C295	C	-0.638017	-0.039766	-0.815856
C296	C	-0.304684	0.293567	-0.482523
C297	C	0.028649	0.626901	-0.149189
C298	C	-0.706705	-0.108502	-0.815821
C299	C	-0.373372	0.224832	-0.482488
C300	C	-0.040038	0.558165	-0.149155
C301	C	-0.706701	-0.108501	-0.753903
C302	C	-0.373368	0.224833	-0.420569
C303	C	-0.040035	0.558166	-0.087236
C304	C	-0.672358	-0.074128	-0.722962
C305	C	-0.339025	0.259206	-0.389628
C306	C	-0.005691	0.592539	-0.056295
C307	C	-0.706646	-0.108501	-0.246177
C308	C	-0.373312	0.224833	0.087156
C309	C	-0.039979	0.558166	0.420489
C310	C	-0.706633	-0.108502	-0.184256
C311	C	-0.373299	0.224832	0.149077
C312	C	-0.039966	0.558165	0.482411
C313	C	-0.637948	-0.039764	-0.184296
C314	C	-0.304614	0.293570	0.149037
C315	C	0.028719	0.626903	0.482371
C316	C	-0.637958	-0.039765	-0.246212
C317	C	-0.304625	0.293568	0.087122
C318	C	0.028709	0.626902	0.420455
C319	C	-0.672312	-0.074135	-0.277151
C320	C	-0.338978	0.259198	0.056182
C321	C	-0.005645	0.592532	0.389516
O322	O	-0.608774	-0.010568	-0.344182
O323	O	-0.275440	0.322765	-0.010849
O324	O	0.057893	0.656098	0.322485
O325	O	-0.735875	-0.137719	-0.344163
O326	O	-0.402542	0.195614	-0.010830
O327	O	-0.069208	0.528948	0.322504
N328	N	-0.672364	-0.074131	0.153196
N329	N	-0.339031	0.259202	0.486530
N330	N	-0.005698	0.592536	0.819863
H331	H	-0.486602	-0.172255	-0.000024
H332	H	-0.153269	0.161079	0.333309
H333	H	0.180065	0.494412	0.666643
F334	F	-0.601396	-0.003192	-0.151355
F335	F	-0.268063	0.330142	0.181979
F336	F	0.065271	0.663475	0.515312
F337	F	-0.089351	-0.232512	-0.000043
F338	F	0.243983	0.100821	0.333291
F339	F	0.577316	0.434155	0.666624
H340	H	-0.734663	-0.136490	-0.728688
H341	H	-0.401329	0.196843	-0.395355
H342	H	-0.067996	0.530177	-0.062021
F343	F	-0.830701	0.508838	-0.000064
F344	F	-0.497367	0.842172	0.333269
F345	F	-0.164034	1.175505	0.666602
F346	F	-0.513956	0.342871	-0.000010
F347	F	-0.180623	0.676204	0.333324
F348	F	0.152710	1.009537	0.666657
F349	F	-0.832169	0.386245	-0.000064
F350	F	-0.498835	0.719578	0.333269
F351	F	-0.165502	1.052911	0.666602
F352	F	-0.743260	-0.145076	-0.848763
F353	F	-0.409927	0.188257	-0.515430
F354	F	-0.076593	0.521591	-0.182096
H355	H	-0.575693	0.022607	-0.443929
H356	H	-0.242359	0.355940	-0.110596
H357	H	0.090974	0.689274	0.222738
F358	F	-0.775503	0.775016	-0.000048
F359	F	-0.442170	1.108350	0.333286
F360	F	-0.108836	1.441683	0.666619
H361	H	-0.768992	-0.170850	-0.556167
H362	H	-0.435659	0.162483	-0.222834
H363	H	-0.102326	0.495817	0.110499
H364	H	-0.769159	0.219337	-0.000071
H365	H	-0.435826	0.552671	0.333262
H366	H	-0.102492	0.886004	0.666595
H367	H	-0.525555	0.459814	-0.000009
H368	H	-0.192222	0.793148	0.333325
H369	H	0.141111	1.126481	0.666658
H370	H	-0.610048	-0.011784	-0.841070
H371	H	-0.276715	0.321550	-0.507736
H372	H	0.056618	0.654883	-0.174403
F373	F	-0.601456	-0.003181	-0.721014
F374	F	-0.268122	0.330152	-0.387681
F375	F	0.065211	0.663485	-0.054347
H376	H	-0.734595	-0.136494	-0.159040
H377	H	-0.401262	0.196839	0.174293
H378	H	-0.067929	0.530173	0.507627
H379	H	-0.246123	0.071339	-0.000104
H380	H	0.087210	0.404673	0.333229
H381	H	0.420543	0.738006	0.666563
H382	H	-0.580748	0.193677	-0.000069
H383	H	-0.247414	0.527011	0.333264
H384	H	0.085919	0.860344	0.666597
F385	F	-0.783515	0.105930	-0.000093
F386	F	-0.450181	0.439263	0.333240
F387	F	-0.116848	0.772597	0.666574
H388	H	-0.404512	0.017441	-0.000056
H389	H	-0.071178	0.350775	0.333277
H390	H	0.262155	0.684108	0.666610
F391	F	0.176828	-0.177314	-0.000057
F392	F	0.510161	0.156019	0.333277
F393	F	0.843494	0.489353	0.666610
H394	H	-0.378851	-0.170970	-0.000041
H395	H	-0.045518	0.162363	0.333292
H396	H	0.287815	0.495697	0.666625
H397	H	-0.206289	-0.220908	-0.000035
H398	H	0.127044	0.112426	0.333298
H399	H	0.460378	0.445759	0.666632
H400	H	0.141947	0.023982	-0.000076
H401	H	0.475280	0.357315	0.333258
H402	H	0.808613	0.690648	0.666591
F403	F	0.054210	-0.178789	-0.000050
F404	F	0.387544	0.154545	0.333283
F405	F	0.720877	0.487878	0.666617
H406	H	-0.512280	0.016146	-0.000054
H407	H	-0.178946	0.349480	0.333279
H408	H	0.154387	0.682813	0.666612
F409	F	0.025003	0.035587	-0.000086
F410	F	0.358337	0.368921	0.333247
F411	F	0.691670	0.702254	0.666580
H412	H	-0.138375	0.072634	-0.000103
H413	H	0.194959	0.405967	0.333230
H414	H	0.528292	0.739300	0.666563
F415	F	-0.776978	0.652399	-0.000058
F416	F	-0.443644	0.985733	0.333276
F417	F	-0.110311	1.319066	0.666609
H418	H	-0.574207	0.740136	-0.000035
H419	H	-0.240874	1.073469	0.333298
H420	H	0.092460	1.406802	0.666631
H421	H	-0.734620	-0.136488	-0.271360
H422	H	-0.401287	0.196846	0.061973
H423	H	-0.067953	0.530179	0.395306
F424	F	-0.562602	0.623192	-0.000025
F425	F	-0.229268	0.956526	0.333308
F426	F	0.104065	1.289859	0.666641
F427	F	-0.567111	0.031201	-0.563992
F428	F	-0.233778	0.364534	-0.230659
F429	F	0.099556	0.697868	0.102675
H430	H	-0.582043	0.085909	-0.000065
H431	H	-0.248709	0.419243	0.333268
H432	H	0.084624	0.752576	0.666602
H433	H	-0.768979	-0.170854	-0.443852
H434	H	-0.435645	0.162480	-0.110519
H435	H	-0.102312	0.495813	0.222815
H436	H	-0.609989	-0.011784	-0.271432
H437	H	-0.276656	0.321550	0.061902
H438	H	0.056677	0.654883	0.395235
