data_functionalizedCrystal
_audit_creation_method	'MofGen! by Chris Wilmer'
_symmetry_space_group_name_H-M	'P1'
_symmetry_Int_Tables_number	1
_symmetry_cell_setting	triclinic
loop_
_symmetry_equiv_pos_as_xyz
  x,y,z
_cell_length_a	14.519709
_cell_length_b	14.519709
_cell_length_c	16.776229
_cell_angle_alpha	89.992406
_cell_angle_beta	89.998478
_cell_angle_gamma	83.680145
loop_
_atom_site_label
_atom_site_type_symbol
_atom_site_fract_x
_atom_site_fract_y
_atom_site_fract_z
O1	O	1.223871	0.120893	-0.066186
O2	O	1.557204	0.454227	0.267147
O3	O	1.890537	0.787560	0.600481
O4	O	0.955394	0.135130	-0.066211
O5	O	1.288727	0.468463	0.267123
O6	O	1.622061	0.801797	0.600456
O7	O	1.096751	-0.006227	-0.066191
O8	O	1.430084	0.327107	0.267143
O9	O	1.763417	0.660440	0.600476
O10	O	1.082514	0.262250	-0.066206
O11	O	1.415847	0.595583	0.267127
O12	O	1.749181	0.928917	0.600460
O13	O	1.096732	-0.006236	0.066386
O14	O	1.430065	0.327098	0.399719
O15	O	1.763398	0.660431	0.733053
O16	O	0.955375	0.135121	0.066366
O17	O	1.288708	0.468455	0.399699
O18	O	1.622042	0.801788	0.733032
O19	O	1.223852	0.120885	0.066390
O20	O	1.557185	0.454218	0.399724
O21	O	1.890519	0.787551	0.733057
Zn22	Zn	1.089611	0.128002	0.087427
Zn23	Zn	1.422944	0.461335	0.420761
Zn24	Zn	1.756277	0.794668	0.754094
Zn25	Zn	1.089635	0.128013	-0.087248
Zn26	Zn	1.422969	0.461346	0.246086
Zn27	Zn	1.756302	0.794680	0.579419
O28	O	1.082495	0.262241	0.066370
O29	O	1.415829	0.595575	0.399704
O30	O	1.749162	0.928908	0.733037
C31	C	0.921025	0.134462	0.000074
C32	C	1.254358	0.467795	0.333408
C33	C	1.587691	0.801129	0.666741
C34	C	0.818643	0.132474	0.000065
C35	C	1.151977	0.465807	0.333399
C36	C	1.485310	0.799141	0.666732
C37	C	0.443748	0.125154	0.000102
C38	C	0.777081	0.458488	0.333435
C39	C	1.110414	0.791821	0.666769
C40	C	0.548056	0.127187	0.000092
C41	C	0.881389	0.460520	0.333425
C42	C	1.214722	0.793854	0.666758
C43	C	0.631192	0.128814	0.000083
C44	C	0.964526	0.462147	0.333416
C45	C	1.297859	0.795481	0.666750
C46	C	0.735507	0.130847	0.000074
C47	C	1.068840	0.464180	0.333407
C48	C	1.402173	0.797514	0.666741
C49	C	1.096078	-0.040591	0.000098
C50	C	1.429411	0.292742	0.333431
C51	C	1.762744	0.626076	0.666764
C52	C	1.094090	-0.142972	0.000098
C53	C	1.427423	0.190361	0.333431
C54	C	1.760756	0.523694	0.666765
C55	C	1.086770	-0.517868	0.000077
C56	C	1.420103	-0.184535	0.333410
C57	C	1.753437	0.148799	0.666743
C58	C	1.088803	-0.413560	0.000083
C59	C	1.422136	-0.080227	0.333416
C60	C	1.755469	0.253107	0.666749
C61	C	1.090430	-0.330423	0.000088
C62	C	1.423763	0.002910	0.333421
C63	C	1.757096	0.336243	0.666755
C64	C	1.092463	-0.226109	0.000093
C65	C	1.425796	0.107224	0.333426
C66	C	1.759129	0.440558	0.666759
C67	C	1.258221	0.121553	0.000103
C68	C	1.591554	0.454886	0.333437
C69	C	1.924888	0.788219	0.666770
C70	C	1.360602	0.123541	0.000107
C71	C	1.693936	0.456874	0.333441
C72	C	2.027269	0.790207	0.666774
C73	C	1.083168	0.296605	0.000080
C74	C	1.416501	0.629939	0.333413
C75	C	1.749835	0.963272	0.666747
C76	C	1.085156	0.398987	0.000075
C77	C	1.418490	0.732320	0.333408
C78	C	1.751823	1.065653	0.666741
N79	N	1.089600	0.127993	0.206639
N80	N	1.422934	0.461326	0.539972
N81	N	1.756267	0.794660	0.873305
N82	N	1.089653	0.128014	-0.206459
N83	N	1.422986	0.461347	0.126874
N84	N	1.756319	0.794681	0.460208
C85	C	1.152212	0.065426	0.248365
C86	C	1.485546	0.398759	0.581698
C87	C	1.818879	0.732093	0.915031
C88	C	1.152217	0.065425	0.331817
C89	C	1.485551	0.398759	0.665150
C90	C	1.818884	0.732092	0.998484
C91	C	1.089614	0.127997	0.373542
C92	C	1.422948	0.461330	0.706875
C93	C	1.756281	0.794663	1.040208
C94	C	1.026996	0.190567	0.331810
C95	C	1.360329	0.523900	0.665143
C96	C	1.693662	0.857233	0.998476
C97	C	1.026987	0.190562	0.248359
C98	C	1.360320	0.523896	0.581692
C99	C	1.693654	0.857229	0.915026
C100	C	1.027029	0.190585	0.668357
C101	C	1.360362	0.523918	1.001690
C102	C	1.693696	0.857252	1.335024
C103	C	1.027045	0.190586	0.751813
C104	C	1.360378	0.523920	1.085147
C105	C	1.693711	0.857253	1.418480
C106	C	1.152260	0.065448	0.751815
C107	C	1.485593	0.398781	1.085148
C108	C	1.818926	0.732115	1.418481
C109	C	1.152251	0.065444	0.668364
C110	C	1.485584	0.398777	1.001697
C111	C	1.818917	0.732110	1.335031
C112	C	1.089629	0.128010	0.626640
C113	C	1.422963	0.461343	0.959973
C114	C	1.756296	0.794676	1.293306
C115	C	1.089623	0.128009	0.536151
C116	C	1.422957	0.461342	0.869485
C117	C	1.756290	0.794675	1.202818
C118	C	1.089624	0.128003	0.464028
C119	C	1.422957	0.461336	0.797362
C120	C	1.756291	0.794670	1.130695
H121	H	1.203195	0.014477	0.214398
H122	H	1.536528	0.347811	0.547731
H123	H	1.869861	0.681144	0.881065
H124	H	1.203200	0.014478	0.365790
H125	H	1.536533	0.347811	0.699123
H126	H	1.869867	0.681145	1.032456
H127	H	1.203231	0.014495	0.634394
H128	H	1.536564	0.347829	0.967728
H129	H	1.869898	0.681162	1.301061
H130	H	1.203247	0.014500	0.785796
H131	H	1.536580	0.347833	1.119129
H132	H	1.869913	0.681167	1.452462
H133	H	0.976062	0.241541	0.785784
H134	H	1.309395	0.574875	1.119118
H135	H	1.642729	0.908208	1.452451
H136	H	0.976042	0.241530	0.634391
H137	H	1.309376	0.574863	0.967725
H138	H	1.642709	0.908197	1.301058
H139	H	0.976018	0.241510	0.365787
H140	H	1.309352	0.574844	0.699120
H141	H	1.642685	0.908177	1.032453
H142	H	0.976001	0.241509	0.214386
H143	H	1.309334	0.574843	0.547720
H144	H	1.642667	0.908176	0.881053
