data_functionalizedCrystal
_audit_creation_method	'MofGen! by Chris Wilmer'
_symmetry_space_group_name_H-M	'P1'
_symmetry_Int_Tables_number	1
_symmetry_cell_setting	triclinic
loop_
_symmetry_equiv_pos_as_xyz
  x,y,z
_cell_length_a	21.395362
_cell_length_b	18.101397
_cell_length_c	21.395355
_cell_angle_alpha	90.019934
_cell_angle_beta	90.043940
_cell_angle_gamma	90.036343
loop_
_atom_site_label
_atom_site_type_symbol
_atom_site_fract_x
_atom_site_fract_y
_atom_site_fract_z
Zn1	Zn	0.957904	-0.294601	0.354579
Zn2	Zn	1.291237	0.038732	0.687913
Zn3	Zn	1.624571	0.372065	1.021246
Zn4	Zn	0.957825	-0.418425	0.249799
Zn5	Zn	1.291159	-0.085091	0.583133
Zn6	Zn	1.624492	0.248242	0.916466
Zn7	Zn	0.853119	-0.294636	0.249781
Zn8	Zn	1.186452	0.038697	0.583114
Zn9	Zn	1.519786	0.372031	0.916447
Zn10	Zn	0.853107	-0.418440	0.354504
Zn11	Zn	1.186440	-0.085107	0.687837
Zn12	Zn	1.519774	0.248227	1.021171
O13	O	0.905489	-0.356526	0.302166
O14	O	1.238822	-0.023192	0.635499
O15	O	1.572155	0.310141	0.968833
O16	O	1.045572	-0.311006	0.340720
O17	O	1.378905	0.022327	0.674053
O18	O	1.712238	0.355661	1.007386
O19	O	0.943908	-0.402012	0.162119
O20	O	1.277241	-0.068679	0.495452
O21	O	1.610575	0.264655	0.828786
O22	O	0.867057	-0.190998	0.263706
O23	O	1.200390	0.142335	0.597040
O24	O	1.533724	0.475668	0.930373
O25	O	1.045514	-0.401979	0.263738
O26	O	1.378847	-0.068645	0.597071
O27	O	1.712180	0.264688	0.930405
O28	O	0.944042	-0.190973	0.340701
O29	O	1.277375	0.142360	0.674035
O30	O	1.610709	0.475694	1.007368
O31	O	0.866981	-0.311065	0.162105
O32	O	1.200314	0.022268	0.495439
O33	O	1.533647	0.355602	0.828772
O34	O	0.765439	-0.311080	0.263633
O35	O	1.098773	0.022254	0.596967
O36	O	1.432106	0.355587	0.930300
O37	O	0.867036	-0.402005	0.442192
O38	O	1.200370	-0.068671	0.775525
O39	O	1.533703	0.264662	1.108859
O40	O	0.765431	-0.402038	0.340573
O41	O	1.098764	-0.068705	0.673906
O42	O	1.432097	0.264629	1.007240
O43	O	0.944030	-0.311021	0.442247
O44	O	1.277364	0.022312	0.775581
O45	O	1.610697	0.355646	1.108914
O46	O	0.943896	-0.522060	0.263665
O47	O	1.277229	-0.188726	0.596998
O48	O	1.610563	0.144607	0.930332
O49	O	0.866960	-0.522071	0.340591
O50	O	1.200293	-0.188738	0.673924
O51	O	1.533627	0.144596	1.007258
C52	C	0.742701	-0.356565	0.302093
C53	C	1.076034	-0.023231	0.635427
C54	C	1.409368	0.310102	0.968760
C55	C	0.673060	-0.356599	0.302077
C56	C	1.006393	-0.023266	0.635410
C57	C	1.339727	0.310067	0.968744
C58	C	0.905435	-0.548936	0.302136
C59	C	1.238769	-0.215603	0.635469
C60	C	1.572102	0.117731	0.968802
C61	C	0.905470	-0.631250	0.302144
C62	C	1.238803	-0.297917	0.635477
C63	C	1.572136	0.035416	0.968810
C64	C	0.640359	-0.404024	0.342080
C65	C	0.973692	-0.070691	0.675413
C66	C	1.307025	0.262643	1.008746
C67	C	0.574923	-0.404006	0.342107
C68	C	0.908256	-0.070673	0.675441
C69	C	1.241590	0.262661	1.008774
C70	C	0.542192	-0.356571	0.302122
C71	C	0.875525	-0.023237	0.635455
C72	C	1.208858	0.310096	0.968788
C73	C	0.574901	-0.309137	0.262116
C74	C	0.908234	0.024197	0.595450
C75	C	1.241567	0.357530	0.928783
C76	C	0.640335	-0.309151	0.262094
C77	C	0.973668	0.024182	0.595427
C78	C	1.307002	0.357516	0.928761
C79	C	0.438466	-0.350605	0.245717
C80	C	0.771799	-0.017271	0.579050
C81	C	1.105133	0.316062	0.912383
C82	C	0.373033	-0.350596	0.245738
C83	C	0.706366	-0.017262	0.579071
C84	C	1.039700	0.316071	0.912404
C85	C	0.340371	-0.356522	0.302191
C86	C	0.673704	-0.023189	0.635524
C87	C	1.007038	0.310144	0.968857
C88	C	0.373150	-0.362474	0.358624
C89	C	0.706483	-0.029140	0.691958
C90	C	1.039816	0.304193	1.025291
C91	C	0.438584	-0.362488	0.358602
C92	C	0.771917	-0.029155	0.691935
C93	C	1.105251	0.304179	1.025269
C94	C	0.471239	-0.356550	0.302142
C95	C	0.804573	-0.023216	0.635475
C96	C	1.137906	0.310117	0.968808
C97	C	0.236717	-0.403930	0.342227
C98	C	0.570050	-0.070597	0.675560
C99	C	0.903384	0.262737	1.008894
C100	C	0.171280	-0.403907	0.342256
C101	C	0.504614	-0.070573	0.675589
C102	C	0.837947	0.262760	1.008923
C103	C	0.171259	-0.309042	0.262259
C104	C	0.504593	0.024292	0.595593
C105	C	0.837926	0.357625	0.928926
C106	C	0.236695	-0.309061	0.262236
C107	C	0.570028	0.024272	0.595569
C108	C	0.903361	0.357606	0.928903
C109	C	0.269420	-0.356509	0.302219
C110	C	0.602753	-0.023176	0.635552
C111	C	0.936086	0.310157	0.968886
C112	C	0.905550	-0.930341	0.302201
C113	C	1.238883	-0.597008	0.635534
C114	C	1.572216	-0.263674	0.968867
C115	C	0.953821	-0.898978	0.253671
C116	C	1.287154	-0.565645	0.587004
C117	C	1.620487	-0.232311	0.920338
C118	C	0.953988	-0.813359	0.253797
C119	C	1.287321	-0.480026	0.587130
C120	C	1.620655	-0.146693	0.920464
C121	C	0.905510	-0.781959	0.302172
C122	C	1.238843	-0.448625	0.635505
C123	C	1.572177	-0.115292	0.968838
C124	C	0.923415	-0.812974	0.368221
C125	C	1.256748	-0.479641	0.701554
C126	C	1.590082	-0.146308	1.034887
C127	C	0.923789	-0.898619	0.367956
C128	C	1.257122	-0.565286	0.701290
C129	C	1.590455	-0.231953	1.034623
C130	C	0.839245	-0.898868	0.285253
C131	C	1.172578	-0.565535	0.618586
C132	C	1.505911	-0.232201	0.951920
C133	C	0.839572	-0.813218	0.283779
C134	C	1.172905	-0.479885	0.617112
C135	C	1.506239	-0.146552	0.950446
C136	C	0.905486	-0.698099	0.302159
C137	C	1.238820	-0.364766	0.635493
C138	C	1.572153	-0.031432	0.968826
C139	C	0.905575	-1.014201	0.302217
C140	C	1.238908	-0.680867	0.635551
C141	C	1.572241	-0.347534	0.968884
C142	C	1.068912	-0.356487	0.302239
C143	C	1.402245	-0.023153	0.635573
C144	C	1.735579	0.310180	0.968906
C145	C	1.138553	-0.356470	0.302271
C146	C	1.471887	-0.023137	0.635604
C147	C	1.805220	0.310196	0.968937
C148	C	0.905541	-0.356511	0.465589
C149	C	1.238874	-0.023177	0.798923
C150	C	1.572207	0.310156	1.132256
C151	C	0.905563	-0.356504	0.535231
C152	C	1.238896	-0.023171	0.868564
C153	C	1.572230	0.310163	1.201897
C154	C	0.905560	-0.163364	0.302210
C155	C	1.238893	0.169970	0.635543
C156	C	1.572226	0.503303	0.968877
C157	C	0.905590	-0.081050	0.302229
C158	C	1.238923	0.252284	0.635562
C159	C	1.572257	0.585617	0.968896
C160	C	0.905473	-0.356487	0.139378
C161	C	1.238806	-0.023154	0.472712
C162	C	1.572140	0.310180	0.806045
C163	C	0.905572	-0.356285	0.069737
C164	C	1.238906	-0.022951	0.403071
C165	C	1.572239	0.310382	0.736404
C166	C	0.945652	-0.309127	0.567974
C167	C	1.278985	0.024206	0.901307
C168	C	1.612319	0.357540	1.234640
C169	C	0.945651	-0.309095	0.633409
C170	C	1.278985	0.024238	0.966742
C171	C	1.612318	0.357572	1.300076
C172	C	0.905568	-0.356454	0.666099
C173	C	1.238901	-0.023120	0.999432
C174	C	1.572235	0.310213	1.332766
C175	C	0.865471	-0.403834	0.633348
C176	C	1.198804	-0.070501	0.966681
C177	C	1.532138	0.262832	1.300015
C178	C	0.865469	-0.403859	0.567914
C179	C	1.198802	-0.070526	0.901247
C180	C	1.532135	0.262807	1.234581
C181	C	0.900602	-0.423137	0.769761
C182	C	1.233935	-0.089803	1.103095
C183	C	1.567269	0.243530	1.436428
C184	C	0.900609	-0.423113	0.835194
C185	C	1.233942	-0.089779	1.168528
C186	C	1.567275	0.243554	1.501861
C187	C	0.905572	-0.356375	0.867920
C188	C	1.238905	-0.023042	1.201253
C189	C	1.572238	0.310291	1.534586
C190	C	0.910541	-0.289660	0.835204
C191	C	1.243874	0.043673	1.168538
C192	C	1.577208	0.377007	1.501871
C193	C	0.910539	-0.289685	0.769770
C194	C	1.243872	0.043648	1.103103
C195	C	1.577205	0.376981	1.436437
C196	C	0.905566	-0.356431	0.737051
C197	C	1.238899	-0.023098	1.070385
C198	C	1.572232	0.310235	1.403718
C199	C	0.945662	-0.308960	0.971615
C200	C	1.278995	0.024374	1.304949
C201	C	1.612329	0.357707	1.638282
C202	C	0.945657	-0.308927	1.037052
C203	C	1.278990	0.024407	1.370385
C204	C	1.612323	0.357740	1.703719
C205	C	0.865480	-0.403672	1.036990
C206	C	1.198813	-0.070339	1.370323
C207	C	1.532147	0.262994	1.703657
C208	C	0.865482	-0.403699	0.971555
C209	C	1.198815	-0.070365	1.304888
C210	C	1.532148	0.262968	1.638221
C211	C	0.905576	-0.356344	0.938871
C212	C	1.238910	-0.023010	1.272204
C213	C	1.572243	0.310323	1.605538
H214	H	0.666999	-0.442659	0.374638
H215	H	1.000332	-0.109326	0.707971
H216	H	1.333666	0.224008	1.041304
H217	H	0.914583	-0.235316	0.861848
H218	H	1.247917	0.098017	1.195181
H219	H	1.581250	0.431350	1.528514
H220	H	0.801671	-0.791852	0.316535
H221	H	1.135004	-0.458519	0.649869
H222	H	1.468338	-0.125186	0.983202
Cl223	Cl	0.815083	-0.463203	1.078080
Cl224	Cl	1.148416	-0.129870	1.411413
Cl225	Cl	1.481750	0.203464	1.744746
Cl226	Cl	0.996040	-0.249516	0.674580
Cl227	Cl	1.329373	0.083818	1.007914
Cl228	Cl	1.662707	0.417151	1.341247
H229	H	0.832841	-0.442283	0.944895
H230	H	1.166174	-0.108950	1.278228
H231	H	1.499507	0.224384	1.611562
Cl232	Cl	0.870790	-0.781582	0.425551
Cl233	Cl	1.204124	-0.448249	0.758884
Cl234	Cl	1.537457	-0.114915	1.092217
Cl235	Cl	0.277860	-0.463573	0.392494
Cl236	Cl	0.611193	-0.130240	0.725827
Cl237	Cl	0.944527	0.203093	1.059161
Cl238	Cl	0.894368	-0.506983	0.876316
Cl239	Cl	1.227701	-0.173649	1.209649
Cl240	Cl	1.561034	0.159684	1.542983
H241	H	0.346558	-0.367299	0.404594
H242	H	0.679891	-0.033965	0.737927
H243	H	1.013224	0.299368	1.071261
Cl244	Cl	0.533754	-0.249500	0.211851
Cl245	Cl	0.867087	0.083833	0.545185
Cl246	Cl	1.200420	0.417166	0.878518
Cl247	Cl	0.996053	-0.249590	0.526889
Cl248	Cl	1.329386	0.083743	0.860223
Cl249	Cl	1.662719	0.417076	1.193556
H250	H	0.144656	-0.442524	0.374835
H251	H	0.477989	-0.109191	0.708168
H252	H	0.811323	0.224142	1.041501
H253	H	0.978306	-0.270396	0.945003
H254	H	1.311639	0.062937	1.278337
H255	H	1.644972	0.396271	1.611670
H256	H	0.832833	-0.442392	0.659968
H257	H	1.166166	-0.109058	0.993302
H258	H	1.499500	0.224275	1.326635
Cl259	Cl	0.894381	-0.507045	0.728628
Cl260	Cl	1.227715	-0.173712	1.061961
Cl261	Cl	1.561048	0.159621	1.395295
H262	H	0.832820	-0.442439	0.541255
H263	H	1.166154	-0.109105	0.874588
H264	H	1.499487	0.224228	1.207922
Cl265	Cl	1.029238	-0.932097	0.270786
Cl266	Cl	1.362571	-0.598764	0.604120
Cl267	Cl	1.695905	-0.265430	0.937453
Cl268	Cl	0.331832	-0.343113	0.174794
Cl269	Cl	0.665165	-0.009780	0.508127
Cl270	Cl	0.998499	0.323553	0.841461
Cl271	Cl	0.533804	-0.463630	0.392400
Cl272	Cl	0.867137	-0.130297	0.725733
Cl273	Cl	1.200471	0.203036	1.059067
H274	H	0.890171	-0.919365	0.405362
H275	H	1.223504	-0.586032	0.738695
H276	H	1.556837	-0.252698	1.072028
Cl277	Cl	1.029817	-0.781615	0.271117
Cl278	Cl	1.363150	-0.448282	0.604450
Cl279	Cl	1.696484	-0.114949	0.937783
Cl280	Cl	0.997406	-0.779753	0.390757
Cl281	Cl	1.330739	-0.446420	0.724090
Cl282	Cl	1.664073	-0.113087	1.057424
Cl283	Cl	0.996069	-0.249373	1.078215
Cl284	Cl	1.329403	0.083961	1.411549
Cl285	Cl	1.662736	0.417294	1.744882
Cl286	Cl	0.277807	-0.249440	0.211942
Cl287	Cl	0.611141	0.083894	0.545275
Cl288	Cl	0.944474	0.417227	0.878609
Cl289	Cl	0.479790	-0.369965	0.429543
Cl290	Cl	0.813123	-0.036631	0.762877
Cl291	Cl	1.146456	0.296702	1.096210
H292	H	0.822957	-0.920524	0.237924
H293	H	1.156290	-0.587190	0.571258
H294	H	1.489623	-0.253857	0.904591
H295	H	0.144610	-0.270415	0.229705
H296	H	0.477943	0.062918	0.563038
H297	H	0.811277	0.396251	0.896372
H298	H	0.465054	-0.345775	0.199743
H299	H	0.798387	-0.012442	0.533076
H300	H	1.131721	0.320891	0.866409
Cl301	Cl	0.681447	-0.249527	0.211801
Cl302	Cl	1.014781	0.083807	0.545134
Cl303	Cl	1.348114	0.417140	0.878467
Cl304	Cl	0.916780	-0.205819	0.728644
Cl305	Cl	1.250114	0.127515	1.061977
Cl306	Cl	1.583447	0.460848	1.395311
H307	H	0.942753	-0.919614	0.204551
H308	H	1.276087	-0.586281	0.537884
H309	H	1.609420	-0.252947	0.871218
H310	H	0.942785	-0.792391	0.204823
H311	H	1.276119	-0.459057	0.538157
H312	H	1.609452	-0.125724	0.871490
H313	H	0.826071	-0.792953	0.235172
H314	H	1.159404	-0.459620	0.568506
H315	H	1.492738	-0.126287	0.901839
Cl316	Cl	0.998617	-0.929356	0.390115
Cl317	Cl	1.331950	-0.596023	0.723448
Cl318	Cl	1.665283	-0.262690	1.056781
H319	H	0.803279	-0.919153	0.320599
H320	H	1.136612	-0.585820	0.653932
H321	H	1.469946	-0.252487	0.987266
