data_functionalizedCrystal
_audit_creation_method	'MofGen! by Chris Wilmer'
_symmetry_space_group_name_H-M	'P1'
_symmetry_Int_Tables_number	1
_symmetry_cell_setting	triclinic
loop_
_symmetry_equiv_pos_as_xyz
  x,y,z
_cell_length_a	12.759401
_cell_length_b	10.686285
_cell_length_c	12.759401
_cell_angle_alpha	94.375606
_cell_angle_beta	90.001690
_cell_angle_gamma	85.631983
loop_
_atom_site_label
_atom_site_type_symbol
_atom_site_fract_x
_atom_site_fract_y
_atom_site_fract_z
Zn1	Zn	1.638243	-0.502520	0.561947
Zn2	Zn	1.651691	-0.713480	0.372820
Zn3	Zn	1.462596	-0.502508	0.386288
Zn4	Zn	1.476035	-0.713461	0.548463
O5	O	1.557141	-0.607992	0.467379
O6	O	1.787049	-0.530517	0.536867
O7	O	1.626611	-0.685497	0.227585
O8	O	1.474644	-0.325938	0.420869
O9	O	1.796929	-0.685509	0.397915
O10	O	1.603691	-0.325947	0.549926
O11	O	1.487684	-0.530497	0.237480
O12	O	1.317357	-0.530479	0.407793
O13	O	1.497548	-0.685476	0.697273
O14	O	1.327230	-0.685464	0.526943
O15	O	1.616722	-0.530499	0.707180
O16	O	1.639642	-0.890049	0.384840
O17	O	1.510588	-0.890035	0.513883
C18	C	1.284172	-0.607969	0.467367
C19	C	1.167397	-0.607990	0.467384
C20	C	1.117712	-0.688820	0.529306
C21	C	1.007989	-0.688836	0.529316
C22	C	0.997646	-0.527188	0.405475
C23	C	1.107366	-0.527166	0.405471
C24	C	1.123683	-0.782150	0.600801
C25	C	1.013960	-0.782166	0.600812
C26	C	1.578061	-0.935825	0.446460
C27	C	1.587106	-1.076073	0.437545
C28	C	1.831176	-0.608017	0.467393
C29	C	1.947953	-0.608027	0.467399
C30	C	1.557134	-0.607987	0.741413
C31	C	1.557131	-0.607984	0.858190
C32	C	1.536169	-0.278879	0.488404
C33	C	1.527231	-0.138631	0.497363
C34	C	1.484806	-0.527285	0.918209
C35	C	1.484808	-0.527297	1.027933
C36	C	1.629471	-0.688710	1.017607
C37	C	1.629462	-0.688704	0.907885
C38	C	1.401289	-0.434091	0.924172
C39	C	1.401291	-0.434103	1.033895
C40	C	1.557141	-0.608020	1.194410
C41	C	1.557142	-0.608002	1.077635
H42	H	0.977709	-0.747318	0.680385
H43	H	1.147815	-0.461338	0.355056
H44	H	1.163643	-0.874916	0.565603
H45	H	1.424521	-0.341265	0.896073
H46	H	1.645284	-1.129816	0.379501
H47	H	1.326224	-0.469098	1.065690
O48	O	1.707475	-0.775772	1.071214
H49	H	1.757759	-0.831896	1.011041
O50	O	1.707475	-0.775733	0.843145
H51	H	1.757781	-0.831846	0.896139
O52	O	0.982775	-0.911560	0.563501
H53	H	0.895781	-0.911493	0.563543
O54	O	1.295712	-0.468728	0.882504
H55	H	1.244033	-0.485707	0.949121
O56	O	1.421930	-0.304673	1.081632
H57	H	1.432043	-0.241302	1.017985
H58	H	1.151801	-0.756125	0.683867
O59	O	0.932902	-0.440047	0.338670
H60	H	0.848259	-0.453652	0.349062
O61	O	1.450167	-1.067466	0.574249
H62	H	1.454928	-0.964783	0.569433
