data_functionalizedCrystal
_audit_creation_method	'MofGen! by Chris Wilmer'
_symmetry_space_group_name_H-M	'P1'
_symmetry_Int_Tables_number	1
_symmetry_cell_setting	triclinic
loop_
_symmetry_equiv_pos_as_xyz
  x,y,z
_cell_length_a	10.065875
_cell_length_b	10.723024
_cell_length_c	10.723024
_cell_angle_alpha	84.467869
_cell_angle_beta	98.874314
_cell_angle_gamma	81.168913
loop_
_atom_site_label
_atom_site_type_symbol
_atom_site_fract_x
_atom_site_fract_y
_atom_site_fract_z
O1	O	0.113481	-1.675288	-0.156842
O2	O	0.613481	-1.175288	0.343158
O3	O	0.113485	-1.312136	-0.173595
O4	O	0.613485	-0.812136	0.326405
O5	O	0.113478	-1.502088	0.016357
O6	O	0.613478	-1.002088	0.516357
O7	O	0.113488	-1.485336	-0.346794
O8	O	0.613488	-0.985336	0.153206
O9	O	-0.113509	-1.465868	-0.020011
O10	O	0.386491	-0.965868	0.479989
O11	O	-0.113502	-1.275917	-0.209963
O12	O	0.386498	-0.775917	0.290037
O13	O	-0.113506	-1.639068	-0.193210
O14	O	0.386494	-1.139068	0.306790
Zn15	Zn	-0.149543	-1.451742	-0.207361
Zn16	Zn	0.350457	-0.951742	0.292639
Zn17	Zn	0.149522	-1.499463	-0.159444
Zn18	Zn	0.649522	-0.999463	0.340556
O19	O	-0.113499	-1.449117	-0.383162
O20	O	0.386501	-0.949117	0.116838
C21	C	-0.000008	-1.247527	-0.190560
C22	C	0.499992	-0.747527	0.309440
C23	C	-0.000006	-1.108973	-0.186912
C24	C	0.499994	-0.608973	0.313088
N25	N	-0.353648	-1.419182	-0.240061
N26	N	0.146352	-0.919182	0.259939
C27	C	-0.000014	-1.482759	0.044673
C28	C	0.499986	-0.982759	0.544673
C29	C	-0.000009	-1.479112	0.183228
C30	C	0.499991	-0.979112	0.683228
C31	C	-0.421429	-1.488127	-0.170814
C32	C	0.078571	-0.988127	0.329186
C33	C	-0.578595	-1.463078	-0.195991
C34	C	-0.078595	-0.963078	0.304009
N35	N	0.353627	-1.532032	-0.126734
N36	N	0.853627	-1.032032	0.373266
C37	C	-0.000010	-1.703678	-0.176245
C38	C	0.499990	-1.203678	0.323755
C39	C	-0.000003	-1.842234	-0.179892
C40	C	0.499997	-1.342234	0.320108
C41	C	-0.000002	-1.033991	-0.293199
C42	C	0.499998	-0.533991	0.206801
C43	C	-0.000001	-0.890788	-0.289431
C44	C	0.499999	-0.390788	0.210569
C45	C	-0.000004	-1.468446	-0.411477
C46	C	0.499996	-0.968446	0.088523
C47	C	0.000000	-1.472094	-0.550031
C48	C	0.500000	-0.972094	-0.050031
C49	C	-0.000009	-1.585400	0.258210
C50	C	0.499991	-1.085400	0.758210
C51	C	-0.000004	-1.581633	0.401415
C52	C	0.499996	-1.081633	0.901415
H53	H	-0.363108	-1.565693	-0.092884
H54	H	0.136892	-1.065693	0.407116
H55	H	0.000026	-1.067156	-0.093121
H56	H	0.500026	-0.567156	0.406879
F57	F	0.000003	-0.926441	-0.060950
F58	F	0.500003	-0.426441	0.439050
H59	H	-0.000010	-1.381097	0.385542
H60	H	0.499990	-0.881097	0.885542
H61	H	-0.411971	-1.341607	-0.317982
H62	H	0.088029	-0.841607	0.182018
H63	H	0.000001	-1.385328	0.225052
H64	H	0.500001	-0.885328	0.725052
F65	F	-0.654817	-1.361674	-0.297846
F66	F	-0.154817	-0.861674	0.202154
H67	H	-0.588055	-1.609603	-0.048799
H68	H	-0.088055	-1.109603	0.451201
F69	F	-0.000002	-1.707991	0.203554
F70	F	0.499998	-1.207991	0.703554
F71	F	-0.000003	-1.088648	-0.415788
F72	F	0.499997	-0.588648	0.084212
F73	F	0.000014	-0.806576	-0.408365
F74	F	0.500014	-0.306576	0.091635
H75	H	-0.000009	-1.672623	0.465846
H76	H	0.499991	-1.172623	0.965846
