data_functionalizedCrystal
_audit_creation_method	'MofGen! by Chris Wilmer'
_symmetry_space_group_name_H-M	'P1'
_symmetry_Int_Tables_number	1
_symmetry_cell_setting	triclinic
loop_
_symmetry_equiv_pos_as_xyz
  x,y,z
_cell_length_a	16.959455
_cell_length_b	19.121063
_cell_length_c	16.959447
_cell_angle_alpha	92.406654
_cell_angle_beta	89.983056
_cell_angle_gamma	92.465894
loop_
_atom_site_label
_atom_site_type_symbol
_atom_site_fract_x
_atom_site_fract_y
_atom_site_fract_z
Zn1	Zn	1.194936	-0.279656	-0.460312
Zn2	Zn	1.189196	-0.397116	-0.333763
Zn3	Zn	1.062757	-0.279678	-0.328150
Zn4	Zn	1.057075	-0.397064	-0.465899
O5	O	1.125991	-0.338378	-0.397031
O6	O	1.304785	-0.295250	-0.443535
O7	O	1.172399	-0.381569	-0.222409
O8	O	1.085072	-0.181391	-0.340995
O9	O	1.300567	-0.381548	-0.350560
O10	O	1.182183	-0.181374	-0.438093
O11	O	1.079505	-0.295288	-0.218285
O12	O	0.951393	-0.295237	-0.346412
O13	O	1.075387	-0.381458	-0.575767
O14	O	0.947218	-0.381480	-0.447615
O15	O	1.176673	-0.295199	-0.571662
O16	O	1.166889	-0.495394	-0.355978
O17	O	1.069820	-0.495355	-0.453058
C18	C	0.920626	-0.338355	-0.397012
C19	C	0.832769	-0.338362	-0.397023
C20	C	0.463444	-0.293435	-0.344438
C21	C	0.459138	-0.383380	-0.449671
C22	C	0.541685	-0.383370	-0.449666
C23	C	0.585114	-0.338392	-0.397045
C24	C	0.545998	-0.293425	-0.344430
C25	C	0.580807	-0.428341	-0.502275
C26	C	0.663359	-0.428333	-0.502272
C27	C	0.706790	-0.383352	-0.449654
C28	C	0.667668	-0.338382	-0.397037
C29	C	0.711098	-0.293405	-0.344416
C30	C	0.671978	-0.248431	-0.291802
C31	C	0.589429	-0.248443	-0.291812
C32	C	0.789339	-0.383340	-0.449644
C33	C	0.793652	-0.293395	-0.344407
C34	C	1.117136	-0.520858	-0.405750
C35	C	1.113421	-0.598924	-0.409507
C36	C	1.162253	-0.635596	-0.360769
C37	C	1.158763	-0.708947	-0.364307
C38	C	1.106437	-0.745625	-0.416579
C39	C	1.057602	-0.708947	-0.465322
C40	C	1.061097	-0.635598	-0.461787
C41	C	1.093359	-0.967093	-0.429780
C42	C	1.089867	-1.040448	-0.433309
C43	C	1.191029	-1.040443	-0.332295
C44	C	1.194515	-0.967092	-0.328762
C45	C	1.145684	-0.930421	-0.377508
C46	C	1.102866	-0.820601	-0.420194
C47	C	1.149259	-0.855446	-0.373896
C48	C	1.332158	-0.338402	-0.397051
C49	C	1.420014	-0.338412	-0.397059
C50	C	1.126036	-0.338320	-0.603196
C51	C	1.126055	-0.338295	-0.691052
C52	C	1.134901	-0.155186	-0.388295
C53	C	1.138699	-0.077120	-0.384572
C54	C	1.077763	-0.293298	-1.060383
C55	C	1.174494	-0.383144	-1.064665
C56	C	1.174479	-0.383160	-0.982120
C57	C	1.126105	-0.338246	-0.938703
C58	C	1.077745	-0.293315	-0.977831
C59	C	1.222832	-0.428096	-0.942985
C60	C	1.222819	-0.428115	-0.860435
C61	C	1.174448	-0.383196	-0.817017
C62	C	1.126087	-0.338262	-0.856150
C63	C	1.077713	-0.293348	-0.812733
C64	C	1.029356	-0.248410	-0.851864
C65	C	1.029375	-0.248396	-0.934412
C66	C	1.174430	-0.383210	-0.734469
C67	C	1.077696	-0.293364	-0.730180
C68	C	1.125994	-0.338386	-0.191665
C69	C	1.126137	-0.338213	-0.103800
H70	H	0.423773	-0.420002	-0.492509
H71	H	1.213872	-0.419717	-1.100020
F72	F	1.041387	-0.928075	-0.481660
H73	H	1.230785	-1.070308	-0.292611
F74	F	0.421810	-0.245570	-0.288449
F75	F	0.534582	-0.476224	-0.558255
F76	F	1.026303	-0.245472	-1.102029
H77	H	0.821187	-0.419959	-0.492479
H78	H	0.557570	-0.211829	-0.248975
H79	H	1.204859	-0.605738	-0.318201
F80	F	1.250217	-0.928062	-0.273136
H81	H	1.198527	-0.738802	-0.324619
F82	F	1.204950	-0.816410	-0.318270
F83	F	0.704986	-0.476197	-0.558269
H84	H	1.015000	-0.738816	-0.507886
H85	H	1.021334	-0.605740	-0.501476
H86	H	1.047265	-1.070309	-0.475889
F87	F	1.047177	-0.859642	-0.475824
H88	H	1.038307	-0.256785	-0.694835
H89	H	1.262207	-0.464671	-0.978342
H90	H	0.989966	-0.211843	-0.816503
H91	H	0.990004	-0.211811	-0.966280
H92	H	1.213807	-0.419792	-0.702611
F93	F	0.839867	-0.245519	-0.288403
F94	F	0.718208	-0.200568	-0.235796
H95	H	1.262194	-0.464706	-0.828582
