data_functionalizedCrystal
_audit_creation_method	'MofGen! by Chris Wilmer'
_symmetry_space_group_name_H-M	'P1'
_symmetry_Int_Tables_number	1
_symmetry_cell_setting	triclinic
loop_
_symmetry_equiv_pos_as_xyz
  x,y,z
_cell_length_a	12.759395
_cell_length_b	12.594516
_cell_length_c	12.759387
_cell_angle_alpha	89.969834
_cell_angle_beta	89.978972
_cell_angle_gamma	90.012577
loop_
_atom_site_label
_atom_site_type_symbol
_atom_site_fract_x
_atom_site_fract_y
_atom_site_fract_z
Zn1	Zn	1.606290	-0.423664	-0.594024
Zn2	Zn	1.606189	-0.601682	-0.418347
Zn3	Zn	1.430588	-0.423720	-0.418360
Zn4	Zn	1.430589	-0.601604	-0.593984
O5	O	1.518414	-0.512667	-0.506179
O6	O	1.753297	-0.447288	-0.570732
O7	O	1.582853	-0.578131	-0.271327
O8	O	1.453937	-0.274767	-0.441684
O9	O	1.753224	-0.578077	-0.441662
O10	O	1.583024	-0.274726	-0.570744
O11	O	1.453839	-0.447383	-0.271337
O12	O	1.283567	-0.447307	-0.441645
O13	O	1.453939	-0.577944	-0.741011
O14	O	1.283568	-0.577998	-0.570676
O15	O	1.583025	-0.447212	-0.741040
O16	O	1.582854	-0.750617	-0.441623
O17	O	1.453841	-0.750560	-0.570663
C18	C	1.245447	-0.512651	-0.506158
C19	C	1.128670	-0.512669	-0.506174
C20	C	1.518365	-0.789208	-0.506160
C21	C	1.518441	-0.907514	-0.506188
C22	C	0.909312	-0.376722	-0.640826
C23	C	0.964217	-0.308726	-0.708123
C24	C	1.073938	-0.308708	-0.708104
C25	C	1.128758	-0.376695	-0.640785
C26	C	1.073853	-0.444691	-0.573489
C27	C	0.964129	-0.444700	-0.573512
C28	C	1.073765	-0.580665	-0.438878
C29	C	0.964043	-0.580680	-0.438889
C30	C	1.128585	-0.648653	-0.371559
C31	C	1.073680	-0.716645	-0.304256
C32	C	0.963952	-0.716659	-0.304276
C33	C	0.909139	-0.648676	-0.371593
C34	C	1.588692	-0.976759	-0.436078
C35	C	1.614370	-1.047452	-0.531971
C36	C	1.492894	-1.047620	-0.410356
C37	C	1.544167	-0.976648	-0.602131
C38	C	1.422647	-0.976810	-0.480451
C39	C	1.448289	-1.047471	-0.576411
C40	C	1.792447	-0.512685	-0.506200
C41	C	1.909224	-0.512692	-0.506209
C42	C	1.518493	-0.512563	-0.780212
C43	C	1.518527	-0.512519	-0.896989
C44	C	1.518491	-0.235047	-0.506220
C45	C	1.518525	-0.116741	-0.506238
C46	C	1.652954	-0.376397	-0.897040
C47	C	1.720182	-0.308321	-0.951926
C48	C	1.720208	-0.308282	-1.061647
C49	C	1.652996	-0.376325	-1.116485
C50	C	1.585768	-0.444401	-1.061599
C51	C	1.585752	-0.444435	-0.951875
C52	C	1.451337	-0.580516	-1.061549
C53	C	1.451315	-0.580562	-0.951827
C54	C	1.384125	-0.648559	-1.116387
C55	C	1.316901	-0.716642	-1.061501
C56	C	1.316879	-0.716679	-0.951773
C57	C	1.384087	-0.648638	-0.896941
C58	C	1.518395	-0.512695	-0.233211
C59	C	1.518565	-0.512439	-0.116435
H60	H	0.819971	-0.376707	-0.640825
O61	O	1.384153	-0.648719	-1.222970
C62	C	1.411126	-0.750717	-1.259607
H63	H	1.393136	-0.812040	-1.196359
H64	H	1.498304	-0.752984	-1.279086
C65	C	1.369225	-0.700915	-1.436432
C66	C	1.347120	-0.776235	-1.358754
H67	H	1.329747	-0.716656	-1.497594
H68	H	1.351056	-0.632196	-1.411751
H69	H	1.441874	-0.702813	-1.452652
H70	H	1.274475	-0.774327	-1.342526
H71	H	1.365276	-0.844955	-1.383435
H72	H	1.471253	-1.078794	-0.329291
O73	O	1.126767	-0.782784	-0.238838
C74	C	1.054783	-0.842779	-0.179418
H75	H	0.976587	-0.846524	-0.222449
H76	H	1.043086	-0.803706	-0.099693
C77	C	1.193627	-0.951439	-0.111229
C78	C	1.097587	-0.956046	-0.164085
H79	H	1.220030	-1.021306	-0.101766
H80	H	1.242124	-0.911017	-0.151258
H81	H	1.183865	-0.918874	-0.044797
H82	H	1.107352	-0.988599	-0.230521
H83	H	1.049092	-0.996477	-0.124067
H84	H	0.919571	-0.253375	-0.762935
H85	H	0.919255	-0.772035	-0.249479
H86	H	1.774944	-0.252841	-1.106335
H87	H	1.695416	-1.078484	-0.553767
H88	H	1.118641	-0.253342	-0.762904
H89	H	1.218099	-0.376684	-0.640786
O90	O	1.569931	-0.939676	-0.698935
C91	C	1.496290	-0.976568	-0.772800
H92	H	1.419806	-0.996939	-0.731181
H93	H	1.528257	-1.050487	-0.813228
C94	C	1.569926	-0.864475	-0.906211
C95	C	1.475983	-0.889486	-0.855095
H96	H	1.557402	-0.810762	-0.956978
H97	H	1.619542	-0.839622	-0.856449
H98	H	1.596555	-0.926082	-0.939893
H99	H	1.449363	-0.827883	-0.821404
H100	H	1.426362	-0.914326	-0.904854
H101	H	1.652950	-0.376432	-0.807698
O102	O	1.659650	-0.939887	-0.365397
C103	C	1.710045	-1.026336	-0.316507
H104	H	1.704662	-1.099204	-0.369196
H105	H	1.670305	-1.043879	-0.238352
C106	C	1.832661	-0.909142	-0.232789
C107	C	1.826056	-0.998637	-0.297507
H108	H	1.904221	-0.892055	-0.221064
H109	H	1.798707	-0.850899	-0.265723
H110	H	1.799538	-0.923773	-0.167667
H111	H	1.859167	-0.984000	-0.362631
H112	H	1.860019	-1.056877	-0.264583
H113	H	1.388915	-1.078323	-0.635790
O114	O	1.325940	-0.939930	-0.454356
C115	C	1.258357	-1.026374	-0.435181
H116	H	1.306653	-1.099286	-0.413510
H117	H	1.210577	-1.043812	-0.508669
C118	C	1.124517	-0.909201	-0.370852
C119	C	1.183835	-0.998751	-0.344228
H120	H	1.078544	-0.892161	-0.314752
H121	H	1.170047	-0.850961	-0.383774
H122	H	1.084710	-0.923744	-0.432095
H123	H	1.223650	-0.984202	-0.282995
H124	H	1.138309	-1.056988	-0.331294
H125	H	1.217926	-0.648639	-0.371555
O126	O	1.785327	-0.242180	-0.898538
C127	C	1.725531	-0.173426	-0.835088
H128	H	1.645891	-0.210952	-0.818631
H129	H	1.714032	-0.094529	-0.877384
C130	C	1.881141	-0.108121	-0.751089
C131	C	1.783329	-0.154214	-0.730869
H132	H	1.916795	-0.096265	-0.686803
H133	H	1.921428	-0.154438	-0.793838
H134	H	1.871545	-0.042378	-0.786338
H135	H	1.792927	-0.219961	-0.695633
H136	H	1.743045	-0.107907	-0.688111
H137	H	1.262177	-0.772032	-1.106159
O138	O	1.653178	-0.376179	-1.223068
C139	C	1.726900	-0.301477	-1.259753
H140	H	1.788280	-0.286604	-1.196539
H141	H	1.685270	-0.223853	-1.279221
C142	C	1.705364	-0.363092	-1.436559
C143	C	1.780757	-0.344831	-1.358922
H144	H	1.738583	-0.389831	-1.497734
H145	H	1.655693	-0.413417	-1.411846
H146	H	1.670678	-0.298400	-1.452770
H147	H	1.815432	-0.409524	-1.342703
H148	H	1.830436	-0.294517	-1.383635
H149	H	0.819798	-0.648668	-0.371603
O150	O	1.251546	-0.782919	-0.898622
C151	C	1.192220	-0.842944	-0.970556
H152	H	1.235264	-0.846595	-1.048779
H153	H	1.112439	-0.803957	-0.982211
C154	C	1.124174	-0.951760	-0.831649
C155	C	1.177045	-0.956252	-0.927721
H156	H	1.114808	-1.021653	-0.805225
H157	H	1.164139	-0.911318	-0.783184
H158	H	1.057695	-0.919266	-0.841374
H159	H	1.243527	-0.988733	-0.917992
H160	H	1.137090	-0.996702	-0.976183
H161	H	1.384080	-0.648666	-0.807600
