data_functionalizedCrystal
_audit_creation_method	'MofGen! by Chris Wilmer'
_symmetry_space_group_name_H-M	'P1'
_symmetry_Int_Tables_number	1
_symmetry_cell_setting	triclinic
loop_
_symmetry_equiv_pos_as_xyz
  x,y,z
_cell_length_a	19.188930
_cell_length_b	10.540539
_cell_length_c	9.616153
_cell_angle_alpha	90.004826
_cell_angle_beta	89.992615
_cell_angle_gamma	96.164863
loop_
_atom_site_label
_atom_site_type_symbol
_atom_site_fract_x
_atom_site_fract_y
_atom_site_fract_z
O1	O	0.098389	-1.683724	-0.115598
O2	O	0.107659	-1.314107	-0.115617
O3	O	0.001439	-1.509582	-0.115579
O4	O	0.204608	-1.488249	-0.115635
O5	O	0.001441	-1.509555	0.115712
O6	O	0.107661	-1.314080	0.115675
O7	O	0.098391	-1.683697	0.115694
Zn8	Zn	0.103026	-1.498885	0.152407
Zn9	Zn	0.103023	-1.498920	-0.152330
O10	O	0.204610	-1.488222	0.115657
C11	C	0.106965	-1.266806	0.000027
C12	C	0.104885	-1.125904	0.000021
C13	C	-0.024575	-1.508878	0.000070
C14	C	-0.102094	-1.506804	0.000082
N15	N	0.103028	-1.498870	0.360381
C16	C	-0.146253	-1.621502	0.000095
C17	C	-0.219090	-1.619554	0.000072
C18	C	-0.247764	-1.502901	0.000065
C19	C	-0.203595	-1.388187	0.000045
C20	C	-0.130760	-1.390139	0.000053
N21	N	-0.356363	-1.413724	0.078774
N22	N	-0.425554	-1.411878	0.078769
C23	C	-0.467212	-1.497014	0.000037
N24	N	-0.437067	-1.584085	-0.078672
N25	N	-0.367870	-1.585935	-0.078661
C26	C	-0.326741	-1.500772	0.000055
C27	C	-0.590350	-1.609608	0.000023
C28	C	-0.663188	-1.607655	-0.000008
C29	C	-0.647691	-1.376285	-0.000021
C30	C	-0.574855	-1.378241	-0.000004
C31	C	-0.546189	-1.494906	0.000025
C32	C	0.230625	-1.488927	0.000004
C33	C	0.308143	-1.491000	-0.000017
C34	C	0.099085	-1.730998	0.000047
C35	C	0.101165	-1.871901	0.000044
C36	C	0.025184	-0.944233	0.000583
C37	C	0.027292	-1.090805	0.000047
C38	C	0.142224	-1.063423	-0.132063
C39	C	0.139576	-0.916937	-0.132158
C40	C	0.141157	-0.916384	0.130863
C41	C	0.141872	-1.063350	0.132594
N42	N	0.103016	-1.498945	-0.360304
C43	C	0.159658	-1.393992	0.580731
C44	C	0.159870	-1.394216	0.419564
C45	C	0.119601	-1.631228	0.418832
C46	C	0.120002	-1.630655	0.580050
C47	C	0.029640	-1.472715	0.580311
C48	C	0.030115	-1.469658	0.419084
H49	H	-0.122918	-1.716500	0.000113
Cl50	Cl	0.202653	-1.666432	0.638069
Cl51	Cl	-0.018192	-1.156240	-0.146616
H52	H	0.080409	-1.711170	0.619052
H53	H	-0.094804	-1.296735	0.000044
Cl54	Cl	0.057646	-1.754653	0.359650
Cl55	Cl	0.005300	-1.326958	0.643157
H56	H	0.197202	-0.867922	0.131740
H57	H	-0.002088	-1.134055	0.094731
H58	H	0.149898	-1.295819	0.380047
H59	H	0.111977	-0.889346	-0.230877
H60	H	-0.699142	-1.701060	-0.000005
H61	H	0.172529	-1.654959	0.378429
Cl62	Cl	-0.274615	-1.763757	0.000087
Cl63	Cl	-0.519337	-1.234040	-0.000013
H64	H	0.114594	-1.104902	0.230309
Cl65	Cl	-0.239641	-1.241538	0.000025
Cl66	Cl	-0.022143	-0.901118	0.146833
H67	H	0.116284	-1.106595	-0.230348
Cl68	Cl	-0.554309	-1.756269	0.000067
Cl69	Cl	-0.021950	-0.898646	-0.144817
H70	H	-0.671037	-1.281303	-0.000034
H71	H	0.116047	-0.885379	0.230981
H72	H	0.195380	-0.867739	-0.138168
H73	H	0.199206	-1.084521	-0.136992
H74	H	0.017553	-1.372296	0.380883
H75	H	-0.014059	-1.541158	0.378804
H76	H	-0.012519	-1.549256	0.618442
H77	H	0.198442	-1.086329	0.140553
Cl78	Cl	0.144490	-1.241582	0.640616
H79	H	0.213788	-1.410467	0.621216
Cl80	Cl	0.243928	-1.419948	0.359968
