data_functionalizedCrystal
_audit_creation_method	'MofGen! by Chris Wilmer'
_symmetry_space_group_name_H-M	'P1'
_symmetry_Int_Tables_number	1
_symmetry_cell_setting	triclinic
loop_
_symmetry_equiv_pos_as_xyz
  x,y,z
_cell_length_a	12.759401
_cell_length_b	12.645330
_cell_length_c	12.759393
_cell_angle_alpha	89.971026
_cell_angle_beta	89.979062
_cell_angle_gamma	90.019217
loop_
_atom_site_label
_atom_site_type_symbol
_atom_site_fract_x
_atom_site_fract_y
_atom_site_fract_z
Zn1	Zn	1.606245	-0.421945	-0.594031
Zn2	Zn	1.606126	-0.599246	-0.418356
Zn3	Zn	1.430543	-0.422001	-0.418366
Zn4	Zn	1.430526	-0.599172	-0.593993
O5	O	1.518360	-0.510591	-0.506187
O6	O	1.753250	-0.445472	-0.570739
O7	O	1.582793	-0.575788	-0.271336
O8	O	1.453907	-0.273647	-0.441689
O9	O	1.753163	-0.575734	-0.441671
O10	O	1.582994	-0.273605	-0.570749
O11	O	1.453793	-0.445568	-0.271344
O12	O	1.283520	-0.445496	-0.441652
O13	O	1.453878	-0.575607	-0.741019
O14	O	1.283507	-0.575662	-0.570684
O15	O	1.582977	-0.445400	-0.741047
O16	O	1.582776	-0.747583	-0.441634
O17	O	1.453763	-0.747529	-0.570674
C18	C	1.245393	-0.510578	-0.506166
C19	C	1.128616	-0.510598	-0.506182
C20	C	1.073775	-0.578479	-0.573263
C21	C	0.964051	-0.578483	-0.573284
C22	C	0.964019	-0.442722	-0.439133
C23	C	1.073741	-0.442714	-0.439118
C24	C	0.814153	-0.616521	-0.697146
C25	C	0.759308	-0.684418	-0.764218
C26	C	0.794901	-0.787874	-0.780168
C27	C	0.885336	-0.823454	-0.729031
C28	C	0.940175	-0.755562	-0.661951
C29	C	0.904584	-0.652092	-0.646021
C30	C	1.223641	-0.404686	-0.315255
C31	C	1.278482	-0.336799	-0.248169
C32	C	1.242892	-0.233342	-0.232208
C33	C	1.152453	-0.197766	-0.283327
C34	C	1.097612	-0.265653	-0.350413
C35	C	1.133209	-0.369109	-0.366376
C36	C	1.518283	-0.786021	-0.506172
C37	C	1.518347	-0.903851	-0.506201
C38	C	1.437519	-1.071424	-0.587630
C39	C	1.437106	-0.948865	-0.587368
C40	C	1.488371	-0.948453	-0.395479
C41	C	1.487878	-1.071052	-0.395973
C42	C	1.629644	-1.070935	-0.534596
C43	C	1.628962	-0.948328	-0.537017
C44	C	1.792393	-0.510605	-0.506208
C45	C	1.909170	-0.510610	-0.506217
C46	C	1.518439	-0.510489	-0.780220
C47	C	1.518472	-0.510446	-0.896997
C48	C	1.518466	-0.234086	-0.506224
C49	C	1.518511	-0.116255	-0.506241
C50	C	1.585699	-0.442636	-0.951875
C51	C	1.585717	-0.442590	-1.061599
C52	C	1.451278	-0.578173	-1.061557
C53	C	1.451255	-0.578213	-0.951835
C54	C	1.623336	-0.317515	-1.211574
C55	C	1.690579	-0.249715	-1.266456
C56	C	1.793093	-0.233459	-1.230864
C57	C	1.828384	-0.285019	-1.140392
C58	C	1.761146	-0.352827	-1.085516
C59	C	1.658618	-0.369063	-1.121106
C60	C	1.413648	-0.703289	-0.801858
C61	C	1.346414	-0.771104	-0.746980
C62	C	1.243899	-0.787370	-0.782570
C63	C	1.208612	-0.735829	-0.873045
C64	C	1.275845	-0.668014	-0.927924
C65	C	1.378359	-0.651746	-0.892326
C66	C	1.518342	-0.510616	-0.233219
C67	C	1.518512	-0.510360	-0.116443
H68	H	1.118451	-0.633752	-0.627873
H69	H	1.355645	-1.102329	-0.569085
H70	H	1.545491	-0.919298	-0.333180
O71	O	1.459560	-1.106368	-0.685973
C72	C	1.410662	-1.104607	-0.868363
C73	C	1.385595	-1.064929	-0.757045
H74	H	1.350863	-1.071138	-0.925851
H75	H	1.492594	-1.077456	-0.891810
H76	H	1.407048	-1.194675	-0.869822
H77	H	1.389150	-0.974864	-0.755501
H78	H	1.303676	-1.092160	-0.733643
O79	O	1.258036	-0.505256	-0.330733
C80	C	1.218968	-0.691162	-0.316518
C81	C	1.179875	-0.577322	-0.298968
H82	H	1.155802	-0.749459	-0.290824
H83	H	1.237040	-0.703416	-0.403173
H84	H	1.293046	-0.704885	-0.268479
H85	H	1.105774	-0.563520	-0.346944
H86	H	1.161874	-0.565123	-0.212292
O87	O	1.338773	-0.914162	-0.564888
C88	C	1.160506	-0.962159	-0.524425
C89	C	1.271828	-1.001603	-0.549858
H90	H	1.106345	-1.032835	-0.512288
H91	H	1.162487	-0.912386	-0.449979
H92	H	1.130257	-0.912042	-0.592262
H93	H	1.302145	-1.051763	-0.482088
H94	H	1.269782	-1.051319	-0.624340
O95	O	0.920022	-0.923940	-0.744368
C96	C	1.050843	-1.054663	-0.702442
C97	C	1.011657	-0.940846	-0.684957
H98	H	1.124947	-1.068361	-0.654436
H99	H	0.987724	-1.113036	-0.676797
H100	H	1.068903	-1.066830	-0.789110
H101	H	0.993607	-0.928577	-0.598305
H102	H	1.074799	-0.882531	-0.710671
H103	H	1.013805	-0.784531	-0.620316
H104	H	1.689984	-1.099926	-0.475316
H105	H	0.750239	-0.843156	-0.834781
H106	H	1.847843	-0.178253	-1.275557
O107	O	0.671537	-0.649926	-0.814067
C108	C	0.586846	-0.617270	-0.979716
C109	C	0.686300	-0.656376	-0.923397
H110	H	0.598756	-0.622450	-1.068118
H111	H	0.517346	-0.668656	-0.955960
H112	H	0.570831	-0.531672	-0.956752
H113	H	0.702412	-0.741959	-0.946332
H114	H	0.755743	-0.604916	-0.947156
H115	H	1.125136	-0.749078	-0.902026
H116	H	1.656988	-1.101772	-0.613962
H117	H	1.189162	-0.842600	-0.737883
H118	H	1.455861	-0.918705	-0.669468
O119	O	1.390892	-1.105114	-0.367349
C120	C	1.216097	-1.055950	-0.315030
C121	C	1.325883	-1.017238	-0.347453
H122	H	1.163514	-0.984922	-0.298913
H123	H	1.180934	-1.105354	-0.380952
H124	H	1.222594	-1.106247	-0.241144
H125	H	1.319477	-0.966899	-0.421314
H126	H	1.361006	-0.967890	-0.281469
H127	H	0.785172	-0.532276	-0.684175
H128	H	0.919326	-0.387455	-0.384531
H129	H	1.023976	-0.236675	-0.392043
O130	O	1.650946	-0.376898	-0.898442
C131	C	1.710439	-0.316808	-0.729430
C132	C	1.636516	-0.391334	-0.789808
H133	H	1.698783	-0.328437	-0.641589
H134	H	1.795178	-0.335414	-0.750934
H135	H	1.692030	-0.231333	-0.751080
H136	H	1.654831	-0.476834	-0.768190
H137	H	1.551799	-0.372636	-0.768299
O138	O	1.386046	-0.644153	-1.114715
C139	C	1.335027	-0.824466	-1.148301
C140	C	1.408949	-0.749859	-1.088019
H141	H	1.353532	-0.909946	-1.126756
H142	H	1.250296	-0.805940	-1.126699
H143	H	1.346576	-0.812738	-1.236143
H144	H	1.397494	-0.761546	-1.000162
H145	H	1.493653	-0.768403	-1.109707
H146	H	1.544308	-1.100712	-0.333264
H147	H	1.789881	-0.394811	-1.011858
H148	H	1.247106	-0.626047	-1.001594
H149	H	1.911865	-0.271785	-1.111426
O150	O	1.704814	-0.911659	-0.471588
C151	C	1.865840	-0.813369	-0.455618
C152	C	1.779998	-0.854805	-0.529841
H153	H	1.926659	-0.767413	-0.502689
H154	H	1.829143	-0.759124	-0.394434
H155	H	1.905303	-0.882969	-0.414784
H156	H	1.740503	-0.785271	-0.570748
H157	H	1.816754	-0.909081	-0.590960
H158	H	1.123462	-0.113529	-0.270314
H159	H	1.661836	-0.207734	-1.340119
O160	O	1.296310	-0.167519	-0.167034
C161	C	1.444111	-0.146405	-0.051404
C162	C	1.383736	-0.221050	-0.125199
H163	H	1.514794	-0.189662	-0.017542
H164	H	1.471800	-0.074089	-0.097074
H165	H	1.390382	-0.120216	0.015097
H166	H	1.437402	-0.247320	-0.191714
H167	H	1.356032	-0.293311	-0.079455
H168	H	1.352122	-0.365774	-0.206545
O169	O	1.655868	-0.913739	-0.634314
C170	C	1.701591	-0.961911	-0.811210
C171	C	1.671136	-1.001220	-0.701065
H172	H	1.713965	-1.032619	-0.865203
H173	H	1.636265	-0.909930	-0.843762
H174	H	1.777167	-0.914073	-0.806182
H175	H	1.595585	-1.049102	-0.706003
H176	H	1.736524	-1.053146	-0.668554
H177	H	1.407979	-0.917846	-0.371023
H178	H	1.539859	-0.330737	-1.240556
H179	H	1.375158	-0.813081	-0.673317
H180	H	1.497122	-0.690042	-0.772867
