data_functionalizedCrystal
_audit_creation_method	'MofGen! by Chris Wilmer'
_symmetry_space_group_name_H-M	'P1'
_symmetry_Int_Tables_number	1
_symmetry_cell_setting	triclinic
loop_
_symmetry_equiv_pos_as_xyz
  x,y,z
_cell_length_a	34.571875
_cell_length_b	34.571051
_cell_length_c	34.567439
_cell_angle_alpha	60.004367
_cell_angle_beta	60.008842
_cell_angle_gamma	59.994195
loop_
_atom_site_label
_atom_site_type_symbol
_atom_site_fract_x
_atom_site_fract_y
_atom_site_fract_z
O1	O	0.053721	-0.565181	0.472559
O2	O	0.020283	-0.440038	0.380761
O3	O	0.099534	-0.519209	0.380676
O4	O	-0.025530	-0.486010	0.472643
O5	O	0.125831	-0.492917	0.406885
O6	O	0.046580	-0.413746	0.406969
O7	O	0.080018	-0.538889	0.498767
Zn8	Zn	0.067475	-0.472143	0.457030
Zn9	Zn	0.032827	-0.506784	0.422498
O10	O	0.000767	-0.459718	0.498852
N11	N	0.091122	-0.448505	0.480598
N12	N	0.009184	-0.530426	0.398930
C13	C	0.124402	-0.415465	0.717633
C14	C	0.328327	-0.415388	0.513477
C15	C	0.124221	-0.415437	0.513630
C16	C	0.124201	-0.211364	0.513624
C17	C	0.157075	-0.309853	0.546423
C18	C	0.157084	-0.382601	0.546423
C19	C	0.175289	-0.364414	0.564591
C20	C	0.254624	-0.350722	0.522790
C21	C	0.304220	-0.367243	0.506229
C22	C	0.304249	-0.447494	0.536832
C23	C	0.254655	-0.430972	0.553394
C24	C	0.169014	-0.285043	0.497667
C25	C	0.152454	-0.235444	0.481153
C26	C	0.112020	-0.235469	0.562154
C27	C	0.128580	-0.285068	0.578668
C28	C	0.108321	-0.370634	0.558439
C29	C	0.091776	-0.387168	0.541918
C30	C	0.172754	-0.427637	0.501375
C31	C	0.189301	-0.411103	0.517891
C32	C	0.108399	-0.370649	0.643978
C33	C	0.091911	-0.387197	0.693575
C34	C	0.172928	-0.427676	0.693511
C35	C	0.189415	-0.411128	0.643912
C36	C	0.157149	-0.382613	0.619147
C37	C	0.229844	-0.382585	0.546371
C38	C	0.105624	-0.433333	0.772186
C39	C	0.382878	-0.432925	0.495007
C40	C	0.105380	-0.433313	0.495792
C41	C	0.105683	-0.156808	0.496094
C42	C	-0.023527	-0.563458	0.161535
C43	C	-0.023851	-0.767445	0.365663
C44	C	-0.023821	-0.563448	0.365756
C45	C	-0.227785	-0.563229	0.365355
C46	C	-0.129302	-0.596153	0.332678
C47	C	-0.056593	-0.596234	0.332823
C48	C	-0.074746	-0.614396	0.314578
C49	C	-0.088477	-0.693710	0.356299
C50	C	-0.071982	-0.743310	0.372851
C51	C	0.008266	-0.743392	0.342376
C52	C	-0.008230	-0.693794	0.325823
C53	C	-0.154162	-0.608103	0.381422
C54	C	-0.203757	-0.591517	0.397874
C55	C	-0.203630	-0.551037	0.316836
C56	C	-0.154034	-0.567623	0.300384
C57	C	-0.068543	-0.547475	0.320829
C58	C	-0.052041	-0.530969	0.337421
C59	C	-0.011639	-0.611977	0.377990
C60	C	-0.028141	-0.628485	0.361404
C61	C	-0.068417	-0.547482	0.235199
C62	C	-0.051814	-0.530977	0.185602
C63	C	-0.011349	-0.611990	0.185649
C64	C	-0.027951	-0.628493	0.235248
C65	C	-0.056486	-0.596238	0.260022
C66	C	-0.056602	-0.668955	0.332787
C67	C	-0.005599	-0.544662	0.106983
C68	C	-0.006342	-0.821999	0.384121
C69	C	-0.005979	-0.544649	0.383673
C70	C	-0.282336	-0.544682	0.382817
N71	N	0.427518	-0.448428	0.480350
O72	O	0.589573	-0.456297	0.363634
O73	O	0.589761	-0.548399	0.488643
O74	O	0.589681	-0.548188	0.409364
O75	O	0.589654	-0.456508	0.442913
O76	O	0.510890	-0.521988	0.435708
O77	O	0.510970	-0.522199	0.514987
O78	O	0.510782	-0.430098	0.389978
Zn79	Zn	0.498366	-0.471989	0.456665
Zn80	Zn	0.602177	-0.506508	0.421956
O81	O	0.510862	-0.430308	0.469257
N82	N	0.673025	-0.530068	0.398267
N83	N	0.091092	-0.112167	0.480590
O84	O	-0.025539	0.049976	0.472612
O85	O	0.099472	0.050011	0.380491
O86	O	0.020155	0.049979	0.380751
O87	O	0.053778	0.050009	0.472352
O88	O	0.046458	-0.028818	0.407008
O89	O	0.125775	-0.028785	0.406748
O90	O	0.000764	-0.028821	0.498869
Zn91	Zn	0.067445	-0.041314	0.456977
Zn92	Zn	0.032791	0.062504	0.422382
O93	O	0.080081	-0.028788	0.498609
N94	N	0.009138	0.133358	0.398771
N95	N	0.091421	-0.448552	0.816827
O96	O	0.083469	-0.565164	0.978960
O97	O	-0.008614	-0.440110	0.979002
O98	O	-0.008399	-0.519410	0.978978
O99	O	0.083253	-0.485863	0.978984
O100	O	0.017837	-0.493128	0.900185
O101	O	0.017621	-0.413827	0.900208
O102	O	0.109704	-0.538881	0.900167
Zn103	Zn	0.067828	-0.472181	0.887677
Zn104	Zn	0.033262	-0.506810	0.991491
O105	O	0.109489	-0.459581	0.900191
N106	N	0.009668	-0.530444	1.062341
C107	C	0.030297	-0.411123	0.381218
C108	C	0.128439	-0.509167	0.381113
C109	C	0.070004	-0.567805	0.498310
C110	C	-0.028138	-0.469761	0.498415
C111	C	0.550388	-0.547982	0.517564
C112	C	0.550290	-0.547721	0.419387
C113	C	0.550153	-0.430514	0.361058
C114	C	0.550253	-0.430775	0.459234
C115	C	0.128339	0.010714	0.380902
C116	C	0.030148	0.010577	0.381256
C117	C	-0.028136	0.010574	0.498426
C118	C	0.070089	0.010613	0.498104
C119	C	-0.008178	-0.411214	0.939610
C120	C	-0.007906	-0.509413	0.939566
C121	C	0.109268	-0.567777	0.939558
C122	C	0.109002	-0.469572	0.939586
H123	H	0.082121	-0.347425	0.623816
N124	N	0.550310	-0.585876	0.409881
H125	H	0.550269	-0.573583	0.376542
H126	H	0.521128	-0.595078	0.433159
N127	N	0.175768	0.011047	0.342455
H128	H	0.201577	-0.018081	0.353792
H129	H	0.181710	0.040356	0.334602
H130	H	0.550093	-0.401597	0.325157
N131	N	0.019041	-0.646766	0.408821
H132	H	0.048874	-0.667379	0.390988
H133	H	0.001080	-0.667282	0.438613
H134	H	0.052212	-0.377448	0.713786
H135	H	0.550436	-0.576894	0.553469
H136	H	0.550247	-0.401977	0.466412
N137	N	-0.064689	-0.478386	0.158838
H138	H	-0.100261	-0.463528	0.167413
H139	H	-0.049814	-0.472860	0.123667
H140	H	0.023152	-0.375173	0.352387
H141	H	0.022945	0.010574	0.352477
N142	N	0.147144	-0.460069	0.939585
H143	H	0.134852	-0.426719	0.939595
H144	H	0.175778	-0.463844	0.910370
N145	N	-0.075687	0.010558	0.536737
H146	H	-0.096881	0.010547	0.524609
H147	H	-0.090732	0.039770	0.545887
H148	H	0.164358	-0.516243	0.352233
H149	H	0.199204	-0.450885	0.713670
N150	N	0.079467	-0.615421	0.536503
H151	H	0.087446	-0.641038	0.524928
H152	H	0.050341	-0.615541	0.565799
N153	N	0.147564	-0.615350	0.939547
H154	H	0.156736	-0.630434	0.968755
H155	H	0.176165	-0.610918	0.910318
N156	N	0.079618	0.010635	0.536223
H157	H	0.112964	0.010650	0.523916
H158	H	0.075862	-0.018576	0.564872
H159	H	0.229113	-0.420876	0.623698
N160	N	-0.075719	-0.460398	0.536669
H161	H	-0.096874	-0.427064	0.524478
H162	H	-0.071293	-0.464207	0.565283
N163	N	-0.046472	-0.363640	0.939625
H164	H	-0.075099	-0.368035	0.968836
H165	H	-0.055607	-0.348576	0.910399
H166	H	-0.036687	-0.516580	0.939532
H167	H	0.082085	-0.347427	0.581670
H168	H	0.052069	-0.377412	0.551692
H169	H	0.229008	-0.420842	0.508101
N170	N	0.207503	-0.458383	0.470609
H171	H	0.240903	-0.463260	0.465313
H172	H	0.202224	-0.442380	0.439115
N173	N	0.227925	-0.465341	0.578831
H174	H	0.251170	-0.498500	0.580763
H175	H	0.207325	-0.456493	0.560879
H176	H	0.324395	-0.341295	0.487026
N177	N	0.331015	-0.499682	0.544396
H178	H	0.307790	-0.517362	0.561848
H179	H	0.351616	-0.512026	0.563681
H180	H	0.234427	-0.311322	0.517070
H181	H	0.192214	-0.305222	0.471410
H182	H	0.088825	-0.215289	0.588411
N183	N	0.165326	-0.208676	0.428564
H184	H	0.153193	-0.217306	0.413747
H185	H	0.200902	-0.217305	0.413753
N186	N	0.115702	-0.311833	0.631257
H187	H	0.095136	-0.288605	0.649178
H188	H	0.145545	-0.332406	0.639858
H189	H	-0.091654	-0.521212	0.255368
H190	H	-0.018232	-0.668197	0.255455
N191	N	0.019417	-0.646780	0.158931
H192	H	0.024453	-0.680171	0.182184
H193	H	0.051027	-0.641727	0.138402
H194	H	-0.061773	-0.491265	0.327657
N195	N	-0.099227	-0.512691	0.290002
H196	H	-0.104295	-0.479297	0.284925
H197	H	-0.130828	-0.517748	0.306054
H198	H	-0.018411	-0.668189	0.371171
H199	H	0.017729	-0.673638	0.306677
N200	N	0.060439	-0.770187	0.334874
H201	H	0.078130	-0.746978	0.317466
H202	H	0.072802	-0.790773	0.315567
N203	N	-0.106359	-0.770013	0.398203
H204	H	-0.139506	-0.746751	0.400102
H205	H	-0.105034	-0.790590	0.431245
H206	H	-0.127865	-0.673490	0.361973
H207	H	-0.223999	-0.601245	0.437568
N208	N	-0.127484	-0.638877	0.416250
H209	H	-0.150760	-0.643926	0.449627
H210	H	-0.106903	-0.622798	0.411198
H211	H	-0.133793	-0.557888	0.260690
N212	N	-0.230310	-0.520273	0.282008
H213	H	-0.207035	-0.515225	0.248630
H214	H	-0.250878	-0.488665	0.287075
