data_functionalizedCrystal
_audit_creation_method	'MofGen! by Chris Wilmer'
_symmetry_space_group_name_H-M	'P1'
_symmetry_Int_Tables_number	1
_symmetry_cell_setting	triclinic
loop_
_symmetry_equiv_pos_as_xyz
  x,y,z
_cell_length_a	10.908878
_cell_length_b	19.188924
_cell_length_c	9.482900
_cell_angle_alpha	99.300357
_cell_angle_beta	83.038437
_cell_angle_gamma	71.613377
loop_
_atom_site_label
_atom_site_type_symbol
_atom_site_fract_x
_atom_site_fract_y
_atom_site_fract_z
O1	O	1.724548	-0.121170	-0.120856
O2	O	1.350377	-0.066612	-0.120870
O3	O	1.548262	-0.196781	-0.120845
O4	O	1.526663	0.008999	-0.120881
O5	O	1.508067	-0.170254	0.120942
O6	O	1.310182	-0.040085	0.120918
O7	O	1.684353	-0.094642	0.120931
Cu8	Cu	1.493597	-0.064941	0.143002
Cu9	Cu	1.541133	-0.096313	-0.142940
O10	O	1.486468	0.035527	0.120907
C11	C	1.282410	-0.048250	0.000023
C12	C	1.139772	-0.033066	0.000018
C13	C	1.091075	-0.088470	0.000027
C14	C	0.943652	-0.072778	0.000022
C15	C	1.527466	-0.209449	0.000050
C16	C	1.525370	-0.286713	0.000053
C17	C	1.546302	-0.337460	-0.131745
C18	C	1.544317	-0.410057	-0.131756
C19	C	1.521423	-0.431907	0.000039
C20	C	1.500481	-0.381148	0.131855
C21	C	1.502454	-0.308551	0.131862
N22	N	1.575139	-0.548822	0.098133
N23	N	1.573268	-0.617788	0.098117
C24	C	1.515474	-0.650637	0.000024
N25	N	1.459640	-0.611920	-0.098074
N26	N	1.461517	-0.542950	-0.098062
C27	C	1.519280	-0.510625	0.000045
C28	C	1.534253	-0.780102	-0.131795
C29	C	1.532258	-0.852698	-0.131801
C30	C	1.488435	-0.823789	0.131814
C31	C	1.490417	-0.751193	0.131816
C32	C	1.513333	-0.729355	0.000007
C33	C	1.752321	-0.113005	0.000036
C34	C	1.894961	-0.128190	0.000031
C35	C	1.507264	0.048194	0.000009
C36	C	1.509362	0.125457	-0.000005
N37	N	1.460173	-0.042877	0.344118
N38	N	1.574568	-0.118384	-0.344056
C39	C	1.531265	-0.089808	0.416326
C40	C	1.503465	-0.071446	0.583740
H41	H	0.876206	-0.013724	0.000005
H42	H	1.072322	0.025984	0.000001
N43	N	1.633427	-0.157268	0.338388
N44	N	1.655862	-0.172091	0.202502
H45	H	1.728015	-0.219737	0.147458
H46	H	0.962408	-0.187246	0.000031
N47	N	1.481062	-0.256718	0.266511
N48	N	1.460610	-0.276229	0.384180
H49	H	1.445502	-0.239621	0.479279
N50	N	1.557624	-0.757771	-0.266414
N51	N	1.559384	-0.692951	-0.266391
H52	H	1.575887	-0.677179	-0.361466
N53	N	1.565689	-0.461912	-0.266380
N54	N	1.478927	-0.488699	-0.295799
H55	H	1.494021	-0.525321	-0.390876
N56	N	1.569708	-0.315166	-0.266393
N57	N	1.588393	-0.360489	-0.384064
H58	H	1.604921	-0.344743	-0.479161
N59	N	1.357990	0.024575	0.422056
N60	N	1.335547	0.039393	0.557942
H61	H	1.263377	0.087032	0.612986
H62	H	1.656015	-0.172162	0.593829
N63	N	1.175699	-0.162544	0.000055
N64	N	1.237061	-0.173865	0.101979
H65	H	1.296827	-0.226181	0.102001
N66	N	1.477085	-0.403474	0.266468
N67	N	1.475327	-0.468294	0.266445
H68	H	1.458797	-0.484061	0.361519
H69	H	1.549298	-0.894016	-0.239132
H70	H	1.469785	-0.841577	0.239124
N71	N	1.469036	-0.699362	0.266460
N72	N	1.448591	-0.718876	0.384127
H73	H	1.433485	-0.682269	0.479228
H74	H	1.422008	-0.017672	0.645854
