data_functionalizedCrystal
_audit_creation_method	'MofGen! by Chris Wilmer'
_symmetry_space_group_name_H-M	'P1'
_symmetry_Int_Tables_number	1
_symmetry_cell_setting	triclinic
loop_
_symmetry_equiv_pos_as_xyz
  x,y,z
_cell_length_a	17.699083
_cell_length_b	17.699083
_cell_length_c	7.681481
_cell_angle_alpha	84.268690
_cell_angle_beta	95.718198
_cell_angle_gamma	83.283015
loop_
_atom_site_label
_atom_site_type_symbol
_atom_site_fract_x
_atom_site_fract_y
_atom_site_fract_z
O1	O	-0.996919	-0.102877	0.146171
O2	O	-0.496919	0.397123	0.646171
O3	O	-0.776538	-0.115333	0.146233
O4	O	-0.276538	0.384667	0.646233
O5	O	-0.892955	0.001085	0.146185
O6	O	-0.392955	0.501085	0.646185
O7	O	-0.880501	-0.219295	0.146219
O8	O	-0.380501	0.280705	0.646219
O9	O	-0.907285	0.015446	-0.146679
O10	O	-0.407285	0.515446	0.353321
O11	O	-0.790867	-0.100971	-0.146631
O12	O	-0.290867	0.399029	0.353369
O13	O	-1.011248	-0.088516	-0.146693
O14	O	-0.511248	0.411484	0.353307
Zn15	Zn	-0.903333	-0.092463	-0.193160
Zn16	Zn	-0.403333	0.407537	0.306840
Zn17	Zn	-0.884453	-0.111385	0.192700
Zn18	Zn	-0.384453	0.388615	0.692700
O19	O	-0.894830	-0.204934	-0.146645
O20	O	-0.394830	0.295066	0.353355
C21	C	-0.755505	-0.107706	-0.000191
C22	C	-0.255505	0.392294	0.499809
C23	C	-0.671486	-0.106369	-0.000168
C24	C	-0.171486	0.393631	0.499832
C25	C	-0.622864	-0.174703	-0.000157
C26	C	-0.122864	0.325297	0.499843
C27	C	-0.543922	-0.173439	-0.000179
C28	C	-0.043922	0.326561	0.499821
C29	C	-0.513602	-0.103842	-0.000199
C30	C	-0.013602	0.396158	0.499801
C31	C	-0.562230	-0.035503	-0.000215
C32	C	-0.062230	0.464497	0.499785
C33	C	-0.641171	-0.036766	-0.000206
C34	C	-0.141171	0.463234	0.499794
C35	C	-0.243869	-0.030405	-0.000254
C36	C	0.256131	0.469595	0.499746
C37	C	-0.164921	-0.029147	-0.000257
C38	C	0.335079	0.470853	0.499743
C39	C	-0.146619	-0.167079	-0.000226
C40	C	0.353381	0.332921	0.499774
C41	C	-0.225561	-0.168342	-0.000217
C42	C	0.274439	0.331658	0.499783
C43	C	-0.274182	-0.100003	-0.000243
C44	C	0.225818	0.399997	0.499757
C45	C	-0.359780	-0.101373	-0.000223
C46	C	0.140220	0.398627	0.499777
C47	C	-0.428005	-0.102471	-0.000206
C48	C	0.071995	0.397529	0.499794
N49	N	-0.916223	-0.079549	-0.456500
N50	N	-0.416223	0.420451	0.043500
C51	C	-0.899674	0.036463	-0.000247
C52	C	-0.399674	0.536463	0.499753
C53	C	-0.898335	0.120481	-0.000248
C54	C	-0.398335	0.620481	0.499752
C55	C	-0.032281	-0.096143	-0.000261
C56	C	0.467719	0.403857	0.499739
C57	C	-0.116299	-0.097482	-0.000259
C58	C	0.383701	0.402518	0.499741
C59	C	-0.888112	-0.240312	-0.000209
C60	C	-0.388112	0.259688	0.499791
C61	C	-0.889450	-0.324330	-0.000197
C62	C	-0.389450	0.175670	0.499803
C63	C	-0.966670	0.169103	-0.000269
C64	C	-0.466670	0.669103	0.499731
C65	C	-0.965407	0.248045	-0.000254
C66	C	-0.465407	0.748045	0.499746
C67	C	-0.895809	0.278365	-0.000229
C68	C	-0.395809	0.778365	0.499771
C69	C	-0.827469	0.229736	-0.000202
C70	C	-0.327469	0.729736	0.499798
C71	C	-0.828732	0.150795	-0.000205
C72	C	-0.328732	0.650795	0.499795
C73	C	-0.822373	0.548099	-0.000186
C74	C	-0.322373	1.048099	0.499814
C75	C	-0.821115	0.627047	-0.000188
C76	C	-0.321115	1.127047	0.499812
C77	C	-0.959047	0.645349	-0.000235
C78	C	-0.459047	1.145349	0.499765
C79	C	-0.960311	0.566408	-0.000238
C80	C	-0.460311	1.066408	0.499762
C81	C	-0.891971	0.517786	-0.000202
C82	C	-0.391971	1.017786	0.499798
C83	C	-0.893341	0.432187	-0.000215
C84	C	-0.393341	0.932187	0.499785
C85	C	-0.894439	0.363962	-0.000227
C86	C	-0.394439	0.863962	0.499773
N87	N	-0.871569	-0.124293	0.456040
N88	N	-0.371569	0.375707	0.956040
H89	H	-0.647544	-0.231377	-0.000140
H90	H	-0.147544	0.268623	0.499860
H91	H	-0.107022	-0.222724	-0.000215
H92	H	0.392978	0.277276	0.499785
Cl93	Cl	-0.801191	-0.194807	-0.427835
Cl94	Cl	-0.301191	0.305193	0.072165
H95	H	-0.961813	-0.033881	-0.531725
H96	H	-0.461813	0.466119	-0.031725
H97	H	-0.504337	-0.229084	-0.000168
H98	H	-0.004337	0.270916	0.499832
H99	H	-1.021052	0.287631	-0.000275
H100	H	-0.521052	0.787631	0.499725
Cl101	Cl	-0.742822	0.089669	-0.000171
Cl102	Cl	-0.242822	0.589669	0.499829
Cl103	Cl	-0.263672	-0.255840	-0.000182
Cl104	Cl	0.236328	0.244160	0.499818
Cl105	Cl	-0.126806	0.058353	-0.000284
Cl106	Cl	0.373194	0.558353	0.499716
H107	H	-0.283448	0.025241	-0.000276
H108	H	0.216552	0.525241	0.499724
H109	H	-0.537539	0.021166	-0.000256
H110	H	-0.037539	0.521166	0.499744
H111	H	-0.680759	0.018879	-0.000214
H112	H	-0.180759	0.518879	0.499786
H113	H	-1.014693	0.684947	-0.000255
H114	H	-0.514693	1.184947	0.499745
Cl115	Cl	-1.054170	0.130996	-0.000319
Cl116	Cl	-0.554170	0.630996	0.499681
H117	H	-0.764437	0.651729	-0.000171
H118	H	-0.264437	1.151729	0.499829
Cl119	Cl	-0.736459	0.486984	-0.000136
Cl120	Cl	-0.236459	0.986984	0.499864
Cl121	Cl	-1.047808	0.528296	-0.000263
Cl122	Cl	-0.547808	1.028296	0.499737
H123	H	-0.770801	0.254428	-0.000170
H124	H	-0.270801	0.754428	0.499830
