data_functionalizedCrystal
_audit_creation_method	'MofGen! by Chris Wilmer'
_symmetry_space_group_name_H-M	'P1'
_symmetry_Int_Tables_number	1
_symmetry_cell_setting	triclinic
loop_
_symmetry_equiv_pos_as_xyz
  x,y,z
_cell_length_a	10.489741
_cell_length_b	15.995300
_cell_length_c	8.965430
_cell_angle_alpha	90.000029
_cell_angle_beta	90.001157
_cell_angle_gamma	84.005491
loop_
_atom_site_label
_atom_site_type_symbol
_atom_site_fract_x
_atom_site_fract_y
_atom_site_fract_z
O1	O	1.692368	0.118127	0.123949
O2	O	1.321014	0.129216	0.123972
O3	O	1.516876	0.001843	0.123948
O4	O	1.496506	0.245501	0.123973
O5	O	1.516859	0.001851	-0.124130
O6	O	1.320998	0.129224	-0.124107
O7	O	1.692351	0.118136	-0.124130
Cu8	Cu	1.506673	0.123681	-0.146770
Cu9	Cu	1.506693	0.123671	0.146612
O10	O	1.496490	0.245509	-0.124106
C11	C	1.273486	0.128383	-0.000064
C12	C	1.131892	0.125877	-0.000056
C13	C	1.064909	0.044833	-0.000078
C14	C	0.972244	0.083113	0.122239
C15	C	0.972261	0.083141	-0.122348
C16	C	1.041092	0.164191	0.122362
C17	C	1.041120	0.164207	-0.122334
C18	C	0.948481	0.202546	0.000012
C19	C	1.516037	-0.029354	-0.000091
C20	C	1.513546	-0.122321	-0.000090
C21	C	1.739879	0.118969	-0.000090
C22	C	1.881473	0.121475	-0.000089
N23	N	1.506669	0.123687	-0.353119
C24	C	1.497329	0.276705	-0.000064
C25	C	1.499820	0.369673	-0.000055
C26	C	1.504419	0.539884	-0.000067
C27	C	1.364962	0.586509	-0.000055
C28	C	1.367506	0.683212	-0.000622
C29	C	1.508946	0.707468	-0.000078
C30	C	1.578127	0.666755	-0.141468
C31	C	1.574598	0.570100	-0.141582
C32	C	1.576681	0.569829	0.140540
C33	C	1.576669	0.666773	0.142394
C34	C	1.511512	0.802179	-0.000088
C35	C	1.501858	0.445173	-0.000066
C36	C	1.416061	0.182574	-0.450414
C37	C	1.531316	0.199516	-0.549833
C38	C	1.391462	0.106752	-0.549827
C39	C	1.621981	0.140668	-0.450349
C40	C	1.482052	0.047871	-0.450335
C41	C	1.597390	0.064781	-0.549709
N42	N	1.506707	0.123658	0.352961
H43	H	1.313152	0.711345	0.100714
H44	H	1.530773	0.549052	0.247740
H45	H	1.552164	0.263620	-0.593537
H46	H	1.309745	0.566568	-0.101286
C47	C	1.453843	-0.038701	-0.391232
C48	C	1.542990	-0.117951	-0.432611
C49	C	1.514763	-0.204522	-0.373505
C50	C	1.397389	-0.211843	-0.273020
C51	C	1.308234	-0.132591	-0.231636
C52	C	1.336461	-0.046020	-0.290742
H53	H	1.629884	-0.112533	-0.507001
H54	H	1.580762	-0.263190	-0.404141
H55	H	1.376494	-0.275928	-0.229266
H56	H	1.221340	-0.138008	-0.157246
H57	H	1.270462	0.012648	-0.260105
H58	H	1.719447	0.155056	-0.406836
H59	H	0.941766	0.048838	-0.225757
C60	C	1.507214	0.544942	-0.284885
C61	C	1.456985	0.612768	-0.398424
C62	C	1.389595	0.587615	-0.541728
C63	C	1.372435	0.494636	-0.571493
C64	C	1.422665	0.426803	-0.457951
C65	C	1.490055	0.451956	-0.314647
H66	H	1.469687	0.681602	-0.376393
H67	H	1.352411	0.637830	-0.625778
H68	H	1.322549	0.476016	-0.677575
H69	H	1.409963	0.357969	-0.479982
H70	H	1.527239	0.401742	-0.230597
H71	H	0.941726	0.048818	0.225644
C72	C	1.082077	0.210464	0.262235
C73	C	1.224526	0.221351	0.288135
C74	C	1.265515	0.267619	0.428009
C75	C	1.164054	0.302999	0.541984
C76	C	1.021595	0.292113	0.516087
C77	C	0.980607	0.245846	0.376213
H78	H	1.299642	0.195160	0.203761
H79	H	1.370973	0.275677	0.447179
H80	H	1.194396	0.337249	0.645528
H81	H	0.946479	0.318305	0.600461
H82	H	0.875149	0.237788	0.357043
C83	C	0.880399	0.292637	0.000114
C84	C	0.902261	0.352753	0.129621
C85	C	0.834169	0.442840	0.129737
C86	C	0.744215	0.472811	0.000345
C87	C	0.722348	0.412694	-0.129172
C88	C	0.790440	0.322607	-0.129287
H89	H	0.968854	0.330568	0.225413
H90	H	0.850357	0.487343	0.225614
H91	H	0.693809	0.539499	0.000430
H92	H	0.655755	0.434879	-0.224964
H93	H	0.774253	0.278104	-0.225165
C94	C	1.701032	-0.002511	-0.608257
C95	C	1.719614	-0.015489	-0.777369
C96	C	1.823260	-0.082776	-0.835922
C97	C	1.908324	-0.137085	-0.725362
C98	C	1.889745	-0.124109	-0.556240
C99	C	1.786099	-0.056822	-0.497687
H100	H	1.656642	0.024715	-0.859221
H101	H	1.837013	-0.092381	-0.961118
H102	H	1.985049	-0.186895	-0.768707
H103	H	1.952717	-0.164313	-0.474388
H104	H	1.772346	-0.047216	-0.372491
C105	C	1.712931	0.527324	-0.149746
C106	C	1.754470	0.468850	-0.281334
C107	C	1.892799	0.426077	-0.289508
C108	C	1.989589	0.441779	-0.166094
C109	C	1.948052	0.500256	-0.034496
C110	C	1.809723	0.543029	-0.026322
H111	H	1.682819	0.457224	-0.372701
H112	H	1.923547	0.382788	-0.386926
H113	H	2.091988	0.410116	-0.172144
H114	H	2.019703	0.511882	0.056872
H115	H	1.778975	0.586318	0.071097
H116	H	1.071670	0.198474	-0.225744
H117	H	1.339508	0.232418	-0.406816
C118	C	1.289263	0.561076	0.136909
C119	C	1.266635	0.468425	0.160649
C120	C	1.190943	0.442988	0.297626
C121	C	1.137880	0.510202	0.410863
C122	C	1.160507	0.602859	0.387127
C123	C	1.236198	0.628296	0.250150
H124	H	1.305916	0.418664	0.076821
H125	H	1.174193	0.374396	0.315196
H126	H	1.081848	0.491372	0.512262
H127	H	1.121225	0.652620	0.470955
H128	H	1.252948	0.696887	0.232579
H129	H	1.682053	0.681481	-0.146336
H130	H	1.115549	-0.021790	0.000069
H131	H	1.530653	0.694832	-0.247080
C132	C	1.715983	0.688326	0.154501
C133	C	1.758687	0.736324	0.291540
C134	C	1.898009	0.757873	0.303636
C135	C	1.994626	0.731424	0.178694
C136	C	1.951923	0.683423	0.041645
C137	C	1.812602	0.661874	0.029549
H138	H	1.687164	0.755905	0.384038
H139	H	1.929619	0.793406	0.405090
H140	H	2.097760	0.747376	0.187648
H141	H	2.023447	0.663842	-0.050853
H142	H	1.780992	0.626341	-0.071904
H143	H	1.313363	0.710735	-0.102558
H144	H	1.526084	0.693755	0.246993
H145	H	1.679500	0.538665	0.141897
H146	H	1.294019	0.092442	-0.593528
