data_functionalizedCrystal
_audit_creation_method	'MofGen! by Chris Wilmer'
_symmetry_space_group_name_H-M	'P1'
_symmetry_Int_Tables_number	1
_symmetry_cell_setting	triclinic
loop_
_symmetry_equiv_pos_as_xyz
  x,y,z
_cell_length_a	12.759401
_cell_length_b	17.637651
_cell_length_c	17.639081
_cell_angle_alpha	114.332394
_cell_angle_beta	78.792883
_cell_angle_gamma	101.218433
loop_
_atom_site_label
_atom_site_type_symbol
_atom_site_fract_x
_atom_site_fract_y
_atom_site_fract_z
Zn1	Zn	1.435869	-0.234073	0.399519
Zn2	Zn	1.935869	0.265927	0.899519
Zn3	Zn	1.435826	-0.399772	0.233801
Zn4	Zn	1.935826	0.100228	0.733801
Zn5	Zn	1.289760	-0.261937	0.261716
Zn6	Zn	1.789760	0.238063	0.761716
Zn7	Zn	1.230642	-0.371886	0.371594
Zn8	Zn	1.730642	0.128114	0.871594
O9	O	1.348024	-0.316917	0.316657
O10	O	1.848024	0.183083	0.816657
O11	O	1.582880	-0.256063	0.377540
O12	O	2.082880	0.243937	0.877540
O13	O	1.441174	-0.404819	0.122166
O14	O	1.941174	0.095181	0.622166
O15	O	1.333900	-0.142880	0.303364
O16	O	1.833900	0.357120	0.803364
O17	O	1.582849	-0.377801	0.255788
O18	O	2.082849	0.122199	0.755788
O19	O	1.441246	-0.122409	0.404608
O20	O	1.941246	0.377591	0.904608
O21	O	1.333859	-0.303552	0.142675
O22	O	1.833859	0.196448	0.642675
O23	O	1.134901	-0.276512	0.276287
O24	O	1.634901	0.223488	0.776287
O25	O	1.233143	-0.330274	0.490636
O26	O	1.733143	0.169726	0.990636
O27	O	1.091467	-0.357292	0.357014
O28	O	1.591467	0.142708	0.857014
O29	O	1.383922	-0.229023	0.511152
O30	O	1.883922	0.270977	1.011152
O31	O	1.383850	-0.511433	0.228710
O32	O	1.883850	-0.011433	0.728710
O33	O	1.233102	-0.490945	0.329946
O34	O	1.733102	0.009055	0.829946
C35	C	1.075064	-0.316900	0.316650
C36	C	1.575064	0.183100	0.816650
C37	C	0.958281	-0.316909	0.316662
C38	C	1.458281	0.183091	0.816662
C39	C	0.903390	-0.253603	0.380120
C40	C	1.403390	0.246397	0.880120
C41	C	0.793661	-0.253617	0.380122
C42	C	1.293661	0.246383	0.880122
C43	C	0.793725	-0.380252	0.253204
C44	C	1.293725	0.119748	0.753204
C45	C	0.903453	-0.380233	0.253200
C46	C	1.403453	0.119767	0.753200
C47	C	0.903351	-0.180493	0.453397
C48	C	1.403351	0.319507	0.953397
C49	C	0.793623	-0.180508	0.453399
C50	C	1.293623	0.319492	0.953399
C51	C	1.302081	-0.531097	0.273287
C52	C	1.802081	-0.031097	0.773287
C53	C	1.282516	-0.622719	0.254760
C54	C	1.782516	-0.122719	0.754760
C55	C	1.497282	-0.870411	0.457660
C56	C	1.997282	-0.370411	0.957660
C57	C	1.478868	-0.956506	0.440237
C58	C	1.978868	-0.456506	0.940237
C59	C	1.367200	-0.977950	0.334711
C60	C	1.867200	-0.477950	0.834711
C61	C	1.385610	-0.891856	0.352122
C62	C	1.885610	-0.391856	0.852122
C63	C	1.450651	-0.838092	0.413598
C64	C	1.950651	-0.338092	0.913598
C65	C	1.338978	-0.859537	0.308060
C66	C	1.838978	-0.359537	0.808060
C67	C	1.357382	-0.773449	0.325473
C68	C	1.857382	-0.273449	0.825473
C69	C	1.422417	-0.719680	0.386948
C70	C	1.922417	-0.219680	0.886948
C71	C	1.469054	-0.752004	0.431011
C72	C	1.969054	-0.252004	0.931011
C73	C	1.273931	-0.913301	0.246588
C74	C	1.773931	-0.413301	0.746588
C75	C	1.227300	-0.880983	0.202526
C76	C	1.727300	-0.380983	0.702526
C77	C	1.245709	-0.794894	0.219935
C78	C	1.745709	-0.294894	0.719935
C79	C	1.310744	-0.741125	0.281410
C80	C	1.810744	-0.241125	0.781410
C81	C	1.199072	-0.762570	0.175871
C82	C	1.699072	-0.262570	0.675871
C83	C	1.217475	-0.676482	0.193284
C84	C	1.717475	-0.176482	0.693284
C85	C	1.329148	-0.655037	0.298823
C86	C	1.829148	-0.155037	0.798823
C87	C	1.622051	-0.316935	0.316665
C88	C	2.122051	0.183065	0.816665
C89	C	1.738824	-0.316942	0.316668
C90	C	2.238824	0.183058	0.816668
C91	C	1.301942	-0.273430	0.531636
C92	C	1.801942	0.226570	1.031636
C93	C	1.282305	-0.254898	0.623247
C94	C	1.782305	0.245102	1.123247
C95	C	1.394172	-0.101897	0.360215
C96	C	1.894172	0.398103	0.860215
C97	C	1.413838	-0.010268	0.378777
C98	C	1.913838	0.489732	0.878777
C99	C	1.198758	-0.176060	0.763047
C100	C	1.698758	0.323940	1.263047
C101	C	1.217218	-0.193479	0.676963
C102	C	1.717218	0.306521	1.176963
C103	C	1.328955	-0.298926	0.655600
C104	C	1.828955	0.201074	1.155600
C105	C	1.310501	-0.281518	0.741683
C106	C	1.810501	0.218482	1.241683
C107	C	1.245403	-0.220084	0.795401
C108	C	1.745403	0.279916	1.295401
C109	C	1.357145	-0.325542	0.774037
C110	C	1.857145	0.174458	1.274037
C111	C	1.338697	-0.308133	0.860113
C112	C	1.838697	0.191867	1.360113
C113	C	1.273604	-0.246700	0.913836
C114	C	1.773604	0.253300	1.413836
C115	C	1.226954	-0.202674	0.881477
C116	C	1.726954	0.297326	1.381477
C117	C	1.422249	-0.386973	0.720319
C118	C	1.922249	0.113027	1.220319
C119	C	1.468894	-0.430997	0.752672
C120	C	1.968894	0.069003	1.252672
C121	C	1.450439	-0.413592	0.838749
C122	C	1.950439	0.086408	1.338749
C123	C	1.385347	-0.352158	0.892472
C124	C	1.885347	0.147842	1.392472
C125	C	1.497089	-0.457617	0.871108
C126	C	1.997089	0.042383	1.371108
C127	C	1.478641	-0.440207	0.957185
C128	C	1.978641	0.059793	1.457185
C129	C	1.366899	-0.334749	0.978549
C130	C	1.866899	0.165251	1.478549
C131	C	1.393913	-0.360250	1.102511
C132	C	1.893913	0.139750	1.602511
C133	C	1.413543	-0.378773	1.010902
C134	C	1.913543	0.121227	1.510902
H135	H	0.777466	-0.124428	0.442932
H136	H	1.277466	0.375572	0.942932
C137	C	1.400695	-0.595892	0.366451
C138	C	1.900695	-0.095892	0.866451
N139	N	1.454577	-0.551343	0.417389
N140	N	1.954577	-0.051343	0.917389
C141	C	1.166189	-0.640931	0.144806
C142	C	1.666189	-0.140931	0.644806
N143	N	1.127560	-0.614155	0.108290
N144	N	1.627560	-0.114155	0.608290
C145	C	0.963833	-0.449868	0.183385
C146	C	1.463833	0.050132	0.683385
N147	N	1.009312	-0.502319	0.130797
N148	N	1.509312	-0.002319	0.630797
C149	C	1.540601	-0.692858	0.498639
C150	C	2.040601	-0.192858	0.998639
N151	N	1.594483	-0.648310	0.549578
N152	N	2.094483	-0.148310	1.049578
C153	C	1.155834	-0.940142	0.134852
C154	C	1.655834	-0.440142	0.634852
N155	N	1.102035	-0.984705	0.083859
N156	N	1.602035	-0.484705	0.583859
H157	H	1.381961	-0.348944	0.611853
H158	H	1.881961	0.151056	1.111853
H159	H	1.258938	-0.983397	0.232420
H160	H	1.758938	-0.483397	0.732420
C161	C	1.127592	-0.821730	0.108208
C162	C	1.627592	-0.321730	0.608208
N163	N	1.073778	-0.866292	0.057225
N164	N	1.573778	-0.366292	0.557225
H165	H	0.746492	-0.184804	0.513724
H166	H	1.246492	0.315196	1.013724
H167	H	0.950450	-0.120052	0.449339
H168	H	1.450450	0.379948	0.949339
C169	C	1.568829	-0.811265	0.525289
C170	C	2.068829	-0.311265	1.025289
N171	N	1.622711	-0.766716	0.576227
N172	N	2.122711	-0.266716	1.076227
C173	C	1.295279	-0.267173	1.037642
C174	C	1.795279	0.232827	1.537642
N175	N	1.241339	-0.216276	1.082151
N176	N	1.741339	0.283724	1.582151
C177	C	1.530172	-0.992052	0.488715
C178	C	2.030172	-0.492052	0.988715
N179	N	1.568811	-1.018824	0.525228
N180	N	2.068811	-0.518824	1.025228
H181	H	1.521900	-0.481015	0.708925
H182	H	2.021900	0.018985	1.208925
C183	C	1.295735	-1.037110	0.267037
C184	C	1.795735	-0.537110	0.767037
N185	N	1.241936	-1.081672	0.216044
N186	N	1.741936	-0.581672	0.716044
C187	C	1.155335	-0.135098	0.940570
C188	C	1.655335	0.364902	1.440570
N189	N	1.101395	-0.084201	0.985079
N190	N	1.601395	0.415799	1.485079
H191	H	1.437400	-0.649582	0.401124
H192	H	1.937400	-0.149582	0.901124
C193	C	1.127139	-0.108483	0.822141
C194	C	1.627139	0.391517	1.322141
N195	N	1.073199	-0.057587	0.866649
N196	N	1.573199	0.442413	1.366649
C197	C	0.733402	-0.449907	0.183402
C198	C	1.233402	0.050093	0.683402
N199	N	0.687967	-0.502374	0.130826
N200	N	1.187967	-0.002374	0.630826
H201	H	1.258590	-0.232523	0.983925
H202	H	1.758590	0.267477	1.483925
H203	H	1.179234	-0.157621	0.650627
H204	H	1.679234	0.342379	1.150627
C205	C	1.442540	-0.406123	0.625632
C206	C	1.942540	0.093877	1.125632
N207	N	1.457820	-0.420547	0.554313
N208	N	1.957820	0.079453	1.054313
C209	C	1.568701	-0.525189	0.812009
C210	C	2.068701	-0.025189	1.312009
N211	N	1.622638	-0.576086	0.767496
N212	N	2.122638	-0.076086	1.267496
H213	H	0.919488	-0.191196	0.509342
H214	H	1.419488	0.308804	1.009342
C215	C	1.529949	-0.488639	0.992775
C216	C	2.029949	0.011361	1.492775
N217	N	1.568597	-0.525117	1.019582
N218	N	2.068597	-0.025117	1.519582
