data_functionalizedCrystal
_audit_creation_method	'MofGen! by Chris Wilmer'
_symmetry_space_group_name_H-M	'P1'
_symmetry_Int_Tables_number	1
_symmetry_cell_setting	triclinic
loop_
_symmetry_equiv_pos_as_xyz
  x,y,z
_cell_length_a	12.759401
_cell_length_b	14.908178
_cell_length_c	12.759393
_cell_angle_alpha	86.667587
_cell_angle_beta	89.981433
_cell_angle_gamma	93.313111
loop_
_atom_site_label
_atom_site_type_symbol
_atom_site_fract_x
_atom_site_fract_y
_atom_site_fract_z
Zn1	Zn	1.582096	-0.359159	-0.569812
Zn2	Zn	2.082096	0.140841	-0.069812
Zn3	Zn	1.571839	-0.510058	-0.383977
Zn4	Zn	2.071839	-0.010058	0.116023
Zn5	Zn	1.406395	-0.359203	-0.394149
Zn6	Zn	1.906395	0.140797	0.105851
Zn7	Zn	1.396240	-0.509986	-0.559623
Zn8	Zn	1.896240	-0.009986	-0.059623
O9	O	1.489143	-0.434601	-0.476890
O10	O	1.989143	0.065399	0.023110
O11	O	1.727755	-0.379188	-0.545168
O12	O	2.227755	0.120812	-0.045168
O13	O	1.549850	-0.490096	-0.238302
O14	O	2.049850	0.009904	0.261698
O15	O	1.438244	-0.232942	-0.425972
O16	O	1.938244	0.267058	0.074028
O17	O	1.720220	-0.490053	-0.408636
O18	O	2.220220	0.009947	0.091364
O19	O	1.567330	-0.232909	-0.555031
O20	O	2.067330	0.267091	-0.055031
O21	O	1.428298	-0.379263	-0.245775
O22	O	1.928298	0.120737	0.254225
O23	O	1.258027	-0.379193	-0.416092
O24	O	1.758027	0.120807	0.083908
O25	O	1.420937	-0.489930	-0.707999
O26	O	1.920937	0.010070	-0.207999
O27	O	1.250567	-0.489973	-0.537665
O28	O	1.750567	0.010027	-0.037665
O29	O	1.557484	-0.379117	-0.715485
O30	O	2.057484	0.120883	-0.215485
O31	O	1.540004	-0.636304	-0.398756
O32	O	2.040004	-0.136304	0.101244
O33	O	1.410992	-0.636251	-0.527803
O34	O	1.910992	-0.136251	-0.027803
C35	C	1.216177	-0.434580	-0.476877
C36	C	1.716177	0.065420	0.023123
C37	C	1.099399	-0.434593	-0.476895
C38	C	1.599399	0.065407	0.023105
C39	C	1.048446	-0.376974	-0.548084
C40	C	1.548446	0.123026	-0.048084
C41	C	0.938721	-0.376992	-0.548090
C42	C	1.438721	0.123008	-0.048090
C43	C	0.930910	-0.492254	-0.405713
C44	C	1.430910	0.007746	0.094287
C45	C	1.040634	-0.492231	-0.405704
C46	C	1.540634	0.007769	0.094296
C47	C	1.052955	-0.310431	-0.630287
C48	C	1.552955	0.189569	-0.130287
C49	C	0.943230	-0.310448	-0.630293
C50	C	1.443230	0.189552	-0.130293
C51	C	1.473312	-0.669014	-0.461093
C52	C	1.973312	-0.169014	0.038907
C53	C	1.466635	-0.769297	-0.454370
C54	C	1.966635	-0.269297	0.045630
C55	C	1.588406	-0.957555	-0.576270
C56	C	2.088406	-0.457555	-0.076270
C57	C	1.582137	-1.051779	-0.569957
C58	C	2.082137	-0.551779	-0.069957
C59	C	1.447823	-1.051972	-0.435436
C60	C	1.947823	-0.551972	0.064564
C61	C	1.454092	-0.957747	-0.441749
C62	C	1.954092	-0.457747	0.058251
C63	C	1.524387	-0.910542	-0.512168
C64	C	2.024387	-0.410542	-0.012168
C65	C	1.530661	-0.816316	-0.518475
C66	C	2.030661	-0.316316	-0.018475
C67	C	1.396343	-0.816510	-0.383960
C68	C	1.896343	-0.316510	0.116040
C69	C	1.390073	-0.910735	-0.377646
C70	C	1.890073	-0.410735	0.122354
C71	C	1.763174	-0.434623	-0.476904
C72	C	2.263174	0.065377	0.023096
C73	C	1.879950	-0.434633	-0.476910
C74	C	2.379950	0.065367	0.023090
C75	C	1.489222	-0.434510	-0.750930
C76	C	1.989222	0.065490	-0.250930
C77	C	1.489256	-0.434472	-0.867709
C78	C	1.989256	0.065528	-0.367709
C79	C	1.505064	-0.199274	-0.492773
C80	C	2.005064	0.300726	0.007227
C81	C	1.511848	-0.098991	-0.499541
C82	C	2.011848	0.401009	0.000459
C83	C	1.560366	-0.376766	-0.926471
C84	C	2.060366	0.123234	-0.426471
C85	C	1.560393	-0.376734	-1.036198
C86	C	2.060393	0.123266	-0.536198
C87	C	1.418197	-0.492120	-1.028390
C88	C	1.918197	0.007880	-0.528390
C89	C	1.418166	-0.492147	-0.918666
C90	C	1.918166	0.007853	-0.418666
C91	C	1.642464	-0.310152	-0.930980
C92	C	2.142464	0.189848	-0.430980
C93	C	1.642492	-0.310119	-1.040706
C94	C	2.142492	0.189881	-0.540706
C95	C	1.489128	-0.434627	-0.203921
C96	C	1.989128	0.065373	0.296079
C97	C	1.489315	-0.434412	-0.087160
C98	C	1.989315	0.065588	0.412840
H99	H	0.883051	-0.539181	-0.347752
H100	H	1.383051	-0.039181	0.152248
F101	F	1.663228	-0.907313	-0.651203
F102	F	2.163228	-0.407313	-0.151203
F103	F	1.095279	-0.343244	-0.729032
F104	F	1.595279	0.156756	-0.229032
H105	H	1.087424	-0.240526	-0.613338
H106	H	1.587424	0.259474	-0.113338
F107	F	1.747204	-0.334571	-1.077988
F108	F	2.247204	0.165429	-0.577988
H109	H	1.082116	-0.539142	-0.347725
H110	H	1.582116	-0.039142	0.152275
F111	F	1.650272	-1.101810	-0.638186
F112	F	2.150272	-0.601810	-0.138186
F113	F	1.372995	-1.102226	-0.360519
F114	F	1.872995	-0.602226	0.139481
H115	H	1.360316	-0.539075	-1.069892
H116	H	1.860316	-0.039075	-0.569892
F117	F	1.315257	-0.960984	-0.302713
F118	F	1.815257	-0.460984	0.197287
H119	H	1.344217	-0.778222	-0.331760
H120	H	1.844217	-0.278222	0.168240
H121	H	0.913655	-0.244043	-0.605762
H122	H	1.413655	0.255957	-0.105762
H123	H	0.912220	-0.329251	-0.710363
H124	H	1.412220	0.170749	-0.210363
F125	F	1.610155	-0.223383	-1.091052
F126	F	2.110155	0.276617	-0.591052
F127	F	1.605478	-0.766078	-0.593416
F128	F	2.105478	-0.266078	-0.093416
F129	F	1.342468	-0.553552	-0.856131
F130	F	1.842468	-0.053552	-0.356131
H131	H	1.625396	-0.240279	-0.905926
H132	H	2.125396	0.259721	-0.405926
H133	H	1.718051	-0.335202	-0.895258
H134	H	2.218051	0.164798	-0.395258
