data_functionalizedCrystal
_audit_creation_method	'MofGen! by Chris Wilmer'
_symmetry_space_group_name_H-M	'P1'
_symmetry_Int_Tables_number	1
_symmetry_cell_setting	triclinic
loop_
_symmetry_equiv_pos_as_xyz
  x,y,z
_cell_length_a	10.654550
_cell_length_b	10.654550
_cell_length_c	9.730223
_cell_angle_alpha	90.004253
_cell_angle_beta	90.000043
_cell_angle_gamma	84.484931
loop_
_atom_site_label
_atom_site_type_symbol
_atom_site_fract_x
_atom_site_fract_y
_atom_site_fract_z
O1	O	-1.667839	-0.176399	-0.114187
O2	O	-1.302361	-0.193205	-0.114212
O3	O	-1.493503	-0.002062	-0.114190
O4	O	-1.476697	-0.367541	-0.114209
O5	O	-1.493490	-0.002057	0.114390
O6	O	-1.302348	-0.193199	0.114368
O7	O	-1.667827	-0.176393	0.114393
Zn8	Zn	-1.485085	-0.184796	0.150672
Zn9	Zn	-1.485102	-0.184802	-0.150492
O10	O	-1.476684	-0.367536	0.114371
C11	C	-1.255556	-0.191968	0.000075
C12	C	-1.116113	-0.188276	0.000065
C13	C	-1.492263	0.044738	0.000099
C14	C	-1.488571	0.184181	0.000096
C15	C	-1.714631	-0.177630	0.000103
C16	C	-1.854074	-0.181322	0.000104
C17	C	-1.477925	-0.414336	0.000079
C18	C	-1.481617	-0.553779	0.000072
C19	C	-1.036628	-0.300818	0.000064
C20	C	-0.905607	-0.297341	0.000088
C21	C	-0.933570	-0.068772	0.000109
C22	C	-1.064588	-0.072250	0.000095
N23	N	-1.485083	-0.184790	0.356209
C24	C	-1.601112	0.263667	0.000104
C25	C	-1.597636	0.394688	0.000087
C26	C	-1.369066	0.366725	0.000061
C27	C	-1.372544	0.235706	0.000068
N28	N	-1.485114	-0.184798	-0.356028
C29	C	-1.569750	-0.100188	0.428144
C30	C	-1.569763	-0.100189	0.572027
C31	C	-1.400438	-0.269404	0.572026
C32	C	-1.400420	-0.269396	0.428146
H33	H	-1.078574	-0.395294	0.000049
C34	C	-1.662901	-0.007132	0.651151
H35	H	-1.713323	0.043248	0.587696
H36	H	-1.617286	0.045573	0.707293
H37	H	-1.715577	-0.052812	0.707263
C38	C	-1.662873	-0.007128	0.349011
H39	H	-1.650750	-0.019248	0.253017
H40	H	-1.648522	0.076822	0.372602
H41	H	-1.746810	-0.021566	0.372583
C42	C	-1.152034	0.051549	0.000096
H43	H	-1.237442	0.032857	0.000098
H44	H	-1.136305	0.099080	-0.079607
H45	H	-1.136314	0.099072	0.079825
C46	C	-0.818178	-0.421137	0.000076
H47	H	-0.867634	-0.490731	0.000046
H48	H	-0.766493	-0.424540	0.079792
H49	H	-0.766481	-0.424525	-0.079640
H50	H	-1.331508	-0.338290	0.630612
H51	H	-0.891602	0.025693	0.000142
C52	C	-1.728735	0.206993	0.000119
H53	H	-1.795262	0.273101	0.000109
H54	H	-1.734842	0.156471	0.079832
H55	H	-1.734846	0.156458	-0.079600
H56	H	-1.689279	0.459401	0.000090
H57	H	-1.274601	0.408693	0.000041
H58	H	-1.280893	0.170985	0.000058
H59	H	-1.331468	-0.338290	0.369572
