data_functionalizedCrystal
_audit_creation_method	'MofGen! by Chris Wilmer'
_symmetry_space_group_name_H-M	'P1'
_symmetry_Int_Tables_number	1
_symmetry_cell_setting	triclinic
loop_
_symmetry_equiv_pos_as_xyz
  x,y,z
_cell_length_a	19.077312
_cell_length_b	29.839131
_cell_length_c	19.076919
_cell_angle_alpha	87.739939
_cell_angle_beta	85.331053
_cell_angle_gamma	87.741726
loop_
_atom_site_label
_atom_site_type_symbol
_atom_site_fract_x
_atom_site_fract_y
_atom_site_fract_z
Zn1	Zn	1.061590	-0.215151	0.355208
Zn2	Zn	1.394923	0.118183	0.688541
Zn3	Zn	1.728256	0.451516	1.021874
Zn4	Zn	1.066224	-0.287374	0.237306
Zn5	Zn	1.399557	0.045960	0.570639
Zn6	Zn	1.732891	0.379293	0.903973
Zn7	Zn	0.948449	-0.209366	0.242077
Zn8	Zn	1.281782	0.123968	0.575410
Zn9	Zn	1.615116	0.457301	0.908744
Zn10	Zn	0.943656	-0.287355	0.359889
Zn11	Zn	1.276989	0.045978	0.693222
Zn12	Zn	1.610322	0.379312	1.026556
O13	O	1.004980	-0.249811	0.298620
O14	O	1.338313	0.083522	0.631953
O15	O	1.671646	0.416855	0.965287
O16	O	1.160850	-0.227160	0.335612
O17	O	1.494183	0.106173	0.668945
O18	O	1.827516	0.439507	1.002279
O19	O	1.054546	-0.274612	0.139292
O20	O	1.387880	0.058721	0.472625
O21	O	1.721213	0.392054	0.805959
O22	O	0.963524	-0.147268	0.257122
O23	O	1.296857	0.186065	0.590455
O24	O	1.630191	0.519398	0.923788
O25	O	1.164254	-0.280222	0.248990
O26	O	1.497588	0.053111	0.582324
O27	O	1.830921	0.386445	0.915657
O28	O	1.046648	-0.151519	0.340238
O29	O	1.379981	0.181815	0.673572
O30	O	1.713315	0.515148	1.006905
O31	O	0.968018	-0.217300	0.142797
O32	O	1.301351	0.116033	0.476131
O33	O	1.634684	0.449367	0.809464
O34	O	0.849168	-0.217282	0.261661
O35	O	1.182501	0.116051	0.594994
O36	O	1.515835	0.449385	0.928327
O37	O	0.955354	-0.280190	0.457915
O38	O	1.288688	0.053143	0.791248
O39	O	1.622021	0.386476	1.124582
O40	O	0.845646	-0.274581	0.348217
O41	O	1.178980	0.058753	0.681550
O42	O	1.512313	0.392086	1.014883
O43	O	1.042000	-0.227142	0.454476
O44	O	1.375333	0.106191	0.787809
O45	O	1.708667	0.439525	1.121142
O46	O	1.049898	-0.350236	0.253529
O47	O	1.383232	-0.016902	0.586863
O48	O	1.716565	0.316431	0.920196
O49	O	0.959848	-0.350222	0.343591
O50	O	1.293181	-0.016889	0.676924
O51	O	1.626515	0.316445	1.010257
C52	C	0.821829	-0.245302	0.305965
C53	C	1.155163	0.088031	0.639298
C54	C	1.488496	0.421365	0.972631
C55	C	0.743476	-0.243384	0.309124
C56	C	1.076810	0.089949	0.642457
C57	C	1.410143	0.423283	0.975790
C58	C	0.302240	-0.229593	0.331787
C59	C	0.635573	0.103740	0.665121
C60	C	0.968907	0.437073	0.998454
C61	C	0.375861	-0.231403	0.328815
C62	C	0.709195	0.101930	0.662148
C63	C	1.042528	0.435263	0.995482
C64	C	0.414439	-0.259886	0.282157
C65	C	0.747772	0.073447	0.615490
C66	C	1.081105	0.406781	0.948823
C67	C	0.379391	-0.286563	0.238473
C68	C	0.712724	0.046770	0.571806
C69	C	1.046057	0.380103	0.905139
C70	C	0.305771	-0.284755	0.241449
C71	C	0.639104	0.048578	0.574782
C72	C	0.972437	0.381911	0.908115
C73	C	0.634808	-0.268253	0.268416
C74	C	0.968142	0.065080	0.601749
C75	C	1.301475	0.398413	0.935082
C76	C	0.708434	-0.270059	0.265441
C77	C	1.041767	0.063275	0.598775
C78	C	1.375100	0.396608	0.932108
C79	C	0.704899	-0.214899	0.355785
C80	C	1.038232	0.118434	0.689119
C81	C	1.371566	0.451768	1.022452
C82	C	0.631278	-0.213091	0.358754
C83	C	0.964611	0.120242	0.692087
C84	C	1.297945	0.453575	1.025421
C85	C	0.596236	-0.239770	0.315073
C86	C	0.929570	0.093563	0.648406
C87	C	1.262903	0.426896	0.981739
N88	N	0.489691	-0.261736	0.279116
N89	N	0.823025	0.071597	0.612449
N90	N	1.156358	0.404931	0.945783
N91	N	0.520985	-0.237922	0.318117
N92	N	0.854318	0.095411	0.651451
N93	N	1.187651	0.428744	0.984784
C94	C	1.004874	-0.366530	0.298565
C95	C	1.338208	-0.033196	0.631898
C96	C	1.671541	0.300137	0.965232
C97	C	1.004893	-0.416465	0.298562
C98	C	1.338226	-0.083131	0.631896
C99	C	1.671560	0.250202	0.965229
C100	C	1.048250	-0.728291	0.341963
C101	C	1.381583	-0.394958	0.675297
C102	C	1.714917	-0.061625	1.008630
C103	C	1.048325	-0.915967	0.342003
C104	C	1.381658	-0.582634	0.675336
C105	C	1.714991	-0.249300	1.008669
O106	O	1.085085	-0.942085	0.378864
O107	O	1.418418	-0.608751	0.712197
O108	O	1.751751	-0.275418	1.045531
N109	N	1.005096	-0.937258	0.298693
N110	N	1.338429	-0.603925	0.632027
N111	N	1.671763	-0.270591	0.965360
C112	C	0.961842	-0.911627	0.255375
C113	C	1.295176	-0.578294	0.588708
C114	C	1.628509	-0.244960	0.922041
O115	O	0.925070	-0.934043	0.218543
O116	O	1.258404	-0.600709	0.551877
O117	O	1.591737	-0.267376	0.885210
C118	C	0.961764	-0.723952	0.255339
C119	C	1.295098	-0.390619	0.588673
C120	C	1.628431	-0.057285	0.922006
C121	C	1.005001	-0.702664	0.298646
C122	C	1.338334	-0.369330	0.631980
C123	C	1.671668	-0.035997	0.965313
C124	C	1.091482	-0.707003	0.385267
C125	C	1.424816	-0.373669	0.718601
C126	C	1.758149	-0.040336	1.051934
C127	C	1.091466	-0.660086	0.385254
C128	C	1.424799	-0.326753	0.718588
C129	C	1.758133	0.006580	1.051921
C130	C	1.048217	-0.634459	0.341937
C131	C	1.381551	-0.301125	0.675271
C132	C	1.714884	0.032208	1.008604
C133	C	1.004985	-0.655747	0.298633
C134	C	1.338318	-0.322414	0.631967
C135	C	1.671651	0.010919	0.965300
C136	C	0.918508	-0.698322	0.212025
C137	C	1.251841	-0.364989	0.545358
C138	C	1.585174	-0.031655	0.878691
C139	C	0.918491	-0.651400	0.212021
C140	C	1.251824	-0.318067	0.545354
C141	C	1.585157	0.015266	0.878688
C142	C	0.961727	-0.630112	0.255328
C143	C	1.295061	-0.296779	0.588661
C144	C	1.628394	0.036555	0.921995
C145	C	0.961720	-0.583204	0.255303
C146	C	1.295053	-0.249870	0.588636
C147	C	1.628386	0.083463	0.921970
N148	N	1.004948	-0.561913	0.298613
N149	N	1.338281	-0.228579	0.631946
N150	N	1.671615	0.104754	0.965279
C151	C	1.048197	-0.587540	0.341930
C152	C	1.381530	-0.254207	0.675263
C153	C	1.714864	0.079126	1.008596
C154	C	0.961887	-1.010159	0.255395
C155	C	1.295221	-0.676826	0.588728
C156	C	1.628554	-0.343493	0.922062
C157	C	0.961908	-1.057078	0.255403
C158	C	1.295241	-0.723745	0.588736
C159	C	1.628574	-0.390411	0.922069
C160	C	1.048389	-1.061415	0.342032
C161	C	1.381723	-0.728081	0.675365
C162	C	1.715056	-0.394748	1.008699
C163	C	1.048372	-1.014495	0.342020
C164	C	1.381705	-0.681162	0.675353
C165	C	1.715039	-0.347829	1.008687
C166	C	1.005116	-0.988868	0.298704
C167	C	1.338449	-0.655535	0.632038
C168	C	1.671783	-0.322202	0.965371
C169	C	1.048160	-0.489013	0.341898
C170	C	1.381493	-0.155679	0.675232
C171	C	1.714827	0.177654	1.008565
C172	C	1.048142	-0.442092	0.341879
C173	C	1.381475	-0.108759	0.675213
C174	C	1.714808	0.224575	1.008546
C175	C	0.961658	-0.437759	0.255253
C176	C	1.294991	-0.104426	0.588586
C177	C	1.628325	0.228907	0.921920
C178	C	0.961678	-0.484676	0.255269
C179	C	1.295012	-0.151342	0.588602
C180	C	1.628345	0.181991	0.921936
C181	C	1.004931	-0.510302	0.298597
C182	C	1.338265	-0.176968	0.631931
C183	C	1.671598	0.156365	0.965264
O184	O	0.924973	-0.557058	0.218467
O185	O	1.258306	-0.223725	0.551800
O186	O	1.591640	0.109608	0.885134
O187	O	1.084952	-0.565116	0.378767
O188	O	1.418285	-0.231783	0.712100
O189	O	1.751619	0.101550	1.045433
C190	C	1.048266	-0.775207	0.341977
C191	C	1.381599	-0.441874	0.675310
C192	C	1.714933	-0.108541	1.008643
C193	C	1.005034	-0.796496	0.298673
C194	C	1.338367	-0.463163	0.632006
C195	C	1.671700	-0.129829	0.965339
C196	C	0.961785	-0.770868	0.255355
C197	C	1.295118	-0.437535	0.588689
C198	C	1.628452	-0.104202	0.922022
C199	C	1.005054	-0.843415	0.298680
C200	C	1.338387	-0.510081	0.632014
C201	C	1.671721	-0.176748	0.965347
C202	C	1.048303	-0.869042	0.341997
C203	C	1.381636	-0.535709	0.675331
C204	C	1.714969	-0.202375	1.008664
C205	C	1.091531	-0.847751	0.385307
C206	C	1.424865	-0.514418	0.718640
C207	C	1.758198	-0.181084	1.051973
C208	C	1.091515	-0.800835	0.385294
C209	C	1.424848	-0.467502	0.718627
C210	C	1.758182	-0.134168	1.051960
C211	C	0.918556	-0.792159	0.212046
C212	C	1.251890	-0.458826	0.545379
C213	C	1.585223	-0.125493	0.878713
C214	C	0.918577	-0.839076	0.212062
C215	C	1.251910	-0.505742	0.545395
C216	C	1.585243	-0.172409	0.878729
C217	C	0.961826	-0.864703	0.255379
C218	C	1.295159	-0.531370	0.588713
C219	C	1.628492	-0.198037	0.922046
C220	C	1.188845	-0.254338	0.291247
C221	C	1.522178	0.078995	0.624580
C222	C	1.855512	0.412328	0.957914
C223	C	1.267197	-0.256268	0.288105
C224	C	1.600531	0.077066	0.621438
C225	C	1.933864	0.410399	0.954772
C226	C	0.997625	-0.254309	0.482489
C227	C	1.330959	0.079024	0.815822
C228	C	1.664292	0.412357	1.149155
C229	C	0.994492	-0.256226	0.560842
C230	C	1.327825	0.077107	0.894176
C231	C	1.661158	0.410440	1.227509
C232	C	1.005104	-0.132638	0.298690
C233	C	1.338437	0.200696	0.632023
C234	C	1.671770	0.534029	0.965357
C235	C	1.005157	-0.082705	0.298720
C236	C	1.338490	0.250628	0.632053
C237	C	1.671823	0.583961	0.965386
C238	C	1.012346	-0.245299	0.115465
C239	C	1.345679	0.088034	0.448798
C240	C	1.679012	0.421368	0.782132
C241	C	1.015616	-0.243259	0.037106
C242	C	1.348950	0.090074	0.370440
C243	C	1.682283	0.423408	0.703773
C244	C	1.038129	-0.229509	0.595864
C245	C	1.371462	0.103825	0.929197
C246	C	1.704795	0.437158	1.262530
C247	C	1.035176	-0.231308	0.669486
C248	C	1.368509	0.102025	1.002819
C249	C	1.701842	0.435359	1.336152
C250	C	0.988588	-0.259827	0.708085
C251	C	1.321922	0.073506	1.041418
C252	C	1.655255	0.406839	1.374752
C253	C	0.944946	-0.286546	0.673059
C254	C	1.278280	0.046787	1.006392
C255	C	1.611613	0.380121	1.339725
C256	C	0.947896	-0.284744	0.599438
C257	C	1.281230	0.048589	0.932771
C258	C	1.614563	0.381922	1.266105
C259	C	0.974924	-0.268176	0.928459
C260	C	1.308258	0.065158	1.261793
C261	C	1.641591	0.398491	1.595126
C262	C	0.971979	-0.269977	1.002085
C263	C	1.305312	0.063357	1.335418
C264	C	1.638646	0.396690	1.668752
C265	C	1.062208	-0.214738	0.998507
C266	C	1.395541	0.118596	1.331840
C267	C	1.728874	0.451929	1.665174
C268	C	1.065157	-0.212940	0.924885
C269	C	1.398490	0.120393	1.258218
C270	C	1.731823	0.453726	1.591552
C271	C	1.021512	-0.239657	0.889865
C272	C	1.354846	0.093676	1.223198
C273	C	1.688179	0.427010	1.556532
N274	N	0.985570	-0.261668	0.783339
N275	N	1.318903	0.071665	1.116672
N276	N	1.652237	0.404998	1.450005
N277	N	1.024527	-0.237814	0.814613
N278	N	1.357861	0.095520	1.147946
N279	N	1.691194	0.428853	1.481280
H280	H	0.606287	-0.289976	0.232845
H281	H	0.939620	0.043357	0.566178
H282	H	1.272953	0.376691	0.899512
H283	H	1.126722	-0.783505	0.420558
H284	H	1.460055	-0.450172	0.753892
H285	H	1.793389	-0.116839	1.087225
H286	H	1.126671	-0.642756	0.420521
H287	H	1.460004	-0.309423	0.753854
H288	H	1.793337	0.023910	1.087187
Br289	Br	0.249892	-0.190933	0.395107
Br290	Br	0.583226	0.142401	0.728440
Br291	Br	0.916559	0.475734	1.061773
Br292	Br	0.881715	-0.325249	0.725443
Br293	Br	1.215049	0.008085	1.058776
Br294	Br	1.548382	0.341418	1.392109
H295	H	0.733438	-0.193179	0.391349
H296	H	1.066771	0.140154	0.724682
H297	H	1.400105	0.473488	1.058015
Br298	Br	0.902967	-0.402970	0.196467
Br299	Br	1.236301	-0.069637	0.529800
Br300	Br	1.569634	0.263696	0.863134
H301	H	1.126700	-0.727864	0.420546
H302	H	1.460034	-0.394531	0.753879
H303	H	1.793367	-0.061197	1.087212
H304	H	0.739841	-0.293254	0.227445
H305	H	1.073175	0.040079	0.560778
H306	H	1.406508	0.373413	0.894112
Br307	Br	0.431744	-0.325222	0.175155
Br308	Br	0.765078	0.008111	0.508488
Br309	Br	1.098411	0.341444	0.841821
H310	H	1.083376	-0.509872	0.377185
H311	H	1.416709	-0.176538	0.710519
H312	H	1.750042	0.156795	1.043852
Br313	Br	0.423417	-0.195205	0.388107
Br314	Br	0.756750	0.138129	0.721440
Br315	Br	1.090083	0.471462	1.054774
Br316	Br	0.258211	-0.320963	0.182172
Br317	Br	0.591544	0.012370	0.515505
Br318	Br	0.924878	0.345703	0.848838
H319	H	1.070711	-0.209553	0.697997
H320	H	1.404045	0.123781	1.031330
H321	H	1.737378	0.457114	1.364663
H322	H	1.083353	-0.424761	0.377145
H323	H	1.416686	-0.091427	0.710478
H324	H	1.750019	0.241906	1.043812
Br325	Br	1.150229	-0.882541	0.444090
Br326	Br	1.483563	-0.549207	0.777423
Br327	Br	1.816896	-0.215874	1.110757
H328	H	0.912355	-0.306496	0.570925
H329	H	1.245689	0.026838	0.904258
H330	H	1.579022	0.360171	1.237592
Br331	Br	0.903011	-0.513568	0.196484
Br332	Br	1.236345	-0.180235	0.529817
Br333	Br	1.569678	0.153098	0.863150
Br334	Br	1.128387	-0.174235	0.872505
Br335	Br	1.461720	0.159098	1.205838
Br336	Br	1.795054	0.492431	1.539172
H337	H	0.599873	-0.189900	0.396751
H338	H	0.933206	0.143434	0.730084
H339	H	1.266540	0.476767	1.063418
Br340	Br	1.107052	-0.985609	0.400796
Br341	Br	1.440386	-0.652276	0.734129
Br342	Br	1.773719	-0.318942	1.067462
Br343	Br	0.859850	-0.757386	0.153258
Br344	Br	1.193183	-0.424053	0.486591
Br345	Br	1.526517	-0.090720	0.819924
Br346	Br	1.107084	-1.096204	0.400819
Br347	Br	1.440418	-0.762870	0.734152
Br348	Br	1.773751	-0.429537	1.067485
H349	H	1.076067	-0.206287	0.564441
H350	H	1.409401	0.127047	0.897775
H351	H	1.742734	0.460380	1.231108
Br352	Br	0.908747	-0.308682	1.054470
Br353	Br	1.242080	0.024651	1.387803
Br354	Br	1.575413	0.357984	1.721137
Br355	Br	0.903240	-1.085963	0.196614
Br356	Br	1.236573	-0.752630	0.529948
Br357	Br	1.569906	-0.419297	0.863281
H358	H	0.926662	-0.989297	0.220120
H359	H	1.259996	-0.655963	0.553454
H360	H	1.593329	-0.322630	0.886787
Br361	Br	0.859781	-0.616623	0.153233
Br362	Br	1.193114	-0.283290	0.486567
Br363	Br	1.526448	0.050043	0.819900
H364	H	0.883300	-0.715647	0.176759
H365	H	1.216633	-0.382313	0.510093
H366	H	1.549967	-0.048980	0.843426
H367	H	0.883370	-0.856404	0.176790
H368	H	1.216703	-0.523071	0.510123
H369	H	1.550036	-0.189738	0.843456
H370	H	1.097740	-0.192986	1.027028
H371	H	1.431073	0.140348	1.360361
H372	H	1.764406	0.473681	1.693695
H373	H	0.939396	-0.289937	0.899955
H374	H	1.272730	0.043396	1.233288
H375	H	1.606063	0.376729	1.566621
