data_functionalizedCrystal
_audit_creation_method	'MofGen! by Chris Wilmer'
_symmetry_space_group_name_H-M	'P1'
_symmetry_Int_Tables_number	1
_symmetry_cell_setting	triclinic
loop_
_symmetry_equiv_pos_as_xyz
  x,y,z
_cell_length_a	31.640172
_cell_length_b	17.917603
_cell_length_c	17.917559
_cell_angle_alpha	60.139256
_cell_angle_beta	90.007221
_cell_angle_gamma	63.032812
loop_
_atom_site_label
_atom_site_type_symbol
_atom_site_fract_x
_atom_site_fract_y
_atom_site_fract_z
Zr1	Zr	0.431294	0.806767	-0.128958
O2	O	0.370647	0.951809	-0.249506
O3	O	0.446988	0.654537	-0.087303
O4	O	0.454645	0.796383	-0.242708
O5	O	0.360246	0.820659	0.023139
O6	O	0.524202	0.796369	-0.242692
O7	O	0.362989	0.809962	-0.094101
O8	O	0.510503	0.542632	0.035300
O9	O	0.373944	1.074397	-0.254853
O10	O	0.509091	0.719803	-0.075204
O11	O	0.455135	0.727797	0.012279
O12	O	0.464151	0.894803	-0.170691
O13	O	0.410194	0.902796	-0.083208
Zr14	Zr	0.537853	0.823805	0.058052
Zr15	Zr	0.542229	0.806744	-0.128932
Zr16	Zr	0.426919	0.823828	0.058026
Zr17	Zr	0.436553	1.002281	-0.137484
Zr18	Zr	0.532595	0.628291	0.066579
O19	O	0.522160	0.976035	0.016398
O20	O	0.528381	0.951777	-0.249469
O21	O	0.364425	0.976067	0.016361
O22	O	0.598500	0.678763	0.178601
O23	O	0.604722	0.654505	-0.087266
O24	O	0.440766	0.678795	0.178564
O25	O	0.608901	0.809913	-0.094044
O26	O	0.514502	0.834189	0.171803
O27	O	0.444946	0.834203	0.171787
O28	O	0.606158	0.820610	0.023196
O29	O	0.462122	1.074379	-0.254832
O30	O	0.507025	0.556193	0.183927
O31	O	0.595203	0.556175	0.183948
O32	O	0.598681	0.542614	0.035320
O33	O	0.370466	1.087958	-0.106225
O34	O	0.458644	1.087940	-0.106205
O35	O	0.504996	0.735769	0.099786
O36	O	0.558953	0.727776	0.012303
O37	O	0.514012	0.902775	-0.083184
O38	O	0.460056	0.910769	0.004299
C39	C	0.477996	0.570728	-0.024787
C40	C	0.475764	0.487727	-0.021167
C41	C	0.471686	0.335761	-0.014556
C42	C	0.497460	0.294806	-0.056347
C43	C	0.495191	0.210247	-0.052668
C44	C	0.473954	0.420328	-0.018233
C45	C	0.345812	0.815314	-0.035485
C46	C	0.298717	0.815323	-0.035496
C47	C	0.030167	0.723930	0.014409
C48	C	-0.146819	0.723913	0.014427
O49	O	-0.149755	0.646227	0.056848
N50	N	-0.192407	0.815260	-0.035418
C51	C	-0.193748	0.906618	-0.085265
O52	O	-0.236585	0.984315	-0.127653
C53	C	-0.016763	0.906635	-0.085278
C54	C	0.028825	0.815281	-0.035437
C55	C	0.075753	0.632583	0.064246
C56	C	0.119997	0.632588	0.064237
C57	C	0.118655	0.723939	0.014391
C58	C	0.073069	0.815285	-0.035446
C59	C	-0.018104	0.997992	-0.135120
C60	C	0.026147	0.997988	-0.135116
C61	C	0.071735	0.906634	-0.085276
C62	C	0.115970	0.906641	-0.085301
N63	N	0.161559	0.815294	-0.035457
C64	C	0.162901	0.723943	0.014389
C65	C	-0.286666	0.906603	-0.085257
C66	C	-0.330912	0.906600	-0.085255
C67	C	-0.283980	0.723894	0.014439
C68	C	-0.239733	0.723898	0.014431
C69	C	-0.241078	0.815256	-0.035412
C70	C	0.255814	0.723960	0.014366
C71	C	0.300059	0.723972	0.014350
C72	C	0.253123	0.906678	-0.085339
C73	C	0.208882	0.906666	-0.085327
C74	C	0.210230	0.815299	-0.035468
O75	O	0.118944	0.984287	-0.127692
O76	O	0.205742	0.646259	0.056787
C77	C	-0.014077	0.723925	0.014418
C78	C	-0.059662	0.815271	-0.035419
C79	C	-0.061004	0.906622	-0.085265
C80	C	-0.103908	0.815267	-0.035418
C81	C	-0.102566	0.723916	0.014428
C82	C	-0.056978	0.632569	0.064272
C83	C	-0.012734	0.632574	0.064264
C84	C	-0.106593	0.997969	-0.135110
C85	C	-0.150834	0.997957	-0.135098
C86	C	-0.149492	0.906606	-0.085252
C87	C	0.623335	0.815258	-0.035420
C88	C	0.670430	0.815249	-0.035409
C89	C	0.490047	0.793946	-0.269341
C90	C	0.491905	0.786703	-0.348721
C91	C	0.491151	1.059844	-0.046118
C92	C	0.493383	1.142845	-0.049738
C93	C	0.473840	0.857087	-0.576825
C94	C	0.495306	0.773489	-0.494077
C95	C	0.493413	0.780844	-0.413194
C96	C	0.475733	0.849735	-0.657717
C97	C	0.479100	0.836626	0.198436
C98	C	0.477243	0.843869	0.277815
C99	C	0.616758	0.570700	-0.024754
C100	C	0.661620	0.487690	-0.021123
C101	C	0.472523	0.592068	0.209102
C102	C	0.468433	0.516310	0.292101
C103	C	0.611285	0.592040	0.209134
C104	C	0.654289	0.516273	0.292145
C105	C	0.357862	1.038532	-0.280039
C106	C	0.314858	1.114299	-0.363050
C107	C	0.352389	1.059872	-0.046151
C108	C	0.307527	1.142882	-0.049782
C109	C	0.496624	1.038504	-0.280007
C110	C	0.500714	1.114262	-0.363006
C111	C	0.656661	0.444545	-0.065104
C112	C	0.698810	0.366557	-0.061710
C113	C	0.745918	0.331711	-0.014330
C114	C	0.750877	0.374863	0.029651
C115	C	0.708728	0.452855	0.026252
C116	C	0.492540	0.484896	0.376764
C117	C	0.488695	0.413725	0.454758
C118	C	0.460746	0.373964	0.448086
C119	C	0.436637	0.405385	0.363414
C120	C	0.440479	0.476560	0.285423
C121	C	0.702654	0.476519	0.285462
C122	C	0.743066	0.405338	0.363452
C123	C	0.735112	0.373906	0.448123
C124	C	0.686743	0.413667	0.454804
C125	C	0.646332	0.484853	0.376815
C126	C	0.266493	1.154062	-0.356368
C127	C	0.226082	1.225268	-0.434358
C128	C	0.234036	1.256704	-0.519030
C129	C	0.282406	1.216937	-0.525710
C130	C	0.322816	1.145738	-0.447721
C131	C	0.312487	1.186035	-0.005810
C132	C	0.270338	1.264042	-0.009225
C133	C	0.223231	1.298891	-0.056607
C134	C	0.218272	1.255735	-0.100585
C135	C	0.260420	1.177734	-0.097175
C136	C	0.528666	1.154000	-0.356306
C137	C	0.532519	1.225173	-0.434285
C138	C	0.508416	1.256612	-0.518964
C139	C	0.480462	1.216865	-0.525662
C140	C	0.476613	1.145688	-0.447684
H141	H	0.337179	0.649578	0.054939
H142	H	0.179911	1.284121	-0.139163
N143	N	0.251681	1.005203	-0.139105
H144	H	0.286630	0.991335	-0.131540
H145	H	0.232678	1.049100	-0.116942
H146	H	0.420850	0.502128	0.216490
H147	H	0.515104	0.696395	-0.483979
H148	H	0.454041	0.934175	-0.586922
H149	H	0.256375	1.142601	-0.132980
H150	H	0.260007	1.128472	-0.287431
H151	H	0.618308	0.472914	-0.103697
N152	N	0.711240	0.510402	0.194145
H153	H	0.748014	0.474410	0.201760
H154	H	0.696935	0.585688	0.157786
N155	N	0.446456	1.102842	-0.454913
H156	H	0.468518	1.027189	-0.422589
H157	H	0.431774	1.133638	-0.520409
H158	H	0.789237	0.346480	0.068227
N159	N	0.290983	1.250841	-0.617035
H160	H	0.276707	1.326121	-0.653431
H161	H	0.274234	1.234199	-0.649346
H162	H	0.362196	1.113363	-0.453172
N163	N	0.795229	0.362454	0.356222
H164	H	0.812015	0.286802	0.388552
H165	H	0.814453	0.378734	0.384511
H166	H	0.521230	0.323250	-0.094887
N167	N	0.594165	0.527722	0.384022
H168	H	0.590118	0.563082	0.415561
H169	H	0.587691	0.471165	0.419548
H170	H	0.188915	1.362405	-0.059377
H171	H	0.447917	0.307321	0.023980
H172	H	0.186701	1.257634	-0.428902
N173	N	0.554665	1.120102	-0.264980
H174	H	0.572957	1.156081	-0.272582
H175	H	0.579028	1.044814	-0.228625
H176	H	0.201127	1.314679	-0.582527
N177	N	0.257271	0.625417	0.068142
H178	H	0.292867	0.567558	0.099707
H179	H	0.240961	0.617424	0.026392
N180	N	0.363292	1.148458	0.045298
H181	H	0.360031	1.187645	0.072628
H182	H	0.384177	1.158199	0.002772
N183	N	0.522687	0.527770	0.383973
H184	H	0.537370	0.497063	0.449447
H185	H	0.500590	0.603420	0.351592
N186	N	0.693451	0.320029	-0.109151
H187	H	0.672475	0.289861	-0.083776
H188	H	0.727314	0.265379	-0.099808
N189	N	0.275696	1.310589	0.038198
H190	H	0.241850	1.365303	0.028841
H191	H	0.296699	1.340674	0.012800
H192	H	0.508330	0.388151	0.523693
H193	H	0.555280	1.257528	-0.428814
N194	N	0.169160	0.534050	0.117998
H195	H	0.170687	0.498126	0.183712
H196	H	0.196965	0.547972	0.110370
H197	H	0.025046	1.072386	-0.175695
H198	H	0.511554	1.314570	-0.582452
H199	H	0.712773	0.487974	0.062072
N200	N	0.454467	1.250779	-0.616997
H201	H	0.461148	1.301902	-0.665372
H202	H	0.417603	1.282466	-0.625330
H203	H	0.076854	0.558191	0.104841
N204	N	0.036432	0.534042	0.118016
H205	H	0.030561	0.476179	0.149589
H206	H	0.054791	0.534060	0.164116
N207	N	0.456606	0.297195	0.532210
H208	H	0.476121	0.283330	0.586853
H209	H	0.470278	0.232526	0.534997
H210	H	0.413882	0.373001	0.357996
N211	N	0.778697	0.297121	0.532242
H212	H	0.800724	0.324264	0.531092
H213	H	0.798213	0.232437	0.535045
N214	N	-0.190569	0.625363	0.068196
H215	H	-0.172190	0.625294	0.114347
H216	H	-0.170175	0.617334	0.026437
N217	N	-0.282536	0.625363	0.068199
H218	H	-0.317484	0.639231	0.060633
H219	H	-0.265584	0.589484	0.133892
H220	H	-0.368028	0.980988	-0.125851
H221	H	-0.287769	0.981002	-0.125851
N222	N	-0.067267	1.096525	-0.188871
H223	H	-0.061395	1.154387	-0.220437
H224	H	-0.087669	1.104507	-0.147109
N225	N	0.159710	1.005192	-0.139096
H226	H	0.165576	1.063062	-0.170678
H227	H	0.139306	1.013182	-0.097338
H228	H	-0.055892	0.558187	0.104853
H229	H	-0.187952	1.072354	-0.175692
H230	H	-0.107693	1.072360	-0.175703
N231	N	0.678165	0.379760	0.546128
H232	H	0.694911	0.396334	0.578521
H233	H	0.692440	0.304485	0.582446
N234	N	0.791376	0.247593	-0.010669
H235	H	0.781082	0.225552	-0.045721
H236	H	0.809469	0.188570	0.054034
