data_functionalizedCrystal
_audit_creation_method	'MofGen! by Chris Wilmer'
_symmetry_space_group_name_H-M	'P1'
_symmetry_Int_Tables_number	1
_symmetry_cell_setting	triclinic
loop_
_symmetry_equiv_pos_as_xyz
  x,y,z
_cell_length_a	20.875859
_cell_length_b	19.902436
_cell_length_c	20.875641
_cell_angle_alpha	89.997815
_cell_angle_beta	60.668769
_cell_angle_gamma	58.329865
loop_
_atom_site_label
_atom_site_type_symbol
_atom_site_fract_x
_atom_site_fract_y
_atom_site_fract_z
Zr1	Zr	0.731361	0.612223	-0.117845
O2	O	0.864307	0.501804	-0.223279
O3	O	0.593126	0.651156	-0.080648
O4	O	0.723748	0.649302	-0.216265
O5	O	0.741534	0.499338	0.013768
O6	O	0.723761	0.759868	-0.216277
O7	O	0.733684	0.503659	-0.087663
O8	O	0.490101	0.763184	0.026316
O9	O	0.975193	0.496021	-0.228825
O10	O	0.651952	0.744132	-0.070684
O11	O	0.657801	0.658394	0.005022
O12	O	0.811592	0.656211	-0.154648
O13	O	0.817441	0.570473	-0.078942
Zr14	Zr	0.743900	0.781672	0.043906
Zr15	Zr	0.731380	0.788562	-0.117865
Zr16	Zr	0.743880	0.605333	0.043926
Zr17	Zr	0.908213	0.603000	-0.126689
Zr18	Zr	0.567048	0.790895	0.052750
O19	O	0.882135	0.742739	0.006709
O20	O	0.864334	0.752536	-0.223307
O21	O	0.882107	0.492007	0.006738
O22	O	0.610954	0.892091	0.149340
O23	O	0.593153	0.901888	-0.080677
O24	O	0.610927	0.641359	0.149368
O25	O	0.733727	0.894557	-0.087707
O26	O	0.751512	0.744593	0.142325
O27	O	0.751500	0.634027	0.142338
O28	O	0.741577	0.890236	0.013724
O29	O	0.975209	0.636188	-0.228840
O30	O	0.500052	0.757707	0.154901
O31	O	0.500067	0.897874	0.154885
O32	O	0.490116	0.903351	0.026300
O33	O	0.985144	0.490544	-0.100239
O34	O	0.985160	0.630710	-0.100255
O35	O	0.663668	0.737684	0.080709
O36	O	0.657819	0.823422	0.005003
O37	O	0.817459	0.735501	-0.078961
O38	O	0.823308	0.649763	-0.003255
C39	C	0.516416	0.708484	-0.025906
C40	C	0.441338	0.712400	-0.022151
C41	C	0.012474	0.741350	0.005369
C42	C	0.083046	0.737625	0.001827
C43	C	0.175067	0.674040	-0.058868
C44	C	0.196516	0.614182	-0.116030
C45	C	0.125944	0.617912	-0.112491
C46	C	0.392215	0.656272	-0.075774
C47	C	0.462787	0.652545	-0.079308
C48	C	0.349312	0.775989	0.038549
C49	C	0.278744	0.779709	0.042085
C50	C	0.300199	0.719854	-0.015079
N51	N	0.247205	0.670229	-0.062488
N52	N	0.228061	0.723669	-0.011461
C53	C	0.737606	0.476374	-0.036944
C54	C	0.737598	0.401513	-0.036936
C55	C	0.737641	0.129464	-0.036981
C56	C	0.636920	0.213426	0.015758
C57	C	0.636875	0.291322	0.016029
C58	C	0.737619	0.264431	-0.036958
C59	C	0.792161	0.206124	-0.004726
C60	C	0.791520	0.128582	-0.004345
C61	C	0.784567	0.132338	-0.122009
C62	C	0.782615	0.211313	-0.121781
C63	C	0.737612	0.340706	-0.036947
C64	C	0.737652	0.053187	-0.036990
C65	C	0.958845	0.685410	-0.048033
C66	C	1.033923	0.681495	-0.051788
C67	C	0.721971	0.705566	-0.239320
C68	C	0.716656	0.708492	-0.307995
C69	C	0.737655	0.917521	-0.036995
C70	C	0.737663	0.992382	-0.037003
C71	C	0.797488	0.663973	-0.384088
C72	C	0.792488	0.666733	-0.448613
C73	C	0.706657	0.714006	-0.437044
C74	C	0.625819	0.758530	-0.360944
C75	C	0.630819	0.755775	-0.296420
C76	C	0.682767	0.727172	-0.625320
C77	C	0.677773	0.729921	-0.689851
C78	C	0.844443	0.638125	-0.777516
C79	C	0.849435	0.635371	-0.712987
C80	C	0.768598	0.679898	-0.636893
N81	N	0.701545	0.716826	-0.502998
N82	N	0.773711	0.677082	-0.570940
C83	C	0.753290	0.688328	0.165381
C84	C	0.758605	0.685403	0.234056
C85	C	0.516440	0.929058	-0.025931
C86	C	0.441370	1.007834	-0.022185
C87	C	0.532075	0.699865	0.176444
C88	C	0.462312	0.700856	0.248874
C89	C	0.532100	0.920439	0.176419
C90	C	0.462344	0.996290	0.248841
C91	C	0.943161	0.473456	-0.250358
C92	C	1.012916	0.397605	-0.322780
C93	C	0.958821	0.464837	-0.048008
C94	C	1.033891	0.386061	-0.051754
C95	C	0.943185	0.694029	-0.250383
C96	C	1.012949	0.693039	-0.322813
C97	C	0.403053	1.003440	-0.059940
C98	C	0.332526	1.077452	-0.056436
C99	C	0.300312	1.155858	-0.015171
C100	C	0.338636	1.160250	0.022585
C101	C	0.409166	1.086238	0.019076
C102	C	0.432613	0.742709	0.322403
C103	C	0.367073	0.743636	0.390465
C104	C	0.331229	0.702714	0.384997
C105	C	0.360933	0.660855	0.311460
C106	C	0.426477	0.659924	0.243399
C107	C	0.426533	1.076672	0.243333
C108	C	0.361000	1.147949	0.311375
C109	C	0.331274	1.138842	0.384923
C110	C	0.367092	1.058451	0.390429
C111	C	0.432629	0.987176	0.322388
C112	C	1.048736	0.317222	-0.317273
C113	C	1.114291	0.245944	-0.385315
C114	C	1.144020	0.255051	-0.458864
C115	C	1.108198	0.335442	-0.464370
C116	C	1.042649	0.406718	-0.396328
C117	C	1.072214	0.390454	-0.014006
C118	C	1.142760	0.316442	-0.017529
C119	C	1.174976	0.238037	-0.058796
C120	C	1.136649	0.233645	-0.096549
C121	C	1.066109	0.307656	-0.093030
C122	C	1.048773	0.733970	-0.317320
C123	C	1.114315	0.733055	-0.385369
C124	C	1.144035	0.691205	-0.458912
C125	C	1.108204	0.650274	-0.464404
C126	C	1.042659	0.651193	-0.396355
H127	H	0.537720	0.600748	-0.128721
H128	H	0.409695	0.607531	-0.122319
H129	H	0.271446	0.562414	-0.165452
H130	H	1.045990	0.454289	0.019604
C131	C	0.438481	0.917205	-0.105340
H132	H	0.405559	0.925200	-0.127327
H133	H	0.429554	0.887120	-0.070658
H134	H	0.502188	0.886099	-0.146060
H135	H	0.450648	0.625845	0.183532
C136	C	0.321603	1.236368	0.305305
H137	H	0.348684	1.231578	0.251756
H138	H	0.334992	1.264001	0.328241
H139	H	0.256823	1.268069	0.332163
H140	H	0.277910	1.196885	0.440321
H141	H	1.162891	0.169798	-0.130149
H142	H	0.203819	0.831487	0.091510
C143	C	0.472010	0.898758	0.328452
H144	H	0.515304	0.857607	0.277400
H145	H	0.423431	0.894102	0.357804
H146	H	0.501607	0.890014	0.353888
H147	H	0.342896	0.777724	0.450335
H148	H	0.312396	1.224097	0.056182
C149	C	1.140899	0.345450	-0.545275
H150	H	1.185058	0.291484	-0.585003
H151	H	1.167986	0.373482	-0.552330
H152	H	1.089820	0.377546	-0.548410
H153	H	0.759366	0.128117	0.058106
C154	C	1.003271	0.606152	-0.402404
H155	H	0.959976	0.612689	-0.351348
H156	H	1.051849	0.547991	-0.431748
H157	H	0.973676	0.629999	-0.427843
H158	H	0.277859	0.703478	0.440422
C159	C	0.451297	1.091082	0.060621
H160	H	0.421998	1.148379	0.085704
H161	H	0.515257	1.063416	0.023201
H162	H	0.442608	1.064454	0.098604
C163	C	1.003243	0.495135	-0.402395
H164	H	1.030334	0.490343	-0.455944
H165	H	1.016615	0.522778	-0.379449
H166	H	0.938465	0.526828	-0.375548
C167	C	-0.088746	0.811290	0.072134
H168	H	-0.127706	0.804936	0.066062
H169	H	-0.102429	0.864668	0.070483
H170	H	-0.098552	0.807405	0.121051
H171	H	1.173954	0.320034	0.013218
H172	H	0.858310	0.630483	-0.510569
C173	C	0.531407	0.810528	-0.348217
H174	H	0.540004	0.805786	-0.397543
H175	H	0.497988	0.867903	-0.319636
H176	H	0.497985	0.789958	-0.319629
H177	H	0.461792	0.776033	0.326871
C178	C	0.884747	0.052283	-0.175256
H179	H	0.897946	0.017257	-0.145855
H180	H	0.925260	0.067434	-0.195223
H181	H	0.892831	0.022762	-0.217530
H182	H	0.919329	0.596878	-0.722416
H183	H	0.342880	1.051048	0.450322
H184	H	1.232415	0.177779	-0.061655
H185	H	0.594141	0.218249	-0.005428
H186	H	1.024534	0.309791	-0.257392
H187	H	0.143415	0.569173	-0.159035
H188	H	0.594403	0.333825	-0.005307
C189	C	1.140958	0.604180	-0.545304
H190	H	1.110251	0.579918	-0.538839
H191	H	1.205479	0.561106	-0.575398
H192	H	1.127352	0.643070	-0.571584
H193	H	1.143482	0.766385	-0.380882
H194	H	0.748905	0.132330	-0.149429
C195	C	0.933355	0.589159	-0.861217
H196	H	0.918088	0.597574	-0.897990
H197	H	0.968414	0.530881	-0.868652
H198	H	0.968414	0.608827	-0.868651
C199	C	1.023950	0.302813	-0.134545
H200	H	1.053237	0.245516	-0.159617
H201	H	1.032609	0.329448	-0.172522
H202	H	0.959991	0.330473	-0.097103
C203	C	0.588149	0.213841	0.100097
H204	H	0.628904	0.163068	0.103309
H205	H	0.535047	0.218297	0.114015
H206	H	0.570423	0.260407	0.134998
C207	C	0.059449	0.803462	0.064702
H208	H	-0.005462	0.841858	0.101362
H209	H	0.082680	0.833206	0.040491
H210	H	0.086559	0.775938	0.091055
H211	H	0.331854	0.824720	0.085088
C212	C	1.016087	0.780010	-0.236430
H213	H	0.971924	0.774697	-0.196682
H214	H	0.989007	0.837870	-0.229401
H215	H	1.067169	0.755857	-0.233301
C216	C	0.587936	0.343445	0.100870
H217	H	0.568012	0.317036	0.135304
H218	H	0.536230	0.398421	0.114484
H219	H	0.629384	0.347021	0.105167
C220	C	0.891606	0.047996	-0.053237
H221	H	0.932476	0.062750	-0.073240
H222	H	0.902136	0.015676	-0.095511
H223	H	0.901952	0.015855	-0.021109
H224	H	1.197407	0.690462	-0.514316
H225	H	0.331739	0.627538	0.307019
H226	H	0.450726	1.084104	0.183453
C227	C	0.541908	0.804738	-0.212717
H228	H	0.557178	0.796333	-0.175946
H229	H	0.506844	0.785079	-0.205278
H230	H	0.506854	0.863019	-0.205284
C231	C	0.892453	0.175912	-0.054409
H232	H	0.901975	0.198647	-0.095346
H233	H	0.932972	0.116201	-0.076288
H234	H	0.904280	0.194266	-0.022241
C235	C	1.153675	0.157526	-0.379245
H236	H	1.126565	0.162317	-0.325695
H237	H	1.218450	0.125819	-0.406088
H238	H	1.140288	0.129899	-0.402195
C239	C	1.216119	0.176646	-0.533705
H240	H	1.228703	0.193576	-0.578301
H241	H	1.192990	0.146033	-0.532541
H242	H	1.271153	0.141962	-0.536449
H243	H	0.760799	0.242899	0.057108
H244	H	0.742799	0.251718	-0.145907
C245	C	0.583354	0.781904	-0.677122
H246	H	0.535926	0.808027	-0.622562
H247	H	0.577955	0.745899	-0.700469
H248	H	0.577930	0.823859	-0.700476
H249	H	0.867381	0.625473	-0.393517
C250	C	0.881530	0.183139	-0.178792
H251	H	0.906984	0.151209	-0.229543
H252	H	0.917970	0.149562	-0.161124
H253	H	0.880654	0.231276	-0.180889
C254	C	0.593850	0.776141	-0.541626
H255	H	0.542018	0.804679	-0.543980
H256	H	0.592333	0.815945	-0.514632
H257	H	0.592332	0.738000	-0.514632
H258	H	0.301331	1.073860	-0.087182
H259	H	0.242880	1.216116	-0.012319
