data_functionalizedCrystal
_audit_creation_method	'MofGen! by Chris Wilmer'
_symmetry_space_group_name_H-M	'P1'
_symmetry_Int_Tables_number	1
_symmetry_cell_setting	triclinic
loop_
_symmetry_equiv_pos_as_xyz
  x,y,z
_cell_length_a	10.654550
_cell_length_b	11.026607
_cell_length_c	9.730223
_cell_angle_alpha	89.997552
_cell_angle_beta	89.999957
_cell_angle_gamma	96.535474
loop_
_atom_site_label
_atom_site_type_symbol
_atom_site_fract_x
_atom_site_fract_y
_atom_site_fract_z
O1	O	1.704907	0.170767	-0.114181
O2	O	1.342961	0.187037	-0.114206
O3	O	1.493936	0.001997	-0.114190
O4	O	1.553932	0.355808	-0.114196
O5	O	1.493923	0.001991	0.114390
O6	O	1.342947	0.187032	0.114374
O7	O	1.704894	0.170762	0.114399
Zn8	Zn	1.523918	0.178896	0.150679
Zn9	Zn	1.523936	0.178903	-0.150485
O10	O	1.553918	0.355803	0.114384
C11	C	1.295897	0.185840	0.000081
C12	C	1.155678	0.182266	0.000072
C13	C	1.099841	0.291214	0.000074
C14	C	0.968090	0.287849	0.000098
C15	C	0.948022	0.066576	0.000112
C16	C	1.079771	0.069943	0.000098
C17	C	1.482861	-0.043310	0.000097
C18	C	1.449867	-0.178302	0.000090
C19	C	1.540970	-0.251341	0.000094
C20	C	1.506871	-0.390862	0.000087
C21	C	1.751958	0.171959	0.000109
C22	C	1.892177	0.175533	0.000110
C23	C	1.564993	0.401109	0.000093
C24	C	1.597988	0.536101	0.000091
N25	N	1.523915	0.178891	0.356215
N26	N	1.523947	0.178899	-0.356022
C27	C	1.590804	0.096990	0.428148
C28	C	1.590817	0.096990	0.572031
C29	C	1.457050	0.260803	0.572036
C30	C	1.457031	0.260796	0.428155
H31	H	1.161641	0.382675	0.000063
C32	C	1.384311	0.349782	0.649897
C33	C	1.325697	0.421481	0.556100
C34	C	1.258664	0.503451	0.627772
H35	H	1.440896	0.400922	0.706018
H36	H	1.321993	0.305601	0.706008
H37	H	1.388007	0.465659	0.500014
H38	H	1.269092	0.370374	0.499976
H39	H	1.196346	0.459270	0.683882
H40	H	1.315257	0.554583	0.683891
H41	H	1.218876	0.552101	0.564142
C42	C	1.663530	0.008224	0.349931
C43	C	1.755204	0.073631	0.267292
C44	C	1.822202	-0.008117	0.195221
H45	H	1.606905	-0.042796	0.293729
H46	H	1.703439	-0.040567	0.413310
H47	H	1.715297	0.122401	0.203920
H48	H	1.811856	0.124647	0.323459
H49	H	1.862111	-0.056908	0.258600
H50	H	1.765568	-0.059132	0.139027
H51	H	1.884418	0.036250	0.139152
H52	H	0.886203	-0.024873	0.000141
H53	H	0.922635	0.376566	0.000102
H54	H	1.125232	-0.018782	0.000100
H55	H	1.402556	0.327490	0.369584
C56	C	1.312276	-0.232871	0.000145
C57	C	1.305809	-0.360407	0.000172
C58	C	1.179079	-0.410714	0.000241
H59	H	1.271443	-0.206710	-0.079545
H60	H	1.271531	-0.206658	0.079887
H61	H	1.346536	-0.386610	-0.079561
H62	H	1.346614	-0.386603	0.079857
H63	H	1.138334	-0.384501	0.079982
H64	H	1.138257	-0.384544	-0.079451
H65	H	1.174674	-0.497251	0.000272
H66	H	1.645282	0.030298	0.630594
C67	C	1.678657	-0.197070	-0.000183
C68	C	1.738350	-0.235971	-0.117799
C69	C	1.865185	-0.185991	-0.118114
H70	H	1.719528	-0.223326	0.079435
H71	H	1.683329	-0.110513	-0.000257
H72	H	1.733686	-0.322510	-0.117712
H73	H	1.697517	-0.209717	-0.197436
H74	H	1.869857	-0.099434	-0.118188
H75	H	1.906044	-0.212251	-0.038491
H76	H	1.905700	-0.212369	-0.197920
H77	H	1.701236	-0.423146	-0.000005
H78	H	1.403623	-0.431617	0.000071
