data_functionalizedCrystal
_audit_creation_method	'MofGen! by Chris Wilmer'
_symmetry_space_group_name_H-M	'P1'
_symmetry_Int_Tables_number	1
_symmetry_cell_setting	triclinic
loop_
_symmetry_equiv_pos_as_xyz
  x,y,z
_cell_length_a	15.625110
_cell_length_b	14.048226
_cell_length_c	14.971486
_cell_angle_alpha	89.998099
_cell_angle_beta	96.059020
_cell_angle_gamma	108.078729
loop_
_atom_site_label
_atom_site_type_symbol
_atom_site_fract_x
_atom_site_fract_y
_atom_site_fract_z
O1	O	-1.196329	-0.333880	0.116802
O2	O	-0.933871	-0.243266	0.130708
O3	O	-1.072135	-0.290994	-0.006444
O4	O	-1.058065	-0.286151	0.253953
O5	O	-1.072121	-0.449311	-0.006445
O6	O	-0.933857	-0.401583	0.130707
O7	O	-1.196316	-0.492196	0.116801
Zn8	Zn	-1.065085	-0.472026	0.123753
Zn9	Zn	-1.065102	-0.263437	0.123755
O10	O	-1.058052	-0.444468	0.253952
C11	C	-0.900276	-0.310828	0.130076
C12	C	-0.800194	-0.276274	0.128185
C13	C	-1.229911	-0.424632	0.117432
C14	C	-1.329993	-0.459180	0.119323
N15	N	-1.065079	-0.614385	0.123752
C16	C	-0.659138	-0.141280	0.125522
C17	C	-0.753181	-0.173759	0.127298
C18	C	-0.753174	-0.346352	0.127301
C19	C	-0.659129	-0.313888	0.125529
C20	C	-0.612119	-0.211351	0.124639
C21	C	-0.612110	-0.383958	0.124646
C22	C	-0.518074	-0.351496	0.122869
C23	C	-0.471057	-0.248964	0.121976
C24	C	-0.518083	-0.178889	0.122862
C25	C	-0.659123	-0.486495	0.125530
C26	C	-0.612104	-0.556566	0.124646
C27	C	-0.518065	-0.524104	0.122876
C28	C	-0.471049	-0.421571	0.121983
C29	C	-0.471040	-0.594179	0.121990
C30	C	-0.377004	-0.561717	0.120213
C31	C	-0.377012	-0.389109	0.120206
C32	C	-1.119811	-0.683098	0.178104
C33	C	-1.119823	-0.782759	0.178100
C34	C	-1.065097	-0.813704	0.123748
C35	C	-1.010363	-0.744983	0.069390
C36	C	-1.010357	-0.645326	0.069390
C37	C	-1.010378	-0.952703	0.069396
C38	C	-1.010383	-1.052367	0.069397
C39	C	-1.119844	-1.090137	0.178106
C40	C	-1.119838	-0.990479	0.178106
C41	C	-1.065102	-0.921764	0.123749
C42	C	-1.071499	-0.369932	-0.039769
C43	C	-1.069613	-0.369269	-0.139067
N44	N	-1.065115	-0.121080	0.123749
C45	C	-1.058688	-0.365529	0.287278
C46	C	-1.060573	-0.366185	0.386575
C47	C	-0.979347	-0.338141	0.443784
C48	C	-0.981124	-0.338741	0.537084
C49	C	-1.064129	-0.367393	0.573173
C50	C	-1.145361	-0.395437	0.515957
C51	C	-1.143583	-0.394829	0.422659
C52	C	-1.149061	-0.396704	0.710420
C53	C	-1.150840	-0.397314	0.803724
C54	C	-0.986602	-0.340616	0.824845
C55	C	-0.984824	-0.340008	0.731547
C56	C	-1.066057	-0.368054	0.674337
H57	H	-0.338732	-0.305613	0.119492
H58	H	-1.164370	-0.657910	0.222369
Br59	Br	-1.258012	-0.434311	0.564933
H60	H	-0.914981	-0.315902	0.583660
Br61	Br	-0.313188	-0.656813	0.118996
Br62	Br	-0.786747	-0.530552	0.127927
Br63	Br	-0.534852	-0.733332	0.123185
Br64	Br	-0.816991	-0.078651	0.128493
Br65	Br	-1.263489	-0.436230	0.852702
Br66	Br	-1.259307	-0.434757	0.632778
Br67	Br	-1.194083	-0.948473	0.251896
Br68	Br	-1.253823	-0.432880	0.345016
Br69	Br	-0.876357	-0.302565	0.902486
H70	H	-0.394487	-0.222535	0.120531
H71	H	-0.911755	-0.314820	0.414408
H72	H	-0.650393	-0.640052	0.125368
H73	H	-0.791464	-0.429838	0.128023
H74	H	-0.479803	-0.095392	0.122148
H75	H	-0.917235	-0.316682	0.702167
Br76	Br	-1.194105	-0.876011	0.251867
Br77	Br	-0.595327	-0.002120	0.124332
H78	H	-1.164408	-1.146088	0.222370
Br79	Br	-0.936115	-1.094365	-0.004370
Br80	Br	-0.936111	-0.859454	-0.004393
Br81	Br	-0.936095	-0.786980	-0.004378
Br82	Br	-0.936088	-0.552074	-0.004390
