data_functionalizedCrystal
_audit_creation_method	'MofGen! by Chris Wilmer'
_symmetry_space_group_name_H-M	'P1'
_symmetry_Int_Tables_number	1
_symmetry_cell_setting	triclinic
loop_
_symmetry_equiv_pos_as_xyz
  x,y,z
_cell_length_a	16.120530
_cell_length_b	21.295417
_cell_length_c	16.120297
_cell_angle_alpha	92.867002
_cell_angle_beta	90.128140
_cell_angle_gamma	87.125778
loop_
_atom_site_label
_atom_site_type_symbol
_atom_site_fract_x
_atom_site_fract_y
_atom_site_fract_z
Zn1	Zn	1.247391	-0.318915	-0.534523
Zn2	Zn	1.254326	-0.419125	-0.395453
Zn3	Zn	1.115383	-0.308278	-0.388443
Zn4	Zn	1.108282	-0.418545	-0.527422
O5	O	1.181345	-0.366216	-0.461460
O6	O	1.364676	-0.336903	-0.521981
O7	O	1.241769	-0.400212	-0.278158
O8	O	1.132963	-0.221604	-0.407859
O9	O	1.369771	-0.410526	-0.419806
O10	O	1.229949	-0.229419	-0.515184
O11	O	1.139688	-0.318773	-0.273008
O12	O	0.998075	-0.318211	-0.400973
O13	O	1.120862	-0.409538	-0.644729
O14	O	0.992859	-0.399224	-0.503081
O15	O	1.223064	-0.336340	-0.649946
O16	O	1.234884	-0.507133	-0.412921
O17	O	1.127586	-0.506707	-0.509878
C18	C	0.965295	-0.357501	-0.450496
C19	C	0.872866	-0.353788	-0.445825
C20	C	0.703638	-0.346996	-0.437305
C21	C	0.659891	-0.385485	-0.485677
C22	C	0.565726	-0.381705	-0.480936
C23	C	0.797811	-0.350774	-0.442045
C24	C	1.181239	-0.529761	-0.461409
C25	C	1.181268	-0.599731	-0.461418
C26	C	1.237182	-0.632802	-0.410990
C27	C	1.237220	-0.698547	-0.411010
C28	C	1.181329	-0.731217	-0.461450
C29	C	1.125411	-0.698138	-0.511889
C30	C	1.125380	-0.632395	-0.511873
N31	N	1.108264	-0.831783	-0.464098
N32	N	1.108296	-0.894236	-0.464108
C33	C	1.181420	-0.929297	-0.461503
N34	N	1.254514	-0.899546	-0.458870
N35	N	1.254481	-0.837087	-0.458855
C36	C	1.181357	-0.802504	-0.461473
C37	C	1.237380	-1.033657	-0.411094
C38	C	1.237419	-1.099403	-0.411120
C39	C	1.125603	-1.098992	-0.511994
C40	C	1.125571	-1.033248	-0.511973
C41	C	1.181459	-1.000584	-0.461518
C42	C	1.398240	-0.374966	-0.472468
C43	C	1.490667	-0.378694	-0.477159
C44	C	1.170397	-0.374061	-0.678353
C45	C	1.165731	-0.377404	-0.770780
C46	C	1.181474	-0.202033	-0.461531
C47	C	1.181529	-0.132068	-0.461562
C48	C	1.157183	-0.383493	-0.940004
C49	C	1.205672	-0.348757	-0.983777
C50	C	1.200915	-0.352144	-1.077938
C51	C	1.161938	-0.380106	-0.845834
C52	C	1.192299	-0.358358	-0.245413
C53	C	1.197126	-0.354844	-0.152995
H54	H	1.282755	-0.725479	-0.369945
C55	C	1.265690	-0.305601	-0.939505
C56	C	1.246578	-0.243332	-0.959644
C57	C	1.301841	-0.203561	-0.918869
H58	H	1.320881	-0.317487	-0.956502
H59	H	1.260938	-0.308968	-0.881181
H60	H	1.251337	-0.239968	-1.017955
H61	H	1.191397	-0.231427	-0.942645
H62	H	1.297089	-0.206928	-0.860544
H63	H	1.357028	-0.215452	-0.935868
H64	H	1.288876	-0.161306	-0.932521
H65	H	1.282691	-0.606210	-0.369908
H66	H	1.282890	-1.007061	-0.370013
C67	C	1.097158	-0.426526	-0.984478
C68	C	1.104342	-0.421388	-1.070385
C69	C	1.049072	-0.461028	-1.111392
H70	H	1.041954	-0.414607	-0.967555
H71	H	1.110007	-0.468826	-0.970952
H72	H	1.091487	-0.379098	-1.083905
H73	H	1.159534	-0.433312	-1.087332
H74	H	1.061922	-0.503328	-1.097866
H75	H	0.993872	-0.449106	-1.094463
H76	H	1.053945	-0.457551	-1.169684
C77	C	1.064758	-0.596374	-0.566596
C78	C	1.076705	-0.531808	-0.555798
C79	C	1.020881	-0.498605	-0.606202
H80	H	1.009481	-0.604424	-0.551602
H81	H	1.074075	-0.609592	-0.623115
H82	H	1.067380	-0.518594	-0.499292
H83	H	1.131970	-0.523739	-0.570798
H84	H	1.030198	-0.511823	-0.662721
H85	H	0.965607	-0.506660	-0.591203
H86	H	1.028984	-0.454794	-0.598888
C87	C	0.704395	-0.433189	-0.545559
C88	C	0.790300	-0.427518	-0.538394
C89	C	0.831328	-0.471457	-0.593532
H90	H	0.687511	-0.425555	-0.600793
H91	H	0.690848	-0.474481	-0.532574
H92	H	0.803842	-0.386235	-0.551385
H93	H	0.807209	-0.435158	-0.483172
H94	H	0.817781	-0.512749	-0.580548
H95	H	0.814437	-0.463819	-0.648764
H96	H	0.889619	-0.467618	-0.588674
C97	C	0.659136	-0.299342	-0.377361
C98	C	0.573234	-0.305040	-0.384500
C99	C	0.532203	-0.261160	-0.329285
H100	H	0.672630	-0.258030	-0.390272
H101	H	0.676072	-0.307031	-0.322146
H102	H	0.556305	-0.297346	-0.439703
H103	H	0.559716	-0.346342	-0.371582
H104	H	0.549139	-0.268849	-0.274070
H105	H	0.545703	-0.219852	-0.342201
H106	H	0.473915	-0.265024	-0.334116
C107	C	1.064764	-0.733716	-0.566564
C108	C	1.076742	-0.798369	-0.555767
C109	C	1.020883	-0.831162	-0.606116
H110	H	1.074009	-0.725501	-0.623089
H111	H	1.009496	-0.720326	-0.551503
H112	H	1.131997	-0.811755	-0.570833
H113	H	1.067490	-0.806604	-0.499252
H114	H	0.965615	-0.817772	-0.591055
H115	H	1.030133	-0.822942	-0.662638
H116	H	1.028997	-0.875032	-0.598792
C117	C	1.298168	-1.135196	-0.356277
C118	C	1.347086	-1.092515	-0.312073
C119	C	1.403049	-1.125464	-0.261534
H120	H	1.332862	-1.163417	-0.389868
H121	H	1.268247	-1.158273	-0.318373
H122	H	1.377004	-1.069449	-0.349972
H123	H	1.312415	-1.064293	-0.278466
H124	H	1.373128	-1.148541	-0.223631
H125	H	1.437737	-1.153684	-0.295132
H126	H	1.436241	-1.096510	-0.231531
C127	C	1.064960	-1.134566	-0.566674
C128	C	1.076942	-1.199219	-0.555884
C129	C	1.021088	-1.232012	-0.606239
H130	H	1.074206	-1.126346	-0.623198
H131	H	1.009691	-1.121179	-0.551614
H132	H	1.132198	-1.212602	-0.570950
H133	H	1.067689	-1.207458	-0.499371
H134	H	0.965818	-1.218625	-0.591179
H135	H	1.030339	-1.223787	-0.662760
H136	H	1.029205	-1.275882	-0.598919
C137	C	1.064761	-0.997447	-0.566742
C138	C	1.015805	-1.040126	-0.610905
C139	C	0.959769	-1.007170	-0.661362
H140	H	1.094600	-0.974354	-0.604676
H141	H	1.030105	-0.969240	-0.533072
H142	H	1.050456	-1.068322	-0.644572
H143	H	0.985949	-1.063221	-0.572992
H144	H	0.925114	-0.978963	-0.627692
H145	H	0.989615	-0.984077	-0.699290
H146	H	0.926541	-1.036121	-0.691326
