data_functionalizedCrystal
_audit_creation_method	'MofGen! by Chris Wilmer'
_symmetry_space_group_name_H-M	'P1'
_symmetry_Int_Tables_number	1
_symmetry_cell_setting	triclinic
loop_
_symmetry_equiv_pos_as_xyz
  x,y,z
_cell_length_a	16.109301
_cell_length_b	16.992695
_cell_length_c	14.586319
_cell_angle_alpha	89.995905
_cell_angle_beta	89.999213
_cell_angle_gamma	87.064852
loop_
_atom_site_label
_atom_site_type_symbol
_atom_site_fract_x
_atom_site_fract_y
_atom_site_fract_z
O1	O	1.109856	0.100784	-0.076183
O2	O	0.868631	0.113326	-0.076198
O3	O	0.988277	-0.007087	-0.076183
O4	O	0.990211	0.221197	-0.076198
O5	O	0.988268	-0.007089	0.076298
O6	O	0.868622	0.113324	0.076283
O7	O	1.109847	0.100782	0.076298
Cu8	Cu	0.989234	0.107053	0.090213
Cu9	Cu	0.989244	0.107055	-0.090113
O10	O	0.990202	0.221196	0.076283
C11	C	0.837618	0.112817	0.000041
C12	C	0.745221	0.111294	0.000035
C13	C	0.527480	0.179203	0.000042
C14	C	0.440664	0.177766	0.000048
C15	C	0.451005	0.034899	0.000053
C16	C	0.537819	0.036337	0.000054
C17	C	0.576055	0.108492	0.000043
C18	C	0.402424	0.105616	0.000049
C19	C	0.308294	0.104057	0.000055
C20	C	0.670191	0.110051	0.000039
C21	C	0.985784	-0.036300	0.000057
C22	C	0.978361	-0.123343	0.000056
C23	C	1.049987	-0.173601	0.000062
C24	C	1.043007	-0.255386	0.000052
C25	C	0.964400	-0.286911	0.000045
C26	C	0.892768	-0.236645	0.000037
C27	C	0.899749	-0.154862	0.000039
C28	C	0.935467	-0.530501	0.000030
C29	C	0.928491	-0.612291	0.000030
C30	C	1.078731	-0.631026	0.000045
C31	C	1.085704	-0.549240	0.000053
C32	C	1.014073	-0.498982	0.000040
N33	N	0.957263	-0.370508	0.000038
N34	N	1.021210	-0.415387	0.000040
C35	C	1.140860	0.101291	0.000057
C36	C	1.233257	0.102814	0.000057
C37	C	0.992694	0.250408	0.000041
C38	C	1.000118	0.337451	0.000036
N39	N	0.989232	0.107051	0.217045
N40	N	0.989252	0.107051	-0.216945
C41	C	1.042231	0.053750	0.452058
C42	C	1.042233	0.053748	0.548039
C43	C	0.936247	0.160355	0.548036
C44	C	0.936241	0.160352	0.452056
C45	C	0.989238	0.107051	0.404070
C46	C	0.989246	0.107051	0.596030
C47	C	0.989248	0.107050	0.700098
C48	C	0.989235	0.107051	0.299996
H49	H	1.113997	-0.147941	0.000074
O50	O	1.162043	-0.518578	0.000216
C51	C	1.170560	-0.471821	0.079177
H52	H	1.125829	-0.491159	0.134371
H53	H	1.237076	-0.479175	0.105687
H54	H	1.155662	-0.407321	0.061323
H55	H	0.841423	-0.113942	0.000035
O56	O	1.112669	-0.304095	0.000105
C57	C	1.183545	-0.258734	0.000097
H58	H	1.166493	-0.197692	0.028964
H59	H	1.234059	-0.288919	0.044375
H60	H	1.207397	-0.252911	-0.073051
H61	H	0.877139	-0.489590	0.000020
H62	H	0.577371	-0.021248	0.000057
O63	O	1.093755	0.002080	0.594755
C64	C	1.147849	0.044086	0.650250
H65	H	1.118811	0.105433	0.664627
H66	H	1.158831	0.011361	0.717744
H67	H	1.209646	0.049432	0.613256
H68	H	0.893100	0.203753	0.587116
O69	O	0.884735	0.212208	0.405576
C70	C	0.837950	0.259246	0.468509
H71	H	0.872097	0.260147	0.536925
H72	H	0.829424	0.321858	0.440766
H73	H	0.774500	0.233769	0.478726
H74	H	0.828765	-0.262319	0.000024
O75	O	0.393515	0.246477	-0.000120
C76	C	0.411600	0.290292	-0.079084
H77	H	0.438487	0.248891	-0.134278
H78	H	0.352163	0.321751	-0.105592
H79	H	0.458771	0.335665	-0.061235
O80	O	0.564660	0.249272	-0.000124
C81	C	0.614583	0.254377	-0.079085
H82	H	0.591357	0.213409	-0.134280
H83	H	0.610992	0.317572	-0.105593
H84	H	0.681768	0.236278	-0.061231
H85	H	0.419863	-0.023846	0.000067
H86	H	0.864477	-0.637954	0.000039
O87	O	1.148224	-0.679958	0.000008
C88	C	1.125212	-0.758903	0.000027
H89	H	1.059702	-0.762020	-0.028843
H90	H	1.170536	-0.795963	-0.044242
H91	H	1.126790	-0.782562	0.073179
O92	O	1.093731	0.001894	0.405585
C93	C	1.140517	-0.045138	0.468527
H94	H	1.106376	-0.046029	0.536948
H95	H	1.149038	-0.107754	0.440804
H96	H	1.203970	-0.019664	0.478727
