data_functionalizedCrystal
_audit_creation_method	'MofGen! by Chris Wilmer'
_symmetry_space_group_name_H-M	'P1'
_symmetry_Int_Tables_number	1
_symmetry_cell_setting	triclinic
loop_
_symmetry_equiv_pos_as_xyz
  x,y,z
_cell_length_a	16.120531
_cell_length_b	18.215407
_cell_length_c	18.215399
_cell_angle_alpha	89.985401
_cell_angle_beta	87.133706
_cell_angle_gamma	87.061810
loop_
_atom_site_label
_atom_site_type_symbol
_atom_site_fract_x
_atom_site_fract_y
_atom_site_fract_z
Zn1	Zn	0.331782	1.110184	-0.430835
Zn2	Zn	0.831782	1.610184	0.069165
Zn3	Zn	0.471204	1.103836	-0.313997
Zn4	Zn	0.971204	1.603836	0.186003
Zn5	Zn	0.331823	0.987114	-0.307795
Zn6	Zn	0.831823	1.487114	0.192205
Zn7	Zn	0.471171	0.980827	-0.437032
Zn8	Zn	0.971171	1.480827	0.062968
O9	O	0.401495	1.045490	-0.372415
O10	O	0.901495	1.545490	0.127585
O11	O	0.350273	1.212326	-0.415338
O12	O	0.850273	1.712326	0.084662
O13	O	0.452745	1.088327	-0.210192
O14	O	0.952745	1.588327	0.289808
O15	O	0.215151	1.008728	-0.318928
O16	O	0.715151	1.508728	0.181072
O17	O	0.452706	1.207662	-0.329498
O18	O	0.952706	1.707662	0.170502
O19	O	0.215120	1.099146	-0.409325
O20	O	0.715120	1.599146	0.090675
O21	O	0.350343	1.002572	-0.205635
O22	O	0.850343	1.502572	0.294365
O23	O	0.350311	0.883296	-0.324937
O24	O	0.850311	1.383296	0.175063
O25	O	0.452650	0.998012	-0.539193
O26	O	0.952650	1.498012	-0.039193
O27	O	0.452690	0.878677	-0.419886
O28	O	0.952690	1.378677	0.080114
O29	O	0.350241	1.093050	-0.534640
O30	O	0.850241	1.593050	-0.034640
O31	O	0.587866	1.082230	-0.335507
O32	O	1.087866	1.582230	0.164493
O33	O	0.587842	0.991856	-0.425900
O34	O	1.087842	1.491856	0.074100
C35	C	0.618104	1.035692	-0.382065
C36	C	1.118104	1.535692	0.117935
C37	C	0.710771	1.031568	-0.386218
C38	C	1.210771	1.531568	0.113782
C39	C	0.401502	0.854283	-0.372412
C40	C	0.901502	1.354283	0.127588
C41	C	0.401525	0.772484	-0.372429
C42	C	0.901525	1.272484	0.127571
C43	C	0.401437	1.045538	-0.564365
C44	C	0.901437	1.545538	-0.064365
C45	C	0.401413	1.045558	-0.646163
C46	C	0.901413	1.545558	-0.146163
C47	C	0.880434	1.024042	-0.393815
C48	C	1.380434	1.524042	0.106185
C49	C	0.921715	1.066965	-0.350973
C50	C	1.421715	1.566965	0.149027
C51	C	1.016122	1.062778	-0.355200
C52	C	1.516122	1.562778	0.144800
C53	C	0.786019	1.028229	-0.389589
C54	C	1.286019	1.528229	0.110411
C55	C	1.184039	1.055320	-0.362730
C56	C	1.684039	1.555320	0.137270
C57	C	1.091373	1.059442	-0.358568
C58	C	1.591373	1.559442	0.141432
C59	C	0.401488	1.237443	-0.372419
C60	C	0.901488	1.737443	0.127581
C61	C	0.401485	1.319242	-0.372420
C62	C	0.901485	1.819242	0.127580
C63	C	0.348173	1.509865	-0.417117
C64	C	0.848173	2.009865	0.082883
C65	C	0.348181	1.586723	-0.417120
C66	C	0.848181	2.086723	0.082880
C67	C	0.454844	1.581855	-0.327730
C68	C	0.954844	2.081855	0.172270
C69	C	0.454839	1.504998	-0.327731
C70	C	0.954839	2.004998	0.172269
C71	C	0.401499	1.469005	-0.372423
C72	C	0.901499	1.969005	0.127577
C73	C	0.401511	1.622721	-0.372425
C74	C	0.901511	2.122721	0.127575
C75	C	0.401520	1.706054	-0.372429
C76	C	0.901520	2.206054	0.127571
C77	C	0.401491	1.385667	-0.372421
C78	C	0.901491	1.885667	0.127579
C79	C	0.348039	1.095063	-0.831986
C80	C	0.848039	1.595063	-0.331986
C81	C	0.348014	1.095073	-0.908843
C82	C	0.848014	1.595073	-0.408843
C83	C	0.454658	0.996110	-0.913573
C84	C	0.954658	1.496110	-0.413573
C85	C	0.454678	0.996097	-0.836717
C86	C	0.954678	1.496097	-0.336717
C87	C	0.401369	1.045578	-0.795925
C88	C	0.901369	1.545578	-0.295925
C89	C	0.401325	1.045601	-0.949639
C90	C	0.901325	1.545601	-0.449639
C91	C	0.401299	1.045611	-1.032972
C92	C	0.901299	1.545611	-0.532972
C93	C	0.401394	1.045567	-0.712587
C94	C	0.901394	1.545567	-0.212587
C95	C	0.401492	1.045488	-0.181209
C96	C	0.901492	1.545488	0.318791
C97	C	0.401281	1.045621	-0.099401
C98	C	0.901281	1.545621	0.400599
H99	H	0.886156	1.106857	-0.311120
H100	H	1.386156	1.606857	0.188880
H101	H	0.498062	0.955827	-0.946795
H102	H	0.998062	1.455827	-0.446795
N103	N	0.927526	0.971200	-0.446601
N104	N	1.427526	1.471200	0.053399
H105	H	0.989268	0.975663	-0.442171
H106	H	1.489268	1.475663	0.057829
H107	H	0.912428	0.919305	-0.434433
H108	H	1.412428	1.419305	0.065567
H109	H	0.304740	1.480562	-0.453508
H110	H	0.804740	1.980562	0.046492
H111	H	0.304758	1.619988	-0.453515
H112	H	0.804758	2.119988	0.046485
H113	H	0.498105	0.955796	-0.807355
H114	H	0.998105	1.455796	-0.307355
N115	N	0.512366	1.620674	-0.279520
N116	N	1.012366	2.120674	0.220480
H117	H	0.550995	1.650821	-0.311140
H118	H	1.050995	2.150821	0.188860
H119	H	0.478432	1.654048	-0.243917
H120	H	0.978432	2.154048	0.256083
N121	N	0.512361	1.460921	-0.279526
N122	N	1.012361	1.960921	0.220474
H123	H	0.546148	1.495384	-0.251210
H124	H	1.046148	1.995384	0.248790
H125	H	0.478431	1.430562	-0.243963
H126	H	0.978431	1.930562	0.256037
H127	H	0.304629	1.135351	-0.798775
H128	H	0.804629	1.635351	-0.298775
H129	H	0.304586	1.135367	-0.938200
H130	H	0.804586	1.635367	-0.438200
