data_functionalizedCrystal
_audit_creation_method	'MofGen! by Chris Wilmer'
_symmetry_space_group_name_H-M	'P1'
_symmetry_Int_Tables_number	1
_symmetry_cell_setting	triclinic
loop_
_symmetry_equiv_pos_as_xyz
  x,y,z
_cell_length_a	14.908571
_cell_length_b	18.050589
_cell_length_c	14.908694
_cell_angle_alpha	93.272134
_cell_angle_beta	83.592472
_cell_angle_gamma	86.724558
loop_
_atom_site_label
_atom_site_type_symbol
_atom_site_fract_x
_atom_site_fract_y
_atom_site_fract_z
Zn1	Zn	1.413277	-0.390979	-0.591527
Zn2	Zn	1.404426	-0.507570	-0.440167
Zn3	Zn	1.253181	-0.375789	-0.431461
Zn4	Zn	1.261858	-0.507512	-0.582766
O5	O	1.333185	-0.445463	-0.511480
O6	O	1.538769	-0.412826	-0.578759
O7	O	1.377028	-0.483756	-0.312347
O8	O	1.274492	-0.273884	-0.452717
O9	O	1.532266	-0.498485	-0.467556
O10	O	1.392113	-0.285044	-0.570317
O11	O	1.265909	-0.386937	-0.305950
O12	O	1.127666	-0.386881	-0.444222
O13	O	1.289279	-0.498387	-0.710594
O14	O	1.134041	-0.483658	-0.555385
O15	O	1.400526	-0.412770	-0.717030
O16	O	1.385441	-0.611482	-0.459061
O17	O	1.280696	-0.611440	-0.563827
C18	C	1.098011	-0.433615	-0.497908
C19	C	0.997403	-0.428566	-0.492124
C20	C	1.333075	-0.638408	-0.511459
C21	C	1.333113	-0.720957	-0.511485
C22	C	0.815028	-0.519991	-0.596852
C23	C	0.720498	-0.515249	-0.591420
C24	C	0.713813	-0.414338	-0.475833
C25	C	0.808342	-0.419080	-0.481265
C26	C	0.858947	-0.471909	-0.541776
C27	C	0.953478	-0.476653	-0.547203
C28	C	0.946791	-0.375739	-0.431621
C29	C	0.852261	-0.370997	-0.426189
C30	C	1.276211	-0.920414	-0.568439
C31	C	1.249382	-0.964597	-0.484573
C32	C	1.333202	-0.872093	-0.511502
C33	C	1.360076	-0.974993	-0.595380
C34	C	1.333288	-1.018083	-0.511525
C35	C	1.306328	-0.915185	-0.427589
C36	C	1.417063	-0.925581	-0.538454
C37	C	1.390262	-0.969741	-0.454533
C38	C	1.333151	-0.787991	-0.511489
C39	C	1.333339	-1.102182	-0.511528
C40	C	1.569279	-0.457356	-0.525106
C41	C	1.669887	-0.462425	-0.530912
C42	C	1.346858	-0.457267	-0.747573
C43	C	1.352684	-0.462297	-0.848182
C44	C	1.333322	-0.251765	-0.511523
C45	C	1.333380	-0.169223	-0.511541
C46	C	1.247903	-0.370933	-1.030577
C47	C	1.253374	-0.375656	-1.125107
C48	C	1.369092	-0.476471	-1.131776
C49	C	1.363621	-0.471747	-1.037245
C50	C	1.303025	-0.418976	-0.986649
C51	C	1.297559	-0.414249	-0.892117
C52	C	1.413272	-0.515066	-0.898787
C53	C	1.418743	-0.519790	-0.993317
C54	C	1.319619	-0.433653	-0.276309
C55	C	1.313968	-0.428423	-0.175710
H56	H	0.994678	-0.519670	-0.596472
H57	H	1.283550	-0.889173	-0.356640
O58	O	1.447791	-0.995551	-0.397103
C59	C	1.512904	-1.102839	-0.333089
C60	C	1.447750	-1.073708	-0.398177
H61	H	1.512878	-1.166030	-0.333921
H62	H	1.584145	-1.086087	-0.355435
H63	H	1.489874	-1.077952	-0.261668
H64	H	1.470697	-1.098580	-0.469618
H65	H	1.376523	-1.090451	-0.375755
H66	H	1.458160	-0.554184	-0.863011
O67	O	0.677799	-0.561853	-0.645013
C68	C	0.578129	-0.572746	-0.761029
C69	C	0.626450	-0.519883	-0.700400
H70	H	0.536587	-0.538834	-0.805811
H71	H	0.630500	-0.611305	-0.805274
H72	H	0.531476	-0.607240	-0.716833
H73	H	0.673101	-0.485341	-0.744526
H74	H	0.574030	-0.481374	-0.656150
H75	H	0.672595	-0.371323	-0.426574
O76	O	1.501648	-0.905035	-0.565727
C77	C	1.656723	-0.945608	-0.616463
C78	C	1.560970	-0.968980	-0.585599
H79	H	1.704714	-0.997293	-0.632521
H80	H	1.655196	-0.912888	-0.679519
H81	H	1.681156	-0.909328	-0.560131
H82	H	1.536478	-1.005286	-0.641870
H83	H	1.562551	-1.001661	-0.522519
O84	O	0.864055	-0.571328	-0.655703
C85	C	0.860710	-0.670953	-0.769731
C86	C	0.805081	-0.612836	-0.703136
H87	H	0.813053	-0.704539	-0.808085
H88	H	0.907715	-0.641545	-0.819734
H89	H	0.902555	-0.709837	-0.730621
H90	H	0.763183	-0.573937	-0.742170
H91	H	0.758133	-0.642294	-0.653133
H92	H	0.811047	-0.327984	-0.376925
O93	O	1.387056	-1.006037	-0.680054
C94	C	1.357363	-1.016188	-0.835734
C95	C	1.326730	-0.980970	-0.739890
H96	H	1.308595	-0.995947	-0.884134
H97	H	1.428331	-0.999426	-0.859238
H98	H	1.357812	-1.079314	-0.834767
H99	H	1.326225	-0.917840	-0.740781
H100	H	1.255781	-0.997791	-0.716424
O101	O	1.238619	-0.362971	-0.843100
C102	C	1.124449	-0.263454	-0.846469
C103	C	1.191149	-0.321501	-0.902086
H104	H	1.086065	-0.229900	-0.894136
H105	H	1.074480	-0.292921	-0.799496
H106	H	1.163477	-0.224531	-0.804593
H107	H	1.152197	-0.360440	-0.944014
H108	H	1.241118	-0.291985	-0.949002
H109	H	1.178504	-0.981926	-0.461796
O110	O	1.188968	-0.319652	-0.981557
C111	C	1.074811	-0.220124	-0.984918
C112	C	1.141502	-0.278175	-1.040539
H113	H	1.036431	-0.186563	-1.032582
H114	H	1.024838	-0.249587	-0.937945
H115	H	1.113846	-0.181207	-0.943042
H116	H	1.102543	-0.317108	-1.082469
H117	H	1.191475	-0.248662	-1.087455
O118	O	1.477701	-0.570949	-1.042517
C119	C	1.606043	-0.592423	-1.156344
C120	C	1.539343	-0.534407	-1.100672
H121	H	1.655885	-0.562902	-1.203389
H122	H	1.644572	-0.625941	-1.108752
H123	H	1.567001	-0.631387	-1.198151
H124	H	1.578315	-0.495395	-1.058860
H125	H	1.500814	-0.500943	-1.148312
H126	H	0.982559	-0.336589	-0.386771
O127	O	1.199734	-0.329090	-1.167812
C128	C	1.083743	-0.318287	-1.267523
C129	C	1.144428	-0.371106	-1.219198
H130	H	1.039026	-0.352236	-1.309094
H131	H	1.039432	-0.279774	-1.215154
H132	H	1.127898	-0.283741	-1.314148
H133	H	1.100342	-0.405700	-1.172575
H134	H	1.188744	-0.409569	-1.271616
O135	O	1.427914	-0.527676	-1.181071
C136	C	1.487544	-0.579684	-1.329657
C137	C	1.420912	-0.521643	-1.273943
H138	H	1.481891	-0.574837	-1.404754
H139	H	1.559497	-0.569407	-1.315374
H140	H	1.470525	-0.637819	-1.310077
H141	H	1.437847	-0.463484	-1.293490
H142	H	1.348978	-0.531985	-1.288231
H143	H	1.227936	-0.898748	-0.616512
