data_functionalizedCrystal
_audit_creation_method	'MofGen! by Chris Wilmer'
_symmetry_space_group_name_H-M	'P1'
_symmetry_Int_Tables_number	1
_symmetry_cell_setting	triclinic
loop_
_symmetry_equiv_pos_as_xyz
  x,y,z
_cell_length_a	12.837943
_cell_length_b	9.730223
_cell_length_c	10.654550
_cell_angle_alpha	89.995747
_cell_angle_beta	89.656935
_cell_angle_gamma	89.997877
loop_
_atom_site_label
_atom_site_type_symbol
_atom_site_fract_x
_atom_site_fract_y
_atom_site_fract_z
O1	O	1.377801	-0.114265	0.326750
O2	O	1.877801	0.385735	0.826750
O3	O	1.075880	-0.114273	0.310609
O4	O	1.575880	0.385727	0.810609
O5	O	1.233782	-0.114260	0.136698
O6	O	1.733782	0.385740	0.636698
O7	O	1.219899	-0.114278	0.500662
O8	O	1.719899	0.385722	1.000662
O9	O	1.233772	0.114320	0.136692
O10	O	1.733772	0.614320	0.636692
O11	O	1.075869	0.114307	0.310603
O12	O	1.575869	0.614307	0.810603
O13	O	1.377791	0.114315	0.326744
O14	O	1.877791	0.614315	0.826744
Zn15	Zn	1.226829	0.150603	0.318672
Zn16	Zn	1.726829	0.650603	0.818672
Zn17	Zn	1.226842	-0.150561	0.318681
Zn18	Zn	1.726842	0.349439	0.818681
O19	O	1.219888	0.114302	0.500655
O20	O	1.719888	0.614302	1.000655
C21	C	1.037215	0.000016	0.305153
C22	C	1.537215	0.500016	0.805153
C23	C	0.922021	0.000013	0.288891
C24	C	1.422021	0.500013	0.788891
N25	N	1.226827	0.356139	0.318667
N26	N	1.726827	0.856139	0.818667
N27	N	1.226852	-0.356098	0.318677
N28	N	1.726852	0.143902	0.818677
C29	C	0.682468	0.000023	0.484395
C30	C	1.182468	0.500023	0.984395
C31	C	0.574232	0.000021	0.469121
C32	C	1.074232	0.500021	0.969121
C33	C	0.597312	0.000018	0.243070
C34	C	1.097312	0.500018	0.743070
C35	C	0.705547	0.000019	0.258344
C36	C	1.205547	0.500019	0.758344
C37	C	0.748121	0.000020	0.379010
C38	C	1.248121	0.500020	0.879010
C39	C	0.856359	0.000012	0.394284
C40	C	1.356359	0.500012	0.894284
C41	C	0.879436	0.000018	0.168233
C42	C	1.379436	0.500018	0.668233
C43	C	0.771201	0.000016	0.152959
C44	C	1.271201	0.500016	0.652959
C45	C	1.416456	0.000023	0.332200
C46	C	1.916456	0.500023	0.832200
C47	C	1.531650	0.000017	0.348462
C48	C	2.031650	0.500017	0.848462
C49	C	1.232758	0.000029	0.089786
C50	C	1.732758	0.500029	0.589786
C51	C	1.229708	0.000027	-0.049990
C52	C	1.729708	0.500027	0.450010
C53	C	1.296770	0.428071	0.241698
C54	C	1.796770	0.928071	0.741698
C55	C	1.296781	0.571954	0.241699
C56	C	1.796781	1.071954	0.741699
C57	C	1.156901	0.571961	0.395650
C58	C	1.656901	1.071961	0.895650
C59	C	1.156886	0.428080	0.395641
C60	C	1.656886	0.928080	0.895641
C61	C	1.322678	0.000029	-0.119331
C62	C	1.822678	0.500029	0.380669
C63	C	1.319806	0.000012	-0.250665
C64	C	1.819806	0.500012	0.249335
C65	C	1.130985	-0.000003	-0.243307
C66	C	1.630985	0.499997	0.256693
C67	C	1.133858	0.000004	-0.111975
C68	C	1.633858	0.500004	0.388025
C69	C	1.220913	0.000010	0.547568
C70	C	1.720913	0.500010	1.047568
C71	C	1.223963	0.000003	0.687344
C72	C	1.723963	0.500003	1.187344
H73	H	0.891020	0.000015	0.492536
H74	H	1.391020	0.500015	0.992536
F75	F	0.504362	0.000029	0.581287
F76	F	1.004362	0.500029	1.081287
F77	F	1.034901	-0.000008	-0.038173
F78	F	1.534901	0.499992	0.461827
F79	F	0.949318	-0.000002	0.056068
F80	F	1.449318	0.499998	0.556068
F81	F	0.551983	0.000033	0.114658
F82	F	1.051983	0.500033	0.614658
F83	F	0.727781	0.000007	0.612816
F84	F	1.227781	0.500007	1.112816
F85	F	0.725878	0.000020	0.024544
F86	F	1.225878	0.500020	0.524544
H87	H	1.052948	-0.000019	-0.293791
H88	H	1.552948	0.499981	0.206209
H89	H	1.353719	0.369500	0.179019
H90	H	1.853719	0.869500	0.679019
H91	H	1.099958	0.630550	0.458322
H92	H	1.599958	1.130550	0.958322
F93	F	1.371221	0.648504	0.159776
F94	F	1.871221	1.148504	0.659776
F95	F	1.424690	0.000051	-0.053367
F96	F	1.924690	0.500051	0.446633
F97	F	1.082436	0.351519	0.477561
F98	F	1.582436	0.851519	0.977561
H99	H	1.395513	0.000010	-0.307116
H100	H	1.895513	0.500010	0.192884
