data_functionalizedCrystal
_audit_creation_method	'MofGen! by Chris Wilmer'
_symmetry_space_group_name_H-M	'P1'
_symmetry_Int_Tables_number	1
_symmetry_cell_setting	triclinic
loop_
_symmetry_equiv_pos_as_xyz
  x,y,z
_cell_length_a	13.032721
_cell_length_b	13.033304
_cell_length_c	19.805398
_cell_angle_alpha	97.203296
_cell_angle_beta	97.154074
_cell_angle_gamma	74.816908
loop_
_atom_site_label
_atom_site_type_symbol
_atom_site_fract_x
_atom_site_fract_y
_atom_site_fract_z
Zn1	Zn	-0.216893	-1.570088	-0.529948
Zn2	Zn	-0.394530	-1.547428	-0.429504
Zn3	Zn	-0.239454	-1.392480	-0.403992
Zn4	Zn	-0.416994	-1.369868	-0.529866
O5	O	-0.316968	-1.469966	-0.473328
O6	O	-0.221613	-1.715722	-0.527335
O7	O	-0.373999	-1.526854	-0.331405
O8	O	-0.087818	-1.434987	-0.410058
O9	O	-0.352122	-1.699073	-0.453539
O10	O	-0.071243	-1.565475	-0.502597
O11	O	-0.260066	-1.413014	-0.312661
O12	O	-0.281849	-1.240841	-0.409979
O13	O	-0.390410	-1.396447	-0.624592
O14	O	-0.412287	-1.224228	-0.502458
O15	O	-0.243396	-1.543549	-0.624652
O16	O	-0.546152	-1.504927	-0.453460
O17	O	-0.562657	-1.374475	-0.527196
C18	C	-0.351954	-1.193994	-0.453441
C19	C	-0.366947	-1.075929	-0.444952
C20	C	-0.309159	-1.031516	-0.477750
C21	C	-0.324653	-0.909489	-0.468977
C22	C	-0.592942	-1.434817	-0.493104
C23	C	-0.710993	-1.419877	-0.501594
C24	C	-0.755416	-1.477819	-0.468931
C25	C	-0.877428	-1.462380	-0.477705
C26	C	-0.039912	-1.505281	-0.453491
C27	C	0.078153	-1.520330	-0.445038
C28	C	-0.316892	-1.470003	-0.649867
C29	C	-0.316860	-1.470019	-0.725098
C30	C	-0.281840	-0.747016	-0.493287
C31	C	-0.266856	-0.865080	-0.501780
C32	C	-0.375995	-1.529485	-1.196647
C33	C	-0.376028	-1.529452	-1.125958
C34	C	-0.316724	-1.470166	-1.080861
C35	C	-0.257392	-1.410902	-1.106455
C36	C	-0.257366	-1.410930	-1.177143
C37	C	-0.257496	-1.410788	-0.821381
C38	C	-0.257524	-1.410767	-0.750689
C39	C	-0.376157	-1.529310	-0.770196
C40	C	-0.376132	-1.529337	-0.840884
C41	C	-0.316805	-1.470069	-0.866472
C42	C	-0.316772	-1.470104	-0.943121
C43	C	-0.316750	-1.470137	-1.004213
C44	C	-0.316958	-1.469999	-0.297474
C45	C	-0.316665	-1.470227	-0.222237
H46	H	-0.205900	-0.917392	-0.536354
N47	N	-0.447678	-1.006633	-0.399153
H48	H	-0.521165	-1.016225	-0.416400
H49	H	-0.428567	-1.028003	-0.351006
H50	H	-0.869554	-1.581375	-0.410578
H51	H	-0.763289	-1.358845	-0.536057
N52	N	-0.439973	-1.593418	-1.245282
H53	H	-0.430956	-1.584445	-1.293947
H54	H	-0.413834	-1.671382	-1.237206
N55	N	-0.440021	-1.593360	-1.098354
H56	H	-0.477582	-1.630927	-1.137648
H57	H	-0.390561	-1.648011	-1.069467
N58	N	-0.228444	-1.100806	-0.523563
H59	H	-0.173361	-1.153100	-0.495870
H60	H	-0.265977	-1.141264	-0.561255
N61	N	-0.440091	-1.593284	-0.889524
H62	H	-0.477684	-1.630817	-0.862586
H63	H	-0.494716	-1.543789	-0.919257
N64	N	-0.405395	-0.840203	-0.423178
H65	H	-0.441833	-0.886606	-0.402495
H66	H	-0.367901	-0.799671	-0.385509
N67	N	-0.686162	-1.558669	-0.423279
H68	H	-0.695709	-1.632142	-0.440667
H69	H	-0.608848	-1.558148	-0.423496
N70	N	-0.193570	-1.346806	-0.702048
H71	H	-0.202589	-1.355787	-0.653386
H72	H	-0.115606	-1.373001	-0.710163
H73	H	-0.929720	-1.401343	-0.512170
N74	N	-0.440150	-1.593235	-0.742597
H75	H	-0.431288	-1.584107	-0.690975
H76	H	-0.518084	-1.567139	-0.759269
H77	H	-0.209190	-1.362526	-0.842206
N78	N	-0.193433	-1.346951	-1.057819
H79	H	-0.202448	-1.355927	-1.009155
H80	H	-0.115471	-1.373157	-1.065937
N81	N	-0.193380	-1.347011	-1.204747
H82	H	-0.155814	-1.309451	-1.165453
H83	H	-0.138731	-1.396521	-1.233672
