data_functionalizedCrystal
_audit_creation_method	'MofGen! by Chris Wilmer'
_symmetry_space_group_name_H-M	'P1'
_symmetry_Int_Tables_number	1
_symmetry_cell_setting	triclinic
loop_
_symmetry_equiv_pos_as_xyz
  x,y,z
_cell_length_a	19.902436
_cell_length_b	21.606444
_cell_length_c	21.606444
_cell_angle_alpha	60.001331
_cell_angle_beta	90.002955
_cell_angle_gamma	59.995780
loop_
_atom_site_label
_atom_site_type_symbol
_atom_site_fract_x
_atom_site_fract_y
_atom_site_fract_z
Zr1	Zr	0.647308	0.677381	-0.081152
O2	O	0.540009	0.806515	-0.179983
O3	O	0.680202	0.548258	-0.050858
O4	O	0.680194	0.677381	-0.179977
O5	O	0.540023	0.677387	0.050989
O6	O	0.790772	0.677369	-0.179968
O7	O	0.540018	0.677391	-0.050865
O8	O	0.790788	0.446390	0.051001
O9	O	0.540008	0.908366	-0.179980
O10	O	0.776754	0.601355	-0.037929
O11	O	0.694234	0.601360	0.038078
O12	O	0.694224	0.753387	-0.113942
O13	O	0.611704	0.753393	-0.037936
Zr14	Zr	0.823678	0.677355	0.081306
Zr15	Zr	0.823669	0.677362	-0.081139
Zr16	Zr	0.647317	0.677374	0.081293
Zr17	Zr	0.647306	0.839821	-0.081147
Zr18	Zr	0.823680	0.514914	0.081301
O19	O	0.790784	0.806478	0.051012
O20	O	0.790771	0.806488	-0.179964
O21	O	0.540022	0.806505	0.050994
O22	O	0.930977	0.548220	0.180137
O23	O	0.930964	0.548230	-0.050840
O24	O	0.680215	0.548248	0.180118
O25	O	0.930963	0.677349	-0.050835
O26	O	0.790792	0.677354	0.180131
O27	O	0.680214	0.677366	0.180122
O28	O	0.930968	0.677344	0.051019
O29	O	0.680191	0.908351	-0.179969
O30	O	0.790795	0.446385	0.180123
O31	O	0.930978	0.446370	0.180134
O32	O	0.930971	0.446375	0.051011
O33	O	0.540015	0.908360	-0.050857
O34	O	0.680198	0.908345	-0.050847
O35	O	0.776762	0.601348	0.114097
O36	O	0.859282	0.601343	0.038090
O37	O	0.776752	0.753375	-0.037924
O38	O	0.694232	0.753381	0.038083
C39	C	0.735495	0.474180	0.000070
C40	C	0.735496	0.405220	0.000068
C41	C	0.778569	0.372819	-0.039607
C42	C	0.778572	0.308019	-0.039602
C43	C	0.735497	0.275625	0.000074
C44	C	0.692423	0.308028	0.039755
C45	C	0.692425	0.372823	0.039754
C46	C	0.692413	0.046719	0.039761
C47	C	0.692412	-0.018078	0.039758
C48	C	0.778559	-0.018085	-0.039595
C49	C	0.778562	0.046710	-0.039596
C50	C	0.735492	0.079104	0.000087
C51	C	0.735491	0.149366	0.000083
C52	C	0.735493	0.205368	0.000075
C53	C	0.514893	0.677392	0.000061
C54	C	0.440023	0.677400	0.000055
C55	C	0.168021	0.677357	0.000084
C56	C	0.144451	0.773262	-0.047637
C57	C	0.222288	0.773322	-0.047902
C58	C	0.302964	0.677379	0.000070
C59	C	0.300552	0.629753	-0.034899
C60	C	0.222324	0.630366	-0.035252
C61	C	0.223318	0.628391	0.082796
C62	C	0.300239	0.630194	0.082669
C63	C	0.379231	0.677386	0.000062
C64	C	0.091756	0.677347	0.000089
C65	C	0.956093	0.677344	0.000094
C66	C	1.030963	0.677336	0.000099
C67	C	0.735482	0.677376	-0.203118
C68	C	0.735478	0.677379	-0.272080
C69	C	0.735491	0.880556	0.000084
C70	C	0.735490	0.949516	0.000086
C71	C	0.692398	0.756738	-0.344157
C72	C	0.692405	0.756736	-0.408952
C73	C	0.735488	0.677374	-0.401668
C74	C	0.778573	0.598009	-0.329583
C75	C	0.778570	0.598012	-0.264790
C76	C	0.778586	0.597994	-0.590886
C77	C	0.778584	0.597996	-0.655687
C78	C	0.692421	0.756717	-0.735048
C79	C	0.692418	0.756721	-0.670255
C80	C	0.735507	0.677356	-0.598176
C81	C	0.735500	0.677360	-0.527919
C82	C	0.735490	0.677369	-0.471924
C83	C	0.735504	0.677359	0.203272
C84	C	0.735508	0.677356	0.272234
C85	C	0.956095	0.474156	0.000087
C86	C	1.030966	0.405187	0.000090
C87	C	0.735506	0.474171	0.203265
C88	C	0.735511	0.405208	0.272225
C89	C	0.956107	0.474147	0.203282
C90	C	1.030981	0.405176	0.272247
C91	C	0.514879	0.880588	-0.203128
C92	C	0.440005	0.949560	-0.272093
C93	C	0.514891	0.880580	0.000067
C94	C	0.440020	0.949548	0.000064
C95	C	0.735479	0.880564	-0.203111
C96	C	0.735475	0.949528	-0.272071
C97	C	1.023047	0.372806	-0.039596
C98	C	1.093389	0.308012	-0.039608
C99	C	1.171649	0.275596	0.000071
C100	C	1.179566	0.307984	0.039759
C101	C	1.109225	0.372782	0.039766
C102	C	0.778592	0.372816	0.344297
C103	C	0.778593	0.308027	0.409099
C104	C	0.735518	0.275626	0.401827
C105	C	0.692432	0.308025	0.329747
C106	C	0.692426	0.372817	0.264947
C107	C	1.109224	0.372783	0.264960
C108	C	1.179583	0.307986	0.329754
C109	C	1.171697	0.275579	0.401835
C110	C	1.093445	0.307978	0.409121
C111	C	1.023088	0.372778	0.344328
C112	C	0.361762	0.981960	-0.264806
C113	C	0.291403	1.046777	-0.329600
C114	C	0.299289	1.079188	-0.401681
C115	C	0.377541	1.046785	-0.408967
C116	C	0.447898	0.981973	-0.344174
C117	C	0.447939	0.981937	0.039743
C118	C	0.377597	1.046749	0.039737
C119	C	0.299337	1.079166	0.000056
C120	C	0.291420	1.046775	-0.039628
C121	C	0.361761	0.981969	-0.039627
C122	C	0.778559	0.981907	-0.264775
C123	C	0.778570	1.046697	-0.329564
C124	C	0.735493	1.079110	-0.401649
C125	C	0.692408	1.046724	-0.408944
C126	C	0.692402	0.981931	-0.344155
H127	H	0.813633	-0.044470	-0.071905
H128	H	1.228993	0.222814	0.454588
O129	O	0.825047	0.512393	-0.513153
H130	H	0.781553	0.508609	-0.481743
O131	O	0.223396	1.149101	-0.471560
H132	H	0.186247	1.124238	-0.471520
O133	O	1.263977	0.273019	0.082553
H134	H	1.271142	0.243492	0.143538
H135	H	0.657347	0.399183	0.206265
O136	O	0.645940	-0.053005	0.082553
H137	H	0.689424	-0.124490	0.126406
H138	H	0.242067	1.131936	0.000061
H139	H	1.087036	0.281582	0.467819
H140	H	0.735505	1.131869	-0.454398
O141	O	0.353213	0.947036	-0.082424
H142	H	0.383201	0.875556	-0.042368
O143	O	0.353246	0.947014	-0.187065
H144	H	0.287013	0.980450	-0.192895
H145	H	1.115661	0.399160	0.206273
O146	O	1.084842	0.273082	-0.082412
H147	H	1.050696	0.243555	-0.059471
O148	O	0.645940	0.842330	-0.486694
H149	H	0.579729	0.880384	-0.493294
H150	H	0.657332	0.821345	-0.676193
H151	H	0.813682	0.281655	0.467783
H152	H	0.227694	1.073149	-0.323653
O153	O	0.938645	0.407764	-0.082403
H154	H	0.904534	0.479246	-0.126251
H155	H	0.657314	0.955575	-0.350107
O156	O	0.825029	0.407753	-0.082406
H157	H	0.781536	0.479233	-0.126270
O158	O	1.263974	0.273079	0.321881
H159	H	1.311580	0.222593	0.379041
H160	H	0.959381	0.399144	0.350272
H161	H	0.383952	1.073182	-0.467664
H162	H	0.813637	0.955526	-0.206085
H163	H	0.813657	0.533391	-0.323657
O164	O	1.117770	0.407693	0.082585
H165	H	1.184008	0.374254	0.110180
O166	O	0.532341	0.946986	0.082545
H167	H	0.579933	0.896474	0.075892
H168	H	0.813654	1.073059	-0.323609
O169	O	1.247514	0.205709	0.000058
H170	H	1.284672	0.146657	0.059142
H171	H	0.511605	0.955593	-0.350116
O172	O	0.645938	1.081695	-0.486694
H173	H	0.653176	1.132198	-0.530513
O174	O	0.825051	0.407759	0.352150
H175	H	0.854996	0.374348	0.413158
H176	H	0.813645	0.281638	-0.071909
H177	H	0.735529	0.222868	0.454597
H178	H	0.384059	1.073111	0.072056
O179	O	0.646000	0.273052	0.321907
H180	H	0.653263	0.222542	0.379079
H181	H	0.227691	1.073179	-0.071936
H182	H	0.813634	0.073086	-0.071908
O183	O	0.825071	0.512385	-0.647816
H184	H	0.781590	0.508573	-0.675429
O185	O	0.645963	0.842319	-0.812795
H186	H	0.598358	0.846119	-0.844226
O187	O	0.646001	0.407759	0.082568
H188	H	0.598394	0.479246	0.042525
H189	H	0.657346	0.073084	0.072077
H190	H	0.657355	0.281644	0.072065
H191	H	0.221011	0.810879	-0.024628
H192	H	0.105285	0.810903	-0.024301
H193	H	0.104535	0.810720	-0.108282
H194	H	0.657309	0.821364	-0.350097
H195	H	0.220510	0.810918	-0.108914
H196	H	0.185778	0.664214	-0.096116
H197	H	0.241674	0.560002	-0.002741
H198	H	0.357368	0.559209	-0.001813
H199	H	0.302099	0.662833	-0.095184
O200	O	0.825038	0.512432	-0.187036
H201	H	0.800155	0.474365	-0.180420
O202	O	0.175233	0.669043	0.121491
H203	H	0.111377	0.724608	0.082196
H204	H	0.357702	0.560197	0.121218
O205	O	0.299768	0.676166	0.117290
H206	H	0.301470	0.732387	0.075850
H207	H	0.243238	0.557743	0.118520
