data_functionalizedCrystal
_audit_creation_method	'MofGen! by Chris Wilmer'
_symmetry_space_group_name_H-M	'P1'
_symmetry_Int_Tables_number	1
_symmetry_cell_setting	triclinic
loop_
_symmetry_equiv_pos_as_xyz
  x,y,z
_cell_length_a	22.610064
_cell_length_b	19.188930
_cell_length_c	19.188922
_cell_angle_alpha	83.142936
_cell_angle_beta	90.001561
_cell_angle_gamma	89.977918
loop_
_atom_site_label
_atom_site_type_symbol
_atom_site_fract_x
_atom_site_fract_y
_atom_site_fract_z
O1	O	0.049378	-0.926147	-0.087158
O2	O	0.549378	-0.426147	0.412842
O3	O	0.049338	-0.722835	-0.098893
O4	O	0.549338	-0.222835	0.401107
O5	O	0.049351	-0.830361	0.008630
O6	O	0.549351	-0.330361	0.508630
O7	O	0.049364	-0.818621	-0.194682
O8	O	0.549364	-0.318621	0.305318
O9	O	-0.049018	-0.830342	0.008615
O10	O	0.450982	-0.330342	0.508615
O11	O	-0.049031	-0.722816	-0.098908
O12	O	0.450969	-0.222816	0.401092
O13	O	-0.048991	-0.926128	-0.087174
O14	O	0.451009	-0.426128	0.412826
Zn15	Zn	-0.064630	-0.824469	-0.093044
Zn16	Zn	0.435370	-0.324469	0.406956
Zn17	Zn	0.064976	-0.824494	-0.093023
Zn18	Zn	0.564976	-0.324494	0.406977
O19	O	-0.049005	-0.818602	-0.194697
O20	O	0.450995	-0.318602	0.305303
C21	C	0.000148	-0.696815	-0.098521
C22	C	0.500148	-0.196815	0.401479
C23	C	0.000132	-0.619310	-0.097380
C24	C	0.500132	-0.119310	0.402620
N25	N	-0.153082	-0.824457	-0.093057
N26	N	0.346918	-0.324457	0.406943
C27	C	0.000166	-0.829973	0.034634
C28	C	0.500166	-0.329973	0.534634
C29	C	0.000164	-0.828835	0.112139
C30	C	0.500164	-0.328835	0.612139
C31	C	-0.561717	-0.872109	-0.045419
C32	C	-0.061717	-0.372109	0.454581
C33	C	-0.623637	-0.872112	-0.045414
C34	C	-0.123637	-0.372112	0.454586
O35	O	-0.655651	-0.912598	-0.004921
O36	O	-0.155651	-0.412598	0.495079
N37	N	-0.654619	-0.824494	-0.093009
N38	N	-0.154619	-0.324494	0.406991
C39	C	-0.623678	-0.776863	-0.140607
C40	C	-0.123678	-0.276863	0.359393
O41	O	-0.655716	-0.736360	-0.181089
O42	O	-0.155716	-0.236360	0.318911
C43	C	-0.561759	-0.776857	-0.140608
C44	C	-0.061759	-0.276857	0.359392
C45	C	-0.530780	-0.824484	-0.093015
C46	C	-0.030780	-0.324484	0.406985
C47	C	-0.530739	-0.919731	0.002171
C48	C	-0.030739	-0.419731	0.502171
C49	C	-0.468823	-0.919728	0.002164
C50	C	0.031177	-0.419728	0.502164
C51	C	-0.437886	-0.872103	-0.045431
C52	C	0.062114	-0.372103	0.454569
C53	C	-0.468865	-0.824481	-0.093021
C54	C	0.031135	-0.324481	0.406979
C55	C	-0.530819	-0.729224	-0.188202
C56	C	-0.030819	-0.229224	0.311798
C57	C	-0.468896	-0.729221	-0.188199
C58	C	0.031104	-0.229221	0.311801
C59	C	-0.437917	-0.776848	-0.140606
C60	C	0.062083	-0.276848	0.359394
C61	C	-0.376012	-0.776853	-0.140623
C62	C	0.123988	-0.276853	0.359377
N63	N	-0.345030	-0.824472	-0.093028
N64	N	0.154970	-0.324472	0.406972
C65	C	-0.375967	-0.872097	-0.045433
C66	C	0.124033	-0.372097	0.454567
C67	C	-0.753712	-0.776879	-0.140600
C68	C	-0.253712	-0.276879	0.359400
C69	C	-0.815629	-0.776889	-0.140602
C70	C	-0.315629	-0.276889	0.359398
C71	C	-0.815584	-0.872137	-0.045409
C72	C	-0.315584	-0.372137	0.454591
C73	C	-0.753666	-0.872131	-0.045410
C74	C	-0.253666	-0.372131	0.454590
C75	C	-0.722730	-0.824498	-0.093005
C76	C	-0.222730	-0.324498	0.406995
C77	C	-0.245940	-0.872087	-0.045449
C78	C	0.254060	-0.372087	0.454551
C79	C	-0.184019	-0.872082	-0.045462
C80	C	0.315981	-0.372082	0.454538
C81	C	-0.184069	-0.776832	-0.140653
C82	C	0.315931	-0.276832	0.359347
C83	C	-0.245985	-0.776839	-0.140643
C84	C	0.254015	-0.276839	0.359357
C85	C	-0.276919	-0.824470	-0.093036
C86	C	0.223081	-0.324470	0.406964
O87	O	-0.343959	-0.736386	-0.181094
O88	O	0.156041	-0.236386	0.318906
O89	O	-0.343922	-0.912587	-0.004951
O90	O	0.156078	-0.412587	0.495049
N91	N	0.153428	-0.824512	-0.093004
N92	N	0.653428	-0.324512	0.406996
C93	C	0.000200	-0.952148	-0.087546
C94	C	0.500200	-0.452148	0.412454
C95	C	0.000219	-1.029653	-0.088687
C96	C	0.500219	-0.529653	0.411313
C97	C	0.000146	-0.574384	-0.160471
C98	C	0.500146	-0.074384	0.339529
C99	C	0.000152	-0.501560	-0.159399
C100	C	0.500152	-0.001560	0.340601
C101	C	0.000157	-0.473666	-0.095233
C102	C	0.500157	0.026334	0.404767
C103	C	0.000140	-0.518602	-0.032134
C104	C	0.500140	-0.018602	0.467866
C105	C	0.000128	-0.591424	-0.033207
C106	C	0.500128	-0.091424	0.466793
N107	N	0.033657	-0.365694	-0.046180
N108	N	0.533657	0.134306	0.453820
N109	N	0.033670	-0.296515	-0.045165
N110	N	0.533670	0.203485	0.454835
C111	C	0.000193	-0.254257	-0.091995
C112	C	0.500193	0.245743	0.408005
N113	N	-0.033290	-0.283790	-0.139889
N114	N	0.466710	0.216210	0.360111
N115	N	-0.033300	-0.352975	-0.140907
N116	N	0.466700	0.147025	0.359093
C117	C	0.000170	-0.394704	-0.094062
C118	C	0.500170	0.105296	0.405938
C119	C	0.000213	-0.130367	-0.153928
C120	C	0.500213	0.369633	0.346072
C121	C	0.000215	-0.057542	-0.152854
C122	C	0.500215	0.442458	0.347146
C123	C	0.000210	-0.074585	-0.025586
C124	C	0.500210	0.425415	0.474414
C125	C	0.000201	-0.147408	-0.026663
C126	C	0.500201	0.352592	0.473337
C127	C	0.000205	-0.175295	-0.090835
C128	C	0.500205	0.324705	0.409165
C129	C	0.053785	-0.828314	0.148546
C130	C	0.553785	-0.328314	0.648546
C131	C	0.053788	-0.827234	0.221369
C132	C	0.553788	-0.327234	0.721369
C133	C	0.000168	-0.826690	0.257783
C134	C	0.500168	-0.326690	0.757783
C135	C	-0.053460	-0.827207	0.221366
C136	C	0.446540	-0.327207	0.721366
C137	C	-0.053462	-0.828279	0.148544
C138	C	0.446538	-0.328279	0.648544
N139	N	-0.039733	-0.864731	0.377440
N140	N	0.460267	-0.364731	0.877440
N141	N	-0.039727	-0.863714	0.446619
N142	N	0.460273	-0.363714	0.946619
C143	C	0.000172	-0.823458	0.477193
C144	C	0.500172	-0.323458	0.977193
N145	N	0.040074	-0.784266	0.435976
N146	N	0.540074	-0.284266	0.935976
N147	N	0.040070	-0.785286	0.366792
N148	N	0.540070	-0.285286	0.866792
C149	C	0.000165	-0.825527	0.336747
C150	C	0.500165	-0.325527	0.836747
C151	C	0.053801	-0.821765	0.592563
C152	C	0.553801	-0.321765	1.092563
C153	C	0.053802	-0.820682	0.665386
C154	C	0.553802	-0.320682	1.165386
C155	C	-0.053447	-0.820661	0.665383
C156	C	0.446553	-0.320661	1.165383
C157	C	-0.053447	-0.821738	0.592560
C158	C	0.446553	-0.321738	1.092560
C159	C	0.000178	-0.822293	0.556155
C160	C	0.500178	-0.322293	1.056155
C161	C	0.000180	-0.818992	0.779300
C162	C	0.500180	-0.318992	1.279300
C163	C	0.000182	-0.820136	0.701795
C164	C	0.500182	-0.320136	1.201795
H165	H	-0.158798	-0.910868	-0.006706
H166	H	0.341202	-0.410868	0.493294
H167	H	0.097466	-0.822214	0.562919
H168	H	0.597466	-0.322214	1.062919
C169	C	-0.112442	-0.826607	0.261416
C170	C	0.387558	-0.326607	0.761416
H171	H	-0.144378	-0.827065	0.229299
H172	H	0.355622	-0.327065	0.729299
H173	H	-0.114665	-0.866894	0.295274
H174	H	0.385335	-0.366894	0.795274
H175	H	-0.114675	-0.785477	0.284372
H176	H	0.385325	-0.285477	0.784372
H177	H	-0.097128	-0.828700	0.118901
H178	H	0.402872	-0.328700	0.618901
H179	H	-0.840784	-0.910915	-0.006653
H180	H	-0.340784	-0.410915	0.493347
H181	H	0.000207	-0.153073	-0.206182
H182	H	0.500207	0.346927	0.293818
C183	C	-0.719594	-0.924514	0.006947
C184	C	-0.219594	-0.424514	0.506947
H185	H	-0.746893	-0.952874	0.035293
H186	H	-0.246893	-0.452874	0.535293
H187	H	-0.695427	-0.953497	-0.018093
H188	H	-0.195427	-0.453497	0.481907
H189	H	-0.695453	-0.899484	0.035955
H190	H	-0.195453	-0.399484	0.535955
C191	C	0.000169	-0.452130	-0.228800
C192	C	0.500169	0.047870	0.271200
H193	H	0.000173	-0.404766	-0.218968
H194	H	0.500173	0.095234	0.281032
H195	H	0.034474	-0.460588	-0.255113
H196	H	0.534474	0.039412	0.244887
H197	H	-0.034138	-0.460536	-0.255130
H198	H	0.465862	0.039464	0.244870
H199	H	-0.271119	-0.910872	-0.006682
H200	H	0.228881	-0.410872	0.493318
C201	C	-0.849699	-0.724500	-0.192955
C202	C	-0.349699	-0.224500	0.307045
H203	H	-0.822401	-0.696134	-0.221295
H204	H	-0.322401	-0.196134	0.278705
H205	H	-0.873850	-0.749516	-0.221960
H206	H	-0.373850	-0.249516	0.278040
H207	H	-0.873858	-0.695514	-0.167901
H208	H	-0.373858	-0.195514	0.332099
H209	H	-0.728527	-0.738093	-0.179363
H210	H	-0.228527	-0.238093	0.320637
H211	H	0.097451	-0.828764	0.118909
H212	H	0.597451	-0.328764	0.618909
H213	H	0.097469	-0.820254	0.695028
H214	H	0.597469	-0.320254	1.195028
C215	C	-0.112429	-0.820057	0.705430
C216	C	0.387571	-0.320057	1.205430
H217	H	-0.104748	-0.819345	0.754015
H218	H	0.395252	-0.319345	1.254015
H219	H	-0.134467	-0.779521	0.688042
H220	H	0.365533	-0.279521	1.188042
H221	H	-0.134455	-0.860939	0.698948
H222	H	0.365545	-0.360939	1.198948
H223	H	0.000250	-0.051874	0.026659
H224	H	0.500250	0.448126	0.526659
H225	H	0.000223	-0.020964	-0.204233
H226	H	0.500223	0.479036	0.295767
C227	C	-0.150033	-0.724446	-0.193005
C228	C	0.349967	-0.224446	0.306995
H229	H	-0.177348	-0.696084	-0.221354
H230	H	0.322652	-0.196084	0.278646
H231	H	-0.125888	-0.695466	-0.167956
H232	H	0.374112	-0.195466	0.332044
H233	H	-0.125872	-0.749473	-0.222011
H234	H	0.374128	-0.249473	0.277989
H235	H	0.000193	-0.183988	0.024713
H236	H	0.500193	0.316012	0.524713
H237	H	-0.271208	-0.738064	-0.179404
H238	H	0.228792	-0.238064	0.320596
C239	C	0.112773	-0.826689	0.261429
C240	C	0.612773	-0.326689	0.761429
H241	H	0.144710	-0.827185	0.229319
H242	H	0.644710	-0.327185	0.729319
H243	H	0.115012	-0.785574	0.284400
H244	H	0.615012	-0.285574	0.784400
H245	H	0.114992	-0.866992	0.295277
H246	H	0.614992	-0.366992	0.795277
H247	H	0.000153	-0.495885	0.020111
H248	H	0.500153	0.004115	0.520111
C249	C	-0.112429	-0.822316	0.552507
C250	C	0.387571	-0.322316	1.052507
H251	H	-0.104752	-0.823026	0.503922
H252	H	0.395248	-0.323026	1.003922
H253	H	-0.134457	-0.862840	0.569890
H254	H	0.365543	-0.362840	1.069890
H255	H	-0.134466	-0.781422	0.558992
H256	H	0.365534	-0.281422	1.058992
C257	C	-0.434754	-0.972110	0.054525
C258	C	0.065246	-0.472110	0.554525
H259	H	-0.462055	-1.000465	0.082873
H260	H	0.037945	-0.500465	0.582873
H261	H	-0.410587	-1.001098	0.029489
H262	H	0.089413	-0.501098	0.529489
H263	H	-0.410612	-0.947078	0.083531
H264	H	0.089388	-0.447078	0.583531
H265	H	-0.555922	-0.958513	0.040932
H266	H	-0.055922	-0.458513	0.540932
H267	H	0.000118	-0.628004	0.018171
H268	H	0.500118	-0.128004	0.518171
C269	C	0.000139	-0.605056	-0.231058
C270	C	0.500139	-0.105056	0.268942
H271	H	0.000142	-0.567865	-0.268480
H272	H	0.500142	-0.067865	0.231520
H273	H	0.034436	-0.633137	-0.234121
H274	H	0.534436	-0.133137	0.265879
H275	H	-0.034176	-0.633081	-0.234125
H276	H	0.465824	-0.133081	0.265875
H277	H	-0.556033	-0.690442	-0.226956
H278	H	-0.056033	-0.190442	0.273044
H279	H	-0.443711	-0.690431	-0.226956
H280	H	0.056289	-0.190431	0.273044
