data_functionalizedCrystal
_audit_creation_method	'MofGen! by Chris Wilmer'
_symmetry_space_group_name_H-M	'P1'
_symmetry_Int_Tables_number	1
_symmetry_cell_setting	triclinic
loop_
_symmetry_equiv_pos_as_xyz
  x,y,z
_cell_length_a	21.395364
_cell_length_b	21.395363
_cell_length_c	21.395355
_cell_angle_alpha	89.996048
_cell_angle_beta	90.025600
_cell_angle_gamma	90.000356
loop_
_atom_site_label
_atom_site_type_symbol
_atom_site_fract_x
_atom_site_fract_y
_atom_site_fract_z
Zn1	Zn	-0.957983	-0.249553	-0.354342
Zn2	Zn	-0.624650	0.083781	-0.021009
Zn3	Zn	-0.291317	0.417114	0.312324
Zn4	Zn	-0.957938	-0.354313	-0.249592
Zn5	Zn	-0.624605	-0.020979	0.083742
Zn6	Zn	-0.291272	0.312354	0.417075
Zn7	Zn	-0.853198	-0.249548	-0.249577
Zn8	Zn	-0.519865	0.083785	0.083756
Zn9	Zn	-0.186532	0.417118	0.417089
Zn10	Zn	-0.853220	-0.354292	-0.354330
Zn11	Zn	-0.519887	-0.020959	-0.020996
Zn12	Zn	-0.186553	0.312375	0.312337
O13	O	-0.905585	-0.301926	-0.301960
O14	O	-0.572252	0.031407	0.031373
O15	O	-0.238918	0.364740	0.364706
O16	O	-1.045655	-0.263460	-0.340458
O17	O	-0.712322	0.069873	-0.007125
O18	O	-0.378989	0.403207	0.326208
O19	O	-0.944016	-0.340422	-0.161912
O20	O	-0.610683	-0.007089	0.171422
O21	O	-0.277350	0.326244	0.504755
O22	O	-0.867108	-0.161871	-0.263474
O23	O	-0.533775	0.171462	0.069860
O24	O	-0.200442	0.504796	0.403193
O25	O	-1.045622	-0.340427	-0.263498
O26	O	-0.712289	-0.007093	0.069835
O27	O	-0.378955	0.326240	0.403168
O28	O	-0.944093	-0.161874	-0.340444
O29	O	-0.610760	0.171459	-0.007111
O30	O	-0.277427	0.504792	0.326222
O31	O	-0.867065	-0.263452	-0.161901
O32	O	-0.533731	0.069881	0.171432
O33	O	-0.200398	0.403214	0.504765
O34	O	-0.765523	-0.263432	-0.263462
O35	O	-0.432190	0.069901	0.069872
O36	O	-0.098857	0.403234	0.403205
O37	O	-0.867145	-0.340391	-0.442009
O38	O	-0.533812	-0.007058	-0.108676
O39	O	-0.200478	0.326275	0.224657
O40	O	-0.765539	-0.340387	-0.340423
O41	O	-0.432206	-0.007054	-0.007090
O42	O	-0.098872	0.326280	0.326244
O43	O	-0.944114	-0.263440	-0.442019
O44	O	-0.610781	0.069893	-0.108685
O45	O	-0.277448	0.403227	0.224648
O46	O	-0.944037	-0.441988	-0.263486
O47	O	-0.610704	-0.108654	0.069847
O48	O	-0.277370	0.224679	0.403181
O49	O	-0.867101	-0.441973	-0.340437
O50	O	-0.533768	-0.108639	-0.007103
O51	O	-0.200434	0.224694	0.326230
C52	C	-0.742797	-0.301907	-0.301940
C53	C	-0.409464	0.031426	0.031394
C54	C	-0.076131	0.364759	0.364727
C55	C	-0.673156	-0.301914	-0.301946
C56	C	-0.339823	0.031419	0.031388
C57	C	-0.006489	0.364752	0.364721
C58	C	-0.171385	-0.342059	-0.341984
C59	C	0.161949	-0.008726	-0.008651
C60	C	0.495282	0.324607	0.324683
C61	C	-0.236820	-0.342060	-0.341979
C62	C	0.096513	-0.008727	-0.008645
C63	C	0.429847	0.324606	0.324688
C64	C	-0.269518	-0.301931	-0.301970
C65	C	0.063816	0.031402	0.031363
C66	C	0.397149	0.364736	0.364696
C67	C	-0.236775	-0.261809	-0.261954
C68	C	0.096559	0.071525	0.071380
C69	C	0.429892	0.404858	0.404713
C70	C	-0.171341	-0.261813	-0.261956
C71	C	0.161993	0.071520	0.071378
C72	C	0.495326	0.404854	0.404711
C73	C	-0.373178	-0.245467	-0.297106
C74	C	-0.039845	0.087866	0.036227
C75	C	0.293488	0.421199	0.369560
C76	C	-0.438611	-0.245462	-0.297108
C77	C	-0.105278	0.087872	0.036225
C78	C	0.228055	0.421205	0.369558
C79	C	-0.471339	-0.301917	-0.301960
C80	C	-0.138005	0.031416	0.031374
C81	C	0.195328	0.364749	0.364707
C82	C	-0.438625	-0.358380	-0.306822
C83	C	-0.105291	-0.025047	0.026511
C84	C	0.228042	0.308286	0.359845
C85	C	-0.373191	-0.358385	-0.306824
C86	C	-0.039857	-0.025051	0.026509
C87	C	0.293476	0.308282	0.359842
C88	C	-0.340470	-0.301922	-0.301963
C89	C	-0.007137	0.031412	0.031370
C90	C	0.326196	0.364745	0.364703
C91	C	-0.575026	-0.342041	-0.341965
C92	C	-0.241693	-0.008708	-0.008632
C93	C	0.091640	0.324625	0.324702
C94	C	-0.640463	-0.342044	-0.341955
C95	C	-0.307130	-0.008710	-0.008622
C96	C	0.026204	0.324623	0.324712
C97	C	-0.640416	-0.261786	-0.261933
C98	C	-0.307083	0.071547	0.071400
C99	C	0.026250	0.404881	0.404733
C100	C	-0.574981	-0.261789	-0.261940
C101	C	-0.241648	0.071544	0.071393
C102	C	0.091686	0.404877	0.404727
C103	C	-0.542290	-0.301916	-0.301959
C104	C	-0.208957	0.031417	0.031374
C105	C	0.124377	0.364750	0.364708
C106	C	-0.905583	-0.464714	-0.301975
C107	C	-0.572250	-0.131381	0.031358
C108	C	-0.238917	0.201953	0.364691
C109	C	-0.905640	-0.534355	-0.302003
C110	C	-0.572307	-0.201022	0.031331
C111	C	-0.238973	0.132311	0.364664
C112	C	-0.905637	-0.301914	-0.465384
C113	C	-0.572304	0.031420	-0.132050
C114	C	-0.238970	0.364753	0.201283
C115	C	-0.905659	-0.301908	-0.535025
C116	C	-0.572326	0.031425	-0.201692
C117	C	-0.238992	0.364758	0.131642
C118	C	-0.069008	-0.301942	-0.301977
C119	C	0.264325	0.031391	0.031356
C120	C	0.597658	0.364724	0.364689
C121	C	-0.138650	-0.301940	-0.301975
C122	C	0.194684	0.031393	0.031358
C123	C	0.528017	0.364727	0.364692
C124	C	-0.905604	-0.138503	-0.301959
C125	C	-0.572270	0.194830	0.031374
C126	C	-0.238937	0.528164	0.364708
C127	C	-0.905612	-0.068862	-0.301958
C128	C	-0.572278	0.264471	0.031375
C129	C	-0.238945	0.597805	0.364708
C130	C	-0.865537	-0.036146	-0.261885
C131	C	-0.532203	0.297187	0.071449
C132	C	-0.198870	0.630521	0.404782
C133	C	-0.865536	0.029289	-0.261892
C134	C	-0.532203	0.362623	0.071441
C135	C	-0.198869	0.695956	0.404775
C136	C	-0.905621	0.062006	-0.301967
C137	C	-0.572288	0.395340	0.031367
C138	C	-0.238955	0.728673	0.364700
C139	C	-0.945699	0.029283	-0.342048
C140	C	-0.612365	0.362616	-0.008715
C141	C	-0.279032	0.695949	0.324619
C142	C	-0.945694	-0.036151	-0.342044
C143	C	-0.612361	0.297182	-0.008710
C144	C	-0.279027	0.630515	0.324623
C145	C	-0.962080	0.165669	-0.306926
C146	C	-0.628747	0.499002	0.026408
C147	C	-0.295413	0.832336	0.359741
C148	C	-0.962086	0.231102	-0.306925
C149	C	-0.628753	0.564435	0.026408
C150	C	-0.295419	0.897769	0.359741
C151	C	-0.905636	0.263827	-0.301983
C152	C	-0.572303	0.597161	0.031350
C153	C	-0.238969	0.930494	0.364684
C154	C	-0.849178	0.231111	-0.297028
C155	C	-0.515845	0.564445	0.036306
C156	C	-0.182512	0.897778	0.369639
C157	C	-0.849173	0.165677	-0.297024
C158	C	-0.515840	0.499010	0.036310
C159	C	-0.182507	0.832344	0.369643
C160	C	-0.905631	0.132959	-0.301976
C161	C	-0.572297	0.466292	0.031358
C162	C	-0.238964	0.799625	0.364691
C163	C	-0.865557	0.367496	-0.261915
C164	C	-0.532224	0.700829	0.071418
C165	C	-0.198890	1.034162	0.404751
C166	C	-0.865555	0.432932	-0.261927
C167	C	-0.532222	0.766266	0.071406
C168	C	-0.198889	1.099599	0.404739
C169	C	-0.945724	0.432924	-0.342080
C170	C	-0.612390	0.766258	-0.008746
C171	C	-0.279057	1.099591	0.324587
C172	C	-0.945720	0.367489	-0.342071
C173	C	-0.612386	0.700822	-0.008738
C174	C	-0.279053	1.034156	0.324596
C175	C	-0.905637	0.334778	-0.301986
C176	C	-0.572304	0.668112	0.031348
C177	C	-0.238971	1.001445	0.364681
C178	C	-0.945735	-0.261838	-0.567744
C179	C	-0.612402	0.071495	-0.234410
C180	C	-0.279069	0.404829	0.098923
C181	C	-0.945735	-0.261811	-0.633179
C182	C	-0.612401	0.071522	-0.299846
C183	C	-0.279068	0.404856	0.033487
C184	C	-0.905664	-0.301866	-0.665893
C185	C	-0.572331	0.031468	-0.332560
C186	C	-0.238997	0.364801	0.000773
C187	C	-0.865580	-0.341939	-0.633166
C188	C	-0.532247	-0.008605	-0.299833
C189	C	-0.198913	0.324728	0.033500
C190	C	-0.865578	-0.341960	-0.567732
C191	C	-0.532244	-0.008627	-0.234399
C192	C	-0.198911	0.324707	0.098934
C193	C	-0.900716	-0.358281	-0.769573
C194	C	-0.567383	-0.024947	-0.436240
C195	C	-0.234050	0.308386	-0.102906
C196	C	-0.900723	-0.358260	-0.835006
C197	C	-0.567390	-0.024927	-0.501673
C198	C	-0.234056	0.308406	-0.168339
C199	C	-0.905668	-0.301799	-0.867714
C200	C	-0.572335	0.031534	-0.534381
C201	C	-0.239001	0.364867	-0.201047
C202	C	-0.910619	-0.245357	-0.834981
C203	C	-0.577286	0.087976	-0.501648
C204	C	-0.243952	0.421310	-0.168314
C205	C	-0.910617	-0.245378	-0.769547
C206	C	-0.577283	0.087955	-0.436214
C207	C	-0.243950	0.421288	-0.102880
C208	C	-0.905662	-0.301847	-0.736846
C209	C	-0.572329	0.031487	-0.403512
C210	C	-0.238995	0.364820	-0.070179
C211	C	-0.945745	-0.261697	-0.971386
C212	C	-0.612412	0.071637	-0.638052
C213	C	-0.279079	0.404970	-0.304719
C214	C	-0.945740	-0.261669	-1.036822
C215	C	-0.612407	0.071665	-0.703489
C216	C	-0.279073	0.404998	-0.370156
C217	C	-0.865589	-0.341802	-1.036808
C218	C	-0.532255	-0.008468	-0.703475
C219	C	-0.198922	0.324865	-0.370141
C220	C	-0.865591	-0.341824	-0.971373
C221	C	-0.532257	-0.008491	-0.638039
C222	C	-0.198924	0.324843	-0.304706
C223	C	-0.905672	-0.301772	-0.938665
C224	C	-0.572339	0.031561	-0.605332
C225	C	-0.239006	0.364894	-0.271999
C226	C	-0.905569	-0.301894	-0.139173
C227	C	-0.572236	0.031439	0.194161
C228	C	-0.238903	0.364773	0.527494
C229	C	-0.905668	-0.301723	-0.069532
C230	C	-0.572335	0.031611	0.263802
C231	C	-0.239002	0.364944	0.597135
H232	H	-0.465242	-0.199486	-0.293157
H233	H	-0.131909	0.133848	0.040177
H234	H	0.201425	0.467181	0.373510
H235	H	-0.832960	-0.374458	-0.944733
H236	H	-0.499627	-0.041124	-0.611399
H237	H	-0.166293	0.292209	-0.278066
C238	C	-0.787071	0.129692	-0.291580
C239	C	-0.453737	0.463025	0.041753
C240	C	-0.120404	0.796359	0.375086
N241	N	-0.740294	0.102588	-0.287484
N242	N	-0.406960	0.435921	0.045849
N243	N	-0.073627	0.769255	0.379183
H244	H	-0.346537	-0.199492	-0.293145
H245	H	-0.013204	0.133842	0.040188
H246	H	0.320129	0.467175	0.373521
C247	C	-0.272744	-0.217662	-0.217948
C248	C	0.060590	0.115671	0.115385
C249	C	0.393923	0.449005	0.448718
N250	N	-0.299835	-0.184409	-0.184802
N251	N	0.033498	0.148924	0.148531
N252	N	0.366831	0.482257	0.481864
H253	H	-0.144688	-0.229141	-0.229375
H254	H	0.188645	0.104192	0.103958
H255	H	0.521979	0.437525	0.437291
H256	H	-0.978356	0.340851	-0.374700
H257	H	-0.645023	0.674185	-0.041367
H258	H	-0.311690	1.007518	0.291967
C259	C	-0.989827	-0.217733	-0.669177
C260	C	-0.656494	0.115601	-0.335844
C261	C	-0.323160	0.448934	-0.002511
N262	N	-1.023039	-0.184534	-0.696289
N263	N	-0.689706	0.148799	-0.362956
N264	N	-0.356373	0.482132	-0.029623
H265	H	-0.832940	-0.374589	-0.541093
H266	H	-0.499606	-0.041256	-0.207759
H267	H	-0.166273	0.292077	0.125574
H268	H	-0.803212	0.257755	-0.293002
H269	H	-0.469878	0.591089	0.040331
H270	H	-0.136545	0.924422	0.373665
C271	C	-0.821456	0.065284	-0.217800
C272	C	-0.488122	0.398617	0.115533
C273	C	-0.154789	0.731951	0.448867
N274	N	-0.788257	0.092393	-0.184587
N275	N	-0.454923	0.425727	0.148747
N276	N	-0.121590	0.759060	0.482080
H277	H	-0.667115	-0.374718	-0.374534
H278	H	-0.333781	-0.041385	-0.041200
H279	H	-0.000448	0.291949	0.292133
H280	H	-0.914646	-0.199421	-0.742898
H281	H	-0.581313	0.133912	-0.409565
H282	H	-0.247980	0.467246	-0.076232
C283	C	-0.676380	-0.217644	-0.217922
C284	C	-0.343047	0.115689	0.115411
C285	C	-0.009714	0.449022	0.448745
N286	N	-0.703471	-0.184397	-0.184770
N287	N	-0.370138	0.148936	0.148563
N288	N	-0.036805	0.482270	0.481896
C289	C	-0.538971	-0.217646	-0.217934
C290	C	-0.205638	0.115687	0.115399
C291	C	0.127696	0.449021	0.448732
N292	N	-0.511849	-0.184395	-0.184787
N293	N	-0.178515	0.148939	0.148546
N294	N	0.154818	0.482272	0.481879
C295	C	-0.821500	-0.385996	-0.669153
C296	C	-0.488166	-0.052663	-0.335820
C297	C	-0.154833	0.280671	-0.002486
N298	N	-0.788294	-0.419179	-0.696258
N299	N	-0.454961	-0.085846	-0.362925
N300	N	-0.121628	0.247488	-0.029592
C301	C	-0.474620	-0.420487	-0.312158
C302	C	-0.141286	-0.087154	0.021175
C303	C	0.192047	0.246180	0.354508
N304	N	-0.501734	-0.467264	-0.316179
N305	N	-0.168400	-0.133930	0.017155
N306	N	0.164933	0.199403	0.350488
H307	H	-0.832917	0.340861	-0.229278
H308	H	-0.499583	0.674195	0.104055
H309	H	-0.166250	1.007528	0.437388
C310	C	-0.135428	-0.386214	-0.385993
C311	C	0.197905	-0.052881	-0.052660
C312	C	0.531239	0.280453	0.280674
N313	N	-0.108345	-0.419476	-0.419136
N314	N	0.224989	-0.086143	-0.085803
N315	N	0.558322	0.247191	0.247531
H316	H	-0.832918	0.459570	-0.229297
H317	H	-0.499585	0.792903	0.104037
H318	H	-0.166251	1.126237	0.437370
H319	H	-0.832956	-0.374409	-1.063443
H320	H	-0.499623	-0.041075	-0.730110
H321	H	-0.166290	0.292258	-0.396777
H322	H	-0.978359	0.459562	-0.374711
H323	H	-0.645026	0.792895	-0.041378
H324	H	-0.311692	1.126229	0.291955
H325	H	-0.914647	-0.199381	-0.861611
H326	H	-0.581313	0.133952	-0.528277
H327	H	-0.247980	0.467286	-0.194944
H328	H	-0.896695	-0.404219	-0.861652
H329	H	-0.563362	-0.070886	-0.528319
H330	H	-0.230029	0.262447	-0.194986
C331	C	-0.989830	-0.217634	-0.935405
C332	C	-0.656496	0.115700	-0.602072
C333	C	-0.323163	0.449033	-0.268739
N334	N	-1.023034	-0.184444	-0.908307
N335	N	-0.689700	0.148889	-0.574973
N336	N	-0.356367	0.482222	-0.241640
C337	C	-0.337208	-0.420494	-0.312161
C338	C	-0.003874	-0.087160	0.021172
C339	C	0.329459	0.246173	0.354506
N340	N	-0.310106	-0.467275	-0.316175
N341	N	0.023228	-0.133942	0.017158
N342	N	0.356561	0.199391	0.350491
C343	C	-0.895288	-0.420397	-0.733601
C344	C	-0.561955	-0.087064	-0.400267
C345	C	-0.228622	0.246269	-0.066934
N346	N	-0.891205	-0.467183	-0.706507
N347	N	-0.557871	-0.133849	-0.373174
N348	N	-0.224538	0.199484	-0.039841
C349	C	-1.024192	0.267083	-0.312359
C350	C	-0.690858	0.600417	0.020974
C351	C	-0.357525	0.933750	0.354307
N352	N	-1.070972	0.294183	-0.316447
N353	N	-0.737639	0.627516	0.016886
N354	N	-0.404305	0.960850	0.350219
H355	H	-0.978336	0.055924	-0.374678
H356	H	-0.645002	0.389258	-0.041345
H357	H	-0.311669	0.722591	0.291989
H358	H	-1.008051	0.139030	-0.310958
H359	H	-0.674718	0.472363	0.022375
H360	H	-0.341384	0.805696	0.355708
C361	C	-0.989828	-0.217584	-1.072813
C362	C	-0.656495	0.115749	-0.739480
C363	C	-0.323162	0.449082	-0.406146
N364	N	-1.023037	-0.184380	-1.099922
N365	N	-0.689704	0.148953	-0.766588
N366	N	-0.356370	0.482287	-0.433255
H367	H	-0.978372	-0.229224	-0.541118
H368	H	-0.645039	0.104109	-0.207784
H369	H	-0.311706	0.437443	0.125549
C370	C	-0.272836	-0.386192	-0.385998
C371	C	0.060497	-0.052859	-0.052664
C372	C	0.393831	0.280474	0.280669
N373	N	-0.299961	-0.419431	-0.419155
N374	N	0.033372	-0.086098	-0.085822
N375	N	0.366706	0.247236	0.247512
C376	C	-0.539064	-0.386186	-0.385982
C377	C	-0.205730	-0.052852	-0.052649
C378	C	0.127603	0.280481	0.280685
N379	N	-0.511979	-0.419436	-0.419136
N380	N	-0.178645	-0.086103	-0.085802
N381	N	0.154688	0.247231	0.247531
C382	C	-0.989787	-0.072140	-0.386124
C383	C	-0.656453	0.261193	-0.052791
C384	C	-0.323120	0.594527	0.280542
N385	N	-1.023001	-0.099247	-0.419324
N386	N	-0.689667	0.234086	-0.085991
N387	N	-0.356334	0.567419	0.247343
C388	C	-0.821439	-0.072124	-0.217795
C389	C	-0.488106	0.261210	0.115538
C390	C	-0.154772	0.594543	0.448871
N391	N	-0.788222	-0.099223	-0.184588
N392	N	-0.454889	0.234110	0.148745
N393	N	-0.121556	0.567443	0.482078
