data_functionalizedCrystal
_audit_creation_method	'MofGen! by Chris Wilmer'
_symmetry_space_group_name_H-M	'P1'
_symmetry_Int_Tables_number	1
_symmetry_cell_setting	triclinic
loop_
_symmetry_equiv_pos_as_xyz
  x,y,z
_cell_length_a	19.121379
_cell_length_b	16.625546
_cell_length_c	16.625539
_cell_angle_alpha	90.030397
_cell_angle_beta	87.585746
_cell_angle_gamma	92.463154
loop_
_atom_site_label
_atom_site_type_symbol
_atom_site_fract_x
_atom_site_fract_y
_atom_site_fract_z
Zn1	Zn	-1.073729	0.268438	-0.403463
Zn2	Zn	-0.573729	0.768438	0.096537
Zn3	Zn	-1.073644	0.403286	-0.268629
Zn4	Zn	-0.573644	0.903286	0.231371
Zn5	Zn	-0.956278	0.274216	-0.274379
Zn6	Zn	-0.456278	0.774216	0.225621
Zn7	Zn	-0.956252	0.408984	-0.409152
Zn8	Zn	-0.456252	0.908984	0.090848
O9	O	-1.014976	0.338731	-0.338906
O10	O	-0.514976	0.838731	0.161094
O11	O	-1.172000	0.281524	-0.380790
O12	O	-0.672000	0.781524	0.119210
O13	O	-1.058051	0.386198	-0.156561
O14	O	-0.558051	0.886198	0.343439
O15	O	-0.971904	0.160615	-0.291528
O16	O	-0.471904	0.660615	0.208472
O17	O	-1.171939	0.380595	-0.281728
O18	O	-0.671939	0.880595	0.218272
O19	O	-1.058195	0.156370	-0.386365
O20	O	-0.558195	0.656370	0.113635
O21	O	-0.971822	0.291371	-0.160785
O22	O	-0.471822	0.791371	0.339215
O23	O	-0.857991	0.296896	-0.297044
O24	O	-0.357991	0.796896	0.202956
O25	O	-0.971860	0.390307	-0.521229
O26	O	-0.471860	0.890307	-0.021229
O27	O	-0.857972	0.395909	-0.396061
O28	O	-0.357972	0.895909	0.103939
O29	O	-1.058170	0.287049	-0.517049
O30	O	-0.558170	0.787049	-0.017049
O31	O	-1.058026	0.516876	-0.287245
O32	O	-0.558026	1.016876	0.212755
O33	O	-0.971778	0.521062	-0.390486
O34	O	-0.471778	1.021062	0.109514
C35	C	-0.832498	0.347648	-0.347795
C36	C	-0.332498	0.847648	0.152205
C37	C	-0.754434	0.351483	-0.351616
C38	C	-0.254434	0.851483	0.148384
C39	C	-0.717748	0.301655	-0.301944
C40	C	-0.217748	0.801655	0.198056
C41	C	-0.644398	0.305265	-0.305534
C42	C	-0.144398	0.805265	0.194466
C43	C	-0.607735	0.358698	-0.358802
C44	C	-0.107735	0.858698	0.141198
C45	C	-0.644426	0.408531	-0.408477
C46	C	-0.144426	0.908531	0.091523
C47	C	-0.717774	0.404925	-0.404882
C48	C	-0.217774	0.904925	0.095118
C49	C	-0.386270	0.372173	-0.372229
C50	C	0.113730	0.872173	0.127771
C51	C	-0.312916	0.375774	-0.375822
C52	C	0.187084	0.875774	0.124178
C53	C	-0.312893	0.272509	-0.272878
C54	C	0.187107	0.772509	0.227122
C55	C	-0.386243	0.268904	-0.269291
C56	C	0.113757	0.768904	0.230709
C57	C	-0.422928	0.318739	-0.318962
C58	C	0.077072	0.818739	0.181038
C59	C	-0.532759	0.362388	-0.362476
C60	C	-0.032759	0.862388	0.137524
C61	C	-0.497902	0.315054	-0.315285
C62	C	0.002098	0.815054	0.184715
C63	C	-1.014909	0.548225	-0.338875
C64	C	-0.514909	1.048225	0.161125
C65	C	-1.014945	0.637844	-0.338886
C66	C	-0.514945	1.137844	0.161114
C67	C	-1.015021	0.338669	-0.549213
C68	C	-0.515021	0.838669	-0.049213
C69	C	-1.015041	0.338642	-0.638833
C70	C	-0.515041	0.838642	-0.138833
C71	C	-0.198166	0.329775	-0.329975
C72	C	0.301834	0.829775	0.170025
C73	C	-0.276230	0.325947	-0.326149
C74	C	0.223770	0.825947	0.173851
C75	C	-1.015062	0.128418	-0.338953
C76	C	-0.515062	0.628418	0.161047
C77	C	-1.015098	0.038795	-0.338973
C78	C	-0.515098	0.538795	0.161027
C79	C	-1.015068	0.966014	-0.338964
C80	C	-0.515068	1.466014	0.161036
C81	C	-1.015031	0.874707	-0.338945
C82	C	-0.515031	1.374707	0.161055
C83	C	-1.015006	0.801932	-0.338925
C84	C	-0.515006	1.301932	0.161075
C85	C	-1.014971	0.710620	-0.338906
C86	C	-0.514971	1.210620	0.161094
C87	C	-1.015073	0.338550	-0.967007
C88	C	-0.515073	0.838550	-0.467007
C89	C	-1.015062	0.338578	-0.875699
C90	C	-0.515062	0.838578	-0.375699
C91	C	-1.015057	0.338597	-0.802923
C92	C	-0.515057	0.838597	-0.302923
C93	C	-1.015046	0.338624	-0.711609
C94	C	-0.515046	0.838624	-0.211609
C95	C	-1.014971	0.338733	-0.129415
C96	C	-0.514971	0.838733	0.370585
C97	C	-1.015087	0.338526	-0.039789
C98	C	-0.515087	0.838526	0.460211
H99	H	-0.527756	0.271552	-0.271911
H100	H	-0.027756	0.771552	0.228089
H101	H	-0.747594	0.258138	-0.258573
H102	H	-0.247594	0.758138	0.241427
N103	N	-0.425771	0.211268	-0.211830
N104	N	0.074229	0.711268	0.288170
H105	H	-0.456183	0.242486	-0.172911
H106	H	0.043817	0.742486	0.327089
H107	H	-0.456182	0.172455	-0.243229
H108	H	0.043818	0.672455	0.256771
N109	N	-0.273327	0.218777	-0.219290
N110	N	0.226673	0.718777	0.280710
H111	H	-0.221298	0.229172	-0.229642
H112	H	0.278702	0.729172	0.270358
H113	H	-0.286129	0.230641	-0.161060
H114	H	0.213871	0.730641	0.338940
N115	N	-0.273370	0.433401	-0.433285
N116	N	0.226630	0.933401	0.066715
H117	H	-0.307738	0.464424	-0.464208
H118	H	0.192262	0.964424	0.035792
H119	H	-0.242909	0.472167	-0.401893
H120	H	0.257091	0.972167	0.098107
H121	H	-0.416129	0.412753	-0.412675
H122	H	0.083871	0.912753	0.087325
N123	N	-0.604829	0.251526	-0.251956
N124	N	-0.104829	0.751526	0.248044
H125	H	-0.639185	0.217126	-0.217669
H126	H	-0.139185	0.717126	0.282331
H127	H	-0.574415	0.215751	-0.286335
H128	H	-0.074415	0.715751	0.213665
N129	N	-0.604886	0.466170	-0.465925
N130	N	-0.104886	0.966170	0.034075
H131	H	-0.552853	0.460893	-0.460668
H132	H	-0.052853	0.960893	0.039332
H133	H	-0.617736	0.453064	-0.522904
H134	H	-0.117736	0.953064	-0.022904
H135	H	-0.747643	0.445499	-0.445330
H136	H	-0.247643	0.945499	0.054670
H137	H	-0.502900	0.405892	-0.405847
H138	H	-0.002900	0.905892	0.094153
