data_functionalizedCrystal
_audit_creation_method	'MofGen! by Chris Wilmer'
_symmetry_space_group_name_H-M	'P1'
_symmetry_Int_Tables_number	1
_symmetry_cell_setting	triclinic
loop_
_symmetry_equiv_pos_as_xyz
  x,y,z
_cell_length_a	12.837943
_cell_length_b	14.472311
_cell_length_c	12.837942
_cell_angle_alpha	90.009102
_cell_angle_beta	94.828940
_cell_angle_gamma	90.002445
loop_
_atom_site_label
_atom_site_type_symbol
_atom_site_fract_x
_atom_site_fract_y
_atom_site_fract_z
O1	O	1.402335	0.076824	0.272148
O2	O	1.099202	0.076829	0.258705
O3	O	1.244047	0.076821	0.113859
O4	O	1.257490	0.076832	0.416993
O5	O	1.244034	-0.076861	0.113838
O6	O	1.099189	-0.076853	0.258683
O7	O	1.402322	-0.076858	0.272127
Cu8	Cu	1.250754	-0.090888	0.265403
Cu9	Cu	1.250770	0.090859	0.265428
O10	O	1.257477	-0.076850	0.416972
C11	C	1.060126	-0.000011	0.254153
C12	C	0.943711	-0.000009	0.240608
N13	N	1.250751	-0.218719	0.265385
C14	C	0.718837	-0.000016	0.403437
C15	C	0.609454	-0.000015	0.390716
C16	C	0.615562	-0.000012	0.202445
C17	C	0.724944	-0.000014	0.215166
C18	C	0.776578	-0.000014	0.315666
C19	C	0.885962	-0.000009	0.328386
C20	C	0.892067	-0.000012	0.140116
C21	C	0.782685	-0.000011	0.127395
C22	C	1.250770	-0.592810	0.265421
C23	C	1.328581	-0.553620	0.188232
C24	C	1.328325	-0.446532	0.187894
C25	C	1.250761	-0.407219	0.265403
C26	C	1.139187	-0.446109	0.230759
C27	C	1.139638	-0.553231	0.230203
C28	C	1.283574	-0.553311	0.377409
C29	C	1.285981	-0.446183	0.376919
C30	C	1.250750	-0.302331	0.265395
C31	C	1.250774	-0.697698	0.265426
C32	C	1.441398	-0.000016	0.276679
C33	C	1.557813	-0.000012	0.290223
C34	C	1.239499	-0.000020	0.074780
C35	C	1.225954	-0.000018	-0.041635
N36	N	1.250780	0.218690	0.265438
C37	C	1.388784	-0.000001	-0.266510
C38	C	1.376062	0.000000	-0.375892
C39	C	1.187791	-0.000006	-0.369785
C40	C	1.200513	-0.000008	-0.260402
C41	C	1.301012	-0.000007	-0.208769
C42	C	1.313732	-0.000015	-0.099384
C43	C	1.125462	-0.000015	-0.093279
C44	C	1.112741	-0.000013	-0.202661
C45	C	1.262025	-0.000008	0.456051
C46	C	1.275569	-0.000003	0.572467
H47	H	0.928000	-0.000011	0.410218
Br48	Br	1.189212	-0.595556	0.473363
Br49	Br	0.788916	-0.000000	0.539824
Br50	Br	1.051410	0.000026	-0.439877
Br51	Br	1.495186	0.000014	-0.454253
Br52	Br	1.525171	-0.000029	-0.196430
H53	H	1.395564	-0.000018	-0.057346
Br54	Br	0.545469	-0.000028	0.066064
H55	H	1.368114	-0.420765	0.402957
H56	H	0.562446	-0.000020	0.462189
Br57	Br	0.712601	-0.000016	-0.008991
Br58	Br	1.093099	-0.401417	0.095524
H59	H	1.079440	-0.420645	0.285030
Br60	Br	0.976356	-0.000003	-0.272745
H61	H	1.053992	-0.000027	-0.046254
H62	H	0.939092	-0.000004	0.068646
H63	H	1.411420	-0.579375	0.210254
Br64	Br	1.292201	-0.598502	0.050886
Br65	Br	1.465976	-0.402700	0.224956
Br66	Br	1.291511	-0.403831	0.049750
Br67	Br	1.094197	-0.594900	0.093529
H68	H	1.079439	-0.579156	0.283725
H69	H	1.233808	-0.419420	0.437884
Br70	Br	1.417259	-0.598317	0.428452
