data_functionalizedCrystal
_audit_creation_method	'MofGen! by Chris Wilmer'
_symmetry_space_group_name_H-M	'P1'
_symmetry_Int_Tables_number	1
_symmetry_cell_setting	triclinic
loop_
_symmetry_equiv_pos_as_xyz
  x,y,z
_cell_length_a	19.077105
_cell_length_b	18.101395
_cell_length_c	19.077271
_cell_angle_alpha	87.673669
_cell_angle_beta	89.892926
_cell_angle_gamma	87.727498
loop_
_atom_site_label
_atom_site_type_symbol
_atom_site_fract_x
_atom_site_fract_y
_atom_site_fract_z
Zn1	Zn	1.058238	-0.321027	-0.440430
Zn2	Zn	1.062863	-0.450036	-0.322922
Zn3	Zn	0.945455	-0.321441	-0.318220
Zn4	Zn	0.940687	-0.440055	-0.435676
O5	O	1.001811	-0.383140	-0.379312
O6	O	1.157183	-0.342145	-0.428799
O7	O	1.051220	-0.437328	-0.223965
O8	O	0.960476	-0.217755	-0.334454
O9	O	1.160581	-0.436927	-0.342466
O10	O	1.043338	-0.217451	-0.424240
O11	O	0.964961	-0.342850	-0.220511
O12	O	0.846491	-0.333171	-0.329845
O13	O	0.952349	-0.419915	-0.534640
O14	O	0.842988	-0.420316	-0.416139
O15	O	1.038714	-0.332466	-0.538132
O16	O	1.046596	-0.552344	-0.337857
O17	O	0.956834	-0.545010	-0.420697
C18	C	0.819243	-0.375706	-0.371966
C19	C	0.741140	-0.372543	-0.368840
C20	C	1.001718	-0.575547	-0.379288
C21	C	1.001741	-0.657862	-0.379303
C22	C	0.702643	-0.416503	-0.412230
C23	C	0.629256	-0.413521	-0.409296
C24	C	0.594367	-0.366582	-0.362969
C25	C	0.632868	-0.322617	-0.319577
C26	C	0.706254	-0.325596	-0.322515
C27	C	0.375081	-0.352797	-0.349376
C28	C	0.301690	-0.349823	-0.346440
C29	C	0.298084	-0.440727	-0.436160
C30	C	0.371471	-0.443704	-0.439091
C31	C	0.409966	-0.399736	-0.395702
N32	N	0.519354	-0.363535	-0.359967
N33	N	0.484977	-0.402780	-0.398707
C34	C	1.001894	-0.956957	-0.379347
C35	C	0.945538	-0.921048	-0.431608
C36	C	0.945288	-0.835427	-0.431427
C37	C	1.001818	-0.808573	-0.379326
C38	C	0.984747	-0.842164	-0.304464
C39	C	0.984384	-0.927781	-0.304776
C40	C	1.075466	-0.927488	-0.401301
C41	C	1.074963	-0.841748	-0.402908
C42	C	1.001777	-0.724712	-0.379309
C43	C	1.001934	-1.040818	-0.379359
C44	C	1.185091	-0.390603	-0.386687
C45	C	1.263194	-0.393784	-0.389829
C46	C	0.994484	-0.375031	-0.562596
C47	C	0.991361	-0.371575	-0.640700
C48	C	1.001923	-0.189981	-0.379353
C49	C	1.001971	-0.107668	-0.379370
C50	C	0.968967	-0.346850	-1.080154
C51	C	0.971904	-0.350094	-1.006767
C52	C	1.018280	-0.400910	-0.971870
C53	C	1.061725	-0.448480	-1.010365
C54	C	1.058791	-0.445231	-1.083752
C55	C	1.031873	-0.415897	-0.752582
C56	C	1.034803	-0.419143	-0.679190
C57	C	0.944982	-0.320756	-0.675597
C58	C	0.942049	-0.317515	-0.748984
C59	C	0.985498	-0.365082	-0.787473
N60	N	1.021281	-0.404229	-0.896857
N61	N	0.982499	-0.361759	-0.862486
C62	C	1.009150	-0.391165	-0.196743
C63	C	1.012408	-0.394418	-0.118644
H64	H	0.731045	-0.454729	-0.449952
C65	C	0.409844	-0.495345	-0.490051
N66	N	0.438746	-0.534244	-0.528432
C67	C	0.917951	-0.290948	-1.118533
N68	N	0.879527	-0.248838	-1.147439
H69	H	1.094167	-0.483965	-1.115089
H70	H	0.597916	-0.449319	-0.444628
C71	C	0.913000	-0.811302	-0.279452
N72	N	0.858959	-0.788058	-0.260616
C73	C	1.097274	-0.954445	-0.474007
N74	N	1.113692	-0.974748	-0.528772
H75	H	1.087891	-0.819604	-0.458017
H76	H	0.266733	-0.476522	-0.471486
H77	H	0.904282	-0.276139	-0.777392
H78	H	0.273286	-0.311591	-0.308719
H79	H	1.118933	-0.823679	-0.367855
H80	H	1.117416	-0.951121	-0.363274
C81	C	0.594487	-0.270982	-0.268618
N82	N	0.565579	-0.232090	-0.230233
C83	C	0.417416	-0.304435	-0.301642
N84	N	0.449305	-0.268008	-0.265685
C85	C	0.959248	-0.804396	-0.506293
N86	N	0.969760	-0.781027	-0.562686
H87	H	0.737596	-0.289794	-0.287186
C88	C	1.112739	-0.504378	-0.971977
N89	N	1.151161	-0.546484	-0.943063
C90	C	0.924114	-0.297768	-0.964431
N91	N	0.888115	-0.258353	-0.932544
H92	H	0.909610	-0.282029	-0.644251
C93	C	0.959318	-0.946223	-0.506707
N94	N	0.969696	-0.965192	-0.563274
C95	C	1.085808	-0.475060	-0.640805
N96	N	1.124216	-0.517182	-0.611893
H97	H	0.891274	-0.940954	-0.417002
C98	C	0.871520	-0.805551	-0.411515
N99	N	0.815951	-0.783048	-0.396533
H100	H	1.067250	-0.454631	-0.783911
H101	H	0.930692	-0.946322	-0.286525
C102	C	1.037641	-0.960334	-0.250155
N103	N	1.077749	-0.984850	-0.209011
H104	H	1.024633	-0.825179	-0.264334
