data_functionalizedCrystal
_audit_creation_method	'MofGen! by Chris Wilmer'
_symmetry_space_group_name_H-M	'P1'
_symmetry_Int_Tables_number	1
_symmetry_cell_setting	triclinic
loop_
_symmetry_equiv_pos_as_xyz
  x,y,z
_cell_length_a	16.120530
_cell_length_b	16.120484
_cell_length_c	16.120297
_cell_angle_alpha	84.385569
_cell_angle_beta	89.871860
_cell_angle_gamma	90.167327
loop_
_atom_site_label
_atom_site_type_symbol
_atom_site_fract_x
_atom_site_fract_y
_atom_site_fract_z
Zn1	Zn	1.224987	-0.422264	0.554813
Zn2	Zn	1.474987	-0.172264	0.804813
Zn3	Zn	1.724987	0.077736	1.054813
Zn4	Zn	1.974987	0.327736	1.304813
Zn5	Zn	1.224883	-0.554948	0.422118
Zn6	Zn	1.474883	-0.304948	0.672118
Zn7	Zn	1.724883	-0.054948	0.922118
Zn8	Zn	1.974883	0.195052	1.172118
Zn9	Zn	1.093726	-0.408180	0.408056
Zn10	Zn	1.343726	-0.158180	0.658056
Zn11	Zn	1.593726	0.091820	0.908056
Zn12	Zn	1.843726	0.341820	1.158056
Zn13	Zn	1.078880	-0.554181	0.554051
Zn14	Zn	1.328880	-0.304181	0.804051
Zn15	Zn	1.578880	-0.054181	1.054051
Zn16	Zn	1.828880	0.195819	1.304051
O17	O	1.155619	-0.484893	0.484760
O18	O	1.405619	-0.234893	0.734760
O19	O	1.655619	0.015107	0.984760
O20	O	1.905619	0.265107	1.234760
O21	O	1.341009	-0.446081	0.543415
O22	O	1.591009	-0.196081	0.793415
O23	O	1.841009	0.053919	1.043415
O24	O	2.091009	0.303919	1.293415
O25	O	1.213654	-0.529906	0.303620
O26	O	1.463654	-0.279906	0.553620
O27	O	1.713654	-0.029906	0.803620
O28	O	1.963654	0.220094	1.053620
O29	O	1.117395	-0.293418	0.421958
O30	O	1.367395	-0.043418	0.671958
O31	O	1.617395	0.206582	0.921958
O32	O	1.867395	0.456582	1.171958
O33	O	1.340932	-0.543563	0.445925
O34	O	1.590932	-0.293563	0.695925
O35	O	1.840932	-0.043563	0.945925
O36	O	2.090932	0.206437	1.195925
O37	O	1.213832	-0.303765	0.529780
O38	O	1.463832	-0.053765	0.779780
O39	O	1.713832	0.196235	1.029780
O40	O	1.963832	0.446235	1.279780
O41	O	1.117294	-0.422076	0.293289
O42	O	1.367294	-0.172076	0.543289
O43	O	1.617294	0.077924	0.793289
O44	O	1.867294	0.327924	1.043289
O45	O	0.975721	-0.421332	0.421218
O46	O	1.225721	-0.171332	0.671218
O47	O	1.475721	0.078668	0.921218
O48	O	1.725721	0.328668	1.171218
O49	O	1.092092	-0.542255	0.670785
O50	O	1.342092	-0.292255	0.920785
O51	O	1.592092	-0.042255	1.170785
O52	O	1.842092	0.207745	1.420785
O53	O	0.964814	-0.528598	0.528480
O54	O	1.214814	-0.278598	0.778480
O55	O	1.464814	-0.028598	1.028480
O56	O	1.714814	0.221402	1.278480
O57	O	1.199436	-0.445336	0.671345
O58	O	1.449436	-0.195336	0.921345
O59	O	1.699436	0.054664	1.171345
O60	O	1.949436	0.304664	1.421345
O61	O	1.199258	-0.671477	0.445185
O62	O	1.449258	-0.421477	0.695185
O63	O	1.699258	-0.171477	0.945185
O64	O	1.949258	0.078523	1.195185
O65	O	1.091990	-0.670913	0.542116
O66	O	1.341990	-0.420913	0.792116
O67	O	1.591990	-0.170913	1.042116
O68	O	1.841990	0.079087	1.292116
C69	C	0.940181	-0.473354	0.473241
C70	C	1.190181	-0.223354	0.723241
C71	C	1.440181	0.026646	0.973241
C72	C	1.690181	0.276646	1.223241
C73	C	0.848013	-0.468438	0.468334
C74	C	1.098013	-0.218438	0.718334
C75	C	1.348013	0.031562	0.968334
C76	C	1.598013	0.281562	1.218334
C77	C	0.679262	-0.459445	0.459381
C78	C	0.929262	-0.209445	0.709381
C79	C	1.179262	0.040555	0.959381
C80	C	1.429262	0.290555	1.209381
C81	C	0.632810	-0.510407	0.510202
C82	C	0.882810	-0.260407	0.760202
C83	C	1.132810	-0.010407	1.010202
C84	C	1.382810	0.239593	1.260202
C85	C	0.538911	-0.505403	0.505220
C86	C	0.788911	-0.255403	0.755220
C87	C	1.038911	-0.005403	1.005220
C88	C	1.288911	0.244597	1.255220
C89	C	0.773169	-0.464448	0.464361
C90	C	1.023169	-0.214448	0.714361
C91	C	1.273169	0.035552	0.964361
C92	C	1.523169	0.285552	1.214361
C93	C	1.144023	-0.701438	0.495113
C94	C	1.394023	-0.451438	0.745113
C95	C	1.644023	-0.201438	0.995113
C96	C	1.894023	0.048562	1.245113
C97	C	1.139137	-0.794083	0.499574
C98	C	1.389137	-0.544083	0.749574
C99	C	1.639137	-0.294083	0.999574
C100	C	1.889137	-0.044083	1.249574
C101	C	1.130220	-0.963706	0.507736
C102	C	1.380220	-0.713706	0.757736
C103	C	1.630220	-0.463706	1.007736
C104	C	1.880220	-0.213706	1.257736
C105	C	1.181166	-1.005249	0.461804
C106	C	1.431166	-0.755249	0.711804
C107	C	1.681166	-0.505249	0.961804
C108	C	1.931166	-0.255249	1.211804
C109	C	1.176204	-1.099633	0.466346
C110	C	1.426204	-0.849633	0.716346
C111	C	1.676204	-0.599633	0.966346
C112	C	1.926204	-0.349633	1.216346
C113	C	1.135180	-0.869313	0.503196
C114	C	1.385180	-0.619313	0.753196
C115	C	1.635180	-0.369313	1.003196
C116	C	1.885180	-0.119313	1.253196
C117	C	1.371899	-0.496479	0.496324
C118	C	1.621899	-0.246479	0.746324
C119	C	1.871899	0.003521	0.996324
C120	C	2.121899	0.253521	1.246324
C121	C	1.464064	-0.501416	0.501252
C122	C	1.714064	-0.251416	0.751252
C123	C	1.964064	-0.001416	1.001252
C124	C	2.214064	0.248584	1.251252
C125	C	1.144119	-0.495281	0.702152
C126	C	1.394119	-0.245281	0.952152
C127	C	1.644119	0.004719	1.202152
C128	C	1.894119	0.254719	1.452152
C129	C	1.139219	-0.499708	0.794791
C130	C	1.389219	-0.249708	1.044791
C131	C	1.639219	0.000292	1.294791
C132	C	1.889219	0.250292	1.544791
C133	C	1.167282	-0.267505	0.474385
C134	C	1.417282	-0.017505	0.724385
C135	C	1.667282	0.232495	0.974385
C136	C	1.917282	0.482495	1.224385
C137	C	1.172251	-0.174867	0.469964
C138	C	1.422251	0.075133	0.719964
C139	C	1.672251	0.325133	0.969964
C140	C	1.922251	0.575133	1.219964
C141	C	1.167125	-0.474489	0.268213
C142	C	1.417125	-0.224489	0.518213
C143	C	1.667125	0.025511	0.768213
C144	C	1.917125	0.275511	1.018213
C145	C	1.172198	-0.469836	0.175571
C146	C	1.422198	-0.219836	0.425571
C147	C	1.672198	0.030164	0.675571
C148	C	1.922198	0.280164	0.925571
C149	C	1.130243	-0.507770	0.964403
C150	C	1.380243	-0.257770	1.214403
C151	C	1.630243	-0.007770	1.464403
C152	C	1.880243	0.242230	1.714403
C153	C	1.181172	-0.461776	1.005965
C154	C	1.431172	-0.211776	1.255965
C155	C	1.681172	0.038224	1.505965
C156	C	1.931172	0.288224	1.755965
C157	C	1.176177	-0.466262	1.100342
C158	C	1.426177	-0.216262	1.350342
C159	C	1.676177	0.033738	1.600342
C160	C	1.926177	0.283738	1.850342
C161	C	1.135236	-0.503285	0.870017
C162	C	1.385236	-0.253285	1.120017
C163	C	1.635236	-0.003285	1.370017
C164	C	1.885236	0.246715	1.620017
H165	H	1.228508	-0.969931	0.419069
H166	H	1.478508	-0.719931	0.669069
H167	H	1.728508	-0.469931	0.919069
H168	H	1.978508	-0.219931	1.169069
C169	C	0.760653	-0.567026	0.566634
C170	C	1.010653	-0.317026	0.816634
C171	C	1.260653	-0.067026	1.066634
C172	C	1.510653	0.182974	1.316634
C173	C	0.674319	-0.574386	0.573985
C174	C	0.924319	-0.324386	0.823985
C175	C	1.174319	-0.074386	1.073985
C176	C	1.424319	0.175614	1.323985
H177	H	0.786279	-0.606527	0.606005
H178	H	1.036279	-0.356527	0.856005
H179	H	1.286279	-0.106527	1.106005
H180	H	1.536279	0.143473	1.356005
H181	H	0.777144	-0.512380	0.576989
H182	H	1.027144	-0.262380	0.826989
H183	H	1.277144	-0.012380	1.076989
H184	H	1.527144	0.237620	1.326989
H185	H	0.777088	-0.577194	0.511923
H186	H	1.027088	-0.327194	0.761923
H187	H	1.277088	-0.077194	1.011923
H188	H	1.527088	0.172806	1.261923
H189	H	0.657883	-0.564211	0.628694
H190	H	0.907883	-0.314211	0.878694
H191	H	1.157883	-0.064211	1.128694
H192	H	1.407883	0.185789	1.378694
H193	H	0.657822	-0.629045	0.563636
H194	H	0.907822	-0.379045	0.813636
H195	H	1.157822	-0.129045	1.063636
H196	H	1.407822	0.120955	1.313636
H197	H	0.648511	-0.412060	0.412135
H198	H	0.898511	-0.162060	0.662135
H199	H	1.148511	0.087940	0.912135
H200	H	1.398511	0.337940	1.162135
H201	H	1.082881	-0.999022	0.550467
H202	H	1.332881	-0.749022	0.800467
H203	H	1.582881	-0.499022	1.050467
H204	H	1.832881	-0.249022	1.300467
H205	H	1.082894	-0.550512	0.999698
H206	H	1.332894	-0.300512	1.249698
H207	H	1.582894	-0.050512	1.499698
H208	H	1.832894	0.199488	1.749698
H209	H	1.228524	-0.419031	0.970668
H210	H	1.478524	-0.169031	1.220668
H211	H	1.728524	0.080969	1.470668
H212	H	1.978524	0.330969	1.720668
