data_functionalizedCrystal
_audit_creation_method	'MofGen! by Chris Wilmer'
_symmetry_space_group_name_H-M	'P1'
_symmetry_Int_Tables_number	1
_symmetry_cell_setting	triclinic
loop_
_symmetry_equiv_pos_as_xyz
  x,y,z
_cell_length_a	18.215407
_cell_length_b	18.101395
_cell_length_c	18.215398
_cell_angle_alpha	89.976098
_cell_angle_beta	89.980536
_cell_angle_gamma	90.031552
loop_
_atom_site_label
_atom_site_type_symbol
_atom_site_fract_x
_atom_site_fract_y
_atom_site_fract_z
Zn1	Zn	1.125037	-0.294847	-0.416124
Zn2	Zn	1.375037	-0.044847	-0.166124
Zn3	Zn	1.625037	0.205153	0.083876
Zn4	Zn	1.875037	0.455153	0.333876
Zn5	Zn	1.124933	-0.418688	-0.293061
Zn6	Zn	1.374933	-0.168688	-0.043061
Zn7	Zn	1.624933	0.081312	0.206939
Zn8	Zn	1.874933	0.331312	0.456939
Zn9	Zn	1.001971	-0.294866	-0.293071
Zn10	Zn	1.251971	-0.044866	-0.043071
Zn11	Zn	1.501971	0.205134	0.206929
Zn12	Zn	1.751971	0.455134	0.456929
Zn13	Zn	1.001923	-0.418652	-0.416086
Zn14	Zn	1.251923	-0.168652	-0.166086
Zn15	Zn	1.501923	0.081348	0.083914
Zn16	Zn	1.751923	0.331348	0.333914
O17	O	1.063466	-0.356763	-0.354585
O18	O	1.313466	-0.106763	-0.104585
O19	O	1.563466	0.143237	0.145415
O20	O	1.813466	0.393237	0.395415
O21	O	1.228008	-0.311282	-0.399811
O22	O	1.478008	-0.061282	-0.149811
O23	O	1.728008	0.188718	0.100189
O24	O	1.978008	0.438718	0.350189
O25	O	1.108599	-0.402285	-0.190078
O26	O	1.358599	-0.152285	0.059922
O27	O	1.608599	0.097715	0.309922
O28	O	1.858599	0.347715	0.559922
O29	O	1.018360	-0.191230	-0.309414
O30	O	1.268360	0.058770	-0.059414
O31	O	1.518360	0.308770	0.190586
O32	O	1.768360	0.558770	0.440586
O33	O	1.227931	-0.402267	-0.309397
O34	O	1.477931	-0.152267	-0.059397
O35	O	1.727931	0.097733	0.190603
O36	O	1.977931	0.347733	0.440603
O37	O	1.108776	-0.191216	-0.399821
O38	O	1.358776	0.058784	-0.149821
O39	O	1.608776	0.308784	0.100179
O40	O	1.858776	0.558784	0.350179
O41	O	1.018259	-0.311314	-0.190085
O42	O	1.268259	-0.061314	0.059915
O43	O	1.518259	0.188686	0.309915
O44	O	1.768259	0.438686	0.559915
O45	O	0.898980	-0.311279	-0.309378
O46	O	1.148980	-0.061279	-0.059378
O47	O	1.398980	0.188721	0.190622
O48	O	1.648980	0.438721	0.440622
O49	O	1.018277	-0.402206	-0.519075
O50	O	1.268277	-0.152206	-0.269075
O51	O	1.518277	0.097794	-0.019075
O52	O	1.768277	0.347794	0.230925
O53	O	0.898945	-0.402224	-0.399756
O54	O	1.148945	-0.152224	-0.149756
O55	O	1.398945	0.097776	0.100244
O56	O	1.648945	0.347776	0.350244
O57	O	1.108729	-0.311247	-0.519103
O58	O	1.358729	-0.061247	-0.269103
O59	O	1.608729	0.188753	-0.019103
O60	O	1.858729	0.438753	0.230897
O61	O	1.108552	-0.522316	-0.309360
O62	O	1.358552	-0.272316	-0.059360
O63	O	1.608552	-0.022316	0.190640
O64	O	1.858552	0.227684	0.440640
O65	O	1.018176	-0.522290	-0.399746
O66	O	1.268176	-0.272290	-0.149746
O67	O	1.518176	-0.022290	0.100254
O68	O	1.768176	0.227710	0.350254
C69	C	0.872260	-0.356750	-0.354564
C70	C	1.122260	-0.106750	-0.104564
C71	C	1.372260	0.143250	0.145436
C72	C	1.622260	0.393250	0.395436
C73	C	0.790461	-0.356763	-0.354572
C74	C	1.040461	-0.106763	-0.104572
C75	C	1.290461	0.143237	0.145428
C76	C	1.540461	0.393237	0.395428
C77	C	0.602268	-0.404192	-0.401573
C78	C	0.852268	-0.154192	-0.151573
C79	C	1.102268	0.095808	0.098427
C80	C	1.352268	0.345808	0.348427
C81	C	0.525409	-0.404195	-0.401583
C82	C	0.775409	-0.154195	-0.151583
C83	C	1.025409	0.095805	0.098417
C84	C	1.275409	0.345805	0.348417
C85	C	0.525416	-0.309347	-0.307613
C86	C	0.775416	-0.059347	-0.057613
C87	C	1.025416	0.190653	0.192387
C88	C	1.275416	0.440653	0.442387
C89	C	0.602274	-0.309342	-0.307608
C90	C	0.852274	-0.059342	-0.057608
C91	C	1.102274	0.190658	0.192392
C92	C	1.352274	0.440658	0.442392
C93	C	0.640697	-0.356768	-0.354587
C94	C	0.890697	-0.106768	-0.104587
C95	C	1.140697	0.143232	0.145413
C96	C	1.390697	0.393232	0.395413
C97	C	0.486981	-0.356776	-0.354601
C98	C	0.736981	-0.106776	-0.104601
C99	C	0.986981	0.143224	0.145399
C100	C	1.236981	0.393224	0.395399
C101	C	0.403648	-0.356778	-0.354611
C102	C	0.653648	-0.106778	-0.104611
C103	C	0.903648	0.143222	0.145389
C104	C	1.153648	0.393222	0.395389
C105	C	0.724036	-0.356766	-0.354579
C106	C	0.974036	-0.106766	-0.104579
C107	C	1.224036	0.143234	0.145421
C108	C	1.474036	0.393234	0.395421
C109	C	1.063368	-0.549174	-0.354564
C110	C	1.313368	-0.299174	-0.104564
C111	C	1.563368	-0.049174	0.145436
C112	C	1.813368	0.200826	0.395436
C113	C	1.063393	-0.631488	-0.354579
C114	C	1.313393	-0.381488	-0.104579
C115	C	1.563393	-0.131488	0.145421
C116	C	1.813393	0.118512	0.395421
C117	C	1.063554	-0.930579	-0.354619
C118	C	1.313554	-0.680579	-0.104619
C119	C	1.563554	-0.430579	0.145381
C120	C	1.813554	-0.180579	0.395381
C121	C	1.006824	-0.899268	-0.411628
C122	C	1.256824	-0.649268	-0.161628
C123	C	1.506824	-0.399268	0.088372
C124	C	1.756824	-0.149268	0.338372
C125	C	1.006555	-0.813650	-0.411450
C126	C	1.256555	-0.563650	-0.161450
C127	C	1.506555	-0.313650	0.088550
C128	C	1.756555	-0.063650	0.338550
C129	C	1.063474	-0.782196	-0.354600
C130	C	1.313474	-0.532196	-0.104600
C131	C	1.563474	-0.282196	0.145400
C132	C	1.813474	-0.032196	0.395400
C133	C	1.042477	-0.813343	-0.277038
C134	C	1.292477	-0.563343	-0.027038
C135	C	1.542477	-0.313343	0.222962
C136	C	1.792477	-0.063343	0.472962
C137	C	1.042111	-0.898988	-0.277380
C138	C	1.292111	-0.648988	-0.027380
C139	C	1.542111	-0.398988	0.222620
C140	C	1.792111	-0.148988	0.472620
C141	C	1.141406	-0.898923	-0.374487
C142	C	1.391406	-0.648923	-0.124487
C143	C	1.641406	-0.398923	0.125513
C144	C	1.891406	-0.148923	0.375513
C145	C	1.140948	-0.813272	-0.376188
C146	C	1.390948	-0.563272	-0.126188
C147	C	1.640948	-0.313272	0.123812
C148	C	1.890948	-0.063272	0.373812
C149	C	1.063430	-0.698337	-0.354584
C150	C	1.313430	-0.448337	-0.104584
C151	C	1.563430	-0.198337	0.145416
C152	C	1.813430	0.051663	0.395416
C153	C	1.063596	-1.014438	-0.354629
C154	C	1.313596	-0.764438	-0.104629
C155	C	1.563596	-0.514438	0.145371
C156	C	1.813596	-0.264438	0.395371
C157	C	1.255419	-0.356776	-0.354607
C158	C	1.505419	-0.106776	-0.104607
C159	C	1.755419	0.143224	0.145393
C160	C	2.005419	0.393224	0.395393
C161	C	1.337218	-0.356782	-0.354616
C162	C	1.587218	-0.106782	-0.104616
C163	C	1.837218	0.143218	0.145384
C164	C	2.087218	0.393218	0.395384
C165	C	1.063510	-0.356721	-0.546538
C166	C	1.313510	-0.106721	-0.296538
C167	C	1.563510	0.143279	-0.046538
C168	C	1.813510	0.393279	0.203462
C169	C	1.063528	-0.356702	-0.628337
C170	C	1.313528	-0.106702	-0.378337
C171	C	1.563528	0.143298	-0.128337
C172	C	1.813528	0.393298	0.121663
C173	C	1.063585	-0.163601	-0.354623
C174	C	1.313585	0.086399	-0.104623
C175	C	1.563585	0.336399	0.145377
C176	C	1.813585	0.586399	0.395377
C177	C	1.063636	-0.081287	-0.354639
C178	C	1.313636	0.168713	-0.104639
C179	C	1.563636	0.418713	0.145361
C180	C	1.813636	0.668713	0.395361
C181	C	1.110602	-0.403980	-0.893395
C182	C	1.360602	-0.153980	-0.643395
C183	C	1.610602	0.096020	-0.393395
C184	C	1.860602	0.346020	-0.143395
C185	C	1.110591	-0.404006	-0.816536
C186	C	1.360591	-0.154006	-0.566536
C187	C	1.610591	0.095994	-0.316536
C188	C	1.860591	0.345994	-0.066536
C189	C	1.016510	-0.309282	-0.816528
C190	C	1.266510	-0.059282	-0.566528
C191	C	1.516510	0.190718	-0.316528
C192	C	1.766510	0.440718	-0.066528
C193	C	1.016518	-0.309261	-0.893385
C194	C	1.266518	-0.059261	-0.643385
C195	C	1.516518	0.190739	-0.393385
C196	C	1.766518	0.440739	-0.143385
C197	C	1.063568	-0.356608	-0.931817
C198	C	1.313568	-0.106608	-0.681817
C199	C	1.563568	0.143392	-0.431817
C200	C	1.813568	0.393392	-0.181817
C201	C	1.063549	-0.356655	-0.778101
C202	C	1.313549	-0.106655	-0.528101
C203	C	1.563549	0.143345	-0.278101
C204	C	1.813549	0.393345	-0.028101
C205	C	1.063536	-0.356683	-0.694767
C206	C	1.313536	-0.106683	-0.444767
C207	C	1.563536	0.143317	-0.194767
C208	C	1.813536	0.393317	0.055233
C209	C	1.063580	-0.356582	-1.015156
C210	C	1.313580	-0.106582	-0.765156
C211	C	1.563580	0.143418	-0.515156
C212	C	1.813580	0.393418	-0.265156
C213	C	1.063465	-0.356752	-0.163379
C214	C	1.313465	-0.106752	0.086621
C215	C	1.563465	0.143248	0.336621
C216	C	1.813465	0.393248	0.586621
C217	C	1.063589	-0.356561	-0.081580
C218	C	1.313589	-0.106561	0.168420
C219	C	1.563589	0.143439	0.418420
C220	C	1.813589	0.393439	0.668420
H221	H	0.633564	-0.270719	-0.269346
H222	H	0.883564	-0.020719	-0.019346
H223	H	1.133564	0.229281	0.230654
H224	H	1.383564	0.479281	0.480654
Cl225	Cl	0.955542	-0.780332	-0.250586
Cl226	Cl	1.205542	-0.530332	-0.000586
Cl227	Cl	1.455542	-0.280332	0.249414
Cl228	Cl	1.705542	-0.030332	0.499414
Cl229	Cl	1.026833	-0.781130	-0.500243
Cl230	Cl	1.276833	-0.531130	-0.250243
Cl231	Cl	1.526833	-0.281130	-0.000243
Cl232	Cl	1.776833	-0.031130	0.249757
Cl233	Cl	1.209661	-0.780204	-0.316758
Cl234	Cl	1.459661	-0.530204	-0.066758
Cl235	Cl	1.709661	-0.280204	0.183242
Cl236	Cl	1.959661	-0.030204	0.433242
H237	H	1.081638	-0.919703	-0.233455
H238	H	1.331638	-0.669703	0.016545
H239	H	1.581638	-0.419703	0.266545
H240	H	1.831638	-0.169703	0.516545
Cl241	Cl	1.169720	-0.463562	-0.768238
Cl242	Cl	1.419720	-0.213562	-0.518238
Cl243	Cl	1.669720	0.036438	-0.268238
Cl244	Cl	1.919720	0.286438	-0.018238
Cl245	Cl	0.957374	-0.249714	-0.941690
Cl246	Cl	1.207374	0.000286	-0.691690
Cl247	Cl	1.457374	0.250286	-0.441690
Cl248	Cl	1.707374	0.500286	-0.191690
Cl249	Cl	1.026900	-0.931000	-0.500711
Cl250	Cl	1.276900	-0.681000	-0.250711
Cl251	Cl	1.526900	-0.431000	-0.000711
Cl252	Cl	1.776900	-0.181000	0.249289
H253	H	0.494123	-0.442811	-0.439845
H254	H	0.744123	-0.192811	-0.189845
H255	H	0.994123	0.057189	0.060155
H256	H	1.244123	0.307189	0.310155
H257	H	0.949470	-0.920854	-0.398633
H258	H	1.199470	-0.670854	-0.148633
H259	H	1.449470	-0.420854	0.101367
H260	H	1.699470	-0.170854	0.351367
Cl261	Cl	0.477107	-0.249730	-0.248555
Cl262	Cl	0.727107	0.000270	0.001445
Cl263	Cl	0.977107	0.250270	0.251445
Cl264	Cl	1.227107	0.500270	0.501445
H265	H	0.948849	-0.793226	-0.398289
H266	H	1.198849	-0.543226	-0.148289
H267	H	1.448849	-0.293226	0.101711
H268	H	1.698849	-0.043226	0.351711
H269	H	1.148912	-0.442534	-0.924684
H270	H	1.398912	-0.192534	-0.674684
H271	H	1.648912	0.057466	-0.424684
H272	H	1.898912	0.307466	-0.174684
H273	H	0.985202	-0.919031	-0.260549
H274	H	1.235202	-0.669031	-0.010549
H275	H	1.485202	-0.419031	0.239451
H276	H	1.735202	-0.169031	0.489451
Cl277	Cl	0.957382	-0.249745	-0.768208
Cl278	Cl	1.207382	0.000255	-0.518208
Cl279	Cl	1.457382	0.250255	-0.268208
Cl280	Cl	1.707382	0.500255	-0.018208
Cl281	Cl	1.104261	-0.781891	-0.209666
Cl282	Cl	1.354261	-0.531891	0.040334
Cl283	Cl	1.604261	-0.281891	0.290334
Cl284	Cl	1.854261	-0.031891	0.540334
H285	H	0.633550	-0.442809	-0.439829
H286	H	0.883550	-0.192809	-0.189829
H287	H	1.133550	0.057191	0.060171
H288	H	1.383550	0.307191	0.310171
H289	H	1.183672	-0.919170	-0.332965
H290	H	1.433672	-0.669170	-0.082965
H291	H	1.683672	-0.419170	0.167035
H292	H	1.933672	-0.169170	0.417035
H293	H	1.160549	-0.920474	-0.430081
H294	H	1.410549	-0.670474	-0.180081
H295	H	1.660549	-0.420474	0.069919
H296	H	1.910549	-0.170474	0.319919
H297	H	1.156782	-0.792912	-0.433269
H298	H	1.406782	-0.542912	-0.183269
H299	H	1.656782	-0.292912	0.066731
H300	H	1.906782	-0.042912	0.316731
