data_functionalizedCrystal
_audit_creation_method	'MofGen! by Chris Wilmer'
_symmetry_space_group_name_H-M	'P1'
_symmetry_Int_Tables_number	1
_symmetry_cell_setting	triclinic
loop_
_symmetry_equiv_pos_as_xyz
  x,y,z
_cell_length_a	9.065215
_cell_length_b	16.109304
_cell_length_c	8.140239
_cell_angle_alpha	89.999293
_cell_angle_beta	89.997810
_cell_angle_gamma	84.238668
loop_
_atom_site_label
_atom_site_type_symbol
_atom_site_fract_x
_atom_site_fract_y
_atom_site_fract_z
O1	O	1.957453	0.121893	-0.136583
O2	O	2.457453	0.621893	0.363417
O3	O	1.527926	0.131895	-0.136589
O4	O	2.027926	0.631895	0.363411
O5	O	1.754487	0.005954	-0.136587
O6	O	2.254487	0.505954	0.363413
O7	O	1.730892	0.247835	-0.136585
O8	O	2.230892	0.747835	0.363415
O9	O	1.754475	0.005953	0.136640
O10	O	2.254475	0.505953	0.636640
O11	O	1.527914	0.131894	0.136638
O12	O	2.027914	0.631894	0.636638
O13	O	1.957441	0.121892	0.136644
O14	O	2.457441	0.621892	0.636644
Zn15	Zn	1.742675	0.126893	0.180022
Zn16	Zn	2.242675	0.626893	0.680022
Zn17	Zn	1.742692	0.126895	-0.179967
Zn18	Zn	2.242692	0.626895	0.320033
O19	O	1.730880	0.247833	0.136642
O20	O	2.230880	0.747833	0.636642
C21	C	1.472956	0.130934	0.000023
C22	C	1.972956	0.630934	0.500023
C23	C	1.309183	0.128061	0.000020
C24	C	1.809183	0.628061	0.500020
C25	C	1.753524	-0.025029	0.000023
C26	C	2.253524	0.474971	0.500023
C27	C	1.750657	-0.117346	0.000012
C28	C	2.250657	0.382654	0.500012
C29	C	1.744038	-0.329734	-0.148918
C30	C	2.244038	0.170266	0.351082
C31	C	1.741330	-0.416474	-0.148917
C32	C	2.241330	0.083526	0.351083
C33	C	1.741324	-0.416473	0.148970
C34	C	2.241324	0.083527	0.648970
C35	C	1.744022	-0.329733	0.148967
C36	C	2.244022	0.170267	0.648967
C37	C	1.745386	-0.286366	0.000018
C38	C	2.245386	0.213634	0.500018
C39	C	1.739981	-0.459847	0.000023
C40	C	2.239981	0.040153	0.500023
C41	C	1.737045	-0.553895	0.000025
C42	C	2.237045	-0.053895	0.500025
C43	C	1.748320	-0.192311	0.000015
C44	C	2.248320	0.307689	0.500015
C45	C	2.012410	0.122853	0.000028
C46	C	2.512410	0.622853	0.500028
C47	C	2.176184	0.125726	0.000020
C48	C	2.676184	0.625726	0.500020
C49	C	1.731843	0.278816	0.000028
C50	C	2.231843	0.778816	0.500028
C51	C	1.734710	0.371133	0.000029
C52	C	2.234710	0.871133	0.500029
N53	N	1.742675	0.126891	0.425704
N54	N	2.242675	0.626891	0.925704
N55	N	1.742704	0.126890	-0.425649
N56	N	2.242704	0.626890	0.074351
H57	H	1.740230	-0.451780	-0.270196
H58	H	2.240230	0.048220	0.229804
C59	C	1.745545	-0.282500	-0.310458
C60	C	2.245545	0.217500	0.189542
C61	C	1.748219	-0.197255	-0.278592
C62	C	2.248219	0.302745	0.221408
C63	C	1.749606	-0.153721	-0.427365
C64	C	2.249606	0.346279	0.072635
H65	H	1.659136	-0.290931	-0.371743
H66	H	2.159136	0.209069	0.128257
H67	H	1.831106	-0.302356	-0.371701
H68	H	2.331106	0.197644	0.128299
H69	H	1.662667	-0.177406	-0.217374
H70	H	2.162667	0.322594	0.282626
H71	H	1.834623	-0.188799	-0.217331
H72	H	2.334623	0.311201	0.282669
H73	H	1.835167	-0.173576	-0.488608
H74	H	2.335167	0.326424	0.011392
H75	H	1.663196	-0.162158	-0.488639
H76	H	2.163196	0.337842	0.011361
H77	H	1.751435	-0.095879	-0.405764
H78	H	2.251435	0.404121	0.094236
C79	C	1.739937	-0.463716	0.310509
C80	C	2.239937	0.036284	0.810509
C81	C	1.737334	-0.548965	0.278639
C82	C	2.237334	-0.048965	0.778639
C83	C	1.736085	-0.592510	0.427410
C84	C	2.236085	-0.092510	0.927410
H85	H	1.654422	-0.443912	0.371839
H86	H	2.154422	0.056088	0.871839
H87	H	1.826395	-0.455240	0.371708
H88	H	2.326395	0.044760	0.871708
H89	H	1.650885	-0.557435	0.217466
H90	H	2.150885	-0.057435	0.717466
H91	H	1.822842	-0.568793	0.217333
H92	H	2.322842	-0.068793	0.717333
H93	H	1.822542	-0.584035	0.488609
H94	H	2.322542	-0.084035	0.988609
H95	H	1.650569	-0.572700	0.488729
H96	H	2.150569	-0.072700	0.988729
H97	H	1.734332	-0.650357	0.405807
H98	H	2.234332	-0.150357	0.905807
H99	H	1.745111	-0.294422	0.270256
H100	H	2.245111	0.205578	0.770256
