data_functionalizedCrystal
_audit_creation_method	'MofGen! by Chris Wilmer'
_symmetry_space_group_name_H-M	'P1'
_symmetry_Int_Tables_number	1
_symmetry_cell_setting	triclinic
loop_
_symmetry_equiv_pos_as_xyz
  x,y,z
_cell_length_a	18.215405
_cell_length_b	18.215407
_cell_length_c	18.215399
_cell_angle_alpha	89.983140
_cell_angle_beta	90.026474
_cell_angle_gamma	89.981845
loop_
_atom_site_label
_atom_site_type_symbol
_atom_site_fract_x
_atom_site_fract_y
_atom_site_fract_z
Zn1	Zn	-0.293068	-1.125087	0.416065
Zn2	Zn	0.206932	-0.625087	0.916065
Zn3	Zn	-0.416139	-1.125001	0.293002
Zn4	Zn	0.083861	-0.625001	0.793002
Zn5	Zn	-0.293083	-1.002019	0.293019
Zn6	Zn	0.206917	-0.502019	0.793019
Zn7	Zn	-0.416089	-1.001991	0.416033
Zn8	Zn	0.083911	-0.501991	0.916033
O9	O	-0.354595	-1.063524	0.354530
O10	O	0.145405	-0.563524	0.854530
O11	O	-0.309408	-1.228059	0.399747
O12	O	0.190592	-0.728059	0.899747
O13	O	-0.399843	-1.108663	0.190020
O14	O	0.100157	-0.608663	0.690020
O15	O	-0.190096	-1.018392	0.309361
O16	O	0.309904	-0.518392	0.809361
O17	O	-0.399828	-1.227997	0.309333
O18	O	0.100172	-0.727997	0.809333
O19	O	-0.190085	-1.108809	0.399763
O20	O	0.309915	-0.608809	0.899763
O21	O	-0.309433	-1.018309	0.190032
O22	O	0.190567	-0.518309	0.690032
O23	O	-0.309385	-0.899031	0.309331
O24	O	0.190615	-0.399031	0.809331
O25	O	-0.399743	-1.018344	0.519022
O26	O	0.100257	-0.518344	1.019022
O27	O	-0.399757	-0.899011	0.399709
O28	O	0.100243	-0.399011	0.899709
O29	O	-0.309360	-1.108782	0.519045
O30	O	0.190640	-0.608782	1.019045
O31	O	-0.519117	-1.108636	0.309302
O32	O	-0.019117	-0.608636	0.809302
O33	O	-0.519080	-1.018261	0.399692
O34	O	-0.019080	-0.518261	0.899692
C35	C	-0.354568	-0.872318	0.354519
C36	C	0.145432	-0.372318	0.854519
C37	C	-0.354574	-0.790519	0.354531
C38	C	0.145426	-0.290519	0.854531
C39	C	-0.401716	-0.525470	0.401525
C40	C	0.098284	-0.025470	0.901525
C41	C	-0.401712	-0.602329	0.401522
C42	C	0.098288	-0.102329	0.901522
C43	C	-0.307466	-0.602320	0.307548
C44	C	0.192534	-0.102320	0.807548
C45	C	-0.307475	-0.525463	0.307548
C46	C	0.192525	-0.025463	0.807548
C47	C	-0.354599	-0.487040	0.354541
C48	C	0.145401	0.012960	0.854541
C49	C	-0.354586	-0.640756	0.354537
C50	C	0.145414	-0.140756	0.854537
C51	C	-0.354580	-0.724090	0.354533
C52	C	0.145420	-0.224090	0.854533
C53	C	-0.354605	-0.403701	0.354545
C54	C	0.145395	0.096299	0.854545
C55	C	-0.545801	-1.063456	0.354508
C56	C	-0.045801	-0.563456	0.854508
C57	C	-0.627600	-1.063494	0.354523
C58	C	-0.127600	-0.563494	0.854523
C59	C	-0.892594	-1.110619	0.401667
C60	C	-0.392594	-0.610619	0.901667
C61	C	-0.815735	-1.110594	0.401656
C62	C	-0.315735	-0.610594	0.901656
C63	C	-0.815854	-1.016524	0.307435
C64	C	-0.315854	-0.516524	0.807435
C65	C	-0.892711	-1.016553	0.307443
C66	C	-0.392711	-0.516553	0.807443
C67	C	-0.931079	-1.063599	0.354563
C68	C	-0.431079	-0.563599	0.854563
C69	C	-0.777363	-1.063546	0.354544
C70	C	-0.277363	-0.563546	0.854544
C71	C	-0.694030	-1.063519	0.354531
C72	C	-0.194030	-0.563519	0.854531
C73	C	-1.014418	-1.063628	0.354575
C74	C	-0.514418	-0.563628	0.854575
C75	C	-0.162642	-1.063613	0.354568
C76	C	0.337358	-0.563613	0.854568
C77	C	-0.080843	-1.063651	0.354584
C78	C	0.419157	-0.563651	0.854584
C79	C	-0.354544	-1.063569	0.546483
C80	C	0.145456	-0.563569	1.046483
C81	C	-0.354522	-1.063588	0.628282
C82	C	0.145478	-0.563588	1.128282
C83	C	-0.354616	-0.255477	0.354542
C84	C	0.145384	0.244523	0.854542
C85	C	-0.354611	-0.337276	0.354547
C86	C	0.145389	0.162724	0.854547
C87	C	-0.354592	-1.063522	0.163323
C88	C	0.145408	-0.563522	0.663323
C89	C	-0.354406	-1.063646	0.081525
C90	C	0.145594	-0.563646	0.581525
C91	C	-0.307416	-1.110696	0.816489
C92	C	0.192584	-0.610696	1.316489
C93	C	-0.307394	-1.110705	0.893348
C94	C	0.192606	-0.610705	1.393348
C95	C	-0.401515	-1.016533	0.893312
C96	C	0.098485	-0.516533	1.393312
C97	C	-0.401532	-1.016521	0.816455
C98	C	0.098468	-0.516521	1.316455
C99	C	-0.354484	-1.063607	0.778045
C100	C	0.145516	-0.563607	1.278045
C101	C	-0.354445	-1.063627	0.931761
C102	C	0.145555	-0.563627	1.431761
C103	C	-0.354422	-1.063637	1.015095
C104	C	0.145578	-0.563637	1.515095
C105	C	-0.354505	-1.063597	0.694706
C106	C	0.145495	-0.563597	1.194706
H107	H	-0.440080	-0.633616	0.439780
H108	H	0.059920	-0.133616	0.939780
H109	H	-0.923831	-1.148923	0.440039
H110	H	-0.423831	-0.648923	0.940039
H111	H	-0.269105	-0.494172	0.269284
H112	H	0.230895	0.005828	0.769284
F113	F	-0.775013	-0.966455	0.257291
F114	F	-0.275013	-0.466455	0.757291
F115	F	-0.451871	-0.484580	0.451538
F116	F	0.048129	0.015420	0.951538
H117	H	-0.269099	-0.633613	0.269289
H118	H	0.230901	-0.133613	0.769289
F119	F	-0.451627	-0.966395	0.775538
F120	F	0.048373	-0.466395	1.275538
H121	H	-0.784402	-1.148882	0.440011
H122	H	-0.284402	-0.648882	0.940011
F123	F	-0.257303	-1.160829	0.934259
F124	F	0.242697	-0.660829	1.434259
H125	H	-0.924047	-0.978264	0.269081
H126	H	-0.424047	-0.478264	0.769081
H127	H	-0.269104	-1.149035	0.785218
H128	H	0.230896	-0.649035	1.285218
H129	H	-0.439822	-0.978199	0.924595
H130	H	0.060178	-0.478199	1.424595
