data_functionalizedCrystal
_audit_creation_method	'MofGen! by Chris Wilmer'
_symmetry_space_group_name_H-M	'P1'
_symmetry_Int_Tables_number	1
_symmetry_cell_setting	triclinic
loop_
_symmetry_equiv_pos_as_xyz
  x,y,z
_cell_length_a	27.732048
_cell_length_b	14.044220
_cell_length_c	12.503572
_cell_angle_alpha	93.843168
_cell_angle_beta	86.516589
_cell_angle_gamma	87.915766
loop_
_atom_site_label
_atom_site_type_symbol
_atom_site_fract_x
_atom_site_fract_y
_atom_site_fract_z
O1	O	0.648762	0.107201	-0.089184
O2	O	0.508774	0.124338	-0.089216
O3	O	0.576666	-0.022184	-0.089190
O4	O	0.580869	0.253723	-0.089210
O5	O	0.571561	-0.011146	0.089450
O6	O	0.503669	0.135375	0.089424
O7	O	0.643657	0.118239	0.089456
Cu8	Cu	0.573197	0.127815	0.105751
Cu9	Cu	0.579234	0.114762	-0.105511
O10	O	0.575764	0.264760	0.089430
C11	C	0.488197	0.129496	0.000100
C12	C	0.434492	0.128412	0.000087
C13	C	0.572274	-0.051953	0.000130
C14	C	0.566787	-0.157098	0.000130
C15	C	0.556756	-0.349613	0.000112
C16	C	0.595673	-0.407816	0.000118
C17	C	0.590091	-0.514939	0.000108
C18	C	0.562337	-0.242481	0.000122
C19	C	0.099419	0.208180	0.000128
C20	C	-0.102429	0.204162	0.000138
O21	O	-0.130263	0.277104	0.000179
N22	N	-0.125630	0.117280	0.000142
C23	C	-0.098366	0.031397	0.000151
O24	O	-0.122732	-0.042593	0.000166
C25	C	0.103481	0.035417	0.000149
C26	C	0.126680	0.122304	0.000134
C27	C	0.122618	0.295060	0.000114
C28	C	0.173077	0.296063	0.000105
C29	C	0.200338	0.210187	0.000111
C30	C	0.177139	0.123307	0.000125
C31	C	0.130744	-0.050464	0.000166
C32	C	0.181209	-0.049451	0.000168
C33	C	0.204407	0.037436	0.000153
C34	C	0.254859	0.038434	0.000123
N35	N	0.278060	0.125316	0.000119
C36	C	0.250799	0.211193	0.000113
C37	C	-0.204339	0.029293	0.000150
C38	C	-0.254801	0.028287	0.000149
C39	C	-0.258860	0.201052	0.000138
C40	C	-0.208398	0.202056	0.000131
C41	C	-0.181138	0.116174	0.000146
C42	C	0.356768	0.213293	0.000094
C43	C	0.407232	0.214289	0.000081
C44	C	0.411287	0.041524	0.000099
C45	C	0.360827	0.040528	0.000106
C46	C	0.333569	0.126420	0.000107
O47	O	0.282722	-0.034468	0.000094
O48	O	0.275173	0.285173	0.000121
C49	C	0.048960	0.207177	0.000136
C50	C	0.025761	0.120297	0.000150
C51	C	0.053021	0.034421	0.000156
C52	C	-0.024701	0.119292	0.000149
C53	C	-0.051961	0.205168	0.000143
C54	C	-0.028760	0.292050	0.000139
C55	C	0.021699	0.293053	0.000130
C56	C	0.029820	-0.052461	0.000161
C57	C	-0.020639	-0.053457	0.000168
C58	C	-0.047900	0.032419	0.000162
C59	C	0.664233	0.113080	0.000138
C60	C	0.717939	0.114164	0.000143
C61	C	0.580156	0.294529	0.000107
C62	C	0.585644	0.399674	0.000100
N63	N	0.568954	0.136995	0.254342
N64	N	0.583480	0.105574	-0.254102
C65	C	0.562713	0.150507	0.473455
C66	C	0.589720	0.092065	0.526792
C67	C	0.586247	0.099583	0.648714
C68	C	0.566185	0.142990	0.351522
H69	H	0.633184	-0.377199	0.000055
H70	H	0.536985	0.206185	0.519352
H71	H	0.615450	0.036385	0.480889
N72	N	0.507072	-0.390166	0.000099
H73	H	0.510078	-0.462052	0.000097
H74	H	0.487062	-0.363657	0.066324
H75	H	0.426118	0.285045	0.000068
H76	H	0.334579	0.283235	0.000099
N77	N	0.198095	0.389777	0.000084
H78	H	0.173163	0.444019	0.000081
H79	H	0.217055	0.398058	0.066304
N80	N	0.093219	0.387696	0.000169
H81	H	0.115579	0.442878	0.000180
H82	H	0.074073	0.386991	-0.066039
H83	H	-0.189513	0.272807	0.000125
N84	N	-0.288267	0.293678	0.000129
H85	H	-0.323753	0.279849	0.000131
H86	H	-0.282225	0.335662	0.066355
N87	N	-0.058167	0.384675	0.000126
H88	H	-0.093653	0.370845	0.000132
H89	H	-0.052124	0.426664	0.066347
H90	H	-0.273684	-0.042466	0.000145
H91	H	-0.182149	-0.040647	0.000162
H92	H	0.111864	-0.121216	0.000179
H93	H	0.203401	-0.119388	0.000181
N94	N	0.335803	-0.053183	0.000102
H95	H	0.360731	-0.107433	0.000099
H96	H	0.313068	-0.053274	0.066332
H97	H	0.433491	-0.028394	0.000099
N98	N	0.046718	0.386767	0.000107
H99	H	0.021785	0.441009	0.000103
H100	H	0.065678	0.395049	0.066327
H101	H	-0.039523	-0.124217	0.000172
N102	N	0.059219	-0.145089	0.000175
H103	H	0.036859	-0.200273	0.000181
H104	H	0.082132	-0.152534	-0.066052
