data_functionalizedCrystal
_audit_creation_method	'MofGen! by Chris Wilmer'
_symmetry_space_group_name_H-M	'P1'
_symmetry_Int_Tables_number	1
_symmetry_cell_setting	triclinic
loop_
_symmetry_equiv_pos_as_xyz
  x,y,z
_cell_length_a	19.851628
_cell_length_b	19.377369
_cell_length_c	19.851628
_cell_angle_alpha	72.121946
_cell_angle_beta	90.001453
_cell_angle_gamma	48.634029
loop_
_atom_site_label
_atom_site_type_symbol
_atom_site_fract_x
_atom_site_fract_y
_atom_site_fract_z
Zr1	Zr	0.514606	0.779797	0.046682
O2	O	0.381422	0.928460	-0.035158
O3	O	0.573195	0.631150	0.053925
O4	O	0.547579	0.779803	-0.060878
O5	O	0.407041	0.779796	0.190504
O6	O	0.658443	0.779789	-0.060867
O7	O	0.407038	0.779807	0.079645
O8	O	0.704266	0.513876	0.144495
O9	O	0.361218	1.045709	-0.014859
O10	O	0.659461	0.692274	0.078583
O11	O	0.576727	0.692276	0.161307
O12	O	0.546567	0.867296	0.026141
O13	O	0.463832	0.867298	0.108865
Zr14	Zr	0.691426	0.779757	0.223506
Zr15	Zr	0.691422	0.779775	0.046700
Zr16	Zr	0.514611	0.779779	0.223489
Zr17	Zr	0.482383	0.966796	0.079058
Zr18	Zr	0.723649	0.592758	0.191131
O19	O	0.632837	0.928404	0.216263
O20	O	0.632831	0.928428	-0.035133
O21	O	0.381428	0.928435	0.216238
O22	O	0.824611	0.631094	0.305346
O23	O	0.824604	0.631119	0.053950
O24	O	0.573202	0.631125	0.305321
O25	O	0.798992	0.779758	0.079684
O26	O	0.658453	0.779751	0.331067
O27	O	0.547589	0.779765	0.331055
O28	O	0.798994	0.779747	0.190543
O29	O	0.501763	1.045691	-0.014844
O30	O	0.704270	0.513862	0.285033
O31	O	0.844814	0.513845	0.285047
O32	O	0.844811	0.513859	0.144509
O33	O	0.361221	1.045695	0.125679
O34	O	0.501766	1.045678	0.125693
O35	O	0.659465	0.692258	0.244048
O36	O	0.742200	0.692256	0.161323
O37	O	0.629306	0.867278	0.108881
O38	O	0.546571	0.867280	0.191606
C39	C	0.643322	0.545870	0.094597
C40	C	0.657001	0.466484	0.080853
C41	C	0.486409	0.205090	0.251790
C42	C	0.499376	0.130404	0.238934
C43	C	0.585744	0.130411	0.152576
C44	C	0.572788	0.205095	0.165427
C45	C	0.523119	0.242429	0.215034
C46	C	0.609499	0.242434	0.128672
C47	C	0.596540	0.317116	0.141520
C48	C	0.546870	0.354458	0.191123
C49	C	0.510160	0.317111	0.227882
C50	C	0.659162	0.205104	0.079061
C51	C	0.695872	0.242443	0.042306
C52	C	0.682919	0.317121	0.055158
C53	C	0.633250	0.354463	0.104760
C54	C	0.719630	0.354468	0.018398
C55	C	0.706671	0.429149	0.031246
C56	C	0.620291	0.429144	0.117608
C57	C	0.381847	0.779804	0.135072
C58	C	0.306784	0.779814	0.135064
C59	C	0.063888	0.875221	0.106495
C60	C	0.049745	0.827524	0.065547
C61	C	0.169382	0.779788	0.135084
C62	C	0.049783	0.827491	0.176017
C63	C	0.036653	0.779769	0.135103
C64	C	0.156228	0.732090	0.094090
C65	C	0.156261	0.732071	0.204606
C66	C	0.142183	0.684304	0.163666
C67	C	0.245842	0.779801	0.135071
C68	C	-0.039801	0.779749	0.135113
C69	C	0.824185	0.779749	0.135116
C70	C	0.899248	0.779740	0.135124
C71	C	0.603011	0.779798	-0.086064
C72	C	0.603009	0.779806	-0.161123
C73	C	0.562711	1.013684	0.175591
C74	C	0.549031	1.093070	0.189335
C75	C	0.541457	0.875213	-0.415961
C76	C	0.516970	0.827534	-0.356759
C77	C	0.603018	0.779766	-0.431275
C78	C	0.627456	0.827495	-0.356754
C79	C	0.603011	0.779791	-0.298542
C80	C	0.578486	0.732086	-0.373062
C81	C	0.689013	0.732060	-0.373065
C82	C	0.664557	0.684312	-0.313862
C83	C	0.603020	0.779755	-0.507740
C84	C	0.603010	0.779795	-0.222076
C85	C	0.603022	0.779755	0.356252
C86	C	0.603024	0.779748	0.431311
C87	C	0.864491	0.545842	0.094619
C88	C	0.953233	0.466447	0.080883
C89	C	0.643327	0.545848	0.315755
C90	C	0.657009	0.466455	0.377070
C91	C	0.864497	0.545821	0.315777
C92	C	0.953241	0.466418	0.377100
C93	C	0.341536	1.013733	-0.045589
C94	C	0.252792	1.093136	-0.106911
C95	C	0.341541	1.013712	0.175569
C96	C	0.252799	1.093107	0.189306
C97	C	0.562705	1.013706	-0.045567
C98	C	0.549024	1.093099	-0.106882
C99	C	0.951719	0.429171	0.031234
C100	C	1.035093	0.354581	0.018313
C101	C	1.119981	0.317263	0.055043
C102	C	1.121493	0.354546	0.104694
C103	C	1.038119	0.429139	0.117611
C104	C	0.706622	0.429161	0.449061
C105	C	0.719472	0.354573	0.506682
C106	C	0.682714	0.317275	0.492308
C107	C	0.633093	0.354576	0.420310
C108	C	0.620238	0.429168	0.362692
C109	C	1.038110	0.429129	0.362716
C110	C	1.121499	0.354532	0.420330
C111	C	1.120019	0.317221	0.492326
C112	C	1.035140	0.354517	0.506709
C113	C	0.951751	0.429118	0.449097
C114	C	0.167921	1.130434	-0.092526
C115	C	0.084527	1.205054	-0.150136
C116	C	0.086008	1.242369	-0.222131
C117	C	0.170887	1.205068	-0.236515
C118	C	0.254278	1.130454	-0.178905
C119	C	0.254312	1.130390	0.238948
C120	C	0.170934	1.205001	0.251854
C121	C	0.086046	1.242322	0.215121
C122	C	0.084534	1.205036	0.165473
C123	C	0.167910	1.130431	0.152564
C124	C	0.585795	1.130374	-0.092486
C125	C	0.572958	1.204962	-0.150093
C126	C	0.523343	1.242280	-0.222094
C127	C	0.486572	1.204998	-0.236489
C128	C	0.499415	1.130406	-0.178884
H129	H	0.626182	0.100007	0.112184
C130	C	0.750508	0.201368	-0.012255
H131	H	0.752975	0.151538	-0.014640
H132	H	0.719951	0.254888	-0.059822
H133	H	0.812321	0.172319	0.004048
H134	H	0.761720	0.691748	-0.380728
H135	H	0.003984	0.867862	0.006759
C136	C	1.033420	0.313572	-0.036295
H137	H	1.095226	0.263809	-0.038739
H138	H	1.009133	0.284473	-0.020000
H139	H	0.994874	0.367140	-0.083843
C140	C	0.166278	1.089402	-0.013336
H141	H	0.228095	1.039616	0.018921
H142	H	0.127752	1.142954	0.002117
H143	H	0.141982	1.060308	-0.012193
H144	H	1.187863	0.256523	0.044519
H145	H	0.031532	0.955914	0.082262
C146	C	0.734877	0.575229	-0.254706
H147	H	0.717362	0.541492	-0.260054
H148	H	0.795775	0.541075	-0.260531
H149	H	0.734858	0.575827	-0.207034
C150	C	0.458946	1.089425	-0.194721
H151	H	0.473697	1.039653	-0.150107
H152	H	0.392902	1.143000	-0.214762
H153	H	0.485287	1.060323	-0.229063
H154	H	1.039365	0.459479	0.158043
C155	C	1.214875	0.313480	0.145099
H156	H	1.264308	0.263708	0.130298
H157	H	1.211854	0.367015	0.133055
H158	H	1.226084	0.284358	0.196881
H159	H	0.015424	1.235413	-0.138410
H160	H	1.187925	0.256476	0.539231
H161	H	0.018162	1.303069	0.225639
C162	C	-0.012018	0.881985	0.222779
H163	H	-0.009067	0.836601	0.262394
H164	H	0.009807	0.905335	0.241965
H165	H	-0.074932	0.937639	0.192821
H166	H	0.669706	0.144299	0.068599
C167	C	-0.008845	1.246089	0.125077
H168	H	-0.058276	1.295850	0.139887
H169	H	-0.020065	1.275199	0.073296
H170	H	-0.005809	1.192537	0.137144
C171	C	0.774258	0.313398	-0.036168
H172	H	0.776720	0.263571	-0.038554
H173	H	0.743696	0.366921	-0.083733
H174	H	0.836073	0.284345	-0.019869
C175	C	0.747048	0.470189	0.464888
H176	H	0.778422	0.437298	0.516021
H177	H	0.790028	0.457965	0.437067
H178	H	0.697620	0.540622	0.451357
C179	C	0.217870	0.677652	0.047239
H180	H	0.195603	0.654898	0.027714
H181	H	0.215333	0.722871	0.007866
H182	H	0.280707	0.621589	0.077240
C183	C	0.172505	1.246113	-0.315713
H184	H	0.110683	1.295882	-0.347958
H185	H	0.196795	1.275212	-0.316873
H186	H	0.211025	1.192560	-0.331172
C187	C	0.747060	0.470216	-0.009176
H188	H	0.778507	0.437277	-0.040553
H189	H	0.697619	0.540632	-0.037890
H190	H	0.789990	0.458057	0.025981
C191	C	0.565670	0.470176	0.283503
H192	H	0.545630	0.437268	0.283201
H193	H	0.512661	0.540606	0.266372
H194	H	0.605062	0.457932	0.252084
C195	C	0.471081	0.984205	-0.475260
H196	H	0.410003	1.017967	-0.469999
H197	H	0.487841	1.018443	-0.469490
H198	H	0.471971	0.983439	-0.522881
C199	C	1.039752	0.470164	0.283527
H200	H	0.977939	0.519930	0.251266
H201	H	1.064038	0.499264	0.282384
H202	H	1.078289	0.416607	0.268073
H203	H	0.882652	0.459469	0.460818
C204	C	0.774064	0.313547	0.585869
H205	H	0.794126	0.346434	0.586170
H206	H	0.734689	0.325779	0.617297
H207	H	0.827072	0.243113	0.602988
H208	H	0.018099	1.303124	-0.269035
H209	H	0.882605	0.459555	0.001313
C210	C	0.696867	0.235220	0.555692
H211	H	0.731689	0.218349	0.600623
H212	H	0.637636	0.259665	0.559932
H213	H	0.730031	0.177009	0.545628
H214	H	0.172183	1.235347	0.292283
C215	C	0.347632	1.089421	-0.194740
H216	H	0.336563	1.122328	-0.245871
H217	H	0.374854	1.101627	-0.166909
H218	H	0.389067	1.018992	-0.181223
C219	C	0.166236	1.089415	0.097965
H220	H	0.103738	1.122324	0.077948
H221	H	0.189844	1.101630	0.059211
H222	H	0.204081	1.018985	0.123061
H223	H	0.444243	0.867882	-0.349120
C224	C	0.347679	1.089349	0.279361
H225	H	0.336624	1.122255	0.310767
H226	H	0.389123	1.018922	0.308043
H227	H	0.374880	1.101577	0.244201
C228	C	0.532610	0.436607	0.205258
H229	H	0.497766	0.453498	0.240062
H230	H	0.591812	0.412225	0.224147
H231	H	0.499434	0.494790	0.160284
C232	C	0.640376	1.089334	-0.013292
H233	H	0.660440	1.122217	-0.012981
H234	H	0.600996	1.101563	0.018132
H235	H	0.693382	1.018900	0.003823
C236	C	0.655392	0.881995	-0.346441
H237	H	0.710676	0.836617	-0.306507
H238	H	0.666523	0.905331	-0.390322
H239	H	0.606204	0.937658	-0.336119
C240	C	0.592677	0.313530	0.404507
H241	H	0.607455	0.263756	0.449135
H242	H	0.526629	0.367072	0.384467
H243	H	0.619036	0.284414	0.370175
H244	H	1.190603	0.324172	0.408605
H245	H	0.602902	1.235309	-0.138357
C246	C	0.509214	1.324337	-0.285451
H247	H	0.538214	1.341194	-0.266558
H248	H	0.536546	1.299900	-0.321591
H249	H	0.444157	1.382555	-0.307281
H250	H	1.033948	0.324128	0.565336
C251	C	0.431990	1.246063	-0.315690
H252	H	0.429603	1.295834	-0.347927
H253	H	0.462529	1.192528	-0.331160
H254	H	0.370148	1.275186	-0.316844
C255	C	0.431794	0.246147	0.306370
H256	H	0.429345	0.295964	0.308761
H257	H	0.369984	0.275189	0.290092
H258	H	0.462380	0.192611	0.353937
C259	C	0.455545	0.358168	0.282462
H260	H	0.453096	0.407985	0.284854
H261	H	0.393735	0.387210	0.266185
H262	H	0.486131	0.304632	0.330030
H263	H	0.579845	0.459544	0.158004
H264	H	0.469475	0.100007	0.268866
H265	H	0.174706	0.603545	0.187834
H266	H	0.557720	0.691792	-0.380627
C267	C	0.218077	0.677634	0.284008
H268	H	0.180793	0.711644	0.313032
H269	H	0.245562	0.610187	0.304619
H270	H	0.266005	0.677513	0.283358
