data_functionalizedCrystal
_audit_creation_method	'MofGen! by Chris Wilmer'
_symmetry_space_group_name_H-M	'P1'
_symmetry_Int_Tables_number	1
_symmetry_cell_setting	triclinic
loop_
_symmetry_equiv_pos_as_xyz
  x,y,z
_cell_length_a	16.959454
_cell_length_b	12.759401
_cell_length_c	12.759393
_cell_angle_alpha	89.979062
_cell_angle_beta	90.029640
_cell_angle_gamma	89.978400
loop_
_atom_site_label
_atom_site_type_symbol
_atom_site_fract_x
_atom_site_fract_y
_atom_site_fract_z
Zn1	Zn	-0.314611	-1.606227	0.594026
Zn2	Zn	-0.446810	-1.606102	0.418349
Zn3	Zn	-0.314653	-1.430526	0.418362
Zn4	Zn	-0.446755	-1.430501	0.593986
O5	O	-0.380707	-1.518339	0.506181
O6	O	-0.332153	-1.753232	0.570734
O7	O	-0.429320	-1.582769	0.271330
O8	O	-0.204037	-1.453896	0.441686
O9	O	-0.429279	-1.753139	0.441665
O10	O	-0.204006	-1.582983	0.570746
O11	O	-0.332225	-1.453774	0.271339
O12	O	-0.332171	-1.283502	0.441647
O13	O	-0.429185	-1.453854	0.741013
O14	O	-0.429226	-1.283484	0.570678
O15	O	-0.332100	-1.582959	0.741042
O16	O	-0.557414	-1.582745	0.441626
O17	O	-0.557373	-1.453732	0.570666
C18	C	-0.380698	-1.245372	0.506160
C19	C	-0.380713	-1.128595	0.506176
C20	C	-0.586074	-1.518251	0.506163
C21	C	-0.673930	-1.518309	0.506190
C22	C	-0.380632	-1.518418	0.780214
C23	C	-0.380599	-1.518451	0.896991
C24	C	-1.045415	-1.451259	0.573365
C25	C	-1.045397	-1.585711	0.439104
C26	C	-0.962851	-1.585675	0.439094
C27	C	-0.921583	-1.518428	0.506220
C28	C	-0.962861	-1.451218	0.573355
C29	C	-0.921567	-1.652875	0.371953
C30	C	-0.839016	-1.652841	0.371940
C31	C	-0.797747	-1.585599	0.439071
C32	C	-0.839030	-1.518387	0.506210
C33	C	-0.797762	-1.451141	0.573335
C34	C	-0.839043	-1.383934	0.640480
C35	C	-0.921592	-1.383977	0.640486
C36	C	-0.715198	-1.585556	0.439065
C37	C	-0.715208	-1.451100	0.573326
C38	C	-0.174539	-1.518456	0.506222
C39	C	-0.086683	-1.518506	0.506239
C40	C	-0.380718	-1.792372	0.506202
C41	C	-0.380722	-1.909149	0.506212
C42	C	-0.431326	-1.073751	0.573257
C43	C	-0.431329	-0.964027	0.573277
C44	C	-0.330103	-0.964000	0.439128
C45	C	-0.330097	-1.073722	0.439113
C46	C	-0.459691	-0.814128	0.697138
C47	C	-0.510317	-0.759280	0.764210
C48	C	-0.587456	-0.794868	0.780159
C49	C	-0.613985	-0.885302	0.729022
C50	C	-0.563363	-0.940144	0.661943
C51	C	-0.486213	-0.904557	0.646013
C52	C	-0.301743	-1.223624	0.315251
C53	C	-0.251125	-1.278468	0.248166
C54	C	-0.173984	-1.242882	0.232205
C55	C	-0.147458	-1.152445	0.283324
C56	C	-0.198076	-1.097601	0.350409
C57	C	-0.275216	-1.133194	0.366371
C58	C	-0.380726	-1.518321	0.233213
C59	C	-0.380536	-1.518491	0.116437
C60	C	-0.330039	-1.585681	0.951870
C61	C	-0.330005	-1.585699	1.061594
C62	C	-0.431098	-1.451254	1.061551
C63	C	-0.431128	-1.451232	0.951829
C64	C	-0.236746	-1.623323	1.211570
C65	C	-0.186193	-1.690569	1.266453
C66	C	-0.174072	-1.793083	1.230861
C67	C	-0.212516	-1.828372	1.140389
C68	C	-0.263076	-1.761131	1.085512
C69	C	-0.275181	-1.658602	1.121102
C70	C	-0.524387	-1.413619	0.801850
C71	C	-0.574951	-1.346382	0.746971
C72	C	-0.587080	-1.243866	0.782561
C73	C	-0.548650	-1.208581	0.873037
C74	C	-0.498086	-1.275818	0.927916
C75	C	-0.485956	-1.378333	0.892319
H76	H	-0.681613	-1.396343	0.627992
O77	O	-0.384949	-1.262008	0.332459
H78	H	-0.393731	-1.279634	0.416841
O79	O	-0.481704	-0.661741	0.819357
H80	H	-0.529871	-0.629573	0.868661
O81	O	-1.089937	-1.378777	0.645782
H82	H	-1.047370	-1.332018	0.692459
O83	O	-0.199456	-1.938952	1.102008
H84	H	-0.157838	-1.979778	1.155364
H85	H	-0.805433	-1.329176	0.695130
H86	H	-0.584963	-1.013773	0.620307
O87	O	-0.966122	-1.311478	0.712879
H88	H	-1.003694	-1.358481	0.766370
O89	O	-0.670677	-1.658056	0.366671
H90	H	-0.606342	-1.646736	0.377945
H91	H	-0.396876	-0.785150	0.684169
H92	H	-0.558528	-1.125106	0.902018
H93	H	-0.472239	-1.396528	1.106213
O94	O	-0.119384	-1.302032	0.159849
H95	H	-0.150785	-1.370899	0.126980
H96	H	-0.466794	-1.247080	1.001587
H97	H	-0.628261	-1.189127	0.737873
O98	O	-0.275515	-0.904828	0.366785
H99	H	-0.288999	-0.925862	0.284300
O100	O	-0.144717	-1.652502	1.364019
H101	H	-0.189195	-1.628850	1.423258
H102	H	-1.079002	-1.640454	0.384447
O103	O	-0.064258	-1.114058	0.266085
H104	H	-0.065890	-1.033742	0.232707
O105	O	-0.642055	-0.735707	0.852501
H106	H	-0.694528	-0.708850	0.807924
H107	H	-0.176470	-1.023967	0.392040
O108	O	-0.616404	-1.384432	0.649382
H109	H	-0.599467	-1.467010	0.633841
O110	O	-0.966073	-1.725440	0.299593
H111	H	-1.030409	-1.714200	0.310905
H112	H	-0.805410	-1.707565	0.317268
H113	H	-0.288893	-1.640413	0.907225
H114	H	-0.472539	-1.118425	0.627866
H115	H	-0.132909	-1.847836	1.275555
O116	O	-0.697193	-0.923675	0.746207
H117	H	-0.695584	-1.004007	0.779550
O118	O	-0.279729	-1.376014	0.193026
H119	H	-0.341871	-1.391559	0.215404
H120	H	-0.246604	-1.539845	1.240553
O121	O	-0.304535	-1.799171	0.987930
H122	H	-0.287613	-1.881755	0.972395
H123	H	-0.514510	-1.497094	0.772859
