data_functionalizedCrystal
_audit_creation_method	'MofGen! by Chris Wilmer'
_symmetry_space_group_name_H-M	'P1'
_symmetry_Int_Tables_number	1
_symmetry_cell_setting	triclinic
loop_
_symmetry_equiv_pos_as_xyz
  x,y,z
_cell_length_a	11.026607
_cell_length_b	13.330367
_cell_length_c	10.967829
_cell_angle_alpha	102.132491
_cell_angle_beta	96.380563
_cell_angle_gamma	90.006834
loop_
_atom_site_label
_atom_site_type_symbol
_atom_site_fract_x
_atom_site_fract_y
_atom_site_fract_z
O1	O	1.614540	0.173925	0.523516
O2	O	1.260736	0.163621	0.463904
O3	O	1.445795	0.137683	0.313892
O4	O	1.429482	0.199863	0.673528
O5	O	1.445768	-0.029166	0.313881
O6	O	1.260709	-0.003228	0.463893
O7	O	1.614513	0.007076	0.523506
Cu8	Cu	1.437609	-0.013311	0.493699
Cu9	Cu	1.437641	0.184008	0.493711
O10	O	1.429455	0.033014	0.673518
C11	C	1.215420	0.078295	0.452901
C12	C	1.080432	0.072629	0.420117
N13	N	1.437595	-0.152093	0.493691
C14	C	1.007383	0.088280	0.510639
C15	C	0.867865	0.082423	0.476757
C16	C	1.355693	-0.613233	0.560102
C17	C	1.519621	-0.636161	0.427317
C18	C	1.519607	-0.531144	0.427310
C19	C	1.437636	-0.467166	0.493702
C20	C	1.355679	-0.508206	0.560100
C21	C	1.601571	-0.490094	0.360924
C22	C	1.601562	-0.385071	0.360915
C23	C	1.519584	-0.321092	0.427300
C24	C	1.437623	-0.362138	0.493700
C25	C	1.355652	-0.298161	0.560091
C26	C	1.273683	-0.339206	0.626485
C27	C	1.273701	-0.444227	0.626485
C28	C	1.519566	-0.216071	0.427300
C29	C	1.355638	-0.193133	0.560089
C30	C	1.659829	0.092404	0.534508
C31	C	1.794817	0.098077	0.567292
C32	C	1.444592	0.046177	0.267130
C33	C	1.441035	0.022094	0.127806
N34	N	1.437664	0.322789	0.493710
C35	C	1.439463	0.097792	0.065702
C36	C	1.435786	0.072903	-0.078296
C37	C	1.430657	0.124523	0.720280
C38	C	1.434215	0.148611	0.859604
H39	H	0.827123	0.064712	0.374168
H40	H	0.835558	0.115808	0.669882
O41	O	1.061343	0.111764	0.646526
H42	H	1.030577	0.187924	0.693726
H43	H	1.206967	-0.477653	0.680541
O44	O	1.689949	-0.340810	0.289286
H45	H	1.749476	-0.281549	0.355208
O46	O	1.026477	0.049134	0.284228
H47	H	0.925361	0.048227	0.278941
H48	H	1.434402	-0.010335	-0.131729
H49	H	1.440834	0.181024	0.119139
O50	O	1.608037	-0.705155	0.355718
H51	H	1.556365	-0.765512	0.283426
O52	O	1.439218	-0.088158	0.057026
H53	H	1.357127	-0.128759	0.074601
O54	O	1.267292	-0.657491	0.631719
H55	H	1.281072	-0.741266	0.620577
O56	O	1.436041	0.258875	-0.069639
H57	H	1.438651	0.261123	0.032360
O58	O	1.267229	-0.124127	0.631702
H59	H	1.210246	-0.170314	0.677873
H60	H	1.586309	-0.182655	0.373250
O61	O	1.185261	-0.270191	0.698066
H62	H	1.236931	-0.209824	0.770346
H63	H	1.668316	-0.542186	0.306877
