data_functionalizedCrystal
_audit_creation_method	'MofGen! by Chris Wilmer'
_symmetry_space_group_name_H-M	'P1'
_symmetry_Int_Tables_number	1
_symmetry_cell_setting	triclinic
loop_
_symmetry_equiv_pos_as_xyz
  x,y,z
_cell_length_a	17.699104
_cell_length_b	17.699097
_cell_length_c	9.730223
_cell_angle_alpha	90.003210
_cell_angle_beta	90.003477
_cell_angle_gamma	83.289974
loop_
_atom_site_label
_atom_site_type_symbol
_atom_site_fract_x
_atom_site_fract_y
_atom_site_fract_z
O1	O	0.095756	1.004071	0.114407
O2	O	0.108198	0.783695	0.114385
O3	O	-0.008211	0.900101	0.114384
O4	O	0.212165	0.887665	0.114408
O5	O	-0.008211	0.900102	-0.114196
O6	O	0.108198	0.783696	-0.114195
O7	O	0.095756	1.004072	-0.114173
Zn8	Zn	0.101977	0.893884	-0.150476
Zn9	Zn	0.101977	0.893883	0.150688
O10	O	0.212165	0.887666	-0.114172
C11	C	0.107751	0.755499	0.000092
C12	C	0.106408	0.671481	0.000083
C13	C	-0.036407	0.899653	0.000094
C14	C	-0.120425	0.898308	0.000093
C15	C	0.098179	0.155762	0.124737
C16	C	0.099435	0.234706	0.124730
C17	C	0.100064	0.274172	0.000126
C18	C	0.099430	0.234691	-0.124480
C19	C	0.098168	0.155749	-0.124472
C20	C	0.104517	0.553056	-0.124516
C21	C	0.105781	0.632003	-0.124514
C22	C	0.105784	0.632013	0.124686
C23	C	0.104522	0.553071	0.124695
C24	C	0.103884	0.513597	0.000090
C25	C	0.102520	0.427997	0.000098
C26	C	0.101433	0.359770	0.000115
C27	C	-0.645293	0.959052	0.000138
C28	C	-0.566349	0.960311	0.000126
C29	C	-0.517735	0.891976	0.000116
C30	C	-0.548068	0.822378	0.000105
C31	C	-0.627010	0.821119	0.000107
C32	C	-0.229702	0.827451	0.000094
C33	C	-0.150754	0.828715	0.000095
C34	C	-0.169040	0.966642	0.000113
C35	C	-0.247983	0.965384	0.000115
C36	C	-0.278309	0.895786	0.000096
C37	C	-0.363909	0.894422	0.000107
C38	C	-0.432136	0.893340	0.000116
C39	C	0.240362	0.888114	0.000121
C40	C	0.324379	0.889459	0.000131
C41	C	0.096204	1.032268	0.000123
C42	C	0.097546	1.116286	0.000141
N43	N	0.101977	0.893889	-0.356012
C44	C	0.147820	0.939704	-0.571837
C45	C	0.147825	0.939705	-0.427954
C46	C	0.056126	0.848064	-0.427962
C47	C	0.056126	0.848059	-0.571842
C48	C	0.200759	0.992615	-0.571831
C49	C	0.200764	0.992616	-0.427948
N50	N	0.101972	0.893884	0.356224
H51	H	0.097672	0.123634	0.226205
C52	C	0.102594	0.432062	0.235356
C53	C	0.103832	0.509689	0.261662
H54	H	0.102171	0.405282	0.319918
H55	H	0.058272	0.424976	0.184165
H56	H	0.146509	0.413281	0.184163
H57	H	0.059914	0.528472	0.312847
H58	H	0.148159	0.516780	0.312875
C59	C	0.101250	1.097144	-0.423113
C60	C	0.174809	1.073460	-0.375181
H61	H	0.085230	1.147048	-0.390518
H62	H	0.101242	1.097162	-0.520729
H63	H	0.067389	1.063289	-0.390579
H64	H	0.208671	1.107313	-0.407724
H65	H	0.174823	1.073449	-0.277545
C66	C	0.034774	0.267615	-0.336894
C67	C	0.100118	0.278073	-0.261448
H68	H	0.035199	0.294401	-0.421449
H69	H	0.033937	0.214956	-0.354722
H70	H	-0.009131	0.286408	-0.285684
H71	H	0.144023	0.259275	-0.312654
H72	H	0.100962	0.330743	-0.243624
H73	H	0.099945	0.266845	0.226189
C74	C	0.096226	0.034730	-0.235113
C75	C	0.097472	0.112353	-0.261431
H76	H	0.095789	0.007943	-0.319670
H77	H	0.140136	0.015950	-0.183925
H78	H	0.051899	0.027656	-0.183912
H79	H	0.141802	0.119428	-0.312624
H80	H	0.053557	0.131140	-0.312641
H81	H	0.018802	0.810755	-0.369376
C82	C	0.107709	0.753032	0.235349
C83	C	0.106475	0.675406	0.261659
H84	H	0.108133	0.779818	0.319909
H85	H	0.152030	0.760116	0.184164
H86	H	0.063793	0.771807	0.184149
H87	H	0.150395	0.656629	0.312851
H88	H	0.062150	0.668317	0.312866
H89	H	-0.684870	1.014698	0.000158
H90	H	-0.111173	0.773065	0.000084
H91	H	0.106294	0.664134	-0.225989
C92	C	-0.592353	1.096523	0.000157
C93	C	-0.533013	1.036810	0.000136
H94	H	-0.571772	1.143752	0.000168
H95	H	-0.622768	1.093164	-0.079545
H96	H	-0.622758	1.093156	0.079878
H97	H	-0.502611	1.040174	-0.079591
H98	H	-0.502585	1.040171	0.079846
C99	C	0.306993	1.024391	-0.704484
C100	C	0.281598	0.966603	-0.624547
H101	H	0.356900	1.008332	-0.737020
H102	H	0.273726	1.035088	-0.780404
H103	H	0.307588	1.068940	-0.650229
H104	H	0.280998	0.922055	-0.678805
H105	H	0.314875	0.955896	-0.548616
H106	H	-0.287561	1.021029	0.000130
C107	C	0.104655	0.560985	-0.370845
C108	C	0.103827	0.509671	-0.261480
H109	H	0.104235	0.534196	-0.455403
H110	H	0.061031	0.597622	-0.365671
H111	H	0.149268	0.585927	-0.365639
H112	H	0.059211	0.484733	-0.266679
H113	H	0.147456	0.473021	-0.266656
H114	H	0.176368	1.049865	-0.616461
C115	C	-0.056148	1.029828	0.000099
C116	C	-0.135704	1.043148	0.000114
H117	H	-0.035570	1.077059	0.000094
H118	H	-0.039453	1.001702	0.079799
H119	H	-0.039467	1.001699	-0.079624
H120	H	-0.152385	1.071272	0.079842
H121	H	-0.152405	1.071286	-0.079594
H122	H	-0.254383	0.770780	0.000094
C123	C	-0.418936	0.763061	0.000106
C124	C	-0.494632	0.747262	0.000097
H125	H	-0.385950	0.716685	0.000113
H126	H	-0.409760	0.791598	-0.079597
H127	H	-0.409761	0.791604	0.079825
H128	H	-0.503809	0.718723	-0.079628
H129	H	-0.503812	0.718713	0.079808
H130	H	0.258012	0.968206	-0.383320
H131	H	0.018799	0.810741	-0.630409
C132	C	-0.601011	0.684906	0.000110
C133	C	-0.660350	0.744620	0.000111
H134	H	-0.621594	0.637678	0.000118
H135	H	-0.570606	0.688264	-0.079597
H136	H	-0.570596	0.688272	0.079826
H137	H	-0.690761	0.741258	-0.079611
H138	H	-0.690767	0.741261	0.079826
