data_functionalizedCrystal
_audit_creation_method	'MofGen! by Chris Wilmer'
_symmetry_space_group_name_H-M	'P1'
_symmetry_Int_Tables_number	1
_symmetry_cell_setting	triclinic
loop_
_symmetry_equiv_pos_as_xyz
  x,y,z
_cell_length_a	12.759399
_cell_length_b	12.759401
_cell_length_c	12.759393
_cell_angle_alpha	89.979062
_cell_angle_beta	90.030906
_cell_angle_gamma	89.983359
loop_
_atom_site_label
_atom_site_type_symbol
_atom_site_fract_x
_atom_site_fract_y
_atom_site_fract_z
Zn1	Zn	-0.418173	-1.606263	0.594017
Zn2	Zn	-0.593888	-1.606153	0.418336
Zn3	Zn	-0.418229	-1.430562	0.418352
Zn4	Zn	-0.593815	-1.430553	0.593973
O5	O	-0.506026	-1.518383	0.506170
O6	O	-0.441489	-1.753270	0.570724
O7	O	-0.570641	-1.582818	0.271317
O8	O	-0.271200	-1.453919	0.441680
O9	O	-0.570587	-1.753189	0.441652
O10	O	-0.271159	-1.583006	0.570740
O11	O	-0.441584	-1.453812	0.271329
O12	O	-0.441513	-1.283540	0.441637
O13	O	-0.570461	-1.453903	0.741000
O14	O	-0.570516	-1.283533	0.570665
O15	O	-0.441418	-1.582997	0.741032
O16	O	-0.740900	-1.582809	0.441609
O17	O	-0.740846	-1.453796	0.570649
C18	C	-0.506013	-1.245415	0.506149
C19	C	-0.506033	-1.128639	0.506165
C20	C	-0.778994	-1.518318	0.506146
C21	C	-0.895770	-1.518387	0.506171
C22	C	-0.505925	-1.518461	0.780203
C23	C	-0.505882	-1.518495	0.896980
C24	C	-0.950625	-1.585641	0.439056
C25	C	-1.060349	-1.585708	0.439091
C26	C	-1.060353	-1.451259	0.573359
C27	C	-0.950631	-1.451198	0.573328
C28	C	-0.231993	-1.518476	0.506217
C29	C	-0.115216	-1.518516	0.506237
C30	C	-0.506040	-1.792416	0.506191
C31	C	-0.506046	-1.909193	0.506200
C32	C	-0.573307	-1.073801	0.573244
C33	C	-0.573311	-0.964077	0.573265
C34	C	-0.438764	-0.964038	0.439118
C35	C	-0.438756	-1.073760	0.439104
C36	C	-0.506051	-1.518365	0.233202
C37	C	-0.505798	-1.518535	0.116426
C38	C	-0.438679	-1.585719	0.951860
C39	C	-0.438633	-1.585737	1.061584
C40	C	-0.573004	-1.451303	1.061538
C41	C	-0.573044	-1.451281	0.951816
H42	H	-0.905960	-1.640352	0.384374
H43	H	-1.105035	-1.396555	0.628034
O44	O	-1.119521	-1.658254	0.366714
H45	H	-1.169610	-1.611293	0.313243
H46	H	-0.905965	-1.396432	0.627986
H47	H	-0.383908	-1.640476	1.106263
H48	H	-0.628086	-1.118479	0.627852
O49	O	-0.645986	-0.904926	0.645496
H50	H	-0.692810	-0.961523	0.692076
O51	O	-0.366237	-0.904850	0.366755
H52	H	-0.377561	-0.819340	0.378015
H53	H	-0.627687	-1.396583	1.106199
O54	O	-0.366209	-1.132920	0.366735
H55	H	-0.319445	-1.076328	0.320089
H56	H	-0.383989	-1.640446	0.907216
O57	O	-0.645500	-1.378742	0.892611
H58	H	-0.692195	-1.332007	0.949173
