data_functionalizedCrystal
_audit_creation_method	'MofGen! by Chris Wilmer'
_symmetry_space_group_name_H-M	'P1'
_symmetry_Int_Tables_number	1
_symmetry_cell_setting	triclinic
loop_
_symmetry_equiv_pos_as_xyz
  x,y,z
_cell_length_a	19.805407
_cell_length_b	12.827892
_cell_length_c	19.805399
_cell_angle_alpha	89.977471
_cell_angle_beta	89.980427
_cell_angle_gamma	90.015392
loop_
_atom_site_label
_atom_site_type_symbol
_atom_site_fract_x
_atom_site_fract_y
_atom_site_fract_z
Zn1	Zn	1.034788	-0.416057	-0.382743
Zn2	Zn	1.534788	0.083943	0.117257
Zn3	Zn	1.034724	-0.590812	-0.269565
Zn4	Zn	1.534724	-0.090812	0.230435
Zn5	Zn	0.921602	-0.416086	-0.269568
Zn6	Zn	1.421602	0.083914	0.230432
Zn7	Zn	0.921587	-0.590757	-0.382712
Zn8	Zn	1.421587	-0.090757	0.117288
O9	O	0.978175	-0.503428	-0.326147
O10	O	1.478175	-0.003428	0.173853
O11	O	1.129496	-0.439250	-0.367742
O12	O	1.629496	0.060750	0.132258
O13	O	1.019698	-0.567670	-0.174849
O14	O	1.519698	-0.067670	0.325151
O15	O	0.936649	-0.269846	-0.284595
O16	O	1.436649	0.230154	0.215405
O17	O	1.129449	-0.567642	-0.284590
O18	O	1.629449	-0.067642	0.215410
O19	O	1.019806	-0.269825	-0.367745
O20	O	1.519806	0.230175	0.132255
O21	O	0.936588	-0.439299	-0.174851
O22	O	1.436588	0.060701	0.325149
O23	O	0.826884	-0.439245	-0.284565
O24	O	1.326884	0.060755	0.215435
O25	O	0.936624	-0.567547	-0.477433
O26	O	1.436624	-0.067547	0.022567
O27	O	0.826873	-0.567575	-0.367691
O28	O	1.326873	-0.067575	0.132309
O29	O	1.019792	-0.439196	-0.477456
O30	O	1.519792	0.060804	0.022544
O31	O	1.019684	-0.737041	-0.284560
O32	O	1.519684	-0.237041	0.215440
O33	O	0.936563	-0.737000	-0.367688
O34	O	1.436563	-0.237000	0.132312
C35	C	0.802319	-0.503408	-0.326125
C36	C	1.302319	-0.003408	0.173875
C37	C	0.727087	-0.503425	-0.326132
C38	C	1.227087	-0.003425	0.173868
C39	C	0.691755	-0.570347	-0.369346
C40	C	1.191755	-0.070347	0.130654
C41	C	0.621067	-0.570349	-0.369355
C42	C	1.121067	-0.070349	0.130645
C43	C	0.585712	-0.503433	-0.326147
C44	C	1.085712	-0.003433	0.173853
C45	C	0.621049	-0.436504	-0.282931
C46	C	1.121049	0.063496	0.217069
C47	C	0.691736	-0.436497	-0.282926
C48	C	1.191736	0.063503	0.217074
C49	C	0.335975	-0.436527	-0.282954
C50	C	0.835975	0.063473	0.217046
C51	C	0.265283	-0.436540	-0.282961
C52	C	0.765283	0.063460	0.217039
C53	C	0.265306	-0.570378	-0.369383
C54	C	0.765306	-0.070378	0.130617
C55	C	0.335993	-0.570372	-0.369378
C56	C	0.835993	-0.070372	0.130622
C57	C	0.371324	-0.503439	-0.326165
C58	C	0.871324	-0.003439	0.173835
C59	C	0.447973	-0.503436	-0.326156
C60	C	0.947973	-0.003436	0.173844
C61	C	0.509065	-0.503440	-0.326152
C62	C	1.009065	-0.003440	0.173848
C63	C	0.978133	-0.774938	-0.326135
C64	C	1.478133	-0.274938	0.173865
C65	C	0.978177	-0.891091	-0.326153
C66	C	1.478177	-0.391091	0.173847
C67	C	1.019357	-0.942862	-0.285064
C68	C	1.519357	-0.442862	0.214936
C69	C	1.019403	-1.062912	-0.285081
C70	C	1.519403	-0.562912	0.214919
C71	C	1.154718	-0.503449	-0.326169
C72	C	1.654718	-0.003449	0.173831
C73	C	1.229950	-0.503458	-0.326179
C74	C	1.729950	-0.003458	0.173821
C75	C	0.978213	-0.503362	-0.502690
C76	C	1.478213	-0.003362	-0.002690
C77	C	0.978229	-0.503334	-0.577922
C78	C	1.478229	-0.003334	-0.077922
C79	C	0.978236	-0.230858	-0.326174
C80	C	1.478236	0.269142	0.173826
C81	C	0.978262	-0.114705	-0.326185
C82	C	1.478262	0.385295	0.173815
C83	C	1.021536	-0.436499	-0.613279
C84	C	1.521536	0.063501	-0.113279
C85	C	1.021543	-0.436468	-0.683968
C86	C	1.521543	0.063532	-0.183968
C87	C	0.978246	-0.503280	-0.719298
C88	C	1.478246	-0.003280	-0.219298
C89	C	0.934935	-0.570118	-0.683935
C90	C	1.434935	-0.070118	-0.183935
C91	C	0.934925	-0.570143	-0.613248
C92	C	1.434925	-0.070143	-0.113248
C93	C	0.934973	-0.570021	-0.969009
C94	C	1.434973	-0.070021	-0.469009
C95	C	0.934988	-0.569994	-1.039701
C96	C	1.434988	-0.069994	-0.539701
C97	C	1.021591	-0.436347	-1.039728
C98	C	1.521591	0.063653	-0.539728
C99	C	1.021581	-0.436371	-0.969041
C100	C	1.521581	0.063629	-0.469041
C101	C	0.978268	-0.503205	-0.933685
C102	C	1.478268	-0.003205	-0.433685
C103	C	0.978260	-0.503236	-0.857037
C104	C	1.478260	-0.003236	-0.357037
C105	C	0.978257	-0.503255	-0.795945
C106	C	1.478257	-0.003255	-0.295945
C107	C	0.978176	-0.503418	-0.150291
C108	C	1.478176	-0.003418	0.349709
C109	C	0.978291	-0.503152	-0.075060
C110	C	1.478291	-0.003152	0.424940
H111	H	0.592257	-0.382015	-0.247753
H112	H	1.092257	0.117985	0.252247
C113	C	0.226391	-0.362920	-0.235439
C114	C	0.726391	0.137080	0.264561
H115	H	0.179232	-0.372519	-0.241629
H116	H	0.679232	0.127481	0.258371
H117	H	0.237987	-0.292728	-0.245428
H118	H	0.737987	0.207272	0.254572
H119	H	0.237951	-0.378114	-0.189939
H120	H	0.737951	0.121886	0.310061
C121	C	0.730601	-0.362882	-0.235392
C122	C	1.230601	0.137118	0.264608
H123	H	0.699422	-0.323035	-0.209656
H124	H	1.199422	0.176965	0.290344
H125	H	0.758192	-0.317402	-0.261334
H126	H	1.258192	0.182598	0.238666
H127	H	0.758159	-0.402796	-0.205851
H128	H	1.258159	0.097204	0.294149
H129	H	0.942958	-0.935645	-0.361346
H130	H	1.442958	-0.435645	0.138654
H131	H	1.054581	-0.898310	-0.249875
H132	H	1.554581	-0.398310	0.250125
C133	C	1.069195	-0.362977	-0.722861
C134	C	1.569195	0.137023	-0.222861
H135	H	1.063001	-0.372527	-0.770020
H136	H	1.563001	0.127473	-0.270020
H137	H	1.114662	-0.378306	-0.711277
H138	H	1.614662	0.121694	-0.211277
H139	H	1.059316	-0.292754	-0.711288
H140	H	1.559316	0.207246	-0.211288
C141	C	0.887309	-0.643612	-0.722793
C142	C	1.387309	-0.143612	-0.222793
H143	H	0.861511	-0.683414	-0.691610
H144	H	1.361511	-0.183414	-0.191610
H145	H	0.913193	-0.689138	-0.750368
H146	H	1.413193	-0.189138	-0.250368
H147	H	0.857828	-0.603618	-0.750367
H148	H	1.357828	-0.103618	-0.250367
H149	H	0.943002	-1.070191	-0.361363
H150	H	1.443002	-0.570191	0.138637
C151	C	1.069159	-0.363000	-0.574422
C152	C	1.569159	0.137000	-0.074422
H153	H	1.094946	-0.323183	-0.605607
H154	H	1.594946	0.176817	-0.105607
H155	H	1.098640	-0.402980	-0.546847
H156	H	1.598640	0.097020	-0.046847
H157	H	1.043267	-0.317471	-0.546850
H158	H	1.543267	0.182529	-0.046850
C159	C	0.887290	-0.643660	-0.574352
C160	C	1.387290	-0.143660	-0.074352
H161	H	0.893480	-0.634099	-0.527194
H162	H	1.393480	-0.134099	-0.027194
H163	H	0.897178	-0.713873	-0.585929
H164	H	1.397178	-0.213873	-0.085929
H165	H	0.841816	-0.628346	-0.585931
H166	H	1.341816	-0.128346	-0.085931
H167	H	1.056840	-0.381970	-0.940279
H168	H	1.556840	0.118030	-0.440279
C169	C	1.069231	-0.362822	-1.078622
C170	C	1.569231	0.137178	-0.578622
H171	H	1.063033	-0.372365	-1.125781
H172	H	1.563033	0.127635	-0.625781
H173	H	1.114702	-0.378129	-1.067044
H174	H	1.614702	0.121871	-0.567044
H175	H	1.059337	-0.292607	-1.067041
H176	H	1.559337	0.207393	-0.567041
C177	C	0.374834	-0.362910	-0.235420
C178	C	0.874834	0.137090	0.264580
H179	H	0.421996	-0.372476	-0.241607
H180	H	0.921996	0.127524	0.258393
H181	H	0.363228	-0.378111	-0.189927
H182	H	0.863228	0.121889	0.310073
H183	H	0.363259	-0.292716	-0.245411
H184	H	0.863259	0.207284	0.254589
C185	C	0.887355	-0.643482	-1.078563
C186	C	1.387355	-0.143482	-0.578563
H187	H	0.861552	-0.683283	-1.047383
H188	H	1.361552	-0.183283	-0.547383
H189	H	0.913237	-0.689011	-1.106138
H190	H	1.413237	-0.189011	-0.606138
H191	H	0.857879	-0.603479	-1.106136
H192	H	1.357879	-0.103479	-0.606136
H193	H	0.899715	-0.624457	-0.940230
H194	H	1.399715	-0.124457	-0.440230
C195	C	0.730640	-0.643954	-0.416877
C196	C	1.230640	-0.143954	0.083123
H197	H	0.699470	-0.683802	-0.442619
H198	H	1.199470	-0.183802	0.057381
H199	H	0.758199	-0.689433	-0.390935
H200	H	1.258199	-0.189433	0.109065
H201	H	0.758231	-0.604027	-0.446412
H202	H	1.258231	-0.104027	0.053588
C203	C	0.582201	-0.643963	-0.416888
C204	C	1.082201	-0.143963	0.083112
H205	H	0.535039	-0.634376	-0.410710
H206	H	1.035039	-0.134376	0.089290
H207	H	0.593770	-0.714155	-0.406902
H208	H	1.093770	-0.214155	0.093098
H209	H	0.593810	-0.628757	-0.462383
H210	H	1.093810	-0.128757	0.037617
C211	C	0.374881	-0.643975	-0.416909
C212	C	0.874881	-0.143975	0.083091
H213	H	0.343713	-0.683826	-0.442652
H214	H	0.843713	-0.183826	0.057348
H215	H	0.402441	-0.689453	-0.390967
H216	H	0.902441	-0.189453	0.109033
H217	H	0.402471	-0.604045	-0.446443
H218	H	0.902471	-0.104045	0.053557
C219	C	1.067032	-1.123043	-0.237554
C220	C	1.567032	-0.623043	0.262446
H221	H	1.092833	-1.074975	-0.211761
H222	H	1.592833	-0.574975	0.288239
H223	H	1.096498	-1.165562	-0.263503
H224	H	1.596498	-0.665562	0.236497
H225	H	1.041144	-1.165680	-0.208067
H226	H	1.541144	-0.665680	0.291933
C227	C	0.226441	-0.643993	-0.416924
C228	C	0.726441	-0.143993	0.083076
H229	H	0.179278	-0.634409	-0.410747
H230	H	0.679278	-0.134409	0.089253
H231	H	0.238011	-0.714186	-0.406940
H232	H	0.738011	-0.214186	0.093060
H233	H	0.238050	-0.628784	-0.462419
H234	H	0.738050	-0.128784	0.037581
