data_functionalizedCrystal
_audit_creation_method	'MofGen! by Chris Wilmer'
_symmetry_space_group_name_H-M	'P1'
_symmetry_Int_Tables_number	1
_symmetry_cell_setting	triclinic
loop_
_symmetry_equiv_pos_as_xyz
  x,y,z
_cell_length_a	15.995350
_cell_length_b	11.792241
_cell_length_c	14.472310
_cell_angle_alpha	89.998842
_cell_angle_beta	89.990621
_cell_angle_gamma	83.842895
loop_
_atom_site_label
_atom_site_type_symbol
_atom_site_fract_x
_atom_site_fract_y
_atom_site_fract_z
O1	O	-1.111661	-0.146288	0.076763
O2	O	-0.867967	-0.164353	0.076782
O3	O	-0.995728	0.009899	0.076766
O4	O	-0.983900	-0.320540	0.076779
O5	O	-0.995695	0.009889	-0.076916
O6	O	-0.867934	-0.164363	-0.076900
O7	O	-1.111628	-0.146298	-0.076919
Cu8	Cu	-0.989778	-0.155332	-0.090942
Cu9	Cu	-0.989817	-0.155320	0.090805
O10	O	-0.983867	-0.320551	-0.076903
C11	C	-0.836753	-0.163612	-0.000057
C12	C	-0.743792	-0.161372	-0.000049
C13	C	-0.994968	0.052179	-0.000075
C14	C	-0.992745	0.178174	-0.000074
C15	C	-1.142842	-0.147040	-0.000078
C16	C	-1.235803	-0.149279	-0.000079
C17	C	-0.406008	-0.153331	-0.000069
C18	C	-0.452879	-0.029232	-0.000417
C19	C	-0.549579	-0.031471	-0.000064
C20	C	-0.573587	-0.157320	-0.000060
C21	C	-0.532796	-0.218524	0.087699
C22	C	-0.436146	-0.215407	0.087766
C23	C	-0.435782	-0.217982	-0.086999
C24	C	-0.532727	-0.217953	-0.088153
C25	C	-0.668294	-0.159581	-0.000052
C26	C	-0.311300	-0.151074	-0.000071
C27	C	-0.984627	-0.362830	-0.000060
C28	C	-0.986850	-0.488825	-0.000055
N29	N	-0.989757	-0.155339	-0.218773
C30	C	-0.988655	0.408852	-0.000058
C31	C	-0.990927	0.280486	-0.000067
C32	C	-0.989816	-0.155315	-0.592864
C33	C	-0.921222	-0.248241	-0.553689
C34	C	-0.921382	-0.248580	-0.446601
C35	C	-0.989786	-0.155327	-0.407273
C36	C	-1.077268	-0.181193	-0.446116
C37	C	-1.076883	-0.181853	-0.553237
C38	C	-0.971706	-0.036248	-0.553397
C39	C	-0.969706	-0.037042	-0.446269
C40	C	-0.989774	-0.155332	-0.302385
C41	C	-0.989833	-0.155313	-0.697752
N42	N	-0.989845	-0.155303	0.218636
H43	H	-0.577776	0.016639	-0.062974
H44	H	-1.093510	-0.267038	-0.419276
H45	H	-1.092759	-0.268688	-0.578211
H46	H	-0.415048	-0.177416	-0.153518
H47	H	-0.909270	-0.011376	-0.580461
H48	H	-0.548507	-0.309726	-0.093450
H49	H	-0.932685	-0.336102	-0.580596
F50	F	-0.885588	-0.011382	-0.413089
F51	F	-0.394535	-0.334493	0.092976
F52	F	-1.030718	0.057581	-0.411292
F53	F	-0.835971	-0.228418	-0.587372
F54	F	-0.394811	-0.337576	-0.087772
F55	F	-0.411967	-0.157057	0.173507
F56	F	-0.569647	-0.162952	0.173064
F57	F	-0.551827	-0.339364	0.091986
F58	F	-0.568064	-0.159463	-0.173012
F59	F	-0.836398	-0.228495	-0.412274
F60	F	-0.936544	-0.364081	-0.413088
H61	H	-1.021722	0.032905	-0.578729
F62	F	-1.145579	-0.096663	-0.587110
H63	H	-1.129553	-0.115310	-0.420639
H64	H	-0.433074	0.020149	0.062167
F65	F	-0.585702	0.031591	0.082432
F66	F	-0.428353	0.035601	-0.082679
