data_functionalizedCrystal
_audit_creation_method	'MofGen! by Chris Wilmer'
_symmetry_space_group_name_H-M	'P1'
_symmetry_Int_Tables_number	1
_symmetry_cell_setting	triclinic
loop_
_symmetry_equiv_pos_as_xyz
  x,y,z
_cell_length_a	17.699083
_cell_length_b	11.026607
_cell_length_c	16.776229
_cell_angle_alpha	89.996140
_cell_angle_beta	89.998886
_cell_angle_gamma	95.934516
loop_
_atom_site_label
_atom_site_type_symbol
_atom_site_fract_x
_atom_site_fract_y
_atom_site_fract_z
O1	O	1.025155	0.153399	-0.066172
O2	O	0.807518	0.173356	-0.066197
O3	O	0.898299	-0.013222	-0.066184
O4	O	0.934374	0.339978	-0.066186
O5	O	0.898282	-0.013234	0.066393
O6	O	0.807501	0.173345	0.066379
O7	O	1.025138	0.153387	0.066405
Zn8	Zn	0.916317	0.163364	0.087441
Zn9	Zn	0.916339	0.163379	-0.087234
O10	O	0.934357	0.339966	0.066391
C11	C	0.779214	0.172636	0.000087
C12	C	0.694902	0.170490	0.000078
C13	C	0.891635	-0.058419	0.000103
C14	C	0.871796	-0.193075	0.000097
C15	C	0.661328	0.280008	0.000077
C16	C	0.582106	0.277985	0.000088
C17	C	0.536460	0.166443	0.000092
C18	C	0.570039	0.056917	0.000095
C19	C	0.649259	0.058941	0.000090
C20	C	0.250554	0.048751	0.000115
C21	C	0.171329	0.046735	0.000117
C22	C	0.183402	0.267794	0.000112
C23	C	0.262621	0.269819	0.000107
C24	C	0.296194	0.160293	0.000114
C25	C	0.382094	0.162488	0.000104
C26	C	0.450561	0.164247	0.000096
C27	C	0.926576	-0.267042	0.000103
C28	C	0.906072	-0.406216	0.000097
C29	C	1.053441	0.154108	0.000118
C30	C	1.137754	0.156254	0.000123
C31	C	0.941021	0.385163	0.000103
C32	C	0.960860	0.519819	0.000103
N33	N	0.916307	0.163353	0.206652
N34	N	0.916354	0.163381	-0.206445
C35	C	0.956525	0.080770	0.248375
C36	C	0.956529	0.080769	0.331828
C37	C	0.916319	0.163358	0.373555
C38	C	0.876096	0.245945	0.331826
C39	C	0.876088	0.245939	0.248376
C40	C	0.876127	0.245969	0.668374
C41	C	0.876140	0.245971	0.751830
C42	C	0.956568	0.080799	0.751826
C43	C	0.956560	0.080793	0.668375
C44	C	0.916334	0.163375	0.626653
C45	C	0.916329	0.163374	0.536165
C46	C	0.916328	0.163366	0.464042
H47	H	0.698488	0.370838	0.000073
H48	H	0.277879	-0.040432	0.000121
C49	C	0.787929	-0.246704	0.000086
C50	C	0.756753	-0.329717	0.068924
C51	C	0.672884	-0.383342	0.068912
C52	C	0.620190	-0.353953	0.000063
C53	C	0.651365	-0.270935	-0.068780
C54	C	0.735234	-0.217310	-0.068768
H55	H	0.795760	-0.351476	0.119895
H56	H	0.649806	-0.444797	0.119875
H57	H	0.558105	-0.393649	0.000055
H58	H	0.612358	-0.249176	-0.119751
H59	H	0.758312	-0.155855	-0.119731
C60	C	1.000757	-0.010081	0.202479
C61	C	1.000754	-0.010094	0.110687
C62	C	1.044986	-0.100952	0.064794
C63	C	1.089221	-0.191796	0.110693
C64	C	1.089225	-0.191787	0.202491
C65	C	1.044994	-0.100929	0.248384
H66	H	0.968008	0.057158	0.076705
H67	H	1.044982	-0.100958	-0.003161
H68	H	1.121964	-0.259054	0.076720
H69	H	1.121972	-0.259038	0.236473
H70	H	1.044997	-0.100923	0.316339
H71	H	0.988654	-0.227333	0.000115
C72	C	1.000789	-0.010057	0.622474
C73	C	1.045026	-0.100907	0.668366
C74	C	1.089253	-0.191762	0.622466
C75	C	1.089244	-0.191768	0.530674
C76	C	1.045006	-0.100915	0.484776
C77	C	1.000778	-0.010059	0.530676
H78	H	1.045034	-0.100906	0.736321
H79	H	1.122001	-0.259017	0.656443
H80	H	1.121984	-0.259024	0.496696
H81	H	1.044998	-0.100916	0.416821
H82	H	0.968030	0.057196	0.496700
C83	C	1.000811	-0.010056	0.797721
C84	C	0.958619	-0.102775	0.855097
C85	C	1.002863	-0.193624	0.900989
C86	C	1.089299	-0.191754	0.889504
C87	C	1.131495	-0.099031	0.832125
C88	C	1.087251	-0.008182	0.786233
H89	H	0.894630	-0.104163	0.863601
H90	H	0.971627	-0.262264	0.943465
H91	H	1.122051	-0.259006	0.923476
H92	H	1.195484	-0.097643	0.823621
H93	H	1.118488	0.060457	0.743757
C94	C	0.519830	-0.065781	0.000100
C95	C	0.463706	-0.097575	0.068944
C96	C	0.413498	-0.220276	0.068947
C97	C	0.419412	-0.311182	0.000105
C98	C	0.475538	-0.279390	-0.068744
C99	C	0.525746	-0.156690	-0.068746
H100	H	0.459326	-0.030279	0.119910
H101	H	0.371950	-0.243809	0.119914
H102	H	0.382245	-0.402012	0.000107
H103	H	0.479918	-0.346686	-0.119709
H104	H	0.567294	-0.133156	-0.119713
H105	H	0.156058	0.356975	0.000111
H106	H	0.299783	0.360648	0.000100
H107	H	0.989277	0.013523	0.365798
C108	C	0.831900	0.336817	0.797733
C109	C	0.787650	0.427652	0.751844
C110	C	0.743414	0.518493	0.797747
C111	C	0.743429	0.518500	0.889539
C112	C	0.787682	0.427662	0.935434
C113	C	0.831917	0.336821	0.889530
H114	H	0.787637	0.427650	0.683889
H115	H	0.710656	0.585738	0.763772
H116	H	0.710684	0.585746	0.923520
H117	H	0.787694	0.427664	1.003389
H118	H	0.864675	0.269576	0.923505
C119	C	0.831863	0.336797	0.377722
C120	C	0.831913	0.336871	0.469515
C121	C	0.787682	0.427729	0.515408
C122	C	0.743400	0.518512	0.469509
C123	C	0.743349	0.518441	0.377711
C124	C	0.787580	0.427583	0.331818
H125	H	0.864695	0.269665	0.503497
H126	H	0.787720	0.427781	0.583363
H127	H	0.710657	0.585770	0.503481
H128	H	0.710567	0.585647	0.343729
H129	H	0.787542	0.427531	0.263863
H130	H	0.554775	0.367165	0.000086
H131	H	0.134166	-0.044102	0.000122
H132	H	0.676594	-0.030240	0.000090
H133	H	0.843990	-0.445918	0.000085
H134	H	1.022943	-0.440480	0.000050
H135	H	0.843375	0.313212	0.634410
H136	H	0.843337	0.313186	0.214405
