data_functionalizedCrystal
_audit_creation_method	'MofGen! by Chris Wilmer'
_symmetry_space_group_name_H-M	'P1'
_symmetry_Int_Tables_number	1
_symmetry_cell_setting	triclinic
loop_
_symmetry_equiv_pos_as_xyz
  x,y,z
_cell_length_a	17.019282
_cell_length_b	12.837942
_cell_length_c	11.295483
_cell_angle_alpha	85.469583
_cell_angle_beta	89.768720
_cell_angle_gamma	90.904236
loop_
_atom_site_label
_atom_site_type_symbol
_atom_site_fract_x
_atom_site_fract_y
_atom_site_fract_z
O1	O	1.056151	-0.132635	0.009317
O2	O	1.556151	0.367365	0.509317
O3	O	0.828880	-0.147845	-0.013999
O4	O	1.328880	0.352155	0.486001
O5	O	0.937476	0.010691	-0.002850
O6	O	1.437476	0.510691	0.497150
O7	O	0.947555	-0.291171	-0.001831
O8	O	1.447555	0.208829	0.498169
O9	O	0.927936	-0.003212	0.194221
O10	O	1.427936	0.496788	0.694221
O11	O	0.819340	-0.161748	0.183073
O12	O	1.319340	0.338252	0.683073
O13	O	1.046611	-0.146538	0.206389
O14	O	1.546611	0.353462	0.706389
Cu15	Cu	0.932105	-0.155413	0.212725
Cu16	Cu	1.432105	0.344587	0.712725
Cu17	Cu	0.943386	-0.138971	-0.020335
Cu18	Cu	1.443386	0.361029	0.479665
O19	O	0.938015	-0.305074	0.195240
O20	O	1.438015	0.194926	0.695240
C21	C	0.794818	-0.153948	0.081532
C22	C	1.294818	0.346052	0.581532
C23	C	0.707537	-0.151407	0.072578
C24	C	1.207537	0.348593	0.572578
C25	C	0.661337	-0.157789	0.175797
C26	C	1.161337	0.342211	0.675797
C27	C	0.579328	-0.155386	0.167387
C28	C	1.079328	0.344614	0.667387
C29	C	0.543520	-0.146607	0.055756
C30	C	1.043520	0.353393	0.555756
C31	C	0.589727	-0.140221	-0.047471
C32	C	1.089727	0.359779	0.452529
C33	C	0.671735	-0.142617	-0.039060
C34	C	1.171735	0.357383	0.460940
C35	C	0.296169	-0.138986	0.024986
C36	C	0.796169	0.361014	0.524986
C37	C	0.214154	-0.136593	0.016582
C38	C	0.714154	0.363407	0.516582
C39	C	0.203761	-0.151756	0.231442
C40	C	0.703761	0.348244	0.731442
C41	C	0.285771	-0.154158	0.239843
C42	C	0.785771	0.345842	0.739843
C43	C	0.331971	-0.147766	0.136616
C44	C	0.831971	0.352234	0.636616
C45	C	0.459693	-0.144153	0.047157
C46	C	0.959693	0.355847	0.547157
C47	C	0.415796	-0.150213	0.145216
C48	C	0.915796	0.349787	0.645216
C49	C	0.929301	0.042379	0.095335
C50	C	1.429301	0.542379	0.595335
C51	C	0.919146	0.157514	0.094292
C52	C	1.419146	0.657514	0.594292
C53	C	1.080673	-0.140435	0.110856
C54	C	1.580673	0.359565	0.610856
C55	C	1.167954	-0.142976	0.119802
C56	C	1.667954	0.357024	0.619802
C57	C	0.946190	-0.336762	0.097052
C58	C	1.446190	0.163238	0.597052
C59	C	0.956345	-0.451897	0.098088
C60	C	1.456345	0.048103	0.598088
N61	N	0.924175	-0.166976	0.376647
N62	N	1.424175	0.333024	0.876647
C63	C	1.041227	0.397781	0.106791
C64	C	1.541227	0.897781	0.606791
C65	C	1.031689	0.505961	0.105811
C66	C	1.531689	1.005961	0.605811
C67	C	0.890534	0.482057	0.091342
C68	C	1.390534	0.982057	0.591342
C69	C	0.900072	0.373877	0.092322
C70	C	1.400072	0.873877	0.592322
C71	C	0.975420	0.331743	0.100049
C72	C	1.475420	0.831743	0.600049
C73	C	0.984957	0.223560	0.101038
C74	C	1.484957	0.723560	0.601038
C75	C	0.843803	0.199659	0.086561
C76	C	1.343803	0.699659	0.586561
C77	C	0.834266	0.307839	0.085580
C78	C	1.334266	0.807839	0.585580
N79	N	0.951321	-0.127399	-0.184257
N80	N	1.451321	0.372601	0.315743
C81	C	1.008398	-0.044099	0.634583
C82	C	1.508398	0.455901	1.134583
C83	C	1.002411	-0.052845	0.758632
C84	C	1.502411	0.447155	1.258632
C85	C	0.906213	-0.193209	0.748796
C86	C	1.406213	0.306791	1.248796
C87	C	0.912199	-0.184463	0.624747
C88	C	1.412199	0.315537	1.124747
C89	C	0.963294	-0.109906	0.567645
C90	C	1.463294	0.390094	1.067645
C91	C	0.969284	-0.101166	0.443594
C92	C	1.469284	0.398834	0.943594
C93	C	0.873082	-0.241524	0.433761
C94	C	1.373082	0.258476	0.933761
C95	C	0.867095	-0.250271	0.557810
C96	C	1.367095	0.249729	1.057810
H97	H	0.166137	-0.156958	0.315483
H98	H	0.666137	0.343042	0.815483
N99	N	1.098917	0.573403	0.112691
N100	N	1.598917	1.073403	0.612691
N101	N	1.166185	0.535765	0.119584
N102	N	1.666185	1.035765	0.619584
H103	H	1.213668	0.583396	0.124442
H104	H	1.713668	1.083396	0.624442
H105	H	1.039138	0.000744	0.813130
H106	H	1.539138	0.500744	1.313130
H107	H	1.102578	0.363474	0.113094
H108	H	1.602578	0.863474	0.613094
N109	N	0.532118	-0.161911	0.272807
N110	N	1.032118	0.338089	0.772807
N111	N	0.486968	-0.089259	0.292278
N112	N	0.986968	0.410741	0.792278
H113	H	0.453623	-0.093870	0.366732
H114	H	0.953623	0.406130	0.866732
H115	H	0.829190	0.516383	0.085038
H116	H	1.329190	1.016383	0.585038
H117	H	0.314920	-0.161302	0.330745
H118	H	0.814920	0.338698	0.830745
H119	H	0.560566	-0.133066	-0.138363
H120	H	1.060566	0.366934	0.361637
N121	N	0.854020	-0.269344	0.807154
N122	N	1.354020	0.230656	1.307154
N123	N	0.848679	-0.277131	0.917912
N124	N	1.348679	0.222869	1.417912
H125	H	0.811816	-0.330901	0.959130
H126	H	1.311816	0.169099	1.459130
N127	N	0.177575	-0.127598	-0.097450
N128	N	0.677575	0.372402	0.402550
N129	N	0.134747	-0.051555	-0.125910
N130	N	0.634747	0.448445	0.374090
H131	H	0.108910	-0.045202	-0.206440
H132	H	0.608910	0.454798	0.293560
N133	N	0.757309	0.350901	0.077678
N134	N	1.257309	0.850901	0.577678
N135	N	0.748802	0.447491	0.076797
N136	N	1.248802	0.947491	0.576797
H137	H	0.694450	0.477904	0.071217
H138	H	1.194450	0.977904	0.571217
N139	N	1.060542	0.032071	0.576177
N140	N	1.560542	0.532071	1.076177
N141	N	1.034108	0.101437	0.503915
N142	N	1.534108	0.601437	1.003915
H143	H	1.070922	0.155237	0.462639
H144	H	1.570922	0.655237	0.962639
N145	N	0.776586	0.132186	0.079685
N146	N	1.276586	0.632186	0.579685
N147	N	0.785109	0.035598	0.080570
N148	N	1.285109	0.535598	0.580570
H149	H	0.737638	-0.012057	0.075719
H150	H	1.237638	0.487943	0.575719
N151	N	0.343342	-0.132456	-0.080466
N152	N	0.843342	0.367544	0.419534
N153	N	0.311357	-0.124621	-0.180127
N154	N	0.811357	0.375379	0.319873
H155	H	0.344676	-0.120009	-0.254609
H156	H	0.844676	0.379991	0.245391
N157	N	1.061925	0.180534	0.108943
N158	N	1.561925	0.680534	0.608943
N159	N	1.120673	0.239514	0.114963
N160	N	1.620673	0.739514	0.614963
H161	H	1.175035	0.209131	0.120546
H162	H	1.675035	0.709131	0.620546
H163	H	0.825492	-0.310971	0.604316
H164	H	1.325492	0.189029	1.104316
H165	H	0.709350	-0.137422	-0.123112
H166	H	1.209350	0.362578	0.376888
N167	N	1.021429	-0.024948	0.385276
N168	N	1.521429	0.475052	0.885276
N169	N	1.061660	0.033844	0.445059
N170	N	1.561660	0.533844	0.945059
H171	H	1.098469	0.087701	0.403874
H172	H	1.598469	0.587701	0.903874
N173	N	0.827020	-0.308754	0.365367
N174	N	1.327020	0.191246	0.865367
N175	N	0.832377	-0.300945	0.254612
N176	N	1.332377	0.199055	0.754612
H177	H	0.799851	-0.348429	0.206307
H178	H	1.299851	0.151571	0.706307
H179	H	0.444954	-0.157355	0.236105
H180	H	0.944954	0.342645	0.736105
N181	N	0.697896	-0.166781	0.289837
N182	N	1.197896	0.333219	0.789837
N183	N	0.656632	-0.172487	0.381987
N184	N	1.156632	0.327513	0.881987
H185	H	0.682450	-0.178841	0.462532
H186	H	1.182450	0.321159	0.962532
H187	H	0.430529	-0.137005	-0.043733
H188	H	0.930529	0.362995	0.456267
