data_functionalizedCrystal
_audit_creation_method	'MofGen! by Chris Wilmer'
_symmetry_space_group_name_H-M	'P1'
_symmetry_Int_Tables_number	1
_symmetry_cell_setting	triclinic
loop_
_symmetry_equiv_pos_as_xyz
  x,y,z
_cell_length_a	12.811415
_cell_length_b	14.044220
_cell_length_c	11.295692
_cell_angle_alpha	94.226647
_cell_angle_beta	89.158222
_cell_angle_gamma	88.595932
loop_
_atom_site_label
_atom_site_type_symbol
_atom_site_fract_x
_atom_site_fract_y
_atom_site_fract_z
O1	O	0.244475	1.251473	-0.125291
O2	O	0.235406	0.975523	-0.124342
O3	O	0.088926	1.121383	-0.108503
O4	O	0.390955	1.105613	-0.141130
O5	O	0.102514	1.132718	0.088074
O6	O	0.248994	0.986858	0.072235
O7	O	0.258063	1.262808	0.071286
Cu8	Cu	0.254770	1.125868	0.089710
Cu9	Cu	0.238700	1.112463	-0.142766
O10	O	0.404543	1.116948	0.055447
C11	C	0.238231	0.945885	-0.025629
C12	C	0.226392	0.840685	-0.024362
C13	C	0.204750	0.648074	-0.022000
C14	C	0.288714	0.590251	-0.031066
C15	C	0.276672	0.483076	-0.029752
C16	C	0.216790	0.755259	-0.023314
C17	C	0.056834	1.126515	-0.006017
C18	C	-0.059038	1.124906	0.006492
C19	C	-0.291578	1.109507	-0.184336
C20	C	-0.400450	1.107995	-0.172589
C21	C	-0.385656	1.120364	0.041733
C22	C	-0.276784	1.121875	0.029985
C23	C	-0.229749	1.116448	-0.083053
C24	C	-0.120875	1.117967	-0.094799
C25	C	-0.106083	1.130328	0.119521
C26	C	-0.214955	1.128816	0.131269
C27	C	0.436636	1.111816	-0.047042
C28	C	0.552507	1.113425	-0.059558
C29	C	0.255238	1.292446	-0.027430
C30	C	0.267077	1.397646	-0.028705
N31	N	0.266072	1.135303	0.253220
N32	N	0.227390	1.103035	-0.306276
C33	C	0.347487	1.203370	0.431411
C34	C	0.338939	1.196210	0.307675
C35	C	0.201751	1.081551	0.322512
C36	C	0.210299	1.088711	0.446248
C37	C	0.283169	1.149623	0.500694
C38	C	0.291711	1.156788	0.624433
C39	C	0.154529	1.042125	0.639267
C40	C	0.145981	1.034965	0.515531
H41	H	0.123829	0.617088	-0.013252
C42	C	-0.038061	1.137966	0.230941
N43	N	0.013173	1.143722	0.314859
H44	H	0.391316	1.239973	0.251269
H45	H	0.351043	1.206388	0.668760
C46	C	0.083773	0.983000	0.715489
N47	N	0.030480	0.938471	0.772900
H48	H	-0.082582	1.113551	-0.186840
H49	H	0.406814	1.252973	0.475742
H50	H	0.369642	0.621239	-0.039814
C51	C	0.121336	1.014818	0.262629
N52	N	0.060668	0.964652	0.217534
C53	C	-0.266705	1.134782	0.255604
N54	N	-0.305683	1.139277	0.349256
H55	H	0.086655	0.985369	0.471184
H56	H	-0.253282	1.105097	-0.276376
H57	H	-0.450788	1.102340	-0.255065
H58	H	-0.423970	1.124774	0.133763
