data_functionalizedCrystal
_audit_creation_method	'MofGen! by Chris Wilmer'
_symmetry_space_group_name_H-M	'P1'
_symmetry_Int_Tables_number	1
_symmetry_cell_setting	triclinic
loop_
_symmetry_equiv_pos_as_xyz
  x,y,z
_cell_length_a	12.759401
_cell_length_b	16.120444
_cell_length_c	12.759393
_cell_angle_alpha	87.135249
_cell_angle_beta	90.020938
_cell_angle_gamma	92.928028
loop_
_atom_site_label
_atom_site_type_symbol
_atom_site_fract_x
_atom_site_fract_y
_atom_site_fract_z
Zn1	Zn	1.584977	-0.331834	0.615188
Zn2	Zn	1.575922	-0.471270	0.448403
Zn3	Zn	1.409273	-0.331878	0.439526
Zn4	Zn	1.400325	-0.471211	0.624037
O5	O	1.492624	-0.401548	0.531788
O6	O	1.730796	-0.350336	0.593076
O7	O	1.553771	-0.452822	0.300207
O8	O	1.440114	-0.215206	0.455410
O9	O	1.724144	-0.452779	0.470539
O10	O	1.569203	-0.215173	0.584468
O11	O	1.431334	-0.350411	0.293685
O12	O	1.261065	-0.350355	0.463990
O13	O	1.424865	-0.452680	0.769881
O14	O	1.254492	-0.452723	0.599549
O15	O	1.560527	-0.350279	0.763380
O16	O	1.545095	-0.587928	0.479119
O17	O	1.416085	-0.587885	0.608156
C18	C	1.219658	-0.401538	0.531767
C19	C	1.102880	-0.401554	0.531784
C20	C	1.478665	-0.618157	0.545584
C21	C	1.472789	-0.710823	0.551521
C22	C	1.044617	-0.454938	0.602269
C23	C	0.934893	-0.454941	0.602290
C24	C	0.941704	-0.348174	0.461332
C25	C	1.051426	-0.348167	0.461317
C26	C	1.523362	-0.921766	0.501216
C27	C	1.462081	-0.880479	0.562372
C28	C	1.468041	-0.786073	0.556333
C29	C	1.517404	-1.016180	0.507254
C30	C	1.766657	-0.401559	0.531811
C31	C	1.883433	-0.401564	0.531820
C32	C	1.492708	-0.401468	0.805817
C33	C	1.492744	-0.401434	0.922591
C34	C	1.506667	-0.184094	0.517962
C35	C	1.512651	-0.091428	0.512070
C36	C	1.492605	-0.401568	0.258822
C37	C	1.492788	-0.401367	0.142033
C38	C	1.563389	-0.348106	0.974069
C39	C	1.563409	-0.348070	1.083791
C40	C	1.422135	-0.454698	1.090548
C41	C	1.422111	-0.454729	0.980828
H42	H	0.887460	-0.498410	0.659687
C43	C	1.115526	-0.289443	0.383777
C44	C	1.188600	-0.325488	0.303510
C45	C	1.252702	-0.266765	0.225979
C46	C	1.243730	-0.171997	0.228713
C47	C	1.170653	-0.135947	0.308983
C48	C	1.106551	-0.194670	0.386515
H49	H	1.195245	-0.395645	0.301483
H50	H	1.306798	-0.293452	0.166557
H51	H	1.291182	-0.128527	0.171320
H52	H	1.164008	-0.065790	0.311011
H53	H	1.052455	-0.167983	0.445936
H54	H	0.899797	-0.304709	0.403958
H55	H	1.620934	-0.304643	1.125700
C56	C	1.385148	-0.928503	0.639226
C57	C	1.314151	-0.880760	0.710068
C58	C	1.237218	-0.928788	0.786915
C59	C	1.231284	-1.024559	0.792920
C60	C	1.302284	-1.072308	0.722075
C61	C	1.379216	-1.024280	0.645228
H62	H	1.318542	-0.809860	0.705625
H63	H	1.184659	-0.893441	0.839359
H64	H	1.174334	-1.060113	0.849807
H65	H	1.297893	-1.143208	0.726518
H66	H	1.431775	-1.059627	0.592784
C67	C	1.344466	-0.513333	1.154620
C68	C	1.346932	-0.608112	1.145555
C69	C	1.269271	-0.666755	1.209629
C70	C	1.189142	-0.630618	1.282767
C71	C	1.186673	-0.535833	1.291835
C72	C	1.264334	-0.477191	1.227761
H73	H	1.406251	-0.634868	1.091411
H74	H	1.271099	-0.736921	1.202916
H75	H	1.131652	-0.674028	1.330198
H76	H	1.127354	-0.509078	1.345979
H77	H	1.262506	-0.407025	1.234474
C78	C	1.344393	-0.513394	0.924198
C79	C	1.225402	-0.506577	0.938837
C80	C	1.147682	-0.565237	0.882209
C81	C	1.188955	-0.630714	0.810942
C82	C	1.307953	-0.637534	0.796300
C83	C	1.385672	-0.578874	0.852928
H84	H	1.194844	-0.458104	0.991596
H85	H	1.059592	-0.560188	0.893048
H86	H	1.131423	-0.674137	0.769022
H87	H	1.338510	-0.686006	0.743541
H88	H	1.473762	-0.583923	0.842088
C89	C	1.600278	-0.873742	0.424357
C90	C	1.606197	-0.777971	0.418351
C91	C	1.683110	-0.729935	0.341491
C92	C	1.754104	-0.777671	0.270637
C93	C	1.748188	-0.873447	0.276639
C94	C	1.671275	-0.921483	0.353499
H95	H	1.553641	-0.742629	0.470804
H96	H	1.687489	-0.659035	0.337048
H97	H	1.811039	-0.742112	0.213740
H98	H	1.800744	-0.908789	0.224186
H99	H	1.666896	-0.992383	0.357943
H100	H	1.620900	-0.304707	0.926656
H101	H	1.086508	-0.498406	0.659650
