data_functionalizedCrystal
_audit_creation_method	'MofGen! by Chris Wilmer'
_symmetry_space_group_name_H-M	'P1'
_symmetry_Int_Tables_number	1
_symmetry_cell_setting	triclinic
loop_
_symmetry_equiv_pos_as_xyz
  x,y,z
_cell_length_a	14.519709
_cell_length_b	18.366186
_cell_length_c	19.288865
_cell_angle_alpha	89.988521
_cell_angle_beta	83.408197
_cell_angle_gamma	89.996571
loop_
_atom_site_label
_atom_site_type_symbol
_atom_site_fract_x
_atom_site_fract_y
_atom_site_fract_z
O1	O	1.223296	-0.060464	0.091051
O2	O	0.954751	-0.060487	0.101773
O3	O	1.096783	-0.060460	-0.004690
O4	O	1.081264	-0.060490	0.197514
O5	O	1.096759	0.060639	-0.004696
O6	O	0.954727	0.060613	0.101768
O7	O	1.223272	0.060636	0.091046
Zn8	Zn	1.088995	0.079851	0.096406
Zn9	Zn	1.089027	-0.079702	0.096413
O10	O	1.081240	0.060609	0.197509
C11	C	0.920382	0.000060	0.101271
C12	C	0.818010	0.000052	0.099773
N13	N	1.088981	0.188742	0.096401
N14	N	1.089049	-0.188594	0.096413
C15	C	0.443150	0.000086	0.094261
C16	C	0.547448	0.000076	0.095792
C17	C	0.630577	0.000068	0.097017
C18	C	0.734882	0.000060	0.098548
C19	C	1.257640	0.000087	0.091548
C20	C	1.360012	0.000091	0.093045
C21	C	1.096272	0.000092	-0.030571
C22	C	1.094773	0.000098	-0.107680
C23	C	1.151893	0.226855	0.049282
C24	C	1.151899	0.303082	0.049279
C25	C	1.089001	0.341195	0.096406
C26	C	1.026077	0.303074	0.143529
C27	C	1.026067	0.226847	0.143526
C28	C	1.076656	0.461945	0.159650
C29	C	1.076672	0.538170	0.159654
C30	C	1.089027	0.576303	0.096415
C31	C	1.101385	0.538201	0.033170
C32	C	1.101375	0.461974	0.033167
C33	C	1.089005	0.423850	0.096415
C34	C	1.151949	0.697070	0.049289
C35	C	1.151949	0.773299	0.049285
C36	C	1.026131	0.773289	0.143541
C37	C	1.026128	0.697061	0.143539
C38	C	1.089041	0.658956	0.096414
C39	C	1.178111	0.000109	-0.152077
C40	C	1.176702	0.000097	-0.224529
C41	C	1.091951	0.000089	-0.252581
C42	C	1.008602	0.000074	-0.208175
C43	C	1.010013	0.000079	-0.135725
C44	C	1.025319	0.042502	-0.361110
C45	C	1.023911	0.042502	-0.433560
C46	C	1.087597	0.000073	-0.476043
C47	C	1.152705	-0.042348	-0.446068
C48	C	1.154116	-0.042343	-0.373618
C49	C	1.090412	0.000084	-0.331141
C50	C	1.169414	0.000070	-0.599000
C51	C	1.168002	0.000054	-0.671454
C52	C	0.999899	0.000038	-0.655098
C53	C	1.001314	0.000047	-0.582647
C54	C	1.086073	0.000066	-0.554602
C55	C	1.081751	0.000056	0.223390
C56	C	1.083250	0.000045	0.300499
H57	H	1.203119	0.195832	0.010908
C58	C	1.262650	0.000080	-0.568149
N59	N	1.332876	0.000085	-0.544914
H60	H	0.973456	0.077057	-0.326526
H61	H	1.111435	0.430955	-0.018329
C62	C	0.956985	0.655136	0.195425
N63	N	0.904923	0.623558	0.234523
H64	H	0.970893	0.077039	-0.457959
H65	H	1.066616	0.569187	0.211151
C66	C	1.225727	-0.089010	-0.340648
N67	N	1.279662	-0.124164	-0.315815
C68	C	1.063064	0.420008	0.229222
N69	N	1.052827	0.388421	0.281622
C70	C	0.956885	0.344999	0.195366
N71	N	0.904765	0.376577	0.234410
C72	C	0.915376	0.000071	-0.239034
N73	N	0.845155	0.000068	-0.262277
H74	H	0.942147	0.000070	-0.099576
H75	H	1.235869	0.000058	-0.707601
H76	H	0.974835	0.195816	0.181896
C77	C	0.906672	0.000027	-0.685952
N78	N	0.836450	0.000017	-0.709194
C79	C	1.271349	0.000124	-0.121232
N80	N	1.341577	0.000133	-0.097999
C81	C	1.268384	0.000114	-0.273374
N82	N	1.337439	0.000128	-0.310162
H83	H	1.204564	-0.076898	-0.480657
C84	C	1.114974	0.580140	-0.036398
N85	N	1.125210	0.611733	-0.088795
H86	H	1.203131	0.334119	0.010907
H87	H	0.974915	0.804320	0.181911
H88	H	0.933451	0.000042	-0.546498
H89	H	1.203175	0.666044	0.010915
H90	H	1.203177	0.804331	0.010912
