data_functionalizedCrystal
_audit_creation_method	'MofGen! by Chris Wilmer'
_symmetry_space_group_name_H-M	'P1'
_symmetry_Int_Tables_number	1
_symmetry_cell_setting	triclinic
loop_
_symmetry_equiv_pos_as_xyz
  x,y,z
_cell_length_a	6.817900
_cell_length_b	9.582860
_cell_length_c	11.102193
_cell_angle_alpha	90.976050
_cell_angle_beta	108.604059
_cell_angle_gamma	111.206767
loop_
_atom_site_label
_atom_site_type_symbol
_atom_site_fract_x
_atom_site_fract_y
_atom_site_fract_z
V1	V	-4.125312	-0.207066	-0.396025
O2	O	-4.069885	0.009939	-0.388726
O3	O	-4.115648	-0.410567	-0.393086
O4	O	-4.101874	-0.203886	-0.568850
O5	O	-4.083755	-0.198173	-0.211745
V6	V	-4.600686	-0.181109	-0.374011
O7	O	-4.404446	-0.264005	-0.444313
O8	O	-4.771749	-0.124171	-0.325723
O9	O	-4.387142	0.022391	-0.376950
O10	O	-4.773509	-0.398115	-0.381310
O11	O	-4.759639	-0.190003	-0.558291
O12	O	-4.400917	-0.184290	-0.201186
C13	C	-3.969265	-0.460176	-0.386779
C14	C	-4.042817	-0.626541	-0.385528
C15	C	-3.951693	-0.196532	-0.610982
C16	C	-4.014070	-0.195278	-0.752266
C17	C	-4.152662	-0.469381	-0.788284
C18	C	-4.251254	-0.605838	-0.872667
C19	C	-4.309861	-0.604651	-1.005414
C20	C	-4.269876	-0.466994	-1.053780
C21	C	-4.171285	-0.330538	-0.969398
C22	C	-4.112678	-0.331739	-0.836649
C23	C	-4.032708	-0.056438	-0.933380
C24	C	-3.974085	-0.057621	-0.800632
C25	C	-3.992723	0.081219	-0.981746
C26	C	-3.894115	0.217679	-0.897362
C27	C	-3.835505	0.216487	-0.764608
C28	C	-3.875493	0.078835	-0.716249
C29	C	-4.196869	0.071992	-0.383254
C30	C	-4.102556	0.238356	-0.384513
C31	C	-4.214440	-0.191649	-0.159047
C32	C	-4.131300	-0.192895	-0.017762
H33	H	-4.104917	-0.470360	-0.680195
H34	H	-3.755237	0.327607	-0.695909
H35	H	-4.283808	-0.717916	-0.833272
O36	O	-3.855349	0.351255	-0.944556
C37	C	-3.928294	0.323037	-1.079818
H38	H	-3.931769	0.208012	-1.111179
H39	H	-4.104038	0.323286	-1.122313
C40	C	-3.761610	0.588536	-1.089285
C41	C	-3.765860	0.447265	-1.127802
H42	H	-3.661421	0.665168	-1.118886
H43	H	-3.712472	0.607548	-0.998156
H44	H	-3.908072	0.588722	-1.124700
H45	H	-3.619405	0.447075	-1.092374
H46	H	-3.814969	0.428255	-1.218926
O47	O	-3.818341	0.077950	-0.587262
C48	C	-3.722808	0.227900	-0.523151
H49	H	-3.653251	0.308802	-0.587201
H50	H	-3.856792	0.256741	-0.500606
C51	C	-3.616850	0.144088	-0.318385
C52	C	-3.531402	0.243453	-0.397049
H53	H	-3.498789	0.153682	-0.240596
H54	H	-3.681219	0.043063	-0.361576
H55	H	-3.728503	0.168133	-0.299611
H56	H	-3.419772	0.219394	-0.415834
H57	H	-3.467009	0.344475	-0.353857
O58	O	-4.405897	-0.737309	-1.087273
C59	C	-4.609076	-0.828071	-1.071962
H60	H	-4.605274	-0.792348	-0.972504
H61	H	-4.755206	-0.813366	-1.148474
C62	C	-4.643425	-1.039208	-1.208389
C63	C	-4.638748	-0.995341	-1.086228
H64	H	-4.661736	-1.142388	-1.217195
H65	H	-4.506544	-0.978059	-1.218709
H66	H	-4.765200	-1.026942	-1.272136
H67	H	-4.516958	-1.007589	-1.022485
H68	H	-4.775610	-1.056496	-1.075898
H69	H	-4.040466	0.082175	-1.089837
H70	H	-4.317630	-0.466041	-1.161872
