data_functionalizedCrystal
_audit_creation_method	'MofGen! by Chris Wilmer'
_symmetry_space_group_name_H-M	'P1'
_symmetry_Int_Tables_number	1
_symmetry_cell_setting	triclinic
loop_
_symmetry_equiv_pos_as_xyz
  x,y,z
_cell_length_a	19.805407
_cell_length_b	12.759394
_cell_length_c	19.805399
_cell_angle_alpha	89.974626
_cell_angle_beta	89.983114
_cell_angle_gamma	90.014837
loop_
_atom_site_label
_atom_site_type_symbol
_atom_site_fract_x
_atom_site_fract_y
_atom_site_fract_z
Zn1	Zn	1.034772	-0.418276	-0.382737
Zn2	Zn	1.034715	-0.593974	-0.269556
Zn3	Zn	0.921592	-0.418310	-0.269561
Zn4	Zn	0.921573	-0.593914	-0.382702
O5	O	0.978163	-0.506118	-0.326139
O6	O	1.129481	-0.441594	-0.367735
O7	O	1.019693	-0.570711	-0.174840
O8	O	0.936637	-0.271284	-0.284591
O9	O	1.129439	-0.570679	-0.284581
O10	O	1.019790	-0.271260	-0.367740
O11	O	0.936582	-0.441651	-0.174844
O12	O	0.826873	-0.441593	-0.284558
O13	O	0.936605	-0.570576	-0.477423
O14	O	0.826859	-0.570608	-0.367682
O15	O	1.019772	-0.441536	-0.477449
O16	O	1.019675	-0.740987	-0.284548
O17	O	0.936550	-0.740943	-0.367676
C18	C	0.802307	-0.506098	-0.326117
C19	C	0.727075	-0.506115	-0.326124
C20	C	0.978123	-0.779086	-0.326123
C21	C	0.978167	-0.895863	-0.326138
C22	C	0.691741	-0.573395	-0.369336
C23	C	0.621053	-0.573396	-0.369346
C24	C	0.585700	-0.506123	-0.326139
C25	C	0.621038	-0.438836	-0.282924
C26	C	0.691725	-0.438830	-0.282919
C27	C	0.335965	-0.438859	-0.282947
C28	C	0.265273	-0.438873	-0.282954
C29	C	0.265293	-0.573426	-0.369374
C30	C	0.335980	-0.573420	-0.369368
C31	C	0.371312	-0.506129	-0.326157
C32	C	0.447961	-0.506127	-0.326148
C33	C	0.509052	-0.506130	-0.326144
C34	C	1.064790	-0.895855	-0.239641
C35	C	1.108119	-0.950712	-0.196401
C36	C	1.108159	-1.060434	-0.196419
C37	C	1.064866	-1.115301	-0.239684
C38	C	1.021537	-1.060444	-0.282925
C39	C	1.021501	-0.950720	-0.282900
C40	C	0.934919	-1.060451	-0.369424
C41	C	0.934874	-0.950730	-0.369403
C42	C	0.891626	-1.115318	-0.412689
C43	C	0.848292	-1.060461	-0.455927
C44	C	0.848254	-0.950733	-0.455906
C45	C	0.891545	-0.895872	-0.412644
C46	C	1.154706	-0.506139	-0.326161
C47	C	1.229938	-0.506148	-0.326171
C48	C	0.978193	-0.506046	-0.502682
C49	C	0.978205	-0.506014	-0.577914
C50	C	0.978222	-0.232085	-0.326170
C51	C	0.978248	-0.115308	-0.326183
C52	C	0.934942	-0.438807	-0.613260
C53	C	0.934951	-0.438786	-0.683948
C54	C	0.978228	-0.505969	-0.719289
C55	C	1.021494	-0.573184	-0.683939
C56	C	1.021480	-0.573209	-0.613251
C57	C	1.021547	-0.573086	-0.969012
C58	C	1.021559	-0.573054	-1.039704
C59	C	0.935018	-0.438663	-1.039709
C60	C	0.935005	-0.438688	-0.969022
C61	C	0.978268	-0.505907	-0.933677
C62	C	0.978256	-0.505929	-0.857028
C63	C	0.978243	-0.505942	-0.795937
C64	C	0.978173	-0.506115	-0.150283
C65	C	0.978291	-0.505850	-0.075051
H66	H	0.720521	-0.628180	-0.404519
H67	H	0.364724	-0.384075	-0.247756
H68	H	0.899767	-0.383977	-0.940250
H69	H	0.899705	-0.384092	-0.584490
O70	O	0.586593	-0.373580	-0.240978
C71	C	0.516626	-0.387991	-0.250260
H72	H	0.506968	-0.469119	-0.272333
H73	H	0.496589	-0.325752	-0.286379
C74	C	0.492171	-0.278576	-0.154680
C75	C	0.480309	-0.378222	-0.181785
H76	H	0.469767	-0.272546	-0.112443
H77	H	0.539309	-0.268863	-0.148428
H78	H	0.475473	-0.226721	-0.184786
H79	H	0.497014	-0.430074	-0.151684
H80	H	0.433172	-0.387944	-0.188031
O81	O	1.063555	-0.638545	-0.718162
C82	C	1.101750	-0.697852	-0.671805
H83	H	1.074015	-0.701507	-0.621414
H84	H	1.153162	-0.659385	-0.664295
C85	C	1.145554	-0.805170	-0.761270
C86	C	1.111486	-0.809666	-0.699381
H87	H	1.151563	-0.874141	-0.778281
H88	H	1.119824	-0.765211	-0.792503
H89	H	1.188393	-0.773110	-0.755004
H90	H	1.068644	-0.841713	-0.705650
H91	H	1.137209	-0.849633	-0.668150
O92	O	1.150229	-1.113890	-0.154484
C93	C	1.140966	-1.222496	-0.163771
H94	H	1.118769	-1.237442	-0.215988
H95	H	1.104958	-1.253727	-0.123596
C96	C	1.236735	-1.260399	-0.093513
C97	C	1.209477	-1.278757	-0.157649
H98	H	1.278994	-1.295105	-0.089734
H99	H	1.242975	-1.187229	-0.087254
H100	H	1.206722	-1.286425	-0.060041
H101	H	1.239486	-1.252719	-0.191119
H102	H	1.203244	-1.351924	-0.163914
H103	H	0.720493	-0.384038	-0.247734
H104	H	1.064753	-0.806514	-0.239613
H105	H	0.899790	-0.383933	-1.068495
H106	H	0.899719	-0.384063	-0.712724
H107	H	0.891664	-1.204659	-0.412704
O108	O	1.063410	-0.638605	-0.578883
C109	C	1.024849	-0.706452	-0.537970
H110	H	0.971544	-0.712924	-0.559268
H111	H	1.022513	-0.673986	-0.484402
C112	C	1.123360	-0.807728	-0.510711
C113	C	1.057891	-0.815684	-0.536874
H114	H	1.143742	-0.875107	-0.510032
H115	H	1.149340	-0.762016	-0.538273
H116	H	1.121404	-0.780669	-0.466074
H117	H	1.059848	-0.842730	-0.581513
H118	H	1.031912	-0.861403	-0.509320
O119	O	1.150107	-0.897252	-0.154396
C120	C	1.140796	-0.788645	-0.163660
H121	H	1.088544	-0.773698	-0.185781
H122	H	1.180913	-0.757417	-0.199731
C123	C	1.211192	-0.750742	-0.068000
C124	C	1.147013	-0.732384	-0.095165
H125	H	1.215029	-0.716036	-0.025750
H126	H	1.217467	-0.823912	-0.061760
H127	H	1.244616	-0.724718	-0.098066
H128	H	1.113590	-0.758419	-0.065103
H129	H	1.140731	-0.659216	-0.101398
H130	H	1.056801	-0.627766	-1.068477
O131	O	0.586835	-0.638863	-0.411336
C132	C	0.633196	-0.698230	-0.449476
H133	H	0.683575	-0.701793	-0.421745
H134	H	0.640736	-0.659877	-0.500930
C135	C	0.543727	-0.805700	-0.493150
C136	C	0.605600	-0.810083	-0.459088
H137	H	0.526704	-0.874695	-0.499083
H138	H	0.512491	-0.765701	-0.467458
H139	H	0.550018	-0.773734	-0.536025
H140	H	0.599307	-0.842036	-0.416211
H141	H	0.636834	-0.850090	-0.484774
O142	O	0.370217	-0.638802	-0.411404
C143	C	0.323871	-0.698204	-0.449537
H144	H	0.273489	-0.655183	-0.451932
H145	H	0.316336	-0.777950	-0.424664
C146	C	0.413366	-0.766323	-0.518613
C147	C	0.351487	-0.713479	-0.521560
H148	H	0.430401	-0.775750	-0.563039
H149	H	0.444590	-0.726306	-0.492921
H150	H	0.407078	-0.832772	-0.497883
H151	H	0.357777	-0.647027	-0.542282
H152	H	0.320264	-0.753485	-0.547257
O153	O	0.806265	-1.113919	-0.497887
C154	C	0.815609	-1.222524	-0.488648
H155	H	0.837813	-1.237540	-0.436436
H156	H	0.851644	-1.253562	-0.528833
C157	C	0.719875	-1.260504	-0.558931
C158	C	0.747141	-1.278948	-0.494801
H159	H	0.677641	-1.295311	-0.562730
H160	H	0.713581	-1.187335	-0.565158
H161	H	0.749910	-1.286369	-0.592412
H162	H	0.717109	-1.253071	-0.461322
H163	H	0.753428	-1.352114	-0.488569
H164	H	1.064908	-1.204642	-0.239701
O165	O	1.063546	-0.638515	-0.934762
C166	C	1.048729	-0.743221	-0.952010
H167	H	1.022713	-0.745375	-1.003327
H168	H	1.013924	-0.778629	-0.912215
C169	C	1.146660	-0.804209	-0.892258
C170	C	1.114711	-0.806855	-0.955290
H171	H	1.187359	-0.843464	-0.894279
H172	H	1.156641	-0.733667	-0.880635
H173	H	1.117648	-0.833714	-0.859103
H174	H	1.143719	-0.777339	-0.988442
H175	H	1.104735	-0.877394	-0.966918
H176	H	0.812973	-0.906074	-0.491120
H177	H	0.891514	-0.806531	-0.412618
H178	H	0.236516	-0.628213	-0.404562
H179	H	0.236490	-0.384085	-0.247770
