data_functionalizedCrystal
_audit_creation_method	'MofGen! by Chris Wilmer'
_symmetry_space_group_name_H-M	'P1'
_symmetry_Int_Tables_number	1
_symmetry_cell_setting	triclinic
loop_
_symmetry_equiv_pos_as_xyz
  x,y,z
_cell_length_a	6.817900
_cell_length_b	16.305597
_cell_length_c	10.943881
_cell_angle_alpha	93.791282
_cell_angle_beta	108.843448
_cell_angle_gamma	103.455834
loop_
_atom_site_label
_atom_site_type_symbol
_atom_site_fract_x
_atom_site_fract_y
_atom_site_fract_z
V1	V	-4.088168	-0.116692	-0.402995
O2	O	-4.074578	0.005632	-0.394868
O3	O	-4.039202	-0.231405	-0.400677
O4	O	-4.066578	-0.114886	-0.578555
O5	O	-4.047013	-0.111693	-0.215758
V6	V	-4.568396	-0.102062	-0.380547
O7	O	-4.356656	-0.148785	-0.452237
O8	O	-4.750105	-0.069970	-0.331305
O9	O	-4.394155	0.012650	-0.382865
O10	O	-4.699382	-0.224386	-0.388674
O11	O	-4.726948	-0.107062	-0.567783
O12	O	-4.366779	-0.103868	-0.204987
C13	C	-3.883198	-0.259370	-0.394433
C14	C	-3.924628	-0.353148	-0.393708
C15	C	-3.918117	-0.110738	-0.621332
C16	C	-3.981744	-0.110020	-0.764856
C17	C	-4.075359	-0.693907	-0.391135
C18	C	-3.838556	-0.653077	-0.384085
C19	C	-3.795055	-0.555478	-0.384327
C20	C	-4.000579	-0.524853	-0.392412
C21	C	-4.065049	-0.550228	-0.272112
C22	C	-4.106718	-0.647760	-0.271222
C23	C	-4.232918	-0.673078	-0.518139
C24	C	-4.186429	-0.575565	-0.520366
C25	C	-3.958325	-0.429310	-0.393130
C26	C	-4.117615	-0.789449	-0.390408
C27	C	-4.210255	-0.113993	-0.855755
C28	C	-4.113815	-0.041480	-0.921216
C29	C	-4.191508	-0.181204	-0.955116
C30	C	-3.884433	-0.037459	-0.828414
C31	C	-3.962185	-0.177247	-0.862322
C32	C	-3.865578	-0.104713	-0.927736
C33	C	-4.213501	0.040611	-0.389106
C34	C	-4.151311	0.134389	-0.389839
C35	C	-4.178581	-0.108019	-0.162203
C36	C	-4.094192	-0.108732	-0.018677
H37	H	-3.742037	-0.538556	-0.470290
Br38	Br	-4.315443	-0.517142	-0.274292
H39	H	-4.141258	-0.559869	-0.609382
Br40	Br	-4.522292	-0.718060	-0.528831
H41	H	-4.355263	-0.117834	-0.823900
Br42	Br	-4.221622	0.054215	-0.965057
H43	H	-3.897548	-0.234661	-0.835985
Br44	Br	-3.623398	-0.098135	-0.980383
Br45	Br	-3.784059	-0.703872	-0.526779
Br46	Br	-3.639996	-0.675584	-0.231420
Br47	Br	-3.560168	-0.498088	-0.231218
Br48	Br	-4.443790	-0.542511	-0.542658
Br49	Br	-4.408957	-0.282436	-1.046756
H50	H	-3.993041	-0.659266	-0.175670
H51	H	-4.276721	-0.674604	-0.271141
Br52	Br	-3.844110	-0.490884	-0.114233
H53	H	-4.219261	-0.705584	-0.609371
Br54	Br	-3.667197	0.063887	-0.737034
