data_functionalizedCrystal
_audit_creation_method	'MofGen! by Chris Wilmer'
_symmetry_space_group_name_H-M	'P1'
_symmetry_Int_Tables_number	1
_symmetry_cell_setting	triclinic
loop_
_symmetry_equiv_pos_as_xyz
  x,y,z
_cell_length_a	19.188931
_cell_length_b	19.188930
_cell_length_c	17.666332
_cell_angle_alpha	89.990320
_cell_angle_beta	89.995635
_cell_angle_gamma	83.144962
loop_
_atom_site_label
_atom_site_type_symbol
_atom_site_fract_x
_atom_site_fract_y
_atom_site_fract_z
O1	O	-0.926146	-0.087170	0.062931
O2	O	-0.426146	0.412830	0.562931
O3	O	-0.722835	-0.098904	0.062939
O4	O	-0.222835	0.401096	0.562939
O5	O	-0.830357	0.008619	0.062920
O6	O	-0.330357	0.508619	0.562920
O7	O	-0.818623	-0.194693	0.062950
O8	O	-0.318623	0.305307	0.562950
O9	O	-0.830345	0.008621	-0.062977
O10	O	-0.330345	0.508621	0.437023
O11	O	-0.722823	-0.098901	-0.062958
O12	O	-0.222823	0.401099	0.437042
O13	O	-0.926134	-0.087168	-0.062966
O14	O	-0.426134	0.412832	0.437034
Cu15	Cu	-0.824477	-0.093034	-0.074457
Cu16	Cu	-0.324477	0.406966	0.425543
Cu17	Cu	-0.824491	-0.093037	0.074430
Cu18	Cu	-0.324491	0.406963	0.574430
O19	O	-0.818611	-0.194690	-0.062947
O20	O	-0.318611	0.305310	0.437053
C21	C	-0.696818	-0.098522	-0.000008
C22	C	-0.196818	0.401478	0.499992
C23	C	-0.619313	-0.097381	-0.000006
C24	C	-0.119313	0.402619	0.499994
C25	C	-0.066064	-0.089240	0.068612
C26	C	0.433936	0.410760	0.568612
C27	C	-0.138888	-0.090308	0.068615
C28	C	0.361112	0.409692	0.568615
C29	C	-0.175299	-0.090843	-0.000011
C30	C	0.324701	0.409157	0.499989
C31	C	-0.138881	-0.090293	-0.068646
C32	C	0.361119	0.409707	0.431354
C33	C	-0.066059	-0.089218	-0.068647
C34	C	0.433941	0.410782	0.431353
N35	N	-0.284314	-0.132260	-0.051087
N36	N	0.215686	0.367740	0.448913
N37	N	-0.353491	-0.133283	-0.051081
N38	N	0.146509	0.366717	0.448919
C39	C	-0.394707	-0.094080	-0.000012
C40	C	0.105293	0.405920	0.499988
N41	N	-0.364131	-0.053825	0.051062
N42	N	0.135869	0.446175	0.551062
N43	N	-0.294947	-0.052806	0.051059
N44	N	0.205053	0.447194	0.551059
C45	C	-0.254262	-0.092008	-0.000018
C46	C	0.245738	0.407992	0.499982
C47	C	-0.510081	-0.095783	0.068621
C48	C	-0.010081	0.404217	0.568621
C49	C	-0.582907	-0.096847	0.068621
C50	C	-0.082907	0.403153	0.568621
C51	C	-0.582898	-0.096840	-0.068641
C52	C	-0.082898	0.403160	0.431359
C53	C	-0.510074	-0.095769	-0.068639
C54	C	-0.010074	0.404231	0.431361
C55	C	-0.473670	-0.095244	-0.000006
C56	C	0.026330	0.404756	0.499994
N57	N	-0.824472	-0.093032	-0.179177
N58	N	-0.324472	0.406968	0.320823
C59	C	-0.829971	0.034631	-0.000031
C60	C	-0.329971	0.534631	0.499969
C61	C	-0.828831	0.112135	-0.000037
C62	C	-0.328831	0.612135	0.499963
C63	C	0.047849	-0.087550	-0.000017
C64	C	0.547849	0.412450	0.499983
C65	C	-0.029655	-0.088694	-0.000013
C66	C	0.470345	0.411306	0.499987
C67	C	-0.818997	-0.220702	0.000005
C68	C	-0.318997	0.279298	0.500005
C69	C	-0.820138	-0.298207	0.000017
C70	C	-0.320138	0.201793	0.500017
C71	C	-0.891921	0.157059	-0.000043
C72	C	-0.391921	0.657059	0.499957
C73	C	-0.890850	0.229883	-0.000031
C74	C	-0.390850	0.729883	0.499969
C75	C	-0.826684	0.257780	-0.000028
C76	C	-0.326684	0.757780	0.499972
C77	C	-0.763585	0.212846	-0.000017
C78	C	-0.263585	0.712846	0.499983
C79	C	-0.764658	0.140024	-0.000022
C80	C	-0.264658	0.640024	0.499978
N81	N	-0.777632	0.365786	-0.042871
N82	N	-0.277632	0.865786	0.457129
N83	N	-0.776617	0.434964	-0.042868
N84	N	-0.276617	0.934964	0.457132
C85	C	-0.823446	0.477188	-0.000012
C86	C	-0.323446	0.977188	0.499988
N87	N	-0.871339	0.447622	0.042831
N88	N	-0.371339	0.947622	0.542831
N89	N	-0.872356	0.378437	0.042825
N90	N	-0.372356	0.878437	0.542825
C91	C	-0.825513	0.336742	-0.000022
C92	C	-0.325513	0.836742	0.499978
C93	C	-0.885379	0.601077	-0.000004
C94	C	-0.385379	1.101077	0.499996
C95	C	-0.884304	0.673901	0.000012
C96	C	-0.384304	1.173901	0.500012
C97	C	-0.757037	0.656863	0.000019
C98	C	-0.257037	1.156863	0.500019
C99	C	-0.758114	0.584040	0.000009
C100	C	-0.258114	1.084040	0.500009
C101	C	-0.822286	0.556151	-0.000006
C102	C	-0.322286	1.056151	0.499994
C103	C	-0.872114	-0.045436	-0.781235
C104	C	-0.372114	0.454564	-0.281235
C105	C	-0.872115	-0.045438	-0.701988
C106	C	-0.372115	0.454562	-0.201988
C107	C	-0.824492	-0.093031	-0.662358
C108	C	-0.324492	0.406969	-0.162358
C109	C	-0.776876	-0.140638	-0.701983
C110	C	-0.276876	0.359362	-0.201983
C111	C	-0.776881	-0.140639	-0.781229
C112	C	-0.276881	0.359361	-0.281229
N113	N	-0.762680	-0.102079	-0.537942
N114	N	-0.262680	0.397921	-0.037942
N115	N	-0.762678	-0.102073	-0.462662
N116	N	-0.262678	0.397927	0.037338
C117	C	-0.824475	-0.093030	-0.423594
C118	C	-0.324475	0.406970	0.076406
N119	N	-0.886278	-0.083978	-0.462651
N120	N	-0.386278	0.416022	0.037349
N121	N	-0.886280	-0.083981	-0.537938
N122	N	-0.386280	0.416019	-0.037938
C123	C	-0.824482	-0.093035	-0.576429
C124	C	-0.324482	0.406965	-0.076429
C125	C	-0.872093	-0.045431	-0.298050
C126	C	-0.372093	0.454569	0.201950
C127	C	-0.872095	-0.045437	-0.218801
C128	C	-0.372095	0.454563	0.281199
C129	C	-0.776850	-0.140634	-0.218797
C130	C	-0.276850	0.359366	0.281203
C131	C	-0.776854	-0.140631	-0.298045
C132	C	-0.276854	0.359369	0.201955
C133	C	-0.824475	-0.093026	-0.337666
C134	C	-0.324475	0.406974	0.162334
N135	N	-0.824502	-0.093034	0.179150
N136	N	-0.324502	0.406966	0.679150
H137	H	-0.480439	-0.095354	0.124506
H138	H	0.019561	0.404646	0.624506
H139	H	-0.738077	-0.179388	-0.186532
H140	H	-0.238077	0.320612	0.313468
H141	H	-0.036428	-0.088810	0.124498
H142	H	0.463572	0.411190	0.624498
H143	H	-0.704792	0.679576	0.000025
H144	H	-0.204792	1.179576	0.500025
C145	C	-0.469986	-0.095417	-0.144125
C146	C	0.030014	0.404583	0.355875
H147	H	-0.421392	-0.094769	-0.134298
H148	H	0.078608	0.405231	0.365702
H149	H	-0.476548	-0.136372	-0.172153
H150	H	0.023452	0.363628	0.327847
H151	H	-0.487270	-0.054952	-0.172494
H152	H	0.012730	0.445048	0.327506
H153	H	-0.612543	-0.097273	-0.124518
H154	H	-0.112543	0.402727	0.375482
H155	H	-0.935683	0.710478	0.000012
H156	H	-0.435683	1.210478	0.500012
C157	C	-0.724475	-0.192982	-0.341627
C158	C	-0.224475	0.307018	0.158373
H159	H	-0.731302	-0.186170	-0.394498
H160	H	-0.231302	0.313830	0.105502
H161	H	-0.677902	-0.185517	-0.328649
H162	H	-0.177902	0.314483	0.171351
H163	H	-0.731919	-0.239564	-0.328629
H164	H	-0.231919	0.260436	0.171371
H165	H	-0.168538	-0.090756	0.124499
H166	H	0.331462	0.409244	0.624499
C167	C	-0.178928	-0.090871	-0.144134
C168	C	0.321072	0.409129	0.355866
H169	H	-0.146812	-0.090383	-0.185007
H170	H	0.353188	0.409617	0.314993
H171	H	-0.201890	-0.131993	-0.146993
H172	H	0.298110	0.368007	0.353007
H173	H	-0.212782	-0.050575	-0.146980
H174	H	0.287218	0.449425	0.353020
H175	H	-0.711340	0.235564	-0.000013
H176	H	-0.211340	0.735564	0.499987
C177	C	-0.962508	0.126385	-0.000046
C178	C	-0.462508	0.626385	0.499954
H179	H	-0.999930	0.163574	-0.000041
H180	H	-0.499930	0.663574	0.499959
H181	H	-0.965572	0.098337	-0.043948
H182	H	-0.465572	0.598337	0.456052
H183	H	-0.965574	0.098327	0.043863
H184	H	-0.465574	0.598327	0.543863
H185	H	-0.910870	-0.006680	-0.186545
H186	H	-0.410870	0.493320	0.313455
C187	C	-0.924504	0.006918	-0.824815
C188	C	-0.424504	0.506918	-0.324815
H189	H	-0.952865	0.035261	-0.789867
H190	H	-0.452865	0.535261	-0.289867
H191	H	-0.899485	0.035920	-0.855743
H192	H	-0.399485	0.535920	-0.355743
H193	H	-0.953494	-0.018134	-0.855713
H194	H	-0.453494	0.481866	-0.355713
C195	C	-0.026007	-0.088625	-0.144137
C196	C	0.473993	0.411375	0.355863
H197	H	-0.058118	-0.089100	-0.185010
H198	H	0.441882	0.410900	0.314990
H199	H	-0.003044	-0.047502	-0.146996
H200	H	0.496956	0.452498	0.353004
H201	H	0.007848	-0.128920	-0.146984
H202	H	0.507848	0.371080	0.353016
C203	C	-0.622958	-0.097448	0.144113
C204	C	-0.122958	0.402552	0.644113
H205	H	-0.590843	-0.096988	0.184984
H206	H	-0.090843	0.403012	0.684984
H207	H	-0.656815	-0.057161	0.146968
H208	H	-0.156815	0.442839	0.646968
H209	H	-0.645916	-0.138578	0.146964
H210	H	-0.145916	0.361422	0.646964
C211	C	-0.924484	0.006926	-0.658398
C212	C	-0.424484	0.506926	-0.158398
H213	H	-0.917661	0.000106	-0.605528
H214	H	-0.417661	0.500106	-0.105528
H215	H	-0.917039	0.053503	-0.671398
H216	H	-0.417039	0.553503	-0.171398
H217	H	-0.971063	-0.000537	-0.671371
H218	H	-0.471063	0.499463	-0.171371
C219	C	-0.688713	0.534622	0.000003
C220	C	-0.188713	1.034622	0.500003
H221	H	-0.650343	0.561664	0.000000
H222	H	-0.150343	1.061664	0.500000
H223	H	-0.686488	0.505848	0.043903
H224	H	-0.186488	1.005848	0.543903
H225	H	-0.686485	0.505872	-0.043909
H226	H	-0.186485	1.005872	0.456091
H227	H	-0.942227	0.266467	-0.000033
H228	H	-0.442227	0.766467	0.499967
C229	C	-0.695255	0.090606	-0.000022
C230	C	-0.195255	0.590606	0.499978
H231	H	-0.656885	0.117647	-0.000022
H232	H	-0.156885	0.617647	0.499978
H233	H	-0.693033	0.061831	0.043876
H234	H	-0.193033	0.561831	0.543876
H235	H	-0.693026	0.061857	-0.043936
H236	H	-0.193026	0.561857	0.456064
H237	H	-0.937632	0.578369	-0.000013
H238	H	-0.437632	1.078369	0.499987
C239	C	-0.724492	-0.192988	-0.658394
C240	C	-0.224492	0.307012	-0.158394
H241	H	-0.731303	-0.186166	-0.605523
H242	H	-0.231303	0.313834	-0.105523
H243	H	-0.731932	-0.239568	-0.671368
H244	H	-0.231932	0.260432	-0.171368
H245	H	-0.677918	-0.185519	-0.671391
H246	H	-0.177918	0.314481	-0.171391
H247	H	-0.738109	-0.179400	-0.813484
H248	H	-0.238109	0.320600	-0.313484
H249	H	-0.910871	-0.006670	-0.330311
H250	H	-0.410871	0.493330	0.169689
