data_functionalizedCrystal
_audit_creation_method	'MofGen! by Chris Wilmer'
_symmetry_space_group_name_H-M	'P1'
_symmetry_Int_Tables_number	1
_symmetry_cell_setting	triclinic
loop_
_symmetry_equiv_pos_as_xyz
  x,y,z
_cell_length_a	12.594517
_cell_length_b	12.594516
_cell_length_c	12.759387
_cell_angle_alpha	90.028490
_cell_angle_beta	90.024096
_cell_angle_gamma	90.015485
loop_
_atom_site_label
_atom_site_type_symbol
_atom_site_fract_x
_atom_site_fract_y
_atom_site_fract_z
Zn1	Zn	1.627287	-0.423702	0.594122
Zn2	Zn	1.627172	-0.601719	0.418450
Zn3	Zn	1.449285	-0.423754	0.418448
Zn4	Zn	1.449273	-0.601637	0.594078
O5	O	1.538254	-0.512703	0.506275
O6	O	1.776217	-0.447329	0.570838
O7	O	1.603532	-0.578168	0.271429
O8	O	1.472950	-0.274801	0.441770
O9	O	1.776133	-0.578118	0.441773
O10	O	1.603728	-0.274763	0.570837
O11	O	1.472839	-0.447417	0.271427
O12	O	1.300337	-0.447337	0.441727
O13	O	1.472930	-0.577978	0.741105
O14	O	1.300329	-0.578028	0.570761
O15	O	1.603716	-0.447250	0.741138
O16	O	1.603520	-0.750654	0.441730
O17	O	1.472818	-0.750594	0.570763
C18	C	1.261713	-0.512680	0.506240
C19	C	1.143408	-0.512696	0.506249
C20	C	1.538184	-0.789244	0.506264
C21	C	1.538252	-0.907549	0.506295
C22	C	1.003365	-0.441535	0.436228
C23	C	1.074227	-0.415598	0.532098
C24	C	1.074117	-0.538585	0.410390
C25	C	1.003484	-0.486750	0.602247
C26	C	1.003368	-0.609782	0.480474
C27	C	1.074198	-0.583882	0.576410
C28	C	1.467156	-0.976808	0.576427
C29	C	1.441220	-1.047677	0.480558
C30	C	1.564285	-1.047479	0.602180
C31	C	1.512264	-0.976860	0.410376
C32	C	1.635375	-0.976656	0.532062
C33	C	1.609475	-1.047493	0.436128
C34	C	1.815875	-0.512727	0.506311
C35	C	1.934180	-0.512737	0.506326
C36	C	1.538334	-0.512599	0.780308
C37	C	1.538369	-0.512554	0.897085
C38	C	1.538353	-0.235082	0.506308
C39	C	1.538395	-0.116777	0.506322
C40	C	1.538235	-0.512730	0.233307
C41	C	1.538407	-0.512475	0.116531
C42	C	1.674565	-0.376436	0.897139
C43	C	1.742679	-0.308361	0.952027
C44	C	1.742705	-0.308322	1.061748
C45	C	1.674608	-0.376363	1.116585
C46	C	1.606494	-0.444439	1.061697
C47	C	1.606478	-0.444472	0.951973
C48	C	1.470294	-0.580550	1.061643
C49	C	1.470272	-0.580596	0.951922
C50	C	1.402197	-0.648591	1.116480
C51	C	1.334088	-0.716673	1.061592
C52	C	1.334065	-0.716710	0.951864
C53	C	1.402159	-0.648671	0.897034
H54	H	0.972267	-0.381294	0.377054
O55	O	1.267933	-0.782740	0.898387
C56	C	1.282530	-0.768212	0.789783
H57	H	1.317426	-0.686084	0.774813
H58	H	1.202791	-0.775431	0.748066
H59	H	1.339173	-0.831370	0.758652
H60	H	0.972585	-0.464775	0.683370
O61	O	1.111414	-0.317741	0.558333
C62	C	1.173063	-0.325194	0.650296
H63	H	1.148933	-0.399141	0.695949
H64	H	1.159447	-0.251783	0.700832
H65	H	1.260659	-0.330685	0.628473
H66	H	1.402151	-0.648699	0.807693
H67	H	1.490208	-0.945968	0.329276
H68	H	0.972221	-0.691846	0.458606
H69	H	1.669660	-1.078334	0.376762
O70	O	1.111027	-0.655576	0.647310
C71	C	1.074820	-0.627922	0.748243
H72	H	1.055066	-0.539620	0.750393
H73	H	1.139455	-0.645845	0.808250
H74	H	1.000663	-0.675938	0.767704
O75	O	1.808815	-0.242048	1.114956
C76	C	1.785579	-0.135966	1.088184
H77	H	1.744652	-0.133773	1.008508
H78	H	1.862417	-0.088254	1.084462
H79	H	1.730883	-0.100091	1.149932
O80	O	1.402226	-0.648751	1.223063
C81	C	1.429544	-0.750750	1.259704
H82	H	1.411314	-0.812073	1.196457
H83	H	1.381543	-0.769637	1.333097
H84	H	1.517863	-0.753020	1.279188
H85	H	1.105148	-0.560464	0.329290
H86	H	1.406926	-0.945771	0.635649
H87	H	1.674626	-0.376317	1.205926
H88	H	1.717424	-0.945440	0.553880
H89	H	1.586247	-1.078500	0.683258
O90	O	1.674350	-0.376467	0.790556
C91	C	1.572354	-0.349093	0.753879
H92	H	1.511047	-0.367246	0.817090
H93	H	1.553398	-0.397118	0.680458
H94	H	1.570140	-0.260783	0.734429
O95	O	1.343246	-1.084848	0.454734
C96	C	1.268448	-1.048820	0.528839
H97	H	1.310721	-1.028868	0.605377
H98	H	1.207041	-1.113640	0.543518
H99	H	1.227097	-0.974821	0.497545
O100	O	1.808797	-0.242375	0.898596
C101	C	1.794159	-0.256986	0.789982
H102	H	1.759251	-0.339123	0.774976
H103	H	1.873883	-0.249805	0.748304
H104	H	1.737508	-0.193847	0.758839
O105	O	1.267997	-0.782909	1.114743
C106	C	1.291227	-0.889008	1.087951
H107	H	1.332127	-0.891257	1.008295
H108	H	1.214389	-0.936725	1.084176
H109	H	1.345945	-0.924839	1.149715
