data_functionalizedCrystal
_audit_creation_method	'MofGen! by Chris Wilmer'
_symmetry_space_group_name_H-M	'P1'
_symmetry_Int_Tables_number	1
_symmetry_cell_setting	triclinic
loop_
_symmetry_equiv_pos_as_xyz
  x,y,z
_cell_length_a	16.959455
_cell_length_b	16.120484
_cell_length_c	16.959447
_cell_angle_alpha	87.133462
_cell_angle_beta	90.014322
_cell_angle_gamma	92.922454
loop_
_atom_site_label
_atom_site_type_symbol
_atom_site_fract_x
_atom_site_fract_y
_atom_site_fract_z
Zn1	Zn	1.192394	-0.331957	0.462851
Zn2	Zn	1.185600	-0.471386	0.337369
Zn3	Zn	1.060221	-0.331984	0.330690
Zn4	Zn	1.053474	-0.471323	0.469504
O5	O	1.122922	-0.401662	0.400103
O6	O	1.302103	-0.350468	0.446216
O7	O	1.168949	-0.452931	0.225874
O8	O	1.083421	-0.215315	0.342642
O9	O	1.297112	-0.452905	0.354025
O10	O	1.180528	-0.215296	0.439740
O11	O	1.076833	-0.350513	0.220967
O12	O	0.948716	-0.350452	0.349093
O13	O	1.071921	-0.452799	0.579231
O14	O	0.943759	-0.452824	0.451079
O15	O	1.173985	-0.350408	0.574343
O16	O	1.162407	-0.588043	0.360476
O17	O	1.065334	-0.587997	0.457556
C18	C	0.917557	-0.401635	0.400084
C19	C	0.829700	-0.401643	0.400095
C20	C	1.112422	-0.618270	0.410480
C21	C	1.108003	-0.710935	0.414945
C22	C	0.460783	-0.348314	0.347103
C23	C	0.455662	-0.455080	0.453153
C24	C	0.538208	-0.455068	0.453147
C25	C	0.582046	-0.401679	0.400118
C26	C	0.543337	-0.348302	0.347094
C27	C	0.576923	-0.508450	0.506165
C28	C	0.659474	-0.508441	0.506161
C29	C	0.703314	-0.455047	0.453135
C30	C	0.664600	-0.401667	0.400109
C31	C	0.708437	-0.348278	0.347080
C32	C	0.669725	-0.294893	0.294058
C33	C	0.587176	-0.294908	0.294068
C34	C	0.785863	-0.455032	0.453125
C35	C	0.790991	-0.348266	0.347071
C36	C	1.099938	-0.880596	0.423114
C37	C	1.146048	-0.921888	0.377106
C38	C	1.141561	-1.016293	0.381651
C39	C	1.104424	-0.786182	0.418570
C40	C	1.329089	-0.401691	0.400123
C41	C	1.416945	-0.401703	0.400132
C42	C	1.122959	-0.401593	0.606268
C43	C	1.122974	-0.401564	0.694124
C44	C	1.133485	-0.184209	0.389704
C45	C	1.137986	-0.091544	0.385272
C46	C	1.122935	-0.401671	0.194738
C47	C	1.123084	-0.401466	0.106872
C48	C	1.069933	-0.454787	1.068143
C49	C	1.176213	-0.348166	1.063048
C50	C	1.176191	-0.348183	0.980503
C51	C	1.123040	-0.401504	0.941774
C52	C	1.069911	-0.454808	0.985590
C53	C	1.229324	-0.294887	0.936681
C54	C	1.229305	-0.294903	0.854130
C55	C	1.176150	-0.348221	0.815400
C56	C	1.123018	-0.401525	0.859221
C57	C	1.069867	-0.454846	0.820492
C58	C	1.016731	-0.508148	0.864312
C59	C	1.016755	-0.508125	0.946860
C60	C	1.176125	-0.348243	0.732853
C61	C	1.069845	-0.454867	0.737940
H62	H	0.705428	-0.251427	0.250878
C63	C	1.234563	-0.289615	0.684654
H64	H	1.266218	-0.257854	0.719543
H65	H	1.267443	-0.321516	0.653970
H66	H	1.206074	-0.253289	0.650724
H67	H	1.188892	-0.886339	0.334302
C68	C	1.234678	-0.289519	1.105644
H69	H	1.266320	-0.257781	1.067724
H70	H	1.206217	-0.253185	1.136116
H71	H	1.267581	-0.321416	1.139364
C72	C	1.011378	-0.513519	0.695341
H73	H	1.018970	-0.505897	0.639902
H74	H	1.020224	-0.569533	0.711546
H75	H	0.958864	-0.501297	0.708284
H76	H	1.272602	-0.251481	0.968220
C77	C	0.839207	-0.289536	0.288739
H78	H	0.804327	-0.257750	0.257162
H79	H	0.873176	-0.253248	0.317290
H80	H	0.869855	-0.321382	0.255765
H81	H	0.973458	-0.551565	0.832769
H82	H	0.973497	-0.551523	0.982545
H83	H	1.026668	-0.498181	1.103824
H84	H	1.057096	-0.916143	0.465913
H85	H	0.555649	-0.251446	0.250899
C86	C	0.418204	-0.289597	0.288780
H87	H	0.362762	-0.297250	0.296375
H88	H	0.434446	-0.233596	0.297749
H89	H	0.431128	-0.301736	0.236230
C90	C	1.287745	-0.236268	0.805936
H91	H	1.319398	-0.204506	0.840825
H92	H	1.320627	-0.268167	0.775251
H93	H	1.259256	-0.199943	0.772005
C94	C	0.702054	-0.567170	0.564471
H95	H	0.757496	-0.559525	0.556866
H96	H	0.689134	-0.555056	0.617023
H97	H	0.685810	-0.623171	0.555480
C98	C	0.407443	-0.513803	0.511480
H99	H	0.352736	-0.506162	0.503894
H100	H	0.418262	-0.569802	0.502512
H101	H	0.421574	-0.501659	0.564027
H102	H	0.541224	-0.551923	0.549333
C103	C	0.828447	-0.513747	0.511439
H104	H	0.883889	-0.506097	0.503837
H105	H	0.815521	-0.501624	0.563987
H106	H	0.812210	-0.569752	0.502457
