data_functionalizedCrystal
_audit_creation_method	'MofGen! by Chris Wilmer'
_symmetry_space_group_name_H-M	'P1'
_symmetry_Int_Tables_number	1
_symmetry_cell_setting	triclinic
loop_
_symmetry_equiv_pos_as_xyz
  x,y,z
_cell_length_a	15.995300
_cell_length_b	15.995350
_cell_length_c	17.766277
_cell_angle_alpha	89.995869
_cell_angle_beta	89.989053
_cell_angle_gamma	83.482091
loop_
_atom_site_label
_atom_site_type_symbol
_atom_site_fract_x
_atom_site_fract_y
_atom_site_fract_z
O1	O	1.111018	0.107727	-0.062618
O2	O	1.611018	0.607727	0.437382
O3	O	0.867237	0.121099	-0.062613
O4	O	1.367237	0.621099	0.437387
O5	O	0.995791	-0.007476	-0.062615
O6	O	1.495791	0.492524	0.437385
O7	O	0.982463	0.236302	-0.062616
O8	O	1.482463	0.736302	0.437384
O9	O	0.995768	-0.007482	0.062574
O10	O	1.495768	0.492518	0.562574
O11	O	0.867214	0.121092	0.062575
O12	O	1.367214	0.621092	0.562575
O13	O	1.110995	0.107721	0.062570
O14	O	1.610995	0.607721	0.562570
Cu15	Cu	0.989102	0.114406	0.074004
Cu16	Cu	1.489102	0.614406	0.574004
Cu17	Cu	0.989129	0.114414	-0.074046
Cu18	Cu	1.489129	0.614414	0.425954
O19	O	0.982441	0.236295	0.062572
O20	O	1.482441	0.736295	0.562572
C21	C	0.836030	0.120550	-0.000018
C22	C	1.336030	0.620550	0.499982
C23	C	0.743077	0.118915	-0.000016
C24	C	1.243077	0.618915	0.499984
C25	C	0.572894	0.115896	-0.000022
C26	C	1.072894	0.615896	0.499978
C27	C	0.525428	0.207443	-0.000021
C28	C	1.025428	0.707443	0.499979
C29	C	0.428740	0.205773	-0.000307
C30	C	0.928740	0.705773	0.499693
C31	C	0.405337	0.112924	-0.000027
C32	C	0.905337	0.612924	0.499973
C33	C	0.446483	0.067507	-0.071375
C34	C	0.946483	0.567507	0.428625
C35	C	0.543116	0.069824	-0.071432
C36	C	1.043116	0.569824	0.428568
C37	C	0.543370	0.068461	0.070935
C38	C	1.043370	0.568461	0.570935
C39	C	0.446425	0.068469	0.071871
C40	C	0.946425	0.568469	0.571871
C41	C	0.310642	0.111239	-0.000032
C42	C	0.810642	0.611239	0.499968
C43	C	0.667590	0.117577	-0.000022
C44	C	1.167590	0.617577	0.499978
C45	C	0.995229	-0.038674	-0.000022
C46	C	1.495229	0.461326	0.499978
C47	C	0.993577	-0.131624	-0.000026
C48	C	1.493577	0.368376	0.499974
C49	C	0.987644	-0.469370	-0.000024
C50	C	1.487644	0.030630	0.499976
C51	C	0.896090	-0.421920	-0.000303
C52	C	1.396090	0.078080	0.499697
C53	C	0.897743	-0.325230	-0.000020
C54	C	1.397743	0.174770	0.499980
C55	C	0.990587	-0.301810	-0.000025
C56	C	1.490587	0.198190	0.499975
C57	C	1.035732	-0.342900	0.071461
C58	C	1.535732	0.157100	0.571461
C59	C	1.033432	-0.439535	0.071521
C60	C	1.533432	0.060465	0.571521
C61	C	1.035349	-0.439886	-0.070842
C62	C	1.535349	0.060114	0.429158
C63	C	1.035327	-0.342941	-0.071787
C64	C	1.535327	0.157059	0.428213
C65	C	0.992255	-0.207113	-0.000024
C66	C	1.492255	0.292887	0.499976
C67	C	0.985979	-0.564068	-0.000020
C68	C	1.485979	-0.064068	0.499980
C69	C	1.142202	0.108269	-0.000026
C70	C	1.642202	0.608269	0.499974
C71	C	1.235154	0.109904	-0.000033
C72	C	1.735154	0.609904	0.499967
C73	C	0.983003	0.267493	-0.000022
C74	C	1.483003	0.767493	0.499978
C75	C	0.984655	0.360443	-0.000023
C76	C	1.484655	0.860443	0.499977
N77	N	0.989090	0.114400	0.178134
N78	N	1.489090	0.614400	0.678134
N79	N	0.989148	0.114413	-0.178177
N80	N	1.489148	0.614413	0.321823
C81	C	1.046032	0.057495	0.217520
C82	C	1.546032	0.557495	0.717520
C83	C	1.046037	0.057491	0.296322
C84	C	1.546037	0.557491	0.796322
C85	C	0.989107	0.114406	0.335735
C86	C	1.489107	0.614406	0.835735
C87	C	0.932154	0.171316	0.296339
C88	C	1.432154	0.671316	0.796339
C89	C	0.932145	0.171312	0.217539
C90	C	1.432145	0.671312	0.717539
C91	C	0.978136	0.190665	0.460572
C92	C	1.478136	0.690665	0.960572
C93	C	0.978151	0.190669	0.539371
C94	C	1.478151	0.690669	1.039371
C95	C	0.989130	0.114417	0.578781
C96	C	1.489130	0.614417	1.078781
C97	C	1.000112	0.038156	0.539382
C98	C	1.500112	0.538156	1.039382
C99	C	1.000103	0.038153	0.460582
C100	C	1.500103	0.538153	0.960582
C101	C	0.989110	0.114416	0.421180
C102	C	1.489110	0.614416	0.921180
C103	C	1.046080	0.057503	0.703613
C104	C	1.546080	0.557503	1.203613
C105	C	1.046079	0.057498	0.782416
C106	C	1.546079	0.557498	1.282416
C107	C	0.932201	0.171330	0.782432
C108	C	1.432201	0.671330	1.282432
C109	C	0.932198	0.171328	0.703630
C110	C	1.432198	0.671328	1.203630
C111	C	0.989142	0.114415	0.664225
C112	C	1.489142	0.614415	1.164225
H113	H	0.575151	0.000964	0.071622
H114	H	1.075151	0.500964	0.571622
H115	H	0.859650	-0.441510	0.050678
H116	H	1.359650	0.058490	0.550678
H117	H	0.432384	-0.000716	-0.073827
H118	H	0.932384	0.499284	0.426173
H119	H	1.004358	-0.314515	0.124662
H120	H	1.504358	0.185485	0.624662
H121	H	0.859506	-0.440442	-0.051567
H122	H	1.359506	0.059558	0.448433
H123	H	1.100649	-0.471795	0.074761
H124	H	1.600649	0.028205	0.574761
Br125	Br	0.838160	-0.278772	0.085536
Br126	Br	1.338160	0.221228	0.585536
Br127	Br	1.148177	-0.317352	-0.078995
Br128	Br	1.648177	0.182648	0.421005
H129	H	1.000493	-0.457833	0.124962
H130	H	1.500493	0.042167	0.624962
Br131	Br	1.149421	-0.319382	0.075891
Br132	Br	1.649421	0.180618	0.575891
H133	H	0.418107	0.098649	-0.124672
H134	H	0.918107	0.598649	0.375328
Br135	Br	0.854860	0.248545	0.164081
Br136	Br	1.354860	0.748545	0.664081
H137	H	1.005425	-0.460417	-0.125024
H138	H	1.505425	0.039583	0.374976
H139	H	1.102851	-0.471659	-0.071326
H140	H	1.602851	0.028341	0.428674
Br141	Br	1.123358	-0.019737	0.650133
Br142	Br	1.623358	0.480263	1.150133
H143	H	0.885833	0.217668	0.671560
H144	H	1.385833	0.717668	1.171560
H145	H	1.002321	-0.315683	-0.124670
H146	H	1.502321	0.184317	0.375330
H147	H	1.092397	0.011151	0.185439
H148	H	1.592397	0.511151	0.685439
Br149	Br	0.577522	0.118690	0.161098
Br150	Br	1.077522	0.618690	0.661098
H151	H	0.885800	0.217656	0.328433
H152	H	1.385800	0.717656	0.828433
H153	H	0.969214	0.252765	0.571444
H154	H	1.469214	0.752765	1.071444
Br155	Br	1.123321	-0.019745	0.349784
Br156	Br	1.623321	0.480255	0.849784
H157	H	1.009042	-0.023941	0.428507
H158	H	1.509042	0.476059	0.928507
Br159	Br	0.558121	0.267860	-0.085169
Br160	Br	1.058121	0.767860	0.414831
Br161	Br	1.015022	-0.065337	0.592856
Br162	Br	1.515022	0.434663	1.092856
H163	H	0.862255	-0.296799	-0.051265
H164	H	1.362255	0.203201	0.448735
H165	H	0.543910	0.244231	0.051135
H166	H	1.043910	0.744231	0.551135
H167	H	1.092446	0.011155	0.814485
H168	H	1.592446	0.511155	1.314485
H169	H	0.400268	0.241460	0.050826
H170	H	0.900268	0.741460	0.550826
H171	H	0.885845	0.217668	0.814521
H172	H	1.385845	0.717668	1.314521
Br173	Br	0.963320	0.294163	0.407096
Br174	Br	1.463320	0.794163	0.907096
H175	H	0.431086	0.000775	0.076390
H176	H	0.931086	0.500775	0.576390
Br177	Br	0.382333	0.265005	-0.086050
Br178	Br	0.882333	0.765005	0.413950
H179	H	0.419076	0.101635	0.124655
H180	H	0.919076	0.601635	0.624655
H181	H	0.561445	0.102561	-0.124968
H182	H	1.061445	0.602561	0.375032
H183	H	0.575390	0.002600	-0.074481
H184	H	1.075390	0.502600	0.425519
