data_functionalizedCrystal
_audit_creation_method	'MofGen! by Chris Wilmer'
_symmetry_space_group_name_H-M	'P1'
_symmetry_Int_Tables_number	1
_symmetry_cell_setting	triclinic
loop_
_symmetry_equiv_pos_as_xyz
  x,y,z
_cell_length_a	19.188925
_cell_length_b	19.188924
_cell_length_c	9.730217
_cell_angle_alpha	89.994694
_cell_angle_beta	89.997646
_cell_angle_gamma	83.142256
loop_
_atom_site_label
_atom_site_type_symbol
_atom_site_fract_x
_atom_site_fract_y
_atom_site_fract_z
O1	O	0.926142	0.087149	-0.114326
O2	O	0.722830	0.098887	-0.114323
O3	O	0.830356	-0.008638	-0.114308
O4	O	0.818616	0.194674	-0.114340
O5	O	0.830352	-0.008639	0.114272
O6	O	0.722827	0.098886	0.114257
O7	O	0.926139	0.087148	0.114254
Zn8	Zn	0.824482	0.093017	0.150548
Zn9	Zn	0.824487	0.093018	-0.150616
O10	O	0.818613	0.194673	0.114240
C11	C	0.696817	0.098507	-0.000032
C12	C	0.619313	0.097368	-0.000031
C13	C	0.057541	0.152832	-0.000043
C14	C	0.130364	0.153908	-0.000050
C15	C	0.175300	0.090816	-0.000038
C16	C	0.147408	0.026642	-0.000053
C17	C	0.074586	0.025568	-0.000059
N18	N	0.295977	0.045139	0.077780
N19	N	0.365155	0.046165	0.077789
C20	C	0.394709	0.094050	-0.000022
N21	N	0.352472	0.140882	-0.077825
N22	N	0.283288	0.139859	-0.077827
C23	C	0.254264	0.091974	-0.000032
C24	C	0.501557	0.159387	-0.000025
C25	C	0.574381	0.160461	-0.000041
C26	C	0.591424	0.033193	-0.000030
C27	C	0.518600	0.032121	-0.000027
C28	C	0.473671	0.095220	-0.000018
C29	C	0.829975	-0.034650	-0.000017
C30	C	0.828836	-0.112155	-0.000013
C31	C	0.828306	-0.148553	-0.124612
C32	C	0.827226	-0.221376	-0.124623
C33	C	0.826690	-0.257799	-0.000027
C34	C	0.827216	-0.221391	0.124589
C35	C	0.828289	-0.148569	0.124596
N36	N	0.864737	-0.377464	0.092706
N37	N	0.863719	-0.446642	0.092691
C38	C	0.823456	-0.477208	-0.000040
N39	N	0.784258	-0.435984	-0.092777
N40	N	0.785279	-0.366800	-0.092766
C41	C	0.825526	-0.336763	-0.000021
C42	C	0.821754	-0.592569	-0.124659
C43	C	0.820670	-0.665393	-0.124665
C44	C	0.820667	-0.665408	0.124551
C45	C	0.821744	-0.592585	0.124552
C46	C	0.822291	-0.556170	-0.000056
C47	C	0.952151	0.087528	-0.000039
C48	C	1.029656	0.088667	-0.000050
C49	C	0.818994	0.220684	-0.000055
C50	C	0.820133	0.298189	-0.000067
N51	N	0.824484	0.093015	0.356084
N52	N	0.824490	0.093014	-0.356153
C53	C	0.919737	-0.002171	0.356088
C54	C	0.967368	-0.049762	0.428030
C55	C	0.967375	-0.049763	0.571909
C56	C	0.919745	-0.002168	0.643851
C57	C	0.872114	0.045423	0.571909
C58	C	0.872113	0.045420	0.428026
C59	C	0.776859	0.140605	0.571905
C60	C	0.776854	0.140610	0.428026
C61	C	0.729229	0.188199	0.643847
C62	C	0.681600	0.235795	0.571905
C63	C	0.681595	0.235794	0.428017
C64	C	0.729223	0.188201	0.356084
H65	H	0.464973	0.210766	-0.000020
H66	H	0.820235	-0.695026	-0.226132
H67	H	0.642806	0.274546	0.369449
H68	H	0.153073	0.206161	-0.000031
O69	O	0.828873	-0.109310	0.258994
H70	H	0.781093	-0.116920	0.318754
H71	H	1.006157	-0.088518	0.630485
H72	H	0.822196	-0.562918	-0.226123
H73	H	0.051883	-0.026685	-0.000065
H74	H	0.919748	-0.002177	0.761005
O75	O	0.729236	0.188208	0.799032
H76	H	0.770364	0.147126	0.836975
O77	O	1.018721	-0.101115	0.350441
H78	H	1.010714	-0.093125	0.238306
H79	H	0.828750	-0.118909	-0.226079
H80	H	0.820225	-0.695062	0.225999
H81	H	0.822181	-0.562950	0.226015
H82	H	0.919742	-0.002170	0.238933
O83	O	0.630234	0.287127	0.649492
H84	H	0.638241	0.279132	0.761626
H85	H	0.729226	0.188198	0.238930
O86	O	0.604463	0.229670	-0.000015
H87	H	0.560983	0.273363	0.000010
H88	H	0.020963	0.204212	-0.000042
H89	H	0.183999	-0.024728	-0.000047
H90	H	0.826777	-0.251052	0.226036
O91	O	0.639879	-0.034860	-0.000010
H92	H	0.695202	-0.023335	0.000004
H93	H	0.495897	-0.020129	-0.000025
O94	O	0.826657	-0.260648	-0.259016
H95	H	0.827220	-0.223093	-0.345661
