data_functionalizedCrystal
_audit_creation_method	'MofGen! by Chris Wilmer'
_symmetry_space_group_name_H-M	'P1'
_symmetry_Int_Tables_number	1
_symmetry_cell_setting	triclinic
loop_
_symmetry_equiv_pos_as_xyz
  x,y,z
_cell_length_a	6.817900
_cell_length_b	10.992668
_cell_length_c	10.992410
_cell_angle_alpha	91.832960
_cell_angle_beta	108.764651
_cell_angle_gamma	108.769342
loop_
_atom_site_label
_atom_site_type_symbol
_atom_site_fract_x
_atom_site_fract_y
_atom_site_fract_z
V1	V	-4.114280	-0.177763	-0.400588
O2	O	-4.072374	0.008542	-0.392968
O3	O	-4.091890	-0.352475	-0.397843
O4	O	-4.091871	-0.175029	-0.575300
O5	O	-4.072393	-0.170132	-0.214282
V6	V	-4.591170	-0.155479	-0.378305
O7	O	-4.390089	-0.226646	-0.449467
O8	O	-4.765558	-0.106597	-0.329425
O9	O	-4.390353	0.019232	-0.381050
O10	O	-4.750472	-0.341785	-0.385925
O11	O	-4.750453	-0.163110	-0.564611
O12	O	-4.390371	-0.158213	-0.203592
C13	C	-3.942377	-0.395066	-0.391522
C14	C	-4.005531	-0.537895	-0.390442
C15	C	-4.252012	-0.600203	-0.397771
C16	C	-4.317510	-0.748689	-0.396139
C17	C	-3.920752	-0.718266	-0.261985
C18	C	-3.856485	-0.569698	-0.263077
C19	C	-3.980036	-0.607725	-0.508433
C20	C	-4.050700	-0.756740	-0.509050
C21	C	-3.942352	-0.168714	-0.617885
C22	C	-4.005486	-0.167635	-0.760713
C23	C	-3.872608	-0.157798	-0.955837
C24	C	-3.807058	-0.159453	-0.807354
C25	C	-4.203525	-0.294317	-0.837814
C26	C	-4.267838	-0.293197	-0.986380
C27	C	-4.145561	-0.047894	-0.948356
C28	C	-4.074851	-0.047294	-0.799343
C29	C	-4.203208	0.061817	-0.387367
C30	C	-4.119294	0.204644	-0.388455
C31	C	-4.203232	-0.164532	-0.161001
C32	C	-4.119335	-0.165605	-0.018171
H33	H	-3.674642	-0.527088	-0.252431
Cl34	Cl	-3.718819	-0.291855	-0.769030
H35	H	-4.083386	-0.587355	-0.604487
H36	H	-3.658586	-0.068363	-0.754016
Cl37	Cl	-4.289675	-0.526109	-0.266856
Cl38	Cl	-3.703993	-0.544693	-0.501880
Cl39	Cl	-4.433588	-0.571116	-0.539094
Cl40	Cl	-3.688782	-0.762764	-0.246231
Cl41	Cl	-3.691581	-0.016068	-0.984694
H42	H	-4.042629	0.048305	-0.968717
H43	H	-4.449842	-0.304212	-1.029011
H44	H	-4.374121	-0.773496	-0.310189
Cl45	Cl	-3.853652	0.097398	-0.718520
H46	H	-4.216964	-0.045806	-0.766831
Cl47	Cl	-4.435707	-0.310629	-0.793351
H48	H	-4.466340	-0.802018	-0.487059
H49	H	-4.194355	-0.809075	-0.602609
Cl50	Cl	-3.990495	-0.757783	-0.123758
H51	H	-4.157779	-0.383665	-0.812206
Cl52	Cl	-4.421893	-0.054996	-1.011414
H53	H	-4.252292	-0.382325	-1.032648
Cl54	Cl	-3.831609	-0.806982	-0.511924
Cl55	Cl	-3.879645	-0.498242	-0.125171
H56	H	-3.847685	-0.242374	-1.003827
