data_functionalizedCrystal
_audit_creation_method	'MofGen! by Chris Wilmer'
_symmetry_space_group_name_H-M	'P1'
_symmetry_Int_Tables_number	1
_symmetry_cell_setting	triclinic
loop_
_symmetry_equiv_pos_as_xyz
  x,y,z
_cell_length_a	11.169416
_cell_length_b	11.169417
_cell_length_c	11.169409
_cell_angle_alpha	89.978317
_cell_angle_beta	90.031365
_cell_angle_gamma	89.990913
loop_
_atom_site_label
_atom_site_type_symbol
_atom_site_fract_x
_atom_site_fract_y
_atom_site_fract_z
Zn1	Zn	-0.477744	-1.834964	0.678610
Zn2	Zn	-0.227744	-1.584964	0.928610
Zn3	Zn	0.022256	-1.334964	1.178610
Zn4	Zn	0.272256	-1.084964	1.428610
Zn5	Zn	-0.678484	-1.834854	0.477931
Zn6	Zn	-0.428484	-1.584854	0.727931
Zn7	Zn	-0.178484	-1.334854	0.977931
Zn8	Zn	0.071516	-1.084854	1.227931
Zn9	Zn	-0.477810	-1.634250	0.477938
Zn10	Zn	-0.227810	-1.384250	0.727938
Zn11	Zn	0.022190	-1.134250	0.977938
Zn12	Zn	0.272190	-0.884250	1.227938
Zn13	Zn	-0.678380	-1.634258	0.678569
Zn14	Zn	-0.428380	-1.384258	0.928569
Zn15	Zn	-0.178380	-1.134258	1.178569
Zn16	Zn	0.071620	-0.884258	1.428569
O17	O	-0.578105	-1.734581	0.578262
O18	O	-0.328105	-1.484581	0.828262
O19	O	-0.078105	-1.234581	1.078262
O20	O	0.171895	-0.984581	1.328262
O21	O	-0.504389	-2.002899	0.652004
O22	O	-0.254389	-1.752899	0.902004
O23	O	-0.004389	-1.502899	1.152004
O24	O	0.245611	-1.252899	1.402004
O25	O	-0.651936	-1.808194	0.309982
O26	O	-0.401936	-1.558194	0.559982
O27	O	-0.151936	-1.308194	0.809982
O28	O	0.098064	-1.058194	1.059982
O29	O	-0.309852	-1.660918	0.504578
O30	O	-0.059852	-1.410918	0.754578
O31	O	0.190148	-1.160918	1.004578
O32	O	0.440148	-0.910918	1.254578
O33	O	-0.651872	-2.002818	0.504565
O34	O	-0.401872	-1.752818	0.754565
O35	O	-0.151872	-1.502818	1.004565
O36	O	0.098128	-1.252818	1.254565
O37	O	-0.309803	-1.808381	0.652011
O38	O	-0.059803	-1.558381	0.902011
O39	O	0.190197	-1.308381	1.152011
O40	O	0.440197	-1.058381	1.402011
O41	O	-0.504502	-1.660811	0.309987
O42	O	-0.254502	-1.410811	0.559987
O43	O	-0.004502	-1.160811	0.809987
O44	O	0.245498	-0.910811	1.059987
O45	O	-0.504400	-1.466301	0.504538
O46	O	-0.254400	-1.216301	0.754538
O47	O	-0.004400	-0.966301	1.004538
O48	O	0.245600	-0.716301	1.254538
O49	O	-0.651694	-1.660931	0.846524
O50	O	-0.401694	-1.410931	1.096524
O51	O	-0.151694	-1.160931	1.346524
O52	O	0.098306	-0.910931	1.596524
O53	O	-0.651758	-1.466307	0.651941
O54	O	-0.401758	-1.216307	0.901941
O55	O	-0.151758	-0.966307	1.151941
O56	O	0.098242	-0.716307	1.401941
O57	O	-0.504287	-1.808389	0.846555
O58	O	-0.254287	-1.558389	1.096555
O59	O	-0.004287	-1.308389	1.346555
O60	O	0.245713	-1.058389	1.596555
O61	O	-0.846420	-1.808202	0.504525
O62	O	-0.596420	-1.558202	0.754525
O63	O	-0.346420	-1.308202	1.004525
O64	O	-0.096420	-1.058202	1.254525
O65	O	-0.846344	-1.660825	0.651933
O66	O	-0.596344	-1.410825	0.901933
O67	O	-0.346344	-1.160825	1.151933
O68	O	-0.096344	-0.910825	1.401933
C69	C	-0.578076	-1.422757	0.578237
C70	C	-0.328076	-1.172757	0.828237
C71	C	-0.078076	-0.922757	1.078237
C72	C	0.171924	-0.672757	1.328237
C73	C	-0.578093	-1.289357	0.578254
C74	C	-0.328093	-1.039357	0.828254
C75	C	-0.078093	-0.789357	1.078254
C76	C	0.171907	-0.539357	1.328254
C77	C	-0.889929	-1.734535	0.578250
C78	C	-0.639929	-1.484535	0.828250
C79	C	-0.389929	-1.234535	1.078250
C80	C	-0.139929	-0.984535	1.328250
C81	C	-1.023329	-1.734625	0.578285
C82	C	-0.773329	-1.484625	0.828285
C83	C	-0.523329	-1.234625	1.078285
C84	C	-0.273329	-0.984625	1.328285
C85	C	-0.265062	-1.734661	0.578300
C86	C	-0.015062	-1.484661	0.828300
C87	C	0.234938	-1.234661	1.078300
C88	C	0.484938	-0.984661	1.328300
C89	C	-0.131662	-1.734695	0.578316
C90	C	0.118338	-1.484695	0.828316
C91	C	0.368338	-1.234695	1.078316
C92	C	0.618338	-0.984695	1.328316
C93	C	-0.577971	-1.734674	0.891305
C94	C	-0.327971	-1.484674	1.141305
C95	C	-0.077971	-1.234674	1.391305
C96	C	0.172029	-0.984674	1.641305
C97	C	-0.577915	-1.734713	1.024705
C98	C	-0.327915	-1.484713	1.274705
C99	C	-0.077915	-1.234713	1.524705
C100	C	0.172085	-0.984713	1.774705
C101	C	-0.578124	-1.047624	0.578279
C102	C	-0.328124	-0.797624	0.828279
C103	C	-0.078124	-0.547624	1.078279
C104	C	0.171876	-0.297624	1.328279
C105	C	-0.578107	-1.181024	0.578262
C106	C	-0.328107	-0.931024	0.828262
C107	C	-0.078107	-0.681024	1.078262
C108	C	0.171893	-0.431024	1.328262
C109	C	-0.578151	-1.734559	0.266437
C110	C	-0.328151	-1.484559	0.516437
C111	C	-0.078151	-1.234559	0.766437
C112	C	0.171849	-0.984559	1.016437
C113	C	-0.577870	-1.734752	0.133038
C114	C	-0.327870	-1.484752	0.383038
C115	C	-0.077870	-1.234752	0.633038
C116	C	0.172130	-0.984752	0.883038
