data_functionalizedCrystal
_audit_creation_method	'MofGen! by Chris Wilmer'
_symmetry_space_group_name_H-M	'P1'
_symmetry_Int_Tables_number	1
_symmetry_cell_setting	triclinic
loop_
_symmetry_equiv_pos_as_xyz
  x,y,z
_cell_length_a	6.817900
_cell_length_b	9.109307
_cell_length_c	9.514088
_cell_angle_alpha	93.164333
_cell_angle_beta	118.843545
_cell_angle_gamma	111.764999
loop_
_atom_site_label
_atom_site_type_symbol
_atom_site_fract_x
_atom_site_fract_y
_atom_site_fract_z
V1	V	-4.285760	-0.228427	-0.532230
V2	V	-3.785760	0.271573	-0.032230
O3	O	-4.198970	0.008003	-0.490108
O4	O	-3.698970	0.508003	0.009892
O5	O	-4.302227	-0.450072	-0.559357
O6	O	-3.802227	0.049928	-0.059357
O7	O	-4.319878	-0.226218	-0.750317
O8	O	-3.819878	0.273782	-0.250317
O9	O	-4.181196	-0.217400	-0.297826
O10	O	-3.681196	0.282600	0.202174
V11	V	-4.750290	-0.199993	-0.500456
V12	V	-4.250290	0.300007	-0.000456
O13	O	-4.588680	-0.290799	-0.601929
O14	O	-4.088680	0.209201	-0.101929
O15	O	-4.897567	-0.137621	-0.430757
O16	O	-4.397567	0.362379	0.069243
O17	O	-4.510617	0.021652	-0.473328
O18	O	-4.010617	0.521652	0.026672
O19	O	-4.954478	-0.436422	-0.542578
O20	O	-4.454478	0.063578	-0.042578
O21	O	-4.972251	-0.211019	-0.734859
O22	O	-4.472251	0.288981	-0.234859
O23	O	-4.492966	-0.202202	-0.282369
O24	O	-3.992966	0.297798	0.217631
C25	C	-4.160338	-0.504063	-0.558900
C26	C	-3.660338	-0.004063	-0.058900
C27	C	-4.255638	-0.685269	-0.582534
C28	C	-3.755638	-0.185269	-0.082534
C29	C	-4.182851	-0.218513	-0.802486
C30	C	-3.682851	0.281487	-0.302486
C31	C	-4.292458	-0.218174	-0.980975
C32	C	-3.792458	0.281826	-0.480975
C33	C	-4.315849	0.075635	-0.473782
C34	C	-3.815849	0.575635	0.026218
C35	C	-4.199792	0.256839	-0.450159
C36	C	-3.699792	0.756839	0.049841
C37	C	-4.293333	-0.209911	-0.230192
C38	C	-3.793333	0.290089	0.269808
C39	C	-4.162961	-0.210242	-0.051700
C40	C	-3.662961	0.289758	0.448300
H41	H	-3.968250	-0.203727	-0.975706
H42	H	-3.468250	0.296273	-0.475706
H43	H	-4.079102	-0.654092	-0.318713
H44	H	-3.579102	-0.154092	0.181287
H45	H	-4.376353	-0.774347	-0.713989
H46	H	-3.876353	-0.274347	-0.213989
H47	H	-4.487196	-0.224708	-1.056983
H48	H	-3.987196	0.275292	-0.556983
