data_functionalizedCrystal
_audit_creation_method	'MofGen! by Chris Wilmer'
_symmetry_space_group_name_H-M	'P1'
_symmetry_Int_Tables_number	1
_symmetry_cell_setting	triclinic
loop_
_symmetry_equiv_pos_as_xyz
  x,y,z
_cell_length_a	15.538191
_cell_length_b	15.500215
_cell_length_c	17.019234
_cell_angle_alpha	82.937244
_cell_angle_beta	114.625797
_cell_angle_gamma	93.909734
loop_
_atom_site_label
_atom_site_type_symbol
_atom_site_fract_x
_atom_site_fract_y
_atom_site_fract_z
O1	O	1.253152	0.052969	0.254728
O2	O	1.753152	0.552969	0.754728
O3	O	0.979132	0.059775	0.163402
O4	O	1.479132	0.559775	0.663402
O5	O	1.123332	0.047625	0.326356
O6	O	1.623332	0.547625	0.826356
O7	O	1.108952	0.065120	0.091774
O8	O	1.608952	0.565120	0.591774
O9	O	1.115495	-0.096586	0.330672
O10	O	1.615495	0.403414	0.830672
O11	O	0.971296	-0.084436	0.167718
O12	O	1.471296	0.415564	0.667718
O13	O	1.245315	-0.091242	0.259044
O14	O	1.745315	0.408758	0.759044
Cu15	Cu	1.107590	-0.101007	0.213775
Cu16	Cu	1.607590	0.398993	0.713775
Cu17	Cu	1.116858	0.069540	0.208671
Cu18	Cu	1.616858	0.569540	0.708671
O19	O	1.101116	-0.079092	0.096090
O20	O	1.601116	0.420908	0.596090
C21	C	0.940143	-0.011618	0.156005
C22	C	1.440143	0.488382	0.656005
C23	C	0.835644	-0.009497	0.127543
C24	C	1.335644	0.490503	0.627543
N25	N	1.101078	-0.220960	0.217368
N26	N	1.601078	0.279040	0.717368
C27	C	0.547113	-0.030571	0.410302
C28	C	1.047113	0.469429	0.910302
C29	C	0.448918	-0.028575	0.383538
C30	C	0.948918	0.471425	0.883538
C31	C	0.426869	-0.017348	0.232997
C32	C	0.926869	0.482652	0.732997
C33	C	0.525065	-0.019348	0.259748
C34	C	1.025065	0.480652	0.759748
C35	C	0.585180	-0.025959	0.348402
C36	C	1.085180	0.474041	0.848402
C37	C	0.563131	-0.014735	0.197848
C38	C	1.063131	0.485265	0.697848
C39	C	0.661318	-0.016730	0.224598
C40	C	1.161318	0.483270	0.724598
C41	C	0.721439	-0.023338	0.313247
C42	C	1.221439	0.476662	0.813247
C43	C	0.683367	-0.027954	0.375151
C44	C	1.183367	0.472046	0.875151
C45	C	0.503015	-0.008118	0.109195
C46	C	1.003015	0.491882	0.609195
C47	C	0.541081	-0.003505	0.047294
C48	C	1.041081	0.496495	0.547294
C49	C	0.639270	-0.005507	0.074044
C50	C	1.139270	0.494493	0.574044
C51	C	0.699391	-0.012115	0.162694
C52	C	1.199391	0.487885	0.662694
C53	C	0.677342	-0.000891	0.012140
C54	C	1.177342	0.499109	0.512140
C55	C	0.775529	-0.002886	0.038889
C56	C	1.275529	0.497114	0.538889
C57	C	0.797578	-0.014110	0.189443
C58	C	1.297578	0.485890	0.689443
C59	C	1.155828	-0.263977	0.187127
C60	C	1.655828	0.236023	0.687127
C61	C	1.150916	-0.354753	0.189852
C62	C	1.650916	0.145247	0.689852
C63	C	1.091249	-0.402511	0.222813
C64	C	1.591249	0.097489	0.722813
C65	C	1.036497	-0.359488	0.253059
C66	C	1.536497	0.140512	0.753059
C67	C	1.041415	-0.268714	0.250339
C68	C	1.541415	0.231286	0.750339
C69	C	1.073543	-0.676710	0.232613
C70	C	1.573543	-0.176710	0.732613
C71	C	1.068627	-0.767491	0.235328
C72	C	1.568627	-0.267491	0.735328
C73	C	1.183048	-0.762749	0.172122
C74	C	1.683048	-0.262749	0.672122
C75	C	1.187956	-0.671973	0.169400
C76	C	1.687956	-0.171973	0.669400
C77	C	1.133208	-0.628959	0.199650
C78	C	1.633208	-0.128959	0.699650
C79	C	1.086224	-0.495299	0.225597
C80	C	1.586224	0.004701	0.725597
C81	C	1.138238	-0.536173	0.196871
C82	C	1.638238	-0.036173	0.696871
C83	C	1.284304	-0.019847	0.266441
C84	C	1.784304	0.480153	0.766441
C85	C	1.388804	-0.021962	0.294903
C86	C	1.888804	0.478038	0.794903
C87	C	1.118717	-0.026663	0.357803
C88	C	1.618717	0.473337	0.857803
C89	C	1.116630	-0.033166	0.445073
C90	C	1.616630	0.466834	0.945073
N91	N	1.123377	0.189493	0.205087
N92	N	1.623377	0.689493	0.705087
C93	C	1.105731	-0.004802	0.064643
C94	C	1.605731	0.495198	0.564643
C95	C	1.107818	0.001707	-0.022627
C96	C	1.607818	0.501707	0.477373
C97	C	1.104530	-0.073851	0.938738
C98	C	1.604530	0.426149	1.438738
C99	C	1.106500	-0.067745	0.856742
C100	C	1.606500	0.432255	1.356742
C101	C	1.111764	0.013920	0.813386
C102	C	1.611764	0.513920	1.313386
C103	C	1.115049	0.089483	0.852025
C104	C	1.615049	0.589483	1.352025
C105	C	1.113072	0.083377	0.934017
C106	C	1.613072	0.583377	1.434017
C107	C	1.117939	0.036291	0.565704
C108	C	1.617939	0.536291	1.065704
C109	C	1.119918	0.042391	0.483708
C110	C	1.619918	0.542391	0.983708
C111	C	1.111367	-0.114837	0.488430
C112	C	1.611367	0.385163	0.988430
C113	C	1.109397	-0.120937	0.570425
C114	C	1.609397	0.379063	1.070425
C115	C	1.112677	-0.045373	0.609055
C116	C	1.612677	0.454627	1.109055
C117	C	1.113780	0.020163	0.729574
C118	C	1.613780	0.520163	1.229574
C119	C	1.110654	-0.051617	0.692863
C120	C	1.610654	0.448383	1.192863
H121	H	0.846527	-0.019498	0.261634
H122	H	1.346527	0.480502	0.761634
H123	H	0.996832	-0.233691	0.274964
H124	H	1.496832	0.266309	0.774964
H125	H	1.119330	0.155976	0.816716
H126	H	1.619330	0.655976	1.316716
Br127	Br	1.120973	0.130989	0.670747
Br128	Br	1.620973	0.630989	1.170747
H129	H	1.186823	-0.497285	0.170038
H130	H	1.686823	0.002715	0.670038
Br131	Br	1.102253	-0.231771	0.629260
Br132	Br	1.602253	0.268229	1.129260
Br133	Br	0.955523	-0.424302	0.297797
Br134	Br	1.455523	0.075698	0.797797
H135	H	1.108695	-0.176357	0.456967
H136	H	1.608695	0.323643	0.956967
Br137	Br	1.127067	0.153229	0.424869
Br138	Br	1.627067	0.653229	0.924869
Br139	Br	0.459490	0.005475	-0.073018
Br140	Br	0.959490	0.505475	0.426982
H141	H	1.120618	0.097820	0.597150
H142	H	1.620618	0.597820	1.097150
Br143	Br	1.117524	0.185924	0.986447
Br144	Br	1.617524	0.685924	1.486447
H145	H	1.106362	-0.118107	0.728165
H146	H	1.606362	0.381893	1.228165
H147	H	1.236546	-0.633095	0.142563
H148	H	1.736546	-0.133095	0.642563
H149	H	1.037642	-0.534193	0.252434
H150	H	1.537642	-0.034193	0.752434
H151	H	1.020034	-0.806373	0.262167
H152	H	1.520034	-0.306373	0.762167
H153	H	0.801390	-0.024951	0.335025
H154	H	1.301390	0.475049	0.835025
H155	H	0.377911	-0.011962	0.160814
H156	H	0.877911	0.488038	0.660814
H157	H	0.596063	-0.035960	0.482493
H158	H	1.096063	0.464040	0.982493
H159	H	1.028963	-0.641699	0.257245
H160	H	1.528963	-0.141699	0.757245
H161	H	0.423065	-0.006491	0.087418
H162	H	0.923065	0.493509	0.587418
H163	H	1.100248	-0.140351	0.974034
H164	H	1.600248	0.359649	1.474034
Br165	Br	0.827197	0.003379	-0.045118
Br166	Br	1.327197	0.503379	0.454882
Br167	Br	0.764960	-0.036941	0.495469
Br168	Br	1.264960	0.463059	0.995469
H169	H	0.417930	-0.032330	0.433951
H170	H	0.917930	0.467670	0.933951
H171	H	1.204410	-0.225098	0.160280
H172	H	1.704410	0.274902	0.660280
Br173	Br	1.225223	-0.413130	0.148809
Br174	Br	1.725223	0.086870	0.648809
H175	H	0.628383	0.004500	-0.060042
H176	H	1.128383	0.504500	0.439958
Br177	Br	1.102012	-0.170292	0.804301
Br178	Br	1.602012	0.329708	1.304301
Br179	Br	1.257344	-0.821131	0.131071
Br180	Br	1.757344	-0.321131	0.631071
