data_functionalizedCrystal
_audit_creation_method	'MofGen! by Chris Wilmer'
_symmetry_space_group_name_H-M	'P1'
_symmetry_Int_Tables_number	1
_symmetry_cell_setting	triclinic
loop_
_symmetry_equiv_pos_as_xyz
  x,y,z
_cell_length_a	29.839135
_cell_length_b	29.839131
_cell_length_c	29.839125
_cell_angle_alpha	89.980740
_cell_angle_beta	89.982859
_cell_angle_gamma	90.037758
loop_
_atom_site_label
_atom_site_type_symbol
_atom_site_fract_x
_atom_site_fract_y
_atom_site_fract_z
Zn1	Zn	0.686746	-0.178913	-0.254023
Zn2	Zn	0.936746	0.071087	-0.004023
Zn3	Zn	1.186746	0.321087	0.245977
Zn4	Zn	1.436746	0.571087	0.495977
Zn5	Zn	0.686684	-0.254017	-0.178883
Zn6	Zn	0.936684	-0.004017	0.071117
Zn7	Zn	1.186684	0.245983	0.321117
Zn8	Zn	1.436684	0.495983	0.571117
Zn9	Zn	0.611627	-0.178905	-0.178901
Zn10	Zn	0.861627	0.071095	0.071099
Zn11	Zn	1.111627	0.321095	0.321099
Zn12	Zn	1.361627	0.571095	0.571099
Zn13	Zn	0.611585	-0.254020	-0.253980
Zn14	Zn	0.861585	-0.004020	-0.003980
Zn15	Zn	1.111585	0.245980	0.246020
Zn16	Zn	1.361585	0.495980	0.496020
O17	O	0.649161	-0.216464	-0.216447
O18	O	0.899161	0.033536	0.033553
O19	O	1.149161	0.283536	0.283553
O20	O	1.399161	0.533536	0.533553
O21	O	0.749605	-0.188878	-0.244066
O22	O	0.999605	0.061122	0.005934
O23	O	1.249605	0.311122	0.255934
O24	O	1.499605	0.561122	0.505934
O25	O	0.676720	-0.244049	-0.116019
O26	O	0.926720	0.005951	0.133981
O27	O	1.176720	0.255951	0.383981
O28	O	1.426720	0.505951	0.633981
O29	O	0.621635	-0.116039	-0.188892
O30	O	0.871635	0.133961	0.061108
O31	O	1.121635	0.383961	0.311108
O32	O	1.371635	0.633961	0.561108
O33	O	0.749560	-0.244056	-0.188861
O34	O	0.999560	0.005944	0.061139
O35	O	1.249560	0.255944	0.311139
O36	O	1.499560	0.505944	0.561139
O37	O	0.676825	-0.116045	-0.244084
O38	O	0.926825	0.133955	0.005916
O39	O	1.176825	0.383955	0.255916
O40	O	1.426825	0.633955	0.505916
O41	O	0.621575	-0.188864	-0.116032
O42	O	0.871575	0.061136	0.133968
O43	O	1.121575	0.311136	0.383968
O44	O	1.371575	0.561136	0.633968
O45	O	0.548754	-0.188867	-0.188850
O46	O	0.798754	0.061133	0.061150
O47	O	1.048754	0.311133	0.311150
O48	O	1.298754	0.561133	0.561150
O49	O	0.621564	-0.244061	-0.316853
O50	O	0.871564	0.005939	-0.066853
O51	O	1.121564	0.255939	0.183147
O52	O	1.371564	0.505939	0.433147
O53	O	0.548723	-0.244054	-0.244010
O54	O	0.798723	0.005946	0.005990
O55	O	1.048723	0.255946	0.255990
O56	O	1.298723	0.505946	0.505990
O57	O	0.676784	-0.188881	-0.316885
O58	O	0.926784	0.061119	-0.066885
O59	O	1.176784	0.311119	0.183115
O60	O	1.426784	0.561119	0.433115
O61	O	0.676679	-0.316885	-0.188819
O62	O	0.926679	-0.066885	0.061181
O63	O	1.176679	0.183115	0.311181
O64	O	1.426679	0.433115	0.561181
O65	O	0.621504	-0.316887	-0.243993
O66	O	0.871504	-0.066887	0.006007
O67	O	1.121504	0.183113	0.256007
O68	O	1.371504	0.433113	0.506007
C69	C	0.532438	-0.216460	-0.216428
C70	C	0.782438	0.033540	0.033572
C71	C	1.032438	0.283540	0.283572
C72	C	1.282438	0.533540	0.533572
C73	C	0.482504	-0.216470	-0.216430
C74	C	0.732504	0.033530	0.033570
C75	C	0.982504	0.283530	0.283570
C76	C	1.232504	0.533530	0.533570
C77	C	0.172881	-0.187776	-0.245235
C78	C	0.422881	0.062224	0.004765
C79	C	0.672881	0.312224	0.254765
C80	C	0.922881	0.562224	0.504765
C81	C	-0.014792	-0.187779	-0.245247
C82	C	0.235208	0.062221	0.004753
C83	C	0.485208	0.312221	0.254753
C84	C	0.735208	0.562221	0.504753
O85	O	-0.039039	-0.163372	-0.269717
O86	O	0.210961	0.086628	-0.019717
O87	O	0.460961	0.336628	0.230283
O88	O	0.710961	0.586628	0.480283
N89	N	-0.038281	-0.216464	-0.216464
N90	N	0.211719	0.033536	0.033536
N91	N	0.461719	0.283536	0.283536
N92	N	0.711719	0.533536	0.533536
C93	C	-0.014850	-0.245149	-0.187672
C94	C	0.235150	0.004851	0.062328
C95	C	0.485150	0.254851	0.312328
C96	C	0.735150	0.504851	0.562328
O97	O	-0.039135	-0.269544	-0.163187
O98	O	0.210865	-0.019544	0.086813
O99	O	0.460865	0.230456	0.336813
O100	O	0.710865	0.480456	0.586813
C101	C	0.172823	-0.245143	-0.187658
C102	C	0.422823	0.004857	0.062342
C103	C	0.672823	0.254857	0.312342
C104	C	0.922823	0.504857	0.562342
C105	C	0.196309	-0.216459	-0.216447
C106	C	0.446309	0.033541	0.033553
C107	C	0.696309	0.283541	0.283553
C108	C	0.946309	0.533541	0.533553
C109	C	0.196368	-0.159094	-0.274021
C110	C	0.446368	0.090906	-0.024021
C111	C	0.696368	0.340906	0.225979
C112	C	0.946368	0.590906	0.475979
C113	C	0.243283	-0.159095	-0.274019
C114	C	0.493283	0.090905	-0.024019
C115	C	0.743283	0.340905	0.225981
C116	C	0.993283	0.590905	0.475981
C117	C	0.266712	-0.187778	-0.245231
C118	C	0.516712	0.062222	0.004769
C119	C	0.766712	0.312222	0.254769
C120	C	1.016712	0.562222	0.504769
C121	C	0.243225	-0.216460	-0.216445
C122	C	0.493225	0.033540	0.033555
C123	C	0.743225	0.283540	0.283555
C124	C	0.993225	0.533540	0.533555
C125	C	0.196253	-0.273825	-0.158864
C126	C	0.446253	-0.023825	0.091136
C127	C	0.696253	0.226175	0.341136
C128	C	0.946253	0.476175	0.591136
C129	C	0.243174	-0.273820	-0.158862
C130	C	0.493174	-0.023820	0.091138
C131	C	0.743174	0.226180	0.341138
C132	C	0.993174	0.476180	0.591138
C133	C	0.266661	-0.245136	-0.187651
C134	C	0.516661	0.004864	0.062349
C135	C	0.766661	0.254864	0.312349
C136	C	1.016661	0.504864	0.562349
C137	C	0.313569	-0.245145	-0.187655
C138	C	0.563569	0.004855	0.062345
C139	C	0.813569	0.254855	0.312345
C140	C	1.063569	0.504855	0.562345
N141	N	0.337058	-0.216460	-0.216439
N142	N	0.587058	0.033540	0.033561
N143	N	0.837058	0.283540	0.283561
N144	N	1.087058	0.533540	0.533561
C145	C	0.313630	-0.187776	-0.245227
C146	C	0.563630	0.062224	0.004773
C147	C	0.813630	0.312224	0.254773
C148	C	1.063630	0.562224	0.504773
C149	C	-0.113380	-0.245150	-0.187683
C150	C	0.136620	0.004850	0.062317
C151	C	0.386620	0.254850	0.312317
C152	C	0.636620	0.504850	0.562317
C153	C	-0.160298	-0.245153	-0.187687
C154	C	0.089702	0.004847	0.062313
C155	C	0.339702	0.254847	0.312313
C156	C	0.589702	0.504847	0.562313
C157	C	-0.160237	-0.187782	-0.245262
C158	C	0.089763	0.062218	0.004738
C159	C	0.339763	0.312218	0.254738
C160	C	0.589763	0.562218	0.504738
C161	C	-0.113319	-0.187782	-0.245259
C162	C	0.136681	0.062218	0.004741
C163	C	0.386681	0.312218	0.254741
C164	C	0.636681	0.562218	0.504741
C165	C	-0.089891	-0.216465	-0.216467
C166	C	0.160109	0.033535	0.033533
C167	C	0.410109	0.283535	0.283533
C168	C	0.660109	0.533535	0.533533
C169	C	0.412156	-0.187781	-0.245221
C170	C	0.662156	0.062219	0.004779
C171	C	0.912156	0.312219	0.254779
C172	C	1.162156	0.562219	0.504779
C173	C	0.459075	-0.187786	-0.245218
C174	C	0.709075	0.062214	0.004782
C175	C	0.959075	0.312214	0.254782
C176	C	1.209075	0.562214	0.504782
C177	C	0.459010	-0.245155	-0.187642
C178	C	0.709010	0.004845	0.062358
C179	C	0.959010	0.254845	0.312358
C180	C	1.209010	0.504845	0.562358
C181	C	0.412095	-0.245152	-0.187647
C182	C	0.662095	0.004848	0.062353
C183	C	0.912095	0.254848	0.312353
C184	C	1.162095	0.504848	0.562353
C185	C	0.388669	-0.216461	-0.216438
C186	C	0.638669	0.033539	0.033562
C187	C	0.888669	0.283539	0.283562
C188	C	1.138669	0.533539	0.533562
O189	O	0.337845	-0.269535	-0.163195
O190	O	0.587845	-0.019535	0.086805
O191	O	0.837845	0.230465	0.336805
O192	O	1.087845	0.480465	0.586805
O193	O	0.337923	-0.163377	-0.269702
O194	O	0.587923	0.086623	-0.019702
O195	O	0.837923	0.336623	0.230298
O196	O	1.087923	0.586623	0.480298
C197	C	0.125965	-0.187775	-0.245236
C198	C	0.375965	0.062225	0.004764
C199	C	0.625965	0.312225	0.254764
C200	C	0.875965	0.562225	0.504764
C201	C	0.102479	-0.216457	-0.216450
C202	C	0.352479	0.033543	0.033550
C203	C	0.602479	0.283543	0.283550
C204	C	0.852479	0.533543	0.533550
C205	C	0.125907	-0.245140	-0.187662
C206	C	0.375907	0.004860	0.062338
C207	C	0.625907	0.254860	0.312338
C208	C	0.875907	0.504860	0.562338
C209	C	0.055561	-0.216459	-0.216454
C210	C	0.305561	0.033541	0.033546
C211	C	0.555561	0.283541	0.283546
C212	C	0.805561	0.533541	0.533546
C213	C	0.032132	-0.187775	-0.245242
C214	C	0.282132	0.062225	0.004758
C215	C	0.532132	0.312225	0.254758
C216	C	0.782132	0.562225	0.504758
C217	C	0.055622	-0.159090	-0.274026
C218	C	0.305622	0.090910	-0.024026
C219	C	0.555622	0.340910	0.225974
C220	C	0.805622	0.590910	0.475974
C221	C	0.102537	-0.159091	-0.274025
C222	C	0.352537	0.090909	-0.024025
C223	C	0.602537	0.340909	0.225975
C224	C	0.852537	0.590909	0.475975
C225	C	0.102418	-0.273825	-0.158878
C226	C	0.352418	-0.023825	0.091122
C227	C	0.602418	0.226175	0.341122
C228	C	0.852418	0.476175	0.591122
C229	C	0.055502	-0.273822	-0.158883
C230	C	0.305502	-0.023822	0.091117
C231	C	0.555502	0.226178	0.341117
C232	C	0.805502	0.476178	0.591117
C233	C	0.032074	-0.245139	-0.187671
C234	C	0.282074	0.004861	0.062329
C235	C	0.532074	0.254861	0.312329
C236	C	0.782074	0.504861	0.562329
C237	C	0.649092	-0.333186	-0.216409
C238	C	0.899092	-0.083186	0.033591
C239	C	1.149092	0.166814	0.283591
C240	C	1.399092	0.416814	0.533591
C241	C	0.649104	-0.383121	-0.216408
C242	C	0.899104	-0.133121	0.033592
C243	C	1.149104	0.116879	0.283592
C244	C	1.399104	0.366879	0.533592
C245	C	0.677892	-0.692732	-0.245226
C246	C	0.927892	-0.442732	0.004774
C247	C	1.177892	-0.192732	0.254774
C248	C	1.427892	0.057268	0.504774
C249	C	0.677940	-0.880405	-0.245253
C250	C	0.927940	-0.630405	0.004747
C251	C	1.177940	-0.380405	0.254747
C252	C	1.427940	-0.130405	0.504747
O253	O	0.702350	-0.904643	-0.269728
O254	O	0.952350	-0.654643	-0.019728
O255	O	1.202350	-0.404643	0.230272
O256	O	1.452350	-0.154643	0.480272
N257	N	0.649237	-0.903906	-0.216497
N258	N	0.899237	-0.653906	0.033503
N259	N	1.149237	-0.403906	0.283503
N260	N	1.399237	-0.153906	0.533503
C261	C	0.620517	-0.880485	-0.187734
C262	C	0.870517	-0.630485	0.062266
C263	C	1.120517	-0.380485	0.312266
C264	C	1.370517	-0.130485	0.562266
O265	O	0.596101	-0.904780	-0.163279
O266	O	0.846101	-0.654780	0.086721
O267	O	1.096101	-0.404780	0.336721
O268	O	1.346101	-0.154780	0.586721
C269	C	0.620466	-0.692813	-0.187709
C270	C	0.870466	-0.442813	0.062291
C271	C	1.120466	-0.192813	0.312291
C272	C	1.370466	0.057187	0.562291
C273	C	0.649175	-0.669315	-0.216464
C274	C	0.899175	-0.419315	0.033536
C275	C	1.149175	-0.169315	0.283536
C276	C	1.399175	0.080685	0.533536
C277	C	0.706598	-0.669234	-0.273979
C278	C	0.956598	-0.419234	-0.023979
C279	C	1.206598	-0.169234	0.226021
C280	C	1.456598	0.080766	0.476021
C281	C	0.706587	-0.622319	-0.273971
C282	C	0.956587	-0.372319	-0.023971
C283	C	1.206587	-0.122319	0.226029
C284	C	1.456587	0.127681	0.476029
C285	C	0.677870	-0.598901	-0.245209
C286	C	0.927870	-0.348901	0.004791
C287	C	1.177870	-0.098901	0.254791
C288	C	1.427870	0.151099	0.504791
C289	C	0.649164	-0.622400	-0.216456
C290	C	0.899164	-0.372400	0.033544
C291	C	1.149164	-0.122400	0.283544
C292	C	1.399164	0.127600	0.533544
C293	C	0.591744	-0.669393	-0.158949
C294	C	0.841744	-0.419393	0.091051
C295	C	1.091744	-0.169393	0.341051
C296	C	1.341744	0.080607	0.591051
C297	C	0.591734	-0.622472	-0.158946
C298	C	0.841734	-0.372472	0.091054
C299	C	1.091734	-0.122472	0.341054
C300	C	1.341734	0.127528	0.591054
C301	C	0.620442	-0.598974	-0.187701
C302	C	0.870442	-0.348974	0.062299
C303	C	1.120442	-0.098974	0.312299
C304	C	1.370442	0.151026	0.562299
C305	C	0.620437	-0.552067	-0.187685
C306	C	0.870437	-0.302067	0.062315
C307	C	1.120437	-0.052067	0.312315
C308	C	1.370437	0.197933	0.562315
N309	N	0.649140	-0.528566	-0.216441
N310	N	0.899140	-0.278566	0.033559
N311	N	1.149140	-0.028566	0.283559
N312	N	1.399140	0.221434	0.533559
C313	C	0.677857	-0.551984	-0.245203
C314	C	0.927857	-0.301984	0.004797
C315	C	1.177857	-0.051984	0.254797
C316	C	1.427857	0.198016	0.504797
C317	C	0.620546	-0.979016	-0.187748
C318	C	0.870546	-0.729016	0.062252
C319	C	1.120546	-0.479016	0.312252
C320	C	1.370546	-0.229016	0.562252
C321	C	0.620559	-1.025934	-0.187753
C322	C	0.870559	-0.775934	0.062247
C323	C	1.120559	-0.525934	0.312247
C324	C	1.370559	-0.275934	0.562247
C325	C	0.677982	-1.025851	-0.245274
C326	C	0.927982	-0.775851	0.004726
C327	C	1.177982	-0.525851	0.254726
C328	C	1.427982	-0.275851	0.504726
C329	C	0.677971	-0.978932	-0.245266
C330	C	0.927971	-0.728932	0.004734
C331	C	1.177971	-0.478932	0.254734
C332	C	1.427971	-0.228932	0.504734
C333	C	0.649250	-0.955515	-0.216504
C334	C	0.899250	-0.705515	0.033496
C335	C	1.149250	-0.455515	0.283496
C336	C	1.399250	-0.205515	0.533496
C337	C	0.677833	-0.453458	-0.245183
C338	C	0.927833	-0.203458	0.004817
C339	C	1.177833	0.046542	0.254817
C340	C	1.427833	0.296542	0.504817
C341	C	0.677821	-0.406538	-0.245170
C342	C	0.927821	-0.156538	0.004830
C343	C	1.177821	0.093462	0.254830
C344	C	1.427821	0.343462	0.504830
C345	C	0.620396	-0.406625	-0.187651
C346	C	0.870396	-0.156625	0.062349
C347	C	1.120396	0.093375	0.312349
C348	C	1.370396	0.343375	0.562349
C349	C	0.620410	-0.453541	-0.187662
C350	C	0.870410	-0.203541	0.062338
C351	C	1.120410	0.046459	0.312338
C352	C	1.370410	0.296459	0.562338
C353	C	0.649129	-0.476956	-0.216431
C354	C	0.899129	-0.226956	0.033569
C355	C	1.149129	0.023044	0.283569
C356	C	1.399129	0.273044	0.533569
O357	O	0.596037	-0.527800	-0.163227
O358	O	0.846037	-0.277800	0.086773
O359	O	1.096037	-0.027800	0.336773
O360	O	1.346037	0.222200	0.586773
O361	O	0.702263	-0.527681	-0.269662
O362	O	0.952263	-0.277681	-0.019662
O363	O	1.202263	-0.027681	0.230338
O364	O	1.452263	0.222319	0.480338
C365	C	0.677902	-0.739648	-0.245235
C366	C	0.927902	-0.489648	0.004765
C367	C	1.177902	-0.239648	0.254765
C368	C	1.427902	0.010352	0.504765
C369	C	0.649196	-0.763146	-0.216482
C370	C	0.899196	-0.513146	0.033518
C371	C	1.149196	-0.263146	0.283518
C372	C	1.399196	-0.013146	0.533518
C373	C	0.620480	-0.739729	-0.187720
C374	C	0.870480	-0.489729	0.062280
C375	C	1.120480	-0.239729	0.312280
C376	C	1.370480	0.010271	0.562280
C377	C	0.649210	-0.810064	-0.216487
C378	C	0.899210	-0.560064	0.033513
C379	C	1.149210	-0.310064	0.283513
C380	C	1.399210	-0.060064	0.533513
C381	C	0.677926	-0.833481	-0.245249
C382	C	0.927926	-0.583481	0.004751
C383	C	1.177926	-0.333481	0.254751
C384	C	1.427926	-0.083481	0.504751
C385	C	0.706630	-0.809981	-0.274006
C386	C	0.956630	-0.559981	-0.024006
C387	C	1.206630	-0.309981	0.225994
C388	C	1.456630	-0.059981	0.475994
C389	C	0.706619	-0.763065	-0.273997
C390	C	0.956619	-0.513065	-0.023997
C391	C	1.206619	-0.263065	0.226003
C392	C	1.456619	-0.013065	0.476003
C393	C	0.591776	-0.763229	-0.158964
C394	C	0.841776	-0.513229	0.091036
C395	C	1.091776	-0.263229	0.341036
C396	C	1.341776	-0.013229	0.591036
C397	C	0.591790	-0.810145	-0.158974
C398	C	0.841790	-0.560145	0.091026
C399	C	1.091790	-0.310145	0.341026
C400	C	1.341790	-0.060145	0.591026
C401	C	0.620506	-0.833562	-0.187736
C402	C	0.870506	-0.583562	0.062264
C403	C	1.120506	-0.333562	0.312264
C404	C	1.370506	-0.083562	0.562264
C405	C	0.766339	-0.216468	-0.216467
C406	C	1.016339	0.033532	0.033533
C407	C	1.266339	0.283532	0.283533
C408	C	1.516339	0.533532	0.533533
C409	C	0.816273	-0.216469	-0.216475
C410	C	1.066273	0.033531	0.033525
C411	C	1.316273	0.283531	0.283525
C412	C	1.566273	0.533531	0.533525
C413	C	0.649176	-0.216472	-0.333625
C414	C	0.899176	0.033528	-0.083625
C415	C	1.149176	0.283528	0.166375
C416	C	1.399176	0.533528	0.416375
C417	C	0.649183	-0.216476	-0.383560
C418	C	0.899183	0.033524	-0.133560
C419	C	1.149183	0.283524	0.116440
C420	C	1.399183	0.533524	0.366440
C421	C	0.649242	-0.099285	-0.216495
C422	C	0.899242	0.150715	0.033505
C423	C	1.149242	0.400715	0.283505
C424	C	1.399242	0.650715	0.533505
C425	C	0.649276	-0.049351	-0.216515
C426	C	0.899276	0.200649	0.033485
C427	C	1.149276	0.450649	0.283485
C428	C	1.399276	0.700649	0.533485
C429	C	0.620460	-0.245105	-0.740131
C430	C	0.870460	0.004895	-0.490131
C431	C	1.120460	0.254895	-0.240131
C432	C	1.370460	0.504895	0.009869
C433	C	0.620444	-0.245157	-0.552458
C434	C	0.870444	0.004843	-0.302458
C435	C	1.120444	0.254843	-0.052458
C436	C	1.370444	0.504843	0.197542
O437	O	0.595979	-0.269584	-0.528179
O438	O	0.845979	-0.019584	-0.278179
O439	O	1.095979	0.230416	-0.028179
O440	O	1.345979	0.480416	0.221821
N441	N	0.649193	-0.216434	-0.529005
N442	N	0.899193	0.033566	-0.279005
N443	N	1.149193	0.283566	-0.029005
N444	N	1.399193	0.533566	0.220995
C445	C	0.677945	-0.187694	-0.552474
C446	C	0.927945	0.062306	-0.302474
C447	C	1.177945	0.312306	-0.052474
C448	C	1.427945	0.562306	0.197526
O449	O	0.702394	-0.163262	-0.528220
O450	O	0.952394	0.086738	-0.278220
O451	O	1.202394	0.336738	-0.028220
O452	O	1.452394	0.586738	0.221780
C453	C	0.677959	-0.187641	-0.740146
C454	C	0.927959	0.062359	-0.490146
C455	C	1.177959	0.312359	-0.240146
C456	C	1.427959	0.562359	0.009854
C457	C	0.649212	-0.216369	-0.763596
C458	C	0.899212	0.033631	-0.513596
C459	C	1.149212	0.283631	-0.263596
C460	C	1.399212	0.533631	-0.013596
C461	C	0.591715	-0.273831	-0.763581
C462	C	0.841715	-0.023831	-0.513581
C463	C	1.091715	0.226169	-0.263581
C464	C	1.341715	0.476169	-0.013581
C465	C	0.591721	-0.273819	-0.810496
C466	C	0.841721	-0.023819	-0.560496
C467	C	1.091721	0.226181	-0.310496
C468	C	1.341721	0.476181	-0.060496
C469	C	0.620473	-0.245082	-0.833962
C470	C	0.870473	0.004918	-0.583962
C471	C	1.120473	0.254918	-0.333962
C472	C	1.370473	0.504918	-0.083962
C473	C	0.649218	-0.216357	-0.810512
C474	C	0.899218	0.033643	-0.560512
C475	C	1.149218	0.283643	-0.310512
C476	C	1.399218	0.533643	-0.060512
C477	C	0.706708	-0.158899	-0.763614
C478	C	0.956708	0.091101	-0.513614
C479	C	1.206708	0.341101	-0.263614
C480	C	1.456708	0.591101	-0.013614
C481	C	0.706708	-0.158887	-0.810535
C482	C	0.956708	0.091113	-0.560535
C483	C	1.206708	0.341113	-0.310535
C484	C	1.456708	0.591113	-0.060535
C485	C	0.677961	-0.187615	-0.833985
C486	C	0.927961	0.062385	-0.583985
C487	C	1.177961	0.312385	-0.333985
C488	C	1.427961	0.562385	-0.083985
C489	C	0.677975	-0.187609	-0.880892
C490	C	0.927975	0.062391	-0.630892
C491	C	1.177975	0.312391	-0.380892
C492	C	1.427975	0.562391	-0.130892
N493	N	0.649226	-0.216332	-0.904345
N494	N	0.899226	0.033668	-0.654345
N495	N	1.149226	0.283668	-0.404345
N496	N	1.399226	0.533668	-0.154345
C497	C	0.620475	-0.245069	-0.880880
C498	C	0.870475	0.004931	-0.630880
C499	C	1.120475	0.254931	-0.380880
C500	C	1.370475	0.504931	-0.130880
C501	C	0.677937	-0.187725	-0.453943
C502	C	0.927937	0.062275	-0.203943
C503	C	1.177937	0.312275	0.046057
C504	C	1.427937	0.562275	0.296057
C505	C	0.677934	-0.187739	-0.407025
C506	C	0.927934	0.062261	-0.157025
C507	C	1.177934	0.312261	0.092975
C508	C	1.427934	0.562261	0.342975
C509	C	0.620432	-0.245202	-0.407012
C510	C	0.870432	0.004798	-0.157012
C511	C	1.120432	0.254798	0.092988
C512	C	1.370432	0.504798	0.342988
C513	C	0.620438	-0.245190	-0.453931
C514	C	0.870438	0.004810	-0.203931
C515	C	1.120438	0.254810	0.046069
C516	C	1.370438	0.504810	0.296069
C517	C	0.649188	-0.216448	-0.477396
C518	C	0.899188	0.033552	-0.227396
C519	C	1.149188	0.283552	0.022604
C520	C	1.399188	0.533552	0.272604
C521	C	0.620490	-0.245042	-0.979405
C522	C	0.870490	0.004958	-0.729405
C523	C	1.120490	0.254958	-0.479405
C524	C	1.370490	0.504958	-0.229405
C525	C	0.620500	-0.245030	-1.026325
C526	C	0.870500	0.004970	-0.776325
C527	C	1.120500	0.254970	-0.526325
C528	C	1.370500	0.504970	-0.276325
C529	C	0.678000	-0.187566	-1.026334
C530	C	0.928000	0.062434	-0.776334
C531	C	1.178000	0.312434	-0.526334
C532	C	1.428000	0.562434	-0.276334
C533	C	0.677992	-0.187580	-0.979418
C534	C	0.927992	0.062420	-0.729418
C535	C	1.177992	0.312420	-0.479418
C536	C	1.427992	0.562420	-0.229418
C537	C	0.649234	-0.216320	-0.955955
C538	C	0.899234	0.033680	-0.705955
C539	C	1.149234	0.283680	-0.455955
C540	C	1.399234	0.533680	-0.205955
O541	O	0.702423	-0.163191	-0.905200
O542	O	0.952423	0.086809	-0.655200
O543	O	1.202423	0.336809	-0.405200
O544	O	1.452423	0.586809	-0.155200
O545	O	0.596023	-0.269491	-0.905142
O546	O	0.846023	-0.019491	-0.655142
O547	O	1.096023	0.230509	-0.405142
O548	O	1.346023	0.480509	-0.155142
C549	C	0.620454	-0.245117	-0.693215
C550	C	0.870454	0.004883	-0.443215
C551	C	1.120454	0.254883	-0.193215
C552	C	1.370454	0.504883	0.056785
C553	C	0.649199	-0.216392	-0.669765
C554	C	0.899199	0.033608	-0.419765
C555	C	1.149199	0.283608	-0.169765
C556	C	1.399199	0.533608	0.080235
C557	C	0.677951	-0.187655	-0.693231
C558	C	0.927951	0.062345	-0.443231
C559	C	1.177951	0.312345	-0.193231
C560	C	1.427951	0.562345	0.056769
C561	C	0.649197	-0.216406	-0.622847
C562	C	0.899197	0.033594	-0.372847
C563	C	1.149197	0.283594	-0.122847
C564	C	1.399197	0.533594	0.127153
C565	C	0.620446	-0.245142	-0.599382
C566	C	0.870446	0.004858	-0.349382
C567	C	1.120446	0.254858	-0.099382
C568	C	1.370446	0.504858	0.150618
C569	C	0.591697	-0.273865	-0.622834
C570	C	0.841697	-0.023865	-0.372834
C571	C	1.091697	0.226135	-0.122834
C572	C	1.341697	0.476135	0.127166
C573	C	0.591703	-0.273854	-0.669750
C574	C	0.841703	-0.023854	-0.419750
C575	C	1.091703	0.226146	-0.169750
C576	C	1.341703	0.476146	0.080250
C577	C	0.706699	-0.158932	-0.669778
C578	C	0.956699	0.091068	-0.419778
C579	C	1.206699	0.341068	-0.169778
C580	C	1.456699	0.591068	0.080222
C581	C	0.706691	-0.158946	-0.622863
C582	C	0.956691	0.091054	-0.372863
C583	C	1.206691	0.341054	-0.122863
C584	C	1.456691	0.591054	0.127137
C585	C	0.677940	-0.187683	-0.599397
C586	C	0.927940	0.062317	-0.349397
C587	C	1.177940	0.312317	-0.099397
C588	C	1.427940	0.562317	0.150603
C589	C	0.649171	-0.216423	-0.099725
C590	C	0.899171	0.033577	0.150275
C591	C	1.149171	0.283577	0.400275
C592	C	1.399171	0.533577	0.650275
C593	C	0.649251	-0.216293	-0.049790
C594	C	0.899251	0.033707	0.200210
C595	C	1.149251	0.283707	0.450210
C596	C	1.399251	0.533707	0.700210
H597	H	-0.094310	-0.268509	-0.164235
H598	H	0.155690	-0.018509	0.085765
H599	H	0.405690	0.231491	0.335765
H600	H	0.655690	0.481491	0.585765
H601	H	0.701351	-0.164320	-0.473044
H602	H	0.951351	0.085680	-0.223044
H603	H	1.201351	0.335680	0.026956
H604	H	1.451351	0.585680	0.276956
H605	H	0.478094	-0.268509	-0.164205
H606	H	0.728094	-0.018509	0.085795
H607	H	0.978094	0.231491	0.335795
H608	H	1.228094	0.481491	0.585795
H609	H	0.568294	-0.297247	-0.688839
H610	H	0.818294	-0.047247	-0.438839
H611	H	1.068294	0.202753	-0.188839
H612	H	1.318294	0.452753	0.061161
Cl613	Cl	0.584337	-0.281174	-0.949916
Cl614	Cl	0.834337	-0.031174	-0.699916
Cl615	Cl	1.084337	0.218826	-0.449916
Cl616	Cl	1.334337	0.468826	-0.199916
Cl617	Cl	0.026160	-0.123033	-0.310218
Cl618	Cl	0.276160	0.126967	-0.060218
Cl619	Cl	0.526160	0.376967	0.189782
Cl620	Cl	0.776160	0.626967	0.439782
H621	H	0.701347	-0.164350	-0.387936
H622	H	0.951347	0.085650	-0.137936
H623	H	1.201347	0.335650	0.112064
H624	H	1.451347	0.585650	0.362064
H625	H	0.121488	-0.297182	-0.135434
H626	H	0.371488	-0.047182	0.114566
H627	H	0.621488	0.202818	0.364566
H628	H	0.871488	0.452818	0.614566
Cl629	Cl	0.025982	-0.309885	-0.122686
Cl630	Cl	0.275982	-0.059885	0.127314
Cl631	Cl	0.525982	0.190115	0.377314
Cl632	Cl	0.775982	0.440115	0.627314
Cl633	Cl	0.714143	-0.151442	-1.055842
Cl634	Cl	0.964143	0.098558	-0.805842
Cl635	Cl	1.214143	0.348558	-0.555842
Cl636	Cl	1.464143	0.598558	-0.305842
Cl637	Cl	0.742849	-0.122779	-0.734145
Cl638	Cl	0.992849	0.127221	-0.484145
Cl639	Cl	1.242849	0.377221	-0.234145
Cl640	Cl	1.492849	0.627221	0.015855
H641	H	0.701403	-0.164190	-0.960324
H642	H	0.951403	0.085810	-0.710324
H643	H	1.201403	0.335810	-0.460324
H644	H	1.451403	0.585810	-0.210324
Cl645	Cl	0.555580	-0.309936	-0.839969
Cl646	Cl	0.805580	-0.059936	-0.589969
Cl647	Cl	1.055580	0.190064	-0.339969
Cl648	Cl	1.305580	0.440064	-0.089969
H649	H	0.729982	-0.688296	-0.297404
H650	H	0.979982	-0.438296	-0.047404
H651	H	1.229982	-0.188296	0.202596
H652	H	1.479982	0.061704	0.452596
H653	H	0.568344	-0.603409	-0.135526
H654	H	0.818344	-0.353409	0.114474
H655	H	1.068344	-0.103409	0.364474
H656	H	1.318344	0.146591	0.614474
H657	H	0.597029	-0.268582	-0.473021
H658	H	0.847029	-0.018582	-0.223021
H659	H	1.097029	0.231418	0.026979
H660	H	1.347029	0.481418	0.276979
H661	H	0.730014	-0.829055	-0.297423
H662	H	0.980014	-0.579055	-0.047423
H663	H	1.230014	-0.329055	0.202577
H664	H	1.480014	-0.079055	0.452577
Cl665	Cl	0.166923	-0.123031	-0.310217
Cl666	Cl	0.416923	0.126969	-0.060217
Cl667	Cl	0.666923	0.376969	0.189783
Cl668	Cl	0.916923	0.626969	0.439783
H669	H	-0.094199	-0.164424	-0.268701
H670	H	0.155801	0.085576	-0.018701
H671	H	0.405801	0.335576	0.231299
H672	H	0.655801	0.585576	0.481299
Cl673	Cl	0.555669	-0.733797	-0.122804
Cl674	Cl	0.805669	-0.483797	0.127196
Cl675	Cl	1.055669	-0.233797	0.377196
Cl676	Cl	1.305669	0.016203	0.627196
H677	H	0.568412	-0.829273	-0.135554
H678	H	0.818412	-0.579273	0.114446
H679	H	1.068412	-0.329273	0.364446
H680	H	1.318412	-0.079273	0.614446
H681	H	-0.179321	-0.164427	-0.268702
H682	H	0.070679	0.085573	-0.018702
H683	H	0.320679	0.335573	0.231298
H684	H	0.570679	0.585573	0.481298
H685	H	0.701200	-0.387407	-0.268586
H686	H	0.951200	-0.137407	-0.018586
H687	H	1.201200	0.112593	0.231414
H688	H	1.451200	0.362593	0.481414
Cl689	Cl	0.166739	-0.309878	-0.122661
Cl690	Cl	0.416739	-0.059878	0.127339
Cl691	Cl	0.666739	0.190122	0.377339
Cl692	Cl	0.916739	0.440122	0.627339
Cl693	Cl	0.488599	-0.151725	-0.281414
Cl694	Cl	0.738599	0.098275	-0.031414
Cl695	Cl	0.988599	0.348275	0.218586
Cl696	Cl	1.238599	0.598275	0.468586
Cl697	Cl	0.272803	-0.123031	-0.310211
Cl698	Cl	0.522803	0.126969	-0.060211
Cl699	Cl	0.772803	0.376969	0.189789
Cl700	Cl	1.022803	0.626969	0.439789
H701	H	0.597023	-0.268601	-0.387899
H702	H	0.847023	-0.018601	-0.137899
H703	H	1.097023	0.231399	0.112101
H704	H	1.347023	0.481399	0.362101
H705	H	-0.179417	-0.268515	-0.164249
H706	H	0.070583	-0.018515	0.085751
H707	H	0.320583	0.231485	0.335751
H708	H	0.570583	0.481485	0.585751
Cl709	Cl	0.272623	-0.309882	-0.122665
Cl710	Cl	0.522623	-0.059882	0.127335
Cl711	Cl	0.772623	0.190118	0.377335
Cl712	Cl	1.022623	0.440118	0.627335
Cl713	Cl	0.555649	-0.698922	-0.122799
Cl714	Cl	0.805649	-0.448922	0.127201
Cl715	Cl	1.055649	-0.198922	0.377201
Cl716	Cl	1.305649	0.051078	0.627201
Cl717	Cl	0.382568	-0.281225	-0.151467
Cl718	Cl	0.632568	-0.031225	0.098533
Cl719	Cl	0.882568	0.218775	0.348533
Cl720	Cl	1.132568	0.468775	0.598533
Cl721	Cl	0.742857	-0.122812	-0.699270
Cl722	Cl	0.992857	0.127188	-0.449270
Cl723	Cl	1.242857	0.377188	-0.199270
Cl724	Cl	1.492857	0.627188	0.050730
H725	H	0.597091	-0.268425	-1.045416
H726	H	0.847091	-0.018425	-0.795416
H727	H	1.097091	0.231575	-0.545416
H728	H	1.347091	0.481575	-0.295416
H729	H	0.701216	-0.472517	-0.268612
H730	H	0.951216	-0.222517	-0.018612
H731	H	1.201216	0.027483	0.231388
H732	H	1.451216	0.277483	0.481388
H733	H	0.729996	-0.743936	-0.297412
H734	H	0.979996	-0.493936	-0.047412
H735	H	1.229996	-0.243936	0.202588
H736	H	1.479996	0.006064	0.452588
Cl737	Cl	0.714062	-0.949396	-0.281417
Cl738	Cl	0.964062	-0.699396	-0.031417
Cl739	Cl	1.214062	-0.449396	0.218583
Cl740	Cl	1.464062	-0.199396	0.468583
H741	H	0.597017	-0.387552	-0.164232
H742	H	0.847017	-0.137552	0.085768
H743	H	1.097017	0.112448	0.335768
H744	H	1.347017	0.362448	0.585768
H745	H	0.729963	-0.603189	-0.297387
H746	H	0.979963	-0.353189	-0.047387
H747	H	1.229963	-0.103189	0.202613
H748	H	1.479963	0.146811	0.452613
H749	H	0.701365	-1.044925	-0.268692
H750	H	0.951365	-0.794925	-0.018692
H751	H	1.201365	-0.544925	0.231308
H752	H	1.451365	-0.294925	0.481308
Cl753	Cl	0.584473	-1.055468	-0.151596
Cl754	Cl	0.834473	-0.805468	0.098404
Cl755	Cl	1.084473	-0.555468	0.348404
Cl756	Cl	1.334473	-0.305468	0.598404
H757	H	0.597036	-0.472674	-0.164244
H758	H	0.847036	-0.222674	0.085756
H759	H	1.097036	0.027326	0.335756
H760	H	1.347036	0.277326	0.585756
H761	H	0.730119	-0.135480	-0.829637
H762	H	0.980119	0.114520	-0.579637
H763	H	1.230119	0.364520	-0.329637
H764	H	1.480119	0.614520	-0.079637
H765	H	0.568300	-0.297232	-0.744480
H766	H	0.818300	-0.047232	-0.494480
H767	H	1.068300	0.202768	-0.244480
H768	H	1.318300	0.452768	0.005520
H769	H	0.393087	-0.164417	-0.268665
H770	H	0.643087	0.085583	-0.018665
H771	H	0.893087	0.335583	0.231335
H772	H	1.143087	0.585583	0.481335
Cl773	Cl	0.584434	-0.949585	-0.151588
Cl774	Cl	0.834434	-0.699585	0.098412
Cl775	Cl	1.084434	-0.449585	0.348412
Cl776	Cl	1.334434	-0.199585	0.598412
H777	H	0.121656	-0.135734	-0.297467
H778	H	0.371656	0.114266	-0.047467
H779	H	0.621656	0.364266	0.202533
H780	H	0.871656	0.614266	0.452533
H781	H	0.568289	-0.297266	-0.603721
H782	H	0.818289	-0.047266	-0.353721
H783	H	1.068289	0.202734	-0.103721
H784	H	1.318289	0.452734	0.146279
H785	H	0.730104	-0.135553	-0.603773
H786	H	0.980104	0.114447	-0.353773
H787	H	1.230104	0.364447	-0.103773
H788	H	1.480104	0.614447	0.146227
