data_functionalizedCrystal
_audit_creation_method	'MofGen! by Chris Wilmer'
_symmetry_space_group_name_H-M	'P1'
_symmetry_Int_Tables_number	1
_symmetry_cell_setting	triclinic
loop_
_symmetry_equiv_pos_as_xyz
  x,y,z
_cell_length_a	12.827893
_cell_length_b	18.101395
_cell_length_c	12.827885
_cell_angle_alpha	89.967625
_cell_angle_beta	89.980538
_cell_angle_gamma	90.031075
loop_
_atom_site_label
_atom_site_type_symbol
_atom_site_fract_x
_atom_site_fract_y
_atom_site_fract_z
Zn1	Zn	1.597557	-0.294794	-0.590830
Zn2	Zn	1.597403	-0.418654	-0.416082
Zn3	Zn	1.422798	-0.294830	-0.416103
Zn4	Zn	1.422736	-0.418598	-0.590782
O5	O	1.510124	-0.356719	-0.503449
O6	O	1.743773	-0.311233	-0.567660
O7	O	1.574203	-0.402266	-0.269849
O8	O	1.446071	-0.191193	-0.439310
O9	O	1.743660	-0.402231	-0.439274
O10	O	1.574466	-0.191166	-0.567681
O11	O	1.445921	-0.311294	-0.269865
O12	O	1.276554	-0.311241	-0.439264
O13	O	1.445965	-0.402137	-0.737025
O14	O	1.276508	-0.402172	-0.567600
O15	O	1.574406	-0.311179	-0.737060
O16	O	1.574143	-0.522279	-0.439228
O17	O	1.445816	-0.522239	-0.567579
C18	C	1.238614	-0.356705	-0.503430
C19	C	1.122461	-0.356717	-0.503446
C20	C	1.070681	-0.401783	-0.566852
C21	C	0.950631	-0.401796	-0.566871
C22	C	1.509984	-0.549130	-0.503419
C23	C	1.510020	-0.631444	-0.503440
C24	C	1.510249	-0.930535	-0.503497
C25	C	1.429696	-0.899215	-0.584452
C26	C	1.429314	-0.813597	-0.584199
C27	C	1.510135	-0.782152	-0.503470
C28	C	1.480315	-0.813311	-0.393335
C29	C	1.479796	-0.898956	-0.393820
C30	C	1.620798	-0.898877	-0.531706
C31	C	1.620148	-0.813226	-0.534121
C32	C	1.510073	-0.698293	-0.503448
C33	C	1.510309	-1.014394	-0.503511
C34	C	1.782694	-0.356734	-0.503470
C35	C	1.898847	-0.356740	-0.503479
C36	C	1.510196	-0.356648	-0.776020
C37	C	1.510227	-0.356618	-0.892173
C38	C	1.510293	-0.163557	-0.503503
C39	C	1.510365	-0.081243	-0.503526
C40	C	1.446769	-0.311593	-0.943965
C41	C	1.446799	-0.311561	-1.064016
C42	C	1.510112	-0.356737	-0.231940
C43	C	1.510284	-0.356558	-0.115787
H44	H	1.115227	-0.440353	-0.621127
H45	H	1.348253	-0.920803	-0.566002
H46	H	1.448169	-0.919757	-0.666380
H47	H	0.943370	-0.318158	-0.449188
O48	O	1.575186	-0.402471	-0.945338
C49	C	1.716148	-0.412326	-1.068749
C50	C	1.642659	-0.360312	-1.008592
H51	H	1.770704	-0.378262	-1.119921
H52	H	1.763999	-0.446216	-1.011127
H53	H	1.668086	-0.451017	-1.119790
H54	H	1.690640	-0.321576	-0.957550
H55	H	1.594804	-0.326474	-1.066270
H56	H	1.077915	-0.318141	-0.449179
H57	H	1.392476	-0.273010	-1.108556
H58	H	1.535922	-0.919677	-0.331445
O59	O	1.381973	-0.265531	-0.890962
C60	C	1.331410	-0.139586	-0.857344
C61	C	1.404845	-0.191669	-0.917447
H62	H	1.349890	-0.079858	-0.878718
H63	H	1.247106	-0.152509	-0.878757
H64	H	1.342916	-0.147839	-0.769993
H65	H	1.393431	-0.183445	-1.004813
H66	H	1.489122	-0.178734	-0.895947
H67	H	1.564619	-0.395105	-1.071253
O68	O	1.331490	-0.789318	-0.562024
C69	C	1.150722	-0.787936	-0.613006
C70	C	1.261455	-0.815494	-0.638235
H71	H	1.094072	-0.809075	-0.674620
H72	H	1.126124	-0.809319	-0.533084
H73	H	1.150011	-0.724959	-0.612670
H74	H	1.262251	-0.878467	-0.638628
H75	H	1.286008	-0.794055	-0.718140
O76	O	0.897565	-0.447932	-0.631528
C77	C	0.863973	-0.573925	-0.681974
C78	C	0.924117	-0.521760	-0.608664
H79	H	0.885435	-0.633624	-0.663530
H80	H	0.776604	-0.565799	-0.670449
H81	H	0.885410	-0.560959	-0.766278
H82	H	0.902767	-0.534693	-0.524333
H83	H	1.011471	-0.529894	-0.620280
H84	H	1.447971	-0.792528	-0.665863
O85	O	1.692526	-0.922947	-0.461436
C86	C	1.872531	-0.921642	-0.407816
C87	C	1.791414	-0.894311	-0.487457
H88	H	1.952503	-0.898514	-0.428837
H89	H	1.849707	-0.902119	-0.326474
H90	H	1.875439	-0.984579	-0.409215
H91	H	1.788465	-0.831377	-0.486151
H92	H	1.814269	-0.913889	-0.568762
H93	H	1.398985	-0.919000	-0.369923
O94	O	1.384875	-0.787937	-0.364259
C95	C	1.208850	-0.819335	-0.315728
C96	C	1.316894	-0.848168	-0.348616
H97	H	1.153852	-0.868017	-0.303092
H98	H	1.216285	-0.786568	-0.240222
H99	H	1.176409	-0.782062	-0.379601
H100	H	1.349397	-0.885470	-0.284814
H101	H	1.309394	-0.880893	-0.424151
H102	H	1.537140	-0.792944	-0.331373
O103	O	1.653291	-0.924446	-0.625933
C104	C	1.706509	-0.893477	-0.800753
C105	C	1.669757	-0.864419	-0.694083
H106	H	1.719812	-0.844962	-0.855888
H107	H	1.782419	-0.925410	-0.790663
H108	H	1.644426	-0.931585	-0.834697
H109	H	1.731767	-0.826283	-0.660079
H110	H	1.593822	-0.832529	-0.704238
O111	O	1.647167	-0.788925	-0.630763
C112	C	1.770620	-0.720133	-0.733989
C113	C	1.740157	-0.747603	-0.624480
H114	H	1.845792	-0.686706	-0.728943
H115	H	1.782915	-0.769501	-0.787742
H116	H	1.705652	-0.683812	-0.766346
H117	H	1.805088	-0.783912	-0.592030
H118	H	1.727826	-0.698202	-0.570798
H119	H	1.683339	-0.791817	-0.479455
