data_functionalizedCrystal
_audit_creation_method	'MofGen! by Chris Wilmer'
_symmetry_space_group_name_H-M	'P1'
_symmetry_Int_Tables_number	1
_symmetry_cell_setting	triclinic
loop_
_symmetry_equiv_pos_as_xyz
  x,y,z
_cell_length_a	10.489741
_cell_length_b	9.065218
_cell_length_c	7.540329
_cell_angle_alpha	90.001757
_cell_angle_beta	89.999730
_cell_angle_gamma	95.222470
loop_
_atom_site_label
_atom_site_type_symbol
_atom_site_fract_x
_atom_site_fract_y
_atom_site_fract_z
O1	O	1.694803	-0.208165	-0.147365
O2	O	1.323678	-0.227705	-0.147392
O3	O	1.516911	-0.003256	-0.147374
O4	O	1.501569	-0.432615	-0.147382
O5	O	1.516900	-0.003253	0.147591
O6	O	1.323666	-0.227702	0.147573
O7	O	1.694791	-0.208162	0.147600
Cu8	Cu	1.509228	-0.217932	0.174519
Cu9	Cu	1.509241	-0.217935	-0.174311
O10	O	1.501558	-0.432612	0.147583
C11	C	1.276135	-0.226228	0.000087
C12	C	1.134489	-0.221813	0.000077
N13	N	1.509227	-0.217929	0.419868
C14	C	1.515431	0.051725	0.000105
C15	C	1.511022	0.215547	0.000097
C16	C	1.065834	-0.079002	0.000096
C17	C	0.973956	-0.146466	-0.145334
C18	C	0.973979	-0.146497	0.145478
C19	C	1.044478	-0.289335	-0.145474
C20	C	1.044510	-0.289346	0.145469
C21	C	0.952660	-0.356914	0.000003
C22	C	1.742334	-0.209640	0.000117
C23	C	1.883979	-0.214055	0.000116
C24	C	1.503038	-0.487593	0.000099
C25	C	1.507447	-0.651414	0.000096
N26	N	1.509252	-0.217927	-0.419659
H27	H	0.942728	-0.086041	-0.268286
H28	H	1.075769	-0.349722	0.268426
C29	C	0.798549	-0.062789	0.310527
C30	C	0.931856	-0.064899	0.311463
H31	H	0.772551	-0.012399	0.412988
H32	H	0.759450	-0.161502	0.310720
H33	H	0.773244	-0.013012	0.207246
H34	H	0.957161	-0.114686	0.414738
H35	H	0.970969	0.033832	0.311286
H36	H	1.115099	0.038397	-0.000083
C37	C	1.219573	-0.374174	-0.310206
C38	C	1.086384	-0.370834	-0.311654
H39	H	1.245444	-0.424477	-0.412805
H40	H	1.244279	-0.424566	-0.207074
H41	H	1.259322	-0.275739	-0.309788
H42	H	1.046635	-0.469270	-0.312059
H43	H	1.061666	-0.320444	-0.414813
C44	C	0.922087	-0.589960	-0.152505
C45	C	0.886497	-0.515558	-0.000102
H46	H	0.881231	-0.687894	-0.152577
H47	H	1.012289	-0.593614	-0.153476
H48	H	0.896855	-0.538838	-0.254823
H49	H	0.911737	-0.566674	0.102217
H50	H	0.796274	-0.511912	0.000885
