data_functionalizedCrystal
_audit_creation_method	'MofGen! by Chris Wilmer'
_symmetry_space_group_name_H-M	'P1'
_symmetry_Int_Tables_number	1
_symmetry_cell_setting	triclinic
loop_
_symmetry_equiv_pos_as_xyz
  x,y,z
_cell_length_a	16.053802
_cell_length_b	16.992697
_cell_length_c	16.992695
_cell_angle_alpha	89.331663
_cell_angle_beta	92.741074
_cell_angle_gamma	92.750118
loop_
_atom_site_label
_atom_site_type_symbol
_atom_site_fract_x
_atom_site_fract_y
_atom_site_fract_z
O1	O	-0.069309	-1.053958	0.163818
O2	O	-0.069337	-0.825560	0.161985
O3	O	-0.069316	-0.938843	0.048702
O4	O	-0.069329	-0.940675	0.277101
O5	O	0.069542	-0.932606	0.054910
O6	O	0.069521	-0.819322	0.168193
O7	O	0.069549	-1.047721	0.170026
Zn8	Zn	0.091582	-0.932531	0.170095
Zn9	Zn	-0.091369	-0.940749	0.161916
O10	O	0.069529	-0.934438	0.283309
C11	C	0.000089	-0.793081	0.162733
C12	C	0.000078	-0.705597	0.155704
N13	N	0.216441	-0.926929	0.175677
C14	C	0.000112	-0.933369	0.022445
C15	C	0.000111	-0.926340	-0.065039
N16	N	-0.216229	-0.946358	0.156328
C17	C	0.260144	-0.975151	0.127494
C18	C	0.347550	-0.971240	0.131407
C19	C	0.391252	-0.919110	0.183507
C20	C	0.347543	-0.870882	0.231692
C21	C	0.260138	-0.874790	0.227774
C22	C	0.652658	-0.902038	0.200595
C23	C	0.740069	-0.898136	0.204511
C24	C	0.740070	-0.998492	0.104224
C25	C	0.652664	-1.002399	0.100315
C26	C	0.608962	-0.954169	0.148497
N27	N	0.480595	-0.915112	0.187509
N28	N	0.519621	-0.958163	0.144490
C29	C	0.000074	-0.659606	0.223521
C30	C	0.000085	-0.577405	0.216913
C31	C	0.000093	-0.541196	0.142485
C32	C	0.000100	-0.587193	0.074663
C33	C	0.000095	-0.669392	0.081272
C34	C	0.000113	-0.295881	0.115091
C35	C	0.000115	-0.213676	0.108487
C36	C	0.000102	-0.203893	0.250737
C37	C	0.000092	-0.286095	0.257340
C38	C	0.000103	-0.332084	0.189518
N39	N	0.000101	-0.457174	0.135728
N40	N	0.000101	-0.416105	0.196276
C41	C	0.000118	-0.080200	0.169277
C42	C	0.000112	-0.167685	0.176304
C43	C	0.000120	-0.994158	-0.111029
C44	C	0.000112	-0.987549	-0.193231
C45	C	0.000100	-0.913122	-0.229440
C46	C	0.000088	-0.845299	-0.183443
C47	C	0.000091	-0.851909	-0.101244
C48	C	0.000085	-0.885728	-0.474755
C49	C	0.000085	-0.879123	-0.556960
C50	C	0.000107	-1.021374	-0.566742
C51	C	0.000115	-1.027977	-0.484540
C52	C	0.000098	-0.960154	-0.438551
N53	N	0.000093	-0.906365	-0.313462
N54	N	0.000099	-0.966912	-0.354531
C55	C	0.000098	-0.939912	0.309565
C56	C	0.000094	-0.946941	0.397050
H57	H	0.224567	-1.017604	0.085073
H58	H	0.000122	-0.184198	0.047876
Cl59	Cl	0.402492	-1.031862	0.070833
H60	H	0.383130	-0.828433	0.274110
H61	H	0.224556	-0.835521	0.267009
Cl62	Cl	0.597724	-1.067936	0.034819
Cl63	Cl	0.795012	-1.059118	0.043654
H64	H	0.000095	-0.166440	0.305954
H65	H	0.000118	-1.076591	-0.604195
H66	H	0.000066	-0.689081	0.284128
H67	H	0.000135	-1.054764	-0.081554
H68	H	0.000123	-0.333316	0.059865
H69	H	0.000072	-0.830502	-0.437320
H70	H	0.000088	-0.818512	-0.586438
Cl71	Cl	0.000063	-0.751734	-0.228964
H72	H	0.000121	-1.042773	-0.230673
Cl73	Cl	0.000075	-0.519591	0.302174
H74	H	0.000124	-1.088583	-0.455065
H75	H	0.775647	-0.855683	0.246940
Cl76	Cl	0.597725	-0.841410	0.261168
H77	H	0.000083	-0.796684	-0.063799
Cl78	Cl	0.000076	-0.331608	0.350910
H79	H	0.000119	-0.557705	0.014063
Cl80	Cl	0.000104	-0.727210	-0.003988
