data_functionalizedCrystal
_audit_creation_method	'MofGen! by Chris Wilmer'
_symmetry_space_group_name_H-M	'P1'
_symmetry_Int_Tables_number	1
_symmetry_cell_setting	triclinic
loop_
_symmetry_equiv_pos_as_xyz
  x,y,z
_cell_length_a	12.759401
_cell_length_b	12.594516
_cell_length_c	12.759393
_cell_angle_alpha	89.971950
_cell_angle_beta	89.980198
_cell_angle_gamma	90.015138
loop_
_atom_site_label
_atom_site_type_symbol
_atom_site_fract_x
_atom_site_fract_y
_atom_site_fract_z
Zn1	Zn	1.606256	-0.423717	-0.594006
Zn2	Zn	1.939590	-0.090383	-0.260673
Zn3	Zn	2.272923	0.242950	0.072661
Zn4	Zn	1.606143	-0.601733	-0.418334
Zn5	Zn	1.939477	-0.268399	-0.085000
Zn6	Zn	2.272810	0.064934	0.248333
Zn7	Zn	1.430555	-0.423766	-0.418345
Zn8	Zn	1.763889	-0.090432	-0.085011
Zn9	Zn	2.097222	0.242901	0.248322
Zn10	Zn	1.430543	-0.601651	-0.593974
Zn11	Zn	1.763876	-0.268317	-0.260641
Zn12	Zn	2.097210	0.065016	0.072692
O13	O	1.518375	-0.512716	-0.506165
O14	O	1.851708	-0.179383	-0.172831
O15	O	2.185041	0.153950	0.160502
O16	O	1.753262	-0.447345	-0.570711
O17	O	2.086596	-0.114011	-0.237378
O18	O	2.419929	0.219322	0.095955
O19	O	1.582809	-0.578180	-0.271314
O20	O	1.916142	-0.244846	0.062019
O21	O	2.249476	0.088487	0.395353
O22	O	1.453915	-0.274813	-0.441664
O23	O	1.787248	0.058520	-0.108331
O24	O	2.120581	0.391853	0.225002
O25	O	1.753179	-0.578132	-0.441646
O26	O	2.086513	-0.244799	-0.108312
O27	O	2.419846	0.088535	0.225021
O28	O	1.583002	-0.274777	-0.570722
O29	O	1.916335	0.058556	-0.237389
O30	O	2.249668	0.391889	0.095945
O31	O	1.453805	-0.447428	-0.271322
O32	O	1.787139	-0.114095	0.062011
O33	O	2.120472	0.219239	0.395345
O34	O	1.283533	-0.447349	-0.441634
O35	O	1.616866	-0.114015	-0.108300
O36	O	1.950199	0.219318	0.225033
O37	O	1.453894	-0.577992	-0.741000
O38	O	1.787227	-0.244659	-0.407666
O39	O	2.120561	0.088674	-0.074333
O40	O	1.283524	-0.578040	-0.570668
O41	O	1.616857	-0.244707	-0.237335
O42	O	1.950190	0.088627	0.095999
O43	O	1.582990	-0.447265	-0.741023
O44	O	1.916323	-0.113932	-0.407690
O45	O	2.249657	0.219402	-0.074356
O46	O	1.582797	-0.750667	-0.441615
O47	O	1.916131	-0.417334	-0.108282
O48	O	2.249464	-0.084001	0.225052
O49	O	1.453784	-0.750607	-0.570657
O50	O	1.787118	-0.417274	-0.237324
O51	O	2.120451	-0.083941	0.096009
C52	C	1.245407	-0.512692	-0.506149
C53	C	1.578740	-0.179358	-0.172816
C54	C	1.912074	0.153975	0.160517
C55	C	1.128631	-0.512707	-0.506168
C56	C	1.461964	-0.179373	-0.172834
C57	C	1.795297	0.153960	0.160499
C58	C	0.964075	-0.444753	-0.573483
C59	C	1.297409	-0.111420	-0.240150
C60	C	1.630742	0.221913	0.093184
C61	C	1.073799	-0.444732	-0.573476
C62	C	1.407133	-0.111399	-0.240143
C63	C	1.740466	0.221934	0.093191
C64	C	1.073732	-0.580714	-0.438869
C65	C	1.407065	-0.247381	-0.105536
C66	C	1.740399	0.085953	0.227797
C67	C	0.964010	-0.580739	-0.438882
C68	C	1.297343	-0.247406	-0.105549
C69	C	1.630677	0.085927	0.227784
C70	C	1.518306	-0.789257	-0.506154
C71	C	1.851639	-0.455924	-0.172821
C72	C	2.184972	-0.122591	0.160512
C73	C	1.518372	-0.907563	-0.506185
C74	C	1.851706	-0.574229	-0.172852
C75	C	2.185039	-0.240896	0.160481
C76	C	1.448195	-0.976822	-0.576322
C77	C	1.781529	-0.643488	-0.242989
C78	C	2.114862	-0.310155	0.090345
C79	C	1.422594	-1.047690	-0.480455
C80	C	1.755928	-0.714357	-0.147122
C81	C	2.089261	-0.381023	0.186211
C82	C	1.544069	-1.047494	-0.602068
C83	C	1.877403	-0.714160	-0.268735
C84	C	2.210736	-0.380827	0.064598
C85	C	1.492720	-0.976873	-0.410268
C86	C	1.826054	-0.643539	-0.076934
C87	C	2.159387	-0.310206	0.256399
C88	C	1.614240	-0.976670	-0.531945
C89	C	1.947573	-0.643337	-0.198612
C90	C	2.280907	-0.310003	0.134721
C91	C	1.588675	-1.047506	-0.436013
C92	C	1.922009	-0.714173	-0.102679
C93	C	2.255342	-0.380840	0.230654
C94	C	1.792408	-0.512742	-0.506181
C95	C	2.125741	-0.179409	-0.172848
C96	C	2.459074	0.153925	0.160486
C97	C	1.909184	-0.512753	-0.506188
C98	C	2.242518	-0.179420	-0.172854
C99	C	2.575851	0.153914	0.160479
C100	C	1.518453	-0.512614	-0.780198
C101	C	1.851786	-0.179281	-0.446865
C102	C	2.185120	0.154052	-0.113532
C103	C	1.518487	-0.512571	-0.896975
C104	C	1.851820	-0.179237	-0.563642
C105	C	2.185153	0.154096	-0.230308
C106	C	1.518472	-0.235095	-0.506198
C107	C	1.851806	0.098238	-0.172865
C108	C	2.185139	0.431571	0.160469
C109	C	1.518514	-0.116790	-0.506212
C110	C	1.851847	0.216543	-0.172879
C111	C	2.185181	0.549877	0.160454
C112	C	1.585712	-0.444490	-0.951851
C113	C	1.919045	-0.111157	-0.618517
C114	C	2.252379	0.222177	-0.285184
C115	C	1.585730	-0.444444	-1.061575
C116	C	1.919063	-0.111111	-0.728242
C117	C	2.252396	0.222223	-0.394908
C118	C	1.451294	-0.580569	-1.061538
C119	C	1.784627	-0.247235	-0.728204
C120	C	2.117961	0.086098	-0.394871
C121	C	1.451272	-0.580608	-0.951816
C122	C	1.784605	-0.247275	-0.618482
C123	C	2.117938	0.086058	-0.285149
C124	C	1.518357	-0.512741	-0.233197
C125	C	1.851690	-0.179408	0.100136
C126	C	2.185023	0.153925	0.433469
C127	C	1.518527	-0.512485	-0.116421
C128	C	1.851860	-0.179152	0.216912
C129	C	2.185193	0.154182	0.550245
H130	H	1.118384	-0.636064	-0.384070
H131	H	1.451718	-0.302731	-0.050736
H132	H	1.785051	0.030603	0.282597
H133	H	1.341587	-1.078908	-0.458689
H134	H	1.674920	-0.745575	-0.125356
H135	H	2.008253	-0.412242	0.207977
H136	H	1.640470	-0.389004	-1.106250
H137	H	1.973803	-0.055671	-0.772917
H138	H	2.307136	0.277662	-0.439583
H139	H	1.470950	-0.945979	-0.329169
H140	H	1.804283	-0.612646	0.004164
H141	H	2.137616	-0.279313	0.337497
H142	H	1.648082	-1.078347	-0.376643
H143	H	1.981416	-0.745014	-0.043310
H144	H	2.314749	-0.411680	0.290023
H145	H	0.919316	-0.636119	-0.384081
H146	H	1.252650	-0.302786	-0.050748
H147	H	1.585983	0.030548	0.282585
H148	H	1.695229	-0.945454	-0.553757
H149	H	2.028563	-0.612121	-0.220424
H150	H	2.361896	-0.278788	0.112910
H151	H	1.565747	-1.078515	-0.683145
H152	H	1.899080	-0.745182	-0.349811
H153	H	2.232413	-0.411848	-0.016478
H154	H	1.396521	-0.636047	-0.907135
H155	H	1.729855	-0.302714	-0.573801
H156	H	2.063188	0.030620	-0.240468
H157	H	1.396572	-0.635965	-1.106202
H158	H	1.729906	-0.302632	-0.772869
H159	H	2.063239	0.030702	-0.439536
H160	H	0.919440	-0.389394	-0.628287
H161	H	1.252773	-0.056061	-0.294954
H162	H	1.586106	0.277273	0.038379
H163	H	1.388743	-0.945784	-0.635548
H164	H	1.722076	-0.612451	-0.302215
H165	H	2.055410	-0.279118	0.031118
H166	H	1.640440	-0.389086	-0.907203
H167	H	1.973773	-0.055753	-0.573869
H168	H	2.307106	0.277580	-0.240536
H169	H	1.118487	-0.389361	-0.628276
H170	H	1.451820	-0.056028	-0.294943
H171	H	1.785153	0.277306	0.038391
