data_functionalizedCrystal
_audit_creation_method	'MofGen! by Chris Wilmer'
_symmetry_space_group_name_H-M	'P1'
_symmetry_Int_Tables_number	1
_symmetry_cell_setting	triclinic
loop_
_symmetry_equiv_pos_as_xyz
  x,y,z
_cell_length_a	19.288859
_cell_length_b	19.288859
_cell_length_c	17.766277
_cell_angle_alpha	89.993887
_cell_angle_beta	89.989768
_cell_angle_gamma	83.133726
loop_
_atom_site_label
_atom_site_type_symbol
_atom_site_fract_x
_atom_site_fract_y
_atom_site_fract_z
O1	O	0.921354	0.086629	-0.062609
O2	O	1.254687	0.419962	0.270725
O3	O	1.588020	0.753295	0.604058
O4	O	0.719092	0.098322	-0.062607
O5	O	1.052426	0.431655	0.270727
O6	O	1.385759	0.764988	0.604060
O7	O	0.826070	-0.008656	-0.062603
O8	O	1.159403	0.324678	0.270730
O9	O	1.492736	0.658011	0.604063
O10	O	0.814376	0.193606	-0.062612
O11	O	1.147710	0.526939	0.270721
O12	O	1.481043	0.860273	0.604055
O13	O	0.826051	-0.008661	0.062585
O14	O	1.159384	0.324672	0.395919
O15	O	1.492718	0.658006	0.729252
O16	O	0.719074	0.098316	0.062582
O17	O	1.052407	0.431650	0.395915
O18	O	1.385740	0.764983	0.729248
O19	O	0.921335	0.086623	0.062580
O20	O	1.254668	0.419957	0.395913
O21	O	1.588002	0.753290	0.729247
Cu22	Cu	0.820203	0.092469	0.074012
Cu23	Cu	1.153536	0.425803	0.407345
Cu24	Cu	1.486869	0.759136	0.740678
Cu25	Cu	0.820225	0.092476	-0.074038
Cu26	Cu	1.153558	0.425809	0.259295
Cu27	Cu	1.486891	0.759142	0.592628
O28	O	0.814358	0.193601	0.062576
O29	O	1.147691	0.526934	0.395910
O30	O	1.481024	0.860267	0.729243
C31	C	0.693206	0.097944	-0.000012
C32	C	1.026540	0.431277	0.333321
C33	C	1.359873	0.764610	0.666654
C34	C	0.616103	0.096816	-0.000012
C35	C	0.949436	0.430150	0.333322
C36	C	1.282769	0.763483	0.666655
C37	C	0.825685	-0.034535	-0.000010
C38	C	1.159018	0.298799	0.333324
C39	C	1.492351	0.632132	0.666657
C40	C	0.824558	-0.111639	-0.000011
C41	C	1.157891	0.221695	0.333322
C42	C	1.491224	0.555028	0.666656
C43	C	0.052061	0.151960	-0.000015
C44	C	0.385394	0.485293	0.333318
C45	C	0.718727	0.818626	0.666652
C46	C	0.124507	0.153025	-0.000019
C47	C	0.457841	0.486358	0.333314
C48	C	0.791174	0.819692	0.666648
C49	C	0.169215	0.090256	-0.000015
C50	C	0.502549	0.423589	0.333318
C51	C	0.835882	0.756922	0.666652
C52	C	0.141472	0.026416	-0.000026
C53	C	0.474805	0.359749	0.333307
C54	C	0.808138	0.693083	0.666641
C55	C	0.069026	0.025353	-0.000030
C56	C	0.402360	0.358686	0.333304
C57	C	0.735693	0.692019	0.666637
C58	C	0.290480	0.043441	0.043849
C59	C	0.623813	0.376774	0.377182
C60	C	0.957147	0.710107	0.710516
C61	C	0.362924	0.044507	0.043857
C62	C	0.696257	0.377840	0.377191
C63	C	1.029590	0.711173	0.710524
C64	C	0.392661	0.093533	-0.000007
C65	C	0.725994	0.426867	0.333326
C66	C	1.059328	0.760200	0.666659
C67	C	0.349944	0.141505	-0.043870
C68	C	0.683278	0.474839	0.289463
C69	C	1.016611	0.808172	0.622796
C70	C	0.277499	0.140442	-0.043874
C71	C	0.610832	0.473775	0.289459
C72	C	0.944166	0.807108	0.622793
C73	C	0.247771	0.091402	-0.000011
C74	C	0.581104	0.424735	0.333322
C75	C	0.914438	0.758068	0.666655
C76	C	0.498951	0.158524	-0.000006
C77	C	0.832285	0.491857	0.333328
C78	C	1.165618	0.825190	0.666661
C79	C	0.571399	0.159586	-0.000014
C80	C	0.904733	0.492920	0.333319
C81	C	1.238066	0.826253	0.666652
C82	C	0.588363	0.032976	-0.000014
C83	C	0.921696	0.366309	0.333319
C84	C	1.255029	0.699642	0.666653
C85	C	0.515916	0.031915	-0.000013
C86	C	0.849249	0.365248	0.333321
C87	C	1.182582	0.698581	0.666654
C88	C	0.471214	0.094691	-0.000005
C89	C	0.804547	0.428024	0.333328
C90	C	1.137881	0.761358	0.666662
C91	C	0.879701	-0.675680	-0.000031
C92	C	1.213034	-0.342347	0.333302
C93	C	1.546368	-0.009014	0.666635
C94	C	0.880766	-0.603234	-0.000024
C95	C	1.214100	-0.269901	0.333309
C96	C	1.547433	0.063433	0.666642
C97	C	0.817997	-0.558526	-0.000024
C98	C	1.151330	-0.225193	0.333309
C99	C	1.484664	0.108141	0.666642
C100	C	0.754157	-0.586269	-0.000011
C101	C	1.087491	-0.252936	0.333322
C102	C	1.420824	0.080397	0.666655
C103	C	0.753094	-0.658715	-0.000011
C104	C	1.086427	-0.325381	0.333323
C105	C	1.419760	0.007952	0.666656
C106	C	0.771190	-0.437249	-0.043882
C107	C	1.104524	-0.103916	0.289452
C108	C	1.437857	0.229417	0.622785
C109	C	0.772256	-0.364806	-0.043887
C110	C	1.105590	-0.031472	0.289446
C111	C	1.438923	0.301861	0.622780
C112	C	0.821274	-0.335080	-0.000023
C113	C	1.154608	-0.001747	0.333310
C114	C	1.487941	0.331587	0.666643
C115	C	0.869238	-0.377809	0.043836
C116	C	1.202571	-0.044475	0.377169
C117	C	1.535905	0.288858	0.710503
C118	C	0.868174	-0.450254	0.043837
C119	C	1.201508	-0.116921	0.377170
C120	C	1.534841	0.216413	0.710503
C121	C	0.819143	-0.479970	-0.000025
C122	C	1.152476	-0.146637	0.333309
C123	C	1.485810	0.186697	0.666642
C124	C	0.886265	-0.228790	-0.000024
C125	C	1.219598	0.104543	0.333310
C126	C	1.552932	0.437877	0.666643
C127	C	0.887328	-0.156342	-0.000012
C128	C	1.220661	0.176992	0.333321
C129	C	1.553994	0.510325	0.666654
C130	C	0.760717	-0.139378	-0.000007
C131	C	1.094050	0.193955	0.333326
C132	C	1.427383	0.527288	0.666660
C133	C	0.759656	-0.211825	-0.000011
C134	C	1.092989	0.121508	0.333323
C135	C	1.426323	0.454841	0.666656
C136	C	0.822432	-0.256527	-0.000023
C137	C	1.155765	0.076806	0.333311
C138	C	1.489099	0.410140	0.666644
C139	C	0.947221	0.087001	-0.000016
C140	C	1.280554	0.420335	0.333317
C141	C	1.613888	0.753668	0.666650
C142	C	1.024325	0.088129	-0.000022
C143	C	1.357658	0.421462	0.333311
C144	C	1.690991	0.754795	0.666645
C145	C	0.814743	0.219480	-0.000019
C146	C	1.148076	0.552813	0.333314
C147	C	1.481409	0.886146	0.666648
C148	C	0.815870	0.296584	-0.000023
C149	C	1.149203	0.629917	0.333311
C150	C	1.482537	0.963250	0.666644
N151	N	0.820192	0.092464	0.178142
N152	N	1.153525	0.425798	0.511475
N153	N	1.486859	0.759131	0.844809
N154	N	0.820241	0.092475	-0.178169
N155	N	1.153574	0.425808	0.155165
N156	N	1.486907	0.759142	0.488498
C157	C	0.867577	0.045118	0.217530
C158	C	1.200910	0.378451	0.550864
C159	C	1.534244	0.711785	0.884197
C160	C	0.867581	0.045115	0.296332
C161	C	1.200914	0.378448	0.629665
C162	C	1.534248	0.711781	0.962999
C163	C	0.820207	0.092470	0.335742
C164	C	1.153540	0.425803	0.669076
C165	C	1.486873	0.759137	1.002409
C166	C	0.772813	0.139820	0.296344
C167	C	1.106146	0.473153	0.629678
C168	C	1.439480	0.806487	0.963011
C169	C	0.772806	0.139817	0.217544
C170	C	1.106139	0.473151	0.550878
C171	C	1.439472	0.806484	0.884211
C172	C	0.810907	0.155758	0.460578
C173	C	1.144240	0.489091	0.793911
C174	C	1.477573	0.822425	1.127244
C175	C	0.810919	0.155762	0.539377
C176	C	1.144252	0.489095	0.872710
C177	C	1.477585	0.822428	1.206043
C178	C	0.820225	0.092478	0.578789
C179	C	1.153559	0.425812	0.912122
C180	C	1.486892	0.759145	1.245455
C181	C	0.829535	0.029188	0.539392
C182	C	1.162868	0.362522	0.872726
C183	C	1.496201	0.695855	1.206059
C184	C	0.829527	0.029186	0.460592
C185	C	1.162861	0.362519	0.793926
C186	C	1.496194	0.695852	1.127259
C187	C	0.820209	0.092478	0.421188
C188	C	1.153542	0.425811	0.754521
C189	C	1.486876	0.759145	1.087855
C190	C	0.867617	0.045124	0.703623
C191	C	1.200950	0.378458	1.036956
C192	C	1.534284	0.711791	1.370290
C193	C	0.867616	0.045120	0.782426
C194	C	1.200950	0.378454	1.115760
C195	C	1.534283	0.711787	1.449093
C196	C	0.772852	0.139831	0.782437
C197	C	1.106185	0.473165	1.115771
C198	C	1.439518	0.806498	1.449104
C199	C	0.772849	0.139830	0.703636
C200	C	1.106183	0.473163	1.036969
C201	C	1.439516	0.806496	1.370302
C202	C	0.820236	0.092477	0.664233
C203	C	1.153569	0.425810	0.997567
C204	C	1.486902	0.759143	1.330900
H205	H	0.015668	0.203077	-0.000012
H206	H	0.349002	0.536410	0.333321
H207	H	0.682335	0.869744	0.666654
H208	H	0.906200	0.006565	0.671541
H209	H	1.239533	0.339898	1.004874
H210	H	1.572867	0.673231	1.338207
H211	H	0.734239	0.178376	0.328436
H212	H	1.067572	0.511710	0.661770
H213	H	1.400906	0.845043	0.995103
Cl214	Cl	0.713232	0.199344	0.168024
Cl215	Cl	1.046566	0.532677	0.501357
Cl216	Cl	1.379899	0.866011	0.834691
Cl217	Cl	0.709558	-0.474609	-0.099025
Cl218	Cl	1.042891	-0.141276	0.234308
Cl219	Cl	1.376224	0.192057	0.567642
H220	H	0.906201	0.006561	0.814497
H221	H	1.239534	0.339895	1.147830
H222	H	1.572867	0.673228	1.481164
H223	H	0.374154	0.181429	-0.079587
H224	H	0.707488	0.514762	0.253746
H225	H	1.040821	0.848095	0.587080
Cl226	Cl	0.159384	0.233276	-0.000008
Cl227	Cl	0.492717	0.566609	0.333325
Cl228	Cl	0.826051	0.899943	0.666659
Cl229	Cl	0.961017	-0.568357	-0.000027
Cl230	Cl	1.294351	-0.235024	0.333307
Cl231	Cl	1.627684	0.098310	0.666640
Cl232	Cl	0.223801	0.200742	-0.099018
Cl233	Cl	0.557135	0.534076	0.234315
Cl234	Cl	0.890468	0.867409	0.567649
H235	H	0.462553	0.209640	-0.000001
H236	H	0.795886	0.542973	0.333332
H237	H	1.129220	0.876306	0.666666
Cl238	Cl	0.253109	-0.018233	0.098954
Cl239	Cl	0.586442	0.315100	0.432288
Cl240	Cl	0.919776	0.648433	0.765621
Cl241	Cl	0.930867	-0.340449	0.098980
Cl242	Cl	1.264200	-0.007115	0.432313
Cl243	Cl	1.597534	0.326218	0.765647
H244	H	0.803316	0.207294	0.428495
H245	H	1.136649	0.540628	0.761828
H246	H	1.469983	0.873961	1.095161
H247	H	0.177878	-0.024691	-0.000025
H248	H	0.511211	0.308642	0.333308
H249	H	0.844544	0.641976	0.666642
Cl250	Cl	0.928464	-0.503967	0.098976
Cl251	Cl	1.261798	-0.170633	0.432309
Cl252	Cl	1.595131	0.162700	0.765643
H253	H	0.593980	0.211567	-0.000015
H254	H	0.927313	0.544901	0.333318
H255	H	1.260646	0.878234	0.666652
Cl256	Cl	0.644561	-0.045936	-0.000020
Cl257	Cl	0.977894	0.287398	0.333313
Cl258	Cl	1.311227	0.620731	0.666646
H259	H	0.937381	-0.265188	-0.000033
H260	H	1.270714	0.068145	0.333300
H261	H	1.604048	0.401479	0.666634
Cl262	Cl	0.679406	-0.246695	-0.000007
Cl263	Cl	1.012740	0.086638	0.333326
Cl264	Cl	1.346073	0.419971	0.666660
H265	H	0.733205	-0.330022	-0.079604
H266	H	1.066538	0.003312	0.253730
H267	H	1.399872	0.336645	0.587063
Cl268	Cl	0.481046	-0.048335	-0.000024
Cl269	Cl	0.814379	0.284998	0.333309
Cl270	Cl	1.147712	0.618332	0.666642
H271	H	0.046445	-0.026628	-0.000035
H272	H	0.379779	0.306705	0.333298
H273	H	0.713112	0.640039	0.666631
Cl274	Cl	0.841222	-0.050375	0.411068
Cl275	Cl	1.174555	0.282959	0.744401
Cl276	Cl	1.507888	0.616292	1.077735
Cl277	Cl	0.416616	-0.015795	0.099005
Cl278	Cl	0.749950	0.317539	0.432339
Cl279	Cl	1.083283	0.650872	0.765672
H280	H	0.906160	0.006559	0.185451
H281	H	1.239493	0.339892	0.518785
H282	H	1.572827	0.673226	0.852118
H283	H	0.930818	-0.712073	-0.000037
H284	H	1.264152	-0.378739	0.333297
H285	H	1.597485	-0.045406	0.666630
Cl286	Cl	0.672842	-0.693584	-0.000001
Cl287	Cl	1.006176	-0.360251	0.333332
Cl288	Cl	1.339509	-0.026918	0.666665
H289	H	0.939309	-0.133762	-0.000015
H290	H	1.272642	0.199572	0.333319
H291	H	1.605975	0.532905	0.666652
H292	H	0.709609	-0.102978	-0.000000
H293	H	1.042942	0.230356	0.333333
H294	H	1.376275	0.563689	0.666667
Cl295	Cl	0.713290	0.199359	0.831976
Cl296	Cl	1.046624	0.532692	1.165309
Cl297	Cl	1.379957	0.866025	1.498643
Cl298	Cl	0.675247	-0.530066	-0.000007
Cl299	Cl	1.008580	-0.196733	0.333326
Cl300	Cl	1.341914	0.136601	0.666659
H301	H	0.837113	-0.022343	0.571480
H302	H	1.170446	0.310990	0.904813
H303	H	1.503779	0.644324	1.238147
Cl304	Cl	0.713281	0.199357	0.654114
Cl305	Cl	1.046614	0.532691	0.987447
Cl306	Cl	1.379947	0.866024	1.320780
Cl307	Cl	0.927157	-0.014411	0.345857
Cl308	Cl	1.260490	0.318922	0.679191
Cl309	Cl	1.593823	0.652255	1.012524
H310	H	0.803343	0.207296	0.571447
H311	H	1.136676	0.540629	0.904780
H312	H	1.470010	0.873962	1.238114
