data_functionalizedCrystal
_audit_creation_method	'MofGen! by Chris Wilmer'
_symmetry_space_group_name_H-M	'P1'
_symmetry_Int_Tables_number	1
_symmetry_cell_setting	triclinic
loop_
_symmetry_equiv_pos_as_xyz
  x,y,z
_cell_length_a	14.971491
_cell_length_b	14.044190
_cell_length_c	14.048226
_cell_angle_alpha	89.988942
_cell_angle_beta	89.991693
_cell_angle_gamma	88.404006
loop_
_atom_site_label
_atom_site_type_symbol
_atom_site_fract_x
_atom_site_fract_y
_atom_site_fract_z
O1	O	1.196681	0.123561	-0.079213
O2	O	1.446681	0.373561	0.170787
O3	O	1.696681	0.623561	0.420787
O4	O	1.946681	0.873561	0.670787
O5	O	0.937447	0.138350	-0.079207
O6	O	1.187447	0.388350	0.170793
O7	O	1.437447	0.638350	0.420793
O8	O	1.687447	0.888350	0.670793
O9	O	1.063170	-0.007033	-0.079191
O10	O	1.313170	0.242967	0.170809
O11	O	1.563170	0.492967	0.420809
O12	O	1.813170	0.742967	0.670809
O13	O	1.070958	0.268945	-0.079229
O14	O	1.320958	0.518945	0.170771
O15	O	1.570958	0.768945	0.420771
O16	O	1.820958	1.018945	0.670771
O17	O	1.063152	-0.007042	0.079130
O18	O	1.313152	0.242958	0.329130
O19	O	1.563152	0.492958	0.579130
O20	O	1.813152	0.742958	0.829130
O21	O	0.937430	0.138342	0.079114
O22	O	1.187430	0.388342	0.329114
O23	O	1.437430	0.638342	0.579114
O24	O	1.687430	0.888342	0.829114
O25	O	1.196664	0.123553	0.079109
O26	O	1.446664	0.373553	0.329109
O27	O	1.696664	0.623553	0.579109
O28	O	1.946664	0.873553	0.829109
Zn29	Zn	1.067044	0.130946	0.104248
Zn30	Zn	1.317044	0.380946	0.354248
Zn31	Zn	1.567044	0.630946	0.604248
Zn32	Zn	1.817044	0.880946	0.854248
Zn33	Zn	1.067067	0.130957	-0.104347
Zn34	Zn	1.317067	0.380957	0.145653
Zn35	Zn	1.567067	0.630957	0.395653
Zn36	Zn	1.817067	0.880957	0.645653
O37	O	1.070941	0.268937	0.079093
O38	O	1.320941	0.518937	0.329093
O39	O	1.570941	0.768937	0.579093
O40	O	1.820941	1.018937	0.829093
C41	C	0.904061	0.137684	-0.000045
C42	C	1.154061	0.387684	0.249955
C43	C	1.404061	0.637684	0.499955
C44	C	1.654061	0.887684	0.749955
C45	C	0.804608	0.135699	-0.000042
C46	C	1.054608	0.385699	0.249958
C47	C	1.304608	0.635699	0.499958
C48	C	1.554608	0.885699	0.749958
C49	C	0.376237	0.127140	-0.086364
C50	C	0.626237	0.377140	0.163636
C51	C	0.876237	0.627140	0.413636
C52	C	1.126237	0.877140	0.663636
C53	C	0.469684	0.129002	-0.086361
C54	C	0.719684	0.379002	0.163639
C55	C	0.969684	0.629002	0.413639
C56	C	1.219684	0.879002	0.663639
C57	C	0.516394	0.129934	-0.000057
C58	C	0.766394	0.379934	0.249943
C59	C	1.016394	0.629934	0.499943
C60	C	1.266394	0.879934	0.749943
C61	C	0.469653	0.128995	0.086250
C62	C	0.719653	0.378995	0.336250
C63	C	0.969653	0.628995	0.586250
C64	C	1.219653	0.878995	0.836250
C65	C	0.376208	0.127127	0.086245
C66	C	0.626208	0.377127	0.336245
C67	C	0.876208	0.627127	0.586245
C68	C	1.126208	0.877127	0.836245
C69	C	0.664422	0.132892	0.086253
C70	C	0.914422	0.382892	0.336253
C71	C	1.164422	0.632892	0.586253
C72	C	1.414422	0.882892	0.836253
C73	C	0.757873	0.134763	0.086257
C74	C	1.007873	0.384763	0.336257
C75	C	1.257873	0.634763	0.586257
C76	C	1.507873	0.884763	0.836257
C77	C	0.757898	0.134768	-0.086354
C78	C	1.007898	0.384768	0.163646
C79	C	1.257898	0.634768	0.413646
C80	C	1.507898	0.884768	0.663646
C81	C	0.664453	0.132899	-0.086358
C82	C	0.914453	0.382899	0.163642
C83	C	1.164453	0.632899	0.413642
C84	C	1.414453	0.882899	0.663642
C85	C	0.617718	0.131962	-0.000051
C86	C	0.867718	0.381962	0.249949
C87	C	1.117718	0.631962	0.499949
C88	C	1.367718	0.881962	0.749949
C89	C	1.059754	-0.042356	-0.000028
C90	C	1.309754	0.207644	0.249972
C91	C	1.559754	0.457644	0.499972
C92	C	1.809754	0.707644	0.749972
C93	C	1.049590	-0.147594	-0.000019
C94	C	1.299590	0.102406	0.249981
C95	C	1.549590	0.352406	0.499981
C96	C	1.799590	0.602406	0.749981
C97	C	1.103092	-0.397819	-0.000058
C98	C	1.353092	-0.147819	0.249942
C99	C	1.603092	0.102181	0.499942
C100	C	1.853092	0.352181	0.749942
C101	C	1.031023	-0.340273	-0.000049
C102	C	1.281023	-0.090273	0.249951
C103	C	1.531023	0.159727	0.499951
C104	C	1.781023	0.409727	0.749951
C105	C	1.041356	-0.233056	-0.000033
C106	C	1.291356	0.016944	0.249967
C107	C	1.541356	0.266944	0.499967
C108	C	1.791356	0.516944	0.749967
C109	C	1.092760	-0.505045	-0.000074
C110	C	1.342760	-0.255045	0.249926
C111	C	1.592760	-0.005045	0.499926
C112	C	1.842760	0.244955	0.749926
C113	C	1.230049	0.124219	-0.000055
C114	C	1.480049	0.374219	0.249945
C115	C	1.730049	0.624219	0.499945
C116	C	1.980049	0.874219	0.749945
C117	C	1.329502	0.126204	-0.000064
C118	C	1.579502	0.376204	0.249936
C119	C	1.829502	0.626204	0.499936
C120	C	2.079502	0.876204	0.749936
C121	C	1.074357	0.304259	-0.000073
C122	C	1.324357	0.554259	0.249927
C123	C	1.574357	0.804259	0.499927
C124	C	1.824357	1.054259	0.749927
C125	C	1.084521	0.409497	-0.000088
C126	C	1.334521	0.659497	0.249912
C127	C	1.584521	0.909497	0.499912
C128	C	1.834521	1.159497	0.749912
N129	N	1.067035	0.130938	0.246609
N130	N	1.317035	0.380938	0.496609
N131	N	1.567035	0.630938	0.746609
N132	N	1.817035	0.880938	0.996609
N133	N	1.067082	0.130958	-0.246708
N134	N	1.317082	0.380958	0.003292
N135	N	1.567082	0.630958	0.253292
N136	N	1.817082	0.880958	0.503292
C137	C	1.122726	0.066588	0.296434
C138	C	1.372726	0.316588	0.546434
C139	C	1.622726	0.566588	0.796434
C140	C	1.872726	0.816588	1.046434
C141	C	1.122732	0.066588	0.396092
C142	C	1.372732	0.316588	0.646092
C143	C	1.622732	0.566588	0.896092
C144	C	1.872732	0.816588	1.146092
C145	C	1.067051	0.130942	0.445922
C146	C	1.317051	0.380942	0.695922
C147	C	1.567051	0.630942	0.945922
C148	C	1.817051	0.880942	1.195922
C149	C	1.011354	0.195294	0.396090
C150	C	1.261354	0.445294	0.646090
C151	C	1.511354	0.695294	0.896090
C152	C	1.761354	0.945294	1.146090
C153	C	1.011344	0.195289	0.296435
C154	C	1.261344	0.445289	0.546435
C155	C	1.511344	0.695289	0.796435
C156	C	1.761344	0.945289	1.046435
C157	C	1.011380	0.195301	0.603805
C158	C	1.261380	0.445301	0.853805
C159	C	1.511380	0.695301	1.103805
C160	C	1.761380	0.945301	1.353805
C161	C	1.011391	0.195307	0.703467
C162	C	1.261391	0.445307	0.953467
C163	C	1.511391	0.695307	1.203467
C164	C	1.761391	0.945307	1.453467
C165	C	1.122769	0.066599	0.703462
C166	C	1.372769	0.316599	0.953462
C167	C	1.622769	0.566599	1.203462
C168	C	1.872769	0.816599	1.453462
C169	C	1.122759	0.066595	0.603806
C170	C	1.372759	0.316595	0.853806
C171	C	1.622759	0.566595	1.103806
C172	C	1.872759	0.816595	1.353806
C173	C	1.067062	0.130949	0.553981
C174	C	1.317062	0.380949	0.803981
C175	C	1.567062	0.630949	1.053981
C176	C	1.817062	0.880949	1.303981
H177	H	0.338212	0.126388	-0.156643
H178	H	0.588212	0.376388	0.093357
H179	H	0.838212	0.626388	0.343357
H180	H	1.088212	0.876388	0.593357
H181	H	0.961563	-0.371528	-0.000053
H182	H	1.211563	-0.121528	0.249947
H183	H	1.461563	0.128472	0.499947
H184	H	1.711563	0.378472	0.749947
H185	H	1.172546	-0.366565	-0.000049
H186	H	1.422546	-0.116565	0.249951
H187	H	1.672546	0.133435	0.499951
H188	H	1.922546	0.383435	0.749951
H189	H	0.507732	0.129758	-0.156635
H190	H	0.757732	0.379758	0.093365
H191	H	1.007732	0.629758	0.343365
H192	H	1.257732	0.879758	0.593365
H193	H	1.168072	0.014188	0.255868
H194	H	1.418072	0.264188	0.505868
H195	H	1.668072	0.514188	0.755868
H196	H	1.918072	0.764188	1.005868
H197	H	1.168080	0.014189	0.436659
H198	H	1.418080	0.264189	0.686659
H199	H	1.668080	0.514189	0.936659
H200	H	1.918080	0.764189	1.186659
H201	H	0.626373	0.132141	0.156533
H202	H	0.876373	0.382141	0.406533
H203	H	1.126373	0.632141	0.656533
H204	H	1.376373	0.882141	0.906533
H205	H	0.338158	0.126374	0.156520
H206	H	0.588158	0.376374	0.406520
H207	H	0.838158	0.626374	0.656520
H208	H	1.088158	0.876374	0.906520
H209	H	0.626424	0.132146	-0.156634
H210	H	0.876424	0.382146	0.093366
H211	H	1.126424	0.632146	0.343366
H212	H	1.376424	0.882146	0.593366
H213	H	1.168103	0.014198	0.563234
H214	H	1.418103	0.264198	0.813234
H215	H	1.668103	0.514198	1.063234
H216	H	1.918103	0.764198	1.313234
H217	H	1.168118	0.014200	0.744035
H218	H	1.418118	0.264200	0.994035
H219	H	1.668118	0.514200	1.244035
H220	H	1.918118	0.764200	1.494035
H221	H	0.966023	0.247702	0.563240
H222	H	1.216023	0.497702	0.813240
H223	H	1.466023	0.747702	1.063240
H224	H	1.716023	0.997702	1.313240
H225	H	0.795954	0.135532	-0.156628
H226	H	1.045954	0.385532	0.093372
H227	H	1.295954	0.635532	0.343372
H228	H	1.545954	0.885532	0.593372
H229	H	0.795902	0.135527	0.156534
H230	H	1.045902	0.385527	0.406534
H231	H	1.295902	0.635527	0.656534
H232	H	1.545902	0.885527	0.906534
H233	H	0.966048	0.247710	0.744034
H234	H	1.216048	0.497710	0.994034
H235	H	1.466048	0.747710	1.244034
H236	H	1.716048	0.997710	1.494034
H237	H	0.966012	0.247689	0.436668
H238	H	1.216012	0.497689	0.686668
H239	H	1.466012	0.747689	0.936668
H240	H	1.716012	0.997689	1.186668
H241	H	0.965993	0.247688	0.255868
H242	H	1.215993	0.497688	0.505868
H243	H	1.465993	0.747688	0.755868
H244	H	1.715993	0.997688	1.005868
H245	H	0.507692	0.129749	0.156520
H246	H	0.757692	0.379749	0.406520
H247	H	1.007692	0.629749	0.656520
H248	H	1.257692	0.879749	0.906520
