data_functionalizedCrystal
_audit_creation_method	'MofGen! by Chris Wilmer'
_symmetry_space_group_name_H-M	'P1'
_symmetry_Int_Tables_number	1
_symmetry_cell_setting	triclinic
loop_
_symmetry_equiv_pos_as_xyz
  x,y,z
_cell_length_a	14.750712
_cell_length_b	15.538191
_cell_length_c	23.532357
_cell_angle_alpha	114.949807
_cell_angle_beta	77.436209
_cell_angle_gamma	82.428108
loop_
_atom_site_label
_atom_site_type_symbol
_atom_site_fract_x
_atom_site_fract_y
_atom_site_fract_z
O1	O	-0.079809	-1.231098	-0.168729
O2	O	-0.079819	-0.956200	-0.102836
O3	O	-0.079794	-1.101968	-0.220410
O4	O	-0.079834	-1.085330	-0.051154
O5	O	0.079863	-1.143173	-0.253643
O6	O	0.079838	-0.997405	-0.136068
O7	O	0.079849	-1.272303	-0.201962
Zn8	Zn	0.105192	-1.141396	-0.174291
Zn9	Zn	-0.105163	-1.087107	-0.130506
O10	O	0.079823	-1.126535	-0.084387
C11	C	0.000008	-0.941640	-0.112558
C12	C	0.000005	-0.836867	-0.092022
N13	N	0.248755	-1.178454	-0.204176
C14	C	0.600533	-0.946545	-0.017179
C15	C	0.701036	-0.972520	-0.038118
C16	C	0.701021	-1.101623	-0.142207
C17	C	0.600516	-1.075656	-0.121278
C18	C	0.550279	-0.998117	-0.058763
C19	C	0.550262	-1.127229	-0.162863
C20	C	0.449765	-1.101267	-0.141934
C21	C	0.399522	-1.023732	-0.079421
C22	C	0.449782	-0.972155	-0.037835
C23	C	0.600500	-1.204772	-0.225375
C24	C	0.550247	-1.256344	-0.266960
C25	C	0.449748	-1.230378	-0.246033
C26	C	0.399505	-1.152844	-0.183520
C27	C	0.399488	-1.281955	-0.287619
C28	C	0.298991	-1.255993	-0.266691
C29	C	0.299008	-1.126882	-0.162591
C30	C	0.000038	-1.122155	-0.258159
C31	C	0.000047	-1.120907	-0.321126
N32	N	0.751275	-1.050045	-0.100619
C33	C	0.000019	-1.286862	-0.192239
C34	C	0.000016	-1.391633	-0.212773
C35	C	0.000039	-0.551055	-0.296037
C36	C	0.000033	-0.452601	-0.276726
C37	C	0.000008	-0.429103	-0.168107
C38	C	0.000018	-0.527558	-0.187410
C39	C	0.000032	-0.588526	-0.251375
C40	C	0.000011	-0.565029	-0.142748
C41	C	0.000016	-0.663474	-0.162049
C42	C	0.000028	-0.724448	-0.226011
C43	C	0.000037	-0.686971	-0.270676
C44	C	-0.000010	-0.504058	-0.078781
C45	C	-0.000016	-0.541529	-0.034120
C46	C	-0.000004	-0.639978	-0.053421
C47	C	0.000007	-0.700951	-0.117383
C48	C	-0.000014	-0.677454	-0.008756
C49	C	-0.000009	-0.775899	-0.028057
C50	C	0.000012	-0.799396	-0.136684
C51	C	-0.087035	-1.090582	-0.693415
C52	C	-0.087040	-1.089392	-0.752571
O53	O	-0.161055	-1.069643	-0.767750
N54	N	-0.000012	-1.111263	-0.800278
C55	C	0.087027	-1.134317	-0.788823
O56	O	0.161051	-1.152809	-0.834832
C57	C	0.087032	-1.135500	-0.729665
C58	C	-0.000002	-1.113637	-0.681963
C59	C	-0.174061	-1.068720	-0.645714
C60	C	-0.174055	-1.069912	-0.586562
C61	C	-0.087023	-1.092966	-0.575111
C62	C	0.000004	-1.114829	-0.622811
C63	C	0.174070	-1.158546	-0.718209
C64	C	0.174067	-1.159726	-0.659046
C65	C	0.087033	-1.137863	-0.611344
C66	C	0.087042	-1.139075	-0.552208
N67	N	0.000014	-1.117204	-0.504502
C68	C	-0.087018	-1.094149	-0.515953
C69	C	0.087011	-1.131829	-0.913056
C70	C	0.087007	-1.130653	-0.972215
C71	C	-0.087060	-1.085727	-0.935959
C72	C	-0.087056	-1.086910	-0.876801
C73	C	-0.000017	-1.109958	-0.865350
C74	C	-0.087000	-1.096655	-0.391731
C75	C	-0.086986	-1.097853	-0.332577
C76	C	0.087081	-1.142774	-0.368837
C77	C	0.087068	-1.141581	-0.427987
C78	C	0.000020	-1.118517	-0.439431
O79	O	0.161019	-1.158811	-0.536983
O80	O	-0.161030	-1.075647	-0.469935
C81	C	-0.000010	-1.106347	-0.046637
C82	C	-0.000026	-1.107593	0.016330
H83	H	0.258104	-1.063735	-0.111688
C84	C	0.269819	-1.185085	-0.646456
N85	N	0.341939	-1.204189	-0.636976
H86	H	0.157938	-1.159392	-0.466831
H87	H	0.157941	-1.161548	-0.359503
H88	H	0.157893	-1.150601	-0.903740
H89	H	0.000019	-0.804604	-0.241721
C90	C	-0.000019	-0.395764	-0.057551
N91	N	-0.000026	-0.314197	-0.041561
H92	H	-0.000008	-0.379449	-0.116025
C93	C	-0.000027	-0.474455	0.036240
N94	N	-0.000030	-0.423937	0.089235
H95	H	-0.244938	-1.049942	-0.655028
C96	C	0.182751	-1.154713	-1.024684
N97	N	0.254869	-1.172829	-1.064201
H98	H	0.741935	-1.164759	-0.193106
C99	C	-0.182799	-1.062850	-0.824331
N100	N	-0.254916	-1.044724	-0.784812
C101	C	0.394517	-0.886820	0.030920
N102	N	0.352890	-0.822537	0.082700
H103	H	-0.000005	-0.806411	0.008310
C104	C	-0.182799	-1.060356	-0.948563
N105	N	-0.254904	-1.041247	-0.958059
C106	C	0.269816	-1.182585	-0.770666
N107	N	0.341937	-1.200688	-0.810175
H108	H	0.000029	-0.849042	-0.188772
C109	C	0.288971	-0.995172	-0.056399
N110	N	0.205705	-0.973660	-0.039060
C111	C	0.756312	-0.915777	0.007633
N112	N	0.797945	-0.873040	0.042092
C113	C	0.545267	-0.861209	0.051576
N114	N	0.503641	-0.796926	0.103355
C115	C	0.711051	-1.233328	-0.248396
N116	N	0.794318	-1.254835	-0.265735
C117	C	0.605518	-1.341633	-0.335726
N118	N	0.647148	-1.405870	-0.387523
H119	H	-0.000035	-0.627797	0.043327
H120	H	-0.157862	-1.080051	-0.293739
H121	H	-0.157882	-1.077869	-0.401039
H122	H	0.440403	-1.345095	-0.338517
H123	H	0.258074	-1.297990	-0.300553
H124	H	0.000056	-0.600701	-0.348125
C125	C	0.000057	-0.754044	-0.341043
N126	N	0.000070	-0.804561	-0.394040
C127	C	0.000041	-0.411388	-0.325863
N128	N	0.000044	-0.380345	-0.362872
C129	C	-0.269800	-1.045850	-0.534093
N130	N	-0.341921	-1.027721	-0.494575
