data_functionalizedCrystal
_audit_creation_method	'MofGen! by Chris Wilmer'
_symmetry_space_group_name_H-M	'P1'
_symmetry_Int_Tables_number	1
_symmetry_cell_setting	triclinic
loop_
_symmetry_equiv_pos_as_xyz
  x,y,z
_cell_length_a	17.639617
_cell_length_b	17.637015
_cell_length_c	11.169409
_cell_angle_alpha	78.746617
_cell_angle_beta	78.757019
_cell_angle_gamma	109.619959
loop_
_atom_site_label
_atom_site_type_symbol
_atom_site_fract_x
_atom_site_fract_y
_atom_site_fract_z
Zn1	Zn	1.193678	-0.073645	-1.023032
Zn2	Zn	1.165698	-0.211550	-0.771352
Zn3	Zn	1.055836	-0.101531	-0.771400
Zn4	Zn	1.027961	-0.239302	-0.921103
O5	O	1.110793	-0.156507	-0.871722
O6	O	1.305297	-0.068654	-1.032284
O7	O	1.151080	-0.197011	-0.603378
O8	O	1.097498	0.017540	-0.847457
O9	O	1.284740	-0.169972	-0.847375
O10	O	1.198769	0.038027	-1.032330
O11	O	1.070366	-0.116181	-0.603413
O12	O	0.936808	-0.143091	-0.748621
O13	O	1.049987	-0.217271	-1.102605
O14	O	0.916328	-0.244310	-0.858607
O15	O	1.171739	-0.095564	-1.177492
O16	O	1.124050	-0.330602	-0.748539
O17	O	1.022856	-0.350991	-0.858561
C18	C	0.896664	-0.199739	-0.792559
C19	C	0.805054	-0.218253	-0.758714
C20	C	0.557159	-0.015835	-1.129142
C21	C	0.471074	-0.033253	-1.097308
C22	C	0.449725	-0.138580	-0.904606
C23	C	0.535809	-0.121174	-0.936427
C24	C	0.589520	-0.059800	-1.048696
C25	C	0.568171	-0.165139	-0.855981
C26	C	0.654248	-0.147731	-0.887797
C27	C	0.707965	-0.086357	-1.000059
C28	C	0.675598	-0.042391	-1.080512
C29	C	0.514459	-0.226509	-0.743708
C30	C	0.546820	-0.270474	-0.663263
C31	C	0.632899	-0.253070	-0.695082
C32	C	0.686615	-0.191697	-0.807344
C33	C	0.665265	-0.297036	-0.614629
C34	C	0.751343	-0.279628	-0.646445
C35	C	0.772693	-0.174288	-0.839160
C36	C	1.067414	-0.370707	-0.792518
C37	C	1.048932	-0.462327	-0.758703
C38	C	0.970190	-0.602190	-0.614724
C39	C	0.987562	-0.516097	-0.646510
C40	C	1.092956	-0.494635	-0.839151
C41	C	1.075595	-0.580727	-0.807378
C42	C	1.014210	-0.634498	-0.695163
C43	C	1.119615	-0.613035	-0.887817
C44	C	1.102252	-0.699120	-0.856049
C45	C	1.040869	-0.752897	-0.743842
C46	C	0.996847	-0.720583	-0.663395
C47	C	1.180996	-0.559264	-1.000036
C48	C	1.225016	-0.591572	-1.080475
C49	C	1.207658	-0.677658	-1.048703
C50	C	1.146274	-0.731434	-0.936496
C51	C	1.251679	-0.709972	-1.129150
C52	C	1.234316	-0.796057	-1.097382
C53	C	1.128911	-0.817519	-0.904728
C54	C	1.325759	-0.113106	-0.951194
C55	C	1.417364	-0.094612	-0.985060
C56	C	1.110875	-0.156402	-1.184822
C57	C	1.110910	-0.156358	-1.318246
C58	C	1.154364	0.058534	-0.951269
C59	C	1.172931	0.150172	-0.985167
C60	C	1.110771	-0.156541	-0.559880
C61	C	1.110943	-0.156321	-0.426601
H62	H	0.719333	0.007583	-1.171936
O63	O	1.317885	-0.651974	-1.250177
H64	H	1.322565	-0.586685	-1.258751
H65	H	1.078930	-0.861303	-0.813347
H66	H	1.142934	-0.450845	-0.930519
H67	H	0.621523	-0.347001	-0.523214
O68	O	1.022170	-0.845741	-0.709567
H69	H	1.000926	-0.871787	-0.785536
H70	H	1.274994	-0.547783	-1.171843
O71	O	1.199733	-0.466412	-1.034300
H72	H	1.142132	-0.456304	-1.043845
O73	O	0.800807	-0.067580	-1.034365
H74	H	0.836072	-0.000795	-1.041620
O75	O	0.786256	-0.327040	-0.559680
H76	H	0.817007	-0.361081	-0.612283
H77	H	1.270153	-0.822364	-1.162894
O78	O	0.488886	-0.336664	-0.542173
H79	H	0.492324	-0.398038	-0.544784
H80	H	0.600894	0.034139	-1.220566
H81	H	0.920208	-0.645973	-0.523343
O82	O	0.830634	-0.108090	-0.960250
H83	H	0.811267	-0.125632	-1.043065
O84	O	0.436165	0.014164	-1.184084
H85	H	0.487977	0.059759	-1.267498
H86	H	0.951709	-0.489798	-0.580998
O87	O	0.391794	-0.204775	-0.783518
H88	H	0.326501	-0.209497	-0.774910
O89	O	0.421617	-0.245283	-0.709377
H90	H	0.386344	-0.312074	-0.702082
O91	O	0.930640	-0.778590	-0.542362
H92	H	0.902942	-0.741665	-0.491760
