data_functionalizedCrystal
_audit_creation_method	'MofGen! by Chris Wilmer'
_symmetry_space_group_name_H-M	'P1'
_symmetry_Int_Tables_number	1
_symmetry_cell_setting	triclinic
loop_
_symmetry_equiv_pos_as_xyz
  x,y,z
_cell_length_a	10.723024
_cell_length_b	8.559649
_cell_length_c	7.088929
_cell_angle_alpha	95.344185
_cell_angle_beta	83.736592
_cell_angle_gamma	77.123267
loop_
_atom_site_label
_atom_site_type_symbol
_atom_site_fract_x
_atom_site_fract_y
_atom_site_fract_z
O1	O	-1.619870	-0.240138	-0.158966
O2	O	-1.254520	-0.261568	-0.158971
O3	O	-1.469383	-0.018604	-0.158966
O4	O	-1.405007	-0.483102	-0.158971
O5	O	-1.498104	0.013940	0.159010
O6	O	-1.283241	-0.229024	0.159005
O7	O	-1.648591	-0.207595	0.159010
Cu8	Cu	-1.468539	-0.215338	0.188041
Cu9	Cu	-1.434572	-0.253824	-0.188002
O10	O	-1.433728	-0.450559	0.159005
C11	C	-1.222541	-0.243736	0.000016
C12	C	-1.084465	-0.239071	0.000013
C13	C	-1.488622	0.057144	0.000019
C14	C	-1.503142	0.234364	0.000008
C15	C	-1.680570	-0.225426	0.000019
C16	C	-1.818645	-0.230093	0.000009
C17	C	-0.995544	-0.375021	0.000011
C18	C	-0.852834	-0.370202	0.000008
C19	C	-1.414489	-0.526307	0.000016
C20	C	-1.399967	-0.703528	0.000014
N21	N	-1.492438	-0.188267	0.452530
N22	N	-1.410684	-0.280882	-0.452491
H23	H	-1.025068	-0.494979	0.000020
O24	O	-1.621731	0.332703	-0.000323
C25	C	-1.621549	0.413270	-0.164971
H26	H	-1.541605	0.341134	-0.280079
H27	H	-1.718768	0.425389	-0.220251
H28	H	-1.604129	0.538435	-0.127723
H29	H	-1.577179	-0.092297	0.534188
H30	H	-1.054937	-0.119117	-0.000034
O31	O	-1.281324	0.198071	-0.000336
C32	C	-1.251765	0.083820	-0.165003
H33	H	-1.310915	0.132413	-0.280099
H34	H	-1.144559	0.060387	-0.220286
H35	H	-1.275915	-0.033725	-0.127779
O36	O	-0.761897	-0.509215	-0.000080
C37	C	-0.821409	-0.640416	-0.000029
H38	H	-0.916906	-0.607274	-0.060222
H39	H	-0.755363	-0.750119	-0.092348
H40	H	-0.840082	-0.669950	0.152521
O41	O	-0.909825	-0.091366	-0.000245
C42	C	-0.971676	-0.102171	-0.164953
H43	H	-0.961022	-0.234584	-0.219859
H44	H	-1.078468	-0.040142	-0.127917
H45	H	-0.925554	-0.040527	-0.280268
H46	H	-1.325957	-0.376858	0.465861
