data_functionalizedCrystal
_audit_creation_method	'MofGen! by Chris Wilmer'
_symmetry_space_group_name_H-M	'P1'
_symmetry_Int_Tables_number	1
_symmetry_cell_setting	triclinic
loop_
_symmetry_equiv_pos_as_xyz
  x,y,z
_cell_length_a	16.956984
_cell_length_b	16.992695
_cell_length_c	16.053802
_cell_angle_alpha	87.258926
_cell_angle_beta	87.610701
_cell_angle_gamma	96.639179
loop_
_atom_site_label
_atom_site_type_symbol
_atom_site_fract_x
_atom_site_fract_y
_atom_site_fract_z
O1	O	1.063242	-0.028849	-0.069433
O2	O	1.563242	0.471151	0.430567
O3	O	0.832831	-0.056264	-0.069434
O4	O	1.332831	0.443736	0.430566
O5	O	0.947113	0.071526	-0.069427
O6	O	1.447113	0.571526	0.430573
O7	O	0.948961	-0.156639	-0.069441
O8	O	1.448961	0.343361	0.430559
O9	O	0.940821	0.064519	0.069431
O10	O	1.440821	0.564519	0.569431
O11	O	0.826539	-0.063271	0.069424
O12	O	1.326539	0.436729	0.569424
O13	O	1.056950	-0.035855	0.069425
O14	O	1.556950	0.464145	0.569425
Zn15	Zn	0.940746	-0.050676	0.091471
Zn16	Zn	1.440746	0.449324	0.591471
Zn17	Zn	0.949036	-0.041444	-0.091481
Zn18	Zn	1.449036	0.458556	0.408519
O19	O	0.942669	-0.163646	0.069418
O20	O	1.442669	0.336354	0.569418
C21	C	0.800067	-0.061171	-0.000005
C22	C	1.300067	0.438829	0.499995
C23	C	0.711812	-0.065345	-0.000006
C24	C	1.211812	0.434655	0.499994
C25	C	0.675280	0.004440	0.000000
C26	C	1.175280	0.504440	0.500000
C27	C	0.592356	0.000514	-0.000006
C28	C	1.092356	0.500514	0.499994
C29	C	0.545964	-0.073198	-0.000012
C30	C	1.045964	0.426802	0.499988
C31	C	0.582501	-0.142989	-0.000020
C32	C	1.082501	0.357011	0.499980
C33	C	0.665424	-0.139062	-0.000020
C34	C	1.165424	0.360938	0.499980
C35	C	0.297430	-0.092637	-0.000019
C36	C	0.797430	0.407363	0.499981
C37	C	0.214501	-0.096559	-0.000017
C38	C	0.714501	0.403441	0.499983
C39	C	0.224362	0.046944	-0.000004
C40	C	0.724362	0.546944	0.499996
C41	C	0.307286	0.050864	0.000001
C42	C	0.807286	0.550864	0.500001
C43	C	0.343816	-0.018925	-0.000012
C44	C	0.843816	0.481075	0.499988
N45	N	0.461201	-0.077213	-0.000016
N46	N	0.961201	0.422787	0.499984
N47	N	0.428578	-0.014909	-0.000014
N48	N	0.928578	0.485091	0.499986
C49	C	0.941590	0.097081	0.000002
C50	C	1.441590	0.597081	0.500002
C51	C	0.934500	0.183666	0.000002
C52	C	1.434500	0.683666	0.500002
C53	C	1.089715	-0.030948	-0.000006
C54	C	1.589715	0.469052	0.499994
C55	C	1.177970	-0.026774	-0.000011
C56	C	1.677970	0.473226	0.499989
C57	C	0.948191	-0.189201	-0.000013
C58	C	1.448191	0.310799	0.499987
C59	C	0.955282	-0.275785	-0.000018
C60	C	1.455282	0.224215	0.499982
N61	N	0.935094	-0.056975	0.216331
N62	N	1.435094	0.443025	0.716331
C63	C	1.002914	0.238341	0.000003
C64	C	1.502914	0.738341	0.500003
C65	C	0.996248	0.319696	-0.000005
C66	C	1.496248	0.819696	0.499995
C67	C	0.921165	0.346374	-0.000008
C68	C	1.421165	0.846374	0.499992
C69	C	0.852745	0.291692	-0.000012
C70	C	1.352745	0.791692	0.499988
C71	C	0.859413	0.210339	-0.000010
C72	C	1.359413	0.710339	0.499990
C73	C	0.893530	0.588181	-0.000020
C74	C	1.393530	1.088181	0.499980
C75	C	0.886867	0.669540	-0.000019
C76	C	1.386867	1.169540	0.499981
C77	C	1.030371	0.697538	-0.000014
C78	C	1.530371	1.197538	0.499986
C79	C	1.037031	0.616182	-0.000007
C80	C	1.537031	1.116182	0.499993
C81	C	0.968612	0.561508	-0.000015
C82	C	1.468612	1.061508	0.499985
N83	N	0.914349	0.429531	-0.000014
N84	N	1.414349	0.929531	0.499986
N85	N	0.975429	0.478353	-0.000016
N86	N	1.475429	0.978353	0.499984
N87	N	0.954694	-0.035138	-0.216341
N88	N	1.454694	0.464862	0.283659
C89	C	0.983741	-0.002617	0.260028
C90	C	1.483741	0.497383	0.760028
C91	C	0.979795	-0.007031	0.347435
C92	C	1.479795	0.492969	0.847435
C93	C	0.927206	-0.065806	0.391143
C94	C	1.427206	0.434194	0.891143
C95	C	0.878553	-0.120167	0.347440
C96	C	1.378553	0.379833	0.847440
C97	C	0.882496	-0.115749	0.260035
C98	C	1.382496	0.384251	0.760035
C99	C	0.909984	-0.085081	0.652551
C100	C	1.409984	0.414919	1.152551
C101	C	0.906047	-0.089496	0.739962
C102	C	1.406047	0.410504	1.239962
C103	C	1.007288	0.023642	0.739952
C104	C	1.507288	0.523642	1.239952
C105	C	1.011229	0.028051	0.652545
C106	C	1.511229	0.528051	1.152545
C107	C	0.962573	-0.026307	0.608849
C108	C	1.462573	0.473693	1.108849
N109	N	0.923173	-0.070321	0.480486
N110	N	1.423173	0.429679	0.980486
N111	N	0.966603	-0.021788	0.519508
N112	N	1.466603	0.478212	1.019508
H113	H	0.345053	0.110889	0.000009
H114	H	0.845053	0.610889	0.500009
H115	H	0.194610	0.103764	-0.000004
H116	H	0.694610	0.603764	0.499996
H117	H	0.835730	-0.168021	0.383032
H118	H	1.335730	0.331979	0.883032
Cl119	Cl	0.156180	-0.189233	-0.000016
Cl120	Cl	0.656180	0.310767	0.499984
Cl121	Cl	0.343343	-0.180374	-0.000033
Cl122	Cl	0.843343	0.319626	0.499967
Cl123	Cl	0.773402	0.141604	-0.000015
Cl124	Cl	1.273402	0.641604	0.499985
H125	H	0.544722	-0.203006	-0.000030
H126	H	1.044722	0.296994	0.499970
H127	H	1.098172	0.594468	-0.000004
H128	H	1.598172	1.094468	0.499996
H129	H	1.019406	0.037232	0.383013
H130	H	1.519406	0.537232	0.883013
H131	H	0.695167	-0.195888	-0.000021
H132	H	1.195167	0.304112	0.499979
Cl133	Cl	1.097309	0.204812	0.000015
Cl134	Cl	1.597309	0.704812	0.500015
H135	H	1.051959	0.364210	-0.000002
H136	H	1.551959	0.864210	0.499998
Cl137	Cl	0.792470	0.703075	-0.000018
Cl138	Cl	1.292470	1.203075	0.499982
Cl139	Cl	0.807515	0.519458	-0.000032
Cl140	Cl	1.307515	1.019458	0.499968
H141	H	0.842881	-0.160012	0.224457
H142	H	1.342881	0.339988	0.724457
Cl143	Cl	0.839929	-0.163394	0.794904
Cl144	Cl	1.339929	0.336606	1.294904
H145	H	1.086074	0.742062	-0.000009
H146	H	1.586074	1.242062	0.499991
H147	H	0.791611	0.313420	-0.000020
H148	H	1.291611	0.813420	0.499980
H149	H	0.713047	0.064464	0.000008
H150	H	1.213047	0.564464	0.500008
Cl151	Cl	0.848822	-0.153418	0.597626
Cl152	Cl	1.348822	0.346582	1.097626
Cl153	Cl	1.049860	0.071273	0.205090
Cl154	Cl	1.549860	0.571273	0.705090
Cl155	Cl	1.077342	0.101941	0.597598
Cl156	Cl	1.577342	0.601941	1.097598
Cl157	Cl	1.068447	0.091976	0.794887
Cl158	Cl	1.568447	0.591976	1.294887
H159	H	0.562616	0.057340	-0.000002
H160	H	1.062616	0.557340	0.499998
