data_functionalizedCrystal
_audit_creation_method	'MofGen! by Chris Wilmer'
_symmetry_space_group_name_H-M	'P1'
_symmetry_Int_Tables_number	1
_symmetry_cell_setting	triclinic
loop_
_symmetry_equiv_pos_as_xyz
  x,y,z
_cell_length_a	10.654550
_cell_length_b	15.995350
_cell_length_c	9.130313
_cell_angle_alpha	90.000982
_cell_angle_beta	89.996220
_cell_angle_gamma	83.988639
loop_
_atom_site_label
_atom_site_type_symbol
_atom_site_fract_x
_atom_site_fract_y
_atom_site_fract_z
O1	O	1.666298	0.117599	-0.121912
O2	O	1.300673	0.128803	-0.121888
O3	O	1.493480	0.001371	-0.121899
O4	O	1.473491	0.245030	-0.121900
O5	O	1.493478	0.001375	0.121700
O6	O	1.300671	0.128807	0.121711
O7	O	1.666295	0.117602	0.121687
Cu8	Cu	1.483483	0.123205	0.143942
Cu9	Cu	1.483486	0.123201	-0.144142
O10	O	1.473488	0.245034	0.121698
C11	C	1.253885	0.127982	-0.000085
C12	C	1.114473	0.125521	-0.000076
C13	C	1.034008	0.200551	-0.000098
C14	C	0.903017	0.198233	-0.000123
C15	C	0.932971	0.045849	-0.000111
C16	C	1.063959	0.048168	-0.000075
C17	C	1.084522	0.277904	-0.000099
C18	C	1.004055	0.352940	-0.000122
C19	C	0.873064	0.350622	-0.000147
C20	C	0.822541	0.273268	-0.000149
C21	C	1.492652	-0.029827	-0.000102
C22	C	1.490175	-0.122791	-0.000110
C23	C	1.481278	-0.460591	-0.000105
C24	C	1.343964	-0.413954	-0.000642
C25	C	1.346442	-0.317249	-0.000093
C26	C	1.485691	-0.293004	-0.000108
C27	C	1.553417	-0.333687	0.138991
C28	C	1.549968	-0.430342	0.139108
C29	C	1.552807	-0.430688	-0.137910
C30	C	1.552775	-0.333743	-0.139748
C31	C	1.488192	-0.198292	-0.000106
C32	C	1.478780	-0.555303	-0.000098
C33	C	1.713084	0.118423	-0.000119
C34	C	1.852495	0.120884	-0.000137
C35	C	1.474316	0.276232	-0.000101
C36	C	1.476793	0.369197	-0.000103
N37	N	1.483490	0.123207	0.346564
N38	N	1.483488	0.123192	-0.346765
C39	C	1.568887	0.066800	0.423211
C40	C	1.568883	0.066789	0.576548
C41	C	1.398083	0.179602	0.576578
C42	C	1.398081	0.179607	0.423244
C43	C	1.654296	0.010399	0.346532
C44	C	1.739700	-0.046012	0.423179
C45	C	1.739697	-0.046022	0.576516
C46	C	1.654289	0.010379	0.653206
H47	H	0.715878	0.271387	-0.000147
H48	H	1.191179	0.279800	-0.000085
H49	H	1.328548	0.225522	0.639028
O50	O	1.142083	-0.024736	-0.000324
C51	C	1.119203	-0.071666	-0.126476
H52	H	1.074447	-0.027727	-0.214666
H53	H	1.052510	-0.120524	-0.097973
C54	C	1.299731	-0.170253	-0.075337
C55	C	1.244770	-0.116284	-0.183657
H56	H	1.377184	-0.197779	-0.110607
H57	H	1.315143	-0.138637	0.009657
H58	H	1.244141	-0.210960	-0.051594
H59	H	1.300353	-0.075572	-0.207385
H60	H	1.229369	-0.147894	-0.268658
H61	H	1.328542	0.225538	0.360837
H62	H	1.293204	-0.289138	-0.099805
H63	H	0.891824	-0.017129	-0.000137
O64	O	1.278972	-0.437758	0.117819
C65	C	1.357037	-0.496424	0.201153
H66	H	1.460218	-0.488620	0.177483
H67	H	1.336934	-0.562851	0.170720
C68	C	1.203360	-0.490904	0.394336
C69	C	1.330089	-0.481314	0.365274
H70	H	1.186734	-0.481587	0.495574
H71	H	1.150762	-0.451382	0.338191
H72	H	1.186622	-0.546260	0.368965
H73	H	1.346820	-0.425956	0.390628
H74	H	1.382688	-0.520827	0.421427
H75	H	1.506376	-0.305577	0.242515
O76	O	1.278318	-0.436321	-0.119595
C77	C	1.155756	-0.393486	-0.116796
H78	H	1.155827	-0.334140	-0.047671
H79	H	1.087499	-0.436013	-0.067263
C80	C	1.113893	-0.442307	-0.358929
C81	C	1.113984	-0.369413	-0.274038
H82	H	1.088122	-0.427461	-0.455922
H83	H	1.196464	-0.471168	-0.360813
H84	H	1.057014	-0.477739	-0.317634
H85	H	1.170874	-0.333988	-0.315322
H86	H	1.031421	-0.340545	-0.272164
O87	O	1.822566	-0.100748	0.348463
C88	C	1.804217	-0.088675	0.196690
H89	H	1.757337	-0.022382	0.175744
H90	H	1.741176	-0.136432	0.153215
C91	C	1.990236	-0.181951	0.143648
C92	C	1.932667	-0.100526	0.117921
H93	H	2.069468	-0.189265	0.095057
H94	H	2.002597	-0.190088	0.245900
H95	H	1.937690	-0.221739	0.107419
H96	H	1.985206	-0.060740	0.154166
H97	H	1.920318	-0.092383	0.015672
O98	O	1.675507	-0.316236	0.145355
C99	C	1.733438	-0.353657	0.271473
H100	H	1.680488	-0.408464	0.307663
H101	H	1.731104	-0.305142	0.363170
C102	C	1.936433	-0.318719	0.192032
C103	C	1.871405	-0.386038	0.236474
H104	H	2.021540	-0.338690	0.170447
H105	H	1.897404	-0.293505	0.107066
H106	H	1.934475	-0.278295	0.268454
H107	H	1.873351	-0.426455	0.160046
H108	H	1.910438	-0.411260	0.321426
O109	O	1.282687	-0.284281	0.119129
C110	C	1.364651	-0.242215	0.207391
H111	H	1.445999	-0.223430	0.137811
H112	H	1.403538	-0.285696	0.299328
C113	C	1.191855	-0.185977	0.359062
C114	C	1.291762	-0.162898	0.273600
H115	H	1.146893	-0.137052	0.399910
H116	H	1.136634	-0.214319	0.299603
H117	H	1.224275	-0.222212	0.435665
H118	H	1.259339	-0.126673	0.196989
H119	H	1.346976	-0.134548	0.333049
H120	H	1.650782	-0.462005	0.145409
H121	H	1.654321	-0.317791	-0.148158
H122	H	1.500580	-0.448929	0.243098
O123	O	1.493880	-0.301385	-0.262479
C124	C	1.498971	-0.213682	-0.266028
H125	H	1.581448	-0.196835	-0.196320
H126	H	1.407140	-0.180563	-0.220821
C127	C	1.415871	-0.206067	-0.510756
C128	C	1.517177	-0.185376	-0.425149
H129	H	1.427096	-0.188604	-0.608909
H130	H	1.412436	-0.265154	-0.508364
H131	H	1.339355	-0.178466	-0.473066
H132	H	1.593689	-0.212985	-0.462828
H133	H	1.520626	-0.126292	-0.427551
H134	H	1.507914	-0.451490	-0.243339
H135	H	1.654308	0.010404	0.221678
O136	O	1.673508	-0.468012	-0.139128
C137	C	1.672562	-0.556039	-0.144396
H138	H	1.579159	-0.571917	-0.192351
H139	H	1.684114	-0.582927	-0.028971
C140	C	1.896816	-0.574925	-0.182390
C141	C	1.782100	-0.594426	-0.241302
H142	H	1.964387	-0.598605	-0.242161
H143	H	1.897455	-0.515620	-0.178836
H144	H	1.906424	-0.597332	-0.086204
H145	H	1.772486	-0.572010	-0.337478
H146	H	1.781462	-0.653729	-0.244875
O147	O	1.822770	-0.100850	0.650746
C148	C	1.898125	-0.150641	0.550180
H149	H	1.899537	-0.116295	0.440886
H150	H	1.857362	-0.213096	0.533861
C151	C	2.031860	-0.209241	0.744247
C152	C	2.033603	-0.167054	0.610014
H153	H	2.115429	-0.219369	0.781157
H154	H	1.981090	-0.175699	0.812002
H155	H	1.997886	-0.261282	0.730630
H156	H	2.067563	-0.115009	0.623636
H157	H	2.084383	-0.200588	0.542263
H158	H	1.045200	0.415918	-0.000108
H159	H	1.654285	0.010361	0.778063
H160	H	0.807551	0.411720	-0.000152
