data_functionalizedCrystal
_audit_creation_method	'MofGen! by Chris Wilmer'
_symmetry_space_group_name_H-M	'P1'
_symmetry_Int_Tables_number	1
_symmetry_cell_setting	triclinic
loop_
_symmetry_equiv_pos_as_xyz
  x,y,z
_cell_length_a	15.711784
_cell_length_b	23.532357
_cell_length_c	14.185197
_cell_angle_alpha	75.149714
_cell_angle_beta	80.102551
_cell_angle_gamma	101.208546
loop_
_atom_site_label
_atom_site_type_symbol
_atom_site_fract_x
_atom_site_fract_y
_atom_site_fract_z
O1	O	1.126792	0.296617	0.083517
O2	O	0.875515	0.253333	0.083501
O3	O	1.008758	0.193657	0.083489
O4	O	0.993550	0.356293	0.083529
O5	O	1.043470	0.223950	-0.083346
O6	O	0.910227	0.283627	-0.083334
O7	O	1.161504	0.326910	-0.083319
Cu8	Cu	1.039035	0.308034	-0.098560
Cu9	Cu	0.997984	0.272209	0.098743
O10	O	1.028262	0.386587	-0.083306
C11	C	0.860730	0.261409	0.000081
C12	C	0.764960	0.240334	0.000075
C13	C	0.640719	0.160993	0.000054
C14	C	0.730709	0.180802	0.000060
C15	C	0.709226	0.280080	0.000089
C16	C	0.619232	0.260278	0.000087
C17	C	0.584986	0.200734	0.000069
C18	C	0.563500	0.300020	0.000103
C19	C	0.473514	0.280221	0.000096
C20	C	0.439262	0.220680	0.000075
C21	C	0.495001	0.180935	0.000063
C22	C	0.597749	0.359565	0.000114
C23	C	0.542016	0.399307	0.000129
C24	C	0.452028	0.379506	0.000130
C25	C	0.417775	0.319965	0.000108
C26	C	0.396288	0.419251	0.000142
C27	C	0.306303	0.399451	0.000135
C28	C	0.327790	0.300166	0.000102
C29	C	1.025734	0.187507	0.000068
C30	C	1.024593	0.124047	0.000059
C31	C	0.998484	-0.286008	0.091054
C32	C	0.997397	-0.345639	0.091060
O33	O	0.980713	-0.390525	0.168403
N34	N	1.015779	-0.358952	0.000119
C35	C	1.035242	-0.312631	-0.090833
O36	O	1.050777	-0.329430	-0.168185
C37	C	1.036323	-0.253002	-0.090838
C38	C	1.017948	-0.239692	0.000109
C39	C	0.980110	-0.272697	0.181994
C40	C	0.981199	-0.213070	0.181988
C41	C	1.000663	-0.166754	0.091042
C42	C	1.019037	-0.180065	0.000103
C43	C	1.055779	-0.206683	-0.181789
C44	C	1.056858	-0.147052	-0.181786
C45	C	1.038483	-0.133742	-0.090839
C46	C	1.039591	-0.074122	-0.090849
N47	N	1.021208	-0.060809	0.000092
C48	C	1.001744	-0.107125	0.091038
C49	C	1.032968	-0.437857	-0.090817
C50	C	1.031893	-0.497484	-0.090813
C51	C	0.994046	-0.530488	0.091081
C52	C	0.995127	-0.470859	0.091076
C53	C	1.014585	-0.424544	0.000124
C54	C	1.004034	0.018097	0.091018
C55	C	1.005129	0.077731	0.091004
C56	C	1.042971	0.110730	-0.090889
C57	C	1.041881	0.051102	-0.090875
C58	C	1.022408	0.004785	0.000086
O59	O	1.056263	-0.029207	-0.168152
O60	O	0.986201	-0.090318	0.168376
C61	C	1.176289	0.318833	0.000104
C62	C	1.272057	0.339907	0.000117
C63	C	1.011285	0.392736	0.000117
C64	C	1.012424	0.456194	0.000133
N65	N	1.067914	0.333233	-0.237332
C66	C	0.884318	0.173002	-0.604977
C67	C	0.906183	0.192083	-0.709999
C68	C	1.010205	0.282871	-0.709963
C69	C	0.988353	0.263796	-0.604938
C70	C	0.925408	0.208861	-0.552454
C71	C	1.029443	0.299655	-0.552415
C72	C	1.007588	0.280583	-0.447400
C73	C	0.944644	0.225652	-0.394908
C74	C	0.903554	0.189789	-0.447438
C75	C	1.092382	0.354591	-0.604902
C76	C	1.133472	0.390451	-0.552379
C77	C	1.111623	0.371377	-0.447362
C78	C	1.048679	0.316445	-0.394870
C79	C	1.152713	0.407239	-0.394831
C80	C	1.130859	0.388167	-0.289816
C81	C	1.026824	0.297373	-0.289855
N82	N	0.969112	0.247007	0.237514
H83	H	0.299903	0.251677	0.000098
O84	O	0.983027	-0.031851	0.189129
H85	H	1.040433	-0.052642	0.193495
H86	H	0.612832	0.112504	0.000050
O87	O	0.958976	0.238096	-0.233276
H88	H	0.990701	0.207503	-0.185476
O89	O	0.961358	-0.198720	0.280080
H90	H	0.947629	-0.240953	0.343312
H91	H	0.424187	0.467734	0.000147
H92	H	0.980164	-0.460028	0.165133
H93	H	1.056851	0.040266	-0.164932
H94	H	0.978195	-0.568211	0.165133
H95	H	0.467115	0.132446	0.000058
O96	O	0.985298	0.092086	0.189099
H97	H	0.971569	0.049857	0.252338
H98	H	0.833067	0.128267	-0.562240
H99	H	0.872715	0.162879	-0.752759
O100	O	0.790824	0.137934	0.000053
H101	H	0.751887	0.093203	0.000047
H102	H	0.365992	0.204561	0.000060
O103	O	0.746163	0.344300	0.000112
H104	H	0.818098	0.351392	0.000119
H105	H	1.061453	0.327600	-0.752710
O106	O	1.115961	0.375160	-0.718169
H107	H	1.055145	0.380330	-0.745868
O108	O	0.246184	0.442313	0.000143
H109	H	0.190518	0.423316	0.068133
H110	H	0.964256	-0.310405	0.256056
O111	O	1.051719	-0.511837	-0.188904
H112	H	1.065429	-0.469608	-0.252140
H113	H	0.852303	0.145055	-0.404702
O114	O	1.063968	0.160692	-0.188976
H115	H	1.014021	0.149989	-0.232590
O116	O	0.694804	0.380927	0.000118
H117	H	0.709021	0.352377	0.068120
H118	H	0.569912	0.447788	0.000140
H119	H	1.048816	-0.400148	-0.164885
H120	H	1.070743	-0.217508	-0.255848
O121	O	1.077856	-0.097094	-0.279886
H122	H	1.090458	-0.116372	-0.343118
O123	O	1.201373	0.449694	-0.608988
H124	H	1.209676	0.456930	-0.690836
O125	O	0.921046	0.205108	-0.281640
H126	H	0.981845	0.199929	-0.253909
O127	O	1.220607	0.466485	-0.451442
H128	H	1.228905	0.473721	-0.533290
H129	H	1.164315	0.417369	-0.247051
