data_functionalizedCrystal
_audit_creation_method	'MofGen! by Chris Wilmer'
_symmetry_space_group_name_H-M	'P1'
_symmetry_Int_Tables_number	1
_symmetry_cell_setting	triclinic
loop_
_symmetry_equiv_pos_as_xyz
  x,y,z
_cell_length_a	15.944493
_cell_length_b	15.021413
_cell_length_c	11.792240
_cell_angle_alpha	89.994693
_cell_angle_beta	96.165770
_cell_angle_gamma	90.006749
loop_
_atom_site_label
_atom_site_type_symbol
_atom_site_fract_x
_atom_site_fract_y
_atom_site_fract_z
O1	O	1.115218	0.074039	-0.146051
O2	O	0.870744	0.074046	-0.164167
O3	O	0.998914	0.074015	0.010112
O4	O	0.987048	0.074070	-0.320330
O5	O	0.998893	-0.074049	0.010087
O6	O	0.870723	-0.074019	-0.164192
O7	O	1.115198	-0.074025	-0.146076
Zn8	Zn	0.992957	-0.097530	-0.155138
Zn9	Zn	0.992984	0.097551	-0.155105
O10	O	0.987028	-0.073995	-0.320355
C11	C	0.839435	0.000014	-0.163439
C12	C	0.746177	0.000015	-0.161219
N13	N	0.992945	-0.230668	-0.155159
C14	C	0.510880	0.000033	-0.263804
C15	C	0.460062	-0.072984	-0.208496
C16	C	0.575437	0.000013	-0.157106
C17	C	0.460086	0.072996	-0.208446
C18	C	0.410510	0.000014	-0.153141
C19	C	0.525847	-0.073064	-0.101827
C20	C	0.525875	0.072982	-0.101793
C21	C	0.475090	-0.000053	-0.046407
C22	C	0.670447	0.000011	-0.159393
C23	C	0.315502	0.000010	-0.150845
C24	C	0.933670	-0.470337	-0.235708
C25	C	1.009672	-0.529669	-0.257721
C26	C	0.992966	-0.412275	-0.155131
C27	C	0.916985	-0.529684	-0.133144
C28	C	0.992980	-0.587699	-0.155106
C29	C	1.069007	-0.470300	-0.177195
C30	C	0.976270	-0.470310	-0.052573
C31	C	1.052327	-0.529616	-0.074542
C32	C	0.992957	-0.311217	-0.155148
C33	C	0.992998	-0.688754	-0.155088
C34	C	1.146506	0.000008	-0.146804
C35	C	1.239765	0.000013	-0.149024
N36	N	0.993003	0.230688	-0.155074
C37	C	0.998158	-0.000022	0.052384
C38	C	0.995927	-0.000037	0.178379
C39	C	0.991825	-0.000051	0.409056
C40	C	0.994104	-0.000043	0.280690
C41	C	0.987783	0.000013	0.637373
C42	C	0.990014	-0.000061	0.511378
H43	H	0.526918	-0.000020	-0.355712
H44	H	0.852724	-0.555771	-0.114558
H45	H	1.102533	-0.555480	-0.006386
C46	C	0.621604	0.130434	0.051903
C47	C	0.564706	0.156293	-0.041001
H48	H	0.645572	0.181873	0.089429
H49	H	0.665079	0.095253	0.025614
H50	H	0.592743	0.096648	0.103683
H51	H	0.593568	0.190074	-0.092785
H52	H	0.521224	0.191489	-0.014713
C53	C	1.209202	-0.507197	-0.217900
C54	C	1.155779	-0.435245	-0.202429
H55	H	1.262770	-0.485552	-0.233474
H56	H	1.185452	-0.542436	-0.280114
H57	H	1.215623	-0.542393	-0.150595
H58	H	1.149353	-0.400053	-0.269738
H59	H	1.179534	-0.399991	-0.140210
H60	H	0.431360	0.134717	-0.253518
C61	C	0.438938	-0.156141	-0.383103
C62	C	0.421251	-0.156292	-0.269335
H63	H	0.414975	-0.207568	-0.420667
H64	H	0.498283	-0.156467	-0.385578
H65	H	0.415537	-0.104291	-0.420227
H66	H	0.444658	-0.208139	-0.232209
H67	H	0.361894	-0.155975	-0.266854
H68	H	0.883576	-0.444309	-0.303905
H69	H	0.962112	-0.444217	0.034120
H70	H	0.554464	-0.134854	-0.056805
H71	H	0.459209	-0.000110	0.045571
H72	H	1.023806	-0.555742	-0.344441
