data_functionalizedCrystal
_audit_creation_method	'MofGen! by Chris Wilmer'
_symmetry_space_group_name_H-M	'P1'
_symmetry_Int_Tables_number	1
_symmetry_cell_setting	triclinic
loop_
_symmetry_equiv_pos_as_xyz
  x,y,z
_cell_length_a	10.489741
_cell_length_b	15.944551
_cell_length_c	8.965430
_cell_angle_alpha	89.999468
_cell_angle_beta	89.998843
_cell_angle_gamma	84.018956
loop_
_atom_site_label
_atom_site_type_symbol
_atom_site_fract_x
_atom_site_fract_y
_atom_site_fract_z
O1	O	1.692411	0.118500	-0.123951
O2	O	1.321061	0.129624	-0.123974
O3	O	1.516876	0.001848	-0.123948
O4	O	1.496595	0.246276	-0.123977
O5	O	1.516860	0.001857	0.124130
O6	O	1.321044	0.129633	0.124105
O7	O	1.692394	0.118509	0.124128
Cu8	Cu	1.506718	0.124071	0.146768
Cu9	Cu	1.506737	0.124061	-0.146614
O10	O	1.496578	0.246285	0.124102
C11	C	1.273532	0.128788	0.000062
C12	C	1.131938	0.126275	0.000054
C13	C	1.064925	0.044975	0.000077
C14	C	0.972274	0.083376	-0.122240
C15	C	0.972291	0.083403	0.122346
C16	C	1.041152	0.164709	-0.122364
C17	C	1.041179	0.164726	0.122332
C18	C	0.948554	0.203186	-0.000015
C19	C	1.516026	-0.029446	0.000091
C20	C	1.513502	-0.122708	0.000092
C21	C	1.386093	-0.338330	0.000063
C22	C	1.445249	-0.398988	0.122385
C23	C	1.508935	-0.293461	0.000080
C24	C	1.445294	-0.398979	-0.122201
C25	C	1.504515	-0.458400	0.000062
C26	C	1.568126	-0.352890	0.122503
C27	C	1.568154	-0.352875	-0.122193
C28	C	1.627399	-0.413515	0.000158
C29	C	1.511478	-0.198443	0.000092
C30	C	1.501982	-0.553417	0.000061
C31	C	1.739922	0.119345	0.000088
C32	C	1.881517	0.121858	0.000087
C33	C	1.497429	0.277579	0.000059
C34	C	1.499953	0.370841	0.000049
N35	N	1.506713	0.124078	0.353117
N36	N	1.506752	0.124048	-0.352963
C37	C	1.416127	0.183150	0.450411
C38	C	1.531388	0.200146	0.549830
C39	C	1.391501	0.107089	0.549826
C40	C	1.622032	0.141112	0.450347
C41	C	1.482069	0.048022	0.450334
C42	C	1.597413	0.064986	0.549708
H43	H	1.115541	-0.021859	-0.000068
H44	H	0.941783	0.048992	0.225756
H45	H	1.393328	-0.419372	-0.225622
N46	N	0.933955	0.040240	-0.251975
N47	N	0.957362	0.067201	-0.378924
H48	H	0.930303	0.036735	-0.470548
H49	H	1.393285	-0.419405	0.225792
H50	H	1.339592	0.233152	0.406812
H51	H	1.620032	-0.332584	0.226030
N52	N	1.079187	0.207834	-0.252249
N53	N	1.036179	0.282861	-0.274648
H54	H	1.063037	0.313319	-0.366379
H55	H	0.898203	0.270090	-0.000090
N56	N	1.269263	0.089080	0.604676
N57	N	1.205060	0.141198	0.686256
H58	H	1.118727	0.128485	0.724996
N59	N	1.079513	0.207844	0.252067
N60	N	1.057830	0.180146	0.378985
H61	H	1.084905	0.210593	0.470623
N62	N	1.755429	-0.454335	0.000259
N63	N	1.829589	-0.442172	0.105378
H64	H	1.920010	-0.471002	0.105456
N65	N	1.258176	-0.297322	0.000212
N66	N	1.183824	-0.309623	0.105073
H67	H	1.093485	-0.280661	0.105184
H68	H	1.552259	0.264453	0.593533
N69	N	1.633281	-0.327241	-0.251932
N70	N	1.591421	-0.341773	-0.378848
H71	H	1.637409	-0.323667	-0.470489
N72	N	1.455833	-0.032626	0.395478
N73	N	1.352348	-0.060760	0.427294
H74	H	1.333805	-0.117718	0.388552
H75	H	1.719502	0.155545	0.406834
N76	N	1.693646	0.002300	0.604048
N77	N	1.808765	0.006423	0.571845
H78	H	1.876733	-0.037846	0.610223
