data_functionalizedCrystal
_audit_creation_method	'MofGen! by Chris Wilmer'
_symmetry_space_group_name_H-M	'P1'
_symmetry_Int_Tables_number	1
_symmetry_cell_setting	triclinic
loop_
_symmetry_equiv_pos_as_xyz
  x,y,z
_cell_length_a	9.065218
_cell_length_b	11.792254
_cell_length_c	8.140239
_cell_angle_alpha	90.001420
_cell_angle_beta	90.001330
_cell_angle_gamma	84.607241
loop_
_atom_site_label
_atom_site_type_symbol
_atom_site_fract_x
_atom_site_fract_y
_atom_site_fract_z
O1	O	0.202310	1.508017	0.136605
O2	O	0.702310	2.008017	0.636605
O3	O	0.223132	1.177794	0.136608
O4	O	0.723132	1.677794	0.636608
O5	O	-0.001985	1.349731	0.136603
O6	O	0.498015	1.849731	0.636603
O7	O	0.427427	1.336080	0.136610
O8	O	0.927427	1.836080	0.636610
O9	O	-0.001987	1.349726	-0.136624
O10	O	0.498013	1.849726	0.363376
O11	O	0.223130	1.177788	-0.136619
O12	O	0.723130	1.677788	0.363381
O13	O	0.202309	1.508012	-0.136622
O14	O	0.702309	2.008012	0.363378
Zn15	Zn	0.212719	1.342899	-0.180001
Zn16	Zn	0.712719	1.842899	0.319999
Zn17	Zn	0.212721	1.342906	0.179987
Zn18	Zn	0.712721	1.842906	0.679987
O19	O	0.427425	1.336074	-0.136617
O20	O	0.927425	1.836074	0.363383
C21	C	0.221819	1.135493	-0.000005
C22	C	0.721819	1.635493	0.499995
C23	C	0.217894	1.009458	-0.000004
C24	C	0.717894	1.509458	0.499996
C25	C	0.214704	0.907104	0.000003
C26	C	0.714704	1.407104	0.500003
C27	C	0.210715	0.778695	0.000004
C28	C	0.710715	1.278695	0.500004
C29	C	-0.056960	1.348416	-0.000008
C30	C	0.443040	1.848416	0.499992
C31	C	-0.220767	1.344494	0.000000
C32	C	0.279233	1.844494	0.500000
C33	C	0.482401	1.337389	-0.000003
C34	C	0.982401	1.837389	0.499997
C35	C	0.646207	1.341312	0.000000
C36	C	1.146207	1.841312	0.500000
C37	C	0.203621	1.550313	-0.000005
C38	C	0.703621	2.050313	0.499995
C39	C	0.207547	1.676347	0.000004
C40	C	0.707547	2.176347	0.500004
N41	N	0.212717	1.342902	-0.425684
N42	N	0.712717	1.842902	0.074316
N43	N	0.212712	1.342912	0.425670
N44	N	0.712712	1.842912	0.925670
