data_functionalizedCrystal
_audit_creation_method	'MofGen! by Chris Wilmer'
_symmetry_space_group_name_H-M	'P1'
_symmetry_Int_Tables_number	1
_symmetry_cell_setting	triclinic
loop_
_symmetry_equiv_pos_as_xyz
  x,y,z
_cell_length_a	14.044220
_cell_length_b	10.723022
_cell_length_c	13.101018
_cell_angle_alpha	93.394040
_cell_angle_beta	93.666550
_cell_angle_gamma	91.171948
loop_
_atom_site_label
_atom_site_type_symbol
_atom_site_fract_x
_atom_site_fract_y
_atom_site_fract_z
O1	O	-0.127849	1.676794	0.085206
O2	O	-0.140585	1.314916	0.085209
O3	O	0.003803	1.490423	0.085203
O4	O	-0.272236	1.501287	0.085212
O5	O	-0.006566	1.477815	-0.085227
O6	O	-0.150953	1.302308	-0.085221
O7	O	-0.138217	1.664187	-0.085224
Zn8	Zn	-0.146232	1.481246	-0.112282
Zn9	Zn	-0.132570	1.497856	0.112267
O10	O	-0.282605	1.488680	-0.085218
C11	C	-0.144842	1.262020	-0.000005
C12	C	-0.142070	1.123188	-0.000004
C13	C	-0.058807	1.066297	-0.000006
C14	C	-0.055940	0.922807	-0.000005
C15	C	-0.312766	1.499739	-0.000002
C16	C	-0.418084	1.513923	0.000002
C17	C	-0.610914	1.539855	-0.000003
C18	C	-0.667893	1.439253	-0.000003
C19	C	-0.775191	1.453682	-0.000005
C20	C	-0.503606	1.525428	-0.000000
C21	C	0.033964	1.479364	-0.000011
C22	C	0.139282	1.465180	-0.000008
C23	C	-0.133959	1.717083	-0.000007
C24	C	-0.136731	1.855915	-0.000002
N25	N	-0.155554	1.469919	-0.265530
C26	C	-0.110552	1.524597	-0.525442
C27	C	-0.168239	1.454518	-0.474566
C28	C	-0.161180	1.463089	-0.358248
C29	C	-0.117611	1.516027	-0.641771
N30	N	-0.123240	1.509193	0.265516
H31	H	0.010356	1.123820	-0.000004
H32	H	-0.055867	1.591027	-0.481644
Cl33	Cl	-0.246807	0.931465	-0.000007
H34	H	0.015351	0.873864	0.000019
Cl35	Cl	-0.252679	1.351954	-0.542192
H36	H	-0.636092	1.342289	-0.000003
Cl37	Cl	-0.248857	1.034388	0.000008
H38	H	-0.642713	1.636811	-0.000008
