data_functionalizedCrystal
_audit_creation_method	'MofGen! by Chris Wilmer'
_symmetry_space_group_name_H-M	'P1'
_symmetry_Int_Tables_number	1
_symmetry_cell_setting	triclinic
loop_
_symmetry_equiv_pos_as_xyz
  x,y,z
_cell_length_a	10.489716
_cell_length_b	17.666332
_cell_length_c	10.489716
_cell_angle_alpha	90.001124
_cell_angle_beta	84.529136
_cell_angle_gamma	90.008877
loop_
_atom_site_label
_atom_site_type_symbol
_atom_site_fract_x
_atom_site_fract_y
_atom_site_fract_z
O1	O	1.694065	0.062935	0.179821
O2	O	1.322864	0.062937	0.196746
O3	O	1.516927	0.062939	0.002683
O4	O	1.500001	0.062933	0.373884
O5	O	1.516893	-0.062958	0.002677
O6	O	1.322829	-0.062960	0.196740
O7	O	1.694030	-0.062962	0.179815
Cu8	Cu	1.508427	-0.074456	0.188277
Cu9	Cu	1.508467	0.074431	0.188284
O10	O	1.499967	-0.062964	0.373878
C11	C	1.275314	-0.000011	0.195472
C12	C	1.133684	-0.000010	0.191667
N13	N	1.508407	-0.179176	0.188271
C14	C	1.035999	-0.000010	0.310673
C15	C	0.958642	-0.062086	0.247785
C16	C	0.958683	0.062038	0.247762
C17	C	1.058192	-0.062137	0.128829
C18	C	1.058238	0.062043	0.128824
C19	C	0.980929	-0.000049	0.065848
C20	C	1.586463	-0.218781	0.266393
C21	C	1.586484	-0.298028	0.266390
C22	C	1.508424	-0.337668	0.188279
C23	C	1.430363	-0.298053	0.110141
C24	C	1.430355	-0.218807	0.110137
N25	N	1.396664	-0.462106	0.183779
N26	N	1.396676	-0.537387	0.183789
C27	C	1.508448	-0.576432	0.188283
N28	N	1.620209	-0.537352	0.192791
N29	N	1.620195	-0.462065	0.192787
C30	C	1.508426	-0.423597	0.188274
C31	C	1.586532	-0.701966	0.266406
C32	C	1.586555	-0.781215	0.266393
C33	C	1.430423	-0.781239	0.110152
C34	C	1.430412	-0.701991	0.110157
C35	C	1.508465	-0.662360	0.188291
C36	C	1.741580	-0.000012	0.181089
C37	C	1.883210	-0.000008	0.184894
C38	C	1.515638	-0.000008	-0.044852
C39	C	1.511833	-0.000001	-0.186483
N40	N	1.508497	0.179151	0.188280
C41	C	1.630839	-0.000008	-0.284167
C42	C	1.567971	0.062064	-0.361519
C43	C	1.567909	-0.062060	-0.361489
C44	C	1.449015	0.062123	-0.261969
C45	C	1.448971	-0.062057	-0.261934
C46	C	1.386015	0.000030	-0.339237
C47	C	1.501256	-0.000016	0.421413
C48	C	1.505061	-0.000018	0.563044
H49	H	1.060659	-0.000069	0.414190
H50	H	0.956508	-0.000083	-0.037744
H51	H	1.398819	0.114658	-0.218659
H52	H	1.101752	0.114527	0.078628
H53	H	1.618222	0.114542	-0.405016
C54	C	1.116690	-0.133112	0.061010
N55	N	1.160754	-0.186571	0.009935
C56	C	1.635786	-0.132958	-0.420214
N57	N	1.686919	-0.186356	-0.464440
C58	C	1.672354	-0.341603	0.352334
N59	N	1.737032	-0.374421	0.417068
H60	H	1.650088	-0.669697	0.330026
H61	H	1.366808	-0.330333	0.046541
C62	C	1.344475	-0.175240	0.024201
N63	N	1.279785	-0.142425	-0.040524
C64	C	1.246068	0.000075	-0.372236
N65	N	1.140661	0.000113	-0.397093
H66	H	1.650025	-0.186518	0.330011
C67	C	1.672402	-0.824781	0.352364
N68	N	1.737052	-0.857595	0.417131
H69	H	1.366867	-0.813512	0.046551
H70	H	0.915209	0.114511	0.298026
C71	C	1.344529	-0.658424	0.024229
N72	N	1.279839	-0.625609	-0.040496
H73	H	1.734354	0.000054	-0.259500
H74	H	0.915141	-0.114567	0.298019
H75	H	1.398763	-0.114537	-0.218414
