data_functionalizedCrystal
_audit_creation_method	'MofGen! by Chris Wilmer'
_symmetry_space_group_name_H-M	'P1'
_symmetry_Int_Tables_number	1
_symmetry_cell_setting	triclinic
loop_
_symmetry_equiv_pos_as_xyz
  x,y,z
_cell_length_a	27.732064
_cell_length_b	27.732048
_cell_length_c	14.421503
_cell_angle_alpha	89.999321
_cell_angle_beta	90.000074
_cell_angle_gamma	82.646040
loop_
_atom_site_label
_atom_site_type_symbol
_atom_site_fract_x
_atom_site_fract_y
_atom_site_fract_z
O1	O	0.640925	0.057548	-0.076956
O2	O	1.140925	0.557548	0.423044
O3	O	0.500133	0.066286	-0.076996
O4	O	1.000133	0.566286	0.423004
O5	O	0.574901	-0.008479	-0.076957
O6	O	1.074901	0.491521	0.423043
O7	O	0.566156	0.132313	-0.076995
O8	O	1.066156	0.632313	0.423005
O9	O	0.574889	-0.008468	0.077266
O10	O	1.074889	0.491532	0.577266
O11	O	0.500120	0.066297	0.077228
O12	O	1.000120	0.566297	0.577228
O13	O	0.640912	0.057560	0.077267
O14	O	1.140912	0.557560	0.577267
Cu15	Cu	0.570515	0.061929	0.091329
Cu16	Cu	1.070515	0.561929	0.591329
Cu17	Cu	0.570530	0.061916	-0.091058
Cu18	Cu	1.070530	0.561916	0.408942
O19	O	0.566144	0.132325	0.077229
O20	O	1.066144	0.632325	0.577229
C21	C	0.482120	0.066106	0.000111
C22	C	0.982120	0.566106	0.500111
C23	C	0.428465	0.065551	0.000097
C24	C	0.928465	0.565551	0.500097
C25	C	0.051392	0.017583	0.000163
C26	C	0.551392	0.517583	0.500163
C27	C	0.253053	0.019630	0.000138
C28	C	0.753053	0.519630	0.500138
O29	O	0.284305	-0.017591	0.000183
O30	O	0.784305	0.482409	0.500183
N31	N	0.272180	0.063964	0.000122
N32	N	0.772180	0.563964	0.500122
C33	C	0.240889	0.107790	0.000118
C34	C	0.740889	0.607790	0.500118
O35	O	0.261785	0.145546	0.000114
O36	O	0.761785	0.645546	0.500114
C37	C	0.039230	0.105743	0.000149
C38	C	0.539230	0.605743	0.500149
C39	C	0.020105	0.061406	0.000156
C40	C	0.520105	0.561406	0.500156
C41	C	0.032267	-0.026750	0.000170
C42	C	0.532267	0.473250	0.500170
C43	C	-0.018145	-0.027261	0.000171
C44	C	0.481855	0.472739	0.500171
C45	C	-0.049432	0.016561	0.000165
C46	C	0.450568	0.516561	0.500165
C47	C	-0.030307	0.060895	0.000157
C48	C	0.469693	0.560895	0.500157
C49	C	0.007940	0.149568	0.000152
C50	C	0.507940	0.649568	0.500152
C51	C	-0.042478	0.149053	0.000163
C52	C	0.457522	0.649053	0.500163
C53	C	-0.061602	0.104716	0.000169
C54	C	0.438398	0.604716	0.500169
C55	C	-0.112006	0.104206	0.000152
C56	C	0.387994	0.604206	0.500152
N57	N	-0.131134	0.059872	0.000168
N58	N	0.368866	0.559872	0.500168
C59	C	-0.099846	0.016049	0.000174
C60	C	0.400154	0.516049	0.500174
C61	C	0.346763	0.108861	0.000100
C62	C	0.846763	0.608861	0.500100
C63	C	0.397178	0.109373	0.000090
C64	C	0.897178	0.609373	0.500090
C65	C	0.409338	0.021213	0.000112
C66	C	0.909338	0.521213	0.500112
C67	C	0.358923	0.020701	0.000115
C68	C	0.858923	0.520701	0.500115
C69	C	0.327636	0.064527	0.000116
C70	C	0.827636	0.564527	0.500116
C71	C	-0.205716	0.014979	0.000176
C72	C	0.294284	0.514979	0.500176
C73	C	-0.256133	0.014472	0.000173
C74	C	0.243867	0.514472	0.500173
C75	C	-0.268289	0.102632	0.000156
C76	C	0.231711	0.602632	0.500156
C77	C	-0.217876	0.103140	0.000154
C78	C	0.282124	0.603140	0.500154
C79	C	-0.186590	0.059309	0.000167
C80	C	0.313410	0.559309	0.500167
O81	O	-0.143287	0.141407	0.000118
O82	O	0.356713	0.641407	0.500118
O83	O	-0.120752	-0.021701	0.000200
O84	O	0.379248	0.478299	0.500200
C85	C	0.101804	0.018094	0.000162
C86	C	0.601804	0.518094	0.500162
C87	C	0.120930	0.062428	0.000154
C88	C	0.620930	0.562428	0.500154
C89	C	0.089642	0.106250	0.000147
C90	C	0.589642	0.606250	0.500147
C91	C	0.171344	0.062940	0.000144
C92	C	0.671344	0.562940	0.500144
C93	C	0.202631	0.019117	0.000151
C94	C	0.702631	0.519117	0.500151
C95	C	0.183504	-0.025217	0.000167
C96	C	0.683504	0.474783	0.500167
C97	C	0.133092	-0.025728	0.000168
C98	C	0.633092	0.474272	0.500168
C99	C	0.108770	0.150585	0.000131
C100	C	0.608770	0.650585	0.500131
C101	C	0.159183	0.151092	0.000129
C102	C	0.659183	0.651092	0.500129
C103	C	0.190470	0.107270	0.000136
C104	C	0.690470	0.607270	0.500136
C105	C	0.574712	-0.026481	0.000157
C106	C	1.074712	0.473519	0.500157
C107	C	0.574159	-0.080136	0.000165
C108	C	1.074159	0.419864	0.500165
C109	C	0.614862	-0.418948	0.000129
C110	C	1.114862	0.081052	0.500129
C111	C	0.612811	-0.620608	0.000115
C112	C	1.112811	-0.120608	0.500115
O113	O	0.650032	-0.651862	0.000085
O114	O	1.150032	-0.151862	0.500085
N115	N	0.568476	-0.639735	0.000103
N116	N	1.068476	-0.139735	0.500103
C117	C	0.524651	-0.608442	0.000089
C118	C	1.024651	-0.108442	0.500089
O119	O	0.486895	-0.629338	0.000069
O120	O	0.986895	-0.129338	0.500069
C121	C	0.526703	-0.406784	0.000096
C122	C	1.026703	0.093216	0.500096
C123	C	0.571040	-0.387660	0.000117
C124	C	1.071040	0.112340	0.500117
C125	C	0.659196	-0.399824	0.000148
C126	C	1.159196	0.100176	0.500148
C127	C	0.659709	-0.349412	0.000157
C128	C	1.159709	0.150588	0.500157
C129	C	0.615887	-0.318124	0.000145
C130	C	1.115887	0.181876	0.500145
C131	C	0.571553	-0.337248	0.000125
C132	C	1.071553	0.162752	0.500125
C133	C	0.482878	-0.375493	0.000075
C134	C	0.982878	0.124507	0.500075
C135	C	0.483395	-0.325075	0.000074
C136	C	0.983395	0.174925	0.500074
C137	C	0.527733	-0.305952	0.000095
C138	C	1.027733	0.194048	0.500095
C139	C	0.528243	-0.255548	0.000122
C140	C	1.028243	0.244452	0.500122
N141	N	0.572578	-0.236422	0.000134
N142	N	1.072578	0.263578	0.500134
C143	C	0.616400	-0.267710	0.000145
C144	C	1.116400	0.232290	0.500145
C145	C	0.523577	-0.714317	0.000087
C146	C	1.023577	-0.214317	0.500087
C147	C	0.523064	-0.764731	0.000087
C148	C	1.023064	-0.264731	0.500087
C149	C	0.611225	-0.776893	0.000111
C150	C	1.111225	-0.276893	0.500111
C151	C	0.611737	-0.726478	0.000118
C152	C	1.111737	-0.226478	0.500118
C153	C	0.567912	-0.695190	0.000099
C154	C	1.067912	-0.195190	0.500099
C155	C	0.617472	-0.161841	0.000164
C156	C	1.117472	0.338159	0.500164
C157	C	0.617981	-0.111424	0.000176
C158	C	1.117981	0.388576	0.500176
C159	C	0.529821	-0.099266	0.000147
C160	C	1.029821	0.400734	0.500147
C161	C	0.529312	-0.149679	0.000140
C162	C	1.029312	0.350321	0.500140
C163	C	0.573142	-0.180965	0.000145
C164	C	1.073142	0.319035	0.500145
O165	O	0.491043	-0.224267	0.000142
O166	O	0.991043	0.275733	0.500142
O167	O	0.654151	-0.246805	0.000145
O168	O	1.154151	0.253195	0.500145
C169	C	0.614350	-0.469360	0.000120
C170	C	1.114350	0.030640	0.500120
C171	C	0.570016	-0.488484	0.000100
C172	C	1.070016	0.011516	0.500100
C173	C	0.526194	-0.457196	0.000089
C174	C	1.026194	0.042804	0.500089
C175	C	0.569503	-0.538899	0.000100
C176	C	1.069503	-0.038899	0.500100
C177	C	0.613325	-0.570187	0.000112
C178	C	1.113325	-0.070187	0.500112
C179	C	0.657660	-0.551060	0.000123
C180	C	1.157660	-0.051060	0.500123
C181	C	0.658172	-0.500648	0.000132
C182	C	1.158172	-0.000648	0.500132
C183	C	0.481859	-0.476323	0.000077
C184	C	0.981859	0.023677	0.500077
C185	C	0.481351	-0.526735	0.000070
C186	C	0.981351	-0.026735	0.500070
C187	C	0.525172	-0.558023	0.000081
C188	C	1.025172	-0.058023	0.500081
C189	C	0.658925	0.057739	0.000158
C190	C	1.158925	0.557739	0.500158
C191	C	0.712580	0.058295	0.000167
C192	C	1.212580	0.558295	0.500167
C193	C	0.566333	0.150326	0.000112
C194	C	1.066333	0.650326	0.500112
C195	C	0.566886	0.203981	0.000099
C196	C	1.066886	0.703981	0.500099
N197	N	0.570508	0.061938	0.219611
N198	N	1.070508	0.561938	0.719611
N199	N	0.570540	0.061903	-0.219339
N200	N	1.070540	0.561903	0.280661
C201	C	0.535929	0.096494	0.469246
C202	C	1.035929	0.596494	0.969246
C203	C	0.579538	0.105553	0.531058
C204	C	1.079538	0.605553	1.031058
C205	C	0.570520	0.061926	0.408772
C206	C	1.070520	0.561926	0.908772
C207	C	0.526923	0.052879	0.531054
C208	C	1.026923	0.552879	1.031054
C209	C	0.570528	0.061916	0.591493
C210	C	1.070528	0.561916	1.091493
C211	C	0.614151	0.071007	0.469223
C212	C	1.114151	0.571007	0.969223
C213	C	0.561507	0.018314	0.469213
C214	C	1.061507	0.518314	0.969213
C215	C	0.605147	0.027354	0.530997
C216	C	1.105147	0.527354	1.030997
C217	C	0.570515	0.061934	0.303511
C218	C	1.070515	0.561934	0.803511
C219	C	0.570538	0.061909	0.696752
C220	C	1.070538	0.561909	1.196752
H221	H	0.117526	-0.061832	0.000174
H222	H	0.617526	0.438168	0.500174
C223	C	0.632352	0.149367	0.621154
C224	C	1.132352	0.649367	1.121154
C225	C	0.589839	0.155332	0.567746
C226	C	1.089839	0.655332	1.067746
H227	H	0.638708	0.180100	0.643797
H228	H	1.138708	0.680100	1.143797
H229	H	0.628334	0.128422	0.671910
H230	H	1.128334	0.628422	1.171910
H231	H	0.658847	0.135540	0.583967
H232	H	1.158847	0.635540	1.083967
H233	H	0.563343	0.169156	0.604935
H234	H	1.063343	0.669156	1.104935
H235	H	0.593853	0.176285	0.516983
H236	H	1.093853	0.676285	1.016983
H237	H	0.494142	-0.073782	0.000141
H238	H	0.994142	0.426218	0.500141
C239	C	0.505486	-0.040847	0.463656
C240	C	1.005486	0.459153	0.963656
C241	C	0.551188	-0.031451	0.432500
C242	C	1.051188	0.468549	0.932500
H243	H	0.499111	-0.071568	0.440983
H244	H	0.999111	0.428432	0.940983
H245	H	0.505118	-0.041123	0.529510
H246	H	1.005118	0.458877	1.029510
H247	H	0.481232	-0.016223	0.441588
H248	H	0.981232	0.483777	0.941588
H249	H	0.575442	-0.056073	0.454574
H250	H	1.075442	0.443927	0.954574
H251	H	0.551559	-0.031179	0.366632
H252	H	1.051559	0.468821	0.866632
C253	C	-0.068365	0.224037	-0.079131
C254	C	0.431635	0.724037	0.420869
C255	C	-0.076869	0.197228	0.000156
C256	C	0.423131	0.697228	0.500156
H257	H	-0.089598	0.253776	-0.079138
H258	H	0.410402	0.753776	0.420862
H259	H	-0.035606	0.230683	-0.079125
H260	H	0.464394	0.730683	0.420875
H261	H	-0.074131	0.205834	-0.132902
H262	H	0.425869	0.705834	0.367098
H263	H	-0.071099	0.215429	0.053928
H264	H	0.428901	0.715429	0.553928
H265	H	-0.109635	0.190583	0.000159
H266	H	0.390365	0.690583	0.500159
C267	C	-0.305766	-0.037260	-0.079101
C268	C	0.194234	0.462740	0.420899
C269	C	-0.277152	-0.034267	0.000180
C270	C	0.222848	0.465733	0.500180
H271	H	-0.318738	-0.067351	-0.079097
H272	H	0.181262	0.432649	0.420903
H273	H	-0.331615	-0.011240	-0.079099
H274	H	0.168385	0.488760	0.420901
H275	H	-0.286346	-0.035229	-0.132876
H276	H	0.213654	0.464771	0.367124
H277	H	-0.296573	-0.036295	0.053955
H278	H	0.203427	0.463705	0.553955
H279	H	-0.251300	-0.060295	0.000187
H280	H	0.248700	0.439705	0.500187
H281	H	0.057737	-0.062438	0.000179
H282	H	0.557737	0.437562	0.500179
H283	H	0.343355	-0.015402	0.000121
H284	H	0.843355	0.484598	0.500121
H285	H	0.651031	0.078699	0.442178
H286	H	1.151031	0.578699	0.942178
H287	H	0.208987	-0.060899	0.000167
H288	H	0.708987	0.439101	0.500167
C289	C	0.473095	-0.029361	-0.079155
C290	C	0.973095	0.470639	0.420845
C291	C	0.443736	-0.026958	0.000125
C292	C	0.943736	0.473042	0.500125
H293	H	0.494333	-0.059097	-0.079137
H294	H	0.994333	0.440903	0.420863
H295	H	0.453174	-0.027741	-0.132925
H296	H	0.953174	0.472259	0.367075
H297	H	0.491694	-0.002878	-0.079160
H298	H	0.991694	0.497122	0.420840
H299	H	0.425134	-0.053439	0.000127
H300	H	0.925134	0.446561	0.500127
H301	H	0.463659	-0.028583	0.053909
H302	H	0.963659	0.471417	0.553909
C303	C	0.446822	0.161102	0.079331
C304	C	0.946822	0.661102	0.579331
C305	C	0.418200	0.158107	0.000062
C306	C	0.918200	0.658107	0.500062
H307	H	0.459802	0.191188	0.079310
H308	H	0.959802	0.691188	0.579310
H309	H	0.427411	0.159077	0.133108
H310	H	0.927411	0.659077	0.633108
H311	H	0.472671	0.135074	0.079325
H312	H	0.972671	0.635074	0.579325
H313	H	0.392349	0.184133	0.000071
H314	H	0.892349	0.684133	0.500071
H315	H	0.437613	0.160137	-0.053729
H316	H	0.937613	0.660137	0.446271
C317	C	0.440981	0.078800	0.536533
C318	C	0.940981	0.578800	1.036533
C319	C	0.477147	0.042548	0.567712
C320	C	0.977147	0.542548	1.067712
H321	H	0.410251	0.072421	0.559157
H322	H	0.910251	0.572421	1.059157
H323	H	0.447622	0.109535	0.558625
H324	H	0.947622	0.609535	1.058625
H325	H	0.440537	0.079021	0.470669
H326	H	0.940537	0.579021	0.970669
H327	H	0.477593	0.042329	0.633576
H328	H	0.977593	0.542329	1.133576
H329	H	0.470503	0.011804	0.545625
H330	H	0.970503	0.511804	1.045625
C331	C	0.690280	-0.002528	0.536000
C332	C	1.190280	0.497472	1.036000
C333	C	0.644681	-0.012116	0.567383
C334	C	1.144681	0.487884	1.067383
H335	H	0.714686	-0.026892	0.558470
H336	H	1.214686	0.473108	1.058470
H337	H	0.690662	-0.002563	0.470142
H338	H	1.190662	0.497437	0.970142
H339	H	0.696417	0.028372	0.558118
H340	H	1.196417	0.528372	1.058118
H341	H	0.638542	-0.043015	0.545258
H342	H	1.138542	0.456985	1.045258
H343	H	0.644298	-0.012086	0.633254
H344	H	1.144298	0.487914	1.133254
H345	H	0.023501	0.185672	0.000143
H346	H	0.523501	0.685672	0.500143
H347	H	0.654087	-0.095857	0.000196
H348	H	1.154087	0.404143	0.500196
H349	H	0.506706	0.125750	0.442134
H350	H	1.006706	0.625750	0.942134
C351	C	0.339819	0.196055	0.000068
C352	C	0.839819	0.696055	0.500068
C353	C	0.312377	0.157039	0.000090
C354	C	0.812377	0.657039	0.500090
H355	H	0.318590	0.225797	0.000052
H356	H	0.818590	0.725797	0.500052
H357	H	0.359735	0.194423	0.053844
H358	H	0.859735	0.694423	0.553844
H359	H	0.359736	0.194408	-0.053719
H360	H	0.859736	0.694408	0.446281
H361	H	0.292462	0.158684	0.053881
H362	H	0.792462	0.658684	0.553881
H363	H	0.292452	0.158672	-0.053691
H364	H	0.792452	0.658672	0.446309
H365	H	-0.180248	-0.020712	0.000186
H366	H	0.319752	0.479288	0.500186
H367	H	0.174748	0.187200	0.000117
H368	H	0.674748	0.687200	0.500117
H369	H	0.493209	-0.165249	0.000148
H370	H	0.993209	0.334751	0.500148
C371	C	-0.001046	-0.114349	0.000210
C372	C	0.498954	0.385651	0.500210
C373	C	-0.039162	-0.075999	0.000197
C374	C	0.460838	0.424001	0.500197
H375	H	-0.014019	-0.144439	0.000235
H376	H	0.485981	0.355561	0.500235
H377	H	0.018360	-0.112320	-0.053574
H378	H	0.518360	0.387680	0.446426
H379	H	0.018367	-0.112302	0.053989
H380	H	0.518367	0.387698	0.553989
H381	H	-0.058573	-0.078044	-0.053586
H382	H	0.441427	0.421956	0.446414
H383	H	-0.058575	-0.078029	0.053986
H384	H	0.441425	0.421971	0.553986
H385	H	-0.202304	0.139243	0.000148
H386	H	0.297696	0.639243	0.500148
H387	H	-0.293772	0.138311	0.000147
H388	H	0.206228	0.638311	0.500147
C389	C	0.709905	-0.451015	-0.079131
C390	C	1.209905	0.048985	0.420869
C391	C	0.706909	-0.479631	0.000146
C392	C	1.206909	0.020369	0.500146
H393	H	0.739994	-0.438040	-0.079118
H394	H	1.239994	0.061960	0.420882
H395	H	0.707875	-0.470429	-0.132903
H396	H	1.207875	0.029571	0.367097
H397	H	0.683881	-0.425162	-0.079125
H398	H	1.183881	0.074838	0.420875
H399	H	0.732931	-0.505486	0.000137
H400	H	1.232931	-0.005486	0.500137
H401	H	0.708944	-0.460216	0.053932
H402	H	1.208944	0.039784	0.553932
C403	C	0.101825	0.237775	0.000099
C404	C	0.601825	0.737775	0.500099
C405	C	0.074383	0.198759	0.000116
C406	C	0.574383	0.698759	0.500116
H407	H	0.080596	0.267517	0.000079
H408	H	0.580596	0.767517	0.500079
H409	H	0.121738	0.236144	0.053878
H410	H	0.621738	0.736144	0.553878
H411	H	0.121745	0.236128	-0.053684
H412	H	0.621745	0.736128	0.446316
H413	H	0.054466	0.200404	0.053902
H414	H	0.554466	0.700404	0.553902
H415	H	0.054461	0.200391	-0.053670
H416	H	0.554461	0.700391	0.446330
C417	C	0.708227	-0.614811	-0.079157
C418	C	1.208227	-0.114811	0.420843
C419	C	0.705830	-0.585458	0.000130
C420	C	1.205830	-0.085458	0.500130
H421	H	0.737965	-0.636046	-0.079158
H422	H	1.237965	-0.136046	0.420842
H423	H	0.681749	-0.633410	-0.079158
H424	H	1.181749	-0.133410	0.420842
H425	H	0.706599	-0.594883	-0.132928
H426	H	1.206599	-0.094883	0.367072
H427	H	0.707455	-0.605386	0.053901
H428	H	1.207455	-0.105386	0.553901
H429	H	0.732315	-0.566857	0.000139
H430	H	1.232315	-0.066857	0.500139
C431	C	0.704667	-0.168785	0.000202
C432	C	1.204667	0.331215	0.500202
C433	C	0.665650	-0.196226	0.000178
C434	C	1.165650	0.303774	0.500178
H435	H	0.734409	-0.190014	0.000220
H436	H	1.234409	0.309986	0.500220
H437	H	0.703037	-0.148869	-0.053575
H438	H	1.203037	0.351131	0.446425
H439	H	0.703019	-0.148867	0.053987
H440	H	1.203019	0.351133	0.553987
H441	H	0.667296	-0.216141	-0.053612
H442	H	1.167296	0.283859	0.446388
H443	H	0.667281	-0.216150	0.053960
H444	H	1.167281	0.283850	0.553960
H445	H	0.486960	-0.780296	0.000086
H446	H	0.986960	-0.280296	0.500086
H447	H	0.695813	-0.333847	0.000170
H448	H	1.195813	0.166153	0.500170
C449	C	0.698826	-0.743575	0.000136
C450	C	1.198826	-0.243575	0.500136
C451	C	0.660474	-0.705460	0.000127
C452	C	1.160474	-0.205460	0.500127
H453	H	0.728915	-0.730600	0.000133
H454	H	1.228915	-0.230600	0.500133
H455	H	0.696788	-0.762981	0.053916
H456	H	1.196788	-0.262981	0.553916
H457	H	0.696789	-0.762988	-0.053647
H458	H	1.196789	-0.262988	0.446353
H459	H	0.662509	-0.686049	0.053913
H460	H	1.162509	-0.186049	0.553913
H461	H	0.662513	-0.686046	-0.053659
H462	H	1.162513	-0.186046	0.446341
H463	H	0.694883	-0.425295	0.000154
H464	H	1.194883	0.074705	0.500154
H465	H	0.646906	-0.802377	0.000121
H466	H	1.146906	-0.302377	0.500121
C467	C	0.436383	-0.707370	0.000077
C468	C	0.936383	-0.207370	0.500077
C469	C	0.475400	-0.679929	0.000080
C470	C	0.975400	-0.179929	0.500080
H471	H	0.406641	-0.686141	0.000082
H472	H	0.906641	-0.186141	0.500082
H473	H	0.438021	-0.727284	-0.053703
H474	H	0.938021	-0.227284	0.446297
H475	H	0.438023	-0.727289	0.053860
H476	H	0.938023	-0.227289	0.553860
H477	H	0.473763	-0.660012	-0.053707
H478	H	0.973763	-0.160012	0.446293
H479	H	0.473761	-0.660006	0.053865
H480	H	0.973761	-0.160006	0.553865
H481	H	0.447706	-0.299603	0.000057
H482	H	0.947706	0.200397	0.500057
C483	C	0.395791	-0.358386	0.000023
C484	C	0.895791	0.141614	0.500023
C485	C	0.434140	-0.396504	0.000044
C486	C	0.934140	0.103496	0.500044
H487	H	0.365700	-0.371357	-0.000003
H488	H	0.865700	0.128643	0.499997
H489	H	0.397820	-0.338979	0.053806
H490	H	0.897820	0.161021	0.553806
H491	H	0.397841	-0.338974	-0.053757
H492	H	0.897841	0.161026	0.446243
H493	H	0.432092	-0.415913	0.053828
H494	H	0.932092	0.084087	0.553828
H495	H	0.432110	-0.415918	-0.053744
H496	H	0.932110	0.084082	0.446256
C497	C	0.406058	-0.531876	-0.079249
C498	C	0.906058	-0.031876	0.420751
C499	C	0.432610	-0.547752	0.000044
C500	C	0.932610	-0.047752	0.500044
H501	H	0.375970	-0.544853	-0.079272
H502	H	0.875970	-0.044853	0.420728
H503	H	0.400097	-0.497378	-0.079235
H504	H	0.900097	0.002622	0.420765
H505	H	0.424098	-0.542640	-0.133016
H506	H	0.924098	-0.042640	0.366984
H507	H	0.414572	-0.536986	0.053811
H508	H	0.914572	-0.036986	0.553811
H509	H	0.438570	-0.582258	0.000038
H510	H	0.938570	-0.082258	0.500038
H511	H	0.446173	-0.450852	0.000066
H512	H	0.946173	0.049148	0.500066
