data_functionalizedCrystal
_audit_creation_method	'MofGen! by Chris Wilmer'
_symmetry_space_group_name_H-M	'P1'
_symmetry_Int_Tables_number	1
_symmetry_cell_setting	triclinic
loop_
_symmetry_equiv_pos_as_xyz
  x,y,z
_cell_length_a	19.188930
_cell_length_b	23.532407
_cell_length_c	17.666332
_cell_angle_alpha	89.988854
_cell_angle_beta	89.976766
_cell_angle_gamma	82.996728
loop_
_atom_site_label
_atom_site_type_symbol
_atom_site_fract_x
_atom_site_fract_y
_atom_site_fract_z
O1	O	0.925923	0.071102	-0.063199
O2	O	1.425923	0.571102	0.436801
O3	O	0.722581	0.080673	-0.063148
O4	O	1.222581	0.580673	0.436852
O5	O	0.830384	-0.007031	-0.063161
O6	O	1.330384	0.492969	0.436839
O7	O	0.818120	0.158806	-0.063186
O8	O	1.318120	0.658806	0.436814
O9	O	0.830365	-0.007036	0.062735
O10	O	1.330365	0.492964	0.562735
O11	O	0.722562	0.080669	0.062748
O12	O	1.222562	0.580669	0.562748
O13	O	0.925904	0.071097	0.062697
O14	O	1.425904	0.571097	0.562697
Cu15	Cu	0.824231	0.075883	0.074218
Cu16	Cu	1.324231	0.575883	0.574218
Cu17	Cu	0.824253	0.075888	-0.074669
Cu18	Cu	1.324253	0.575888	0.425331
O19	O	0.818101	0.158802	0.062711
O20	O	1.318101	0.658802	0.562711
C21	C	0.696561	0.080361	-0.000193
C22	C	1.196561	0.580361	0.499807
C23	C	0.619060	0.079431	-0.000173
C24	C	1.119060	0.579431	0.499827
C25	C	0.573972	0.130893	-0.000193
C26	C	1.073972	0.630893	0.499807
C27	C	0.501151	0.130019	-0.000201
C28	C	1.001151	0.630019	0.499799
C29	C	0.473421	0.077680	-0.000205
C30	C	0.973421	0.577680	0.499795
C31	C	0.518519	0.026211	-0.000181
C32	C	1.018519	0.526211	0.499819
C33	C	0.591339	0.027086	-0.000165
C34	C	1.091339	0.527086	0.499835
N35	N	0.365575	0.037674	-0.043078
N36	N	0.865575	0.537674	0.456922
N37	N	0.296399	0.036846	-0.043094
N38	N	0.796399	0.536846	0.456906
C39	C	0.254021	0.075038	-0.000251
C40	C	0.754021	0.575038	0.499749
N41	N	0.283431	0.114099	0.042600
N42	N	0.783431	0.614099	0.542600
N43	N	0.352613	0.114929	0.042614
N44	N	0.852613	0.614929	0.542614
C45	C	0.394462	0.076724	-0.000222
C46	C	0.894462	0.576724	0.499778
C47	C	0.129971	0.125556	-0.000278
C48	C	0.629971	0.625556	0.499722
C49	C	0.057149	0.124680	-0.000282
C50	C	0.557149	0.624680	0.499718
C51	C	0.074520	0.020870	-0.000269
C52	C	0.574520	0.520870	0.499731
C53	C	0.147340	0.021748	-0.000258
C54	C	0.647340	0.521748	0.499742
C55	C	0.175061	0.074092	-0.000266
C56	C	0.675061	0.574092	0.499734
C57	C	0.830062	-0.028250	-0.000211
C58	C	1.330062	0.471750	0.499789
C59	C	0.829123	-0.091469	-0.000205
C60	C	1.329123	0.408531	0.499795
C61	C	0.887029	-0.490449	-0.000261
C62	C	1.387029	0.009551	0.499739
C63	C	0.886157	-0.549851	-0.000267
C64	C	1.386157	-0.049851	0.499733
O65	O	0.939837	-0.586482	-0.000308
O66	O	1.439837	-0.086482	0.499692
N67	N	0.822068	-0.572613	-0.000250
N68	N	1.322068	-0.072613	0.499750
C69	C	0.758848	-0.535970	-0.000236
C70	C	1.258848	-0.035970	0.499764
O71	O	0.704255	-0.560786	-0.000223
O72	O	1.204255	-0.060786	0.499777
C73	C	0.759721	-0.476569	-0.000235
C74	C	1.259721	0.023431	0.499765
C75	C	0.823814	-0.453810	-0.000244
C76	C	1.323814	0.046190	0.499756
C77	C	0.951117	-0.467690	-0.000271
C78	C	1.451117	0.032310	0.499729
C79	C	0.951989	-0.408292	-0.000264
C80	C	1.451989	0.091708	0.499736
C81	C	0.888773	-0.371653	-0.000247
C82	C	1.388773	0.128347	0.499753
C83	C	0.824685	-0.394412	-0.000237
C84	C	1.324685	0.105588	0.499763
C85	C	0.696501	-0.439927	-0.000226
C86	C	1.196501	0.060073	0.499774
C87	C	0.697379	-0.380523	-0.000227
C88	C	1.197379	0.119477	0.499773
C89	C	0.761472	-0.357764	-0.000236
C90	C	1.261472	0.142236	0.499764
C91	C	0.762342	-0.298376	-0.000214
C92	C	1.262342	0.201624	0.499786
N93	N	0.826430	-0.275614	-0.000230
N94	N	1.326430	0.224386	0.499770
C95	C	0.889646	-0.312252	-0.000247
C96	C	1.389646	0.187748	0.499753
C97	C	0.757019	-0.660717	-0.000237
C98	C	1.257019	-0.160717	0.499763
C99	C	0.756146	-0.720116	-0.000232
C100	C	1.256146	-0.220116	0.499768
C101	C	0.883455	-0.733993	-0.000264
C102	C	1.383455	-0.233993	0.499736
C103	C	0.884328	-0.674592	-0.000264
C104	C	1.384328	-0.174592	0.499736
C105	C	0.821108	-0.637954	-0.000254
C106	C	1.321108	-0.137954	0.499746
C107	C	0.891472	-0.187512	-0.000232
C108	C	1.391472	0.312488	0.499768
C109	C	0.892339	-0.128108	-0.000222
C110	C	1.392339	0.371892	0.499778
C111	C	0.765029	-0.114236	-0.000193
C112	C	1.265029	0.385764	0.499807
C113	C	0.764163	-0.173634	-0.000199
C114	C	1.264163	0.326366	0.499801
C115	C	0.827390	-0.210272	-0.000221
C116	C	1.327390	0.289728	0.499779
O117	O	0.708690	-0.261710	-0.000176
O118	O	1.208690	0.238290	0.499824
O119	O	0.944230	-0.287428	-0.000270
O120	O	1.444230	0.212572	0.499730
C121	C	0.951923	0.071410	-0.000259
C122	C	1.451923	0.571410	0.499741
C123	C	1.029425	0.072340	-0.000284
C124	C	1.529425	0.572340	0.499716
C125	C	0.818423	0.180021	-0.000241
C126	C	1.318423	0.680021	0.499759
C127	C	0.819362	0.243240	-0.000252
C128	C	1.319362	0.743240	0.499748
N129	N	0.824221	0.075878	0.178938
N130	N	1.324221	0.575878	0.678938
N131	N	0.824270	0.075888	-0.179389
N132	N	1.324270	0.575888	0.320611
C133	C	0.871971	0.037062	0.218542
C134	C	1.371971	0.537062	0.718542
C135	C	0.871975	0.037059	0.297789
C136	C	1.371975	0.537059	0.797789
C137	C	0.824236	0.075883	0.337430
C138	C	1.324236	0.575883	0.837430
C139	C	0.776476	0.114702	0.297816
C140	C	1.276476	0.614702	0.797816
C141	C	0.776469	0.114700	0.218570
C142	C	1.276469	0.614700	0.718570
N143	N	0.814998	0.126298	0.461842
N144	N	1.314998	0.626298	0.961842
N145	N	0.815010	0.126298	0.537123
N146	N	1.315010	0.626298	1.037123
C147	C	0.824254	0.075891	0.576194
C148	C	1.324254	0.575891	1.076194
N149	N	0.833500	0.025481	0.537141
N150	N	1.333500	0.525481	1.037141
N151	N	0.833493	0.025482	0.461853
N152	N	1.333493	0.525482	0.961853
C153	C	0.824238	0.075889	0.423359
C154	C	1.324238	0.575889	0.923359
C155	C	0.872011	0.037068	0.701727
C156	C	1.372011	0.537068	1.201727
C157	C	0.872010	0.037064	0.780976
C158	C	1.372010	0.537064	1.280976
C159	C	0.776515	0.114713	0.781002
C160	C	1.276515	0.614713	1.281002
C161	C	0.776512	0.114711	0.701754
C162	C	1.276512	0.614711	1.201754
C163	C	0.824264	0.075889	0.662122
C164	C	1.324264	0.575889	1.162122
H165	H	0.020438	0.166588	-0.000293
H166	H	0.520438	0.666588	0.499707
O167	O	0.730106	0.152478	0.663396
O168	O	1.230106	0.652478	1.163396
C169	C	0.687957	0.186735	0.715374
C170	C	1.187957	0.686735	1.215374
H171	H	0.716581	0.187322	0.771848
H172	H	1.216581	0.687322	1.271848
H173	H	0.676986	0.232239	0.692468
H174	H	1.176986	0.732239	1.192468
H175	H	0.636223	0.168348	0.723835
H176	H	1.136223	0.668348	1.223835
O177	O	0.954558	-0.105934	-0.000335
O178	O	1.454558	0.394066	0.499665
C179	C	0.958890	-0.071988	-0.065545
C180	C	1.458890	0.428012	0.434455
H181	H	0.903758	-0.057057	-0.087267
H182	H	1.403758	0.442943	0.412733
H183	H	0.986446	-0.033160	-0.050884
H184	H	1.486446	0.466840	0.449116
H185	H	0.989970	-0.098299	-0.111213
H186	H	1.489970	0.401701	0.388787
O187	O	0.918321	-0.000707	0.663231
O188	O	1.418321	0.499293	1.163231
C189	C	0.907404	-0.057075	0.682594
C190	C	1.407404	0.442925	1.182594
H191	H	0.851518	-0.057262	0.704424
H192	H	1.351518	0.442738	1.204424
H193	H	0.915625	-0.085650	0.630460
H194	H	1.415625	0.414350	1.130460
H195	H	0.946240	-0.073892	0.728555
H196	H	1.446240	0.426108	1.228555
O197	O	0.918425	-0.000566	0.819535
O198	O	1.418425	0.499434	1.319535
C199	C	0.961293	0.029852	0.865330
C200	C	1.461293	0.529852	1.365330
H201	H	0.933169	0.074472	0.877202
H202	H	1.433169	0.574472	1.377202
H203	H	0.972509	0.006060	0.921058
H204	H	1.472509	0.506060	1.421058
H205	H	1.012863	0.033622	0.834763
H206	H	1.512863	0.533622	1.334763
H207	H	0.644310	-0.458446	-0.000224
H208	H	1.144310	0.041554	0.499776
O209	O	0.156941	0.176385	-0.000408
O210	O	0.656941	0.676385	0.499592
C211	C	0.198591	0.179998	-0.065593
C212	C	0.698591	0.679998	0.434407
H213	H	0.181596	0.150287	-0.111171
H214	H	0.681596	0.650287	0.388829
H215	H	0.191751	0.225916	-0.087478
H216	H	0.691751	0.725916	0.412522
H217	H	0.256105	0.166713	-0.050840
H218	H	0.756105	0.666713	0.449160
O219	O	0.491552	-0.024617	-0.000321
O220	O	0.991552	0.475383	0.499679
C221	C	0.449975	-0.028221	-0.065525
C222	C	0.949975	0.471779	0.434475
H223	H	0.467019	0.001497	-0.111097
H224	H	0.967019	0.501497	0.388903
H225	H	0.456841	-0.074136	-0.087405
H226	H	0.956841	0.425864	0.412595
H227	H	0.392445	-0.014940	-0.050800
H228	H	0.892445	0.485060	0.449200
O229	O	0.047676	-0.030009	-0.000373
O230	O	0.547676	0.469991	0.499627
C231	C	0.070774	-0.061361	-0.065578
C232	C	0.570774	0.438639	0.434422
H233	H	0.121187	-0.045965	-0.087309
H234	H	0.621187	0.454035	0.412691
H235	H	0.081204	-0.108814	-0.050907
H236	H	0.581204	0.391186	0.449093
H237	H	0.028610	-0.054659	-0.111244
H238	H	0.528610	0.445341	0.388756
H239	H	0.910852	0.005450	0.186275
H240	H	1.410852	0.505450	0.686275
O241	O	0.701950	-0.195815	-0.000285
O242	O	1.201950	0.304185	0.499715
C243	C	0.697640	-0.229731	-0.065504
C244	C	1.197640	0.270269	0.434496
H245	H	0.752779	-0.244649	-0.087257
H246	H	1.252779	0.255351	0.412743
H247	H	0.670084	-0.268569	-0.050843
H248	H	1.170084	0.231431	0.449157
H249	H	0.666571	-0.203402	-0.111150
H250	H	1.166571	0.296598	0.388850
O251	O	0.457314	0.179996	-0.000091
O252	O	0.957314	0.679996	0.499909
C253	C	0.414620	0.182593	0.065090
C254	C	0.914620	0.682593	0.565090
H255	H	0.441466	0.153407	0.110679
H256	H	0.941466	0.653407	0.610679
H257	H	0.406098	0.228490	0.086961
H258	H	0.906098	0.728490	0.586961
H259	H	0.361775	0.167982	0.050338
H260	H	0.861775	0.667982	0.550338
O261	O	1.012484	-0.503334	-0.000185
O262	O	1.512484	-0.003334	0.499815
C263	C	1.015791	-0.538107	0.065028
C264	C	1.515791	-0.038107	0.565028
H265	H	0.960392	-0.540991	0.086776
H266	H	1.460392	-0.040991	0.586776
H267	H	1.042131	-0.582810	0.050360
H268	H	1.542131	-0.082810	0.550360
H269	H	1.047525	-0.518638	0.110679
H270	H	1.547525	-0.018638	0.610679
O271	O	0.918266	-0.000703	0.336309
O272	O	1.418266	0.499297	0.836309
C273	C	0.881128	-0.035751	0.382197
C274	C	1.381128	0.464249	0.882197
H275	H	0.826076	-0.036611	0.358342
H276	H	1.326076	0.463389	0.858342
H277	H	0.909936	-0.081074	0.383105
H278	H	1.409936	0.418926	0.883105
H279	H	0.877342	-0.017912	0.442249
H280	H	1.377342	0.482088	0.942249
O281	O	0.730110	0.152348	0.819582
O282	O	1.230110	0.652348	1.319582
C283	C	0.687243	0.121934	0.865437
C284	C	1.187243	0.621934	1.365437
H285	H	0.715364	0.077313	0.877309
H286	H	1.215364	0.577313	1.377309
H287	H	0.676034	0.145729	0.921162
H288	H	1.176034	0.645729	1.421162
H289	H	0.635669	0.118167	0.834923
H290	H	1.135669	0.618167	1.334923
O291	O	0.946649	-0.652582	-0.000314
O292	O	1.446649	-0.152582	0.499686
C293	C	1.002252	-0.697665	-0.000307
C294	C	1.502252	-0.197665	0.499693
H295	H	0.982966	-0.737968	-0.024134
H296	H	1.482966	-0.237968	0.475866
H297	H	1.047030	-0.685357	-0.036872
H298	H	1.547030	-0.185357	0.463128
H299	H	1.021723	-0.706123	0.060087
H300	H	1.521723	-0.206123	0.560087
O301	O	0.703644	-0.078615	-0.000313
O302	O	1.203644	0.421385	0.499687
C303	C	0.700372	-0.043822	-0.065506
C304	C	1.200372	0.456178	0.434494
H305	H	0.736238	-0.065660	-0.111083
H306	H	1.236238	0.434340	0.388917
H307	H	0.644089	-0.036999	-0.087386
H308	H	1.144089	0.463001	0.412614
H309	H	0.718140	-0.000673	-0.050765
H310	H	1.218140	0.499327	0.449235
H311	H	0.596537	0.173516	-0.000201
H312	H	1.096537	0.673516	0.499799
H313	H	0.628050	-0.014822	-0.000150
H314	H	1.128050	0.485178	0.499850
H315	H	0.184052	-0.020158	-0.000246
H316	H	0.684052	0.479842	0.499754
O317	O	0.952954	-0.223014	-0.000217
O318	O	1.452954	0.276986	0.499783
C319	C	1.009699	-0.190178	-0.000242
C320	C	1.509699	0.309822	0.499758
H321	H	0.991646	-0.145806	0.023599
H322	H	1.491646	0.354194	0.523599
H323	H	1.053963	-0.212194	0.036300
H324	H	1.553963	0.287806	0.536300
H325	H	1.029375	-0.185981	-0.060644
H326	H	1.529375	0.314019	0.439356
H327	H	1.004180	-0.389768	-0.000274
H328	H	1.504180	0.110232	0.499726
H329	H	0.934929	-0.763836	-0.000281
H330	H	1.434929	-0.263836	0.499719
O331	O	0.693824	-0.742126	-0.000248
O332	O	1.193824	-0.242126	0.499752
C333	C	0.638221	-0.697043	-0.000211
C334	C	1.138221	-0.197043	0.499789
H335	H	0.657514	-0.656732	-0.024046
H336	H	1.157514	-0.156732	0.475954
H337	H	0.593453	-0.709340	-0.036754
H338	H	1.093453	-0.209340	0.463246
H339	H	0.618734	-0.688602	0.060193
H340	H	1.118734	-0.188602	0.560193
H341	H	0.645897	-0.350694	-0.000220
H342	H	1.145897	0.149306	0.499780
O343	O	0.695648	-0.625070	-0.000116
O344	O	1.195648	-0.125070	0.499884
C345	C	0.692323	-0.590315	0.065099
C346	C	1.192323	-0.090315	0.565099
H347	H	0.747716	-0.587438	0.086822
H348	H	1.247716	-0.087438	0.586822
H349	H	0.665990	-0.545607	0.050444
H350	H	1.165990	-0.045607	0.550444
H351	H	0.660573	-0.609794	0.110765
H352	H	1.160573	-0.109794	0.610765
H353	H	0.737605	0.146312	0.330096
H354	H	1.237605	0.646312	0.830096
H355	H	0.737584	0.146310	0.186324
H356	H	1.237584	0.646310	0.686324
