data_functionalizedCrystal
_audit_creation_method	'MofGen! by Chris Wilmer'
_symmetry_space_group_name_H-M	'P1'
_symmetry_Int_Tables_number	1
_symmetry_cell_setting	triclinic
loop_
_symmetry_equiv_pos_as_xyz
  x,y,z
_cell_length_a	25.639242
_cell_length_b	29.839131
_cell_length_c	25.639233
_cell_angle_alpha	89.980415
_cell_angle_beta	89.977834
_cell_angle_gamma	90.036947
loop_
_atom_site_label
_atom_site_type_symbol
_atom_site_fract_x
_atom_site_fract_y
_atom_site_fract_z
Zn1	Zn	0.799215	-0.178962	-0.295739
Zn2	Zn	1.132548	0.154372	0.037594
Zn3	Zn	1.465882	0.487705	0.370927
Zn4	Zn	0.799134	-0.254076	-0.208302
Zn5	Zn	1.132468	0.079257	0.125031
Zn6	Zn	1.465801	0.412591	0.458364
Zn7	Zn	0.711791	-0.178955	-0.208303
Zn8	Zn	1.045125	0.154378	0.125030
Zn9	Zn	1.378458	0.487712	0.458363
Zn10	Zn	0.711732	-0.254059	-0.295692
Zn11	Zn	1.045066	0.079274	0.037641
Zn12	Zn	1.378399	0.412607	0.370975
O13	O	0.755468	-0.216513	-0.252009
O14	O	1.088802	0.116820	0.081324
O15	O	1.422135	0.450154	0.414657
O16	O	0.872370	-0.188935	-0.284160
O17	O	1.205703	0.144398	0.049174
O18	O	1.539036	0.477731	0.382507
O19	O	0.787539	-0.244115	-0.135137
O20	O	1.120872	0.089218	0.198196
O21	O	1.454206	0.422551	0.531530
O22	O	0.723447	-0.116089	-0.219922
O23	O	1.056780	0.217245	0.113411
O24	O	1.390114	0.550578	0.446745
O25	O	0.872310	-0.244122	-0.219920
O26	O	1.205644	0.089212	0.113413
O27	O	1.538977	0.422545	0.446746
O28	O	0.787677	-0.116094	-0.284161
O29	O	1.121010	0.217240	0.049173
O30	O	1.454343	0.550573	0.382506
O31	O	0.723369	-0.188924	-0.135138
O32	O	1.056702	0.144409	0.198195
O33	O	1.390035	0.477742	0.531529
O34	O	0.638618	-0.188908	-0.219876
O35	O	0.971952	0.144425	0.113457
O36	O	1.305285	0.477759	0.446790
O37	O	0.723346	-0.244093	-0.368864
O38	O	1.056680	0.089240	-0.035530
O39	O	1.390013	0.422573	0.297803
O40	O	0.638575	-0.244087	-0.284081
O41	O	0.971908	0.089246	0.049253
O42	O	1.305242	0.422580	0.382586
O43	O	0.787619	-0.188919	-0.368898
O44	O	1.120953	0.144414	-0.035565
O45	O	1.454286	0.477747	0.297769
O46	O	0.787482	-0.316941	-0.219875
O47	O	1.120815	0.016392	0.113459
O48	O	1.454149	0.349726	0.446792
O49	O	0.723268	-0.316929	-0.284080
O50	O	1.056601	0.016405	0.049254
O51	O	1.389935	0.349738	0.382587
C52	C	0.619626	-0.216495	-0.251974
C53	C	0.952959	0.116838	0.081360
C54	C	1.286292	0.450171	0.414693
C55	C	0.561512	-0.216499	-0.251971
C56	C	0.894845	0.116835	0.081362
C57	C	1.228178	0.450168	0.414696
C58	C	0.755374	-0.333236	-0.251983
C59	C	1.088707	0.000098	0.081350
C60	C	1.422041	0.333431	0.414683
C61	C	0.755381	-0.383170	-0.251990
C62	C	1.088715	-0.049837	0.081344
C63	C	1.422048	0.283497	0.414677
C64	C	0.201135	-0.245293	-0.285409
C65	C	0.534468	0.088041	0.047925
C66	C	0.867802	0.421374	0.381258
C67	C	0.146531	-0.245295	-0.285417
C68	C	0.479864	0.088038	0.047916
C69	C	0.813197	0.421371	0.381250
O70	O	0.118282	-0.269755	-0.313817
O71	O	0.451616	0.063578	0.019517
O72	O	0.784949	0.396911	0.352850
N73	N	0.119229	-0.216525	-0.252043
N74	N	0.452563	0.116808	0.081290
N75	N	0.785896	0.450141	0.414623
C76	C	0.146535	-0.187748	-0.218663
C77	C	0.479868	0.145586	0.114670
C78	C	0.813202	0.478919	0.448004
O79	O	0.118299	-0.163276	-0.190277
O80	O	0.451632	0.170057	0.143056
O81	O	0.784966	0.503390	0.476389
C82	C	0.201138	-0.187743	-0.218658
C83	C	0.534472	0.145590	0.114676
C84	C	0.867805	0.478924	0.448009
C85	C	0.228437	-0.216518	-0.252030
C86	C	0.561770	0.116815	0.081303
C87	C	0.895104	0.450149	0.414637
C88	C	0.228434	-0.274065	-0.318778
C89	C	0.561767	0.059268	0.014555
C90	C	0.895100	0.392602	0.347888
C91	C	0.283034	-0.274063	-0.318769
C92	C	0.616367	0.059270	0.014564
C93	C	0.949701	0.392604	0.347897
C94	C	0.310336	-0.245288	-0.285390
C95	C	0.643669	0.088045	0.047943
C96	C	0.977003	0.421379	0.381276
C97	C	0.283037	-0.216516	-0.252021
C98	C	0.616371	0.116818	0.081313
C99	C	0.949704	0.450151	0.414646
C100	C	0.228443	-0.158963	-0.185281
C101	C	0.561776	0.174370	0.148053
C102	C	0.895110	0.507704	0.481386
C103	C	0.283050	-0.158961	-0.185279
C104	C	0.616383	0.174373	0.148055
C105	C	0.949717	0.507706	0.481388
C106	C	0.310349	-0.187736	-0.218651
C107	C	0.643682	0.145598	0.114683
C108	C	0.977015	0.478931	0.448016
C109	C	0.364940	-0.187739	-0.218633
C110	C	0.698273	0.145595	0.114700
C111	C	1.031607	0.478928	0.448034
N112	N	0.392241	-0.216509	-0.252006
N113	N	0.725575	0.116825	0.081327
N114	N	1.058908	0.450158	0.414660
C115	C	0.364939	-0.245283	-0.285385
C116	C	0.698273	0.088050	0.047948
C117	C	1.031606	0.421383	0.381281
C118	C	0.031864	-0.187759	-0.218677
C119	C	0.365198	0.145574	0.114656
C120	C	0.698531	0.478908	0.447989
C121	C	-0.022738	-0.187766	-0.218679
C122	C	0.310595	0.145568	0.114654
C123	C	0.643929	0.478901	0.447987
C124	C	-0.022739	-0.245313	-0.285434
C125	C	0.310595	0.088020	0.047899
C126	C	0.643928	0.421354	0.381233
C127	C	0.031865	-0.245308	-0.285429
C128	C	0.365198	0.088025	0.047904
C129	C	0.698531	0.421358	0.381238
C130	C	0.059166	-0.216529	-0.252051
C131	C	0.392499	0.116804	0.081283
C132	C	0.725832	0.450138	0.414616
C133	C	0.479604	-0.245277	-0.285363
C134	C	0.812938	0.088057	0.047970
C135	C	1.146271	0.421390	0.381303
C136	C	0.534210	-0.245273	-0.285350
C137	C	0.867543	0.088060	0.047984
C138	C	1.200876	0.421393	0.381317
C139	C	0.534206	-0.187724	-0.218597
C140	C	0.867539	0.145609	0.114736
C141	C	1.200872	0.478942	0.448069
C142	C	0.479605	-0.187729	-0.218609
C143	C	0.812938	0.145604	0.114725
C144	C	1.146272	0.478937	0.448058
C145	C	0.452306	-0.216507	-0.251996
C146	C	0.785639	0.116826	0.081337
C147	C	1.118972	0.450160	0.414671
O148	O	0.393223	-0.163290	-0.190249
O149	O	0.726556	0.170043	0.143084
O150	O	1.059890	0.503377	0.476418
O151	O	0.393182	-0.269746	-0.313771
O152	O	0.726515	0.063587	0.019562
O153	O	1.059849	0.396920	0.352896
C154	C	0.788965	-0.692807	-0.218627
C155	C	1.122299	-0.359474	0.114707
C156	C	1.455632	-0.026140	0.448040
C157	C	0.789030	-0.880480	-0.218647
C158	C	1.122363	-0.547147	0.114686
C159	C	1.455696	-0.213814	0.448020
O160	O	0.817509	-0.904740	-0.190260
O161	O	1.150843	-0.571406	0.143073
O162	O	1.484176	-0.238073	0.476406
N163	N	0.755577	-0.903955	-0.252049
N164	N	1.088910	-0.570622	0.081285
N165	N	1.422243	-0.237288	0.414618
C166	C	0.722108	-0.880509	-0.285450
C167	C	1.055441	-0.547176	0.047883
C168	C	1.388774	-0.213842	0.381216
O169	O	0.693659	-0.904782	-0.313865
O170	O	1.026992	-0.571449	0.019469
O171	O	1.360326	-0.238115	0.352802
C172	C	0.722046	-0.692837	-0.285432
C173	C	1.055379	-0.359503	0.047901
C174	C	1.388713	-0.026170	0.381235
C175	C	0.755498	-0.669364	-0.252024
C176	C	1.088831	-0.336031	0.081309
C177	C	1.422164	-0.002698	0.414642
C178	C	0.822415	-0.669335	-0.185222
C179	C	1.155748	-0.336001	0.148111
C180	C	1.489081	-0.002668	0.481445
C181	C	0.822396	-0.622419	-0.185215
C182	C	1.155729	-0.289086	0.148118
C183	C	1.489063	0.044247	0.481451
C184	C	0.788928	-0.598976	-0.218613
C185	C	1.122262	-0.265643	0.114720
C186	C	1.455595	0.067690	0.448054
C187	C	0.755479	-0.622449	-0.252018
C188	C	1.088812	-0.289115	0.081316
C189	C	1.422146	0.044218	0.414649
C190	C	0.688580	-0.669391	-0.318836
C191	C	1.021913	-0.336058	0.014497
C192	C	1.355247	-0.002725	0.347831
C193	C	0.688568	-0.622470	-0.318829
C194	C	1.021902	-0.289137	0.014504
C195	C	1.355235	0.044196	0.347837
C196	C	0.722020	-0.598998	-0.285422
C197	C	1.055353	-0.265664	0.047912
C198	C	1.388687	0.067669	0.381245
C199	C	0.721993	-0.552090	-0.285409
C200	C	1.055326	-0.218757	0.047925
C201	C	1.388660	0.114576	0.381258
N202	N	0.755446	-0.528615	-0.252007
N203	N	1.088779	-0.195282	0.081326
N204	N	1.422113	0.138051	0.414660
C205	C	0.788914	-0.552058	-0.218609
C206	C	1.122247	-0.218725	0.114724
C207	C	1.455580	0.114608	0.448058
C208	C	0.722141	-0.979039	-0.285457
C209	C	1.055475	-0.645706	0.047877
C210	C	1.388808	-0.312373	0.381210
C211	C	0.722156	-1.025957	-0.285461
C212	C	1.055489	-0.692624	0.047873
C213	C	1.388823	-0.359291	0.381206
C214	C	0.789079	-1.025925	-0.218658
C215	C	1.122413	-0.692592	0.114676
C216	C	1.455746	-0.359259	0.448009
C217	C	0.789062	-0.979007	-0.218652
C218	C	1.122395	-0.645673	0.114682
C219	C	1.455728	-0.312340	0.448015
C220	C	0.755595	-0.955565	-0.252055
C221	C	1.088928	-0.622231	0.081279
C222	C	1.422261	-0.288898	0.414612
C223	C	0.788872	-0.453533	-0.218597
C224	C	1.122205	-0.120199	0.114736
C225	C	1.455539	0.213134	0.448070
C226	C	0.788849	-0.406613	-0.218592
C227	C	1.122182	-0.073280	0.114742
C228	C	1.455516	0.260054	0.448075
C229	C	0.721928	-0.406649	-0.285396
C230	C	1.055261	-0.073316	0.047937
C231	C	1.388595	0.260018	0.381270
C232	C	0.721949	-0.453564	-0.285400
C233	C	1.055282	-0.120231	0.047933
C234	C	1.388616	0.213102	0.381267
C235	C	0.755425	-0.477005	-0.251999
C236	C	1.088758	-0.143672	0.081335
C237	C	1.422092	0.189662	0.414668
O238	O	0.693533	-0.527802	-0.313784
O239	O	1.026866	-0.194469	0.019549
O240	O	1.360199	0.138865	0.352882
O241	O	0.817366	-0.527777	-0.190207
O242	O	1.150700	-0.194444	0.143126
O243	O	1.484033	0.138889	0.476460
C244	C	0.788984	-0.739723	-0.218633
C245	C	1.122317	-0.406389	0.114700
C246	C	1.455650	-0.073056	0.448033
C247	C	0.755535	-0.763195	-0.252038
C248	C	1.088868	-0.429862	0.081295
C249	C	1.422201	-0.096528	0.414629
C250	C	0.722067	-0.739752	-0.285436
C251	C	1.055400	-0.406419	0.047898
C252	C	1.388733	-0.073085	0.381231
C253	C	0.755549	-0.810113	-0.252042
C254	C	1.088882	-0.476780	0.081291
C255	C	1.422216	-0.143446	0.414625
C256	C	0.789017	-0.833556	-0.218644
C257	C	1.122350	-0.500223	0.114689
C258	C	1.455684	-0.166889	0.448023
C259	C	0.822470	-0.810081	-0.185242
C260	C	1.155803	-0.476748	0.148091
C261	C	1.489137	-0.143414	0.481424
C262	C	0.822451	-0.763166	-0.185235
C263	C	1.155785	-0.429832	0.148098
C264	C	1.489118	-0.096499	0.481431
C265	C	0.688614	-0.763227	-0.318838
C266	C	1.021947	-0.429894	0.014496
C267	C	1.355280	-0.096560	0.347829
C268	C	0.688635	-0.810143	-0.318841
C269	C	1.021968	-0.476809	0.014492
C270	C	1.355301	-0.143476	0.347825
C271	C	0.722102	-0.833585	-0.285443
C272	C	1.055436	-0.500252	0.047890
C273	C	1.388769	-0.166919	0.381223
C274	C	0.891841	-0.216531	-0.252045
C275	C	1.225175	0.116802	0.081288
C276	C	1.558508	0.450136	0.414622
C277	C	0.949955	-0.216539	-0.252060
C278	C	1.283289	0.116794	0.081273
C279	C	1.616622	0.450128	0.414606
C280	C	0.755485	-0.216505	-0.388382
C281	C	1.088819	0.116828	-0.055049
C282	C	1.422152	0.450162	0.278284
C283	C	0.755492	-0.216502	-0.446496
C284	C	1.088826	0.116832	-0.113163
C285	C	1.422159	0.450165	0.220170
C286	C	0.755577	-0.099335	-0.252047
C287	C	1.088911	0.233999	0.081287
C288	C	1.422244	0.567332	0.414620
C289	C	0.755624	-0.049400	-0.252063
C290	C	1.088957	0.283933	0.081271
C291	C	1.422290	0.617266	0.414604
C292	C	0.789002	-0.187687	-0.806883
C293	C	1.122335	0.145646	-0.473550
C294	C	1.455669	0.478979	-0.140217
C295	C	0.789008	-0.187675	-0.861488
C296	C	1.122342	0.145658	-0.528154
C297	C	1.455675	0.478992	-0.194821
O298	O	0.817457	-0.163229	-0.889744
O299	O	1.150790	0.170105	-0.556411
O300	O	1.484124	0.503438	-0.223078
N301	N	0.755550	-0.216396	-0.888779
N302	N	1.088883	0.116937	-0.555446
N303	N	1.422217	0.450270	-0.222112
C304	C	0.722079	-0.245129	-0.861463
C305	C	1.055413	0.088204	-0.528130
C306	C	1.388746	0.421538	-0.194797
O307	O	0.693621	-0.269558	-0.889691
O308	O	1.026954	0.063776	-0.556358
O309	O	1.360287	0.397109	-0.223024
C310	C	0.722071	-0.245139	-0.806860
C311	C	1.055404	0.088194	-0.473527
C312	C	1.388737	0.421528	-0.140193
C313	C	0.755535	-0.216419	-0.779571
C314	C	1.088868	0.116915	-0.446238
C315	C	1.422202	0.450248	-0.112905
C316	C	0.822463	-0.158969	-0.779594
C317	C	1.155796	0.174364	-0.446261
C318	C	1.489130	0.507698	-0.112928
C319	C	0.822457	-0.158982	-0.724994
C320	C	1.155790	0.174351	-0.391661
C321	C	1.489124	0.507685	-0.058327
C322	C	0.788990	-0.187714	-0.697682
C323	C	1.122323	0.145620	-0.364349
C324	C	1.455657	0.478953	-0.031015
C325	C	0.755529	-0.216432	-0.724971
C326	C	1.088862	0.116901	-0.391637
C327	C	1.422196	0.450235	-0.058304
C328	C	0.688598	-0.273869	-0.779545
C329	C	1.021931	0.059464	-0.446212
C330	C	1.355264	0.392798	-0.112879
C331	C	0.688592	-0.273876	-0.724938
C332	C	1.021925	0.059457	-0.391605
C333	C	1.355258	0.392791	-0.058272
C334	C	0.722056	-0.245156	-0.697650
C335	C	1.055389	0.088177	-0.364316
C336	C	1.388722	0.421511	-0.030983
C337	C	0.722056	-0.245176	-0.643058
C338	C	1.055389	0.088157	-0.309725
C339	C	1.388723	0.421490	0.023608
N340	N	0.755514	-0.216455	-0.615767
N341	N	1.088848	0.116879	-0.282434
N342	N	1.422181	0.450212	0.050900
C343	C	0.788981	-0.187723	-0.643079
C344	C	1.122315	0.145610	-0.309745
C345	C	1.455648	0.478943	0.023588
C346	C	0.722100	-0.245106	-0.976134
C347	C	1.055433	0.088228	-0.642801
C348	C	1.388766	0.421561	-0.309467
C349	C	0.722110	-0.245099	-1.030736
C350	C	1.055444	0.088235	-0.697403
C351	C	1.388777	0.421568	-0.364070
C352	C	0.789039	-0.187644	-1.030757
C353	C	1.122372	0.145690	-0.697423
C354	C	1.455706	0.479023	-0.364090
C355	C	0.789030	-0.187653	-0.976153
C356	C	1.122364	0.145680	-0.642820
C357	C	1.455697	0.479013	-0.309487
C358	C	0.755558	-0.216384	-0.948843
C359	C	1.088891	0.116949	-0.615509
C360	C	1.422224	0.450282	-0.282176
C361	C	0.788967	-0.187753	-0.528414
C362	C	1.122300	0.145580	-0.195080
C363	C	1.455633	0.478913	0.138253
C364	C	0.788959	-0.187770	-0.473808
C365	C	1.122293	0.145563	-0.140475
C366	C	1.455626	0.478896	0.192859
C367	C	0.722029	-0.245223	-0.473793
C368	C	1.055363	0.088110	-0.140459
C369	C	1.388696	0.421443	0.192874
C370	C	0.722038	-0.245208	-0.528393
C371	C	1.055372	0.088125	-0.195060
C372	C	1.388705	0.421458	0.138274
C373	C	0.755509	-0.216470	-0.555702
C374	C	1.088842	0.116864	-0.222369
C375	C	1.422175	0.450197	0.110964
O376	O	0.693620	-0.269609	-0.614767
O377	O	1.026954	0.063725	-0.281433
O378	O	1.360287	0.397058	0.051900
O379	O	0.817430	-0.163295	-0.614845
O380	O	1.150764	0.170039	-0.281511
O381	O	1.484097	0.503372	0.051822
C382	C	0.755482	-0.216488	-0.116167
C383	C	1.088815	0.116845	0.217167
C384	C	1.422148	0.450178	0.550500
C385	C	0.755576	-0.216365	-0.058053
C386	C	1.088909	0.116968	0.275280
C387	C	1.422242	0.450301	0.608614
H388	H	0.556434	-0.268707	-0.312526
H389	H	0.889767	0.064626	0.020808
H390	H	1.223101	0.397960	0.354141
H391	H	0.661328	-0.297268	-0.702705
H392	H	0.994661	0.036065	-0.369371
H393	H	1.327995	0.369399	-0.036038
O394	O	0.656049	-0.740528	-0.351296
O395	O	0.989383	-0.407195	-0.017962
O396	O	1.322716	-0.073861	0.315371
C397	C	0.626540	-0.771313	-0.380784
C398	C	0.959873	-0.437980	-0.047450
C399	C	1.293206	-0.104647	0.285883
H400	H	0.624766	-0.804767	-0.359368
H401	H	0.958099	-0.471434	-0.026035
H402	H	1.291433	-0.138100	0.307298
H403	H	0.585333	-0.757796	-0.386311
H404	H	0.918666	-0.424462	-0.052977
H405	H	1.252000	-0.091129	0.280356
H406	H	0.645657	-0.776271	-0.420516
H407	H	0.978990	-0.442938	-0.087183
H408	H	1.312323	-0.109604	0.246151
O409	O	0.821470	-0.159680	-1.057315
O410	O	1.154804	0.173654	-0.723981
O411	O	1.488137	0.506987	-0.390648
C412	C	0.791726	-0.130664	-1.088902
C413	C	1.125060	0.202669	-0.755569
C414	C	1.458393	0.536002	-0.422235
H415	H	0.750549	-0.127892	-1.072432
H416	H	1.083882	0.205441	-0.739099
H417	H	1.417216	0.538774	-0.405765
H418	H	0.810663	-0.096091	-1.089533
H419	H	1.143996	0.237243	-0.756199
H420	H	1.477329	0.570576	-0.422866
H421	H	0.789916	-0.144546	-1.130282
H422	H	1.123249	0.188787	-0.796949
H423	H	1.456583	0.522121	-0.463616
H424	H	0.694712	-0.472677	-0.312605
H425	H	1.028045	-0.139343	0.020729
H426	H	1.361378	0.193990	0.354062
O427	O	0.854901	-0.131008	-0.806142
O428	O	1.188234	0.202325	-0.472809
O429	O	1.521568	0.535659	-0.139475
C430	C	0.825174	-0.101984	-0.837734
C431	C	1.158508	0.231350	-0.504401
C432	C	1.491841	0.564683	-0.171067
H433	H	0.783992	-0.099207	-0.821278
H434	H	1.117325	0.234126	-0.487945
H435	H	1.450658	0.567459	-0.154611
H436	H	0.844118	-0.067413	-0.838352
H437	H	1.177451	0.265921	-0.505018
H438	H	1.510785	0.599254	-0.171685
H439	H	0.823375	-0.115859	-0.879118
H440	H	1.156708	0.217474	-0.545784
H441	H	1.490042	0.550807	-0.212451
H442	H	0.206210	-0.297497	-0.345962
H443	H	0.539543	0.035836	-0.012629
H444	H	0.872877	0.369170	0.320704
O445	O	-0.049346	-0.273221	-0.317846
O446	O	0.283987	0.060113	0.015487
O447	O	0.617321	0.393446	0.348820
C448	C	-0.103393	-0.267058	-0.310683
C449	C	0.229941	0.066276	0.022650
C450	C	0.563274	0.399609	0.355983
H451	H	-0.110830	-0.232366	-0.293631
H452	H	0.222503	0.100967	0.039703
H453	H	0.555837	0.434300	0.373036
H454	H	-0.124130	-0.270151	-0.349841
H455	H	0.209203	0.063182	-0.016508
H456	H	0.542536	0.396515	0.316825
H457	H	-0.118922	-0.293671	-0.282787
H458	H	0.214412	0.039662	0.050546
H459	H	0.547745	0.372996	0.383879
H460	H	0.305276	-0.135522	-0.158101
H461	H	0.638609	0.197812	0.175233
H462	H	0.971942	0.531145	0.508566
O463	O	0.854871	-0.599672	-0.152695
O464	O	1.188205	-0.266339	0.180639
O465	O	1.521538	0.066995	0.513972
C466	C	0.843480	-0.611160	-0.100573
C467	C	1.176813	-0.277826	0.232760
C468	C	1.510147	0.055507	0.566094
H469	H	0.823386	-0.645238	-0.099473
H470	H	1.156719	-0.311905	0.233860
H471	H	1.490052	0.021428	0.567194
H472	H	0.881233	-0.612752	-0.077175
H473	H	1.214567	-0.279419	0.256159
H474	H	1.547900	0.053915	0.589492
H475	H	0.816611	-0.584779	-0.082924
H476	H	1.149944	-0.251446	0.250409
H477	H	1.483278	0.081888	0.583742
H478	H	0.305256	-0.297494	-0.345945
H479	H	0.638589	0.035840	-0.012612
H480	H	0.971922	0.369173	0.320721
O481	O	0.854924	-0.740417	-0.152713
O482	O	1.188257	-0.407084	0.180621
O483	O	1.521590	-0.073751	0.513954
C484	C	0.843528	-0.751907	-0.100592
C485	C	1.176861	-0.418573	0.232741
C486	C	1.510195	-0.085240	0.566074
H487	H	0.823436	-0.785986	-0.099495
H488	H	1.156769	-0.452653	0.233838
H489	H	1.490103	-0.119320	0.567172
H490	H	0.881279	-0.753497	-0.077190
H491	H	1.214613	-0.420164	0.256143
H492	H	1.547946	-0.086830	0.589477
H493	H	0.816655	-0.725528	-0.082946
H494	H	1.149988	-0.392194	0.250388
H495	H	1.483322	-0.058861	0.583721
O496	O	0.689573	-0.273066	-0.949687
O497	O	1.022906	0.060268	-0.616354
O498	O	1.356240	0.393601	-0.283020
C499	C	0.660039	-0.298404	-0.985489
C500	C	0.993373	0.034929	-0.652156
C501	C	1.326706	0.368262	-0.318823
H502	H	0.681462	-0.299948	-1.024416
H503	H	1.014795	0.033386	-0.691083
H504	H	1.348129	0.366719	-0.357750
H505	H	0.654431	-0.333806	-0.969713
H506	H	0.987765	-0.000472	-0.636380
H507	H	1.321098	0.332861	-0.303046
H508	H	0.620344	-0.281950	-0.991289
H509	H	0.953678	0.051383	-0.657956
H510	H	1.287011	0.384717	-0.324622
O511	O	0.821551	-0.159710	-0.949728
O512	O	1.154884	0.173623	-0.616395
O513	O	1.488218	0.506957	-0.283062
C514	C	0.851100	-0.134361	-0.985550
C515	C	1.184433	0.198973	-0.652217
C516	C	1.517767	0.532306	-0.318884
H517	H	0.829690	-0.132799	-1.024468
H518	H	1.163023	0.200534	-0.691135
H519	H	1.496357	0.533868	-0.357801
H520	H	0.856709	-0.098966	-0.969785
H521	H	1.190042	0.234367	-0.636452
H522	H	1.523375	0.567700	-0.303119
H523	H	0.890794	-0.150817	-0.991364
H524	H	1.224127	0.182516	-0.658030
H525	H	1.557461	0.515850	-0.324697
H526	H	0.694794	-0.268599	-0.550613
H527	H	1.028127	0.064734	-0.217279
H528	H	1.361461	0.398068	0.116054
H529	H	0.556445	-0.164298	-0.191419
H530	H	0.889778	0.169035	0.141914
H531	H	1.223111	0.502368	0.475247
O532	O	0.689713	-1.048735	-0.317984
O533	O	1.023046	-0.715402	0.015349
O534	O	1.356380	-0.382069	0.348683
C535	C	0.701094	-1.037230	-0.370103
C536	C	1.034427	-0.703897	-0.036770
C537	C	1.367761	-0.370563	0.296564
H538	H	0.742858	-1.024301	-0.372784
H539	H	1.076191	-0.690968	-0.039450
H540	H	1.409525	-0.357634	0.293883
H541	H	0.696580	-1.068077	-0.395936
H542	H	1.029914	-0.734743	-0.062602
H543	H	1.363247	-0.401410	0.270731
H544	H	0.673047	-1.010010	-0.383734
H545	H	1.006381	-0.676677	-0.050401
H546	H	1.339714	-0.343344	0.282932
O547	O	0.689684	-0.273051	-1.057263
O548	O	1.023017	0.060282	-0.723930
O549	O	1.356350	0.393615	-0.390596
C550	C	0.719427	-0.302059	-1.088861
C551	C	1.052760	0.031274	-0.755528
C552	C	1.386093	0.364608	-0.422194
H553	H	0.760603	-0.304838	-1.072421
H554	H	1.093936	0.028495	-0.739087
H555	H	1.427270	0.361829	-0.405754
H556	H	0.700488	-0.336631	-1.089464
H557	H	1.033821	-0.003298	-0.756131
H558	H	1.367154	0.330035	-0.422797
H559	H	0.721239	-0.288165	-1.130248
H560	H	1.054573	0.045168	-0.796915
H561	H	1.387906	0.378502	-0.463582
O562	O	0.656165	-0.301820	-0.806064
O563	O	0.989499	0.031514	-0.472731
O564	O	1.322832	0.364847	-0.139398
C565	C	0.685903	-0.330833	-0.837660
C566	C	1.019237	0.002500	-0.504326
C567	C	1.352570	0.335834	-0.170993
H568	H	0.727081	-0.333612	-0.821222
H569	H	1.060414	-0.000279	-0.487889
H570	H	1.393748	0.333055	-0.154556
H571	H	0.666962	-0.365404	-0.838255
H572	H	1.000295	-0.032071	-0.504922
H573	H	1.333629	0.301262	-0.171589
H574	H	0.687714	-0.316944	-0.879050
H575	H	1.021047	0.016389	-0.545716
H576	H	1.354380	0.349722	-0.212383
O577	O	0.453165	-0.159739	-0.186172
O578	O	0.786498	0.173595	0.147162
O579	O	1.119832	0.506928	0.480495
C580	C	0.488974	-0.134352	-0.156697
C581	C	0.822308	0.198982	0.176636
C582	C	1.155641	0.532315	0.509969
H583	H	0.527911	-0.132825	-0.178108
H584	H	0.861245	0.200509	0.155225
H585	H	1.194578	0.533842	0.488558
H586	H	0.473223	-0.098948	-0.151198
H587	H	0.806556	0.234385	0.182135
H588	H	1.139889	0.567719	0.515468
H589	H	0.494745	-0.150753	-0.116952
H590	H	0.828079	0.182581	0.216381
H591	H	1.161412	0.515914	0.549714
H592	H	0.457384	-0.268709	-0.312552
H593	H	0.790717	0.064624	0.020782
H594	H	1.124050	0.397957	0.354115
O595	O	0.689584	-0.273199	-0.447275
O596	O	1.022918	0.060134	-0.113941
O597	O	1.356251	0.393467	0.219392
C598	C	0.700965	-0.317974	-0.460621
C599	C	1.034298	0.015360	-0.127288
C600	C	1.367632	0.348693	0.206045
H601	H	0.742729	-0.320242	-0.475654
H602	H	1.076063	0.013092	-0.142321
H603	H	1.409396	0.346425	0.191013
H604	H	0.696450	-0.340172	-0.424703
H605	H	1.029783	-0.006838	-0.091370
H606	H	1.363116	0.326495	0.241963
H607	H	0.672919	-0.329713	-0.492297
H608	H	1.006252	0.003620	-0.158964
H609	H	1.339586	0.336954	0.174369
O610	O	0.058300	-0.273272	-0.317899
O611	O	0.391633	0.060061	0.015435
O612	O	0.724966	0.393395	0.348768
C613	C	0.022486	-0.298677	-0.347347
C614	C	0.355820	0.034656	-0.014014
C615	C	0.689153	0.367990	0.319319
H616	H	-0.016424	-0.280280	-0.349195
H617	H	0.316910	0.053053	-0.015862
H618	H	0.650243	0.386387	0.317471
H619	H	0.038275	-0.303521	-0.388532
H620	H	0.371608	0.029813	-0.055199
H621	H	0.704941	0.363146	0.278135
H622	H	0.016649	-0.332773	-0.328129
H623	H	0.349982	0.000560	0.005205
H624	H	0.683315	0.333894	0.338538
O625	O	0.821396	-0.383882	-0.186122
O626	O	1.154729	-0.050548	0.147211
O627	O	1.488062	0.282785	0.480545
C628	C	0.850930	-0.414638	-0.156639
C629	C	1.184263	-0.081305	0.176694
C630	C	1.517596	0.252029	0.510028
H631	H	0.852736	-0.448072	-0.178063
H632	H	1.186070	-0.114738	0.155270
H633	H	1.519403	0.218595	0.488603
H634	H	0.892123	-0.401051	-0.151103
H635	H	1.225457	-0.067718	0.182230
H636	H	1.558790	0.265615	0.515563
H637	H	0.831812	-0.419661	-0.116910
H638	H	1.165146	-0.086328	0.216423
H639	H	1.498479	0.247006	0.549756
O640	O	0.821320	-0.476352	-0.186132
O641	O	1.154653	-0.143018	0.147201
O642	O	1.487987	0.190315	0.480535
C643	C	0.791594	-0.503525	-0.152323
C644	C	1.124927	-0.170191	0.181010
C645	C	1.458261	0.163142	0.514344
H646	H	0.751959	-0.510581	-0.170716
H647	H	1.085292	-0.177248	0.162618
H648	H	1.418626	0.156085	0.495951
H649	H	0.812912	-0.536501	-0.145349
H650	H	1.146246	-0.203168	0.187984
H651	H	1.479579	0.130166	0.521318
H652	H	0.785873	-0.485465	-0.113566
H653	H	1.119207	-0.152132	0.219767
H654	H	1.452540	0.181201	0.553101
H655	H	0.816212	-0.164382	-0.451592
H656	H	1.149545	0.168951	-0.118259
H657	H	1.482879	0.502284	0.215075
H658	H	0.816330	-1.045021	-0.191464
H659	H	1.149663	-0.711687	0.141869
H660	H	1.482997	-0.378354	0.475203
H661	H	0.849706	-0.135594	-0.702780
H662	H	1.183039	0.197739	-0.369447
H663	H	1.516373	0.531072	-0.036114
O664	O	-0.049172	-0.159775	-0.186241
O665	O	0.284162	0.173559	0.147092
O666	O	0.617495	0.506892	0.480426
C667	C	-0.013358	-0.134388	-0.156771
C668	C	0.319975	0.198945	0.176563
C669	C	0.653308	0.532279	0.509896
H670	H	0.025576	-0.132861	-0.178187
H671	H	0.358909	0.200472	0.155147
H672	H	0.692242	0.533806	0.488480
H673	H	-0.029109	-0.098984	-0.151269
H674	H	0.304224	0.234349	0.182064
H675	H	0.637557	0.567682	0.515398
H676	H	-0.007582	-0.150790	-0.117027
H677	H	0.325751	0.182544	0.216307
H678	H	0.659084	0.515877	0.549640
O679	O	0.058440	-0.159868	-0.186219
O680	O	0.391774	0.173465	0.147114
O681	O	0.725107	0.506798	0.480447
C682	C	0.089980	-0.185401	-0.152382
C683	C	0.423314	0.147932	0.180951
C684	C	0.756647	0.481266	0.514284
H685	H	0.098153	-0.219468	-0.170751
H686	H	0.431486	0.113866	0.162582
H687	H	0.764820	0.447199	0.495915
H688	H	0.128383	-0.167088	-0.145404
H689	H	0.461716	0.166246	0.187930
H690	H	0.795050	0.499579	0.521263
H691	H	0.068910	-0.190293	-0.113631
H692	H	0.402243	0.143040	0.219702
H693	H	0.735576	0.476373	0.553036
O694	O	0.855049	-0.832872	-0.152881
O695	O	1.188383	-0.499539	0.180452
O696	O	1.521716	-0.166206	0.513786
C697	C	0.888794	-0.859972	-0.182705
C698	C	1.222127	-0.526639	0.150629
C699	C	1.555460	-0.193305	0.483962
H700	H	0.891970	-0.845810	-0.223885
H701	H	1.225303	-0.512476	0.109449
H702	H	1.558636	-0.179143	0.442782
H703	H	0.929052	-0.860473	-0.163854
H704	H	1.262385	-0.527140	0.169479
H705	H	1.595718	-0.193807	0.502812
H706	H	0.872647	-0.895545	-0.184491
H707	H	1.205981	-0.562212	0.148842
H708	H	1.539314	-0.228879	0.482176
O709	O	0.202015	-0.130966	-0.152849
O710	O	0.535348	0.202368	0.180485
O711	O	0.868681	0.535701	0.513818
C712	C	0.237832	-0.105577	-0.123385
C713	C	0.571165	0.227756	0.209948
C714	C	0.904498	0.561090	0.543281
H715	H	0.276765	-0.104056	-0.144804
H716	H	0.610098	0.229278	0.188530
H717	H	0.943432	0.562611	0.521863
H718	H	0.222084	-0.070171	-0.117890
H719	H	0.555418	0.263162	0.215443
H720	H	0.888751	0.596495	0.548777
H721	H	0.243608	-0.121973	-0.083638
H722	H	0.576942	0.211360	0.249695
H723	H	0.910275	0.544694	0.583028
O724	O	0.855014	-0.692039	-0.152802
O725	O	1.188347	-0.358705	0.180532
O726	O	1.521680	-0.025372	0.513865
C727	C	0.907102	-0.680513	-0.164308
C728	C	1.240435	-0.347180	0.169025
C729	C	1.573769	-0.013846	0.502358
H730	H	0.908132	-0.646448	-0.184425
H731	H	1.241465	-0.313114	0.148908
H732	H	1.574798	0.020219	0.482241
H733	H	0.930578	-0.678874	-0.126604
H734	H	1.263911	-0.345540	0.206729
H735	H	1.597244	-0.012207	0.540062
H736	H	0.924717	-0.706897	-0.191198
H737	H	1.258050	-0.373564	0.142135
H738	H	1.591384	-0.040231	0.475469
O739	O	0.821530	-0.159824	-0.554856
O740	O	1.154864	0.173509	-0.221523
O741	O	1.488197	0.506842	0.111811
C742	C	0.851050	-0.134475	-0.519052
C743	C	1.184383	0.198858	-0.185719
C744	C	1.517717	0.532191	0.147614
H745	H	0.852832	-0.152889	-0.480130
H746	H	1.186165	0.180444	-0.146797
H747	H	1.519498	0.513777	0.186537
H748	H	0.892253	-0.129686	-0.534834
H749	H	1.225587	0.203647	-0.201501
H750	H	1.558920	0.536981	0.131833
H751	H	0.831937	-0.100354	-0.513241
H752	H	1.165270	0.232980	-0.179908
H753	H	1.498603	0.566313	0.153425
H754	H	0.816301	-0.959898	-0.191448
H755	H	1.149634	-0.626565	0.141885
H756	H	1.482968	-0.293231	0.475218
O757	O	0.689601	-0.956221	-0.317831
O758	O	1.022934	-0.622888	0.015502
O759	O	1.356268	-0.289554	0.348836
C760	C	0.655833	-0.929128	-0.288025
C761	C	0.989167	-0.595795	0.045308
C762	C	1.322500	-0.262462	0.378642
H763	H	0.674300	-0.922094	-0.248424
H764	H	1.007634	-0.588761	0.084910
H765	H	1.340967	-0.255427	0.418243
H766	H	0.648795	-0.896136	-0.309314
H767	H	0.982128	-0.562803	0.024019
H768	H	1.315462	-0.229469	0.357352
H769	H	0.617100	-0.947246	-0.282235
H770	H	0.950433	-0.613913	0.051098
H771	H	1.283766	-0.280580	0.384431
H772	H	0.661337	-0.688495	-0.346038
H773	H	0.994671	-0.355161	-0.012704
H774	H	1.328004	-0.021828	0.320629
H775	H	0.661316	-0.603386	-0.346032
H776	H	0.994649	-0.270053	-0.012699
H777	H	1.327983	0.063281	0.320635
O778	O	0.656210	-0.832990	-0.351323
O779	O	0.989543	-0.499656	-0.017989
O780	O	1.322876	-0.166323	0.315344
C781	C	0.685968	-0.860078	-0.385138
C782	C	1.019301	-0.526745	-0.051804
C783	C	1.352635	-0.193412	0.281529
H784	H	0.725603	-0.867085	-0.366737
H785	H	1.058937	-0.533752	-0.033404
H786	H	1.392270	-0.200419	0.299930
H787	H	0.664679	-0.893084	-0.392135
H788	H	0.998012	-0.559751	-0.058802
H789	H	1.331345	-0.226418	0.274531
H790	H	0.691685	-0.841971	-0.423883
H791	H	1.025018	-0.508638	-0.090550
H792	H	1.358352	-0.175304	0.242784
H793	H	0.694677	-0.387554	-0.312587
H794	H	1.028011	-0.054221	0.020746
H795	H	1.361344	0.279112	0.354080
