data_functionalizedCrystal
_audit_creation_method	'MofGen! by Chris Wilmer'
_symmetry_space_group_name_H-M	'P1'
_symmetry_Int_Tables_number	1
_symmetry_cell_setting	triclinic
loop_
_symmetry_equiv_pos_as_xyz
  x,y,z
_cell_length_a	19.188879
_cell_length_b	11.792254
_cell_length_c	10.268362
_cell_angle_alpha	89.995475
_cell_angle_beta	90.015071
_cell_angle_gamma	96.338663
loop_
_atom_site_label
_atom_site_type_symbol
_atom_site_fract_x
_atom_site_fract_y
_atom_site_fract_z
O1	O	-0.095740	1.505439	-0.108330
O2	O	-0.105593	1.174949	-0.108336
O3	O	0.000937	1.349761	-0.108292
O4	O	-0.202270	1.330627	-0.108374
O5	O	0.000942	1.349746	0.108309
O6	O	-0.105588	1.174934	0.108265
O7	O	-0.095735	1.505424	0.108271
Cu8	Cu	-0.100661	1.340178	0.128045
Cu9	Cu	-0.100667	1.340196	-0.128110
O10	O	-0.202265	1.330612	0.108227
C11	C	-0.104970	1.132661	-0.000035
C12	C	-0.103112	1.006676	-0.000036
C13	C	-0.101603	0.904362	-0.000041
C14	C	-0.099715	0.776005	-0.000041
C15	C	-0.228283	1.331229	-0.000084
C16	C	-0.305800	1.333061	-0.000116
C17	C	-0.342185	1.333941	0.117960
C18	C	-0.415018	1.335693	0.117983
C19	C	-0.451461	1.336587	-0.000077
C20	C	-0.415068	1.335700	-0.118168
C21	C	-0.342237	1.333937	-0.118188
N22	N	-0.560866	1.403949	-0.087928
N23	N	-0.630052	1.405626	-0.087901
C24	C	-0.670896	1.341897	-0.000026
N25	N	-0.639939	1.276442	0.087842
N26	N	-0.570747	1.274769	0.087820
C27	C	-0.530434	1.338498	-0.000069
C28	C	-0.786255	1.344676	0.118083
C29	C	-0.859090	1.346420	0.118100
C30	C	-0.859138	1.346439	-0.118054
C31	C	-0.786305	1.344683	-0.118068
C32	C	-0.749868	1.343807	0.000003
C33	C	0.026955	1.349144	0.000016
C34	C	0.104472	1.347313	0.000039
C35	C	-0.096358	1.547713	-0.000032
C36	C	-0.098216	1.673697	-0.000040
N37	N	-0.100657	1.340173	0.308211
N38	N	-0.100665	1.340209	-0.308276
C39	C	-0.100665	1.340190	0.573882
C40	C	-0.100663	1.340177	0.426044
H41	H	-0.444650	1.336389	0.214137
O42	O	-0.898333	1.347383	0.245465
H43	H	-0.890280	1.269716	0.302096
H44	H	-0.888810	1.347153	-0.214181
H45	H	-0.756679	1.343973	-0.214219
O46	O	-0.302985	1.332988	-0.245544
H47	H	-0.275753	1.254841	-0.251190
H48	H	-0.756587	1.343953	0.214224
H49	H	-0.312522	1.333227	0.214104
H50	H	-0.444745	1.336424	-0.214293
