data_functionalizedCrystal
_audit_creation_method	'MofGen! by Chris Wilmer'
_symmetry_space_group_name_H-M	'P1'
_symmetry_Int_Tables_number	1
_symmetry_cell_setting	triclinic
loop_
_symmetry_equiv_pos_as_xyz
  x,y,z
_cell_length_a	8.597340
_cell_length_b	13.596369
_cell_length_c	8.559649
_cell_angle_alpha	89.998986
_cell_angle_beta	77.625043
_cell_angle_gamma	82.303879
loop_
_atom_site_label
_atom_site_type_symbol
_atom_site_fract_x
_atom_site_fract_y
_atom_site_fract_z
O1	O	2.053703	-0.092256	0.238048
O2	O	2.387037	0.241077	0.571381
O3	O	2.720370	0.574411	0.904715
O4	O	1.594580	-0.053346	0.256305
O5	O	1.927913	0.279987	0.589639
O6	O	2.261246	0.613321	0.922972
O7	O	1.864591	-0.076230	0.015207
O8	O	2.197924	0.257103	0.348540
O9	O	2.531257	0.590437	0.681874
O10	O	1.783692	-0.069372	0.479146
O11	O	2.117026	0.263961	0.812480
O12	O	2.450359	0.597295	1.145813
O13	O	1.864559	-0.239810	0.015220
O14	O	2.197893	0.093523	0.348554
O15	O	2.531226	0.426856	0.681887
O16	O	1.594548	-0.216926	0.256319
O17	O	1.927882	0.116407	0.589652
O18	O	2.261215	0.449740	0.922985
O19	O	2.053672	-0.255836	0.238061
O20	O	2.387006	0.077497	0.571395
O21	O	2.720339	0.410830	0.904728
Zn22	Zn	1.824105	-0.262353	0.247192
Zn23	Zn	2.157439	0.070980	0.580525
Zn24	Zn	2.490772	0.404313	0.913859
Zn25	Zn	1.824146	-0.046829	0.247175
Zn26	Zn	2.157480	0.286504	0.580508
Zn27	Zn	2.490813	0.619838	0.913841
O28	O	1.783661	-0.232952	0.479160
O29	O	2.116994	0.100381	0.812493
O30	O	2.450328	0.433714	1.145826
C31	C	1.536330	-0.130201	0.254350
C32	C	1.869663	0.203133	0.587684
C33	C	2.202997	0.536466	0.921017
C34	C	1.362814	-0.115495	0.248486
C35	C	1.696147	0.217838	0.581819
C36	C	2.029481	0.551171	0.915153
N37	N	1.824089	-0.409444	0.247203
N38	N	2.157422	-0.076110	0.580536
N39	N	2.490755	0.257223	0.913870
C40	C	1.824096	-0.498442	0.247207
C41	C	2.157430	-0.165109	0.580540
C42	C	2.490763	0.168225	0.913873
C43	C	1.824113	-0.610095	0.247196
C44	C	2.157446	-0.276762	0.580529
C45	C	2.490780	0.056572	0.913863
C46	C	1.824135	-0.699087	0.247178
C47	C	2.157469	-0.365754	0.580512
C48	C	2.490802	-0.032421	0.913845
C49	C	1.824154	-0.810747	0.247169
C50	C	2.157488	-0.477414	0.580502
C51	C	2.490821	-0.144081	0.913836
C52	C	2.111922	-0.178979	0.240016
C53	C	2.445255	0.154354	0.573350
C54	C	2.778588	0.487687	0.906683
C55	C	2.285438	-0.193678	0.245881
C56	C	2.618771	0.139655	0.579214
C57	C	2.952104	0.472988	0.912547
C58	C	1.870706	-0.158538	-0.044220
C59	C	2.204039	0.174795	0.289113
C60	C	2.537372	0.508129	0.622446
C61	C	1.888955	-0.160079	-0.221315
C62	C	2.222288	0.173254	0.112018
C63	C	2.555621	0.506588	0.445351
N64	N	1.824177	0.100260	0.247151
N65	N	2.157510	0.433593	0.580485
N66	N	2.490844	0.766927	0.913818
C67	C	1.777546	-0.150642	0.538587
C68	C	2.110879	0.182691	0.871920
C69	C	2.444213	0.516024	1.205254
C70	C	1.759297	-0.149095	0.715682
C71	C	2.092631	0.184239	1.049015
C72	C	2.425964	0.517572	1.382349
H73	H	1.296307	-0.037300	0.246230
H74	H	1.629640	0.296033	0.579563
H75	H	1.962973	0.629366	0.912896
H76	H	2.013929	-0.170678	-0.302868
H77	H	2.347262	0.162655	0.030466
H78	H	2.680596	0.495988	0.363799
H79	H	1.634331	-0.138507	-0.202774
H80	H	1.967664	0.194826	0.130559
H81	H	2.300998	0.528160	0.463892
H82	H	1.351940	-0.271868	0.248125
H83	H	1.685274	0.061465	0.581459
H84	H	2.018607	0.394798	0.914792
