data_functionalizedCrystal
_audit_creation_method	'MofGen! by Chris Wilmer'
_symmetry_space_group_name_H-M	'P1'
_symmetry_Int_Tables_number	1
_symmetry_cell_setting	triclinic
loop_
_symmetry_equiv_pos_as_xyz
  x,y,z
_cell_length_a	12.645331
_cell_length_b	19.121063
_cell_length_c	12.645331
_cell_angle_alpha	87.579090
_cell_angle_beta	90.008143
_cell_angle_gamma	92.467980
loop_
_atom_site_label
_atom_site_type_symbol
_atom_site_fract_x
_atom_site_fract_y
_atom_site_fract_z
Zn1	Zn	1.602491	-0.279723	0.617394
Zn2	Zn	1.594824	-0.397155	0.447669
Zn3	Zn	1.425251	-0.279719	0.440138
Zn4	Zn	1.417595	-0.397137	0.624883
O5	O	1.510040	-0.338433	0.532521
O6	O	1.749821	-0.295310	0.594897
O7	O	1.572325	-0.381583	0.298323
O8	O	1.455175	-0.181434	0.457366
O9	O	1.744188	-0.381587	0.470201
O10	O	1.585392	-0.181437	0.587595
O11	O	1.447740	-0.295303	0.292790
O12	O	1.275889	-0.295286	0.464628
O13	O	1.442126	-0.381555	0.772237
O14	O	1.270264	-0.381552	0.600359
O15	O	1.577969	-0.295292	0.766734
O16	O	1.564901	-0.495438	0.477463
O17	O	1.434692	-0.495425	0.607661
C18	C	1.234612	-0.338417	0.532489
C19	C	1.116781	-0.338427	0.532502
C20	C	0.952736	-0.283907	0.447549
C21	C	1.075287	-0.284048	0.447200
C22	C	1.067484	-0.412410	0.506734
C23	C	0.944905	-0.412112	0.506159
C24	C	0.950816	-0.319667	0.643582
C25	C	1.073529	-0.318014	0.642853
C26	C	1.498163	-0.520916	0.544215
C27	C	1.493178	-0.598982	0.549253
C28	C	1.558683	-0.635642	0.483889
C29	C	1.554001	-0.708994	0.488634
C30	C	1.483810	-0.745685	0.558738
C31	C	1.418303	-0.709020	0.624109
C32	C	1.422990	-0.635669	0.619369
C33	C	1.466267	-0.967157	0.576443
C34	C	1.461582	-1.040512	0.581176
C35	C	1.597283	-1.040481	0.445701
C36	C	1.601959	-0.967129	0.440963
C37	C	1.536457	-0.930471	0.506338
C38	C	1.479020	-0.820662	0.563587
C39	C	1.541252	-0.855495	0.501494
C40	C	1.786544	-0.338451	0.532554
C41	C	1.904374	-0.338458	0.532567
C42	C	1.510049	-0.338422	0.809026
C43	C	1.510052	-0.338417	0.926855
C44	C	1.521993	-0.155239	0.520805
C45	C	1.527086	-0.077172	0.515812
C46	C	1.595518	-0.284148	0.968276
C47	C	1.595830	-0.284318	1.090847
C48	C	1.535177	-0.412508	1.099490
C49	C	1.535791	-0.412184	0.976872
C50	C	1.399215	-0.319264	0.970797
C51	C	1.399922	-0.317642	1.093300
C52	C	1.510031	-0.338453	1.257093
C53	C	1.510054	-0.338435	1.139261
H54	H	0.921115	-0.296188	0.365666
C55	C	1.026385	-0.310780	0.269461
C56	C	1.113766	-0.300817	0.336016
H57	H	1.050142	-0.321138	0.200821
H58	H	0.987524	-0.269340	0.265204
H59	H	0.982237	-0.348628	0.297217
H60	H	1.157910	-0.262965	0.308264
H61	H	1.152643	-0.342262	0.340269
H62	H	1.380882	-0.263129	1.118906
H63	H	1.580689	-0.229402	1.117429
C64	C	1.057924	-0.534065	0.562814
C65	C	1.103197	-0.468750	0.587977
H66	H	1.079969	-0.568844	0.612976
H67	H	1.080116	-0.545317	0.494053
H68	H	0.982979	-0.532330	0.564366
H69	H	1.178143	-0.470484	0.586417
H70	H	1.081011	-0.457495	0.656756
C71	C	1.175890	-0.248808	0.763209
C72	C	1.117541	-0.244515	0.669213
H73	H	1.203054	-0.203430	0.779483
H74	H	1.232864	-0.278879	0.754707
H75	H	1.131315	-0.267015	0.819188
H76	H	1.162118	-0.226312	0.613232
H77	H	1.060559	-0.214432	0.677709
H78	H	1.580624	-0.229051	0.935285
H79	H	1.333254	-0.354272	1.126239
H80	H	0.915250	-0.428050	0.425143
H81	H	1.475945	-0.453997	0.949847
H82	H	1.375336	-0.266167	0.936473
C83	C	0.836667	-0.517562	0.533967
C84	C	0.901195	-0.468842	0.586446
H85	H	0.809685	-0.552583	0.583532
H86	H	0.877020	-0.538730	0.481663
H87	H	0.779524	-0.494415	0.501131
H88	H	0.958343	-0.491988	0.619277
H89	H	0.860841	-0.447672	0.638769
H90	H	1.097112	-0.428622	0.426616
C91	C	1.563776	-0.791664	0.351565
C92	C	1.626093	-0.749355	0.416960
H93	H	1.608314	-0.816602	0.307374
H94	H	1.519537	-0.763132	0.308964
H95	H	1.521226	-0.823958	0.394012
H96	H	1.668637	-0.717057	0.374513
H97	H	1.670350	-0.777890	0.459565
H98	H	0.923340	-0.266661	0.667933
H99	H	1.369651	-0.605822	0.672597
H100	H	0.919252	-0.359400	0.706870
H101	H	1.101788	-0.354850	0.709201
H102	H	1.615835	-0.605773	0.426798
C103	C	1.379291	-0.437210	1.205258
C104	C	1.453447	-0.468599	1.142385
H105	H	1.328839	-0.471840	1.231745
H106	H	1.344287	-0.402639	1.163914
H107	H	1.414457	-0.415873	1.262768
H108	H	1.418282	-0.489932	1.084871
H109	H	1.488454	-0.503182	1.183731
C110	C	1.735644	-0.974469	0.307549
C111	C	1.679130	-0.926801	0.363915
H112	H	1.783290	-0.949570	0.259988
H113	H	1.687662	-1.003112	0.268800
H114	H	1.774323	-1.003046	0.355634
H115	H	1.640445	-0.898227	0.315830
H116	H	1.727119	-0.898146	0.402666
C117	C	1.456683	-0.884648	0.713713
C118	C	1.394255	-0.926873	0.648298
H119	H	1.412219	-0.859781	0.758079
H120	H	1.499143	-0.852296	0.671292
H121	H	1.501012	-0.913233	0.756146
H122	H	1.349932	-0.898288	0.605860
H123	H	1.351777	-0.959229	0.690724
H124	H	1.598406	-0.825619	0.444419
H125	H	1.650613	-1.070336	0.392478
H126	H	1.335601	-0.358789	0.944290
C127	C	1.327934	-1.033180	0.714639
C128	C	1.384432	-1.080845	0.658251
H129	H	1.280313	-1.058081	0.762223
H130	H	1.289237	-1.004609	0.666577
H131	H	1.375936	-1.004531	0.753374
H132	H	1.336430	-1.109490	0.619510
H133	H	1.423131	-1.109428	0.706320
H134	H	1.361156	-0.738900	0.681194
H135	H	1.421868	-0.850544	0.620664
H136	H	1.677282	-0.296690	0.938286
C137	C	1.773304	-0.311639	1.045518
C138	C	1.706827	-0.301472	1.131568
H139	H	1.841829	-0.322235	1.070660
H140	H	1.777942	-0.270195	1.001337
H141	H	1.745231	-0.349392	1.006210
H142	H	1.734896	-0.263715	1.170872
H143	H	1.702192	-0.342921	1.175767
H144	H	1.615110	-0.429005	1.131289
C145	C	1.037524	-0.165076	0.481229
C146	C	1.120713	-0.209978	0.468205
H147	H	1.065567	-0.119343	0.494174
H148	H	0.994881	-0.181854	0.539514
H149	H	0.995716	-0.163570	0.418820
H150	H	1.162517	-0.211488	0.530617
H151	H	1.163374	-0.193195	0.409915
C152	C	1.663883	-0.501372	0.981313
C153	C	1.644959	-0.434052	0.939681
H154	H	1.731284	-0.514868	0.958361
H155	H	1.610686	-0.533531	0.957393
H156	H	1.662531	-0.501369	1.056423
H157	H	1.646303	-0.434056	0.864571
H158	H	1.698170	-0.401884	0.963595
H159	H	0.926825	-0.228880	0.462940
