data_functionalizedCrystal
_audit_creation_method	'MofGen! by Chris Wilmer'
_symmetry_space_group_name_H-M	'P1'
_symmetry_Int_Tables_number	1
_symmetry_cell_setting	triclinic
loop_
_symmetry_equiv_pos_as_xyz
  x,y,z
_cell_length_a	18.050591
_cell_length_b	18.050589
_cell_length_c	17.077396
_cell_angle_alpha	89.974523
_cell_angle_beta	89.977811
_cell_angle_gamma	90.024669
loop_
_atom_site_label
_atom_site_type_symbol
_atom_site_fract_x
_atom_site_fract_y
_atom_site_fract_z
Zn1	Zn	1.135310	-0.295724	-0.443967
Zn2	Zn	1.635310	0.204276	0.056033
Zn3	Zn	1.135216	-0.419923	-0.312710
Zn4	Zn	1.635216	0.080077	0.187290
Zn5	Zn	1.011124	-0.295743	-0.312704
Zn6	Zn	1.511124	0.204257	0.187296
Zn7	Zn	1.011078	-0.419869	-0.443922
Zn8	Zn	1.511078	0.080131	0.056078
O9	O	1.073182	-0.357815	-0.378326
O10	O	1.573182	0.142185	0.121674
O11	O	1.239222	-0.312213	-0.426577
O12	O	1.739222	0.187787	0.073423
O13	O	1.118735	-0.403481	-0.202862
O14	O	1.618735	0.096519	0.297138
O15	O	1.027657	-0.191816	-0.330132
O16	O	1.527657	0.308184	0.169868
O17	O	1.239153	-0.403462	-0.330143
O18	O	1.739153	0.096538	0.169857
O19	O	1.118896	-0.191802	-0.426571
O20	O	1.618896	0.308198	0.073429
O21	O	1.027565	-0.312247	-0.202858
O22	O	1.527565	0.187753	0.297142
O23	O	0.907194	-0.312194	-0.330089
O24	O	1.407194	0.187806	0.169911
O25	O	1.027577	-0.403370	-0.553775
O26	O	1.527577	0.096630	-0.053775
O27	O	0.907159	-0.403389	-0.426494
O28	O	1.407159	0.096611	0.073506
O29	O	1.118851	-0.312161	-0.553808
O30	O	1.618851	0.187839	-0.053808
O31	O	1.118689	-0.523840	-0.330099
O32	O	1.618689	-0.023840	0.169901
O33	O	1.027486	-0.523800	-0.426500
O34	O	1.527486	-0.023800	0.073500
C35	C	0.880230	-0.357788	-0.378287
C36	C	1.380230	0.142212	0.121713
C37	C	0.797684	-0.357795	-0.378288
C38	C	1.297684	0.142205	0.121712
C39	C	0.548856	-0.308152	-0.325987
C40	C	1.048856	0.191848	0.174013
C41	C	0.598290	-0.290063	-0.397624
C42	C	1.098290	0.209937	0.102376
C43	C	0.500564	-0.357833	-0.378353
C44	C	1.000564	0.142167	0.121647
C45	C	0.598211	-0.375869	-0.306688
C46	C	1.098211	0.124131	0.193312
C47	C	0.646549	-0.357813	-0.378317
C48	C	1.146549	0.142187	0.121683
C49	C	0.548911	-0.339708	-0.450028
C50	C	1.048911	0.160292	0.049972
C51	C	0.548827	-0.425546	-0.359043
C52	C	1.048827	0.074454	0.140957
C53	C	0.598240	-0.407482	-0.430730
C54	C	1.098240	0.092518	0.069270
C55	C	0.416465	-0.357843	-0.378372
C56	C	0.916465	0.142157	0.121628
C57	C	0.730645	-0.357803	-0.378306
C58	C	1.230645	0.142197	0.121694
C59	C	1.073092	-0.550767	-0.378313
C60	C	1.573092	-0.050767	0.121687
C61	C	1.073122	-0.633313	-0.378333
C62	C	1.573122	-0.133313	0.121667
C63	C	1.023574	-0.832769	-0.430738
C64	C	1.523574	-0.332769	0.069262
C65	C	1.005473	-0.882210	-0.359107
C66	C	1.505473	-0.382210	0.140893
C67	C	1.073195	-0.784443	-0.378344
C68	C	1.573195	-0.284443	0.121656
C69	C	1.091332	-0.882083	-0.449983
C70	C	1.591332	-0.382083	0.050017
C71	C	1.073264	-0.930428	-0.378360
C72	C	1.573264	-0.430428	0.121640
C73	C	1.055059	-0.832797	-0.306675
C74	C	1.555059	-0.332797	0.193325
C75	C	1.140949	-0.832666	-0.397599
C76	C	1.640949	-0.332666	0.102401
C77	C	1.122874	-0.882085	-0.325919
C78	C	1.622874	-0.382085	0.174081
C79	C	1.073153	-0.700345	-0.378335
C80	C	1.573153	-0.200345	0.121665
C81	C	1.073306	-1.014524	-0.378360
C82	C	1.573306	-0.514524	0.121640
C83	C	1.266888	-0.357841	-0.378366
C84	C	1.766888	0.142159	0.121634
C85	C	1.349433	-0.357853	-0.378383
C86	C	1.849433	0.142147	0.121617
C87	C	1.073219	-0.357757	-0.583070
C88	C	1.573219	0.142243	-0.083070
C89	C	1.073235	-0.357733	-0.670320
C90	C	1.573235	0.142267	-0.170320
C91	C	1.073292	-0.164109	-0.378356
C92	C	1.573292	0.335891	0.121644
C93	C	1.073339	-0.081563	-0.378369
C94	C	1.573339	0.418437	0.121631
C95	C	1.025778	-0.310221	-0.711307
C96	C	1.525778	0.189779	-0.211307
C97	C	1.025790	-0.310204	-0.793288
C98	C	1.525790	0.189796	-0.293288
C99	C	1.073264	-0.357696	-0.834280
C100	C	1.573264	0.142304	-0.334280
C101	C	1.120723	-0.405212	-0.793287
C102	C	1.620723	0.094788	-0.293287
C103	C	1.120707	-0.405232	-0.711308
C104	C	1.620707	0.094768	-0.211308
C105	C	1.120755	-0.405166	-0.964157
C106	C	1.620755	0.094834	-0.464157
C107	C	1.120773	-0.405145	-1.046141
C108	C	1.620773	0.094855	-0.546141
C109	C	1.025838	-0.310138	-1.046137
C110	C	1.525838	0.189862	-0.546137
C111	C	1.025822	-0.310158	-0.964158
C112	C	1.525822	0.189842	-0.464158
C113	C	1.073283	-0.357674	-0.923171
C114	C	1.573283	0.142326	-0.423171
C115	C	1.073188	-0.357818	-0.174378
C116	C	1.573188	0.142182	0.325622
C117	C	1.073316	-0.357634	-0.087129
C118	C	1.573316	0.142366	0.412871
H119	H	0.620004	-0.232788	-0.413955
H120	H	1.120004	0.267212	0.086045
H121	H	1.106645	-0.903733	-0.510561
H122	H	1.606645	-0.403733	-0.010561
H123	H	1.198201	-0.810889	-0.413904
H124	H	1.698201	-0.310889	0.086096
H125	H	0.527346	-0.324378	-0.510636
H126	H	1.027346	0.175622	-0.010636
H127	H	0.527085	-0.482802	-0.342700
H128	H	1.027085	0.017198	0.157300
H129	H	0.527174	-0.266116	-0.281773
H130	H	1.027174	0.233884	0.218227
H131	H	0.619785	-0.449487	-0.475050
H132	H	1.119785	0.050513	0.024950
H133	H	0.619868	-0.391132	-0.246097
H134	H	1.119868	0.108868	0.253903
H135	H	0.981550	-0.811114	-0.474983
H136	H	1.481550	-0.311114	0.025017
H137	H	0.987123	-0.271544	-0.677938
H138	H	1.487123	0.228456	-0.177938
H139	H	0.948208	-0.903989	-0.342836
H140	H	1.448208	-0.403989	0.157164
H141	H	1.039679	-0.811237	-0.246081
H142	H	1.539679	-0.311237	0.253919
H143	H	1.164866	-0.903603	-0.281566
H144	H	1.664866	-0.403603	0.218434
H145	H	0.987142	-0.271519	-0.826656
H146	H	1.487142	0.228481	-0.326656
H147	H	0.987168	-0.271483	-0.930785
H148	H	1.487168	0.228517	-0.430785
H149	H	0.987195	-0.271448	-1.079513
H150	H	1.487195	0.228552	-0.579513
H151	H	1.159431	-0.443816	-1.079515
H152	H	1.659431	0.056184	-0.579515
H153	H	1.159410	-0.443852	-0.930787
H154	H	1.659410	0.056148	-0.430787
H155	H	1.159374	-0.443884	-0.826669
H156	H	1.659374	0.056116	-0.326669
H157	H	1.159357	-0.443915	-0.677937
H158	H	1.659357	0.056085	-0.177937
