data_functionalizedCrystal
_audit_creation_method	'MofGen! by Chris Wilmer'
_symmetry_space_group_name_H-M	'P1'
_symmetry_Int_Tables_number	1
_symmetry_cell_setting	triclinic
loop_
_symmetry_equiv_pos_as_xyz
  x,y,z
_cell_length_a	9.065215
_cell_length_b	17.038272
_cell_length_c	8.140239
_cell_angle_alpha	89.996147
_cell_angle_beta	89.997810
_cell_angle_gamma	88.063127
loop_
_atom_site_label
_atom_site_type_symbol
_atom_site_fract_x
_atom_site_fract_y
_atom_site_fract_z
O1	O	1.971909	0.114731	-0.136597
O2	O	1.543568	0.124145	-0.136604
O3	O	1.755193	0.005604	-0.136587
O4	O	1.760285	0.233272	-0.136613
O5	O	1.755180	0.005603	0.136640
O6	O	1.543556	0.124144	0.136623
O7	O	1.971897	0.114729	0.136631
Zn8	Zn	1.757724	0.119436	0.180007
Zn9	Zn	1.757741	0.119438	-0.179981
O10	O	1.760272	0.233270	0.136614
C11	C	1.488485	0.123240	0.000009
C12	C	1.324370	0.120536	0.000006
C13	C	1.750556	-0.023558	0.000026
C14	C	1.736740	-0.110451	0.000025
C15	C	1.863588	-0.159650	0.000029
C16	C	1.850597	-0.241294	0.000013
C17	C	1.710758	-0.273738	0.000005
C18	C	1.583900	-0.224532	-0.000004
C19	C	1.596892	-0.142890	0.000000
C20	C	1.664860	-0.519827	-0.000018
C21	C	1.651877	-0.601476	-0.000017
C22	C	1.918576	-0.618232	-0.000003
C23	C	1.931556	-0.536587	0.000011
C24	C	1.804698	-0.487389	-0.000007
C25	C	1.697476	-0.357191	-0.000006
C26	C	1.817981	-0.403937	-0.000008
C27	C	2.026980	0.115634	0.000014
C28	C	2.191095	0.118338	0.000006
C29	C	1.764909	0.262433	-0.000003
C30	C	1.778725	0.349325	-0.000013
N31	N	1.757724	0.119435	0.425690
N32	N	1.757752	0.119434	-0.425664
H33	H	1.953891	-0.281349	0.000020
N34	N	1.460064	-0.089832	0.000024
H35	H	1.459508	-0.055592	0.101315
H36	H	1.459576	-0.055628	-0.101323
N37	N	2.014419	-0.124663	0.000042
H38	H	2.003407	-0.065477	0.000053
H39	H	2.070364	-0.142601	0.101335
H40	H	1.583617	-0.383616	-0.000009
H41	H	1.470039	-0.250954	-0.000021
N42	N	1.968806	-0.368950	0.000015
H43	H	1.980153	-0.335443	-0.101263
H44	H	1.980015	-0.335495	0.101375
N45	N	2.082383	-0.501595	0.000029
H46	H	2.160772	-0.545152	0.000030
H47	H	2.093591	-0.468080	-0.101255
N48	N	2.055394	-0.671294	0.000018
H49	H	2.025951	-0.727938	0.000015
H50	H	2.115902	-0.660679	-0.101267
N51	N	1.501041	-0.636468	-0.000043
H52	H	1.512066	-0.695654	-0.000034
H53	H	1.445068	-0.618541	0.101239
N54	N	1.528041	-0.466769	-0.000030
H55	H	1.437486	-0.499713	-0.000027
H56	H	1.527615	-0.432533	0.101258
