data_functionalizedCrystal
_audit_creation_method	'MofGen! by Chris Wilmer'
_symmetry_space_group_name_H-M	'P1'
_symmetry_Int_Tables_number	1
_symmetry_cell_setting	triclinic
loop_
_symmetry_equiv_pos_as_xyz
  x,y,z
_cell_length_a	23.532361
_cell_length_b	23.532407
_cell_length_c	13.101039
_cell_angle_alpha	93.336507
_cell_angle_beta	86.668482
_cell_angle_gamma	82.839173
loop_
_atom_site_label
_atom_site_type_symbol
_atom_site_fract_x
_atom_site_fract_y
_atom_site_fract_z
O1	O	0.758424	0.065850	-0.085121
O2	O	0.592558	0.075880	-0.085147
O3	O	0.680492	-0.012066	-0.085115
O4	O	0.670490	0.153797	-0.085154
O5	O	0.674183	-0.005746	0.085313
O6	O	0.586249	0.082201	0.085280
O7	O	0.752115	0.072171	0.085306
Zn8	Zn	0.668180	0.078189	0.112352
Zn9	Zn	0.676493	0.069862	-0.112193
O10	O	0.664181	0.160118	0.085274
C11	C	0.568187	0.078789	0.000063
C12	C	0.504969	0.078034	0.000054
C13	C	0.235164	0.071285	-0.092839
C14	C	0.294564	0.072000	-0.092842
O15	O	0.328215	0.069420	-0.171848
N16	N	0.320830	0.075807	0.000059
C17	C	0.287694	0.078892	0.092968
O18	O	0.315491	0.082195	0.171987
C19	C	0.228296	0.078174	0.092970
C20	C	0.202032	0.074373	0.000063
C21	C	0.208900	0.067484	-0.185738
C22	C	0.149504	0.066770	-0.185735
C23	C	0.116372	0.069858	-0.092833
C24	C	0.142636	0.073659	0.000066
C25	C	0.195162	0.081255	0.185878
C26	C	0.135760	0.080536	0.185871
C27	C	0.109496	0.076735	0.092965
C28	C	0.050109	0.076033	0.092971
N29	N	0.023842	0.072226	0.000071
C30	C	0.056974	0.069139	-0.092831
C31	C	0.412435	0.080401	0.092957
C32	C	0.471831	0.081124	0.092957
C33	C	0.478697	0.074231	-0.092853
C34	C	0.419299	0.073512	-0.092851
C35	C	0.386168	0.076595	0.000057
C36	C	-0.067762	0.067641	-0.092818
C37	C	-0.127164	0.066930	-0.092806
C38	C	-0.134024	0.073820	0.093003
C39	C	-0.074628	0.074534	0.092992
C40	C	-0.041498	0.071442	0.000074
O41	O	0.016422	0.078608	0.171937
O42	O	0.029171	0.065829	-0.171837
C43	C	0.677083	-0.030122	0.000102
C44	C	0.676316	-0.093339	0.000109
C45	C	0.723553	-0.492452	0.000061
C46	C	0.722842	-0.551852	0.000053
O47	O	0.766630	-0.588605	0.000022
N48	N	0.670564	-0.574470	0.000045
C49	C	0.618995	-0.537684	0.000035
O50	O	0.574464	-0.562376	0.000027
C51	C	0.619707	-0.478285	0.000036
C52	C	0.671988	-0.455670	0.000054
C53	C	0.775829	-0.469836	0.000077
C54	C	0.776540	-0.410440	0.000087
C55	C	0.724974	-0.373659	0.000080
C56	C	0.672698	-0.396274	0.000063
C57	C	0.568139	-0.441500	0.000019
C58	C	0.568856	-0.382098	0.000018
C59	C	0.621136	-0.359483	0.000036
C60	C	0.621844	-0.300096	0.000066
N61	N	0.674121	-0.277478	0.000074
C62	C	0.725687	-0.314260	0.000081
C63	C	0.617504	-0.662426	0.000032
C64	C	0.616791	-0.721824	0.000039
C65	C	0.720638	-0.735988	0.000055
C66	C	0.721350	-0.676589	0.000055
C67	C	0.669781	-0.639808	0.000040
C68	C	0.727175	-0.189522	0.000102
C69	C	0.727882	-0.130120	0.000116
C70	C	0.624036	-0.115961	0.000095
C71	C	0.623329	-0.175358	0.000087
C72	C	0.674904	-0.212138	0.000087
O73	O	0.578079	-0.263309	0.000093
O74	O	0.770211	-0.289559	0.000075
C75	C	0.776486	0.069262	0.000093
C76	C	0.839704	0.070017	0.000096
C77	C	0.667590	0.178173	0.000055
C78	C	0.668357	0.241390	0.000041
N79	N	0.662511	0.083872	0.265599
N80	N	0.682166	0.064174	-0.265440
C81	C	0.654798	0.091609	0.474638
C82	C	0.689877	0.056439	0.525527
C83	C	0.685586	0.060744	0.641844
C84	C	0.659089	0.087305	0.358311
H85	H	-0.148545	0.063836	-0.168465
Br86	Br	0.797170	-0.239429	0.000101
Br87	Br	-0.022809	0.063444	-0.218922
Br88	Br	0.113870	0.061607	-0.311829
H89	H	0.235870	0.064968	-0.261394
H90	H	0.723133	0.023097	0.481737
H91	H	0.621545	0.124951	0.518423
H92	H	0.397919	0.070417	-0.168504
H93	H	0.505684	0.071716	-0.168499
H94	H	0.493209	0.084228	0.168611
Br95	Br	0.847496	-0.379760	0.000082
Br96	Br	0.367477	0.084593	0.219060
Br97	Br	0.230790	0.086415	0.311973
H98	H	0.817822	-0.499779	0.000079
H99	H	0.108787	0.083051	0.261530
H100	H	-0.053244	0.077641	0.168644
H101	H	0.763921	-0.658181	0.000069
H102	H	0.762625	-0.765946	0.000056
Br103	Br	0.798838	-0.099433	0.000142
Br104	Br	-0.179000	0.078013	0.219078
H105	H	0.575508	-0.632482	0.000029
H106	H	0.574219	-0.740230	0.000042
H107	H	0.526862	-0.352153	0.000004
H108	H	0.580757	-0.193771	0.000101
Br109	Br	0.497183	-0.472176	-0.000010
H110	H	0.582052	-0.086003	0.000093
