data_functionalizedCrystal
_audit_creation_method	'MofGen! by Chris Wilmer'
_symmetry_space_group_name_H-M	'P1'
_symmetry_Int_Tables_number	1
_symmetry_cell_setting	triclinic
loop_
_symmetry_equiv_pos_as_xyz
  x,y,z
_cell_length_a	19.121102
_cell_length_b	10.686285
_cell_length_c	10.686551
_cell_angle_alpha	99.084519
_cell_angle_beta	82.987320
_cell_angle_gamma	96.989635
loop_
_atom_site_label
_atom_site_type_symbol
_atom_site_fract_x
_atom_site_fract_y
_atom_site_fract_z
Zn1	Zn	1.128943	0.530658	-0.759317
Zn2	Zn	1.128886	0.759233	-0.530810
Zn3	Zn	1.002347	0.537985	-0.538073
Zn4	Zn	1.019191	0.735029	-0.735210
O5	O	1.069841	0.640726	-0.640852
O6	O	1.227824	0.568041	-0.736054
O7	O	1.105027	0.743080	-0.353640
O8	O	1.012115	0.358889	-0.580549
O9	O	1.227782	0.735975	-0.568171
O10	O	1.105124	0.353506	-0.743096
O11	O	1.012059	0.580530	-0.358976
O12	O	0.905693	0.557060	-0.557174
O13	O	1.040823	0.694723	-0.916542
O14	O	0.918068	0.701828	-0.702011
O15	O	1.121457	0.544572	-0.934252
O16	O	1.121360	0.934146	-0.544796
O17	O	1.040767	0.916364	-0.694968
C18	C	1.082905	0.971440	-0.616507
C19	C	1.088560	1.112922	-0.606140
C20	C	0.886239	0.627614	-0.627765
C21	C	0.807696	0.622033	-0.622195
C22	C	1.083025	0.616130	-0.972876
C23	C	1.088643	0.605649	-1.114365
C24	C	0.777258	0.694916	-0.694849
C25	C	0.703457	0.689654	-0.689622
C26	C	0.660097	0.611516	-0.611733
C27	C	0.690540	0.538625	-0.539076
C28	C	0.764339	0.543880	-0.544311
C29	C	0.436948	0.591865	-0.592168
C30	C	0.363145	0.586618	-0.586936
C31	C	0.376067	0.737646	-0.737484
C32	C	0.449867	0.742900	-0.742706
C33	C	0.480304	0.670004	-0.670055
C34	C	0.584661	0.606139	-0.606385
C35	C	0.555738	0.675375	-0.675410
C36	C	1.254160	0.653891	-0.653991
C37	C	1.332706	0.659501	-0.659590
C38	C	1.056747	0.308721	-0.665322
C39	C	1.051167	0.167240	-0.675749
C40	C	1.056746	0.665138	-0.310130
C41	C	1.051251	0.675270	-0.168678
H42	H	0.812557	0.758549	-0.758270
Cl43	Cl	0.995059	1.071931	-0.780013
H44	H	0.461721	0.532518	-0.532999
H45	H	0.485167	0.806532	-0.806129
H46	H	1.124898	1.174663	-0.538598
Cl47	Cl	0.995190	0.779687	-1.073353
Cl48	Cl	0.665195	0.781283	-0.780964
H49	H	1.124960	0.538025	-1.176116
H50	H	0.789121	0.484524	-0.485155
H51	H	0.327842	0.522973	-0.523518
Cl52	Cl	0.337799	0.829283	-0.828810
Cl53	Cl	0.636030	0.440384	-0.441167
H54	H	0.591045	0.738989	-0.738833
Cl55	Cl	0.530145	0.507911	-0.508471
