data_functionalizedCrystal
_audit_creation_method	'MofGen! by Chris Wilmer'
_symmetry_space_group_name_H-M	'P1'
_symmetry_Int_Tables_number	1
_symmetry_cell_setting	triclinic
loop_
_symmetry_equiv_pos_as_xyz
  x,y,z
_cell_length_a	26.455835
_cell_length_b	26.455273
_cell_length_c	26.451828
_cell_angle_alpha	60.005170
_cell_angle_beta	60.010757
_cell_angle_gamma	59.993435
loop_
_atom_site_label
_atom_site_type_symbol
_atom_site_fract_x
_atom_site_fract_y
_atom_site_fract_z
O1	O	0.069940	-0.738516	0.617604
O2	O	0.026299	-0.574986	0.497618
O3	O	0.129847	-0.678463	0.497546
O4	O	-0.033607	-0.635040	0.617676
O5	O	0.164197	-0.644116	0.531822
O6	O	0.060649	-0.540639	0.531894
O7	O	0.104290	-0.704170	0.651880
Cu8	Cu	0.085606	-0.619268	0.595016
Cu9	Cu	0.044984	-0.659887	0.554481
O10	O	0.000742	-0.600693	0.651952
N11	N	0.114179	-0.590703	0.623530
N12	N	0.016416	-0.688458	0.525968
C13	C	0.157553	-0.547535	0.933368
C14	C	0.424104	-0.547506	0.666656
C15	C	0.157413	-0.547503	0.666729
C16	C	0.157397	-0.280846	0.666749
C17	C	0.200330	-0.409550	0.709625
C18	C	0.200339	-0.504608	0.709615
C19	C	0.224118	-0.480848	0.733375
C20	C	0.327800	-0.462984	0.678792
C21	C	0.392611	-0.484588	0.657175
C22	C	0.392630	-0.589450	0.697162
C23	C	0.327821	-0.567844	0.718781
C24	C	0.215955	-0.377135	0.645910
C25	C	0.194327	-0.312320	0.624323
C26	C	0.141457	-0.312339	0.730169
C27	C	0.163084	-0.377154	0.751756
C28	C	0.136618	-0.488954	0.725292
C29	C	0.115007	-0.510553	0.703686
C30	C	0.220833	-0.563461	0.650740
C31	C	0.242447	-0.541861	0.672339
C32	C	0.136680	-0.488971	0.837094
C33	C	0.115112	-0.510589	0.901907
C34	C	0.220969	-0.563508	0.901868
C35	C	0.242535	-0.541892	0.837053
C36	C	0.200389	-0.504622	0.804668
C37	C	0.295409	-0.504610	0.709593
C38	C	0.132990	-0.570876	1.004655
C39	C	0.495389	-0.570440	0.642547
C40	C	0.132802	-0.570856	0.643399
C41	C	0.133212	-0.209553	0.643833
C42	C	-0.097217	-0.706972	0.506986
C43	C	-0.002040	-0.707108	0.412067
C44	C	-0.002230	-0.802124	0.507163
C45	C	-0.002214	-0.707101	0.507221
C46	C	-0.025925	-0.730827	0.483360
N47	N	0.553723	-0.590712	0.623415
O48	O	0.751638	-0.596429	0.475603
O49	O	0.751819	-0.716773	0.638980
O50	O	0.751753	-0.716500	0.535361
O51	O	0.751705	-0.596703	0.579222
O52	O	0.648791	-0.682239	0.569747
O53	O	0.648858	-0.682512	0.673366
O54	O	0.648676	-0.562169	0.509989
Cu55	Cu	0.639366	-0.619212	0.594817
Cu56	Cu	0.761130	-0.659729	0.554152
O57	O	0.648743	-0.562442	0.613609
N58	N	0.846773	-0.688230	0.525548
N59	N	0.114157	-0.151217	0.623565
O60	O	-0.033591	0.046803	0.617717
O61	O	0.129795	0.046806	0.497390
O62	O	0.026157	0.046789	0.497680
O63	O	0.070046	0.046819	0.617427
O64	O	0.060509	-0.056181	0.532004
O65	O	0.164146	-0.056164	0.531714
O66	O	0.000760	-0.056167	0.652041
Cu67	Cu	0.085590	-0.065568	0.595012
Cu68	Cu	0.044965	0.056206	0.554419
O69	O	0.104397	-0.056151	0.651751
N70	N	0.016390	0.141855	0.525867
N71	N	0.114410	-0.590756	1.062992
O72	O	0.108565	-0.738494	1.260998
O73	O	-0.011747	-0.575059	1.261012
O74	O	-0.011470	-0.678679	1.260970
O75	O	0.108287	-0.634874	1.261040
O76	O	0.022849	-0.644347	1.158004
O77	O	0.022572	-0.540726	1.158046
O78	O	0.142884	-0.704162	1.158033
Cu79	Cu	0.085861	-0.619309	1.148638
Cu80	Cu	0.045275	-0.659911	1.270406
O81	O	0.142606	-0.600541	1.158074
N82	N	0.016726	-0.688471	1.356052
C83	C	0.039385	-0.537207	0.498225
C84	C	0.167616	-0.665350	0.498136
C85	C	0.091204	-0.741950	0.651272
C86	C	-0.037027	-0.613806	0.651361
C87	C	0.700360	-0.716215	0.676756
C88	C	0.700279	-0.715877	0.548436
C89	C	0.700133	-0.562725	0.472214
C90	C	0.700218	-0.563065	0.600533
C91	C	0.167511	-0.004552	0.497940
C92	C	0.039211	-0.004699	0.498341
C93	C	-0.036999	-0.004682	0.651449
C94	C	0.091344	-0.004663	0.651090
C95	C	-0.011156	-0.537302	1.209530
C96	C	-0.010806	-0.665617	1.209458
C97	C	0.142293	-0.741918	1.209514
C98	C	0.141950	-0.613596	1.209563
H99	H	0.063231	-0.497836	0.928300
O100	O	0.223427	-0.004292	0.452835
C101	C	0.333648	-0.057148	0.422554
C102	C	0.270364	-0.057510	0.473689
H103	H	0.371612	-0.100176	0.439390
H104	H	0.342518	-0.013986	0.410999
H105	H	0.333656	-0.057030	0.379393
H106	H	0.270310	-0.057650	0.516881
H107	H	0.261519	-0.100668	0.485191
O108	O	0.700147	-0.517627	0.416238
C109	C	0.753401	-0.449905	0.325354
C110	C	0.753455	-0.500966	0.388741
H111	H	0.796502	-0.436428	0.303099
H112	H	0.710317	-0.407667	0.331860
H113	H	0.753360	-0.467852	0.294156
H114	H	0.753518	-0.483076	0.419972
H115	H	0.796535	-0.543194	0.382187
H116	H	0.030065	-0.490230	0.460543
H117	H	-0.083976	-0.604550	0.689083
O118	O	0.186779	-0.602309	1.209552
C119	C	0.215080	-0.528777	1.209621
C120	C	0.164263	-0.541473	1.209619
H121	H	0.196891	-0.479597	1.209689
H122	H	0.257335	-0.534277	1.166521
H123	H	0.228626	-0.563084	1.252703
H124	H	0.150665	-0.507177	1.166566
H125	H	0.122042	-0.535995	1.252748
H126	H	-0.048928	-0.490363	1.209534
O127	O	-0.055729	-0.676779	1.209490
C128	C	-0.158836	-0.682499	1.262704
C129	C	-0.108009	-0.669856	1.262751
H130	H	-0.201122	-0.676893	1.305754
H131	H	-0.140725	-0.731699	1.262718
H132	H	-0.172303	-0.648218	1.219574
H133	H	-0.094520	-0.704097	1.305873
H134	H	-0.126149	-0.620639	1.262705
O135	O	0.102436	-0.004630	0.696033
C136	C	0.061982	-0.004661	0.800355
C137	C	0.049332	-0.004685	0.749509
H138	H	0.019060	-0.004719	0.843607
H139	H	0.073733	0.038445	0.783232
H140	H	0.102540	-0.047741	0.811879
H141	H	0.008766	0.038366	0.737962
H142	H	0.037616	-0.047819	0.766658
H143	H	0.700298	-0.753510	0.539047
O144	O	0.187282	-0.797957	1.209535
C145	C	0.216078	-0.899932	1.209459
C146	C	0.165069	-0.836502	1.209452
H147	H	0.198142	-0.931108	1.209379
H148	H	0.229575	-0.922218	1.252568
H149	H	0.258302	-0.893409	1.166386
H150	H	0.122812	-0.842971	1.252496
H151	H	0.151624	-0.814238	1.166315
O152	O	0.102224	-0.797946	0.696308
C153	C	0.061591	-0.861610	0.800643
C154	C	0.049034	-0.798162	0.749700
H155	H	0.018592	-0.861810	0.843818
H156	H	0.102083	-0.870646	0.812288
H157	H	0.073387	-0.899366	0.783516
H158	H	0.037212	-0.760367	0.766785
H159	H	0.008560	-0.789180	0.738063
O160	O	-0.092932	-0.004708	0.696595
C161	C	-0.156347	-0.004656	0.800953
C162	C	-0.092971	-0.004642	0.749885
H163	H	-0.156404	-0.004590	0.844046
H164	H	-0.165425	-0.047763	0.812704
H165	H	-0.194152	0.038422	0.783894
H166	H	-0.055127	-0.047691	0.766901
H167	H	-0.083947	0.038494	0.738142
H168	H	0.102355	-0.458618	0.810728
H169	H	0.700405	-0.753994	0.723681
O170	O	0.261994	-0.599716	0.933226
C171	C	0.369268	-0.649875	0.926338
C172	C	0.322873	-0.608876	0.890748
H173	H	0.418499	-0.657283	0.892010
H174	H	0.361874	-0.696527	0.956661
H175	H	0.361774	-0.626128	0.956700
H176	H	0.330339	-0.632568	0.860353
H177	H	0.330279	-0.562226	0.860464
H178	H	0.214562	-0.674609	0.460411
O179	O	0.700173	-0.518226	0.611838
C180	C	0.700247	-0.489918	0.685376
C181	C	0.700283	-0.540748	0.672662
H182	H	0.700349	-0.508113	0.734547
H183	H	0.657118	-0.447675	0.679913
H184	H	0.743296	-0.476347	0.651058
H185	H	0.657263	-0.554371	0.706969
H186	H	0.743441	-0.582957	0.678103
H187	H	0.029814	-0.004702	0.460721
H188	H	0.294416	-0.554643	0.810656
H189	H	0.063121	-0.497793	0.716436
O190	O	0.095631	-0.452748	0.761470
C191	C	-0.011618	-0.402578	0.811736
C192	C	0.034733	-0.443572	0.770745
H193	H	-0.060864	-0.395158	0.819258
H194	H	-0.004210	-0.355932	0.788003
H195	H	-0.004087	-0.426336	0.858333
H196	H	0.027230	-0.419870	0.724141
H197	H	0.027314	-0.490217	0.794526
H198	H	0.255124	-0.593799	0.620395
H199	H	0.301449	-0.601745	0.743862
O200	O	0.304357	-0.557021	0.656999
C201	C	0.401374	-0.551990	0.574800
C202	C	0.331274	-0.534805	0.592087
H203	H	0.423155	-0.534024	0.522319
H204	H	0.423299	-0.604469	0.592617
H205	H	0.409557	-0.530159	0.596675
H206	H	0.323035	-0.556594	0.570218
H207	H	0.309384	-0.482321	0.574281
O208	O	0.424025	-0.650899	0.706153
C209	C	0.417210	-0.752623	0.748053
C210	C	0.381580	-0.683053	0.737926
H211	H	0.382909	-0.778639	0.773730
H212	H	0.447557	-0.770915	0.776572
H213	H	0.447549	-0.759813	0.701308
H214	H	0.351208	-0.675810	0.784642
H215	H	0.351272	-0.664796	0.709379
H216	H	0.418982	-0.450689	0.632093
H217	H	0.301415	-0.411495	0.671309
H218	H	0.246280	-0.403511	0.611604
H219	H	0.111138	-0.285961	0.764475
O220	O	0.209475	-0.280896	0.562413
C221	C	0.204450	-0.261013	0.465356
C222	C	0.187269	-0.296650	0.535456
H223	H	0.186493	-0.273728	0.443543
H224	H	0.256925	-0.273763	0.443456
H225	H	0.182614	-0.209127	0.457180
H226	H	0.209063	-0.348544	0.543688
H227	H	0.134789	-0.283849	0.557321
O228	O	0.147873	-0.408549	0.813672
C229	C	0.093116	-0.401731	0.916382
C230	C	0.110310	-0.366100	0.846280
H231	H	0.062733	-0.367427	0.942765
H232	H	0.137088	-0.432058	0.929162
H233	H	0.066763	-0.432094	0.929114
H234	H	0.136647	-0.335703	0.833497
H235	H	0.066316	-0.335812	0.833537
