data_functionalizedCrystal
_audit_creation_method	'MofGen! by Chris Wilmer'
_symmetry_space_group_name_H-M	'P1'
_symmetry_Int_Tables_number	1
_symmetry_cell_setting	triclinic
loop_
_symmetry_equiv_pos_as_xyz
  x,y,z
_cell_length_a	13.032831
_cell_length_b	16.120484
_cell_length_c	16.120297
_cell_angle_alpha	84.385569
_cell_angle_beta	93.942761
_cell_angle_gamma	86.078521
loop_
_atom_site_label
_atom_site_type_symbol
_atom_site_fract_x
_atom_site_fract_y
_atom_site_fract_z
Zn1	Zn	1.523156	-0.519540	0.651743
Zn2	Zn	1.523026	-0.652216	0.519040
Zn3	Zn	1.359946	-0.495033	0.494599
Zn4	Zn	1.341486	-0.639855	0.639419
O5	O	1.436904	-0.576661	0.576200
O6	O	1.667419	-0.552570	0.649525
O7	O	1.509065	-0.626282	0.399653
O8	O	1.389376	-0.382150	0.510374
O9	O	1.667323	-0.650046	0.552029
O10	O	1.509286	-0.400156	0.625827
O11	O	1.389250	-0.510800	0.381697
O12	O	1.213218	-0.498814	0.498424
O13	O	1.357913	-0.628978	0.757199
O14	O	1.199655	-0.605214	0.604823
O15	O	1.491386	-0.540584	0.766253
O16	O	1.491165	-0.766710	0.540079
O17	O	1.357787	-0.757628	0.628522
C18	C	1.169026	-0.548014	0.547635
C19	C	1.054424	-0.535779	0.535435
C20	C	0.996648	-0.583046	0.582568
C21	C	0.878201	-0.570403	0.569959
C22	C	1.422485	-0.792285	0.585636
C23	C	1.416410	-0.884541	0.589711
C24	C	1.405322	-1.053456	0.597167
C25	C	1.468669	-1.099046	0.555266
C26	C	1.462500	-1.193036	0.559415
C27	C	1.411490	-0.959458	0.593019
C28	C	1.705827	-0.605421	0.604878
C29	C	1.820426	-0.617677	0.617099
C30	C	1.422605	-0.586136	0.792683
C31	C	1.416512	-0.590173	0.884935
C32	C	1.451405	-0.360199	0.566749
C33	C	1.457584	-0.267955	0.562721
C34	C	1.451210	-0.567170	0.360564
C35	C	1.457518	-0.562920	0.268323
C36	C	1.405351	-0.597522	1.053835
C37	C	1.468676	-0.555573	1.099428
C38	C	1.462466	-0.559662	1.193410
C39	C	1.411559	-0.593434	0.959845
H40	H	0.858646	-0.667504	0.666794
H41	H	1.346477	-0.636504	1.085384
C42	C	1.547099	-1.057067	0.503135
C43	C	1.528806	-1.072173	0.419533
C44	C	1.601037	-1.033521	0.371487
H45	H	1.540941	-0.998560	0.507111
H46	H	1.614671	-1.079123	0.523270
H47	H	1.461251	-1.050114	0.399403
H48	H	1.534973	-1.130672	0.415531
H49	H	1.668609	-1.055577	0.391623
H50	H	1.594873	-0.975016	0.375470
H51	H	1.588641	-1.043772	0.314760
H52	H	1.034873	-0.632872	0.632257
H53	H	0.839980	-0.520568	0.520273
H54	H	1.346460	-1.085013	0.636152
H55	H	1.016199	-0.485947	0.485752
C56	C	1.547230	-0.503517	1.057517
C57	C	1.604422	-0.465605	1.118052
C58	C	1.676785	-0.417641	1.079471
H59	H	1.592310	-0.538548	1.029887
H60	H	1.512435	-0.461653	1.017918
H61	H	1.639216	-0.507463	1.157636
H62	H	1.559371	-0.430560	1.145686
H63	H	1.641990	-0.375777	1.039872
H64	H	1.721858	-0.452678	1.051842
H65	H	1.715592	-0.391906	1.120536
