data_functionalizedCrystal
_audit_creation_method	'MofGen! by Chris Wilmer'
_symmetry_space_group_name_H-M	'P1'
_symmetry_Int_Tables_number	1
_symmetry_cell_setting	triclinic
loop_
_symmetry_equiv_pos_as_xyz
  x,y,z
_cell_length_a	22.610064
_cell_length_b	23.532407
_cell_length_c	23.532407
_cell_angle_alpha	82.848713
_cell_angle_beta	90.019125
_cell_angle_gamma	89.987421
loop_
_atom_site_label
_atom_site_type_symbol
_atom_site_fract_x
_atom_site_fract_y
_atom_site_fract_z
O1	O	-0.049122	-0.755249	-0.069141
O2	O	0.200878	-0.505249	0.180859
O3	O	0.450878	-0.255249	0.430859
O4	O	0.700878	-0.005249	0.680859
O5	O	-0.049140	-0.589386	-0.079144
O6	O	0.200860	-0.339386	0.170856
O7	O	0.450860	-0.089386	0.420856
O8	O	0.700860	0.160614	0.670856
O9	O	-0.049114	-0.677319	0.008789
O10	O	0.200886	-0.427319	0.258789
O11	O	0.450886	-0.177319	0.508789
O12	O	0.700886	0.072681	0.758789
O13	O	-0.049148	-0.667316	-0.157074
O14	O	0.200852	-0.417316	0.092926
O15	O	0.450852	-0.167316	0.342926
O16	O	0.700852	0.082684	0.592926
O17	O	0.049255	-0.677332	0.008804
O18	O	0.299255	-0.427332	0.258804
O19	O	0.549255	-0.177332	0.508804
O20	O	0.799255	0.072668	0.758804
O21	O	0.049229	-0.589399	-0.079129
O22	O	0.299229	-0.339399	0.170871
O23	O	0.549229	-0.089399	0.420871
O24	O	0.799229	0.160601	0.670871
O25	O	0.049248	-0.755262	-0.069126
O26	O	0.299248	-0.505262	0.180874
O27	O	0.549248	-0.255262	0.430874
O28	O	0.799248	-0.005262	0.680874
Zn29	Zn	0.064856	-0.672333	-0.074125
Zn30	Zn	0.314856	-0.422333	0.175875
Zn31	Zn	0.564856	-0.172333	0.425875
Zn32	Zn	0.814856	0.077667	0.675875
Zn33	Zn	-0.064749	-0.672315	-0.074145
Zn34	Zn	0.185251	-0.422315	0.175855
Zn35	Zn	0.435251	-0.172315	0.425855
Zn36	Zn	0.685251	0.077685	0.675855
O37	O	0.049221	-0.667329	-0.157059
O38	O	0.299221	-0.417329	0.092941
O39	O	0.549221	-0.167329	0.342941
O40	O	0.799221	0.082671	0.592941
C41	C	0.000042	-0.568176	-0.078882
C42	C	0.250042	-0.318176	0.171118
C43	C	0.500042	-0.068176	0.421118
C44	C	0.750042	0.181824	0.671118
C45	C	0.000036	-0.504959	-0.078116
C46	C	0.250036	-0.254959	0.171884
C47	C	0.500036	-0.004959	0.421884
C48	C	0.750036	0.245041	0.671884
N49	N	-0.153202	-0.672304	-0.074154
N50	N	0.096798	-0.422304	0.175846
N51	N	0.346798	-0.172304	0.425846
N52	N	0.596798	0.077696	0.675846
C53	C	0.000074	-0.677071	0.030013
C54	C	0.250074	-0.427071	0.280013
C55	C	0.500074	-0.177071	0.530013
C56	C	0.750074	0.072929	0.780013
C57	C	0.000083	-0.676305	0.093230
C58	C	0.250083	-0.426305	0.343230
C59	C	0.500083	-0.176305	0.593230
C60	C	0.750083	0.073695	0.843230
C61	C	-0.561831	-0.711350	-0.035273
C62	C	-0.311831	-0.461350	0.214727
C63	C	-0.061831	-0.211350	0.464727
C64	C	0.188169	0.038650	0.714727
C65	C	-0.623751	-0.711354	-0.035270
C66	C	-0.373751	-0.461354	0.214730
C67	C	-0.123751	-0.211354	0.464730
C68	C	0.126249	0.038646	0.714730
O69	O	-0.655760	-0.744544	-0.002236
O70	O	-0.405760	-0.494544	0.247764
O71	O	-0.155760	-0.244544	0.497764
O72	O	0.094240	0.005456	0.747764
N73	N	-0.654739	-0.672345	-0.074126
N74	N	-0.404739	-0.422345	0.175874
N75	N	-0.154739	-0.172345	0.425874
N76	N	0.095261	0.077655	0.675874
C77	C	-0.623803	-0.633332	-0.112990
C78	C	-0.373803	-0.383332	0.137010
C79	C	-0.123803	-0.133332	0.387010
C80	C	0.126197	0.116668	0.637010
O81	O	-0.655846	-0.600152	-0.146040
O82	O	-0.405846	-0.350152	0.103960
O83	O	-0.155846	-0.100152	0.353960
O84	O	0.094154	0.149848	0.603960
C85	C	-0.561884	-0.633331	-0.112995
C86	C	-0.311884	-0.383331	0.137005
C87	C	-0.061884	-0.133331	0.387005
C88	C	0.188116	0.116669	0.637005
C89	C	-0.530900	-0.672339	-0.074133
C90	C	-0.280900	-0.422339	0.175867
C91	C	-0.030900	-0.172339	0.425867
C92	C	0.219100	0.077661	0.675867
C93	C	-0.530847	-0.750356	0.003585
C94	C	-0.280847	-0.500356	0.253585
C95	C	-0.030847	-0.250356	0.503585
C96	C	0.219153	-0.000356	0.753585
C97	C	-0.468931	-0.750351	0.003583
C98	C	-0.218931	-0.500351	0.253583
C99	C	0.031069	-0.250351	0.503583
C100	C	0.281069	-0.000351	0.753583
C101	C	-0.438000	-0.711340	-0.035278
C102	C	-0.188000	-0.461340	0.214722
C103	C	0.062000	-0.211340	0.464722
C104	C	0.312000	0.038660	0.714722
C105	C	-0.468984	-0.672334	-0.074136
C106	C	-0.218984	-0.422334	0.175864
C107	C	0.031016	-0.172334	0.425864
C108	C	0.281016	0.077666	0.675864
C109	C	-0.530950	-0.594321	-0.151862
C110	C	-0.280950	-0.344321	0.098138
C111	C	-0.030950	-0.094321	0.348138
C112	C	0.219050	0.155679	0.598138
C113	C	-0.469027	-0.594324	-0.151864
C114	C	-0.219027	-0.344324	0.098136
C115	C	0.030973	-0.094324	0.348136
C116	C	0.280973	0.155676	0.598136
C117	C	-0.438043	-0.633332	-0.113002
C118	C	-0.188043	-0.383332	0.136998
C119	C	0.061957	-0.133332	0.386998
C120	C	0.311957	0.116668	0.636998
C121	C	-0.376138	-0.633318	-0.112998
C122	C	-0.126138	-0.383318	0.137002
C123	C	0.123862	-0.133318	0.387002
C124	C	0.373862	0.116682	0.637002
N125	N	-0.345150	-0.672328	-0.074143
N126	N	-0.095150	-0.422328	0.175857
N127	N	0.154850	-0.172328	0.425857
N128	N	0.404850	0.077672	0.675857
C129	C	-0.376081	-0.711339	-0.035283
C130	C	-0.126081	-0.461339	0.214717
C131	C	0.123919	-0.211339	0.464717
C132	C	0.373919	0.038661	0.714717
C133	C	-0.753837	-0.633338	-0.112977
C134	C	-0.503837	-0.383338	0.137023
C135	C	-0.253837	-0.133338	0.387023
C136	C	-0.003837	0.116662	0.637023
C137	C	-0.815755	-0.633336	-0.112970
C138	C	-0.565755	-0.383336	0.137030
C139	C	-0.315755	-0.133336	0.387030
C140	C	-0.065755	0.116664	0.637030
C141	C	-0.815698	-0.711359	-0.035251
C142	C	-0.565698	-0.461359	0.214749
C143	C	-0.315698	-0.211359	0.464749
C144	C	-0.065698	0.038641	0.714749
C145	C	-0.753779	-0.711358	-0.035256
C146	C	-0.503779	-0.461358	0.214744
C147	C	-0.253779	-0.211358	0.464744
C148	C	-0.003779	0.038642	0.714744
C149	C	-0.722849	-0.672348	-0.074122
C150	C	-0.472849	-0.422348	0.175878
C151	C	-0.222849	-0.172348	0.425878
C152	C	0.027151	0.077652	0.675878
C153	C	-0.246054	-0.711325	-0.035290
C154	C	0.003946	-0.461325	0.214710
C155	C	0.253946	-0.211325	0.464710
C156	C	0.503946	0.038675	0.714710
C157	C	-0.184133	-0.711315	-0.035294
C158	C	0.065867	-0.461315	0.214706
C159	C	0.315867	-0.211315	0.464706
C160	C	0.565867	0.038685	0.714706
C161	C	-0.184195	-0.633293	-0.113015
C162	C	0.065805	-0.383293	0.136985
C163	C	0.315805	-0.133293	0.386985
C164	C	0.565805	0.116707	0.636985
C165	C	-0.246110	-0.633301	-0.113009
C166	C	0.003890	-0.383301	0.136991
C167	C	0.253890	-0.133301	0.386991
C168	C	0.503890	0.116699	0.636991
C169	C	-0.277038	-0.672322	-0.074144
C170	C	-0.027038	-0.422322	0.175856
C171	C	0.222962	-0.172322	0.425856
C172	C	0.472962	0.077678	0.675856
O173	O	-0.344090	-0.600147	-0.146017
O174	O	-0.094090	-0.350147	0.103983
O175	O	0.155910	-0.100147	0.353983
O176	O	0.405910	0.149853	0.603983
O177	O	-0.344031	-0.744518	-0.002244
O178	O	-0.094031	-0.494518	0.247756
O179	O	0.155969	-0.244518	0.497756
O180	O	0.405969	0.005482	0.747756
N181	N	0.153309	-0.672349	-0.074111
N182	N	0.403309	-0.422349	0.175889
N183	N	0.653309	-0.172349	0.425889
N184	N	0.903309	0.077651	0.675889
C185	C	0.000064	-0.776472	-0.069388
C186	C	0.250064	-0.526472	0.180612
C187	C	0.500064	-0.276472	0.430612
C188	C	0.750064	-0.026472	0.680612
C189	C	0.000066	-0.839689	-0.070154
C190	C	0.250066	-0.589689	0.179846
C191	C	0.500066	-0.339689	0.429846
C192	C	0.750066	-0.089689	0.679846
C193	C	0.000053	-0.105856	-0.125350
C194	C	0.250053	0.144144	0.124650
C195	C	0.500053	0.394144	0.374650
C196	C	0.750053	0.644144	0.624650
C197	C	0.000056	-0.046456	-0.124638
C198	C	0.250056	0.203544	0.125362
C199	C	0.500056	0.453544	0.375362
C200	C	0.750056	0.703544	0.625362
O201	O	0.000069	-0.009712	-0.168424
O202	O	0.250069	0.240288	0.081576
O203	O	0.500069	0.490288	0.331576
O204	O	0.750069	0.740288	0.581576
N205	N	0.000066	-0.023830	-0.072362
N206	N	0.250066	0.226170	0.177638
N207	N	0.500066	0.476170	0.427638
N208	N	0.750066	0.726170	0.677638
C209	C	0.000078	-0.060607	-0.020794
C210	C	0.250078	0.189393	0.229206
C211	C	0.500078	0.439393	0.479206
C212	C	0.750078	0.689393	0.729206
O213	O	0.000088	-0.035908	0.023737
O214	O	0.250088	0.214092	0.273737
O215	O	0.500088	0.464092	0.523737
O216	O	0.750088	0.714092	0.773737
C217	C	0.000079	-0.120007	-0.021506
C218	C	0.250079	0.129993	0.228494
C219	C	0.500079	0.379993	0.478494
C220	C	0.750079	0.629993	0.728494
C221	C	0.000063	-0.142629	-0.073785
C222	C	0.250063	0.107371	0.176215
C223	C	0.500063	0.357371	0.426215
C224	C	0.750063	0.607371	0.676215
C225	C	0.000037	-0.128480	-0.177625
C226	C	0.250037	0.121520	0.072375
C227	C	0.500037	0.371520	0.322375
C228	C	0.750037	0.621520	0.572375
C229	C	0.000033	-0.187876	-0.178336
C230	C	0.250033	0.062124	0.071664
C231	C	0.500033	0.312124	0.321664
C232	C	0.750033	0.562124	0.571664
C233	C	0.000043	-0.224649	-0.126772
C234	C	0.250043	0.025351	0.123228
C235	C	0.500043	0.275351	0.373228
C236	C	0.750043	0.525351	0.623228
C237	C	0.000058	-0.202025	-0.074496
C238	C	0.250058	0.047975	0.175504
C239	C	0.500058	0.297975	0.425504
C240	C	0.750058	0.547975	0.675504
C241	C	0.000095	-0.156783	0.030062
C242	C	0.250095	0.093217	0.280062
C243	C	0.500095	0.343217	0.530062
C244	C	0.750095	0.593217	0.780062
C245	C	0.000096	-0.216185	0.029345
C246	C	0.250096	0.033815	0.279345
C247	C	0.500096	0.283815	0.529345
C248	C	0.750096	0.533815	0.779345
C249	C	0.000080	-0.238808	-0.022934
C250	C	0.250080	0.011192	0.227066
C251	C	0.500080	0.261192	0.477066
C252	C	0.750080	0.511192	0.727066
C253	C	0.000063	-0.298194	-0.023643
C254	C	0.250063	-0.048194	0.226357
C255	C	0.500063	0.201806	0.476357
C256	C	0.750063	0.451806	0.726357
N257	N	0.000054	-0.320821	-0.075920
N258	N	0.250054	-0.070821	0.174080
N259	N	0.500054	0.179179	0.424080
N260	N	0.750054	0.429179	0.674080
C261	C	0.000043	-0.284048	-0.127484
C262	C	0.250043	-0.034048	0.122516
C263	C	0.500043	0.215952	0.372516
C264	C	0.750043	0.465952	0.622516
C265	C	0.000078	0.064135	-0.019302
C266	C	0.250078	0.314135	0.230698
C267	C	0.500078	0.564135	0.480698
C268	C	0.750078	0.814135	0.730698
C269	C	0.000074	0.123533	-0.018589
C270	C	0.250074	0.373533	0.231411
C271	C	0.500074	0.623533	0.481411
C272	C	0.750074	0.873533	0.731411
C273	C	0.000053	0.137680	-0.122434
C274	C	0.250053	0.387680	0.127566
C275	C	0.500053	0.637680	0.377566
C276	C	0.750053	0.887680	0.627566
C277	C	0.000053	0.078281	-0.123146
C278	C	0.250053	0.328281	0.126854
C279	C	0.500053	0.578281	0.376854
C280	C	0.750053	0.828281	0.626854
C281	C	0.000069	0.041509	-0.071578
C282	C	0.250069	0.291509	0.178422
C283	C	0.500069	0.541509	0.428422
C284	C	0.750069	0.791509	0.678422
C285	C	0.000033	-0.408784	-0.128974
C286	C	0.250033	-0.158784	0.121026
C287	C	0.500033	0.091216	0.371026
C288	C	0.750033	0.341216	0.621026
C289	C	0.000025	-0.468186	-0.129680
C290	C	0.250025	-0.218186	0.120320
C291	C	0.500025	0.031814	0.370320
C292	C	0.750025	0.281814	0.620320
C293	C	0.000049	-0.482329	-0.025836
C294	C	0.250049	-0.232329	0.224164
C295	C	0.500049	0.017671	0.474164
C296	C	0.750049	0.267671	0.724164
C297	C	0.000053	-0.422932	-0.025129
C298	C	0.250053	-0.172932	0.224871
C299	C	0.500053	0.077068	0.474871
C300	C	0.750053	0.327068	0.724871
C301	C	0.000047	-0.386161	-0.076702
C302	C	0.250047	-0.136161	0.173298
C303	C	0.500047	0.113839	0.423298
C304	C	0.750047	0.363839	0.673298
O305	O	0.000053	-0.334974	0.020119
O306	O	0.250053	-0.084974	0.270119
O307	O	0.500053	0.165026	0.520119
O308	O	0.750053	0.415026	0.770119
O309	O	0.000042	-0.308756	-0.172007
O310	O	0.250042	-0.058756	0.077993
O311	O	0.500042	0.191244	0.327993
O312	O	0.750042	0.441244	0.577993
C313	C	0.000032	-0.667577	-0.178283
C314	C	0.250032	-0.417577	0.071717
C315	C	0.500032	-0.167577	0.321717
C316	C	0.750032	0.082423	0.571717
C317	C	0.000019	-0.668343	-0.241500
C318	C	0.250019	-0.418343	0.008500
C319	C	0.500019	-0.168343	0.258500
C320	C	0.750019	0.081657	0.508500
C321	C	0.000039	-0.621110	0.359397
C322	C	0.250039	-0.371110	0.609397
C323	C	0.500039	-0.121110	0.859397
C324	C	0.750039	0.128890	1.109397
C325	C	0.000044	-0.621821	0.299997
C326	C	0.250044	-0.371821	0.549997
C327	C	0.500044	-0.121821	0.799997
C328	C	0.750044	0.128179	1.049997
O329	O	0.000020	-0.578035	0.263252
O330	O	0.250020	-0.328035	0.513252
O331	O	0.500020	-0.078035	0.763252
O332	O	0.750020	0.171965	1.013252
N333	N	0.000057	-0.674097	0.277371
N334	N	0.250057	-0.424097	0.527371
N335	N	0.500057	-0.174097	0.777371
N336	N	0.750057	0.075903	1.027371
C337	C	0.000059	-0.725666	0.314148
C338	C	0.250059	-0.475666	0.564148
C339	C	0.500059	-0.225666	0.814148
C340	C	0.750059	0.024334	1.064148
O341	O	0.000070	-0.770196	0.289449
O342	O	0.250070	-0.520196	0.539449
O343	O	0.500070	-0.270196	0.789449
O344	O	0.750070	-0.020196	1.039449
C345	C	0.000050	-0.724954	0.373547
C346	C	0.250050	-0.474954	0.623547
C347	C	0.500050	-0.224954	0.873547
C348	C	0.750050	0.025046	1.123547
C349	C	0.000043	-0.672674	0.396170
C350	C	0.250043	-0.422674	0.646170
C351	C	0.500043	-0.172674	0.896170
C352	C	0.750043	0.077326	1.146170
C353	C	0.000032	-0.568834	0.382020
C354	C	0.250032	-0.318834	0.632020
C355	C	0.500032	-0.068834	0.882020
C356	C	0.750032	0.181166	1.132020
C357	C	0.000029	-0.568123	0.441417
C358	C	0.250029	-0.318123	0.691417
C359	C	0.500029	-0.068123	0.941417
C360	C	0.750029	0.181877	1.191417
C361	C	0.000032	-0.619687	0.478189
C362	C	0.250032	-0.369687	0.728189
C363	C	0.500032	-0.119687	0.978189
C364	C	0.750032	0.130313	1.228189
C365	C	0.000040	-0.671963	0.455566
C366	C	0.250040	-0.421963	0.705566
C367	C	0.500040	-0.171963	0.955566
C368	C	0.750040	0.078037	1.205566
C369	C	0.000048	-0.776521	0.410324
C370	C	0.250048	-0.526521	0.660324
C371	C	0.500048	-0.276521	0.910324
C372	C	0.750048	-0.026521	1.160324
C373	C	0.000039	-0.775805	0.469726
C374	C	0.250039	-0.525805	0.719726
C375	C	0.500039	-0.275805	0.969726
C376	C	0.750039	-0.025805	1.219726
C377	C	0.000032	-0.723525	0.492349
C378	C	0.250032	-0.473525	0.742349
C379	C	0.500032	-0.223525	0.992349
C380	C	0.750032	0.026475	1.242349
C381	C	0.000040	-0.722816	0.551735
C382	C	0.250040	-0.472816	0.801735
C383	C	0.500040	-0.222816	1.051735
C384	C	0.750040	0.027184	1.301735
N385	N	0.000027	-0.670539	0.574361
N386	N	0.250027	-0.420539	0.824361
N387	N	0.500027	-0.170539	1.074361
N388	N	0.750027	0.079461	1.324361
C389	C	0.000024	-0.618975	0.537589
C390	C	0.250024	-0.368975	0.787589
C391	C	0.500024	-0.118975	1.037589
C392	C	0.750024	0.131025	1.287589
C393	C	0.000077	-0.727157	0.189406
C394	C	0.250077	-0.477157	0.439406
C395	C	0.500077	-0.227157	0.689406
C396	C	0.750077	0.022843	0.939406
C397	C	0.000090	-0.727870	0.130008
C398	C	0.250090	-0.477870	0.380008
C399	C	0.500090	-0.227870	0.630008
C400	C	0.750090	0.022130	0.880008
C401	C	0.000074	-0.624025	0.115861
C402	C	0.250074	-0.374025	0.365861
C403	C	0.500074	-0.124025	0.615861
C404	C	0.750074	0.125975	0.865861
C405	C	0.000065	-0.623313	0.175260
C406	C	0.250065	-0.373313	0.425260
C407	C	0.500065	-0.123313	0.675260
C408	C	0.750065	0.126687	0.925260
C409	C	0.000064	-0.674881	0.212032
C410	C	0.250064	-0.424881	0.462032
C411	C	0.500064	-0.174881	0.712032
C412	C	0.750064	0.075119	0.962032
C413	C	0.000017	-0.617486	0.662325
C414	C	0.250017	-0.367486	0.912325
C415	C	0.500017	-0.117486	1.162325
C416	C	0.750017	0.132514	1.412325
C417	C	0.000016	-0.616779	0.721727
C418	C	0.250016	-0.366779	0.971727
C419	C	0.500016	-0.116779	1.221727
C420	C	0.750016	0.133221	1.471727
C421	C	0.000028	-0.720623	0.735869
C422	C	0.250028	-0.470623	0.985869
C423	C	0.500028	-0.220623	1.235869
C424	C	0.750028	0.029377	1.485869
C425	C	0.000033	-0.721330	0.676473
C426	C	0.250033	-0.471330	0.926473
C427	C	0.500033	-0.221330	1.176473
C428	C	0.750033	0.028670	1.426473
C429	C	0.000025	-0.669757	0.639701
C430	C	0.250025	-0.419757	0.889701
C431	C	0.500025	-0.169757	1.139701
C432	C	0.750025	0.080243	1.389701
O433	O	0.000061	-0.766579	0.588514
O434	O	0.250061	-0.516579	0.838514
O435	O	0.500061	-0.266579	1.088514
O436	O	0.750061	-0.016579	1.338514
O437	O	0.000005	-0.574452	0.562296
O438	O	0.250005	-0.324452	0.812296
O439	O	0.500005	-0.074452	1.062296
O440	O	0.750005	0.175548	1.312296
H441	H	-0.158907	-0.743080	-0.003646
H442	H	0.091093	-0.493080	0.246354
H443	H	0.341093	-0.243080	0.496354
H444	H	0.591093	0.006920	0.746354
H445	H	0.000058	-0.404512	0.017441
H446	H	0.250058	-0.154512	0.267441
H447	H	0.500058	0.095488	0.517441
H448	H	0.750058	0.345488	0.767441
Br449	Br	-0.288018	-0.764282	0.017455
Br450	Br	-0.038018	-0.514282	0.267455
Br451	Br	0.211982	-0.264282	0.517455
Br452	Br	0.461982	-0.014282	0.767455
Br453	Br	0.000033	-0.845794	0.519629
Br454	Br	0.250033	-0.595794	0.769629
Br455	Br	0.500033	-0.345794	1.019629
Br456	Br	0.750033	-0.095794	1.269629
Br457	Br	0.000104	-0.126096	0.101018
Br458	Br	0.250104	0.123904	0.351018
Br459	Br	0.500104	0.373904	0.601018
Br460	Br	0.750104	0.623904	0.851018
H461	H	-0.159001	-0.601530	-0.144653
H462	H	0.090999	-0.351530	0.105347
H463	H	0.340999	-0.101530	0.355347
H464	H	0.590999	0.148470	0.605347
H465	H	0.000012	-0.486602	-0.172255
H466	H	0.250012	-0.236602	0.077745
H467	H	0.500012	0.013398	0.327745
H468	H	0.750012	0.263398	0.577745
H469	H	-0.443847	-0.562557	-0.183515
H470	H	-0.193847	-0.312557	0.066485
H471	H	0.056153	-0.062557	0.316485
H472	H	0.306153	0.187443	0.566485
H473	H	0.000029	-0.378852	-0.170970
H474	H	0.250029	-0.128852	0.079030
H475	H	0.500029	0.121148	0.329030
H476	H	0.750029	0.371148	0.579030
Br477	Br	0.000040	0.187598	-0.192415
Br478	Br	0.250040	0.437598	0.057585
Br479	Br	0.500040	0.687598	0.307585
Br480	Br	0.750040	0.937598	0.557585
Br481	Br	-0.426888	-0.803295	0.056322
Br482	Br	-0.176888	-0.553295	0.306322
Br483	Br	0.073112	-0.303295	0.556322
Br484	Br	0.323112	-0.053295	0.806322
H485	H	0.000019	-0.206289	-0.220908
H486	H	0.250019	0.043711	0.029092
H487	H	0.500019	0.293711	0.279092
H488	H	0.750019	0.543711	0.529092
H489	H	0.000047	-0.763901	0.658053
H490	H	0.250047	-0.513901	0.908053
H491	H	0.500047	-0.263901	1.158053
H492	H	0.750047	-0.013901	1.408053
H493	H	0.000080	-0.769152	0.219343
H494	H	0.250080	-0.519152	0.469343
H495	H	0.500080	-0.269152	0.719343
H496	H	0.750080	-0.019152	0.969343
H497	H	-0.840978	-0.601566	-0.144609
H498	H	-0.590978	-0.351566	0.105391
H499	H	-0.340978	-0.101566	0.355391
H500	H	-0.090978	0.148434	0.605391
Br501	Br	0.000065	-0.532246	0.044141
Br502	Br	0.250065	-0.282246	0.294141
Br503	Br	0.500065	-0.032246	0.544141
Br504	Br	0.750065	0.217754	0.794141
Br505	Br	0.000077	0.154227	0.052364
Br506	Br	0.250077	0.404227	0.302364
Br507	Br	0.500077	0.654227	0.552364
Br508	Br	0.750077	0.904227	0.802364
Br509	Br	0.000120	-0.266088	0.099335
Br510	Br	0.250120	-0.016088	0.349335
Br511	Br	0.500120	0.233912	0.599335
Br512	Br	0.750120	0.483912	0.849335
Br513	Br	0.000009	-0.545823	0.752425
Br514	Br	0.250009	-0.295823	1.002425
Br515	Br	0.500009	-0.045823	1.252425
Br516	Br	0.750009	0.204177	1.502425
H517	H	-0.556169	-0.562558	-0.183507
H518	H	-0.306169	-0.312558	0.066493
H519	H	-0.056169	-0.062558	0.316493
H520	H	0.193831	0.187442	0.566493
Br521	Br	-0.288159	-0.580352	-0.165744
Br522	Br	-0.038159	-0.330352	0.084256
Br523	Br	0.211841	-0.080352	0.334256
Br524	Br	0.461841	0.169648	0.584256
H525	H	-0.840894	-0.743125	-0.003609
H526	H	-0.590894	-0.493125	0.246391
H527	H	-0.340894	-0.243125	0.496391
H528	H	-0.090894	0.006875	0.746391
H529	H	0.000053	-0.819093	0.391915
H530	H	0.250053	-0.569093	0.641915
H531	H	0.500053	-0.319093	0.891915
H532	H	0.750053	-0.069093	1.141915
Br533	Br	0.000023	-0.078583	-0.247615
Br534	Br	0.250023	0.171417	0.002385
Br535	Br	0.500023	0.421417	0.252385
Br536	Br	0.750023	0.671417	0.502385
Br537	Br	0.000013	-0.497168	0.472109
Br538	Br	0.250013	-0.247168	0.722109
Br539	Br	0.500013	0.002832	0.972109
Br540	Br	0.750013	0.252832	1.222109
H541	H	-0.556026	-0.782126	0.035230
H542	H	-0.306026	-0.532126	0.285230
H543	H	-0.056026	-0.282126	0.535230
H544	H	0.193974	-0.032126	0.785230
Br545	Br	0.000006	-0.547492	0.612431
Br546	Br	0.250006	-0.297492	0.862431
Br547	Br	0.500006	-0.047492	1.112431
Br548	Br	0.750006	0.202508	1.362431
H549	H	-0.728657	-0.601566	-0.144625
H550	H	-0.478657	-0.351566	0.105375
H551	H	-0.228657	-0.101566	0.355375
H552	H	0.021343	0.148434	0.605375
H553	H	0.000034	-0.762606	0.765820
H554	H	0.250034	-0.512606	1.015820
H555	H	0.500034	-0.262606	1.265820
H556	H	0.750034	-0.012606	1.515820
H557	H	0.000044	0.059866	-0.165717
H558	H	0.250044	0.309866	0.084283
H559	H	0.500044	0.559866	0.334283
H560	H	0.750044	0.809866	0.584283
H561	H	0.000027	-0.526842	0.352085
H562	H	0.250027	-0.276842	0.602085
H563	H	0.500027	-0.026842	0.852085
H564	H	0.750027	0.223158	1.102085
Br565	Br	0.000094	0.014235	0.050690
Br566	Br	0.250094	0.264235	0.300690
Br567	Br	0.500094	0.514235	0.550690
Br568	Br	0.750094	0.764235	0.800690
H569	H	-0.728556	-0.743122	-0.003612
H570	H	-0.478556	-0.493122	0.246388
H571	H	-0.228556	-0.243122	0.496388
H572	H	0.021444	0.006878	0.746388
H573	H	0.000062	-0.580742	0.193674
H574	H	0.250062	-0.330742	0.443674
H575	H	0.500062	-0.080742	0.693674
H576	H	0.750062	0.169258	0.943674
Br577	Br	0.000110	-0.798823	0.099313
Br578	Br	0.250110	-0.548823	0.349313
Br579	Br	0.500110	-0.298823	0.599313
Br580	Br	0.750110	-0.048823	0.849313
H581	H	0.000071	-0.582038	0.085909
H582	H	0.250071	-0.332038	0.335909
H583	H	0.500071	-0.082038	0.585909
H584	H	0.750071	0.167962	0.835909
