data_functionalizedCrystal
_audit_creation_method	'MofGen! by Chris Wilmer'
_symmetry_space_group_name_H-M	'P1'
_symmetry_Int_Tables_number	1
_symmetry_cell_setting	triclinic
loop_
_symmetry_equiv_pos_as_xyz
  x,y,z
_cell_length_a	11.169417
_cell_length_b	15.297327
_cell_length_c	11.169409
_cell_angle_alpha	80.360209
_cell_angle_beta	90.019824
_cell_angle_gamma	99.707226
loop_
_atom_site_label
_atom_site_type_symbol
_atom_site_fract_x
_atom_site_fract_y
_atom_site_fract_z
Zn1	Zn	1.752166	-0.359064	0.761131
Zn2	Zn	1.717262	-0.509956	0.595155
Zn3	Zn	1.551440	-0.359119	0.560478
Zn4	Zn	1.516683	-0.509883	0.795783
O5	O	1.634387	-0.434505	0.678137
O6	O	1.915484	-0.379088	0.739125
O7	O	1.695203	-0.490001	0.422618
O8	O	1.607220	-0.232867	0.558081
O9	O	1.889840	-0.489948	0.617183
O10	O	1.754693	-0.232827	0.705500
O11	O	1.573374	-0.379181	0.397141
O12	O	1.378881	-0.379110	0.591682
O13	O	1.547982	-0.489823	0.959124
O14	O	1.353345	-0.489876	0.764559
O15	O	1.720991	-0.379016	0.933665
O16	O	1.661501	-0.636191	0.650783
O17	O	1.514136	-0.636137	0.798184
C18	C	1.322566	-0.434492	0.678118
C19	C	1.189162	-0.434508	0.678144
C20	C	1.580292	-0.668898	0.732033
C21	C	1.557259	-0.769172	0.755130
C22	C	1.799500	-1.051814	0.513469
C23	C	1.821139	-0.957602	0.491762
C24	C	1.755172	-0.910490	0.557602
C25	C	1.667560	-0.957599	0.645153
C26	C	1.645911	-1.051821	0.666855
C27	C	1.601583	-0.910496	0.710988
C28	C	1.513971	-0.957606	0.798539
C29	C	1.492327	-1.051818	0.820238
C30	C	1.558295	-1.098930	0.754397
C31	C	1.623232	-0.816275	0.689286
C32	C	1.469643	-0.816281	0.842672
C33	C	1.448003	-0.910493	0.864379
C34	C	1.947426	-0.434520	0.678156
C35	C	2.080825	-0.434526	0.678165
C36	C	1.634503	-0.434405	0.991157
C37	C	1.634552	-0.434362	1.124547
C38	C	1.688727	-0.199198	0.624057
C39	C	1.711884	-0.098924	0.601011
C40	C	1.634357	-0.434540	0.366320
C41	C	1.634599	-0.434329	0.232872
H42	H	1.694565	-0.777926	0.618002
H43	H	1.415924	-0.777923	0.896283
C44	C	1.397213	-1.103130	0.915196
C45	C	1.392355	-1.195723	0.920088
C46	C	1.304742	-1.243017	1.007540
H47	H	1.418203	-1.087738	0.992352
H48	H	1.320076	-1.087804	0.894027
H49	H	1.469475	-1.211042	0.941265
H50	H	1.371350	-1.211142	0.842954
H51	H	1.227604	-1.227691	0.986370
H52	H	1.325739	-1.227618	1.084690
H53	H	1.301425	-1.305846	1.010863
C54	C	1.778890	-0.808201	0.533911
C55	C	1.869759	-0.777028	0.443172
C56	C	1.891660	-0.682801	0.421328
H57	H	1.706432	-0.786832	0.508133
H58	H	1.804590	-0.786798	0.606429
H59	H	1.844055	-0.798421	0.370670
H60	H	1.942235	-0.798373	0.468925
H61	H	1.917360	-0.661399	0.493846
H62	H	1.819196	-0.661441	0.395555
H63	H	1.953324	-0.661638	0.359768
C64	C	1.352871	-0.961484	0.959520
C65	C	1.299748	-0.900069	1.012563
C66	C	1.212121	-0.947008	1.100223
H67	H	1.292038	-0.998304	0.922180
H68	H	1.390310	-0.998156	1.020361
H69	H	1.262308	-0.863412	0.951733
H70	H	1.360550	-0.863247	1.049927
H71	H	1.249560	-0.983681	1.161064
H72	H	1.151296	-0.983826	1.062873
H73	H	1.176074	-0.905346	1.136232
C74	C	1.916357	-0.906620	0.396715
C75	C	1.969522	-0.968040	0.343726
C76	C	2.057261	-0.921108	0.256174
H77	H	1.879041	-0.869922	0.335823
H78	H	1.977144	-0.869826	0.434173
H79	H	1.908746	-1.004818	0.306268
H80	H	2.006862	-1.004740	0.404588
H81	H	2.118048	-0.884314	0.293632
H82	H	2.019935	-0.884411	0.195290
H83	H	2.093352	-0.962774	0.220218
C84	C	1.871205	-1.103028	0.442183
C85	C	1.935707	-1.157035	0.522613
C86	C	2.001772	-1.204224	0.456972
H87	H	1.816942	-1.139902	0.398344
H88	H	1.926549	-1.061523	0.386947
H89	H	1.880369	-1.198535	0.577828
H90	H	1.989991	-1.120183	0.566454
H91	H	2.057116	-1.162719	0.401735
H92	H	1.947500	-1.241093	0.413135
H93	H	2.045553	-1.240867	0.511532
H94	H	1.540684	-1.175646	0.772069
