data_functionalizedCrystal
_audit_creation_method	'MofGen! by Chris Wilmer'
_symmetry_space_group_name_H-M	'P1'
_symmetry_Int_Tables_number	1
_symmetry_cell_setting	triclinic
loop_
_symmetry_equiv_pos_as_xyz
  x,y,z
_cell_length_a	27.732048
_cell_length_b	26.809956
_cell_length_c	27.732048
_cell_angle_alpha	90.000636
_cell_angle_beta	97.357345
_cell_angle_gamma	89.996742
loop_
_atom_site_label
_atom_site_type_symbol
_atom_site_fract_x
_atom_site_fract_y
_atom_site_fract_z
O1	O	0.640931	-0.041421	-0.057510
O2	O	0.974264	0.291913	0.275823
O3	O	1.307598	0.625246	0.609157
O4	O	0.500138	-0.041436	-0.066256
O5	O	0.833471	0.291897	0.267078
O6	O	1.166804	0.625230	0.600411
O7	O	0.574907	-0.041419	0.008514
O8	O	0.908240	0.291915	0.341847
O9	O	1.241574	0.625248	0.675180
O10	O	0.566162	-0.041439	-0.132280
O11	O	0.899495	0.291895	0.201054
O12	O	1.232828	0.625228	0.534387
O13	O	0.574893	0.041541	0.008502
O14	O	0.908226	0.374874	0.341836
O15	O	1.241560	0.708207	0.675169
O16	O	0.500123	0.041523	-0.066267
O17	O	0.833457	0.374856	0.267066
O18	O	1.166790	0.708189	0.600400
O19	O	0.640917	0.041539	-0.057522
O20	O	0.974250	0.374872	0.275812
O21	O	1.307584	0.708205	0.609145
Zn22	Zn	0.570518	0.054702	-0.061896
Zn23	Zn	0.903851	0.388036	0.271437
Zn24	Zn	1.237185	0.721369	0.604771
Zn25	Zn	0.570536	-0.054600	-0.061881
Zn26	Zn	0.903870	0.278733	0.271452
Zn27	Zn	1.237203	0.612067	0.604786
O28	O	0.566147	0.041521	-0.132291
O29	O	0.899481	0.374854	0.201042
O30	O	1.232814	0.708187	0.534376
C31	C	0.482124	0.000041	-0.066078
C32	C	0.815457	0.333375	0.267256
C33	C	1.148790	0.666708	0.600589
C34	C	0.428469	0.000036	-0.065525
C35	C	0.761802	0.333369	0.267808
C36	C	1.095135	0.666702	0.601142
N37	N	0.570509	0.129298	-0.061906
N38	N	0.903842	0.462632	0.271427
N39	N	1.237175	0.795965	0.604761
N40	N	0.570549	-0.129196	-0.061867
N41	N	0.903883	0.204137	0.271466
N42	N	1.237216	0.537471	0.604799
C43	C	0.089654	0.000051	-0.106229
C44	C	0.422987	0.333385	0.227105
C45	C	0.756320	0.666718	0.560438
C46	C	-0.112006	0.000056	-0.104178
C47	C	0.221327	0.333390	0.229156
C48	C	0.554661	0.666723	0.562489
O49	O	-0.143262	0.000073	-0.141398
O50	O	0.190072	0.333406	0.191935
O51	O	0.523405	0.666739	0.525268
N52	N	-0.131130	0.000062	-0.059843
N53	N	0.202204	0.333395	0.273491
N54	N	0.535537	0.666728	0.606824
C55	C	-0.099835	0.000069	-0.016017
C56	C	0.233498	0.333402	0.317316
C57	C	0.566832	0.666736	0.650650
O58	O	-0.120728	0.000079	0.021740
O59	O	0.212605	0.333412	0.355073
O60	O	0.545938	0.666746	0.688407
C61	C	0.101824	0.000068	-0.018068
C62	C	0.435157	0.333401	0.315265
C63	C	0.768490	0.666735	0.648598
C64	C	0.120944	0.000057	-0.062407
C65	C	0.454278	0.333391	0.270927
C66	C	0.787611	0.666724	0.604260
C67	C	0.108775	0.000042	-0.150563
C68	C	0.442108	0.333375	0.182770
C69	C	0.775442	0.666708	0.516103
C70	C	0.159187	0.000038	-0.151076
C71	C	0.492520	0.333371	0.182258
C72	C	0.825853	0.666704	0.515591
C73	C	0.190477	0.000044	-0.107253
C74	C	0.523811	0.333377	0.226080
C75	C	0.857144	0.666710	0.559413
C76	C	0.171356	0.000054	-0.062919
C77	C	0.504690	0.333387	0.270415
C78	C	0.838023	0.666720	0.603748
C79	C	0.133117	0.000079	0.025757
C80	C	0.466451	0.333412	0.359090
C81	C	0.799784	0.666746	0.692423
C82	C	0.183535	0.000080	0.025240
C83	C	0.516868	0.333413	0.358573
C84	C	0.850201	0.666747	0.691906
C85	C	0.202655	0.000069	-0.019098
C86	C	0.535989	0.333403	0.314235
C87	C	0.869322	0.666736	0.647568
C88	C	0.253059	0.000056	-0.019609
C89	C	0.586392	0.333389	0.313724
C90	C	0.919725	0.666722	0.647058
N91	N	0.272183	0.000050	-0.063944
N92	N	0.605516	0.333384	0.269389
N93	N	0.938849	0.666717	0.602723
C94	C	0.240892	0.000044	-0.107766
C95	C	0.574225	0.333378	0.225567
C96	C	0.907559	0.666711	0.558900
C97	C	-0.205709	0.000069	-0.014943
C98	C	0.127624	0.333402	0.318390
C99	C	0.460957	0.666735	0.651724
C100	C	-0.256124	0.000068	-0.014430
C101	C	0.077210	0.333401	0.318903
C102	C	0.410543	0.666735	0.652237
C103	C	-0.268291	0.000056	-0.102591
C104	C	0.065042	0.333390	0.230742
C105	C	0.398376	0.666723	0.564076
C106	C	-0.217876	0.000053	-0.103104
C107	C	0.115458	0.333387	0.230230
C108	C	0.448791	0.666720	0.563563
C109	C	-0.186585	0.000063	-0.059278
C110	C	0.146748	0.333397	0.274055
C111	C	0.480081	0.666730	0.607388
C112	C	0.346761	0.000036	-0.108839
C113	C	0.680094	0.333369	0.224495
C114	C	1.013428	0.666702	0.557828
C115	C	0.397178	0.000030	-0.109347
C116	C	0.730511	0.333363	0.223986
C117	C	1.063845	0.666696	0.557319
C118	C	0.409341	0.000044	-0.021186
C119	C	0.742674	0.333378	0.312147
C120	C	1.076008	0.666711	0.645480
C121	C	0.358929	0.000048	-0.020678
C122	C	0.692262	0.333381	0.312656
C123	C	1.025595	0.666714	0.645989
C124	C	0.327639	0.000045	-0.064508
C125	C	0.660973	0.333378	0.268825
C126	C	0.994306	0.666712	0.602159
O127	O	0.284343	0.000045	0.017592
O128	O	0.617676	0.333378	0.350925
O129	O	0.951009	0.666712	0.684259
O130	O	0.261794	0.000045	-0.145518
O131	O	0.595128	0.333379	0.187816
O132	O	0.928461	0.666712	0.521149
C133	C	0.039242	0.000055	-0.105716
C134	C	0.372575	0.333389	0.227617
C135	C	0.705908	0.666722	0.560950
C136	C	0.020120	0.000065	-0.061382
C137	C	0.353454	0.333399	0.271951
C138	C	0.686787	0.666732	0.605285
C139	C	0.051411	0.000071	-0.017560
C140	C	0.384744	0.333405	0.315774
C141	C	0.718078	0.666738	0.649107
C142	C	-0.030294	0.000065	-0.060869
C143	C	0.303039	0.333398	0.272464
C144	C	0.636373	0.666731	0.605798
C145	C	-0.061585	0.000059	-0.104691
C146	C	0.271749	0.333392	0.228642
C147	C	0.605082	0.666725	0.561975
C148	C	-0.042461	0.000053	-0.149026
C149	C	0.290872	0.333387	0.184307
C150	C	0.624206	0.666720	0.517640
C151	C	0.007951	0.000049	-0.149539
C152	C	0.341284	0.333383	0.183795
C153	C	0.674618	0.666716	0.517128
C154	C	0.032287	0.000077	0.026775
C155	C	0.365621	0.333410	0.360109
C156	C	0.698954	0.666743	0.693442
C157	C	-0.018125	0.000080	0.027284
C158	C	0.315208	0.333413	0.360617
C159	C	0.648541	0.666747	0.693951
C160	C	-0.049416	0.000074	-0.016538
C161	C	0.283917	0.333407	0.316795
C162	C	0.617251	0.666741	0.650129
C163	C	0.658931	0.000060	-0.057699
C164	C	0.992264	0.333393	0.275634
C165	C	1.325598	0.666726	0.608967
C166	C	0.712586	0.000062	-0.058252
C167	C	1.045919	0.333395	0.275081
C168	C	1.379252	0.666729	0.608414
C169	C	0.574716	0.000062	0.026515
C170	C	0.908050	0.333396	0.359848
C171	C	1.241383	0.666729	0.693182
C172	C	0.574164	0.000066	0.080170
C173	C	0.907497	0.333400	0.413503
C174	C	1.240830	0.666733	0.746837
C175	C	0.603640	0.473932	-0.028781
C176	C	0.936973	0.807266	0.304552
C177	C	1.270307	1.140599	0.637885
C178	C	0.603652	0.682810	-0.028774
C179	C	0.936985	1.016143	0.304559
C180	C	1.270318	1.349477	0.637893
O181	O	0.631801	0.709820	-0.000613
O182	O	0.965135	1.043154	0.332720
O183	O	1.298468	1.376487	0.666054
N184	N	0.570539	0.708925	-0.061870
N185	N	0.903873	1.042259	0.271463
N186	N	1.237206	1.375592	0.604796
C187	C	0.537419	0.682818	-0.094969
C188	C	0.870753	1.016151	0.238364
C189	C	1.204086	1.349485	0.571698
O190	O	0.509252	0.709824	-0.123116
O191	O	0.842585	1.043157	0.210217
O192	O	1.175919	1.376490	0.543550
C193	C	0.537406	0.473941	-0.094974
C194	C	0.870739	0.807275	0.238360
C195	C	1.204073	1.140608	0.571693
C196	C	0.570524	0.447829	-0.061878
C197	C	0.903857	0.781162	0.271455
C198	C	1.237191	1.114495	0.604788
C199	C	0.636755	0.447819	0.004312
C200	C	0.970088	0.781153	0.337645
C201	C	1.303422	1.114486	0.670978
C202	C	0.636754	0.395603	0.004308
C203	C	0.970087	0.728936	0.337641
C204	C	1.303420	1.062270	0.670975
C205	C	0.603637	0.369500	-0.028789
C206	C	0.936971	0.702833	0.304544
C207	C	1.270304	1.036166	0.637877
C208	C	0.570522	0.395612	-0.061882
C209	C	0.903856	0.728946	0.271451
C210	C	1.237189	1.062279	0.604784
C211	C	0.504284	0.447835	-0.128070
C212	C	0.837618	0.781168	0.205264
C213	C	1.170951	1.114502	0.538597
C214	C	0.504283	0.395613	-0.128067
C215	C	0.837616	0.728946	0.205266
C216	C	1.170950	1.062279	0.538599
C217	C	0.537401	0.369500	-0.094972
C218	C	0.870734	0.702833	0.238362
C219	C	1.204068	1.036167	0.571695
C220	C	0.537405	0.317293	-0.094983
C221	C	0.870738	0.650626	0.238350
C222	C	1.204071	0.983959	0.571683
N223	N	0.570517	0.291177	-0.061887
N224	N	0.903850	0.624510	0.271447
N225	N	1.237184	0.957844	0.604780
C226	C	0.603633	0.317281	-0.028790
C227	C	0.936967	0.650614	0.304544
C228	C	1.270300	0.983947	0.637877
C229	C	0.537429	0.792481	-0.094965
C230	C	0.870763	1.125815	0.238368
C231	C	1.204096	1.459148	0.571702
C232	C	0.537433	0.844700	-0.094964
C233	C	0.870767	1.178034	0.238369
C234	C	1.204100	1.511367	0.571702
C235	C	0.603665	0.844689	-0.028768
C236	C	0.936998	1.178022	0.304565
C237	C	1.270332	1.511355	0.637898
C238	C	0.603663	0.792469	-0.028772
C239	C	0.936996	1.125802	0.304562
C240	C	1.270330	1.459135	0.637895
C241	C	0.570542	0.766366	-0.061868
C242	C	0.903875	1.099699	0.271465
C243	C	1.237209	1.433033	0.604798
C244	C	0.603628	0.207623	-0.028801
C245	C	0.936961	0.540956	0.304533
C246	C	1.270295	0.874289	0.637866
C247	C	0.603625	0.155402	-0.028809
C248	C	0.936958	0.488735	0.304524
C249	C	1.270292	0.822068	0.637858
C250	C	0.537392	0.155418	-0.095003
C251	C	0.870725	0.488751	0.238330
C252	C	1.204058	0.822085	0.571664
C253	C	0.537396	0.207635	-0.094997
C254	C	0.870730	0.540968	0.238337
C255	C	1.204063	0.874301	0.571670
C256	C	0.570516	0.233735	-0.061892
C257	C	0.903850	0.567069	0.271442
C258	C	1.237183	0.900402	0.604775
O259	O	0.509266	0.290250	-0.123126
O260	O	0.842599	0.623583	0.210208
O261	O	1.175933	0.956916	0.543541
O262	O	0.631789	0.290266	-0.000640
O263	O	0.965123	0.623599	0.332694
O264	O	1.298456	0.956933	0.666027
C265	C	0.603642	0.526149	-0.028777
C266	C	0.936975	0.859482	0.304556
C267	C	1.270308	1.192815	0.637889
C268	C	0.570527	0.552261	-0.061870
C269	C	0.903860	0.885595	0.271463
C270	C	1.237193	1.218928	0.604796
C271	C	0.537410	0.526158	-0.094968
C272	C	0.870744	0.859491	0.238366
C273	C	1.204077	1.192824	0.571699
C274	C	0.570531	0.604480	-0.061870
C275	C	0.903864	0.937814	0.271463
C276	C	1.237197	1.271147	0.604797
C277	C	0.603647	0.630584	-0.028773
C278	C	0.936980	0.963917	0.304560
C279	C	1.270314	1.297250	0.637894
C280	C	0.636759	0.604468	0.004324
C281	C	0.970093	0.937802	0.337657
C282	C	1.303426	1.271135	0.670990
C283	C	0.636758	0.552252	0.004320
C284	C	0.970091	0.885585	0.337653
C285	C	1.303425	1.218919	0.670986
C286	C	0.504298	0.552273	-0.128064
C287	C	0.837631	0.885606	0.205269
C288	C	1.170965	1.218940	0.538603
C289	C	0.504303	0.604489	-0.128058
C290	C	0.837636	0.937823	0.205276
C291	C	1.170969	1.271156	0.538609
C292	C	0.537419	0.630593	-0.094961
C293	C	0.870752	0.963926	0.238373
C294	C	1.204086	1.297260	0.571706
C295	C	0.566338	0.000039	-0.150292
C296	C	0.899671	0.333372	0.183041
C297	C	1.233005	0.666705	0.516374
C298	C	0.566891	0.000031	-0.203947
C299	C	0.900224	0.333365	0.129386
C300	C	1.233557	0.666698	0.462720
C301	C	0.614867	0.000045	0.418985
C302	C	0.948201	0.333379	0.752318
C303	C	1.281534	0.666712	1.085652
C304	C	0.612816	0.000038	0.620645
C305	C	0.946150	0.333372	0.953978
C306	C	1.279483	0.666705	1.287311
O307	O	0.650037	0.000021	0.651900
O308	O	0.983370	0.333354	0.985234
O309	O	1.316704	0.666687	1.318567
N310	N	0.568481	0.000034	0.639768
N311	N	0.901814	0.333367	0.973102
N312	N	1.235148	0.666700	1.306435
C313	C	0.524656	0.000028	0.608474
C314	C	0.857989	0.333361	0.941807
C315	C	1.191322	0.666694	1.275140
O316	O	0.486899	0.000019	0.629367
O317	O	0.820232	0.333352	0.962700
O318	O	1.153565	0.666685	1.296033
C319	C	0.526707	0.000031	0.406815
C320	C	0.860040	0.333365	0.740148
C321	C	1.193374	0.666698	1.073482
C322	C	0.571045	0.000041	0.387694
C323	C	0.904378	0.333374	0.721028
C324	C	1.237712	0.666708	1.054361
C325	C	0.659202	0.000054	0.399864
C326	C	0.992535	0.333388	0.733197
C327	C	1.325868	0.666721	1.066530
C328	C	0.659714	0.000059	0.349452
C329	C	0.993047	0.333392	0.682785
C330	C	1.326381	0.666726	1.016118
C331	C	0.615892	0.000054	0.318161
C332	C	0.949225	0.333388	0.651494
C333	C	1.282559	0.666721	0.984828
C334	C	0.571557	0.000045	0.337282
C335	C	0.904891	0.333379	0.670616
C336	C	1.238224	0.666712	1.003949
C337	C	0.482882	0.000022	0.375521
C338	C	0.816215	0.333355	0.708855
C339	C	1.149549	0.666688	1.042188
C340	C	0.483399	0.000021	0.325104
C341	C	0.816732	0.333355	0.658437
C342	C	1.150066	0.666688	0.991771
C343	C	0.527737	0.000031	0.305983
C344	C	0.861070	0.333364	0.639317
C345	C	1.194404	0.666698	0.972650
C346	C	0.528247	0.000045	0.255580
C347	C	0.861581	0.333379	0.588913
C348	C	1.194914	0.666712	0.922246
N349	N	0.572583	0.000050	0.236456
N350	N	0.905916	0.333383	0.569789
N351	N	1.239249	0.666717	0.903123
C352	C	0.616405	0.000054	0.267747
C353	C	0.949738	0.333388	0.601080
C354	C	1.283072	0.666721	0.934413
C355	C	0.523582	0.000027	0.714348
C356	C	0.856915	0.333360	1.047681
C357	C	1.190248	0.666693	1.381014
C358	C	0.523069	0.000027	0.764762
C359	C	0.856402	0.333360	1.098096
C360	C	1.189735	0.666693	1.431429
C361	C	0.611230	0.000036	0.776930
C362	C	0.944563	0.333370	1.110263
C363	C	1.277896	0.666703	1.443596
C364	C	0.611742	0.000040	0.726514
C365	C	0.945075	0.333373	1.059848
C366	C	1.278409	0.666707	1.393181
C367	C	0.567917	0.000031	0.695224
C368	C	0.901250	0.333365	1.028557
C369	C	1.234583	0.666698	1.361891
C370	C	0.617477	0.000064	0.161878
C371	C	0.950811	0.333398	0.495211
C372	C	1.284144	0.666731	0.828544
C373	C	0.617986	0.000071	0.111461
C374	C	0.951319	0.333404	0.444794
C375	C	1.284652	0.666738	0.778127
C376	C	0.529825	0.000059	0.099298
C377	C	0.863158	0.333392	0.432631
C378	C	1.196492	0.666725	0.765964
C379	C	0.529316	0.000055	0.149710
C380	C	0.862650	0.333388	0.483043
C381	C	1.195983	0.666721	0.816377
C382	C	0.573147	0.000056	0.180999
C383	C	0.906480	0.333389	0.514333
C384	C	1.239813	0.666723	0.847666
O385	O	0.491047	0.000057	0.224296
O386	O	0.824380	0.333391	0.557629
O387	O	1.157713	0.666724	0.890962
O388	O	0.654156	0.000053	0.246844
O389	O	0.987490	0.333386	0.580177
O390	O	1.320823	0.666719	0.913511
C391	C	0.614355	0.000041	0.469397
C392	C	0.947688	0.333374	0.802730
C393	C	1.281022	0.666708	1.136064
C394	C	0.570021	0.000032	0.488518
C395	C	0.903354	0.333365	0.821852
C396	C	1.236687	0.666699	1.155185
C397	C	0.526198	0.000027	0.457228
C398	C	0.859532	0.333361	0.790561
C399	C	1.192865	0.666694	1.123894
C400	C	0.569508	0.000032	0.538933
C401	C	0.902841	0.333365	0.872266
C402	C	1.236174	0.666699	1.205599
C403	C	0.613330	0.000036	0.570223
C404	C	0.946663	0.333370	0.903557
C405	C	1.279996	0.666703	1.236890
C406	C	0.657665	0.000041	0.551100
C407	C	0.990998	0.333374	0.884433
C408	C	1.324332	0.666708	1.217766
C409	C	0.658177	0.000045	0.500688
C410	C	0.991511	0.333379	0.834021
C411	C	1.324844	0.666712	1.167354
C412	C	0.481863	0.000023	0.476351
C413	C	0.815197	0.333356	0.809685
C414	C	1.148530	0.666690	1.143018
C415	C	0.481355	0.000019	0.526764
C416	C	0.814688	0.333352	0.860097
C417	C	1.148021	0.666686	1.193430
C418	C	0.525177	0.000023	0.558054
C419	C	0.858510	0.333357	0.891388
C420	C	1.191843	0.666690	1.224721
H421	H	0.321291	0.000035	-0.144530
H422	H	0.654624	0.333368	0.188804
H423	H	0.987957	0.666702	0.522137
O424	O	0.505241	0.129979	-0.127104
O425	O	0.838574	0.463312	0.206230
O426	O	1.171908	0.796645	0.539563
C427	C	0.512351	0.078291	-0.120012
C428	C	0.845685	0.411624	0.213321
C429	C	1.179018	0.744957	0.546655
H430	H	0.530712	0.071162	-0.081457
H431	H	0.864045	0.404495	0.251877
H432	H	1.197379	0.737828	0.585210
H433	H	0.475706	0.058446	-0.125635
H434	H	0.809040	0.391779	0.207699
H435	H	1.142373	0.725112	0.541032
H436	H	0.536384	0.063468	-0.147209
H437	H	0.869718	0.396801	0.186124
H438	H	1.203051	0.730135	0.519458
O439	O	0.415692	-0.000046	-0.152451
O440	O	0.749025	0.333287	0.180882
O441	O	1.082358	0.666620	0.514216
C442	C	0.399676	-0.043021	-0.179128
C443	C	0.733010	0.290312	0.154205
C444	C	1.066343	0.623645	0.487538
H445	H	0.364805	-0.057340	-0.166215
H446	H	0.698138	0.275993	0.167118
H447	H	1.031471	0.609326	0.500452
H448	H	0.392379	-0.033365	-0.219437
H449	H	0.725713	0.299969	0.113897
H450	H	1.059046	0.633302	0.447230
H451	H	0.428894	-0.073109	-0.173306
H452	H	0.762227	0.260225	0.160028
H453	H	1.095561	0.593558	0.493361
H454	H	0.510433	0.228896	-0.121951
H455	H	0.843767	0.562229	0.211383
H456	H	1.177100	0.895563	0.544716
O457	O	0.062659	-0.000008	0.069360
O458	O	0.395992	0.333325	0.402693
O459	O	0.729325	0.666658	0.736027
C460	C	0.054026	-0.042964	0.096307
C461	C	0.387359	0.290369	0.429640
C462	C	0.720692	0.623702	0.762973
H463	H	0.036610	-0.072995	0.070655
H464	H	0.369943	0.260339	0.403989
H465	H	0.703276	0.593672	0.737322
H466	H	0.089937	-0.057389	0.115971
H467	H	0.423270	0.275945	0.449305
H468	H	0.756604	0.609278	0.782638
H469	H	0.028551	-0.033245	0.124083
H470	H	0.361884	0.300088	0.457416
H471	H	0.695218	0.633421	0.790750
H472	H	0.694282	0.000053	0.485125
H473	H	1.027615	0.333386	0.818458
H474	H	1.360949	0.666720	1.151791
H475	H	0.663725	0.530995	0.031269
H476	H	0.997059	0.864328	0.364603
H477	H	1.330392	1.197661	0.697936
H478	H	0.663726	0.625730	0.031271
H479	H	0.997059	0.959064	0.364604
H480	H	1.330392	1.292397	0.697938
O481	O	0.439769	-0.000012	0.394007
O482	O	0.773102	0.333321	0.727340
O483	O	1.106435	0.666655	1.060673
C484	C	0.401207	-0.000007	0.355569
C485	C	0.734540	0.333327	0.688902
C486	C	1.067873	0.666660	1.022236
H487	H	0.414507	-0.015707	0.321419
H488	H	0.747840	0.317627	0.654752
H489	H	1.081174	0.650960	0.988085
H490	H	0.370233	-0.024101	0.365871
H491	H	0.703567	0.309233	0.699205
H492	H	1.036900	0.642566	1.032538
H493	H	0.387697	0.039790	0.348335
H494	H	0.721031	0.373123	0.681669
H495	H	1.054364	0.706457	1.015002
O496	O	-0.036718	0.000000	0.070346
O497	O	0.296615	0.333334	0.403679
O498	O	0.629948	0.666667	0.737012
C499	C	-0.065526	-0.042954	0.073289
C500	C	0.267807	0.290379	0.406622
C501	C	0.601141	0.623712	0.739956
H502	H	-0.053791	-0.072993	0.048125
H503	H	0.279542	0.260341	0.381459
H504	H	0.612875	0.593674	0.714792
H505	H	-0.060711	-0.057367	0.112284
H506	H	0.272622	0.275967	0.445617
H507	H	0.605956	0.609300	0.778951
H508	H	-0.105370	-0.033238	0.061838
H509	H	0.227964	0.300095	0.395172
H510	H	0.561297	0.633428	0.728505
O511	O	-0.175386	0.000053	0.027676
O512	O	0.157948	0.333387	0.361010
O513	O	0.491281	0.666720	0.694343
C514	C	-0.203082	0.000069	0.066912
C515	C	0.130251	0.333403	0.400245
C516	C	0.463585	0.666736	0.733579
H517	H	-0.240801	-0.015638	0.054350
H518	H	0.092533	0.317696	0.387683
H519	H	0.425866	0.651029	0.721017
H520	H	-0.184263	-0.024013	0.097598
H521	H	0.149070	0.309320	0.430931
H522	H	0.482403	0.642654	0.764264
H523	H	-0.206578	0.039870	0.080516
H524	H	0.126755	0.373204	0.413849
H525	H	0.460089	0.706537	0.747182
H526	H	0.663722	0.469068	0.031266
H527	H	0.997056	0.802402	0.364599
H528	H	1.330389	1.135735	0.697932
O529	O	-0.072842	-0.000041	-0.191609
O530	O	0.260491	0.333293	0.141725
O531	O	0.593825	0.666626	0.475058
C532	C	-0.064221	-0.043003	-0.218554
C533	C	0.269112	0.290330	0.114780
C534	C	0.602446	0.623664	0.448113
H535	H	-0.046798	-0.073032	-0.192903
H536	H	0.286536	0.260301	0.140430
H537	H	0.619869	0.593635	0.473764
H538	H	-0.100138	-0.057425	-0.238204
H539	H	0.233195	0.275909	0.095129
H540	H	0.566528	0.609242	0.428463
H541	H	-0.038757	-0.033294	-0.246342
H542	H	0.294576	0.300039	0.086991
H543	H	0.627910	0.633373	0.420325
O544	O	-0.298760	0.000073	-0.145116
O545	O	0.034573	0.333407	0.188217
O546	O	0.367906	0.666740	0.521550
C547	C	-0.347355	0.000062	-0.135150
C548	C	-0.014022	0.333395	0.198183
C549	C	0.319311	0.666728	0.531516
H550	H	-0.349006	0.015769	-0.097197
H551	H	-0.015673	0.349102	0.236136
H552	H	0.317661	0.682436	0.569470
H553	H	-0.370407	0.024146	-0.163104
H554	H	-0.037074	0.357480	0.170229
H555	H	0.296260	0.690813	0.503562
H556	H	-0.361948	-0.039738	-0.137091
H557	H	-0.028615	0.293595	0.196243
H558	H	0.304718	0.626929	0.529576
O559	O	0.340296	0.000120	0.022361
O560	O	0.673629	0.333454	0.355695
O561	O	1.006962	0.666787	0.689028
C562	C	0.311512	0.043097	0.025296
C563	C	0.644845	0.376431	0.358630
C564	C	0.978179	0.709764	0.691963
H565	H	0.298674	0.057416	-0.012900
H566	H	0.632008	0.390750	0.320433
H567	H	0.965341	0.724083	0.653767
H568	H	0.278637	0.033444	0.044317
H569	H	0.611970	0.366777	0.377650
H570	H	0.945304	0.700111	0.710984
H571	H	0.333948	0.073184	0.046845
H572	H	0.667282	0.406517	0.380178
H573	H	1.000615	0.739851	0.713511
H574	H	0.477335	0.625747	-0.155012
H575	H	0.810668	0.959080	0.178321
H576	H	1.144002	1.292414	0.511654
O577	O	0.472110	0.526998	-0.160265
O578	O	0.805443	0.860331	0.173069
O579	O	1.138777	1.193664	0.506402
C580	C	0.442880	0.561251	-0.189463
C581	C	0.776213	0.894584	0.143870
C582	C	1.109547	1.227918	0.477203
H583	H	0.462698	0.598472	-0.189864
H584	H	0.796031	0.931805	0.143470
H585	H	1.129365	1.265138	0.476803
H586	H	0.435217	0.546172	-0.228122
H587	H	0.768550	0.879506	0.105211
H588	H	1.101883	1.212839	0.438545
H589	H	0.407090	0.566807	-0.174016
H590	H	0.740423	0.900141	0.159317
H591	H	1.073757	1.233474	0.492650
H592	H	0.083302	0.000038	-0.186251
H593	H	0.416636	0.333372	0.147083
H594	H	0.749969	0.666705	0.480416
O595	O	0.700222	-0.000044	0.581520
O596	O	1.033555	0.333289	0.914853
O597	O	1.366888	0.666622	1.248187
C598	C	0.702557	-0.043006	0.611050
C599	C	1.035890	0.290327	0.944384
C600	C	1.369224	0.623661	1.277717
H601	H	0.677703	-0.073036	0.592398
H602	H	1.011037	0.260297	0.925731
H603	H	1.344370	0.593631	1.259065
H604	H	0.741539	-0.057426	0.617009
H605	H	1.074872	0.275907	0.950343
H606	H	1.408205	0.609240	1.283676
H607	H	0.690319	-0.033296	0.647622
H608	H	1.023652	0.300037	0.980955
H609	H	1.356985	0.633370	1.314288
O610	O	0.472062	0.370235	-0.160154
O611	O	0.805395	0.703568	0.173180
O612	O	1.138729	1.036902	0.506513
C613	C	0.442443	0.340021	-0.134474
C614	C	0.775776	0.673354	0.198859
C615	C	1.109110	1.006688	0.532193
H616	H	0.441916	0.355753	-0.096355
H617	H	0.775249	0.689086	0.236979
H618	H	1.108583	1.022420	0.570312
H619	H	0.403875	0.339436	-0.154460
H620	H	0.737208	0.672769	0.178873
H621	H	1.070541	1.006102	0.512207
H622	H	0.457587	0.300443	-0.131842
H623	H	0.790920	0.633776	0.201491
H624	H	1.124253	0.967110	0.534825
O625	O	0.177676	0.000056	-0.194189
O626	O	0.511010	0.333389	0.139145
O627	O	0.844343	0.666722	0.472478
C628	C	0.139240	0.000040	-0.232752
C629	C	0.472573	0.333374	0.100582
C630	C	0.805907	0.666707	0.433915
H631	H	0.105088	0.015746	-0.219458
H632	H	0.438422	0.349079	0.113875
H633	H	0.771755	0.682413	0.447209
H634	H	0.149542	0.024125	-0.263732
H635	H	0.482876	0.357458	0.069601
H636	H	0.816209	0.690791	0.402934
H637	H	0.132009	-0.039760	-0.246248
H638	H	0.465342	0.293573	0.087085
H639	H	0.798675	0.626906	0.420419
O640	O	0.661101	0.000056	0.092968
O641	O	0.994434	0.333389	0.426302
O642	O	1.327767	0.666723	0.759635
C643	C	0.699668	0.000070	0.131401
C644	C	1.033001	0.333403	0.464734
C645	C	1.366334	0.666736	0.798067
H646	H	0.686380	-0.015640	0.165552
H647	H	1.019713	0.317693	0.498885
H648	H	1.353046	0.651026	0.832219
H649	H	0.730649	-0.024011	0.121091
H650	H	1.063983	0.309322	0.454424
H651	H	1.397316	0.642655	0.787758
H652	H	0.713160	0.039870	0.138637
H653	H	1.046494	0.373204	0.471970
H654	H	1.379827	0.706537	0.805304
H655	H	0.447710	0.000014	0.299629
H656	H	0.781043	0.333347	0.632963
H657	H	1.114377	0.666680	0.966296
H658	H	-0.202311	0.000047	-0.139207
H659	H	0.131022	0.333381	0.194126
H660	H	0.464355	0.666714	0.527459
H661	H	0.023514	0.000042	-0.185643
H662	H	0.356847	0.333375	0.147690
H663	H	0.690181	0.666708	0.481023
O664	O	-0.274717	-0.000016	0.028628
O665	O	0.058616	0.333317	0.361961
O666	O	0.391949	0.666650	0.695295
C667	C	-0.303521	-0.042975	0.031567
C668	C	0.029813	0.290358	0.364901
C669	C	0.363146	0.623692	0.698234
H670	H	-0.291783	-0.073009	0.006401
H671	H	0.041551	0.260324	0.339735
H672	H	0.374884	0.593657	0.673068
H673	H	-0.298704	-0.057391	0.070561
H674	H	0.034629	0.275943	0.403895
H675	H	0.367962	0.609276	0.737228
H676	H	-0.343365	-0.033263	0.020118
H677	H	-0.010032	0.300071	0.353451
H678	H	0.323301	0.633404	0.686784
H679	H	0.117558	0.000088	0.061861
H680	H	0.450892	0.333421	0.395195
H681	H	0.784225	0.666755	0.728528
H682	H	0.209009	0.000089	0.060929
H683	H	0.542343	0.333422	0.394262
H684	H	0.875676	0.666755	0.727595
O685	O	0.481039	0.000088	0.683906
O686	O	0.814372	0.333421	1.017239
O687	O	1.147705	0.666755	1.350573
C688	C	0.478682	0.043059	0.654388
C689	C	0.812015	0.376393	0.987721
C690	C	1.145348	0.709726	1.321055
H691	H	0.517027	0.057387	0.652113
H692	H	0.850360	0.390720	0.985446
H693	H	1.183694	0.724053	1.318780
H694	H	0.460382	0.033395	0.616363
H695	H	0.793716	0.366728	0.949696
H696	H	1.127049	0.700061	1.283030
H697	H	0.456730	0.073143	0.670818
H698	H	0.790064	0.406477	1.004151
H699	H	1.123397	0.739810	1.337485
H700	H	0.434827	0.000047	0.014492
H701	H	0.768160	0.333381	0.347826
H702	H	1.101494	0.666714	0.681159
O703	O	0.635781	0.232919	0.003422
O704	O	0.969114	0.566252	0.336756
O705	O	1.302447	0.899585	0.670089
C706	C	0.628275	0.220162	0.051219
C707	C	0.961608	0.553496	0.384552
C708	C	1.294941	0.886829	0.717886
H709	H	0.609638	0.182251	0.051025
H710	H	0.942971	0.515584	0.384358
H711	H	1.276304	0.848918	0.717692
H712	H	0.664787	0.218366	0.075274
H713	H	0.998120	0.551699	0.408607
H714	H	1.331454	0.885032	0.741941
H715	H	0.604331	0.249554	0.066007
H716	H	0.937664	0.582887	0.399341
H717	H	1.270998	0.916220	0.732674
H718	H	0.630595	0.134142	-0.001859
H719	H	0.963929	0.467476	0.331475
H720	H	1.297262	0.800809	0.664808
H721	H	0.630630	0.865951	-0.001820
H722	H	0.963964	1.199284	0.331513
H723	H	1.297297	1.532617	0.664847
O724	O	0.439260	-0.000045	0.446009
O725	O	0.772593	0.333288	0.779342
O726	O	1.105927	0.666622	1.112676
C727	C	0.412330	-0.043019	0.454618
C728	C	0.745663	0.290314	0.787951
C729	C	1.078996	0.623648	1.121285
H730	H	0.424499	-0.057348	0.492949
H731	H	0.757833	0.275985	0.826283
H732	H	1.091166	0.609319	1.159616
H733	H	0.371987	-0.033357	0.450785
H734	H	0.705320	0.299976	0.784118
H735	H	1.038653	0.633310	1.117452
H736	H	0.418726	-0.073101	0.427082
H737	H	0.752059	0.260232	0.760415
H738	H	1.085392	0.593566	1.093749
O739	O	0.701743	0.000126	0.430305
O740	O	1.035076	0.333459	0.763638
O741	O	1.368409	0.666793	1.096971
C742	C	0.704085	0.043099	0.459820
C743	C	1.037419	0.376432	0.793154
C744	C	1.370752	0.709766	1.126487
H745	H	0.665735	0.057416	0.462097
H746	H	0.999068	0.390750	0.795430
H747	H	1.332402	0.724083	1.128763
H748	H	0.722390	0.033440	0.497845
H749	H	1.055723	0.366774	0.831178
H750	H	1.389057	0.700107	1.164512
H751	H	0.726025	0.073188	0.443388
H752	H	1.059358	0.406522	0.776721
H753	H	1.392691	0.739855	1.110054
O754	O	0.668939	0.370318	0.036508
O755	O	1.002273	0.703652	0.369841
O756	O	1.335606	1.036985	0.703174
C757	C	0.698172	0.404564	0.065710
C758	C	1.031505	0.737898	0.399043
C759	C	1.364838	1.071231	0.732376
H760	H	0.678356	0.441789	0.066113
H761	H	1.011690	0.775122	0.399446
H762	H	1.345023	1.108455	0.732779
H763	H	0.705833	0.389482	0.104367
H764	H	1.039167	0.722815	0.437701
H765	H	1.372500	1.056149	0.771034
H766	H	0.733962	0.410115	0.050263
H767	H	1.067296	0.743448	0.383597
H768	H	1.400629	1.076781	0.716930
O769	O	0.660022	0.000134	0.192316
O770	O	0.993355	0.333468	0.525649
O771	O	1.326688	0.666801	0.858983
C772	C	0.662364	0.043105	0.221835
C773	C	0.995697	0.376438	0.555168
C774	C	1.329031	0.709771	0.888502
H775	H	0.624014	0.057421	0.224112
H776	H	0.957347	0.390755	0.557445
H777	H	1.290680	0.724088	0.890779
H778	H	0.680668	0.033443	0.259859
H779	H	1.014002	0.366777	0.593192
H780	H	1.347335	0.700110	0.926526
H781	H	0.684303	0.073196	0.205405
H782	H	1.017637	0.406529	0.538738
H783	H	1.350970	0.739863	0.872071
H784	H	0.695819	0.000065	0.333889
H785	H	1.029152	0.333398	0.667222
H786	H	1.362485	0.666731	1.000555
H787	H	0.647846	0.000047	0.710950
H788	H	0.981179	0.333381	1.044283
H789	H	1.314513	0.666714	1.377617
H790	H	0.630630	0.771211	-0.001822
H791	H	0.963964	1.104544	0.331511
H792	H	1.297297	1.437877	0.664844
O793	O	0.505219	0.869986	-0.127135
O794	O	0.838552	1.203319	0.206198
O795	O	1.171886	1.536653	0.539532
C796	C	0.475999	0.835742	-0.156352
C797	C	0.809332	1.169075	0.176981
C798	C	1.142666	1.502409	0.510314
H799	H	0.475604	0.798520	-0.136535
H800	H	0.808937	1.131853	0.196799
H801	H	1.142271	1.465186	0.530132
H802	H	0.437341	0.850830	-0.163992
H803	H	0.770674	1.184164	0.169341
H804	H	1.104008	1.517497	0.502675
H805	H	0.491422	0.830186	-0.192155
H806	H	0.824756	1.163519	0.141179
H807	H	1.158089	1.496852	0.474512
H808	H	0.646911	0.000040	0.802415
H809	H	0.980245	0.333374	1.135749
H810	H	1.313578	0.666707	1.469082
O811	O	0.480029	-0.000044	0.783390
O812	O	0.813362	0.333289	1.116724
O813	O	1.146696	0.666622	1.450057
C814	C	0.477095	-0.043017	0.812176
C815	C	0.810428	0.290316	1.145510
C816	C	1.143761	0.623649	1.478843
H817	H	0.515291	-0.057335	0.825017
H818	H	0.848625	0.275998	1.158350
H819	H	1.181958	0.609331	1.491684
H820	H	0.458071	-0.033359	0.845050
H821	H	0.791405	0.299975	1.178383
H822	H	1.124738	0.633308	1.511716
H823	H	0.455549	-0.073106	0.789741
H824	H	0.788882	0.260227	1.123074
H825	H	1.122215	0.593560	1.456408
H826	H	0.493213	0.000061	0.165279
H827	H	0.826546	0.333394	0.498612
H828	H	1.159879	0.666728	0.831945
H829	H	0.510457	0.771232	-0.121917
H830	H	0.843791	1.104565	0.211416
H831	H	1.177124	1.437899	0.544749
O832	O	0.472065	0.473115	-0.160237
O833	O	0.805399	0.806449	0.173097
O834	O	1.138732	1.139782	0.506430
C835	C	0.442846	0.438868	-0.189450
C836	C	0.776180	0.772201	0.143883
C837	C	1.109513	1.105535	0.477216
H838	H	0.442456	0.401646	-0.169631
H839	H	0.775789	0.734980	0.163702
H840	H	1.109123	1.068313	0.497036
H841	H	0.404187	0.453953	-0.197089
H842	H	0.737520	0.787286	0.136245
H843	H	1.070854	1.120619	0.469578
H844	H	0.458268	0.433311	-0.225254
H845	H	0.791601	0.766645	0.108079
H846	H	1.124934	1.099978	0.441413
H847	H	0.494146	0.000057	0.073812
H848	H	0.827480	0.333390	0.407145
H849	H	1.160813	0.666724	0.740478
H850	H	0.445246	0.000015	0.542327
H851	H	0.778580	0.333349	0.875660
H852	H	1.111913	0.666682	1.208993
