data_functionalizedCrystal
_audit_creation_method	'MofGen! by Chris Wilmer'
_symmetry_space_group_name_H-M	'P1'
_symmetry_Int_Tables_number	1
_symmetry_cell_setting	triclinic
loop_
_symmetry_equiv_pos_as_xyz
  x,y,z
_cell_length_a	15.538191
_cell_length_b	10.540539
_cell_length_c	14.185569
_cell_angle_alpha	76.712172
_cell_angle_beta	97.875798
_cell_angle_gamma	65.898793
loop_
_atom_site_label
_atom_site_type_symbol
_atom_site_fract_x
_atom_site_fract_y
_atom_site_fract_z
O1	O	1.226032	-0.372482	-0.083440
O2	O	0.952757	-0.226369	-0.083435
O3	O	1.095630	-0.487082	-0.083436
O4	O	1.083160	-0.111770	-0.083439
O5	O	1.137835	-0.564092	0.083398
O6	O	0.994963	-0.303380	0.083399
O7	O	1.268238	-0.449492	0.083395
Cu8	Cu	1.135454	-0.383468	0.098630
Cu9	Cu	1.085541	-0.292394	-0.098671
O10	O	1.125366	-0.188780	0.083396
C11	C	0.938868	-0.249587	-0.000017
C12	C	0.834601	-0.204052	-0.000016
C13	C	1.115797	-0.572447	-0.000021
C14	C	1.112998	-0.712069	-0.000026
C15	C	0.543764	-0.656437	-0.000029
C16	C	0.445786	-0.613616	-0.000030
C17	C	0.424963	-0.372762	-0.000031
C18	C	0.522942	-0.415565	-0.000025
C19	C	0.582335	-0.557403	-0.000025
C20	C	0.561514	-0.316531	-0.000021
C21	C	0.659483	-0.359329	-0.000021
C22	C	0.718881	-0.501160	-0.000024
C23	C	0.680305	-0.600201	-0.000024
C24	C	0.502117	-0.174690	-0.000029
C25	C	0.540689	-0.075657	-0.000025
C26	C	0.638662	-0.118457	-0.000017
C27	C	0.698060	-0.260288	-0.000020
C28	C	0.677238	-0.019416	-0.000016
C29	C	0.775208	-0.062213	-0.000016
C30	C	0.796029	-0.303085	-0.000020
C31	C	1.005700	-0.844617	-0.000399
C32	C	1.008631	-0.699513	-0.000023
C33	C	1.187326	-0.841460	0.095243
C34	C	1.183784	-0.986357	0.095324
C35	C	1.137911	-0.900304	-0.094398
C36	C	1.138553	-0.753195	-0.095658
C37	C	1.282127	-0.426273	-0.000025
C38	C	1.386392	-0.471806	-0.000033
C39	C	1.105198	-0.103414	-0.000022
C40	C	1.107995	0.036211	-0.000023
N41	N	1.170567	-0.447528	0.237401
N42	N	1.050435	-0.228347	-0.237441
C43	C	0.947273	-0.040193	0.605053
C44	C	0.973877	-0.088712	0.710074
C45	C	1.100417	-0.319521	0.710034
C46	C	1.073820	-0.271023	0.605010
C47	C	0.997248	-0.131358	0.552528
C48	C	1.123795	-0.362188	0.552486
C49	C	1.097203	-0.313691	0.447472
C50	C	1.020636	-0.174029	0.394982
C51	C	0.970656	-0.082861	0.447514
C52	C	1.200371	-0.501850	0.604970
C53	C	1.250346	-0.593015	0.552446
C54	C	1.223751	-0.544522	0.447429
C55	C	1.147184	-0.404860	0.394940
C56	C	1.273731	-0.635691	0.394898
C57	C	1.247139	-0.587194	0.289883
C58	C	1.120592	-0.356363	0.289925
H59	H	0.844393	-0.418587	-0.000014
H60	H	1.259937	-1.071823	0.099645
N61	N	1.290031	-0.862019	0.099921
H62	H	1.316993	-0.848418	0.163726
H63	H	1.332486	-0.963932	0.098934
N64	N	1.332926	-0.743655	0.609050
H65	H	1.395040	-0.751295	0.590754
H66	H	1.342107	-0.760459	0.683529
N67	N	0.991941	-0.121698	0.281716
H68	H	1.049452	-0.120939	0.256396
H69	H	0.971276	-0.189740	0.256498
N70	N	1.158463	-1.043992	0.189647
H71	H	1.155910	-1.138501	0.190643
H72	H	1.209803	-1.062527	0.250192
N73	N	1.066335	-0.632875	-0.189020
H74	H	1.083148	-0.659943	-0.250278
H75	H	0.998339	-0.619815	-0.188323
N76	N	0.888058	0.067772	0.390896
H77	H	0.860427	0.118170	0.440103
H78	H	0.913347	0.127308	0.347316
N79	N	1.164888	-0.806526	0.189161
H80	H	1.106641	-0.707007	0.170214
H81	H	1.149825	-0.883202	0.230000
N82	N	0.816812	0.044601	-0.000008
H83	H	0.872642	0.003660	0.061836
H84	H	0.841291	0.060727	-0.061895
H85	H	0.798651	-0.535997	-0.000037
H86	H	1.085865	-0.882548	-0.166606
H87	H	0.628864	0.096074	-0.000026
H88	H	1.213189	-0.762309	-0.101412
H89	H	0.884913	0.073531	0.562319
H90	H	0.951834	-0.606693	-0.068316
N91	N	0.919978	0.009629	0.766728
H92	H	0.867440	0.105464	0.717542
H93	H	0.889173	-0.039839	0.810313
N94	N	1.237549	-1.009686	-0.095256
H95	H	1.263217	-1.099931	-0.034843
H96	H	1.232417	-1.037717	-0.158500
N97	N	1.229051	-0.554154	0.718236
H98	H	1.221228	-0.645540	0.743533
H99	H	1.299367	-0.576669	0.743432
N100	N	0.396455	-0.128552	-0.000015
H101	H	0.384419	-0.099505	0.061831
H102	H	0.353179	-0.042456	-0.061901
N103	N	1.037997	-0.205725	0.233315
H104	H	1.063220	-0.146072	0.189734
H105	H	0.985101	-0.214980	0.189813
H106	H	1.162765	-0.433236	0.752777
N107	N	1.356326	-0.786315	0.451508
H108	H	1.365592	-0.803200	0.526004
H109	H	1.340234	-0.862631	0.433160
N110	N	1.301020	-0.685497	0.233205
H111	H	1.372390	-0.710022	0.251450
H112	H	1.294149	-0.778706	0.251492
N113	N	0.744378	-0.753191	-0.000010
H114	H	0.705081	-0.809444	-0.000007
H115	H	0.769836	-0.747647	-0.061857
N116	N	0.928186	-0.814891	-0.090890
H117	H	0.958623	-0.878386	-0.132521
H118	H	0.875962	-0.838024	-0.068070
H119	H	0.592127	-0.771939	-0.000023
H120	H	0.414386	-0.694271	-0.000034
H121	H	0.376591	-0.257275	-0.000035
H122	H	0.986140	-0.670510	0.068385
N123	N	0.476626	0.077323	-0.000030
H124	H	0.408709	0.089411	-0.000033
H125	H	0.504849	0.093879	0.061820
N126	N	0.974069	-0.900426	0.089590
H127	H	1.025715	-1.002570	0.130599
H128	H	0.964854	-0.833349	0.132055
