data_functionalizedCrystal
_audit_creation_method	'MofGen! by Chris Wilmer'
_symmetry_space_group_name_H-M	'P1'
_symmetry_Int_Tables_number	1
_symmetry_cell_setting	triclinic
loop_
_symmetry_equiv_pos_as_xyz
  x,y,z
_cell_length_a	18.101389
_cell_length_b	19.077105
_cell_length_c	19.077068
_cell_angle_alpha	90.115316
_cell_angle_beta	87.722285
_cell_angle_gamma	92.315730
loop_
_atom_site_label
_atom_site_type_symbol
_atom_site_fract_x
_atom_site_fract_y
_atom_site_fract_z
Zn1	Zn	-0.477251	-1.062984	0.323060
Zn2	Zn	0.022749	-0.562984	0.823060
Zn3	Zn	-0.358165	-1.058173	0.440549
Zn4	Zn	0.141835	-0.558173	0.940549
Zn5	Zn	-0.348262	-0.945478	0.318333
Zn6	Zn	0.151738	-0.445478	0.818333
Zn7	Zn	-0.476806	-0.940719	0.435801
Zn8	Zn	0.023194	-0.440719	0.935801
O9	O	-0.415121	-1.001839	0.379436
O10	O	0.084879	-0.501839	0.879436
O11	O	-0.465784	-1.160677	0.342610
O12	O	0.034216	-0.660677	0.842610
O13	O	-0.253218	-1.043201	0.424345
O14	O	0.246782	-0.543201	0.924345
O15	O	-0.361415	-0.965071	0.220629
O16	O	0.138585	-0.465071	0.720629
O17	O	-0.378292	-1.157142	0.428929
O18	O	0.121708	-0.657142	0.928929
O19	O	-0.456182	-1.051402	0.224102
O20	O	0.043818	-0.551402	0.724102
O21	O	-0.245943	-0.960405	0.334554
O22	O	0.254057	-0.460405	0.834554
O23	O	-0.360983	-0.846515	0.329950
O24	O	0.139017	-0.346515	0.829950
O25	O	-0.580498	-0.956960	0.420837
O26	O	-0.080498	-0.456960	0.920837
O27	O	-0.455424	-0.843019	0.416254
O28	O	0.044576	-0.343019	0.916254
O29	O	-0.580825	-1.046788	0.338006
O30	O	-0.080825	-0.546788	0.838006
O31	O	-0.377861	-1.038587	0.538250
O32	O	0.122139	-0.538587	1.038250
O33	O	-0.465026	-0.952294	0.534762
O34	O	0.034974	-0.452294	1.034762
C35	C	-0.407081	-0.819271	0.372074
C36	C	0.092919	-0.319271	0.872074
C37	C	-0.403660	-0.741167	0.368942
C38	C	0.096340	-0.241167	0.868942
C39	C	-0.422487	-0.994421	0.562002
C40	C	0.077513	-0.494421	1.062002
C41	C	-0.425665	-0.991312	0.640108
C42	C	0.074335	-0.491312	1.140108
C43	C	-0.608284	-1.001880	0.379419
C44	C	-0.108284	-0.501880	0.879419
C45	C	-0.690599	-1.001897	0.379413
C46	C	-0.190599	-0.501897	0.879413
C47	C	-0.989686	-1.001944	0.379283
C48	C	-0.489686	-0.501944	0.879283
C49	C	-0.958140	-0.945246	0.431217
C50	C	-0.458140	-0.445246	0.931217
C51	C	-0.872538	-0.945384	0.431474
C52	C	-0.372538	-0.445384	0.931474
C53	C	-0.841305	-1.001920	0.379347
C54	C	-0.341305	-0.501920	0.879347
C55	C	-0.876470	-1.075148	0.402427
C56	C	-0.376470	-0.575148	0.902427
C57	C	-0.962116	-1.074830	0.402771
C58	C	-0.462116	-0.574830	0.902771
C59	C	-0.954271	-0.986062	0.304173
C60	C	-0.454271	-0.486062	0.804173
C61	C	-0.868566	-0.984397	0.304536
C62	C	-0.368566	-0.484397	0.804536
C63	C	-0.757447	-1.001911	0.379382
C64	C	-0.257447	-0.501911	0.879382
C65	C	-1.073545	-1.001957	0.379249
C66	C	-0.573545	-0.501957	0.879249
C67	C	-0.222709	-1.001840	0.379403
C68	C	0.277291	-0.501840	0.879403
C69	C	-0.140393	-1.001966	0.379217
C70	C	0.359607	-0.501966	0.879217
C71	C	-0.423193	-1.185119	0.386826
C72	C	0.076807	-0.685119	0.886826
C73	C	-0.426632	-1.263222	0.389976
C74	C	0.073368	-0.763222	0.889976
C75	C	-0.451151	-0.702669	0.412472
C76	C	0.048849	-0.202669	0.912472
C77	C	-0.447940	-0.629283	0.409519
C78	C	0.052060	-0.129283	0.909519
C79	C	-0.397233	-0.594395	0.363040
C80	C	0.102767	-0.094395	0.863040
C81	C	-0.349740	-0.632899	0.319506
C82	C	0.150260	-0.132899	0.819506
C83	C	-0.352956	-0.706284	0.322455
C84	C	0.147044	-0.206284	0.822455
C85	C	-0.382355	-0.375111	0.349390
C86	C	0.117645	0.124889	0.849390
C87	C	-0.379141	-0.301720	0.346446
C88	C	0.120859	0.198280	0.846446
C89	C	-0.477342	-0.298109	0.436459
C90	C	0.022658	0.201891	0.936459
C91	C	-0.480550	-0.371496	0.439407
C92	C	0.019450	0.128504	0.939407
C93	C	-0.433060	-0.409993	0.395870
C94	C	0.066940	0.090007	0.895870
N95	N	-0.393948	-0.519383	0.360023
N96	N	0.106052	-0.019383	0.860023
N97	N	-0.436349	-0.485004	0.398884
N98	N	0.063651	0.014996	0.898884
C99	C	-0.407743	-1.009304	0.196157
C100	C	0.092257	-0.509304	0.696157
C101	C	-0.404600	-1.012485	0.118054
C102	C	0.095400	-0.512485	0.618054
C103	C	-0.381818	-1.034814	0.678596
C104	C	0.118182	-0.534814	1.178596
C105	C	-0.384812	-1.031895	0.751984
C106	C	0.115188	-0.531895	1.251984
C107	C	-0.431651	-0.985468	0.786883
C108	C	0.068349	-0.485468	1.286883
C109	C	-0.475503	-0.941964	0.748390
C110	C	0.024497	-0.441964	1.248390
C111	C	-0.472512	-0.944888	0.675003
C112	C	0.027488	-0.444888	1.175003
C113	C	-0.445461	-0.971905	1.006174
C114	C	0.054539	-0.471905	1.506174
C115	C	-0.448447	-0.968983	1.079566
C116	C	0.051553	-0.468983	1.579566
C117	C	-0.357757	-1.058915	1.083156
C118	C	0.142243	-0.558915	1.583156
C119	C	-0.354767	-1.061831	1.009767
C120	C	0.145233	-0.561831	1.509767
C121	C	-0.398622	-1.018330	0.971280
C122	C	0.101378	-0.518330	1.471280
N123	N	-0.434711	-0.982481	0.861898
N124	N	0.065289	-0.482481	1.361898
N125	N	-0.395565	-1.021321	0.896267
N126	N	0.104435	-0.521321	1.396267
H127	H	-0.848590	-0.890989	0.416686
H128	H	-0.348590	-0.390989	0.916686
F129	F	-0.992032	-1.092882	0.474652
F130	F	-0.492032	-0.592882	0.974652
F131	F	-0.311089	-1.105211	1.124121
F132	F	0.188911	-0.605211	1.624121
H133	H	-0.847074	-1.022917	0.263548
H134	H	-0.347074	-0.522917	0.763548
F135	F	-0.519184	-0.898589	0.634041
F136	F	-0.019184	-0.398589	1.134041
H137	H	-0.486602	-0.931186	1.107979
H138	H	0.013398	-0.431186	1.607979
H139	H	-0.316627	-1.099635	0.981354
H140	H	0.183373	-0.599635	1.481354
H141	H	-0.983169	-1.118346	0.366747
H142	H	-0.483169	-0.618346	0.866747
H143	H	-0.972791	-0.933749	0.283725
H144	H	-0.472791	-0.433749	0.783725
H145	H	-0.975808	-0.890681	0.416551
H146	H	-0.475808	-0.390681	0.916551
H147	H	-0.982425	-0.955380	0.486488
H148	H	-0.482425	-0.455380	0.986488
F149	F	-0.980911	-1.040085	0.253549
F150	F	-0.480911	-0.540085	0.753549
H151	H	-0.337854	-0.273317	0.308589
H152	H	0.162146	0.226683	0.808589
F153	F	-0.838075	-0.913975	0.281859
F154	F	-0.338075	-0.413975	0.781859
H155	H	-0.492439	-0.731069	0.450322
H156	H	0.007561	-0.231069	0.950322
H157	H	-0.854835	-0.955627	0.487086
H158	H	-0.354835	-0.455627	0.987086
H159	H	-0.521839	-0.399896	0.477257
H160	H	-0.021839	0.100104	0.977257
F161	F	-0.498487	-0.588313	0.455850
F162	F	0.001513	-0.088313	0.955850
H163	H	-0.856405	-1.118397	0.365920
H164	H	-0.356405	-0.618397	0.865920
H165	H	-0.516007	-0.266757	0.471903
H166	H	-0.016007	0.233243	0.971903
F167	F	-0.331960	-1.084224	0.641461
F168	F	0.168040	-0.584224	1.141461
H169	H	-0.857919	-1.089260	0.456855
H170	H	-0.357919	-0.589260	0.956855
F171	F	-0.331813	-0.416073	0.303052
F172	F	0.168187	0.083927	0.803052
H173	H	-0.308457	-0.604488	0.281658
H174	H	0.191543	-0.104488	0.781658
H175	H	-0.314287	-0.737628	0.287005
H176	H	0.185713	-0.237628	0.787005
F177	F	-0.338145	-1.078198	0.792943
F178	F	0.161855	-0.578198	1.292943
F179	F	-0.492136	-0.925606	0.965223
F180	F	0.007864	-0.425606	1.465223
H181	H	-0.513644	-0.904166	0.776810
H182	H	-0.013644	-0.404166	1.276810
