data_functionalizedCrystal
_audit_creation_method	'MofGen! by Chris Wilmer'
_symmetry_space_group_name_H-M	'P1'
_symmetry_Int_Tables_number	1
_symmetry_cell_setting	triclinic
loop_
_symmetry_equiv_pos_as_xyz
  x,y,z
_cell_length_a	12.759400
_cell_length_b	16.120566
_cell_length_c	16.120297
_cell_angle_alpha	90.125018
_cell_angle_beta	87.123407
_cell_angle_gamma	92.890503
loop_
_atom_site_label
_atom_site_type_symbol
_atom_site_fract_x
_atom_site_fract_y
_atom_site_fract_z
Zn1	Zn	-0.532269	-1.247512	0.534662
Zn2	Zn	-0.699523	-1.254486	0.395614
Zn3	Zn	-0.514517	-1.115500	0.388571
Zn4	Zn	-0.698557	-1.108442	0.527575
O5	O	-0.611216	-1.181485	0.461605
O6	O	-0.562290	-1.364804	0.522130
O7	O	-0.667956	-1.241921	0.278314
O8	O	-0.369854	-1.133046	0.407969
O9	O	-0.685170	-1.369928	0.419972
O10	O	-0.382897	-1.230035	0.515301
O11	O	-0.532033	-1.139809	0.273140
O12	O	-0.531096	-0.998197	0.401098
O13	O	-0.683524	-1.121018	0.644880
O14	O	-0.666310	-0.993012	0.503223
O15	O	-0.561353	-1.223192	0.650087
O16	O	-0.846412	-1.235078	0.413100
O17	O	-0.845703	-1.127781	0.510051
C18	C	-0.596673	-0.965431	0.450628
C19	C	-0.590477	-0.873002	0.445951
C20	C	-0.579142	-0.703771	0.437420
C21	C	-0.643382	-0.660039	0.485798
C22	C	-0.637075	-0.565873	0.481051
C23	C	-0.585447	-0.797945	0.442165
C24	C	-0.884180	-1.181442	0.461590
C25	C	-1.000962	-1.181498	0.461615
C26	C	-1.062536	-1.231971	0.517545
C27	C	-1.172264	-1.232009	0.517567
C28	C	-1.158833	-1.131099	0.405722
C29	C	-1.049107	-1.131057	0.405705
C30	C	-1.070292	-1.290234	0.582115
C31	C	-1.180020	-1.290272	0.582138
C32	C	-0.337190	-1.181550	0.461640
C33	C	-0.220416	-1.181577	0.461655
C34	C	-0.624311	-1.170540	0.678500
C35	C	-0.629891	-1.165875	0.770927
C36	C	-0.625820	-0.398383	0.472613
C37	C	-0.632050	-0.490813	0.477269
C38	C	-0.598101	-1.192436	0.245557
C39	C	-0.592235	-1.197261	0.153139
C40	C	-0.640053	-1.157329	0.940152
C41	C	-0.582076	-1.205805	0.983919
C42	C	-0.587731	-1.201049	1.078081
C43	C	-0.634400	-1.162083	0.845981
H44	H	-0.519413	-0.670493	0.392440
H45	H	-0.998973	-1.089950	0.360170
O46	O	-1.205773	-1.082182	0.351443
C47	C	-1.368858	-1.037478	0.301941
C48	C	-1.315838	-1.092931	0.363445
H49	H	-1.457853	-1.046136	0.311635
H50	H	-1.344317	-1.055509	0.235622
H51	H	-1.343640	-0.969682	0.313072
H52	H	-1.341029	-1.160743	0.352389
H53	H	-1.340378	-1.074829	0.429743
O54	O	-0.714620	-0.699868	0.539389
C55	C	-0.785864	-0.831400	0.593096
C56	C	-0.705158	-0.786396	0.532359
H57	H	-0.778227	-0.901365	0.587446
H58	H	-0.868571	-0.815171	0.577536
H59	H	-0.770493	-0.810970	0.659323
H60	H	-0.720432	-0.806802	0.466112
H61	H	-0.622478	-0.802626	0.547991
O62	O	-1.038171	-1.265656	0.657909
C63	C	-1.089897	-1.221023	0.796063
C64	C	-1.126416	-1.248825	0.710263
H65	H	-1.161224	-1.207425	0.838420
H66	H	-1.036154	-1.162542	0.788881
H67	H	-1.045269	-1.272583	0.824425
H68	H	-1.171087	-1.197322	0.681853
H69	H	-1.180106	-1.307329	0.717499
O70	O	-1.033054	-1.364674	0.558379
C71	C	-1.075473	-1.504561	0.513674
C72	C	-1.117789	-1.420309	0.540562
H73	H	-1.143958	-1.549560	0.499245
H74	H	-1.030187	-1.530883	0.565967
H75	H	-1.020927	-1.495590	0.455845
H76	H	-1.172376	-1.429210	0.598372
H77	H	-1.163013	-1.394015	0.488220
H78	H	-1.216183	-1.264065	0.642124
O79	O	-0.704216	-1.103448	0.979765
C80	C	-0.747333	-0.960672	0.999307
C81	C	-0.674575	-1.021593	0.954391
H82	H	-0.723408	-0.894481	0.978796
H83	H	-0.740488	-0.966301	1.069289
H84	H	-0.832024	-0.976147	0.983044
H85	H	-0.589854	-1.006158	0.970586
H86	H	-0.681510	-1.015953	0.884419
H87	H	-1.213041	-1.355570	0.568221
O88	O	-0.517870	-1.259547	0.944131
C89	C	-0.453529	-1.313270	0.812633
C90	C	-0.526308	-1.252393	0.857592
H91	H	-0.460309	-1.307494	0.742658
H92	H	-0.477478	-1.379502	0.832998
H93	H	-0.368853	-1.297839	0.828966
H94	H	-0.611005	-1.267747	0.841281
H95	H	-0.502270	-1.186178	0.837224
