data_functionalizedCrystal
_audit_creation_method	'MofGen! by Chris Wilmer'
_symmetry_space_group_name_H-M	'P1'
_symmetry_Int_Tables_number	1
_symmetry_cell_setting	triclinic
loop_
_symmetry_equiv_pos_as_xyz
  x,y,z
_cell_length_a	17.000371
_cell_length_b	23.532357
_cell_length_c	16.098678
_cell_angle_alpha	92.719562
_cell_angle_beta	87.494232
_cell_angle_gamma	79.213770
loop_
_atom_site_label
_atom_site_type_symbol
_atom_site_fract_x
_atom_site_fract_y
_atom_site_fract_z
O1	O	1.052356	0.023254	0.069262
O2	O	1.385690	0.356587	0.402595
O3	O	1.719023	0.689920	0.735929
O4	O	0.820455	0.043932	0.069266
O5	O	1.153788	0.377265	0.402599
O6	O	1.487121	0.710599	0.735932
O7	O	0.943420	-0.049664	0.069247
O8	O	1.276754	0.283669	0.402580
O9	O	1.610087	0.617002	0.735913
O10	O	0.929391	0.116850	0.069281
O11	O	1.262724	0.450183	0.402614
O12	O	1.596058	0.783517	0.735948
O13	O	0.950566	-0.055113	-0.069265
O14	O	1.283900	0.278220	0.264069
O15	O	1.617233	0.611554	0.597402
O16	O	0.827601	0.038483	-0.069245
O17	O	1.160934	0.371817	0.264088
O18	O	1.494268	0.705150	0.597421
O19	O	1.059503	0.017805	-0.069249
O20	O	1.392836	0.351138	0.264084
O21	O	1.726169	0.684472	0.597417
Zn22	Zn	0.944687	0.027279	-0.091239
Zn23	Zn	1.278020	0.360612	0.242094
Zn24	Zn	1.611353	0.693946	0.575428
Zn25	Zn	0.935271	0.034458	0.091255
Zn26	Zn	1.268604	0.367791	0.424589
Zn27	Zn	1.601938	0.701125	0.757922
O28	O	0.936537	0.111401	-0.069230
O29	O	1.269871	0.444735	0.264103
O30	O	1.603204	0.778068	0.597437
C31	C	0.794365	0.042318	0.000010
C32	C	1.127699	0.375652	0.333344
C33	C	1.461032	0.708985	0.666677
C34	C	0.705980	0.045621	0.000011
C35	C	1.039313	0.378954	0.333344
C36	C	1.372646	0.712288	0.666678
C37	C	0.946643	-0.073589	-0.000012
C38	C	1.279976	0.259744	0.333322
C39	C	1.613309	0.593077	0.666655
C40	C	0.945588	-0.136760	-0.000019
C41	C	1.278921	0.196574	0.333314
C42	C	1.612255	0.529907	0.666647
C43	C	0.674369	-0.005204	-0.000001
C44	C	1.007703	0.328130	0.333332
C45	C	1.341036	0.661463	0.666666
C46	C	0.591321	-0.002097	0.000006
C47	C	0.924654	0.331237	0.333339
C48	C	1.257987	0.664570	0.666672
C49	C	0.539884	0.051835	0.000018
C50	C	0.873217	0.385168	0.333352
C51	C	1.206551	0.718502	0.666685
C52	C	0.571499	0.102664	0.000033
C53	C	0.904833	0.435997	0.333366
C54	C	1.238166	0.769330	0.666700
C55	C	0.654546	0.099557	0.000032
C56	C	0.987880	0.432890	0.333366
C57	C	1.321213	0.766223	0.666699
C58	C	0.288640	0.063838	0.000027
C59	C	0.621973	0.397171	0.333360
C60	C	0.955306	0.730504	0.666693
C61	C	0.205588	0.066941	0.000025
C62	C	0.538921	0.400274	0.333358
C63	C	0.872255	0.733607	0.666691
C64	C	0.225415	-0.037820	-0.000001
C65	C	0.558748	0.295513	0.333332
C66	C	0.892082	0.628847	0.666666
C67	C	0.308463	-0.040923	-0.000007
C68	C	0.641796	0.292411	0.333327
C69	C	0.975129	0.625744	0.666660
C70	C	0.340071	0.009906	0.000012
C71	C	0.673404	0.343239	0.333346
C72	C	1.006737	0.676573	0.666679
C73	C	0.454995	0.055012	0.000023
C74	C	0.788328	0.388345	0.333356
C75	C	1.121662	0.721679	0.666689
C76	C	0.424958	0.006729	0.000014
C77	C	0.758291	0.340062	0.333347
C78	C	1.091625	0.673395	0.666681
C79	C	0.935068	-0.525494	0.075528
C80	C	1.268401	-0.192161	0.408861
C81	C	1.601734	0.141173	0.742195
C82	C	0.934065	-0.584847	0.075533
C83	C	1.267398	-0.251514	0.408866
C84	C	1.600731	0.081819	0.742200
O85	O	0.930206	-0.613012	0.139745
O86	O	1.263540	-0.279679	0.473078
O87	O	1.596873	0.053654	0.806411
N88	N	0.937463	-0.617506	0.000031
N89	N	1.270796	-0.284172	0.333365
N90	N	1.604130	0.049161	0.666698
C91	C	0.941856	-0.590807	-0.075480
C92	C	1.275190	-0.257474	0.257854
C93	C	1.608523	0.075860	0.591187
O94	O	0.944654	-0.624035	-0.139699
O95	O	1.277987	-0.290702	0.193634
O96	O	1.611320	0.042631	0.526968
C97	C	0.942853	-0.531454	-0.075484
C98	C	1.276187	-0.198121	0.257850
C99	C	1.609520	0.135213	0.591183
C100	C	0.939463	-0.498800	0.000023
C101	C	1.272796	-0.165466	0.333356
C102	C	1.606130	0.167867	0.666690
C103	C	0.931677	-0.492840	0.151028
C104	C	1.265010	-0.159507	0.484362
C105	C	1.598344	0.173827	0.817695
C106	C	0.932681	-0.433491	0.151023
C107	C	1.266015	-0.100158	0.484357
C108	C	1.599348	0.233176	0.817690
C109	C	0.937077	-0.406797	0.075518
C110	C	1.270410	-0.073463	0.408851
C111	C	1.603743	0.259870	0.742185
C112	C	0.940468	-0.439451	0.000018
C113	C	1.273801	-0.106118	0.333351
C114	C	1.607134	0.227216	0.666684
C115	C	0.947241	-0.504755	-0.150994
C116	C	1.280574	-0.171422	0.182340
C117	C	1.613908	0.161911	0.515673
C118	C	0.948237	-0.445398	-0.150991
C119	C	1.281571	-0.112065	0.182342
C120	C	1.614904	0.221268	0.515675
C121	C	0.944847	-0.412744	-0.075485
C122	C	1.278180	-0.079411	0.257849
C123	C	1.611514	0.253923	0.591182
C124	C	0.945867	-0.353408	-0.075493
C125	C	1.279201	-0.020074	0.257841
C126	C	1.612534	0.313259	0.591174
N127	N	0.942469	-0.320749	0.000009
N128	N	1.275803	0.012584	0.333342
N129	N	1.609136	0.345917	0.666675
C130	C	0.938074	-0.347444	0.075514
C131	C	1.271407	-0.014110	0.408847
C132	C	1.604741	0.319223	0.742181
C133	C	0.939760	-0.715451	-0.075466
C134	C	1.273093	-0.382118	0.257868
C135	C	1.606427	-0.048785	0.591201
C136	C	0.938769	-0.774804	-0.075463
C137	C	1.272102	-0.441471	0.257871
C138	C	1.605435	-0.108137	0.591204
C139	C	0.930976	-0.768840	0.075550
C140	C	1.264309	-0.435507	0.408884
C141	C	1.597642	-0.102173	0.742217
C142	C	0.931973	-0.709487	0.075546
C143	C	1.265306	-0.376154	0.408880
C144	C	1.598640	-0.042821	0.742213
C145	C	0.936362	-0.682793	0.000036
C146	C	1.269695	-0.349460	0.333369
C147	C	1.603029	-0.016126	0.666702
C148	C	0.940185	-0.222807	0.075498
C149	C	1.273518	0.110526	0.408831
C150	C	1.606851	0.443859	0.742164
C151	C	0.941193	-0.163454	0.075486
C152	C	1.274526	0.169879	0.408819
C153	C	1.607859	0.503213	0.742153
C154	C	0.948981	-0.169423	-0.075526
C155	C	1.282315	0.163911	0.257807
C156	C	1.615648	0.497244	0.591140
C157	C	0.947977	-0.228771	-0.075515
C158	C	1.281311	0.104562	0.257818
C159	C	1.614644	0.437895	0.591152
C160	C	0.943576	-0.255462	0.000004
C161	C	1.276909	0.077872	0.333337
C162	C	1.610243	0.411205	0.666670
O163	O	0.949722	-0.325203	-0.139672
O164	O	1.283055	0.008130	0.193662
O165	O	1.616388	0.341464	0.526995
O166	O	0.935267	-0.314207	0.139723
O167	O	1.268600	0.019126	0.473056
O168	O	1.601933	0.352460	0.806389
C169	C	1.085592	0.019419	0.000008
C170	C	1.418926	0.352752	0.333341
C171	C	1.752259	0.686085	0.666675
C172	C	1.173978	0.016116	0.000013
C173	C	1.507311	0.349450	0.333346
C174	C	1.840644	0.682783	0.666679
C175	C	0.933315	0.135326	0.000030
C176	C	1.266648	0.468660	0.333363
C177	C	1.599981	0.801993	0.666697
C178	C	0.934369	0.198497	0.000043
C179	C	1.267702	0.531830	0.333377
C180	C	1.601036	0.865164	0.666710
N181	N	0.951118	0.022379	-0.215787
N182	N	1.284451	0.355712	0.117547
N183	N	1.617785	0.689046	0.450880
C184	C	0.898917	0.062092	-0.259384
C185	C	1.232250	0.395425	0.073949
C186	C	1.565583	0.728758	0.407283
C187	C	0.903439	0.058660	-0.346572
C188	C	1.236773	0.391994	-0.013239
C189	C	1.570106	0.725327	0.320095
C190	C	0.960160	0.015513	-0.390161
C191	C	1.293493	0.348846	-0.056828
C192	C	1.626827	0.682180	0.276506
C193	C	1.012367	-0.024202	-0.346557
C194	C	1.345700	0.309132	-0.013224
C195	C	1.679033	0.642465	0.320109
C196	C	1.007848	-0.020767	-0.259371
C197	C	1.341181	0.312566	0.073962
C198	C	1.674514	0.645899	0.407296
C199	C	0.976533	0.003073	-0.653407
C200	C	1.309867	0.336406	-0.320074
C201	C	1.643200	0.669740	0.013260
C202	C	0.981047	-0.000360	-0.740599
C203	C	1.314380	0.332974	-0.407266
C204	C	1.647714	0.666307	-0.073933
C205	C	0.872120	0.082504	-0.740608
C206	C	1.205453	0.415837	-0.407275
C207	C	1.538787	0.749170	-0.073941
C208	C	0.867603	0.085932	-0.653420
C209	C	1.200936	0.419265	-0.320087
C210	C	1.534269	0.752599	0.013247
C211	C	0.919812	0.046219	-0.609824
C212	C	1.253146	0.379552	-0.276491
C213	C	1.586479	0.712886	0.056843
C214	C	0.964782	0.012003	-0.479281
C215	C	1.298116	0.345337	-0.145948
C216	C	1.631449	0.678670	0.187386
C217	C	0.915193	0.049732	-0.520706
C218	C	1.248526	0.383065	-0.187372
C219	C	1.581860	0.716398	0.145961
N220	N	0.928846	0.039353	0.215803
N221	N	1.262179	0.372687	0.549136
N222	N	1.595512	0.706020	0.882470
H223	H	0.716244	-0.049121	-0.000015
H224	H	1.049578	0.284212	0.333319
H225	H	1.382911	0.617546	0.666652
Br226	Br	0.385182	0.128204	0.000044
Br227	Br	0.718515	0.461537	0.333377
Br228	Br	1.051848	0.794870	0.666711
H229	H	0.869014	0.084864	-0.485213
H230	H	1.202347	0.418198	-0.151880
H231	H	1.535680	0.751531	0.181454
H232	H	0.938434	-0.136869	0.136975
H233	H	1.271767	0.196464	0.470308
H234	H	1.605100	0.529797	0.803642
Br235	Br	0.954192	-0.409174	-0.253476
Br236	Br	1.287526	-0.075840	0.079857
Br237	Br	1.620859	0.257493	0.413191
Br238	Br	0.832597	0.112559	-0.405743
Br239	Br	1.165930	0.445892	-0.072409
Br240	Br	1.499263	0.779225	0.260924
H241	H	0.529613	0.146576	0.000049
H242	H	0.862946	0.479910	0.333382
H243	H	1.196279	0.813243	0.666715
H244	H	0.680281	0.140943	0.000038
H245	H	1.013615	0.474277	0.333372
H246	H	1.346948	0.807610	0.666705
H247	H	0.852726	0.097225	-0.223900
H248	H	1.186059	0.430558	0.109434
H249	H	1.519392	0.763891	0.442767
Br250	Br	0.934210	-0.259021	0.177988
Br251	Br	1.267544	0.074313	0.511322
Br252	Br	1.600877	0.407646	0.844655
H253	H	0.821416	0.121066	-0.617932
H254	H	1.154749	0.454399	-0.284598
H255	H	1.488083	0.787733	0.048735
H256	H	0.350338	-0.084840	-0.000021
H257	H	0.683671	0.248494	0.333313
H258	H	1.017005	0.581827	0.666646
H259	H	0.466841	-0.037182	0.000009
H260	H	0.800174	0.296151	0.333342
H261	H	1.133508	0.629485	0.666675
H262	H	1.027238	-0.035498	-0.776086
H263	H	1.360572	0.297836	-0.442752
H264	H	1.693905	0.631169	-0.109419
Br265	Br	0.951839	-0.549057	-0.253474
Br266	Br	1.285173	-0.215723	0.079860
Br267	Br	1.618506	0.117610	0.413193
Br268	Br	1.047385	-0.050822	-0.594246
Br269	Br	1.380719	0.282511	-0.260912
Br270	Br	1.714052	0.615844	0.072421
H271	H	0.929211	-0.682904	0.137030
H272	H	1.262544	-0.349570	0.470364
H273	H	1.595878	-0.016237	0.803697
Br274	Br	1.089352	-0.082757	-0.405710
Br275	Br	1.422686	0.250577	-0.072377
Br276	Br	1.756019	0.583910	0.260956
Br277	Br	0.182514	-0.106798	-0.000024
Br278	Br	0.515847	0.226536	0.333309
Br279	Br	0.849180	0.559869	0.666643
Br280	Br	0.135781	0.140139	0.000030
Br281	Br	0.469114	0.473472	0.333363
Br282	Br	0.802447	0.806805	0.666697
Br283	Br	0.925006	-0.805079	0.178023
Br284	Br	1.258339	-0.471746	0.511356
Br285	Br	1.591673	-0.138412	0.844690
H286	H	0.829614	0.114836	-0.776112
H287	H	1.162948	0.448170	-0.442778
H288	H	1.496281	0.781503	-0.109445
H289	H	0.929918	-0.406908	0.212508
H290	H	1.263251	-0.073575	0.545842
H291	H	1.596584	0.259758	0.879175
H292	H	0.928095	-0.514567	0.212517
H293	H	1.261428	-0.181234	0.545851
H294	H	1.594761	0.152099	0.879184
H295	H	1.050356	-0.053105	-0.223875
H296	H	1.383690	0.280228	0.109459
H297	H	1.717023	0.613562	0.442792
H298	H	0.950745	-0.255361	-0.136999
H299	H	1.284079	0.077972	0.196335
H300	H	1.617412	0.411306	0.529668
Br301	Br	0.943389	-0.819116	-0.177940
Br302	Br	1.276722	-0.485783	0.155394
Br303	Br	1.610056	-0.152450	0.488727
Br304	Br	0.945723	-0.679231	-0.177954
Br305	Br	1.279056	-0.345897	0.155379
Br306	Br	1.612389	-0.012564	0.488712
Br307	Br	0.954948	-0.133183	-0.177993
Br308	Br	1.288282	0.200150	0.155340
Br309	Br	1.621615	0.533484	0.488674
H310	H	1.010964	-0.023129	-0.514778
H311	H	1.344297	0.310204	-0.181445
H312	H	1.677631	0.643538	0.151888
H313	H	0.565588	-0.043483	-0.000003
H314	H	0.898921	0.289850	0.333330
H315	H	1.232255	0.623183	0.666663
H316	H	0.314364	0.105226	0.000047
H317	H	0.647697	0.438559	0.333381
H318	H	0.981031	0.771893	0.666714
