data_functionalizedCrystal
_audit_creation_method	'MofGen! by Chris Wilmer'
_symmetry_space_group_name_H-M	'P1'
_symmetry_Int_Tables_number	1
_symmetry_cell_setting	triclinic
loop_
_symmetry_equiv_pos_as_xyz
  x,y,z
_cell_length_a	13.185407
_cell_length_b	13.262234
_cell_length_c	11.804365
_cell_angle_alpha	93.586080
_cell_angle_beta	82.250109
_cell_angle_gamma	111.133176
loop_
_atom_site_label
_atom_site_type_symbol
_atom_site_fract_x
_atom_site_fract_y
_atom_site_fract_z
O1	O	-0.215381	1.265280	0.310846
O2	O	-0.210958	0.980685	0.218653
O3	O	-0.058154	1.171740	0.280549
O4	O	-0.368186	1.074224	0.248949
O5	O	-0.098338	1.121454	0.462314
O6	O	-0.251142	0.930399	0.400417
O7	O	-0.255565	1.214994	0.492610
Cu8	Cu	-0.257023	1.068105	0.463110
Cu9	Cu	-0.209501	1.127574	0.248153
O10	O	-0.408370	1.023938	0.430714
C11	C	-0.227604	0.919884	0.297984
C12	C	-0.217321	0.813640	0.263567
C13	C	-0.038374	1.156484	0.374633
C14	C	0.080434	1.185931	0.384169
C15	C	0.391199	0.904904	0.293123
C16	C	0.279575	0.877237	0.284152
C17	C	0.229784	0.954408	0.309156
C18	C	0.291628	1.059252	0.343132
C19	C	0.403264	1.086924	0.352095
C20	C	0.241849	1.136428	0.368128
C21	C	0.303693	1.241272	0.402104
C22	C	0.415318	1.268939	0.411067
C23	C	0.465109	1.191768	0.386063
C24	C	0.130213	1.108755	0.359164
C25	C	0.142279	1.290775	0.418137
C26	C	0.253902	1.318443	0.427108
C27	C	-0.238919	1.275795	0.413277
C28	C	-0.249200	1.382041	0.447686
C29	C	0.571850	1.039195	0.336629
C30	C	0.453044	1.009748	0.327091
N31	N	-0.290447	1.026284	0.614302
C32	C	-0.275936	1.404551	0.562937
C33	C	-0.285607	1.504370	0.595262
C34	C	-0.268536	1.581693	0.512341
C35	C	-0.241793	1.559186	0.397089
C36	C	-0.232128	1.459354	0.364760
C37	C	-0.224729	1.636495	0.314164
C38	C	-0.197986	1.613989	0.198912
C39	C	-0.188322	1.514166	0.166589
C40	C	-0.205393	1.436843	0.249510
C41	C	-0.234393	1.736328	0.346494
C42	C	-0.190586	1.791130	0.148317
C43	C	-0.180914	1.691311	0.115992
N44	N	-0.176068	1.169404	0.096964
C45	C	-0.095783	1.269835	1.067155
C46	C	-0.070493	1.301472	0.952742
C47	C	-0.125479	1.232678	0.868127
C48	C	-0.205760	1.132241	0.897935
C49	C	-0.231059	1.100605	1.012359
C50	C	-0.260755	1.063447	0.813332
C51	C	-0.341036	0.963011	0.843139
C52	C	-0.366330	0.931379	0.957553
C53	C	-0.311344	1.000174	1.042168
C54	C	-0.235456	1.095084	0.698907
C55	C	-0.370732	0.925853	0.644112
C56	C	-0.396023	0.894216	0.758524
H57	H	0.079871	1.023390	0.331501
Cl58	Cl	-0.343135	0.960396	1.186006
Cl59	Cl	-0.280692	1.707182	0.552981
Cl60	Cl	-0.026675	1.356315	1.173527
H61	H	-0.289840	1.341586	0.630437
Cl62	Cl	-0.154719	1.485867	0.021699
H63	H	0.555998	1.214286	0.393378
Cl64	Cl	-0.319230	1.532657	0.740142
H65	H	-0.159140	1.672971	0.022152
H66	H	-0.176689	1.854086	0.080795
Cl67	Cl	-0.467267	0.805125	0.995030
H68	H	0.431751	0.842085	0.272760
H69	H	-0.005130	1.383247	0.928478
Cl70	Cl	-0.496946	0.767957	0.796009
H71	H	0.101752	1.353630	0.438441
H72	H	-0.197510	1.355564	0.223197
H73	H	-0.170092	1.176859	0.674649
H74	H	-0.104884	1.258441	0.774969
H75	H	0.229231	0.791874	0.256485
Cl76	Cl	-0.439866	0.839367	0.537745
H77	H	0.138895	0.931874	0.301851
H78	H	0.465670	1.354313	0.438722
H79	H	-0.256170	1.754641	0.440332
H80	H	0.304270	1.403808	0.454771
