data_functionalizedCrystal
_audit_creation_method	'MofGen! by Chris Wilmer'
_symmetry_space_group_name_H-M	'P1'
_symmetry_Int_Tables_number	1
_symmetry_cell_setting	triclinic
loop_
_symmetry_equiv_pos_as_xyz
  x,y,z
_cell_length_a	19.288840
_cell_length_b	19.288868
_cell_length_c	17.766277
_cell_angle_alpha	89.994224
_cell_angle_beta	89.983415
_cell_angle_gamma	83.131872
loop_
_atom_site_label
_atom_site_type_symbol
_atom_site_fract_x
_atom_site_fract_y
_atom_site_fract_z
O1	O	0.921365	0.086566	-0.062719
O2	O	0.719102	0.098273	-0.062693
O3	O	0.826077	-0.008711	-0.062703
O4	O	0.814391	0.193550	-0.062709
O5	O	0.826058	-0.008717	0.062486
O6	O	0.719084	0.098267	0.062496
O7	O	0.921347	0.086560	0.062470
Cu8	Cu	0.820213	0.092413	0.073913
Cu9	Cu	0.820236	0.092420	-0.074137
O10	O	0.814372	0.193544	0.062480
C11	C	0.693216	0.097896	-0.000095
C12	C	0.616112	0.096774	-0.000085
C13	C	0.579918	0.096238	-0.068327
C14	C	0.507471	0.095176	-0.068336
C15	C	0.471222	0.094636	-0.000100
C16	C	0.507424	0.095176	0.068152
C17	C	0.579869	0.096245	0.068159
C18	C	0.361886	0.052256	0.052170
C19	C	0.289444	0.051183	0.052160
C20	C	0.247779	0.091342	-0.000119
C21	C	0.278567	0.132566	-0.052401
C22	C	0.351011	0.133635	-0.052394
C23	C	0.392668	0.093477	-0.000100
C24	C	0.133030	0.089655	-0.068376
C25	C	0.060581	0.088598	-0.068382
C26	C	0.060536	0.088591	0.068108
C27	C	0.132983	0.089656	0.068112
C28	C	0.169226	0.090184	-0.000132
C29	C	0.825691	-0.034591	-0.000109
C30	C	0.824561	-0.111694	-0.000111
C31	C	0.947233	0.086937	-0.000130
C32	C	1.024337	0.088059	-0.000145
N33	N	0.820203	0.092408	0.178044
C34	C	0.814758	0.219424	-0.000116
C35	C	0.815888	0.296527	-0.000119
C36	C	0.824049	0.852093	-0.068350
C37	C	0.822982	0.779647	-0.068353
C38	C	0.822442	0.743415	-0.000113
C39	C	0.822950	0.779637	0.068135
C40	C	0.824010	0.852083	0.068136
C41	C	0.861437	0.623184	0.052163
C42	C	0.860382	0.550739	0.052159
C43	C	0.819170	0.519968	-0.000113
C44	C	0.779023	0.561650	-0.052394
C45	C	0.780083	0.634096	-0.052393
C46	C	0.821292	0.664859	-0.000106
C47	C	0.817500	0.405201	-0.068360
C48	C	0.816429	0.332754	-0.068360
C49	C	0.816404	0.332745	0.068130
C50	C	0.817468	0.405191	0.068128
C51	C	0.818020	0.441414	-0.000119
N52	N	0.820252	0.092419	-0.178267
C53	C	0.867586	0.045059	0.217426
C54	C	0.867590	0.045056	0.296228
C55	C	0.820217	0.092414	0.335644
C56	C	0.772825	0.139767	0.296252
C57	C	0.772818	0.139764	0.217452
C58	C	0.810919	0.155702	0.460481
C59	C	0.810932	0.155706	0.539280
C60	C	0.820236	0.092422	0.578691
C61	C	0.829543	0.029132	0.539293
C62	C	0.829536	0.029129	0.460492
C63	C	0.820220	0.092422	0.421090
C64	C	0.867627	0.045065	0.703519
C65	C	0.867626	0.045061	0.782322
C66	C	0.772864	0.139778	0.782345
C67	C	0.772861	0.139777	0.703543
C68	C	0.820246	0.092421	0.664135
H69	H	0.395805	0.019552	0.094746
H70	H	0.031113	0.088165	-0.123955
H71	H	0.477905	0.094738	0.123711
H72	H	0.031022	0.088155	0.123668
H73	H	0.822508	0.750133	0.123697
N74	N	0.822430	0.740571	-0.141952
H75	H	0.779574	0.758944	-0.171789
H76	H	0.865700	0.747421	-0.171728
H77	H	0.244644	0.165270	-0.094969
H78	H	0.734280	0.178336	0.671476
H79	H	0.264383	0.017613	0.094728
N80	N	0.905892	0.656364	0.108547
H81	H	0.941127	0.681764	0.081043
H82	H	0.875114	0.690560	0.140697
N83	N	0.818033	0.444248	0.141733
H84	H	0.861522	0.468537	0.144769
H85	H	0.775395	0.480038	0.144738
H86	H	0.162452	0.090087	0.123682
H87	H	0.609423	0.096669	-0.123897
H88	H	0.906209	0.006500	0.814388
N89	N	0.468422	0.094599	-0.141943
H90	H	0.502375	0.095098	-0.185173
H91	H	0.444140	0.051105	-0.144910
H92	H	0.824496	0.881582	-0.123922
N93	N	0.903682	0.505783	0.108541
H94	H	0.954634	0.511593	0.101569
H95	H	0.888604	0.520443	0.161200
N96	N	0.172127	0.090229	-0.141977
H97	H	0.138202	0.089734	-0.185211
H98	H	0.196416	0.133721	-0.144946
H99	H	0.837119	-0.022400	0.571379
H100	H	0.906208	0.006503	0.671431
N101	N	0.618911	0.096826	0.141766
H102	H	0.584957	0.096326	0.184994
H103	H	0.654739	0.054219	0.144744
N104	N	0.818092	0.444277	-0.141964
H105	H	0.817600	0.410341	-0.185195
H106	H	0.775485	0.480106	-0.144932
N107	N	0.815935	0.293684	-0.141964
H108	H	0.816468	0.327624	-0.185194
H109	H	0.858566	0.257878	-0.144887
H110	H	0.906177	0.006497	0.328299
N111	N	0.384216	0.178105	-0.108769
H112	H	0.436430	0.172687	-0.100828
H113	H	0.373615	0.162714	-0.161432
H114	H	0.747392	0.668031	-0.094960
N115	N	0.734572	0.528474	-0.108781
H116	H	0.739989	0.476256	-0.100849
H117	H	0.684010	0.547939	-0.101777
N118	N	0.815814	0.293678	0.141734
H119	H	0.815063	0.242288	0.131380
H120	H	0.859043	0.300569	0.171533
H121	H	0.824424	0.881568	0.123706
H122	H	0.906169	0.006498	0.185342
N123	N	0.839571	-0.039127	0.417998
H124	H	0.845468	-0.079219	0.454915
H125	H	0.797385	-0.043070	0.385322
N126	N	0.721762	0.190854	0.824847
H127	H	0.728954	0.183670	0.880743
H128	H	0.729626	0.240109	0.811063
N129	N	0.800890	0.223964	0.581770
H130	H	0.794982	0.264053	0.544849
H131	H	0.757900	0.225521	0.614481
N132	N	0.800884	0.223962	0.417977
H133	H	0.794998	0.264055	0.454890
H134	H	0.843066	0.227902	0.385266
H135	H	0.734252	0.178326	0.328349
H136	H	0.734231	0.178322	0.185386
