data_functionalizedCrystal
_audit_creation_method	'MofGen! by Chris Wilmer'
_symmetry_space_group_name_H-M	'P1'
_symmetry_Int_Tables_number	1
_symmetry_cell_setting	triclinic
loop_
_symmetry_equiv_pos_as_xyz
  x,y,z
_cell_length_a	11.792241
_cell_length_b	10.268362
_cell_length_c	14.971494
_cell_angle_alpha	90.003567
_cell_angle_beta	96.094513
_cell_angle_gamma	90.000272
loop_
_atom_site_label
_atom_site_type_symbol
_atom_site_fract_x
_atom_site_fract_y
_atom_site_fract_z
O1	O	-1.506123	0.108149	0.122597
O2	O	-1.175700	0.108183	0.135232
O3	O	-1.349763	0.108162	-0.001249
O4	O	-1.332060	0.108170	0.259079
O5	O	-1.349748	-0.108438	-0.001255
O6	O	-1.175685	-0.108418	0.135226
O7	O	-1.506107	-0.108452	0.122592
Cu8	Cu	-1.340895	-0.128212	0.128909
Cu9	Cu	-1.340913	0.127943	0.128915
O10	O	-1.332045	-0.108431	0.259073
C11	C	-1.133407	-0.000113	0.134436
C12	C	-1.007409	-0.000100	0.132060
N13	N	-1.340891	-0.308378	0.128903
C14	C	-0.776724	-0.000134	0.127692
C15	C	-0.905094	-0.000115	0.130119
C16	C	-1.340907	-0.574048	0.128913
C17	C	-1.340894	-0.426210	0.128910
C18	C	-0.548401	-0.000150	0.123388
C19	C	-0.674399	-0.000144	0.125764
C20	C	-1.348962	-0.000136	-0.034580
C21	C	-1.346584	-0.000130	-0.133886
N22	N	-1.340926	0.308109	0.128913
C23	C	-1.345478	0.117941	-0.180532
C24	C	-1.343237	0.117943	-0.273840
C25	C	-1.342110	-0.000127	-0.320501
C26	C	-1.343213	-0.118207	-0.273848
C27	C	-1.345446	-0.118208	-0.180541
C28	C	-1.338561	-0.118198	-0.468330
C29	C	-1.336330	-0.118198	-0.561644
C30	C	-1.336352	0.117952	-0.561629
C31	C	-1.338585	0.117952	-0.468322
C32	C	-1.339690	-0.000128	-0.421676
C33	C	-1.332846	-0.000130	0.292404
C34	C	-1.335224	-0.000127	0.391710
H35	H	-1.346402	0.214088	-0.142548
N36	N	-1.335157	-0.238790	-0.609321
N37	N	-1.333164	-0.238764	-0.692630
H38	H	-1.332334	-0.323933	-0.726303
H39	H	-1.339511	0.214095	-0.430334
H40	H	-1.335450	0.214098	-0.599613
N41	N	-1.339675	-0.238824	-0.420693
N42	N	-1.338667	-0.344237	-0.462362
H43	H	-1.339456	-0.429429	-0.428720
N44	N	-1.342044	-0.238825	-0.321495
N45	N	-1.262341	-0.317868	-0.303219
H46	H	-1.261516	-0.403058	-0.336867
N47	N	-1.342099	0.238561	-0.321473
N48	N	-1.343109	0.343971	-0.279802
H49	H	-1.342303	0.429165	-0.313441
N50	N	-1.346563	-0.238826	-0.132903
N51	N	-1.345552	-0.344238	-0.174572
H52	H	-1.346334	-0.429430	-0.140928
