data_functionalizedCrystal
_audit_creation_method	'MofGen! by Chris Wilmer'
_symmetry_space_group_name_H-M	'P1'
_symmetry_Int_Tables_number	1
_symmetry_cell_setting	triclinic
loop_
_symmetry_equiv_pos_as_xyz
  x,y,z
_cell_length_a	10.654550
_cell_length_b	8.559649
_cell_length_c	7.681208
_cell_angle_alpha	85.076566
_cell_angle_beta	95.791564
_cell_angle_gamma	77.131784
loop_
_atom_site_label
_atom_site_type_symbol
_atom_site_fract_x
_atom_site_fract_y
_atom_site_fract_z
O1	O	-1.658014	-0.209194	-0.146570
O2	O	-1.290326	-0.230556	-0.146540
O3	O	-1.506563	0.012368	-0.146556
O4	O	-1.441777	-0.452118	-0.146554
O5	O	-1.479911	-0.017578	0.146316
O6	O	-1.263674	-0.260502	0.146332
O7	O	-1.631361	-0.239140	0.146303
Zn8	Zn	-1.443286	-0.254576	0.192817
Zn9	Zn	-1.478402	-0.215120	-0.193055
O10	O	-1.415124	-0.482064	0.146318
C11	C	-1.230364	-0.243961	-0.000101
C12	C	-1.091404	-0.239270	-0.000090
C13	C	-1.498147	0.056871	-0.000123
C14	C	-1.512763	0.234090	-0.000134
C15	C	-1.691324	-0.225735	-0.000141
C16	C	-1.830285	-0.230424	-0.000163
C17	C	-0.997146	-0.382296	-0.000115
C18	C	-0.866585	-0.377875	-0.000146
C19	C	-0.924554	-0.087388	-0.000133
C20	C	-1.055112	-0.091812	-0.000090
C21	C	-1.033439	-0.529755	-0.000115
C22	C	-0.939179	-0.672792	-0.000142
C23	C	-0.808617	-0.668371	-0.000173
C24	C	-0.772316	-0.520912	-0.000176
C25	C	-1.423541	-0.526567	-0.000118
C26	C	-1.408926	-0.703785	-0.000119
N27	N	-1.419330	-0.281502	0.456164
N28	N	-1.502358	-0.188194	0.543598
H29	H	-0.968743	-0.792850	-0.000125
H30	H	-1.308847	0.213826	-0.000105
O31	O	-1.156792	0.062443	-0.000062
H32	H	-1.156539	0.145147	-0.119445
O33	O	-0.706945	-0.822636	-0.000193
H34	H	-0.754122	-0.925907	-0.000196
H35	H	-1.612847	0.316486	-0.000128
O36	O	-1.174256	-0.534529	-0.000076
H37	H	-1.210305	-0.485202	0.119306
H38	H	-1.334606	-0.376725	0.531407
O39	O	-0.885397	0.071646	-0.000151
H40	H	-0.913453	0.128228	0.119238
O41	O	-1.614572	-0.062012	0.443941
H42	H	-1.611432	-0.065519	0.300305
O43	O	-0.631496	-0.516129	-0.000192
H44	H	-0.595438	-0.565442	-0.119576
