data_functionalizedCrystal
_audit_creation_method	'MofGen! by Chris Wilmer'
_symmetry_space_group_name_H-M	'P1'
_symmetry_Int_Tables_number	1
_symmetry_cell_setting	triclinic
loop_
_symmetry_equiv_pos_as_xyz
  x,y,z
_cell_length_a	25.639233
_cell_length_b	18.215407
_cell_length_c	18.215405
_cell_angle_alpha	89.974667
_cell_angle_beta	89.980739
_cell_angle_gamma	90.013543
loop_
_atom_site_label
_atom_site_type_symbol
_atom_site_fract_x
_atom_site_fract_y
_atom_site_fract_z
Zn1	Zn	-0.295620	-1.125026	-0.293065
Zn2	Zn	-0.208184	-1.124948	-0.416112
Zn3	Zn	-0.208197	-1.001972	-0.293065
Zn4	Zn	-0.295587	-1.001925	-0.416095
O5	O	-0.251897	-1.063468	-0.354584
O6	O	-0.284030	-1.228000	-0.309395
O7	O	-0.135020	-1.108622	-0.399796
O8	O	-0.219814	-1.018348	-0.190081
O9	O	-0.219791	-1.227943	-0.399797
O10	O	-0.284043	-1.108755	-0.190081
O11	O	-0.135030	-1.018273	-0.309394
O12	O	-0.219782	-0.898982	-0.309378
O13	O	-0.368756	-1.018267	-0.399768
O14	O	-0.283986	-0.898947	-0.399768
O15	O	-0.368781	-1.108709	-0.309378
O16	O	-0.219758	-1.108576	-0.519094
O17	O	-0.283973	-1.018191	-0.519082
C18	C	-0.251872	-1.063390	-0.545791
C19	C	-0.251879	-1.063424	-0.627590
C20	C	-0.388270	-1.063492	-0.354571
C21	C	-0.446384	-1.063502	-0.354566
C22	C	-0.251882	-0.872262	-0.354572
C23	C	-0.251888	-0.790463	-0.354584
C24	C	-0.806766	-1.110655	-0.307360
C25	C	-0.861370	-1.110664	-0.307340
O26	O	-0.889622	-1.150695	-0.267290
N27	N	-0.888667	-1.063583	-0.354393
C28	C	-0.861356	-1.016484	-0.401465
O29	O	-0.889588	-0.976439	-0.441486
C30	C	-0.806753	-1.016472	-0.401481
C31	C	-0.779459	-1.063561	-0.354430
C32	C	-0.779472	-1.157739	-0.260312
C33	C	-0.724871	-1.157731	-0.260333
C34	C	-0.697565	-1.110638	-0.307403
C35	C	-0.724859	-1.063553	-0.354451
C36	C	-0.779444	-0.969371	-0.448549
C37	C	-0.724836	-0.969362	-0.448560
C38	C	-0.697543	-1.016451	-0.401509
C39	C	-0.642951	-1.016452	-0.401543
N40	N	-0.615655	-1.063533	-0.354489
C41	C	-0.642961	-1.110626	-0.307419
C42	C	-0.976027	-1.016513	-0.401427
C43	C	-1.030629	-1.016528	-0.401415
C44	C	-1.030639	-1.110707	-0.307288
C45	C	-0.976036	-1.110695	-0.307305
C46	C	-0.948730	-1.063594	-0.354373
C47	C	-0.528296	-1.110605	-0.307468
C48	C	-0.473691	-1.110595	-0.307496
C49	C	-0.473686	-1.016414	-0.401620
C50	C	-0.528286	-1.016427	-0.401595
C51	C	-0.555590	-1.063525	-0.354513
O52	O	-0.614664	-0.976438	-0.441569
O53	O	-0.614723	-1.150658	-0.267399
C54	C	-0.116054	-1.063487	-0.354544
C55	C	-0.057941	-1.063619	-0.354342
C56	C	-0.251912	-1.255421	-0.354598
C57	C	-0.251919	-1.337220	-0.354603
C58	C	-0.285277	-0.602270	-0.401724
C59	C	-0.285284	-0.525411	-0.401726
C60	C	-0.218528	-0.525418	-0.307458
C61	C	-0.218525	-0.602275	-0.307452
C62	C	-0.251898	-0.640699	-0.354590
C63	C	-0.251908	-0.486983	-0.354597
C64	C	-0.251915	-0.403649	-0.354600
C65	C	-0.251892	-0.724038	-0.354587
C66	C	-0.218504	-1.110598	-0.815765
C67	C	-0.218516	-1.110631	-0.892624
C68	C	-0.285328	-1.016432	-0.892651
C69	C	-0.285318	-1.016403	-0.815794
C70	C	-0.251902	-1.063485	-0.777353
C71	C	-0.251925	-1.063547	-0.931069
C72	C	-0.251939	-1.063582	-1.014403
C73	C	-0.251889	-1.063451	-0.694014
C74	C	-0.251934	-1.063566	-0.162631
C75	C	-0.251949	-1.063608	-0.080832
H76	H	-0.550521	-1.148955	-0.269128
C77	C	-0.181775	-1.162452	-0.934875
H78	H	-0.161871	-1.190482	-0.900971
H79	H	-0.201799	-1.194510	-0.964815
H80	H	-0.158978	-1.134329	-0.964896
C81	C	-1.060681	-1.162506	-0.255507
H82	H	-1.036608	-1.190553	-0.227487
H83	H	-1.081982	-1.134371	-0.223437
H84	H	-1.081982	-1.194563	-0.283659
C85	C	-0.321999	-0.483138	-0.453574
H86	H	-0.317227	-0.431861	-0.446822
H87	H	-0.314284	-0.495711	-0.503004
H88	H	-0.357143	-0.495756	-0.442870
H89	H	-0.550510	-0.978090	-0.439915
H90	H	-0.312533	-0.978098	-0.923959
C91	C	-0.809501	-1.209551	-0.208535
H92	H	-0.785418	-1.237590	-0.180526
H93	H	-0.830805	-1.181432	-0.176455
H94	H	-0.830797	-1.241612	-0.236688
H95	H	-0.191343	-0.633565	-0.269065
H96	H	-0.191355	-0.494124	-0.269082
C97	C	-0.443668	-1.162392	-0.255737
H98	H	-0.407237	-1.155650	-0.262492
H99	H	-0.452619	-1.151648	-0.206287
H100	H	-0.452622	-1.211836	-0.266513
H101	H	-0.312454	-0.633552	-0.440104
C102	C	-0.443641	-0.964612	-0.453389
H103	H	-0.407213	-0.971349	-0.446652
H104	H	-0.452583	-0.975349	-0.502836
H105	H	-0.452586	-0.915171	-0.442601
C106	C	-0.181754	-1.162393	-0.773483
H107	H	-0.161868	-1.190461	-0.807370
H108	H	-0.158948	-1.134257	-0.743539
H109	H	-0.201777	-1.194428	-0.743462
H110	H	-0.702607	-0.930998	-0.486882
H111	H	-0.702653	-1.196075	-0.222018
C112	C	-0.946017	-1.162484	-0.255541
H113	H	-0.970105	-1.190527	-0.227504
H114	H	-0.924713	-1.194533	-0.283693
H115	H	-0.924722	-1.134338	-0.223474
C116	C	-1.060647	-0.964735	-0.453176
H117	H	-1.036559	-0.936686	-0.481206
H118	H	-1.081950	-0.992869	-0.485238
H119	H	-1.081944	-0.932682	-0.425011
H120	H	-0.312517	-0.978038	-0.784516
C121	C	-0.945995	-0.964715	-0.453222
H122	H	-0.970076	-0.936688	-0.481247
H123	H	-0.924691	-0.932653	-0.425089
H124	H	-0.924699	-0.992858	-0.485299
H125	H	-0.801657	-0.931025	-0.486863
