data_functionalizedCrystal
_audit_creation_method	'MofGen! by Chris Wilmer'
_symmetry_space_group_name_H-M	'P1'
_symmetry_Int_Tables_number	1
_symmetry_cell_setting	triclinic
loop_
_symmetry_equiv_pos_as_xyz
  x,y,z
_cell_length_a	17.699083
_cell_length_b	12.837942
_cell_length_c	16.176319
_cell_angle_alpha	89.994101
_cell_angle_beta	89.998611
_cell_angle_gamma	89.055978
loop_
_atom_site_label
_atom_site_type_symbol
_atom_site_fract_x
_atom_site_fract_y
_atom_site_fract_z
O1	O	1.013708	0.131067	-0.068629
O2	O	1.513708	0.631067	0.431371
O3	O	0.794582	0.148119	-0.068656
O4	O	1.294582	0.648119	0.431344
O5	O	0.899286	-0.011297	-0.068638
O6	O	1.399286	0.488703	0.431362
O7	O	0.909004	0.290484	-0.068647
O8	O	1.409004	0.790484	0.431353
O9	O	0.899269	-0.011307	0.068855
O10	O	1.399269	0.488693	0.568855
O11	O	0.794565	0.148109	0.068837
O12	O	1.294565	0.648109	0.568837
O13	O	1.013691	0.131057	0.068864
O14	O	1.513691	0.631057	0.568864
Cu15	Cu	0.904126	0.139582	0.081405
Cu16	Cu	1.404126	0.639582	0.581405
Cu17	Cu	0.904146	0.139594	-0.081197
Cu18	Cu	1.404146	0.639594	0.418803
O19	O	0.908987	0.290474	0.068846
O20	O	1.408987	0.790474	0.568846
C21	C	0.766332	0.147503	0.000087
C22	C	1.266332	0.647503	0.500087
C23	C	0.682179	0.145670	0.000077
C24	C	1.182179	0.645670	0.500077
C25	C	0.895995	-0.049915	0.000108
C26	C	1.395995	0.450085	0.500108
C27	C	0.886204	-0.164967	0.000105
C28	C	1.386204	0.335033	0.500105
C29	C	0.640432	0.239245	0.000074
C30	C	1.140432	0.739245	0.500074
C31	C	0.561362	0.237516	0.000085
C32	C	1.061362	0.737516	0.500085
C33	C	0.524040	0.142212	0.000092
C34	C	1.024040	0.642212	0.500092
C35	C	0.565792	0.048631	0.000097
C36	C	1.065792	0.548631	0.500097
C37	C	0.644861	0.050360	0.000093
C38	C	1.144861	0.550360	0.500093
C39	C	0.246916	0.041653	0.000118
C40	C	0.746916	0.541653	0.500118
C41	C	0.167842	0.039931	0.000120
C42	C	0.667842	0.539931	0.500120
C43	C	0.163418	0.228809	0.000111
C44	C	0.663418	0.728809	0.500111
C45	C	0.242486	0.230539	0.000106
C46	C	0.742486	0.730539	0.500106
C47	C	0.284232	0.136958	0.000115
C48	C	0.784232	0.636958	0.500115
C49	C	0.369969	0.138833	0.000105
C50	C	0.869969	0.638833	0.500105
C51	C	0.438304	0.140336	0.000097
C52	C	0.938304	0.640336	0.500097
C53	C	1.003908	-0.406222	0.000102
C54	C	1.503908	0.093778	0.500102
C55	C	0.994712	-0.514324	0.000100
C56	C	1.494712	-0.014324	0.500100
C57	C	0.858617	-0.489277	0.000092
C58	C	1.358617	0.010723	0.500092
C59	C	0.867813	-0.381174	0.000094
C60	C	1.367813	0.118826	0.500094
C61	C	0.940461	-0.339651	0.000101
C62	C	1.440461	0.160349	0.500101
C63	C	0.949656	-0.231546	0.000109
C64	C	1.449656	0.268454	0.500109
C65	C	0.813561	-0.206501	0.000095
C66	C	1.313561	0.293499	0.500095
C67	C	0.804365	-0.314604	0.000093
C68	C	1.304365	0.185396	0.500093
C69	C	1.041941	0.131673	0.000119
C70	C	1.541941	0.631673	0.500119
C71	C	1.126094	0.133506	0.000124
C72	C	1.626094	0.633506	0.500124
C73	C	0.912278	0.329091	0.000099
C74	C	1.412278	0.829091	0.500099
C75	C	0.922069	0.444144	0.000096
C76	C	1.422069	0.944144	0.500096
N77	N	0.904118	0.139573	0.195770
N78	N	1.404118	0.639573	0.695770
N79	N	0.904160	0.139595	-0.195562
N80	N	1.404160	0.639595	0.304438
C81	C	0.950499	0.069012	0.239042
C82	C	1.450499	0.569012	0.739042
C83	C	0.950502	0.069011	0.325589
C84	C	1.450502	0.569011	0.825589
C85	C	0.904129	0.139577	0.368863
C86	C	1.404129	0.639577	0.868863
C87	C	0.857743	0.210141	0.325584
C88	C	1.357743	0.710141	0.825584
C89	C	0.857736	0.210136	0.239039
C90	C	1.357736	0.710136	0.739039
C91	C	0.857771	0.210161	0.674613
C92	C	1.357771	0.710161	1.174613
C93	C	0.857783	0.210162	0.761164
C94	C	1.357783	0.710162	1.261164
C95	C	0.950537	0.069035	0.761163
C96	C	1.450537	0.569035	1.261163
C97	C	0.950530	0.069031	0.674617
C98	C	1.450530	0.569031	1.174617
C99	C	0.904141	0.139591	0.631347
C100	C	1.404141	0.639591	1.131347
C101	C	0.904137	0.139590	0.537503
C102	C	1.404137	0.639590	1.037503
C103	C	0.904137	0.139584	0.462705
C104	C	1.404137	0.639584	0.962705
H105	H	0.670814	0.316852	0.000068
H106	H	1.170814	0.816852	0.500068
H107	H	1.063061	-0.372413	0.000116
H108	H	1.563061	0.127587	0.500116
Br109	Br	1.013493	-0.026729	0.819891
Br110	Br	1.513493	0.473271	1.319891
Br111	Br	1.080823	-0.604669	0.000096
Br112	Br	1.580823	-0.104669	0.500096
Br113	Br	0.117190	-0.089419	0.000128
Br114	Br	0.617190	0.410581	0.500128
Br115	Br	0.760031	-0.545649	0.000053
Br116	Br	1.260031	-0.045649	0.500053
H117	H	0.745217	-0.348427	0.000084
H118	H	1.245217	0.151573	0.500084
Br119	Br	0.303561	-0.085349	0.000133
Br120	Br	0.803561	0.414651	0.500133
Br121	Br	1.013471	-0.026734	0.615892
Br122	Br	1.513471	0.473266	1.115892
Br123	Br	0.727448	-0.116149	0.000108
Br124	Br	1.227448	0.383851	0.500108
Br125	Br	0.515141	-0.080712	0.000116
Br126	Br	1.015141	0.419288	0.500116
H127	H	0.678850	-0.025837	0.000094
H128	H	1.178850	0.474163	0.500094
H129	H	0.988264	0.011554	0.203815
H130	H	1.488264	0.511554	0.703815
H131	H	1.008809	-0.197740	0.000117
H132	H	1.508809	0.302260	0.500117
Br133	Br	1.013445	-0.026755	0.384319
Br134	Br	1.513445	0.473245	0.884319
Br135	Br	0.794819	0.305919	0.615893
Br136	Br	1.294819	0.805919	1.115893
H137	H	0.527375	0.313714	0.000082
H138	H	1.027375	0.813714	0.500082
Br139	Br	0.794844	0.305937	0.819893
Br140	Br	1.294844	0.805937	1.319893
H141	H	0.272870	0.308145	0.000096
H142	H	0.772870	0.808145	0.500096
Br143	Br	0.794800	0.305904	0.384309
Br144	Br	1.294800	0.805904	0.884309
Br145	Br	0.794783	0.305895	0.180312
Br146	Br	1.294783	0.805895	0.680312
H147	H	0.129419	0.305007	0.000107
H148	H	0.629419	0.805007	0.500107
