data_functionalizedCrystal
_audit_creation_method	'MofGen! by Chris Wilmer'
_symmetry_space_group_name_H-M	'P1'
_symmetry_Int_Tables_number	1
_symmetry_cell_setting	triclinic
loop_
_symmetry_equiv_pos_as_xyz
  x,y,z
_cell_length_a	9.065215
_cell_length_b	10.723023
_cell_length_c	7.540329
_cell_angle_alpha	89.997411
_cell_angle_beta	89.997574
_cell_angle_gamma	84.741123
loop_
_atom_site_label
_atom_site_type_symbol
_atom_site_fract_x
_atom_site_fract_y
_atom_site_fract_z
O1	O	1.959361	0.182967	-0.147458
O2	O	2.459361	0.682967	0.352542
O3	O	1.529991	0.197980	-0.147465
O4	O	2.029991	0.697980	0.352535
O5	O	1.754581	0.008937	-0.147454
O6	O	2.254581	0.508937	0.352546
O7	O	1.734771	0.372010	-0.147469
O8	O	2.234771	0.872010	0.352531
O9	O	1.754567	0.008935	0.147511
O10	O	2.254567	0.508935	0.647511
O11	O	1.529977	0.197977	0.147500
O12	O	2.029977	0.697977	0.647500
O13	O	1.959348	0.182964	0.147507
O14	O	2.459348	0.682964	0.647507
Cu15	Cu	1.744661	0.190471	0.174436
Cu16	Cu	2.244661	0.690471	0.674436
Cu17	Cu	1.744677	0.190474	-0.174394
Cu18	Cu	2.244677	0.690474	0.325606
O19	O	1.734758	0.372007	0.147496
O20	O	2.234758	0.872007	0.647496
C21	C	1.475005	0.196537	0.000016
C22	C	1.975005	0.696537	0.500016
C23	C	1.311187	0.192225	0.000013
C24	C	1.811187	0.692225	0.500013
C25	C	1.753133	-0.037569	0.000027
C26	C	2.253133	0.462431	0.500027
C27	C	1.748820	-0.176141	0.000021
C28	C	2.248820	0.323859	0.500021
C29	C	1.746905	-0.237913	-0.152782
C30	C	2.246905	0.262087	0.347218
C31	C	1.742448	-0.381135	-0.152792
C32	C	2.242448	0.118865	0.347208
C33	C	2.014333	0.184408	0.000022
C34	C	2.514333	0.684408	0.500022
C35	C	2.178152	0.188719	0.000013
C36	C	2.678152	0.688719	0.500013
C37	C	1.736206	0.418514	0.000012
C38	C	2.236206	0.918514	0.500012
C39	C	1.740518	0.557086	0.000006
C40	C	2.240518	1.057086	0.500006
N41	N	1.744661	0.190468	0.419785
N42	N	2.244661	0.690468	0.919785
N43	N	1.744689	0.190467	-0.419743
N44	N	2.244689	0.690467	0.080257
H45	H	1.748558	-0.184767	-0.283596
H46	H	2.248558	0.315233	0.216404
C47	C	1.742740	-0.371160	0.176752
C48	C	2.242740	0.128840	0.676752
N49	N	1.744410	-0.317104	0.309878
N50	N	2.244410	0.182896	0.809878
H51	H	1.747151	-0.229285	0.130834
H52	H	2.247151	0.270715	0.630834
C53	C	1.740222	-0.452897	-0.329532
C54	C	2.240222	0.047103	0.170468
N55	N	1.738543	-0.506952	-0.462657
N56	N	2.238543	-0.006952	0.037343
