data_functionalizedCrystal
_audit_creation_method	'MofGen! by Chris Wilmer'
_symmetry_space_group_name_H-M	'P1'
_symmetry_Int_Tables_number	1
_symmetry_cell_setting	triclinic
loop_
_symmetry_equiv_pos_as_xyz
  x,y,z
_cell_length_a	17.077404
_cell_length_b	12.645330
_cell_length_c	17.077396
_cell_angle_alpha	89.975148
_cell_angle_beta	89.980499
_cell_angle_gamma	90.012610
loop_
_atom_site_label
_atom_site_type_symbol
_atom_site_fract_x
_atom_site_fract_y
_atom_site_fract_z
Zn1	Zn	1.200112	-0.422033	-0.443863
Zn2	Zn	1.700112	0.077967	0.056137
Zn3	Zn	1.200043	-0.599318	-0.312605
Zn4	Zn	1.700043	-0.099318	0.187395
Zn5	Zn	1.068844	-0.422070	-0.312610
Zn6	Zn	1.568844	0.077930	0.187390
Zn7	Zn	1.068836	-0.599256	-0.443828
Zn8	Zn	1.568836	-0.099256	0.056172
O9	O	1.134459	-0.510669	-0.378227
O10	O	1.634459	-0.010669	0.121773
O11	O	1.309950	-0.445561	-0.426463
O12	O	1.809950	0.054439	0.073537
O13	O	1.182614	-0.575848	-0.202759
O14	O	1.682614	-0.075848	0.297241
O15	O	1.086289	-0.273718	-0.330038
O16	O	1.586289	0.226282	0.169962
O17	O	1.309899	-0.575812	-0.330028
O18	O	1.809899	-0.075812	0.169972
O19	O	1.182731	-0.273691	-0.426468
O20	O	1.682731	0.226309	0.073532
O21	O	1.086222	-0.445624	-0.202763
O22	O	1.586222	0.054376	0.297237
O23	O	0.958996	-0.445563	-0.330005
O24	O	1.458996	0.054437	0.169995
O25	O	1.086275	-0.575705	-0.553680
O26	O	1.586275	-0.075705	-0.053680
O27	O	0.958990	-0.575741	-0.426410
O28	O	1.458990	-0.075741	0.073590
O29	O	1.182723	-0.445500	-0.553705
O30	O	1.682723	0.054500	-0.053705
O31	O	1.182606	-0.747657	-0.329995
O32	O	1.682606	-0.247657	0.170005
O33	O	1.086209	-0.747611	-0.426405
O34	O	1.586209	-0.247611	0.073595
C35	C	0.930511	-0.510650	-0.378205
C36	C	1.430511	-0.010650	0.121795
C37	C	0.843261	-0.510667	-0.378214
C38	C	1.343261	-0.010667	0.121786
C39	C	0.802288	-0.578553	-0.428332
C40	C	1.302288	-0.078553	0.071668
C41	C	0.720308	-0.578555	-0.428345
C42	C	1.220308	-0.078555	0.071655
C43	C	0.679302	-0.510677	-0.378235
C44	C	1.179302	-0.010677	0.121765
C45	C	0.720280	-0.442783	-0.328115
C46	C	1.220280	0.057217	0.171885
C47	C	0.802259	-0.442777	-0.328107
C48	C	1.302259	0.057223	0.171893
C49	C	0.549410	-0.442804	-0.328134
C50	C	1.049410	0.057196	0.171866
C51	C	0.467425	-0.442812	-0.328141
C52	C	0.967425	0.057188	0.171859
C53	C	0.467459	-0.578583	-0.428371
C54	C	0.967459	-0.078583	0.071629
C55	C	0.549438	-0.578576	-0.428363
C56	C	1.049438	-0.078576	0.071637
C57	C	0.590411	-0.510684	-0.378242
C58	C	1.090411	-0.010684	0.121758
C59	C	1.134420	-0.786099	-0.378213
C60	C	1.634420	-0.286099	0.121787
C61	C	1.134476	-0.903929	-0.378233
C62	C	1.634476	-0.403929	0.121767
C63	C	1.195189	-0.948795	-0.317634
C64	C	1.695189	-0.448795	0.182366
C65	C	1.195049	-1.071356	-0.317418
C66	C	1.695049	-0.571356	0.182582
C67	C	1.051754	-1.071936	-0.356004
C68	C	1.551754	-0.571936	0.143996
C69	C	1.052066	-0.949338	-0.355543
C70	C	1.552066	-0.449338	0.144457
C71	C	1.155844	-0.949010	-0.461259
C72	C	1.655844	-0.449010	0.038741
C73	C	1.157709	-1.071615	-0.460838
C74	C	1.657709	-0.571615	0.039162
C75	C	1.339203	-0.510689	-0.378249
C76	C	1.839203	-0.010689	0.121751
C77	C	1.426453	-0.510698	-0.378258
C78	C	1.926453	-0.010698	0.121742
C79	C	1.134506	-0.510591	-0.582971
C80	C	1.634506	-0.010591	-0.082971
C81	C	1.134526	-0.510558	-0.670221
C82	C	1.634526	-0.010558	-0.170221
C83	C	1.134519	-0.234164	-0.378258
C84	C	1.634519	0.265836	0.121742
C85	C	1.134544	-0.116334	-0.378271
C86	C	1.634544	0.383666	0.121729
C87	C	1.184749	-0.442755	-0.711225
C88	C	1.684749	0.057245	-0.211225
C89	C	1.184758	-0.442719	-0.793206
C90	C	1.684758	0.057281	-0.293206
C91	C	1.134549	-0.510493	-0.834180
C92	C	1.634549	-0.010493	-0.334180
C93	C	1.084321	-0.578300	-0.793170
C94	C	1.584321	-0.078300	-0.293170
C95	C	1.084308	-0.578329	-0.711191
C96	C	1.584308	-0.078329	-0.211191
C97	C	1.084352	-0.578236	-0.964040
C98	C	1.584352	-0.078236	-0.464040
C99	C	1.084366	-0.578208	-1.046025
C100	C	1.584366	-0.078208	-0.546025
C101	C	1.184802	-0.442626	-1.046055
C102	C	1.684802	0.057374	-0.546055
C103	C	1.184790	-0.442656	-0.964076
C104	C	1.684790	0.057344	-0.464076
C105	C	1.134563	-0.510464	-0.923071
C106	C	1.634563	-0.010464	-0.423071
C107	C	1.134456	-0.510671	-0.174279
C108	C	1.634456	-0.010671	0.325721
C109	C	1.134588	-0.510405	-0.087029
C110	C	1.634588	-0.010405	0.412971
H111	H	1.256433	-1.101371	-0.331326
H112	H	1.756433	-0.601371	0.168674
O113	O	1.030160	-0.651391	-0.837364
O114	O	1.530160	-0.151391	-0.337364
H115	H	1.043593	-0.734600	-0.821618
H116	H	1.543593	-0.234600	-0.321618
H117	H	1.043440	-0.633436	-0.930657
H118	H	1.543440	-0.133436	-0.430657
O119	O	1.276732	-0.909658	-0.335820
O120	O	1.776732	-0.409658	0.164180
H121	H	1.299520	-0.864264	-0.285093
H122	H	1.799520	-0.364264	0.214907
H123	H	0.835618	-0.387492	-0.287300
H124	H	1.335618	0.112508	0.212700
O125	O	0.423274	-0.651805	-0.482439
O126	O	0.923274	-0.151805	0.017561
H127	H	0.359380	-0.640398	-0.474037
H128	H	0.859380	-0.140398	0.025963
O129	O	1.028132	-0.911551	-0.275159
O130	O	1.528132	-0.411551	0.224841
H131	H	1.016448	-0.980842	-0.236981
H132	H	1.516448	-0.480842	0.263019
H133	H	1.033380	-1.102720	-0.295998
H134	H	1.533380	-0.602720	0.204002
O135	O	0.593665	-0.651784	-0.482414
O136	O	1.093665	-0.151784	0.017586
H137	H	0.630991	-0.705660	-0.447210
H138	H	1.130991	-0.205660	0.052790
H139	H	1.225679	-0.387474	-0.930717
H140	H	1.725679	0.112526	-0.430717
O141	O	0.423192	-0.369592	-0.274104
O142	O	0.923192	0.130408	0.225896
H143	H	0.465453	-0.322367	-0.239260
H144	H	0.965453	0.177633	0.260740
H145	H	0.582767	-0.387510	-0.287327
H146	H	1.082767	0.112490	0.212673
H147	H	1.225638	-0.387568	-0.677870
H148	H	1.725638	0.112432	-0.177870
O149	O	1.238929	-0.369589	-0.837431
O150	O	1.738929	0.130411	-0.337431
H151	H	1.278855	-0.417031	-0.874788
H152	H	1.778855	0.082969	-0.374788
O153	O	1.238971	-0.369478	-1.090274
O154	O	1.738971	0.130522	-0.590274
H155	H	1.230539	-0.380829	-1.154163
H156	H	1.730539	0.119171	-0.654163
H157	H	0.686886	-0.387511	-0.287318
H158	H	1.186886	0.112489	0.212682
H159	H	1.181203	-0.918058	-0.256467
H160	H	1.681203	-0.418058	0.243533
H161	H	1.043479	-0.633394	-1.079384
H162	H	1.543479	-0.133394	-0.579384
O163	O	1.176311	-1.110322	-0.235949
O164	O	1.676311	-0.610322	0.264051
H165	H	1.167306	-1.041599	-0.196554
H166	H	1.667306	-0.541599	0.303446
H167	H	1.005279	-0.919661	-0.397772
H168	H	1.505279	-0.419661	0.102228
H169	H	1.005304	-1.101072	-0.398796
H170	H	1.505304	-0.601072	0.101204
H171	H	1.215166	-0.918011	-0.481550
H172	H	1.715166	-0.418011	0.018450
O173	O	1.103460	-1.112152	-0.523850
O174	O	1.603460	-0.612152	-0.023850
H175	H	1.073829	-1.044341	-0.552575
H176	H	1.573829	-0.544341	-0.052575
O177	O	1.238101	-1.110857	-0.483421
O178	O	1.738101	-0.610857	0.016579
H179	H	1.261508	-1.161897	-0.436003
H180	H	1.761508	-0.661897	0.063997
H181	H	1.043404	-0.633530	-0.677806
H182	H	1.543404	-0.133530	-0.177806
H183	H	0.835670	-0.633831	-0.469135
H184	H	1.335670	-0.133831	0.030865
H185	H	0.686952	-0.633836	-0.469155
H186	H	1.186952	-0.133836	0.030845
H187	H	1.111629	-0.919989	-0.506408
H188	H	1.611629	-0.419989	-0.006408
