data_functionalizedCrystal
_audit_creation_method	'MofGen! by Chris Wilmer'
_symmetry_space_group_name_H-M	'P1'
_symmetry_Int_Tables_number	1
_symmetry_cell_setting	triclinic
loop_
_symmetry_equiv_pos_as_xyz
  x,y,z
_cell_length_a	19.805407
_cell_length_b	12.759400
_cell_length_c	19.805399
_cell_angle_alpha	89.976763
_cell_angle_beta	89.980427
_cell_angle_gamma	90.014685
loop_
_atom_site_label
_atom_site_type_symbol
_atom_site_fract_x
_atom_site_fract_y
_atom_site_fract_z
Zn1	Zn	1.034791	-0.418291	-0.382740
Zn2	Zn	1.034729	-0.593984	-0.269560
Zn3	Zn	0.921605	-0.418320	-0.269565
Zn4	Zn	0.921592	-0.593928	-0.382707
O5	O	0.978179	-0.506131	-0.326143
O6	O	1.129499	-0.441608	-0.367739
O7	O	1.019702	-0.570717	-0.174844
O8	O	0.936651	-0.271295	-0.284593
O9	O	1.129454	-0.570689	-0.284586
O10	O	1.019808	-0.271273	-0.367743
O11	O	0.936591	-0.441657	-0.174848
O12	O	0.826887	-0.441603	-0.284561
O13	O	0.936629	-0.570594	-0.477428
O14	O	0.826877	-0.570622	-0.367687
O15	O	1.019795	-0.441554	-0.477452
O16	O	1.019689	-0.740998	-0.284554
O17	O	0.936568	-0.740957	-0.367682
C18	C	0.802323	-0.506110	-0.326121
C19	C	0.727091	-0.506127	-0.326128
C20	C	0.691760	-0.573408	-0.369341
C21	C	0.621071	-0.573410	-0.369351
C22	C	0.585716	-0.506135	-0.326143
C23	C	0.621052	-0.438847	-0.282928
C24	C	0.691739	-0.438840	-0.282922
C25	C	0.335979	-0.438870	-0.282950
C26	C	0.265287	-0.438884	-0.282958
C27	C	0.265311	-0.573440	-0.369379
C28	C	0.335998	-0.573433	-0.369373
C29	C	0.371328	-0.506141	-0.326161
C30	C	0.447977	-0.506139	-0.326152
C31	C	0.509069	-0.506142	-0.326148
C32	C	0.978139	-0.779098	-0.326129
C33	C	0.978184	-0.895875	-0.326146
C34	C	1.021513	-0.950723	-0.282908
C35	C	1.021555	-1.060447	-0.282929
C36	C	0.934932	-1.060464	-0.369426
C37	C	0.934894	-0.950742	-0.369408
C38	C	1.064802	-0.895855	-0.239646
C39	C	1.108135	-0.950704	-0.196404
C40	C	1.108176	-1.060428	-0.196425
C41	C	1.064886	-1.115303	-0.239687
C42	C	1.154722	-0.506152	-0.326165
C43	C	1.229954	-0.506160	-0.326175
C44	C	0.978217	-0.506064	-0.502686
C45	C	0.978233	-0.506036	-0.577918
C46	C	0.978238	-0.232097	-0.326172
C47	C	0.978263	-0.115321	-0.326184
C48	C	1.021539	-0.438842	-0.613276
C49	C	1.021546	-0.438811	-0.683964
C50	C	0.978250	-0.505981	-0.719294
C51	C	0.934940	-0.573179	-0.683931
C52	C	0.934930	-0.573203	-0.613244
C53	C	0.934978	-0.573081	-0.969004
C54	C	0.934992	-0.573054	-1.039696
C55	C	1.021594	-0.438689	-1.039725
C56	C	1.021584	-0.438713	-0.969038
C57	C	0.978272	-0.505906	-0.933681
C58	C	0.978264	-0.505937	-0.857033
C59	C	0.978261	-0.505957	-0.795941
C60	C	0.978180	-0.506121	-0.150287
C61	C	0.978295	-0.505853	-0.075055
H62	H	0.236502	-0.384094	-0.247773
H63	H	0.899720	-0.627809	-0.940225
C64	C	0.582210	-0.647426	-0.416886
C65	C	0.591912	-0.766849	-0.411223
C66	C	0.553052	-0.840867	-0.458761
C67	C	0.504490	-0.795463	-0.511963
C68	C	0.494785	-0.676034	-0.517628
C69	C	0.533645	-0.602015	-0.470089
H70	H	0.627862	-0.800465	-0.371838
H71	H	0.560236	-0.929277	-0.454567
H72	H	0.475723	-0.850256	-0.547154
H73	H	0.458835	-0.642418	-0.557013
H74	H	0.526461	-0.513606	-0.474283
C75	C	1.155754	-0.890346	-0.148821
C76	C	1.150282	-0.905524	-0.071873
C77	C	1.197904	-0.845168	-0.024289
C78	C	1.250997	-0.769634	-0.053652
C79	C	1.256471	-0.754452	-0.130604
C80	C	1.208850	-0.814808	-0.178188
H81	H	1.110977	-0.961442	-0.050133
H82	H	1.193851	-0.856407	0.032676
H83	H	1.286249	-0.724955	-0.018428
H84	H	1.295776	-0.698534	-0.152344
H85	H	1.212902	-0.803569	-0.235153
C86	C	0.730608	-0.364832	-0.235387
C87	C	0.779224	-0.282403	-0.264808
C88	C	0.818093	-0.208389	-0.217274
C89	C	0.808346	-0.216803	-0.140319
C90	C	0.759728	-0.299234	-0.110894
C91	C	0.720859	-0.373249	-0.158428
H92	H	0.786442	-0.276172	-0.321778
H93	H	0.854084	-0.147367	-0.239056
H94	H	0.837119	-0.162012	-0.105132
H95	H	0.752510	-0.305466	-0.053924
H96	H	0.684868	-0.434271	-0.136645
C97	C	0.226446	-0.647455	-0.416920
C98	C	0.177824	-0.729881	-0.387505
C99	C	0.138961	-0.803896	-0.435044
C100	C	0.148720	-0.795485	-0.511997
C101	C	0.197343	-0.713055	-0.541416
C102	C	0.236206	-0.639040	-0.493878
H103	H	0.170599	-0.736110	-0.330536
H104	H	0.102967	-0.864916	-0.413265
H105	H	0.119951	-0.850275	-0.547188
H106	H	0.204569	-0.706826	-0.598385
H107	H	0.272201	-0.578021	-0.515656
C108	C	0.887311	-1.120825	-0.417007
C109	C	0.834215	-1.196349	-0.387639
C110	C	0.786591	-1.256709	-0.435219
C111	C	0.792064	-1.241545	-0.512167
C112	C	0.845163	-1.166018	-0.541540
C113	C	0.892786	-1.105658	-0.493960
H114	H	0.830161	-1.207578	-0.330673
H115	H	0.747284	-1.312620	-0.413475
H116	H	0.756811	-1.286227	-0.547389
H117	H	0.849216	-1.154789	-0.598505
H118	H	0.932093	-1.049747	-0.515704
C119	C	0.887229	-0.890397	-0.416964
C120	C	0.810292	-0.905574	-0.411369
C121	C	0.762628	-0.845226	-0.458926
C122	C	0.791901	-0.769702	-0.512078
C123	C	0.868842	-0.754521	-0.517675
C124	C	0.916506	-0.814869	-0.470118
H125	H	0.788619	-0.961485	-0.372020
H126	H	0.705670	-0.856464	-0.454782
H127	H	0.756617	-0.725029	-0.547282
H128	H	0.890515	-0.698611	-0.557023
H129	H	0.973464	-0.803631	-0.474262
C130	C	0.374836	-0.364881	-0.235398
C131	C	0.335944	-0.290906	-0.187857
C132	C	0.374805	-0.216925	-0.140295
C133	C	0.452558	-0.216920	-0.140273
C134	C	0.491455	-0.290899	-0.187816
C135	C	0.452594	-0.364879	-0.235378
H136	H	0.278383	-0.290907	-0.187872
H137	H	0.346011	-0.162162	-0.105100
H138	H	0.481325	-0.162156	-0.105065
H139	H	0.549016	-0.290898	-0.187801
H140	H	0.481388	-0.419643	-0.270573
H141	H	0.364781	-0.628219	-0.404555
H142	H	0.899733	-0.627754	-1.068460
C143	C	1.069166	-0.364952	-0.574416
C144	C	1.063667	-0.245512	-0.584148
C145	C	1.111294	-0.171618	-0.545290
C146	C	1.164419	-0.217163	-0.496702
C147	C	1.169920	-0.336609	-0.486968
C148	C	1.122294	-0.410504	-0.525825
H149	H	1.024339	-0.211791	-0.620118
H150	H	1.107221	-0.083195	-0.552496
H151	H	1.199675	-0.162462	-0.467937
H152	H	1.209249	-0.370330	-0.450998
H153	H	1.126366	-0.498926	-0.518620
C154	C	1.069182	-0.364893	-0.722858
C155	C	1.116808	-0.291011	-0.683998
C156	C	1.164444	-0.217085	-0.722892
C157	C	1.164452	-0.217042	-0.800645
C158	C	1.116824	-0.290928	-0.839509
C159	C	1.069189	-0.364853	-0.800615
H160	H	1.116804	-0.291040	-0.626437
H161	H	1.199701	-0.162390	-0.694121
H162	H	1.199715	-0.162318	-0.829436
H163	H	1.116829	-0.290899	-0.897070
H164	H	1.033931	-0.419548	-0.829386
C165	C	1.155841	-1.120763	-0.148864
C166	C	1.155889	-1.241453	-0.148883
C167	C	1.203553	-1.301786	-0.101318
C168	C	1.251168	-1.241429	-0.053733
C169	C	1.251121	-1.120732	-0.053712
C170	C	1.203457	-1.060400	-0.101278
H171	H	1.120641	-1.286139	-0.184110
H172	H	1.203587	-1.391134	-0.101333
H173	H	1.286451	-1.286091	-0.018522
H174	H	1.286370	-1.076047	-0.018486
H175	H	1.203423	-0.971052	-0.101262
C176	C	0.887313	-0.647068	-0.722791
C177	C	0.887324	-0.647050	-0.800544
C178	C	0.839698	-0.720944	-0.839402
C179	C	0.792060	-0.794855	-0.800507
C180	C	0.792047	-0.794876	-0.722750
C181	C	0.839674	-0.720982	-0.683892
H182	H	0.922589	-0.592334	-0.829340
H183	H	0.839707	-0.720928	-0.896964
H184	H	0.756804	-0.849556	-0.829272
H185	H	0.756782	-0.849592	-0.693954
H186	H	0.839664	-0.720998	-0.626330
H187	H	0.720541	-0.628195	-0.404524
H188	H	0.592260	-0.384066	-0.247750
H189	H	1.056859	-0.383973	-1.068521
H190	H	1.064772	-0.806512	-0.239622
H191	H	1.064928	-1.204648	-0.239706
H192	H	1.056843	-0.384020	-0.940276
H193	H	0.899659	-0.627909	-0.584456
