data_functionalizedCrystal
_audit_creation_method	'MofGen! by Chris Wilmer'
_symmetry_space_group_name_H-M	'P1'
_symmetry_Int_Tables_number	1
_symmetry_cell_setting	triclinic
loop_
_symmetry_equiv_pos_as_xyz
  x,y,z
_cell_length_a	17.638686
_cell_length_b	17.640280
_cell_length_c	12.759387
_cell_angle_alpha	78.734219
_cell_angle_beta	78.758240
_cell_angle_gamma	65.687361
loop_
_atom_site_label
_atom_site_type_symbol
_atom_site_fract_x
_atom_site_fract_y
_atom_site_fract_z
Zn1	Zn	1.326612	-0.582901	-0.793437
Zn2	Zn	1.354364	-0.720799	-0.588182
Zn3	Zn	1.188745	-0.555111	-0.588246
Zn4	Zn	1.216616	-0.692790	-0.734383
O5	O	1.271584	-0.637900	-0.676062
O6	O	1.445639	-0.624546	-0.790897
O7	O	1.332344	-0.698912	-0.441131
O8	O	1.183755	-0.443467	-0.640206
O9	O	1.466028	-0.725859	-0.640097
O10	O	1.285045	-0.463884	-0.790959
O11	O	1.210664	-0.577181	-0.441178
O12	O	1.077096	-0.550022	-0.582944
O13	O	1.231257	-0.678121	-0.889276
O14	O	1.097573	-0.651174	-0.690311
O15	O	1.312071	-0.597386	-0.932663
O16	O	1.359370	-0.832413	-0.582835
O17	O	1.258167	-0.811835	-0.690248
C18	C	1.057427	-0.594544	-0.630227
C19	C	0.965813	-0.576015	-0.610639
C20	C	0.718012	-0.778837	-0.825095
C21	C	0.631926	-0.761420	-0.806665
C22	C	0.610537	-0.655926	-0.695107
C23	C	0.696623	-0.673337	-0.713524
C24	C	0.750355	-0.734793	-0.778520
C25	C	0.728966	-0.629293	-0.666949
C26	C	0.815045	-0.646701	-0.685369
C27	C	0.868781	-0.708152	-0.750365
C28	C	0.836433	-0.752200	-0.796940
C29	C	0.675233	-0.567834	-0.601959
C30	C	0.707575	-0.523790	-0.555384
C31	C	0.793656	-0.541201	-0.573798
C32	C	0.847392	-0.602652	-0.638793
C33	C	0.826003	-0.497152	-0.527222
C34	C	0.912082	-0.514560	-0.545642
C35	C	0.933471	-0.620059	-0.657214
C36	C	1.314826	-0.852033	-0.630154
C37	C	1.333401	-0.943655	-0.610566
C38	C	1.130812	-1.191511	-0.825327
C39	C	1.148268	-1.277604	-0.806887
C40	C	1.253716	-1.298980	-0.695187
C41	C	1.236272	-1.212887	-0.713621
C42	C	1.174819	-1.159159	-0.778691
C43	C	1.280278	-1.180535	-0.666986
C44	C	1.262833	-1.094450	-0.685414
C45	C	1.201381	-1.040716	-0.750478
C46	C	1.157373	-1.073073	-0.797119
C47	C	1.341727	-1.234264	-0.601910
C48	C	1.385733	-1.201913	-0.555275
C49	C	1.368292	-1.115826	-0.573709
C50	C	1.306840	-1.062092	-0.638773
C51	C	1.412300	-1.083469	-0.527068
C52	C	1.394854	-0.997383	-0.545496
C53	C	1.289395	-0.976007	-0.657201
C54	C	1.486578	-0.681426	-0.722077
C55	C	1.578195	-0.699975	-0.741686
C56	C	1.271677	-0.637729	-0.950167
C57	C	1.271717	-0.637657	-1.066974
C58	C	1.228195	-0.422936	-0.722177
C59	C	1.209706	-0.331331	-0.741828
C60	C	1.271527	-0.638020	-0.403047
C61	C	1.271600	-0.637893	-0.286324
C62	C	1.335286	-0.700903	-0.231574
C63	C	1.335343	-0.700787	-0.121897
C64	C	1.208025	-0.574643	-0.121731
C65	C	1.207965	-0.574763	-0.231404
C66	C	1.385157	-0.803708	0.042586
C67	C	1.448854	-0.866713	0.097336
C68	C	1.531789	-0.895121	0.046967
C69	C	1.551039	-0.860515	-0.058156
C70	C	1.487345	-0.797505	-0.112902
C71	C	1.404403	-0.769110	-0.062529
C72	C	1.158159	-0.471843	-0.395891
C73	C	1.094467	-0.408828	-0.450641
C74	C	1.011530	-0.380411	-0.400276
C75	C	0.992279	-0.415004	-0.295154
C76	C	1.055971	-0.478018	-0.240403
C77	C	1.138908	-0.506436	-0.290776
H78	H	0.782242	-0.447110	-0.474311
H79	H	1.239359	-0.932259	-0.710197
F80	F	1.091975	-1.015888	-0.866385
F81	F	1.035480	-0.514835	-0.128521
H82	H	1.503019	-0.769327	-0.198490
H83	H	1.187172	-0.970618	-0.765473
F84	F	0.583619	-0.549306	-0.582360
H85	H	0.924747	-0.391855	-0.254137
F86	F	1.441684	-0.962948	-0.495852
F87	F	0.946506	-0.467683	-0.496072
F88	F	0.553344	-0.590519	-0.625941
F89	F	1.065414	-1.134325	-0.894592
F90	F	1.639313	-0.890746	-0.111751
H91	H	1.112438	-1.303942	-0.844883
F92	F	1.477695	-1.140659	-0.457811
F93	F	1.451135	-1.259102	-0.486027
F94	F	1.599580	-0.962173	0.105243
F95	F	1.403010	-0.768093	-0.290019
H96	H	0.938870	-0.722319	-0.765368
H97	H	1.303748	-1.342736	-0.642204
H98	H	1.156216	-0.523244	-0.077002
H99	H	1.433173	-0.894889	0.182929
F100	F	1.296885	-0.773497	0.096189
H101	H	1.225694	-0.494972	-0.436906
F102	F	0.943746	-0.313336	-0.458547
H103	H	0.880186	-0.802248	-0.849861
F104	F	1.360316	-1.325890	-0.582332
H105	H	1.110149	-0.380657	-0.536236
H106	H	0.977223	-0.670107	-0.710134
H107	H	0.761765	-0.828884	-0.878015
H108	H	0.605597	-0.797287	-0.844601
H109	H	0.663816	-0.473751	-0.502467
