data_functionalizedCrystal
_audit_creation_method	'MofGen! by Chris Wilmer'
_symmetry_space_group_name_H-M	'P1'
_symmetry_Int_Tables_number	1
_symmetry_cell_setting	triclinic
loop_
_symmetry_equiv_pos_as_xyz
  x,y,z
_cell_length_a	14.519709
_cell_length_b	14.519731
_cell_length_c	7.088929
_cell_angle_alpha	96.215673
_cell_angle_beta	96.229076
_cell_angle_gamma	96.315501
loop_
_atom_site_label
_atom_site_type_symbol
_atom_site_fract_x
_atom_site_fract_y
_atom_site_fract_z
O1	O	-0.130447	1.214405	-0.158963
O2	O	0.202886	1.547739	0.174370
O3	O	0.536219	1.881072	0.507703
O4	O	-0.144663	0.945931	-0.158963
O5	O	0.188670	1.279265	0.174370
O6	O	0.522003	1.612598	0.507704
O7	O	-0.003318	1.087285	-0.158981
O8	O	0.330015	1.420619	0.174353
O9	O	0.663348	1.753952	0.507686
O10	O	-0.271792	1.073051	-0.158946
O11	O	0.061541	1.406384	0.174388
O12	O	0.394875	1.739718	0.507721
O13	O	0.015614	1.106176	0.158992
O14	O	0.348947	1.439509	0.492326
O15	O	0.682280	1.772843	0.825659
O16	O	-0.125731	0.964822	0.159010
O17	O	0.207602	1.298155	0.492343
O18	O	0.540936	1.631488	0.825676
O19	O	-0.111515	1.233296	0.159010
O20	O	0.221818	1.566629	0.492343
O21	O	0.555152	1.899963	0.825676
Cu22	Cu	-0.116894	1.100784	0.188043
Cu23	Cu	0.216439	1.434117	0.521376
Cu24	Cu	0.549772	1.767450	0.854710
Cu25	Cu	-0.139284	1.078443	-0.187997
Cu26	Cu	0.194049	1.411777	0.145337
Cu27	Cu	0.527383	1.745110	0.478670
O28	O	-0.252860	1.091942	0.159027
O29	O	0.080473	1.425275	0.492360
O30	O	0.413807	1.758608	0.825694
C31	C	-0.134531	0.921017	0.000023
C32	C	0.198802	1.254350	0.333356
C33	C	0.532136	1.587684	0.666690
C34	C	-0.132535	0.818637	0.000022
C35	C	0.200798	1.151970	0.333355
C36	C	0.534131	1.485303	0.666688
C37	C	-0.130914	0.735492	0.000014
C38	C	0.202420	1.068825	0.333347
C39	C	0.535753	1.402159	0.666680
C40	C	-0.128887	0.631183	0.000013
C41	C	0.204446	0.964517	0.333346
C42	C	0.537779	1.297850	0.666679
C43	C	-0.127279	0.548044	0.000013
C44	C	0.206055	0.881378	0.333346
C45	C	0.539388	1.214711	0.666679
C46	C	-0.125253	0.443728	0.000008
C47	C	0.208081	0.777062	0.333341
C48	C	0.541414	1.110395	0.666675
C49	C	-0.296686	1.083160	0.000045
C50	C	0.036648	1.416493	0.333378
C51	C	0.369981	1.749827	0.666712
C52	C	-0.399066	1.085149	0.000058
C53	C	-0.065733	1.418482	0.333391
C54	C	0.267600	1.751816	0.666725
C55	C	-0.773967	1.092464	-0.000018
C56	C	-0.440634	1.425797	0.333315
C57	C	-0.107301	1.759131	0.666649
C58	C	-0.669658	1.090433	0.000004
C59	C	-0.336324	1.423766	0.333337
C60	C	-0.002991	1.757099	0.666670
C61	C	-0.586520	1.088807	0.000022
C62	C	-0.253187	1.422140	0.333355
C63	C	0.080147	1.755474	0.666688
C64	C	-0.482204	1.086775	0.000040
C65	C	-0.148871	1.420108	0.333373
C66	C	0.184463	1.753442	0.666707
C67	C	0.040507	1.096067	-0.000003
C68	C	0.373840	1.429400	0.333331
C69	C	0.707174	1.762733	0.666664
C70	C	0.142887	1.094077	-0.000028
C71	C	0.476220	1.427410	0.333305
C72	C	0.809554	1.760744	0.666638
C73	C	-0.121648	1.258210	0.000019
C74	C	0.211686	1.591543	0.333353
C75	C	0.545019	1.924877	0.666686
C76	C	-0.123644	1.360589	0.000008
C77	C	0.209689	1.693923	0.333341
C78	C	0.543022	2.027256	0.666675
N79	N	-0.101146	1.116503	0.452529
N80	N	0.232187	1.449837	0.785862
N81	N	0.565520	1.783170	1.119196
N82	N	-0.155025	1.062731	-0.452483
N83	N	0.178309	1.396064	-0.119149
N84	N	0.511642	1.729398	0.214184
H85	H	-0.210858	1.007002	0.465878
H86	H	0.122475	1.340336	0.799211
H87	H	0.455809	1.673669	1.132545
H88	H	-0.045316	1.172242	0.534178
H89	H	0.288017	1.505576	0.867511
H90	H	0.621351	1.838909	1.200845
