data_functionalizedCrystal
_audit_creation_method	'MofGen! by Chris Wilmer'
_symmetry_space_group_name_H-M	'P1'
_symmetry_Int_Tables_number	1
_symmetry_cell_setting	triclinic
loop_
_symmetry_equiv_pos_as_xyz
  x,y,z
_cell_length_a	6.817900
_cell_length_b	9.582889
_cell_length_c	16.305550
_cell_angle_alpha	93.101692
_cell_angle_beta	103.455250
_cell_angle_gamma	111.207298
loop_
_atom_site_label
_atom_site_type_symbol
_atom_site_fract_x
_atom_site_fract_y
_atom_site_fract_z
V1	V	-4.066503	-0.208318	-0.262876
O2	O	-4.012158	0.008711	-0.258031
O3	O	-4.057279	-0.411810	-0.260925
O4	O	-4.017400	-0.205684	-0.377595
O5	O	-4.052313	-0.198842	-0.140553
V6	V	-4.545146	-0.182291	-0.248264
O7	O	-4.338467	-0.265409	-0.294929
O8	O	-4.723380	-0.125200	-0.216211
O9	O	-4.331164	0.021200	-0.250215
O10	O	-4.716889	-0.399320	-0.253109
O11	O	-4.676734	-0.191768	-0.370586
O12	O	-4.371043	-0.184926	-0.133545
C13	C	-3.911833	-0.461399	-0.256739
C14	C	-3.985574	-0.627759	-0.255908
C15	C	-3.860962	-0.198463	-0.405562
C16	C	-3.902358	-0.197656	-0.499344
C17	C	-4.052840	-0.194528	-0.840092
C18	C	-3.814998	-0.185242	-0.799170
C19	C	-3.772086	-0.186701	-0.701674
C20	C	-3.978183	-0.196079	-0.671043
C21	C	-4.173778	-0.343877	-0.721559
C22	C	-4.215480	-0.343041	-0.819109
C23	C	-4.081056	-0.057197	-0.794351
C24	C	-4.032901	-0.056027	-0.696509
C25	C	-3.936003	-0.196961	-0.575504
C26	C	-4.095031	-0.193656	-0.935631
C27	C	-4.139953	0.070781	-0.254399
C28	C	-4.045451	0.237141	-0.255234
C29	C	-4.190824	-0.192151	-0.105574
C30	C	-4.128665	-0.192951	-0.011790
H31	H	-3.625053	-0.080435	-0.666730
F32	F	-4.224941	-0.053612	-0.668602
H33	H	-3.968014	0.054788	-0.807802
H34	H	-4.138441	-0.447868	-0.704669
F35	F	-3.649282	-0.045571	-0.815321
H36	H	-3.788975	-0.283908	-0.830609
F37	F	-4.307339	-0.064365	-0.829398
H38	H	-4.199426	-0.447004	-0.849413
F39	F	-3.710487	-0.317160	-0.680277
H40	H	-4.391821	-0.356003	-0.847091
H41	H	-3.890728	0.053292	-0.662212
F42	F	-4.377054	-0.359836	-0.696831
