data_functionalizedCrystal
_audit_creation_method	'MofGen! by Chris Wilmer'
_symmetry_space_group_name_H-M	'P1'
_symmetry_Int_Tables_number	1
_symmetry_cell_setting	triclinic
loop_
_symmetry_equiv_pos_as_xyz
  x,y,z
_cell_length_a	10.686285
_cell_length_b	18.215407
_cell_length_c	18.215399
_cell_angle_alpha	90.017777
_cell_angle_beta	85.609148
_cell_angle_gamma	94.372642
loop_
_atom_site_label
_atom_site_type_symbol
_atom_site_fract_x
_atom_site_fract_y
_atom_site_fract_z
Zn1	Zn	-0.502509	-1.147646	-0.393655
Zn2	Zn	-0.002509	-0.647646	0.106345
Zn3	Zn	-0.713527	-1.157035	-0.261174
Zn4	Zn	-0.213527	-0.657035	0.238826
Zn5	Zn	-0.502533	-1.024580	-0.270606
Zn6	Zn	-0.002533	-0.524580	0.229394
Zn7	Zn	-0.713439	-1.034021	-0.384207
Zn8	Zn	-0.213439	-0.534021	0.115793
O9	O	-0.608002	-1.090820	-0.327411
O10	O	-0.108002	-0.590820	0.172589
O11	O	-0.530528	-1.251877	-0.376088
O12	O	-0.030528	-0.751877	0.123912
O13	O	-0.685584	-1.139442	-0.159439
O14	O	-0.185584	-0.639442	0.340561
O15	O	-0.325954	-1.033025	-0.294830
O16	O	0.174046	-0.533025	0.205170
O17	O	-0.685562	-1.258775	-0.278755
O18	O	-0.185562	-0.758775	0.221245
O19	O	-0.325936	-1.123442	-0.385234
O20	O	0.174064	-0.623442	0.114766
O21	O	-0.530568	-1.042129	-0.166369
O22	O	-0.030568	-0.542129	0.333631
O23	O	-0.530483	-0.922847	-0.285669
O24	O	-0.030483	-0.422847	0.214331
O25	O	-0.685412	-1.049115	-0.488447
O26	O	-0.185412	-0.549115	0.011553
O27	O	-0.685434	-0.929783	-0.369131
O28	O	-0.185434	-0.429783	0.130869
O29	O	-0.530443	-1.132596	-0.495388
O30	O	-0.030443	-0.632596	0.004612
O31	O	-0.890091	-1.148596	-0.269594
O32	O	-0.390091	-0.648596	0.230406
O33	O	-0.890026	-1.058219	-0.359986
O34	O	-0.390026	-0.558219	0.140014
C35	C	-0.607953	-0.899612	-0.327399
C36	C	-0.107953	-0.399612	0.172601
C37	C	-0.607962	-0.817814	-0.327410
C38	C	-0.107962	-0.317814	0.172590
C39	C	-0.527392	-0.626034	-0.378157
C40	C	-0.027392	-0.126034	0.121843
C41	C	-0.527399	-0.549176	-0.378159
C42	C	-0.027399	-0.049176	0.121841
C43	C	-0.688593	-0.556358	-0.276671
C44	C	-0.188593	-0.056358	0.223329
C45	C	-0.688579	-0.633215	-0.276667
C46	C	-0.188579	-0.133215	0.223333
C47	C	-0.607980	-0.668051	-0.327414
C48	C	-0.107980	-0.168051	0.172586
C49	C	-0.608001	-0.514336	-0.327420
C50	C	-0.108001	-0.014336	0.172580
C51	C	-0.608009	-0.431002	-0.327421
C52	C	-0.108009	0.068998	0.172579
C53	C	-0.607970	-0.751389	-0.327412
C54	C	-0.107970	-0.251389	0.172588
C55	C	-0.935843	-1.105471	-0.312757
C56	C	-0.435843	-0.605471	0.187243
C57	C	-1.076095	-1.111805	-0.306513
C58	C	-0.576095	-0.611805	0.193487
C59	C	-0.278881	-1.076133	-0.342138
C60	C	0.221119	-0.576133	0.157862
C61	C	-0.138629	-1.069874	-0.348414
C62	C	0.361371	-0.569874	0.151586
C63	C	-0.607915	-1.090861	-0.519368
C64	C	-0.107915	-0.590861	-0.019368
C65	C	-0.607878	-1.090879	-0.601168
C66	C	-0.107878	-0.590879	-0.101168
C67	C	-0.608038	-0.282775	-0.327422
C68	C	-0.108038	0.217225	0.172578
C69	C	-0.608019	-0.364573	-0.327424
C70	C	-0.108019	0.135427	0.172576
C71	C	-0.527110	-1.134361	-0.792981
C72	C	-0.027110	-0.634361	-0.292981
C73	C	-0.527073	-1.134368	-0.869842
C74	C	-0.027073	-0.634368	-0.369842
C75	C	-0.688450	-1.047440	-0.862602
C76	C	-0.188450	-0.547440	-0.362602
C77	C	-0.688480	-1.047430	-0.785743
C78	C	-0.188480	-0.547430	-0.285743
C79	C	-0.607812	-1.090894	-0.750935
C80	C	-0.107812	-0.590894	-0.250935
C81	C	-0.607745	-1.090912	-0.904654
C82	C	-0.107745	-0.590912	-0.404654
C83	C	-0.607706	-1.090919	-0.987989
C84	C	-0.107706	-0.590919	-0.487989
C85	C	-0.607849	-1.090886	-0.667594
C86	C	-0.107849	-0.590886	-0.167594
C87	C	-0.607997	-1.090818	-0.136205
C88	C	-0.107997	-0.590818	0.363795
C89	C	-0.607679	-1.090927	-0.054420
C90	C	-0.107679	-0.590927	0.445580
H91	H	-0.461773	-0.514969	-0.419478
H92	H	0.038227	-0.014969	0.080522
H93	H	-1.129860	-1.152547	-0.265854
H94	H	-0.629860	-0.652547	0.234146
H95	H	-0.754130	-1.012055	-0.890952
H96	H	-0.254130	-0.512055	-0.390952
C97	C	-0.439249	-1.181511	-0.915405
C98	C	0.060751	-0.681511	-0.415405
C99	C	-0.314410	-1.159924	-0.902275
C100	C	0.185590	-0.659924	-0.402275
C101	C	-0.233467	-1.203343	-0.944226
C102	C	0.266533	-0.703343	-0.444226
H103	H	-0.450603	-1.175334	-0.966185
H104	H	0.049397	-0.675334	-0.466185
H105	H	-0.457659	-1.231790	-0.901977
H106	H	0.042341	-0.731790	-0.401977
H107	H	-0.296006	-1.109657	-0.915708
H108	H	0.203994	-0.609657	-0.415708
H109	H	-0.303017	-1.166104	-0.851504
H110	H	0.196983	-0.666104	-0.351504
H111	H	-0.251877	-1.253622	-0.930798
H112	H	0.248123	-0.753622	-0.430798
H113	H	-0.244832	-1.197162	-0.995003
H114	H	0.255168	-0.697162	-0.495003
H115	H	-0.148756	-1.188707	-0.935318
H116	H	0.351244	-0.688707	-0.435318
H117	H	-0.461421	-1.169750	-0.764643
H118	H	0.038579	-0.669750	-0.264643
H119	H	-0.754205	-0.667426	-0.235341
H120	H	-0.254205	-0.167426	0.264659
C121	C	-0.776245	-1.000214	-0.740213
C122	C	-0.276245	-0.500214	-0.240213
C123	C	-0.846916	-0.962172	-0.787144
C124	C	-0.346916	-0.462172	-0.287144
C125	C	-0.927783	-0.918679	-0.745228
C126	C	-0.427783	-0.418679	-0.245228
H127	H	-0.728120	-0.965931	-0.712378
H128	H	-0.228120	-0.465931	-0.212378
H129	H	-0.831306	-1.030805	-0.707786
H130	H	-0.331306	-0.530805	-0.207786
H131	H	-0.791862	-0.931584	-0.819558
H132	H	-0.291862	-0.431584	-0.319558
H133	H	-0.895067	-0.996437	-0.814980
H134	H	-0.395067	-0.496437	-0.314980
H135	H	-0.982844	-0.949270	-0.712801
H136	H	-0.482844	-0.449270	-0.212801
H137	H	-0.879648	-0.884400	-0.717394
H138	H	-0.379648	-0.384400	-0.217394
H139	H	-0.975751	-0.892867	-0.777064
H140	H	-0.475751	-0.392867	-0.277064
C141	C	-1.067116	-1.015599	-0.402738
C142	C	-0.567116	-0.515599	0.097262
C143	C	-1.099014	-1.032995	-0.474160
C144	C	-0.599014	-0.532995	0.025840
C145	C	-1.033165	-0.983007	-0.524223
C146	C	-0.533165	-0.483007	-0.024223
H147	H	-0.979196	-1.018375	-0.399975
H148	H	-0.479196	-0.518375	0.100025
H149	H	-1.088751	-0.967110	-0.391017
H150	H	-0.588751	-0.467110	0.108983
H151	H	-1.077370	-1.081471	-0.485878
H152	H	-0.577370	-0.581471	0.014122
H153	H	-1.186921	-1.030214	-0.476947
H154	H	-0.686921	-0.530214	0.023053
H155	H	-1.054800	-0.934519	-0.512502
H156	H	-0.554800	-0.434519	-0.012502
H157	H	-0.945249	-0.985787	-0.521453
H158	H	-0.445249	-0.485787	-0.021453
H159	H	-1.054807	-0.994799	-0.572687
H160	H	-0.554807	-0.494799	-0.072687
H161	H	-0.754214	-0.527985	-0.235355
H162	H	-0.254214	-0.027985	0.264645
H163	H	-0.461759	-0.654395	-0.419477
H164	H	0.038241	-0.154395	0.080523
