data_functionalizedCrystal
_audit_creation_method	'MofGen! by Chris Wilmer'
_symmetry_space_group_name_H-M	'P1'
_symmetry_Int_Tables_number	1
_symmetry_cell_setting	triclinic
loop_
_symmetry_equiv_pos_as_xyz
  x,y,z
_cell_length_a	18.101390
_cell_length_b	18.215407
_cell_length_c	18.215405
_cell_angle_alpha	90.025333
_cell_angle_beta	90.035371
_cell_angle_gamma	90.017596
loop_
_atom_site_label
_atom_site_type_symbol
_atom_site_fract_x
_atom_site_fract_y
_atom_site_fract_z
Zn1	Zn	-0.418723	-1.125056	0.292948
Zn2	Zn	-0.085390	-0.791722	0.626281
Zn3	Zn	0.247943	-0.458389	0.959615
Zn4	Zn	-0.294876	-1.124969	0.416030
Zn5	Zn	0.038457	-0.791636	0.749363
Zn6	Zn	0.371790	-0.458302	1.082696
Zn7	Zn	-0.294896	-1.001993	0.292982
Zn8	Zn	0.038438	-0.668660	0.626316
Zn9	Zn	0.371771	-0.335326	0.959649
Zn10	Zn	-0.418676	-1.001954	0.415978
Zn11	Zn	-0.085343	-0.668621	0.749312
Zn12	Zn	0.247991	-0.335287	1.082645
O13	O	-0.356793	-1.063493	0.354485
O14	O	-0.023460	-0.730160	0.687818
O15	O	0.309874	-0.396826	1.021151
O16	O	-0.402306	-1.228028	0.309282
O17	O	-0.068973	-0.894695	0.642615
O18	O	0.264360	-0.561362	0.975949
O19	O	-0.191246	-1.108636	0.399743
O20	O	0.142087	-0.775303	0.733076
O21	O	0.475421	-0.441969	1.066410
O22	O	-0.311350	-1.018370	0.189994
O23	O	0.021984	-0.685037	0.523327
O24	O	0.355317	-0.351704	0.856660
O25	O	-0.311317	-1.227965	0.399710
O26	O	0.022017	-0.894631	0.733043
O27	O	0.355350	-0.561298	1.066376
O28	O	-0.402325	-1.108784	0.189968
O29	O	-0.068992	-0.775450	0.523302
O30	O	0.264341	-0.442117	0.856635
O31	O	-0.191260	-1.018286	0.309341
O32	O	0.142073	-0.684953	0.642674
O33	O	0.475407	-0.351619	0.976007
O34	O	-0.311304	-0.899004	0.309291
O35	O	0.022030	-0.565670	0.642624
O36	O	0.355363	-0.232337	0.975958
O37	O	-0.522315	-1.018304	0.399622
O38	O	-0.188982	-0.684971	0.732956
O39	O	0.144351	-0.351637	1.066289
O40	O	-0.402245	-0.898975	0.399656
O41	O	-0.068911	-0.565642	0.732989
O42	O	0.264422	-0.232308	1.066322
O43	O	-0.522350	-1.108746	0.309232
O44	O	-0.189017	-0.775413	0.642566
O45	O	0.144317	-0.442079	0.975899
O46	O	-0.311271	-1.108598	0.519007
O47	O	0.022063	-0.775265	0.852340
O48	O	0.355396	-0.441931	1.185674
O49	O	-0.402226	-1.018220	0.518969
O50	O	-0.068893	-0.684886	0.852303
O51	O	0.264441	-0.351553	1.185636
C52	C	-0.356772	-0.872287	0.354472
C53	C	-0.023438	-0.538953	0.687805
C54	C	0.309895	-0.205620	1.021139
C55	C	-0.356780	-0.790488	0.354484
C56	C	-0.023447	-0.457154	0.687818
C57	C	0.309887	-0.123821	1.021151
C58	C	-0.356757	-1.063415	0.545691
C59	C	-0.023424	-0.730082	0.879024
C60	C	0.309909	-0.396749	1.212358
C61	C	-0.356767	-1.063449	0.627490
C62	C	-0.023433	-0.730116	0.960823
C63	C	0.309900	-0.396783	1.294156
C64	C	-0.549955	-1.063530	0.354418
C65	C	-0.216621	-0.730197	0.687751
C66	C	0.116712	-0.396864	1.021084
C67	C	-0.632269	-1.063546	0.354389
C68	C	-0.298936	-0.730213	0.687723
C69	C	0.034398	-0.396880	1.021056
C70	C	-0.782977	-1.063573	0.354366
C71	C	-0.449644	-0.730239	0.687700
C72	C	-0.116311	-0.396906	1.021033
C73	C	-0.814353	-1.120478	0.297490
C74	C	-0.481020	-0.787145	0.630823
C75	C	-0.147686	-0.453812	0.964157
C76	C	-0.899971	-1.120716	0.297644
C77	C	-0.566638	-0.787383	0.630978
C78	C	-0.233305	-0.454049	0.964311
C79	C	-0.931360	-1.063599	0.354342
C80	C	-0.598027	-0.730265	0.687676
C81	C	-0.264693	-0.396932	1.021009
C82	C	-0.900246	-1.084352	0.431965
C83	C	-0.566913	-0.751019	0.765298
C84	C	-0.233579	-0.417685	1.098631
C85	C	-0.814601	-1.084750	0.431649
C86	C	-0.481268	-0.751417	0.764983
C87	C	-0.147935	-0.418083	1.098316
C88	C	-0.814535	-0.985775	0.334293
C89	C	-0.481202	-0.652442	0.667626
C90	C	-0.147869	-0.319109	1.000960
C91	C	-0.900187	-0.986207	0.332568
C92	C	-0.566854	-0.652874	0.665902
C93	C	-0.233520	-0.319541	0.999235
C94	C	-1.015220	-1.063612	0.354334
C95	C	-0.681886	-0.730279	0.687667
C96	C	-0.348553	-0.396945	1.021000
C97	C	-0.699118	-1.063561	0.354380
C98	C	-0.365785	-0.730228	0.687714
C99	C	-0.032451	-0.396894	1.021047
C100	C	-0.164382	-1.063498	0.354498
C101	C	0.168951	-0.730165	0.687831
C102	C	0.502284	-0.396831	1.021165
C103	C	-0.082069	-1.063625	0.354319
C104	C	0.251265	-0.730291	0.687653
C105	C	0.584598	-0.396958	1.020986
C106	C	-0.356815	-1.255446	0.354498
C107	C	-0.023481	-0.922113	0.687831
C108	C	0.309852	-0.588779	1.021164
C109	C	-0.356824	-1.337245	0.354503
C110	C	-0.023491	-1.003911	0.687837
C111	C	0.309843	-0.670578	1.021170
C112	C	-0.404074	-0.602298	0.401611
C113	C	-0.070740	-0.268965	0.734945
C114	C	0.262593	0.064368	1.068278
C115	C	-0.404083	-0.525440	0.401613
C116	C	-0.070749	-0.192106	0.734947
C117	C	0.262584	0.141227	1.068280
C118	C	-0.309528	-0.525440	0.307371
C119	C	0.023805	-0.192106	0.640705
C120	C	0.357138	0.141227	0.974038
C121	C	-0.309523	-0.602297	0.307366
C122	C	0.023810	-0.268964	0.640699
C123	C	0.357143	0.064370	0.974033
C124	C	-0.356795	-0.640724	0.354490
C125	C	-0.023462	-0.307391	0.687823
C126	C	0.309872	0.025942	1.021157
C127	C	-0.356809	-0.487008	0.354498
C128	C	-0.023476	-0.153675	0.687831
C129	C	0.309858	0.179658	1.021164
C130	C	-0.356819	-0.403675	0.354500
C131	C	-0.023485	-0.070341	0.687833
C132	C	0.309848	0.262992	1.021167
C133	C	-0.356786	-0.724063	0.354487
C134	C	-0.023453	-0.390730	0.687820
C135	C	0.309880	-0.057397	1.021154
C136	C	-0.356845	-1.063591	0.162532
C137	C	-0.023511	-0.730258	0.495865
C138	C	0.309822	-0.396924	0.829198
C139	C	-0.356867	-1.063633	0.080733
C140	C	-0.023534	-0.730299	0.414066
C141	C	0.309800	-0.396966	0.747399
C142	C	-0.309494	-1.110620	0.815679
C143	C	0.023840	-0.777287	1.149012
C144	C	0.357173	-0.443953	1.482346
C145	C	-0.309511	-1.110653	0.892538
C146	C	0.023822	-0.777319	1.225871
C147	C	0.357155	-0.443986	1.559204
C148	C	-0.404145	-1.016460	0.892538
C149	C	-0.070812	-0.683127	1.225872
C150	C	0.262521	-0.349794	1.559205
C151	C	-0.404131	-1.016432	0.815681
C152	C	-0.070797	-0.683098	1.149014
C153	C	0.262536	-0.349765	1.482348
C154	C	-0.356801	-1.063510	0.777253
C155	C	-0.023467	-0.730177	1.110587
C156	C	0.309866	-0.396844	1.443920
C157	C	-0.356833	-1.063572	0.930969
C158	C	-0.023500	-0.730239	1.264303
C159	C	0.309833	-0.396905	1.597636
C160	C	-0.356853	-1.063607	1.014303
C161	C	-0.023520	-0.730274	1.347636
C162	C	0.309814	-0.396941	1.680970
C163	C	-0.356781	-1.063476	0.693914
C164	C	-0.023448	-0.730143	1.027248
C165	C	0.309885	-0.396809	1.360581
H166	H	-0.921011	-1.107749	0.240097
H167	H	-0.587677	-0.774416	0.573431
H168	H	-0.254344	-0.441082	0.906764
F169	F	-0.259204	-0.643195	0.257207
F170	F	0.074129	-0.309862	0.590540
F171	F	0.407463	0.023471	0.923873
H172	H	-0.270990	-1.149015	0.923820
H173	H	0.062343	-0.815682	1.257154
H174	H	0.395676	-0.482348	1.590487
H175	H	-0.442679	-0.978129	0.923836
H176	H	-0.109345	-0.644796	1.257169
H177	H	0.223988	-0.311463	1.590502
F178	F	-0.454487	-0.966292	0.774783
F179	F	-0.121154	-0.632958	1.108117
F180	F	0.212179	-0.299625	1.441450
H181	H	-0.921718	-1.140585	0.449241
H182	H	-0.588385	-0.807252	0.782574
H183	H	-0.255052	-0.473918	1.115907
H184	H	-0.792839	-1.177798	0.310635
H185	H	-0.459505	-0.844464	0.643969
H186	H	-0.126172	-0.511131	0.977302
F187	F	-0.787465	-1.032913	0.488945
F188	F	-0.454132	-0.699580	0.822278
F189	F	-0.120799	-0.366247	1.155611
H190	H	-0.793783	-1.107667	0.239766
H191	H	-0.460450	-0.774334	0.573100
H192	H	-0.127117	-0.441001	0.906433
F193	F	-0.926815	-1.031848	0.488862
F194	F	-0.593482	-0.698515	0.822195
F195	F	-0.260149	-0.365182	1.155528
H196	H	-0.920467	-1.178370	0.310945
H197	H	-0.587134	-0.845037	0.644278
H198	H	-0.253801	-0.511704	0.977611
F199	F	-0.786328	-0.961001	0.261575
F200	F	-0.452994	-0.627667	0.594908
F201	F	-0.119661	-0.294334	0.928242
H202	H	-0.794241	-0.943381	0.375716
H203	H	-0.460908	-0.610047	0.709049
H204	H	-0.127574	-0.276714	1.042382
F205	F	-0.788496	-1.159071	0.453843
F206	F	-0.455162	-0.825737	0.787176
F207	F	-0.121829	-0.492404	1.120509
F208	F	-0.926772	-0.965741	0.257903
F209	F	-0.593438	-0.632408	0.591237
F210	F	-0.260105	-0.299075	0.924570
H211	H	-0.442567	-0.633583	0.439981
H212	H	-0.109234	-0.300250	0.773314
H213	H	0.224100	0.033083	1.106647
H214	H	-0.271040	-0.494143	0.269006
H215	H	0.062293	-0.160810	0.602339
H216	H	0.395626	0.172524	0.935672
H217	H	-0.270956	-1.148955	0.784393
H218	H	0.062378	-0.815622	1.117726
H219	H	0.395711	-0.482289	1.451059
F220	F	-0.928111	-0.927861	0.382730
F221	F	-0.594778	-0.594528	0.716063
F222	F	-0.261445	-0.261194	1.049397
H223	H	-0.442583	-0.494156	0.439983
H224	H	-0.109250	-0.160823	0.773317
H225	H	0.224084	0.172510	1.106650
