data_functionalizedCrystal
_audit_creation_method	'MofGen! by Chris Wilmer'
_symmetry_space_group_name_H-M	'P1'
_symmetry_Int_Tables_number	1
_symmetry_cell_setting	triclinic
loop_
_symmetry_equiv_pos_as_xyz
  x,y,z
_cell_length_a	16.120490
_cell_length_b	19.121111
_cell_length_c	16.120256
_cell_angle_alpha	84.816858
_cell_angle_beta	90.129807
_cell_angle_gamma	90.314717
loop_
_atom_site_label
_atom_site_type_symbol
_atom_site_fract_x
_atom_site_fract_y
_atom_site_fract_z
Zn1	Zn	1.228524	0.355819	-0.551577
Zn2	Zn	1.561857	0.689152	-0.218244
Zn3	Zn	1.895191	1.022485	0.115090
Zn4	Zn	1.229530	0.467599	-0.417872
Zn5	Zn	1.562864	0.800932	-0.084539
Zn6	Zn	1.896197	1.134266	0.248795
Zn7	Zn	1.097145	0.343943	-0.404929
Zn8	Zn	1.430479	0.677277	-0.071596
Zn9	Zn	1.763812	1.010610	0.261738
Zn10	Zn	1.083520	0.466949	-0.549814
Zn11	Zn	1.416854	0.800282	-0.216481
Zn12	Zn	1.750187	1.133616	0.116852
O13	O	1.159680	0.408577	-0.481048
O14	O	1.493013	0.741911	-0.147715
O15	O	1.826347	1.075244	0.185619
O16	O	1.344746	0.375889	-0.539995
O17	O	1.678079	0.709222	-0.206662
O18	O	2.011412	1.042555	0.126671
O19	O	1.218092	0.446498	-0.299564
O20	O	1.551426	0.779831	0.033769
O21	O	1.884759	1.113164	0.367103
O22	O	1.119854	0.247260	-0.419703
O23	O	1.453187	0.580593	-0.086370
O24	O	1.786520	0.913927	0.246963
O25	O	1.345485	0.458013	-0.441763
O26	O	1.678818	0.791346	-0.108429
O27	O	2.012152	1.124680	0.224904
O28	O	1.216377	0.255985	-0.527445
O29	O	1.549711	0.589318	-0.194112
O30	O	1.883044	0.922652	0.139222
O31	O	1.120830	0.355649	-0.290055
O32	O	1.454163	0.688982	0.043279
O33	O	1.787496	1.022315	0.376612
O34	O	0.979250	0.355018	-0.417994
O35	O	1.312583	0.688352	-0.084661
O36	O	1.645916	1.021685	0.248673
O37	O	1.096632	0.456905	-0.666639
O38	O	1.429966	0.790239	-0.333306
O39	O	1.763299	1.123572	0.000028
O40	O	0.969240	0.445390	-0.524440
O41	O	1.302573	0.778723	-0.191107
O42	O	1.635906	1.112057	0.142226
O43	O	1.203166	0.375258	-0.667934
O44	O	1.536499	0.708592	-0.334601
O45	O	1.869832	1.041925	-0.001268
O46	O	1.204881	0.565771	-0.440053
O47	O	1.538214	0.899105	-0.106720
O48	O	1.871548	1.232438	0.226613
O49	O	1.097608	0.565294	-0.536991
O50	O	1.430942	0.898627	-0.203657
O51	O	1.764275	1.231960	0.129676
C52	C	0.944144	0.398846	-0.469622
C53	C	1.277478	0.732179	-0.136289
C54	C	1.610811	1.065512	0.197045
C55	C	0.851935	0.394700	-0.464754
C56	C	1.185269	0.728033	-0.131421
C57	C	1.518602	1.061367	0.201912
C58	C	0.637092	0.430076	-0.506298
C59	C	0.970425	0.763410	-0.172965
C60	C	1.303759	1.096743	0.160368
C61	C	0.683113	0.387137	-0.455866
C62	C	1.016446	0.720471	-0.122533
C63	C	1.349779	1.053804	0.210800
C64	C	0.777054	0.391346	-0.460813
C65	C	1.110388	0.724680	-0.127480
C66	C	1.443721	1.058013	0.205854
C67	C	0.543142	0.425868	-0.501353
C68	C	0.876475	0.759201	-0.168019
C69	C	1.209809	1.092535	0.165314
C70	C	1.149897	0.591012	-0.489755
C71	C	1.483230	0.924345	-0.156421
C72	C	1.816564	1.257678	0.176912
C73	C	1.145786	0.669062	-0.493511
C74	C	1.479119	1.002396	-0.160178
C75	C	1.812453	1.335729	0.173156
C76	C	1.199745	0.705960	-0.444852
C77	C	1.533078	1.039293	-0.111519
C78	C	1.866412	1.372626	0.221814
C79	C	1.195883	0.779297	-0.448390
C80	C	1.529217	1.112630	-0.115057
C81	C	1.862550	1.445963	0.218276
C82	C	1.138058	0.815735	-0.500584
C83	C	1.471392	1.149068	-0.167250
C84	C	1.804725	1.482402	0.166083
C85	C	1.084097	0.778833	-0.549248
C86	C	1.417430	1.112166	-0.215915
C87	C	1.750764	1.445499	0.117419
C88	C	1.087963	0.705497	-0.545714
C89	C	1.421297	1.038831	-0.212380
C90	C	1.754630	1.372164	0.120953
C91	C	1.123593	1.037150	-0.513782
C92	C	1.456926	1.370483	-0.180448
C93	C	1.790259	1.703817	0.152885
C94	C	1.119729	1.110491	-0.517310
C95	C	1.453062	1.443824	-0.183977
C96	C	1.786395	1.777157	0.149356
C97	C	1.231517	1.110950	-0.416453
C98	C	1.564850	1.444283	-0.083120
C99	C	1.898183	1.777616	0.250213
C100	C	1.235374	1.037612	-0.412920
C101	C	1.568708	1.370946	-0.079587
C102	C	1.902041	1.704279	0.253747
C103	C	1.181416	1.000717	-0.461588
C104	C	1.514749	1.334050	-0.128254
C105	C	1.848083	1.667383	0.205079
C106	C	1.134108	0.890697	-0.504200
C107	C	1.467441	1.224031	-0.170866
C108	C	1.800775	1.557364	0.162467
C109	C	1.185371	0.925756	-0.457976
C110	C	1.518704	1.259089	-0.124642
C111	C	1.852037	1.592423	0.208691
C112	C	1.376057	0.418348	-0.492519
C113	C	1.709391	0.751681	-0.159186
C114	C	2.042724	1.085015	0.174147
C115	C	1.468264	0.422512	-0.497408
C116	C	1.801598	0.755845	-0.164074
C117	C	2.134931	1.089178	0.169259
C118	C	1.148267	0.417334	-0.698363
C119	C	1.481600	0.750667	-0.365029
C120	C	1.814934	1.084001	-0.031696
C121	C	1.143403	0.421065	-0.790969
C122	C	1.476737	0.754399	-0.457636
C123	C	1.810070	1.087732	-0.124303
C124	C	1.169516	1.225433	-0.472337
C125	C	1.502849	1.558766	-0.139004
C126	C	1.836182	1.892100	0.194329
C127	C	1.173688	1.147388	-0.468652
C128	C	1.507021	1.480721	-0.135318
C129	C	1.840354	1.814054	0.198015
C130	C	1.185042	0.389100	-1.002421
C131	C	1.518376	0.722433	-0.669088
C132	C	1.851709	1.055767	-0.335755
C133	C	1.134498	0.427848	-0.960514
C134	C	1.467831	0.761181	-0.627181
C135	C	1.801164	1.094515	-0.293848
C136	C	1.139454	0.424073	-0.866171
C137	C	1.472788	0.757406	-0.532837
C138	C	1.806121	1.090740	-0.199504
C139	C	1.180087	0.392874	-1.096774
C140	C	1.513420	0.726207	-0.763440
C141	C	1.846753	1.059541	-0.430107
C142	C	1.171099	0.399807	-0.264579
C143	C	1.504432	0.733140	0.068754
C144	C	1.837766	1.066473	0.402088
C145	C	1.176134	0.395884	-0.171972
C146	C	1.509467	0.729218	0.161361
C147	C	1.842801	1.062551	0.494695
H148	H	0.651960	0.347215	-0.408975
H149	H	0.985293	0.680549	-0.075642
H150	H	1.318627	1.013882	0.257692
Br151	Br	1.263355	0.329076	-0.944127
Br152	Br	1.596688	0.662409	-0.610793
Br153	Br	1.930021	0.995742	-0.277460
H154	H	1.246829	0.676296	-0.402347
H155	H	1.580162	1.009629	-0.069014
H156	H	1.913495	1.342963	0.264320
Br157	Br	0.689013	0.496619	-0.584441
Br158	Br	1.022346	0.829953	-0.251108
Br159	Br	1.355679	1.163286	0.082226
Br160	Br	1.041233	1.159941	-0.588134
Br161	Br	1.374567	1.493275	-0.254801
Br162	Br	1.707900	1.826608	0.078533
H163	H	1.079656	1.007115	-0.553407
H164	H	1.412989	1.340448	-0.220074
H165	H	1.746323	1.673782	0.113259
H166	H	1.282460	1.007946	-0.370420
H167	H	1.615793	1.341279	-0.037087
H168	H	1.949127	1.674612	0.296246
Br169	Br	1.269121	0.829370	-0.382355
Br170	Br	1.602455	1.162703	-0.049022
Br171	Br	1.935788	1.496036	0.284311
H172	H	1.275447	1.140998	-0.376832
H173	H	1.608781	1.474331	-0.043499
H174	H	1.942114	1.807665	0.289834
H175	H	1.037018	0.808507	-0.591749
H176	H	1.370351	1.141840	-0.258415
H177	H	1.703685	1.475174	0.074918
Br178	Br	1.056168	0.487864	-1.018806
Br179	Br	1.389501	0.821198	-0.685473
Br180	Br	1.722834	1.154531	-0.352140
H181	H	1.044025	0.675456	-0.585338
H182	H	1.377359	1.008789	-0.252005
H183	H	1.710692	1.342123	0.081329
H184	H	1.232455	0.896086	-0.415483
H185	H	1.565788	1.229420	-0.082150
H186	H	1.899122	1.562753	0.251183
H187	H	1.087025	0.920373	-0.546694
H188	H	1.420359	1.253707	-0.213360
H189	H	1.753692	1.587040	0.119973
