data_functionalizedCrystal
_audit_creation_method	'MofGen! by Chris Wilmer'
_symmetry_space_group_name_H-M	'P1'
_symmetry_Int_Tables_number	1
_symmetry_cell_setting	triclinic
loop_
_symmetry_equiv_pos_as_xyz
  x,y,z
_cell_length_a	16.120484
_cell_length_b	18.215407
_cell_length_c	18.215399
_cell_angle_alpha	90.019833
_cell_angle_beta	92.869789
_cell_angle_gamma	87.073985
loop_
_atom_site_label
_atom_site_type_symbol
_atom_site_fract_x
_atom_site_fract_y
_atom_site_fract_z
Zn1	Zn	-0.331906	-1.110213	-0.430960
Zn2	Zn	0.001427	-0.776879	-0.097627
Zn3	Zn	0.334760	-0.443546	0.235707
Zn4	Zn	-0.471328	-1.103879	-0.314129
Zn5	Zn	-0.137995	-0.770546	0.019204
Zn6	Zn	0.195339	-0.437212	0.352538
Zn7	Zn	-0.331934	-0.987144	-0.307908
Zn8	Zn	0.001400	-0.653811	0.025425
Zn9	Zn	0.334733	-0.320477	0.358758
Zn10	Zn	-0.471282	-0.980871	-0.437152
Zn11	Zn	-0.137948	-0.647538	-0.103818
Zn12	Zn	0.195385	-0.314205	0.229515
O13	O	-0.401612	-1.045527	-0.372537
O14	O	-0.068279	-0.712193	-0.039204
O15	O	0.265054	-0.378860	0.294129
O16	O	-0.350409	-1.212356	-0.415474
O17	O	-0.017076	-0.879023	-0.082141
O18	O	0.316258	-0.545690	0.251193
O19	O	-0.452868	-1.088368	-0.210321
O20	O	-0.119535	-0.755035	0.123012
O21	O	0.213799	-0.421702	0.456346
O22	O	-0.215264	-1.008745	-0.319037
O23	O	0.118069	-0.675412	0.014297
O24	O	0.451403	-0.342078	0.347630
O25	O	-0.452841	-1.207703	-0.329639
O26	O	-0.119508	-0.874370	0.003695
O27	O	0.213825	-0.541036	0.337028
O28	O	-0.215244	-1.099163	-0.409442
O29	O	0.118089	-0.765830	-0.076109
O30	O	0.451423	-0.432496	0.257225
O31	O	-0.350456	-1.002604	-0.205751
O32	O	-0.017122	-0.669270	0.127583
O33	O	0.316211	-0.335937	0.460916
O34	O	-0.350411	-0.883328	-0.325041
O35	O	-0.017077	-0.549995	0.008292
O36	O	0.316256	-0.216661	0.341626
O37	O	-0.452762	-0.998054	-0.539313
O38	O	-0.119429	-0.664721	-0.205980
O39	O	0.213904	-0.331387	0.127353
O40	O	-0.452789	-0.878719	-0.419995
O41	O	-0.119455	-0.545386	-0.086662
O42	O	0.213878	-0.212053	0.246671
O43	O	-0.350364	-1.093081	-0.534764
O44	O	-0.017031	-0.759747	-0.201431
O45	O	0.316303	-0.426414	0.131903
O46	O	-0.587988	-1.082286	-0.335643
O47	O	-0.254654	-0.748953	-0.002310
O48	O	0.078679	-0.415619	0.331024
O49	O	-0.587954	-0.991913	-0.426027
O50	O	-0.254620	-0.658579	-0.092694
O51	O	0.078713	-0.325246	0.240639
C52	C	-0.401598	-0.854321	-0.372516
C53	C	-0.068265	-0.520988	-0.039182
C54	C	0.265068	-0.187654	0.294151
C55	C	-0.401612	-0.772522	-0.372525
C56	C	-0.068279	-0.439188	-0.039191
C57	C	0.265055	-0.105855	0.294142
C58	C	-0.618221	-1.035751	-0.382198
C59	C	-0.284888	-0.702418	-0.048865
C60	C	0.048446	-0.369085	0.284469
C61	C	-0.710887	-1.031637	-0.386356
C62	C	-0.377554	-0.698304	-0.053022
C63	C	-0.044220	-0.364970	0.280311
C64	C	-0.401555	-1.045574	-0.564488
C65	C	-0.068222	-0.712241	-0.231154
C66	C	0.265112	-0.378907	0.102179
C67	C	-0.401530	-1.045594	-0.646286
C68	C	-0.068197	-0.712261	-0.312952
C69	C	0.265136	-0.378928	0.020381
C70	C	-0.880549	-1.024129	-0.393961
C71	C	-0.547215	-0.690796	-0.060628
C72	C	-0.213882	-0.357462	0.272705
C73	C	-0.921836	-1.067056	-0.351125
C74	C	-0.588502	-0.733723	-0.017792
C75	C	-0.255169	-0.400390	0.315541
C76	C	-1.016241	-1.062879	-0.355357
C77	C	-0.682908	-0.729545	-0.022024
C78	C	-0.349575	-0.396212	0.311309
C79	C	-0.786135	-1.028305	-0.389730
C80	C	-0.452801	-0.694972	-0.056397
C81	C	-0.119468	-0.361639	0.276936
C82	C	-0.184158	-1.055360	-0.362855
C83	C	0.149175	-0.722027	-0.029522
C84	C	0.482509	-0.388693	0.303812
C85	C	-0.091492	-1.059551	-0.358729
C86	C	0.241841	-0.726217	-0.025396
C87	C	0.575175	-0.392884	0.307938
C88	C	-0.401627	-1.237479	-0.372560
C89	C	-0.068294	-0.904146	-0.039226
C90	C	0.265039	-0.570812	0.294107
C91	C	-0.401634	-1.319277	-0.372569
C92	C	-0.068300	-0.985944	-0.039236
C93	C	0.265033	-0.652611	0.294098
C94	C	-0.455004	-0.581943	-0.421912
C95	C	-0.121671	-0.248610	-0.088579
C96	C	0.211662	0.084723	0.244755
C97	C	-0.455007	-0.505085	-0.421921
C98	C	-0.121674	-0.171751	-0.088588
C99	C	0.211660	0.161582	0.244745
C100	C	-0.348236	-0.509861	-0.323179
C101	C	-0.014902	-0.176528	0.010154
C102	C	0.318431	0.156805	0.343487
C103	C	-0.348229	-0.586719	-0.323174
C104	C	-0.014896	-0.253386	0.010159
C105	C	0.318437	0.079948	0.343493
C106	C	-0.401619	-0.622758	-0.372540
C107	C	-0.068285	-0.289424	-0.039206
C108	C	0.265048	0.043909	0.294127
C109	C	-0.401627	-0.469041	-0.372554
C110	C	-0.068294	-0.135708	-0.039221
C111	C	0.265039	0.197625	0.294113
C112	C	-0.401630	-0.385708	-0.372564
C113	C	-0.068296	-0.052374	-0.039230
C114	C	0.265037	0.280959	0.294103
C115	C	-0.401615	-0.706097	-0.372531
C116	C	-0.068282	-0.372764	-0.039198
C117	C	0.265051	-0.039430	0.294136
C118	C	-0.348162	-1.095094	-0.832110
C119	C	-0.014828	-0.761760	-0.498776
C120	C	0.318505	-0.428427	-0.165443
C121	C	-0.348138	-1.095104	-0.908967
C122	C	-0.014804	-0.761770	-0.575634
C123	C	0.318529	-0.428437	-0.242301
C124	C	-0.454770	-0.996153	-0.913694
C125	C	-0.121437	-0.662819	-0.580360
C126	C	0.211896	-0.329486	-0.247027
C127	C	-0.454790	-0.996140	-0.836837
C128	C	-0.121456	-0.662806	-0.503504
C129	C	0.211877	-0.329473	-0.170170
C130	C	-0.401487	-1.045615	-0.796047
C131	C	-0.068153	-0.712281	-0.462714
C132	C	0.265180	-0.378948	-0.129380
C133	C	-0.401443	-1.045637	-0.949761
C134	C	-0.068110	-0.712304	-0.616428
C135	C	0.265224	-0.378971	-0.283095
C136	C	-0.401417	-1.045648	-1.033094
C137	C	-0.068084	-0.712314	-0.699761
C138	C	0.265250	-0.378981	-0.366427
C139	C	-0.401511	-1.045603	-0.712709
C140	C	-0.068178	-0.712270	-0.379376
C141	C	0.265155	-0.378937	-0.046043
C142	C	-0.401610	-1.045524	-0.181331
C143	C	-0.068276	-0.712191	0.152002
C144	C	0.265057	-0.378858	0.485336
C145	C	-0.401399	-1.045657	-0.099523
C146	C	-0.068066	-0.712324	0.233810
C147	C	0.265267	-0.378991	0.567144
H148	H	-0.916101	-0.984243	-0.433809
H149	H	-0.582768	-0.650910	-0.100475
H150	H	-0.249434	-0.317577	0.232858
C151	C	-0.560533	-0.569500	-0.519522
C152	C	-0.227200	-0.236166	-0.186189
C153	C	0.106133	0.097167	0.147144
C154	C	-0.513679	-0.621559	-0.476182
C155	C	-0.180346	-0.288225	-0.142848
C156	C	0.152987	0.045108	0.190485
H157	H	-0.596752	-0.593957	-0.553031
H158	H	-0.263418	-0.260623	-0.219697
H159	H	0.069915	0.072710	0.113636
H160	H	-0.592382	-0.538076	-0.488837
H161	H	-0.259049	-0.204743	-0.155504
H162	H	0.074285	0.128591	0.177830
H163	H	-0.524240	-0.541168	-0.546102
H164	H	-0.190906	-0.207835	-0.212768
H165	H	0.142427	0.125498	0.120565
H166	H	-0.549973	-0.649886	-0.449598
H167	H	-0.216639	-0.316553	-0.116265
H168	H	0.116694	0.016780	0.217069
H169	H	-0.481828	-0.652995	-0.506871
H170	H	-0.148495	-0.319662	-0.173537
H171	H	0.184839	0.013672	0.159796
H172	H	-0.498478	-0.471857	-0.462126
H173	H	-0.165145	-0.138523	-0.128793
H174	H	0.168189	0.194810	0.204540
C175	C	-0.336500	-0.673648	-0.223671
C176	C	-0.003166	-0.340315	0.109662
C177	C	0.330167	-0.006981	0.442995
C178	C	-0.289545	-0.631590	-0.268899
C179	C	0.043788	-0.298257	0.064434
C180	C	0.377122	0.035077	0.397767
H181	H	-0.300269	-0.701353	-0.190171
H182	H	0.033065	-0.368019	0.143162
H183	H	0.366398	-0.034686	0.476495
H184	H	-0.372776	-0.642018	-0.197089
H185	H	-0.039442	-0.308684	0.136244
H186	H	0.293891	0.024649	0.469578
H187	H	-0.368288	-0.706106	-0.253082
H188	H	-0.034955	-0.372773	0.080251
H189	H	0.298378	-0.039440	0.413585
H190	H	-0.257761	-0.599128	-0.239489
H191	H	0.075572	-0.265795	0.093844
H192	H	0.408906	0.067539	0.427178
H193	H	-0.253254	-0.663224	-0.295484
H194	H	0.080079	-0.329890	0.037849
H195	H	0.413412	0.003443	0.371183
C196	C	-0.300840	-1.139011	-0.712195
C197	C	0.032493	-0.805678	-0.378862
C198	C	0.365826	-0.472344	-0.045529
C199	C	-0.289564	-1.149467	-0.787271
C200	C	0.043770	-0.816134	-0.453938
C201	C	0.377103	-0.482801	-0.120605
H202	H	-0.264664	-1.172582	-0.684517
H203	H	0.068670	-0.839249	-0.351184
H204	H	0.402003	-0.505915	-0.017851
H205	H	-0.288644	-1.090118	-0.699053
H206	H	0.044690	-0.756785	-0.365719
H207	H	0.378023	-0.423452	-0.032386
H208	H	-0.356861	-1.147255	-0.702100
H209	H	-0.023527	-0.813921	-0.368767
H210	H	0.309806	-0.480588	-0.035433
H211	H	-0.233545	-1.141219	-0.797368
H212	H	0.099789	-0.807885	-0.464035
H213	H	0.433122	-0.474552	-0.130701
H214	H	-0.301755	-1.198372	-0.800419
H215	H	0.031579	-0.865038	-0.467086
H216	H	0.364912	-0.531705	-0.133752
C217	C	-0.300746	-1.139050	-1.024682
C218	C	0.032587	-0.805717	-0.691348
C219	C	0.365921	-0.472383	-0.358015
C220	C	-0.289517	-1.149489	-0.948608
C221	C	0.043816	-0.816156	-0.615275
C222	C	0.377150	-0.482822	-0.281942
H223	H	-0.264548	-1.172623	-1.049152
H224	H	0.068786	-0.839289	-0.715819
H225	H	0.402119	-0.505956	-0.382485
H226	H	-0.356750	-1.147296	-1.039772
H227	H	-0.023417	-0.813963	-0.706439
H228	H	0.309917	-0.480630	-0.373105
H229	H	-0.288541	-1.090153	-1.036713
H230	H	0.044793	-0.756820	-0.703380
H231	H	0.378126	-0.423486	-0.370047
H232	H	-0.301728	-1.198385	-0.936576
H233	H	0.031605	-0.865051	-0.603243
H234	H	0.364938	-0.531718	-0.269909
H235	H	-0.233500	-1.141248	-0.933512
H236	H	0.099833	-0.807915	-0.600179
H237	H	0.433166	-0.474582	-0.266845
H238	H	-0.498213	-0.955843	-0.807474
H239	H	-0.164879	-0.622509	-0.474141
H240	H	0.168454	-0.289176	-0.140808
C241	C	-0.502092	-0.952239	-1.033609
C242	C	-0.168759	-0.618906	-0.700275
C243	C	0.164574	-0.285572	-0.366942
C244	C	-0.513365	-0.941777	-0.958533
C245	C	-0.180032	-0.608444	-0.625199
C246	C	0.153301	-0.275111	-0.291866
H247	H	-0.538273	-0.918672	-1.061288
H248	H	-0.204940	-0.585339	-0.727954
H249	H	0.128394	-0.252006	-0.394621
H250	H	-0.446080	-0.944000	-1.043707
H251	H	-0.112747	-0.610666	-0.710374
H252	H	0.220587	-0.277333	-0.377040
H253	H	-0.514294	-1.001139	-1.046748
H254	H	-0.180960	-0.667806	-0.713414
H255	H	0.152373	-0.334472	-0.380081
H256	H	-0.501158	-0.892879	-0.945392
H257	H	-0.167825	-0.559545	-0.612059
H258	H	0.165508	-0.226212	-0.278726
H259	H	-0.569390	-0.950011	-0.948430
H260	H	-0.236057	-0.616678	-0.615096
H261	H	0.097276	-0.283344	-0.281763
H262	H	-0.886281	-1.106944	-0.311274
H263	H	-0.552948	-0.773611	0.022059
H264	H	-0.219614	-0.440277	0.355393
C265	C	-0.300836	-0.394164	-0.279343
C266	C	0.032498	-0.060831	0.053990
C267	C	0.365831	0.272503	0.387323
C268	C	-0.289556	-0.470244	-0.268916
C269	C	0.043778	-0.136911	0.064418
C270	C	0.377111	0.196422	0.397751
H271	H	-0.264611	-0.369709	-0.245839
H272	H	0.068722	-0.036376	0.087495
H273	H	0.402056	0.296958	0.420828
H274	H	-0.288706	-0.382140	-0.328262
H275	H	0.044627	-0.048807	0.005072
H276	H	0.377961	0.284526	0.338405
H277	H	-0.356839	-0.379046	-0.270989
H278	H	-0.023506	-0.045712	0.062345
H279	H	0.309828	0.287621	0.395678
H280	H	-0.233553	-0.485364	-0.277276
H281	H	0.099780	-0.152030	0.056058
H282	H	0.433113	0.181303	0.389391
H283	H	-0.301680	-0.482273	-0.219986
H284	H	0.031654	-0.148940	0.113348
H285	H	0.364987	0.184393	0.446681
