data_functionalizedCrystal
_audit_creation_method	'MofGen! by Chris Wilmer'
_symmetry_space_group_name_H-M	'P1'
_symmetry_Int_Tables_number	1
_symmetry_cell_setting	triclinic
loop_
_symmetry_equiv_pos_as_xyz
  x,y,z
_cell_length_a	15.297475
_cell_length_b	12.645330
_cell_length_c	12.645324
_cell_angle_alpha	90.033902
_cell_angle_beta	99.689021
_cell_angle_gamma	80.315708
loop_
_atom_site_label
_atom_site_type_symbol
_atom_site_fract_x
_atom_site_fract_y
_atom_site_fract_z
Zn1	Zn	1.379373	-0.702854	0.879454
Zn2	Zn	1.379285	-0.880145	0.702169
Zn3	Zn	1.228492	-0.672189	0.671568
Zn4	Zn	1.228490	-0.849350	0.848772
O5	O	1.303910	-0.776134	0.775491
O6	O	1.505614	-0.752093	0.881583
O7	O	1.359246	-0.852614	0.549755
O8	O	1.248544	-0.527917	0.699178
O9	O	1.505549	-0.882348	0.751333
O10	O	1.359396	-0.550446	0.851911
O11	O	1.248459	-0.699829	0.527272
O12	O	1.102239	-0.669968	0.669427
O13	O	1.248542	-0.829862	1.001197
O14	O	1.102238	-0.800128	0.799619
O15	O	1.359395	-0.722232	1.023738
O16	O	1.359244	-1.024400	0.721583
O17	O	1.248456	-1.001774	0.829291
C18	C	1.069503	-0.728379	0.727874
C19	C	0.969223	-0.707975	0.707528
C20	C	0.686647	-0.921974	0.920907
C21	C	0.780865	-0.941152	0.940019
C22	C	0.827959	-0.882860	0.881899
C23	C	0.780825	-0.805385	0.804661
C24	C	0.686598	-0.786211	0.785540
C25	C	0.827910	-0.747096	0.746532
C26	C	0.780777	-0.669622	0.669295
C27	C	0.686558	-0.650450	0.650178
C28	C	0.639464	-0.708743	0.708299
C29	C	0.922138	-0.766271	0.765653
C30	C	0.922089	-0.630508	0.630287
C31	C	0.827871	-0.611329	0.611174
C32	C	1.303865	-1.051555	0.775456
C33	C	1.303928	-1.169398	0.775494
C34	C	1.373513	-1.351128	0.707546
C35	C	1.373740	-1.228614	0.707793
C36	C	1.329716	-1.219018	0.892474
C37	C	1.330268	-1.341728	0.892151
C38	C	1.208528	-1.317301	0.727558
C39	C	1.208985	-1.194790	0.725145
C40	C	1.539233	-0.824076	0.823294
C41	C	1.639513	-0.844506	0.843665
C42	C	1.303978	-0.776033	1.052010
C43	C	1.304007	-0.775990	1.169846
C44	C	1.303980	-0.499643	0.775553
C45	C	1.304010	-0.381819	0.775580
C46	C	1.303895	-0.776169	0.500058
C47	C	1.304041	-0.775950	0.382258
C48	C	1.374016	-0.708572	1.351646
C49	C	1.373791	-0.708231	1.229040
C50	C	1.208956	-0.726276	1.195029
C51	C	1.209381	-0.725742	1.317714
C52	C	1.328277	-0.893083	1.341967
C53	C	1.330356	-0.892943	1.219783
H54	H	0.648185	-0.587376	0.587275
H55	H	1.155469	-0.771631	1.336415
H56	H	0.789481	-0.548249	0.548286
N57	N	1.183390	-1.151179	0.610969
H58	H	1.229542	-1.185707	0.567369
H59	H	1.181238	-1.070914	0.610289
H60	H	1.398720	-1.202279	0.931145
H61	H	1.280634	-1.179869	0.945353
H62	H	1.444730	-0.741745	1.395494
N63	N	1.467412	-1.208724	0.751909
H64	H	1.467950	-1.128965	0.752250
H65	H	1.510767	-1.244471	0.705411
N66	N	1.423010	-0.942144	1.200089
H67	H	1.447820	-0.888908	1.158990
H68	H	1.419054	-1.008985	1.157037
N69	N	1.352378	-1.184527	0.593703
H70	H	1.404136	-1.150809	0.577368
H71	H	1.295942	-1.128595	0.584581
N72	N	0.831700	-1.024712	1.023313
H73	H	0.787572	-1.058730	1.057232
H74	H	0.870821	-0.989582	1.080387
N75	N	1.260769	-0.959898	1.366656
H76	H	1.292813	-1.022991	1.415107
H77	H	1.229575	-0.986814	1.297606
H78	H	1.400060	-1.384450	0.930577
H79	H	0.960433	-0.583043	0.582958
H80	H	1.358174	-0.622691	1.379257
H81	H	1.185078	-1.343545	0.642733
N82	N	1.352409	-1.385971	0.593179
H83	H	1.297593	-1.421997	0.584355
H84	H	1.405407	-1.438056	0.575747
H85	H	0.960505	-0.829351	0.828541
H86	H	1.444273	-0.741596	1.213277
H87	H	0.904676	-0.898479	0.897465
H88	H	1.281863	-1.361531	0.945636
N89	N	0.537840	-0.688070	0.687667
H90	H	0.515163	-0.736758	0.736206
H91	H	0.515198	-0.702840	0.610277
N92	N	1.466689	-1.410802	0.751258
H93	H	1.464075	-1.457630	0.814940
H94	H	1.508063	-1.357563	0.774352
N95	N	1.136678	-1.139487	0.783881
H96	H	1.164566	-1.097005	0.844236
H97	H	1.106666	-1.195040	0.814257
N98	N	1.139927	-1.341741	0.792874
H99	H	1.170497	-1.394337	0.853272
H100	H	1.091831	-1.373929	0.745330
H101	H	1.357744	-0.621849	1.196473
N102	N	1.182166	-0.611567	1.350101
H103	H	1.170008	-0.562056	1.284704
H104	H	1.232360	-0.590470	1.404157
H105	H	0.648294	-0.969434	0.968214
N106	N	1.138003	-0.788141	1.141984
H107	H	1.108725	-0.817962	1.198582
H108	H	1.166921	-0.849088	1.101016
H109	H	1.188037	-0.640915	1.160090
H110	H	1.396376	-0.934589	1.386776
N111	N	1.267748	-0.965086	1.166471
H112	H	1.204090	-0.935611	1.176143
H113	H	1.286390	-1.039585	1.200214
