data_functionalizedCrystal
_audit_creation_method	'MofGen! by Chris Wilmer'
_symmetry_space_group_name_H-M	'P1'
_symmetry_Int_Tables_number	1
_symmetry_cell_setting	triclinic
loop_
_symmetry_equiv_pos_as_xyz
  x,y,z
_cell_length_a	19.121102
_cell_length_b	25.639233
_cell_length_c	19.121063
_cell_angle_alpha	87.579147
_cell_angle_beta	89.873098
_cell_angle_gamma	87.548369
loop_
_atom_site_label
_atom_site_type_symbol
_atom_site_fract_x
_atom_site_fract_y
_atom_site_fract_z
Zn1	Zn	1.059798	-0.339548	0.324995
Zn2	Zn	1.054717	-0.255671	0.442211
Zn3	Zn	0.942574	-0.248248	0.319984
Zn4	Zn	0.937523	-0.339198	0.437185
O5	O	0.998653	-0.295666	0.381094
O6	O	1.157228	-0.331674	0.344744
O7	O	1.039828	-0.181521	0.426003
O8	O	0.962365	-0.257399	0.222545
O9	O	1.153495	-0.270050	0.430862
O10	O	1.048488	-0.324477	0.226226
O11	O	0.957438	-0.176067	0.336204
O12	O	0.843800	-0.257060	0.331331
O13	O	0.953755	-0.412410	0.422297
O14	O	0.840088	-0.323880	0.417438
O15	O	1.043590	-0.412667	0.339871
O16	O	1.034930	-0.269711	0.539649
O17	O	0.948828	-0.331078	0.535956
C18	C	0.816506	-0.289627	0.373296
C19	C	0.738583	-0.287056	0.369977
C20	C	0.700057	-0.320588	0.413317
C21	C	0.626840	-0.318175	0.410189
C22	C	0.592149	-0.282227	0.363724
C23	C	0.630680	-0.248694	0.320380
C24	C	0.703896	-0.251110	0.323505
C25	C	0.371180	-0.273196	0.352040
C26	C	0.297959	-0.270782	0.348919
C27	C	0.294124	-0.340263	0.438728
C28	C	0.367341	-0.342674	0.441852
C29	C	0.405866	-0.309143	0.398505
C30	C	0.517310	-0.279758	0.360527
C31	C	0.480704	-0.311614	0.401698
C32	C	0.998676	-0.432040	0.381083
C33	C	0.998686	-0.490154	0.381078
C34	C	1.045525	-0.850654	0.338028
C35	C	1.045535	-0.905258	0.338009
O36	O	1.085299	-0.933613	0.301487
N37	N	0.998770	-0.932434	0.380917
C38	C	0.951988	-0.905003	0.423841
O39	O	0.912211	-0.933131	0.460335
C40	C	0.951976	-0.850399	0.423856
C41	C	0.998748	-0.823227	0.380951
C42	C	1.092294	-0.823482	0.295126
C43	C	1.092285	-0.768882	0.295146
C44	C	1.045508	-0.741454	0.338068
C45	C	0.998740	-0.768627	0.380971
C46	C	0.905191	-0.822968	0.466776
C47	C	0.905182	-0.768361	0.466787
C48	C	0.951955	-0.741189	0.423882
C49	C	0.951954	-0.686599	0.423913
N50	N	0.998718	-0.659423	0.381006
C51	C	1.045496	-0.686851	0.338083
C52	C	0.952017	-1.019673	0.423806
C53	C	0.952032	-1.074275	0.423795
C54	C	1.045578	-1.074528	0.337962
C55	C	1.045566	-1.019924	0.337977
C56	C	0.998781	-0.992497	0.380898
C57	C	1.045474	-0.572186	0.338129
C58	C	1.045463	-0.517581	0.338155
C59	C	0.951915	-0.517334	0.423985
C60	C	0.951928	-0.571934	0.423962
C61	C	0.998710	-0.599359	0.381029
O62	O	0.912207	-0.658210	0.460415
O63	O	1.085259	-0.658715	0.301588
C64	C	1.181510	-0.301729	0.388923
C65	C	1.259433	-0.304313	0.392259
C66	C	0.990799	-0.301174	0.563241
C67	C	0.987503	-0.303550	0.641166
C68	C	0.998672	-0.159823	0.381056
C69	C	0.998807	-0.101708	0.380870
C70	C	1.006557	-0.290149	0.198237
C71	C	1.009925	-0.287798	0.120314
C72	C	1.030818	-0.272744	0.679677
C73	C	1.027722	-0.274982	0.752896
C74	C	0.981308	-0.308023	0.787604
C75	C	0.937991	-0.338832	0.749089
C76	C	0.941090	-0.336596	0.675871
C77	C	0.969708	-0.316371	1.008581
C78	C	0.966610	-0.318603	1.081804
C79	C	1.056343	-0.254754	1.085607
C80	C	1.059435	-0.252520	1.012387
C81	C	1.016121	-0.283330	0.973878
C82	C	0.978141	-0.310310	0.862446
C83	C	1.019292	-0.281046	0.899037
H84	H	0.595476	-0.345479	0.445481
N85	N	0.252576	-0.376433	0.485472
H86	H	0.263157	-0.370186	0.536090
H87	H	0.200945	-0.369433	0.476386
H88	H	0.913952	-1.096395	0.458741
N89	N	0.479890	-0.240981	0.310423
H90	H	0.515403	-0.220100	0.283441
H91	H	0.450918	-0.260321	0.276725
H92	H	1.083665	-1.096869	0.303010
H93	H	1.083553	-0.495460	0.303216
H94	H	1.083566	-0.594509	0.303166
N95	N	0.404756	-0.381443	0.491971
H96	H	0.369240	-0.402320	0.518953
H97	H	0.436374	-0.405816	0.464782
H98	H	0.602430	-0.219427	0.282544
H99	H	0.269717	-0.241512	0.311074
H100	H	1.068611	-0.245837	0.651422
N101	N	0.887924	-0.374466	0.786518
H102	H	0.899318	-0.411800	0.774208
H103	H	0.892551	-0.371163	0.838733
H104	H	0.940348	-0.337210	0.890714
N105	N	0.916549	-0.354245	1.119239
H106	H	0.921156	-0.350982	1.171465
H107	H	0.867027	-0.344030	1.104346
H108	H	0.913918	-0.997345	0.458761
N109	N	0.737471	-0.359357	0.463437
H110	H	0.701952	-0.380233	0.490417
H111	H	0.769088	-0.383729	0.436247
N112	N	0.412727	-0.237040	0.305278
H113	H	0.379639	-0.213903	0.275369
H114	H	0.441876	-0.214669	0.335049
N115	N	1.142731	-0.739578	0.248867
H116	H	1.172360	-0.765245	0.221675
H117	H	1.115593	-0.714995	0.215206
H118	H	1.130386	-0.845807	0.260169
N119	N	0.854737	-0.852265	0.513049
H120	H	0.861833	-0.891019	0.506534
H121	H	0.863480	-0.844595	0.563588
H122	H	0.913832	-0.494993	0.458934
N123	N	0.922986	-0.349597	0.967051
H124	H	0.893110	-0.370863	1.000151
H125	H	0.891848	-0.326291	0.935329
H126	H	0.905820	-0.361682	0.644516
H127	H	0.867077	-0.746033	0.501732
N128	N	0.518121	-0.350382	0.451814
H129	H	0.503220	-0.343291	0.501344
H130	H	0.505853	-0.386991	0.440404
N131	N	1.096015	-0.990621	0.291701
H132	H	1.127268	-0.969908	0.321591
H133	H	1.125601	-1.016321	0.264523
N134	N	0.901491	-0.601246	0.470246
H135	H	0.871859	-0.575583	0.497443
H136	H	0.870281	-0.621957	0.440312
H137	H	1.062994	-0.249897	0.784248
H138	H	0.735263	-0.223808	0.288209
N139	N	1.109507	-0.216891	0.974953
H140	H	1.136482	-0.197718	1.010461
H141	H	1.143214	-0.238348	0.945925
N142	N	1.103055	-0.221522	1.127140
H143	H	1.094049	-0.227949	1.178790
H144	H	1.153661	-0.230955	1.116436
H145	H	1.057085	-0.254146	0.870776
