data_functionalizedCrystal
_audit_creation_method	'MofGen! by Chris Wilmer'
_symmetry_space_group_name_H-M	'P1'
_symmetry_Int_Tables_number	1
_symmetry_cell_setting	triclinic
loop_
_symmetry_equiv_pos_as_xyz
  x,y,z
_cell_length_a	19.077105
_cell_length_b	25.639239
_cell_length_c	19.076919
_cell_angle_alpha	92.268407
_cell_angle_beta	90.076224
_cell_angle_gamma	87.734929
loop_
_atom_site_label
_atom_site_type_symbol
_atom_site_fract_x
_atom_site_fract_y
_atom_site_fract_z
Zn1	Zn	1.058187	-0.252939	-0.440398
Zn2	Zn	1.558187	0.247061	0.059602
Zn3	Zn	1.062799	-0.337004	-0.322884
Zn4	Zn	1.562799	0.162996	0.177116
Zn5	Zn	0.945407	-0.245935	-0.318192
Zn6	Zn	1.445407	0.254065	0.181808
Zn7	Zn	0.940620	-0.336689	-0.435637
Zn8	Zn	1.440620	0.163311	0.064363
O9	O	1.001753	-0.293142	-0.379278
O10	O	1.501753	0.206858	0.120722
O11	O	1.157129	-0.267153	-0.428766
O12	O	1.657129	0.232847	0.071234
O13	O	1.051160	-0.322124	-0.223931
O14	O	1.551160	0.177876	0.276069
O15	O	0.960440	-0.173702	-0.334431
O16	O	1.460440	0.326298	0.165569
O17	O	1.160518	-0.328916	-0.342429
O18	O	1.660518	0.171084	0.157571
O19	O	1.043299	-0.178848	-0.424215
O20	O	1.543299	0.321152	0.075785
O21	O	0.964912	-0.255216	-0.220483
O22	O	1.464912	0.244784	0.279517
O23	O	0.846441	-0.254910	-0.329815
O24	O	1.346441	0.245090	0.170185
O25	O	0.952283	-0.328378	-0.534600
O26	O	1.452283	0.171622	-0.034600
O27	O	0.842925	-0.321587	-0.416101
O28	O	1.342925	0.178413	0.083899
O29	O	1.038658	-0.266848	-0.538097
O30	O	1.538658	0.233152	-0.038097
O31	O	1.046519	-0.410124	-0.337813
O32	O	1.546519	0.089876	0.162187
O33	O	0.956755	-0.409893	-0.420652
O34	O	1.456755	0.090107	0.079348
C35	C	0.819187	-0.287455	-0.371933
C36	C	1.319187	0.212545	0.128067
C37	C	0.741083	-0.285035	-0.368807
C38	C	1.241083	0.214965	0.131193
C39	C	0.702581	-0.318661	-0.412193
C40	C	1.202581	0.181339	0.087807
C41	C	0.629194	-0.316381	-0.409259
C42	C	1.129194	0.183619	0.090741
C43	C	0.594312	-0.280476	-0.362936
C44	C	1.094312	0.219524	0.137064
C45	C	0.632820	-0.246846	-0.319549
C46	C	1.132820	0.253154	0.180451
C47	C	0.706205	-0.249125	-0.322486
C48	C	1.206205	0.250875	0.177514
C49	C	0.375028	-0.269932	-0.349344
C50	C	0.875028	0.230068	0.150656
C51	C	0.301638	-0.267658	-0.346409
C52	C	0.801638	0.232342	0.153591
C53	C	0.298017	-0.337192	-0.436121
C54	C	0.798017	0.162808	0.063879
C55	C	0.371404	-0.339469	-0.439051
C56	C	0.871404	0.160531	0.060949
C57	C	0.409905	-0.305837	-0.395666
C58	C	0.909905	0.194163	0.104334
N59	N	0.519299	-0.278146	-0.359935
N60	N	1.019299	0.221854	0.140065
N61	N	0.484917	-0.308166	-0.398671
N62	N	0.984917	0.191834	0.101329
C63	C	1.001636	-0.428980	-0.379241
C64	C	1.501636	0.071020	0.120759
C65	C	1.001650	-0.487094	-0.379251
C66	C	1.501650	0.012906	0.120749
C67	C	1.048607	-0.847575	-0.336225
C68	C	1.548607	-0.347575	0.163775
C69	C	1.048634	-0.902180	-0.336235
C70	C	1.548634	-0.402180	0.163765
O71	O	1.088438	-0.930513	-0.299613
O72	O	1.588438	-0.430513	0.200387
N73	N	1.001875	-0.929386	-0.379329
N74	N	1.501875	-0.429386	0.120671
C75	C	0.955090	-0.901983	-0.422421
C76	C	1.455090	-0.401983	0.077579
O77	O	0.915321	-0.930137	-0.459077
O78	O	1.415321	-0.430137	0.040923
C79	C	0.955067	-0.847379	-0.422413
C80	C	1.455067	-0.347379	0.077587
C81	C	1.001825	-0.820176	-0.379311
C82	C	1.501825	-0.320176	0.120689
C83	C	1.095362	-0.820372	-0.293127
C84	C	1.595362	-0.320372	0.206873
C85	C	1.095334	-0.765771	-0.293116
C86	C	1.595334	-0.265771	0.206884
C87	C	1.048551	-0.738372	-0.336202
C88	C	1.548551	-0.238372	0.163798
C89	C	1.001797	-0.765574	-0.379300
C90	C	1.501797	-0.265574	0.120700
C91	C	0.908287	-0.819977	-0.465508
C92	C	1.408287	-0.319977	0.034492
C93	C	0.908268	-0.765369	-0.465497
C94	C	1.408268	-0.265369	0.034503
C95	C	0.955026	-0.738167	-0.422395
C96	C	1.455026	-0.238167	0.077605
C97	C	0.954987	-0.683574	-0.422375
C98	C	1.454987	-0.183574	0.077625
N99	N	1.001746	-0.656368	-0.379282
N100	N	1.501746	-0.156368	0.120718
C101	C	1.048528	-0.683767	-0.336195
C102	C	1.548528	-0.183767	0.163805
C103	C	0.955143	-1.016656	-0.422434
C104	C	1.455143	-0.516656	0.077566
C105	C	0.955162	-1.071259	-0.422438
C106	C	1.455162	-0.571259	0.077562
C107	C	1.048707	-1.071452	-0.336253
C108	C	1.548707	-0.571452	0.163747
C109	C	1.048684	-1.016848	-0.336246
C110	C	1.548684	-0.516848	0.163754
C111	C	1.001902	-0.989450	-0.379340
C112	C	1.501902	-0.489450	0.120660
C113	C	1.048466	-0.569100	-0.336174
C114	C	1.548466	-0.069100	0.163826
C115	C	1.048432	-0.514493	-0.336164
C116	C	1.548432	-0.014493	0.163836
C117	C	0.954890	-0.514304	-0.422351
C118	C	1.454890	-0.014304	0.077649
C119	C	0.954921	-0.568906	-0.422359
C120	C	1.454921	-0.068906	0.077641
C121	C	1.001715	-0.596303	-0.379268
C122	C	1.501715	-0.096303	0.120732
O123	O	0.915205	-0.655207	-0.458982
O124	O	1.415205	-0.155207	0.041018
O125	O	1.088298	-0.655607	-0.299552
O126	O	1.588298	-0.155607	0.200448
C127	C	1.185032	-0.298851	-0.386652
C128	C	1.685032	0.201149	0.113348
C129	C	1.263135	-0.301284	-0.389794
C130	C	1.763135	0.198716	0.110206
C131	C	0.994422	-0.298359	-0.562557
C132	C	1.494422	0.201641	-0.062557
C133	C	0.991298	-0.300582	-0.640660
C134	C	1.491298	0.199418	-0.140660
C135	C	1.001889	-0.156774	-0.379331
C136	C	1.501889	0.343226	0.120669
C137	C	1.001947	-0.098662	-0.379354
C138	C	1.501947	0.401338	0.120646
C139	C	1.034799	-0.269593	-0.679175
C140	C	1.534799	0.230407	-0.179175
C141	C	1.031855	-0.271680	-0.752561
C142	C	1.531855	0.228320	-0.252561
C143	C	0.985413	-0.304759	-0.787430
C144	C	1.485413	0.195241	-0.287430
C145	C	0.941907	-0.335750	-0.748910
C146	C	1.441907	0.164250	-0.248910
C147	C	0.944848	-0.333660	-0.675526
C148	C	1.444848	0.166340	-0.175526
C149	C	0.971792	-0.314442	-1.006711
C150	C	1.471792	0.185558	-0.506711
C151	C	0.968856	-0.316531	-1.080100
C152	C	1.468856	0.183469	-0.580100
C153	C	1.058803	-0.252460	-1.083746
C154	C	1.558803	0.247540	-0.583746
C155	C	1.061742	-0.250375	-1.010361
C156	C	1.561742	0.249625	-0.510361
C157	C	1.018234	-0.281364	-0.971846
C158	C	1.518234	0.218636	-0.471846
N159	N	0.982404	-0.306894	-0.862442
N160	N	1.482404	0.193106	-0.362442
N161	N	1.021240	-0.279226	-0.896836
N162	N	1.521240	0.220774	-0.396836
C163	C	1.009096	-0.287908	-0.196713
C164	C	1.509096	0.212092	0.303287
C165	C	1.012356	-0.285541	-0.118616
C166	C	1.512356	0.214459	0.381384
H167	H	0.730976	-0.347900	-0.449912
H168	H	1.230976	0.152100	0.050088
N169	N	0.924877	-0.347862	-0.965160
N170	N	1.424877	0.152138	-0.465160
H171	H	0.893560	-0.324726	-0.933413
H172	H	1.393560	0.175274	-0.433413
H173	H	0.895051	-0.369135	-0.998420
H174	H	1.395051	0.130865	-0.498420
N175	N	1.105724	-0.219032	-1.125281
N176	N	1.605724	0.280968	-0.625281
H177	H	1.137048	-0.242158	-1.157033
H178	H	1.637048	0.257842	-0.657033
H179	H	1.075924	-0.194784	-1.154543
H180	H	1.575924	0.305216	-0.654543
H181	H	0.917081	-1.093402	-0.457529
H182	H	1.417081	-0.593402	0.042471
H183	H	1.086802	-1.093771	-0.301172
H184	H	1.586802	-0.593771	0.198828
H185	H	0.399800	-0.368707	-0.476771
H186	H	0.899800	0.131293	0.023229
N187	N	0.256485	-0.373458	-0.482914
N188	N	0.756485	0.126542	0.017086
H189	H	0.267266	-0.367222	-0.533652
H190	H	0.767266	0.132778	-0.033652
H191	H	0.269681	-0.410869	-0.472361
H192	H	0.769681	0.089131	0.027639
N193	N	0.747729	-0.212855	-0.275687
N194	N	1.247729	0.287145	0.224313
H195	H	0.779459	-0.234080	-0.244289
H196	H	1.279459	0.265920	0.255711
H197	H	0.777014	-0.190426	-0.305570
H198	H	1.277014	0.309574	0.194430
N199	N	1.145775	-0.736435	-0.246638
N200	N	1.645775	-0.236435	0.253362
H201	H	1.175416	-0.762085	-0.219352
H202	H	1.675416	-0.262085	0.280648
H203	H	1.177114	-0.715577	-0.276578
H204	H	1.677114	-0.215577	0.223422
H205	H	1.099562	-0.223440	-0.981975
H206	H	1.599562	0.276560	-0.481975
H207	H	0.273239	-0.238414	-0.308691
H208	H	0.773239	0.261586	0.191309
N209	N	1.145822	-0.849913	-0.246643
N210	N	1.645822	-0.349913	0.253357
H211	H	1.118605	-0.870781	-0.212909
H212	H	1.618605	-0.370781	0.287091
H213	H	1.177226	-0.874335	-0.276576
H214	H	1.677226	-0.374335	0.223424
H215	H	0.870208	-0.842116	-0.500603
H216	H	1.370208	-0.342116	-0.000603
N217	N	0.891808	-0.371417	-0.786526
N218	N	1.391808	0.128583	-0.286526
H219	H	0.919114	-0.397403	-0.818118
H220	H	1.419114	0.102597	-0.318118
H221	H	0.864699	-0.390696	-0.750953
H222	H	1.364699	0.109304	-0.250953
H223	H	0.406367	-0.242551	-0.314012
H224	H	0.906367	0.257449	0.185988
N225	N	0.904677	-0.987106	-0.468910
N226	N	1.404677	-0.487106	0.031090
H227	H	0.875061	-1.012630	-0.496207
H228	H	1.375061	-0.512630	0.003793
H229	H	0.873316	-0.962658	-0.438970
H230	H	1.373316	-0.462658	0.061030
N231	N	1.098931	-0.598638	-0.289688
N232	N	1.598931	-0.098638	0.210312
H233	H	1.071715	-0.619508	-0.255956
H234	H	1.571715	-0.119508	0.244044
H235	H	1.130337	-0.623057	-0.319622
H236	H	1.630337	-0.123057	0.180378
H237	H	0.909418	-0.358890	-0.644167
H238	H	1.409418	0.141110	-0.144167
N239	N	0.918762	-0.352203	-1.117726
N240	N	1.418762	0.147797	-0.617726
H241	H	0.930138	-0.389538	-1.105388
H242	H	1.430138	0.110462	-0.605388
H243	H	0.869094	-0.342107	-1.102931
H244	H	1.369094	0.157893	-0.602931
N245	N	0.587666	-0.352656	-0.456043
N246	N	1.087666	0.147344	0.043957
H247	H	0.620899	-0.375752	-0.485828
H248	H	1.120899	0.124248	0.014172
H249	H	0.558343	-0.375052	-0.426150
H250	H	1.058343	0.124948	0.073850
H251	H	0.604413	-0.217610	-0.281834
H252	H	1.104413	0.282390	0.218166
N253	N	0.857812	-0.735819	-0.511980
N254	N	1.357812	-0.235819	-0.011980
H255	H	0.828198	-0.761341	-0.539283
H256	H	1.328198	-0.261341	-0.039283
H257	H	0.826447	-0.711372	-0.482042
H258	H	1.326447	-0.211372	0.017958
N259	N	0.904484	-0.598250	-0.468837
N260	N	1.404484	-0.098250	0.031163
H261	H	0.874842	-0.572604	-0.496128
H262	H	1.374842	-0.072604	0.003872
H263	H	0.931772	-0.622686	-0.502536
H264	H	1.431772	-0.122686	-0.002536
H265	H	1.086507	-0.492346	-0.301063
H266	H	1.586507	0.007654	0.198937
N267	N	0.904434	-0.484742	-0.468816
N268	N	1.404434	0.015258	0.031184
H269	H	0.931656	-0.463871	-0.502541
H270	H	1.431656	0.036129	-0.002541
H271	H	0.874824	-0.510287	-0.496079
H272	H	1.374824	-0.010287	0.003921
N273	N	1.099117	-0.987510	-0.289761
N274	N	1.599117	-0.487510	0.210239
H275	H	1.128753	-1.013158	-0.262468
H276	H	1.628753	-0.513158	0.237532
H277	H	1.130460	-0.966651	-0.319694
H278	H	1.630460	-0.466651	0.180306
N279	N	1.084895	-0.233917	-0.641569
N280	N	1.584895	0.266083	-0.141569
H281	H	1.112004	-0.214602	-0.677107
H282	H	1.612004	0.285398	-0.177107
H283	H	1.057538	-0.207964	-0.609977
H284	H	1.557538	0.292036	-0.109977
H285	H	1.067280	-0.246446	-0.783917
H286	H	1.567280	0.253554	-0.283917
