data_functionalizedCrystal
_audit_creation_method	'MofGen! by Chris Wilmer'
_symmetry_space_group_name_H-M	'P1'
_symmetry_Int_Tables_number	1
_symmetry_cell_setting	triclinic
loop_
_symmetry_equiv_pos_as_xyz
  x,y,z
_cell_length_a	10.723024
_cell_length_b	9.130313
_cell_length_c	10.723024
_cell_angle_alpha	89.999893
_cell_angle_beta	84.467869
_cell_angle_gamma	89.999421
loop_
_atom_site_label
_atom_site_type_symbol
_atom_site_fract_x
_atom_site_fract_y
_atom_site_fract_z
O1	O	-1.657181	0.121807	-0.175022
O2	O	-1.157181	0.621807	0.324978
O3	O	-1.294029	0.121807	-0.191775
O4	O	-0.794029	0.621807	0.308225
O5	O	-1.483982	0.121802	-0.001822
O6	O	-0.983982	0.621802	0.498178
O7	O	-1.467229	0.121812	-0.364974
O8	O	-0.967229	0.621812	0.135026
O9	O	-1.483980	-0.121797	-0.001827
O10	O	-0.983980	0.378203	0.498173
O11	O	-1.294027	-0.121792	-0.191780
O12	O	-0.794027	0.378208	0.308220
O13	O	-1.657179	-0.121792	-0.175027
O14	O	-1.157179	0.378208	0.324973
Cu15	Cu	-1.475603	-0.144034	-0.183404
Cu16	Cu	-0.975603	0.355966	0.316596
Cu17	Cu	-1.475605	0.144050	-0.183398
Cu18	Cu	-0.975605	0.644050	0.316602
O19	O	-1.467226	-0.121786	-0.364980
O20	O	-0.967226	0.378214	0.135020
C21	C	-1.247528	0.000008	-0.190558
C22	C	-0.747528	0.500008	0.309442
C23	C	-1.108974	0.000008	-0.186911
C24	C	-0.608974	0.500008	0.313089
C25	C	-1.033991	0.000011	-0.293198
C26	C	-0.533991	0.500011	0.206802
C27	C	-0.890788	0.000011	-0.289431
C28	C	-0.390788	0.500011	0.210569
N29	N	-1.475610	-0.346657	-0.183407
N30	N	-0.975610	0.153343	0.316593
C31	C	-1.559743	-0.423311	-0.099325
C32	C	-1.059743	0.076689	0.400675
C33	C	-1.559739	-0.576648	-0.099310
C34	C	-1.059739	-0.076648	0.400690
C35	C	-1.391466	-0.576663	-0.267471
C36	C	-0.891466	-0.076663	0.232529
C37	C	-1.391465	-0.423329	-0.267479
C38	C	-0.891465	0.076671	0.232521
C39	C	-1.643888	-0.346640	-0.015254
C40	C	-1.143888	0.153360	0.484746
C41	C	-1.728029	-0.423294	0.068834
C42	C	-1.228029	0.076706	0.568834
C43	C	-1.728025	-0.576631	0.068849
C44	C	-1.228025	-0.076631	0.568849
C45	C	-1.643881	-0.653313	-0.015224
C46	C	-1.143881	-0.153313	0.484776
C47	C	-0.703680	0.000008	-0.176243
C48	C	-0.203680	0.500008	0.323757
C49	C	-0.842234	0.000008	-0.179891
C50	C	-0.342234	0.500008	0.320109
C51	C	-1.482762	0.000004	0.044675
C52	C	-0.982762	0.500004	0.544675
C53	C	-1.479114	0.000009	0.183229
C54	C	-0.979114	0.500009	0.683229
N55	N	-1.475608	0.346672	-0.183384
N56	N	-0.975608	0.846672	0.316616
C57	C	-1.468447	0.000015	-0.411477
C58	C	-0.968447	0.500015	0.088523
C59	C	-1.472094	0.000019	-0.550031
C60	C	-0.972094	0.500019	-0.050031
C61	C	-1.585401	0.000011	0.258212
C62	C	-1.085401	0.500011	0.758212
C63	C	-1.581634	0.000017	0.401415
C64	C	-1.081634	0.500017	0.901415
H65	H	-1.067152	0.000042	-0.093125
H66	H	-0.567152	0.500042	0.406875
H67	H	-1.672624	0.000012	0.465848
H68	H	-1.172624	0.500012	0.965848
H69	H	-1.385328	0.000019	0.225051
H70	H	-0.885328	0.500019	0.725051
H71	H	-1.679187	0.000002	0.216390
H72	H	-1.179187	0.500002	0.716390
Br73	Br	-1.277280	-0.680729	-0.381565
Br74	Br	-0.777280	-0.180729	0.118435
Br75	Br	-1.643904	-0.138540	-0.015279
Br76	Br	-1.143904	0.361460	0.484721
H77	H	-0.826355	0.000020	-0.380421
H78	H	-0.326355	0.500020	0.119579
H79	H	-1.796527	-0.639041	0.137325
H80	H	-1.296527	-0.139041	0.637325
Br81	Br	-1.320422	-0.000002	0.342592
Br82	Br	-0.820422	0.499998	0.842592
Br83	Br	-1.842204	-0.319232	0.182943
Br84	Br	-1.342204	0.180768	0.682943
Br85	Br	-1.103683	0.000007	-0.449524
Br86	Br	-0.603683	0.500007	0.050476
Br87	Br	-1.643868	-0.861415	-0.015184
Br88	Br	-1.143868	-0.361415	0.484816
Br89	Br	-1.277273	-0.319293	-0.381587
Br90	Br	-0.777273	0.180707	0.118413
H91	H	-0.906659	0.000014	-0.088896
H92	H	-0.406659	0.500014	0.411104
