data_functionalizedCrystal
_audit_creation_method	'MofGen! by Chris Wilmer'
_symmetry_space_group_name_H-M	'P1'
_symmetry_Int_Tables_number	1
_symmetry_cell_setting	triclinic
loop_
_symmetry_equiv_pos_as_xyz
  x,y,z
_cell_length_a	15.995350
_cell_length_b	15.995300
_cell_length_c	14.048226
_cell_angle_alpha	89.991953
_cell_angle_beta	90.002312
_cell_angle_gamma	96.517909
loop_
_atom_site_label
_atom_site_type_symbol
_atom_site_fract_x
_atom_site_fract_y
_atom_site_fract_z
O1	O	-0.107728	1.111014	-0.079187
O2	O	0.392272	1.611014	0.420813
O3	O	-0.121099	0.867233	-0.079180
O4	O	0.378901	1.367233	0.420820
O5	O	0.007475	0.995787	-0.079187
O6	O	0.507475	1.495787	0.420813
O7	O	-0.236302	0.982460	-0.079179
O8	O	0.263698	1.482460	0.420821
O9	O	0.007483	0.995772	0.079134
O10	O	0.507483	1.495772	0.579134
O11	O	-0.121092	0.867217	0.079141
O12	O	0.378908	1.367217	0.579141
O13	O	-0.107720	1.110999	0.079135
O14	O	0.392280	1.610999	0.579135
Zn15	Zn	-0.114405	0.989106	0.104275
Zn16	Zn	0.385595	1.489106	0.604275
Zn17	Zn	-0.114415	0.989126	-0.104320
Zn18	Zn	0.385585	1.489126	0.395680
O19	O	-0.236295	0.982444	0.079142
O20	O	0.263705	1.482444	0.579142
C21	C	-0.120550	0.836030	-0.000018
C22	C	0.379450	1.336030	0.499982
C23	C	-0.118915	0.743077	-0.000016
C24	C	0.381085	1.243077	0.499984
C25	C	-0.115896	0.572894	-0.000024
C26	C	0.384104	1.072894	0.499976
C27	C	-0.207443	0.525428	-0.000019
C28	C	0.292557	1.025428	0.499981
C29	C	-0.205773	0.428740	-0.000380
C30	C	0.294227	0.928740	0.499620
C31	C	-0.112924	0.405337	-0.000030
C32	C	0.387076	0.905337	0.499970
C33	C	-0.067508	0.446479	-0.090262
C34	C	0.432492	0.946479	0.409738
C35	C	-0.069825	0.543112	-0.090335
C36	C	0.430175	1.043112	0.409665
C37	C	-0.068461	0.543374	0.089712
C38	C	0.431539	1.043374	0.589712
C39	C	-0.068469	0.446429	0.090895
C40	C	0.431531	0.946429	0.590895
C41	C	-0.111239	0.310642	-0.000037
C42	C	0.388761	0.810642	0.499963
C43	C	-0.117577	0.667590	-0.000023
C44	C	0.382423	1.167590	0.499977
C45	C	-0.267493	0.983003	-0.000018
C46	C	0.232507	1.483003	0.499982
C47	C	-0.360443	0.984655	-0.000015
C48	C	0.139557	1.484655	0.499985
C49	C	-0.698190	0.990587	-0.000030
C50	C	-0.198190	1.490587	0.499970
C51	C	-0.650739	1.082141	-0.000386
C52	C	-0.150739	1.582141	0.499614
C53	C	-0.554049	1.080489	-0.000024
C54	C	-0.054049	1.580489	0.499976
C55	C	-0.530630	0.987644	-0.000023
C56	C	-0.030630	1.487644	0.499977
C57	C	-0.571716	0.942478	0.090384
C58	C	-0.071716	1.442478	0.590384
C59	C	-0.668352	0.944778	0.090454
C60	C	-0.168352	1.444778	0.590454
C61	C	-0.668708	0.942904	-0.089587
C62	C	-0.168708	1.442904	0.410413
C63	C	-0.571763	0.942926	-0.090776
C64	C	-0.071763	1.442926	0.409224
C65	C	-0.435933	0.985977	-0.000016
C66	C	0.064067	1.485977	0.499984
C67	C	-0.792887	0.992252	-0.000031
C68	C	-0.292887	1.492252	0.499969
C69	C	0.038674	0.995229	-0.000029
C70	C	0.538674	1.495229	0.499971
C71	C	0.131624	0.993577	-0.000038
C72	C	0.631624	1.493577	0.499962
C73	C	-0.108269	1.142202	-0.000029
C74	C	0.391731	1.642202	0.499971
C75	C	-0.109904	1.235154	-0.000037
C76	C	0.390096	1.735154	0.499963
N77	N	-0.114397	0.989098	0.246636
N78	N	0.385603	1.489098	0.746636
N79	N	-0.114415	0.989140	-0.246681
N80	N	0.385585	1.489140	0.253319
C81	C	-0.057488	1.046040	0.296450
C82	C	0.442512	1.546040	0.796450
C83	C	-0.057488	1.046045	0.396108
C84	C	0.442512	1.546045	0.896108
C85	C	-0.114401	0.989112	0.445949
C86	C	0.385599	1.489112	0.945949
C87	C	-0.171313	0.932165	0.396127
C88	C	0.328687	1.432165	0.896127
C89	C	-0.171309	0.932156	0.296472
C90	C	0.328691	1.432156	0.796472
C91	C	-0.171319	0.932189	0.603842
C92	C	0.328681	1.432189	1.103842
C93	C	-0.171325	0.932199	0.703504
C94	C	0.328675	1.432199	1.203504
C95	C	-0.057498	1.046078	0.703478
C96	C	0.442502	1.546078	1.203478
C97	C	-0.057494	1.046069	0.603822
C98	C	0.442506	1.546069	1.103822
C99	C	-0.114407	0.989122	0.554007
C100	C	0.385593	1.489122	1.054007
H101	H	-0.241459	0.400271	0.064287
H102	H	0.258541	0.900271	0.564287
H103	H	-0.000964	0.575155	0.090577
H104	H	0.499036	1.075155	0.590577
C105	C	0.005137	1.108666	0.450900
C106	C	0.505137	1.608666	0.950900
N107	N	0.052317	1.155827	0.492168
N108	N	0.552317	1.655827	0.992168
H109	H	0.000716	0.432380	-0.093366
H110	H	0.500716	0.932380	0.406634
H111	H	-0.217649	0.885787	0.255913
H112	H	0.282351	1.385787	0.755913
H113	H	-0.670404	1.118599	0.064021
H114	H	-0.170404	1.618599	0.564021
H115	H	-0.011157	1.092446	0.744043
H116	H	0.488843	1.592446	1.244043
C117	C	-0.675833	1.131619	-0.087922
C118	C	-0.175833	1.631619	0.412078
N119	N	-0.694764	1.168896	-0.153838
N120	N	-0.194764	1.668896	0.346162
H121	H	-0.217650	0.885805	0.436714
H122	H	0.282350	1.385805	0.936714
C123	C	-0.233928	0.869565	0.758328
C124	C	0.266072	1.369565	1.258328
N125	N	-0.281080	0.822387	0.799620
N126	N	0.218920	1.322387	1.299620
C127	C	-0.233919	0.869535	0.549048
C128	C	0.266081	1.369535	1.049048
N129	N	-0.281067	0.822345	0.507777
N130	N	0.218933	1.322345	1.007777
C131	C	-0.515638	1.128475	-0.087560
C132	C	-0.015638	1.628475	0.412440
N133	N	-0.486709	1.164631	-0.153488
N134	N	0.013291	1.664631	0.346512
H135	H	-0.000775	0.431091	0.096608
H136	H	0.499225	0.931091	0.596608
H137	H	-0.243689	0.545043	-0.064626
H138	H	0.256311	1.045043	0.435374
H139	H	-0.241312	0.400899	-0.065438
H140	H	0.258688	0.900899	0.434562
H141	H	-0.686648	0.977702	0.158035
H142	H	-0.186648	1.477702	0.658035
C143	C	-0.257144	0.550396	0.087386
C144	C	0.242856	1.050396	0.587386
N145	N	-0.294578	0.569206	0.153223
N146	N	0.205422	1.069206	0.653223
H147	H	-0.700468	0.875397	-0.090186
H148	H	-0.200468	1.375397	0.409814
C149	C	-0.114044	0.567873	-0.181804
C150	C	0.385956	1.067873	0.318196
N151	N	-0.147350	0.586518	-0.250701
N152	N	0.352650	1.086518	0.249299
H153	H	-0.098650	0.418100	-0.157664
H154	H	0.401350	0.918100	0.342336
C155	C	0.020990	0.586714	-0.095550
C156	C	0.520990	1.086714	0.404450
N157	N	0.089391	0.619552	-0.099486
N158	N	0.589391	1.119552	0.400514
H159	H	-0.011146	1.092404	0.255876
H160	H	0.488854	1.592404	0.755876
C161	C	-0.109178	0.571054	0.182135
C162	C	0.390822	1.071054	0.682135
N163	N	-0.139856	0.591901	0.251744
N164	N	0.360144	1.091901	0.751744
C165	C	-0.113266	0.409480	0.181081
C166	C	0.386734	0.909480	0.681081
N167	N	-0.147008	0.381642	0.249007
N168	N	0.352992	0.881642	0.749007
C169	C	-0.516395	1.128746	0.087687
C170	C	-0.016395	1.628746	0.587687
N171	N	-0.488036	1.165090	0.153759
N172	N	0.011964	1.665090	0.653759
H173	H	-0.700612	0.877560	0.094565
H174	H	-0.200612	1.377560	0.594565
H175	H	-0.011155	1.092432	0.563242
H176	H	0.488845	1.592432	1.063242
H177	H	-0.689246	0.972841	-0.158112
H178	H	-0.189246	1.472841	0.341888
C179	C	-0.552666	0.850322	0.094919
C180	C	-0.052666	1.350322	0.594919
N181	N	-0.538322	0.780909	0.098329
N182	N	-0.038322	1.280909	0.598329
H183	H	-0.543338	0.973843	0.157665
H184	H	-0.043338	1.473843	0.657665
H185	H	-0.544457	0.975906	-0.157659
H186	H	-0.044457	1.475906	0.342341
H187	H	-0.556409	0.875222	-0.096238
H188	H	-0.056409	1.375222	0.403762
