data_functionalizedCrystal
_audit_creation_method	'MofGen! by Chris Wilmer'
_symmetry_space_group_name_H-M	'P1'
_symmetry_Int_Tables_number	1
_symmetry_cell_setting	triclinic
loop_
_symmetry_equiv_pos_as_xyz
  x,y,z
_cell_length_a	27.731993
_cell_length_b	10.654550
_cell_length_c	9.730223
_cell_angle_alpha	90.004253
_cell_angle_beta	90.008251
_cell_angle_gamma	96.447338
loop_
_atom_site_label
_atom_site_type_symbol
_atom_site_fract_x
_atom_site_fract_y
_atom_site_fract_z
O1	O	0.641872	-0.149089	-0.113920
O2	O	0.501217	-0.171880	-0.114004
O3	O	0.574778	0.022392	-0.113951
O4	O	0.568311	-0.343361	-0.113972
O5	O	0.574774	0.022397	0.114629
O6	O	0.501212	-0.171875	0.114576
O7	O	0.641867	-0.149084	0.114660
Zn8	Zn	0.571539	-0.160479	0.150910
Zn9	Zn	0.571545	-0.160485	-0.150254
O10	O	0.568306	-0.343356	0.114608
C11	C	0.483204	-0.171410	0.000276
C12	C	0.429539	-0.170001	0.000244
C13	C	0.046318	-0.159793	-0.124288
C14	C	0.248009	-0.165162	-0.124325
O15	O	0.274088	-0.165809	-0.230294
N16	N	0.273231	-0.165831	0.000271
C17	C	0.248027	-0.165150	0.124885
O18	O	0.274108	-0.165829	0.230861
C19	C	0.046338	-0.159771	0.124921
C20	C	0.021118	-0.159115	0.000317
C21	C	0.021098	-0.159135	-0.248882
C22	C	-0.029322	-0.157800	-0.248871
C23	C	-0.054522	-0.157122	-0.124266
C24	C	-0.029302	-0.157779	0.000328
C25	C	0.021135	-0.159080	0.249534
C26	C	-0.029290	-0.157732	0.249532
C27	C	-0.054510	-0.157076	0.124928
C28	C	-0.104923	-0.155766	0.124943
N29	N	-0.130144	-0.155097	0.000347
C30	C	-0.104944	-0.155775	-0.124258
C31	C	0.353917	-0.167976	0.124857
C32	C	0.404339	-0.169323	0.124849
C33	C	0.404317	-0.169333	-0.124362
C34	C	0.353894	-0.167995	-0.124352
C35	C	0.328695	-0.167307	0.000261
C36	C	-0.210830	-0.152971	-0.124226
C37	C	-0.261255	-0.151641	-0.124204
C38	C	-0.261228	-0.151624	0.125006
C39	C	-0.210808	-0.152961	0.124985
C40	C	-0.185610	-0.153630	0.000358
O41	O	-0.131032	-0.155105	0.230857
O42	O	-0.131033	-0.155067	-0.230218
C43	C	0.096738	-0.161128	-0.124298
C44	C	0.121958	-0.161786	0.000296
C45	C	0.096758	-0.161108	0.124900
C46	C	0.172380	-0.163133	0.000287
C47	C	0.197580	-0.163811	-0.124318
C48	C	0.172358	-0.163141	-0.248914
C49	C	0.121938	-0.161806	-0.248903
C50	C	0.121979	-0.161777	0.249496
C51	C	0.172399	-0.163114	0.249476
C52	C	0.197600	-0.163792	0.124871
C53	C	0.574301	0.069173	0.000338
C54	C	0.572880	0.208555	0.000335
C55	C	0.659880	-0.149555	0.000378
C56	C	0.713545	-0.150963	0.000400
C57	C	0.568783	-0.390137	0.000316
C58	C	0.570204	-0.529519	0.000310
N59	N	0.571538	-0.160473	0.356447
C60	C	0.616192	0.289884	0.000360
C61	C	0.614854	0.420848	0.000343
C62	C	0.526889	0.389142	0.000280
C63	C	0.528227	0.258180	0.000288
N64	N	0.571550	-0.160481	-0.355790
C65	C	0.604122	-0.074485	0.428396
C66	C	0.604127	-0.074485	0.572279
C67	C	0.538962	-0.246473	0.572251
C68	C	0.538955	-0.246466	0.428370
H69	H	-0.281787	-0.151110	-0.225676
C70	C	0.639959	0.020114	0.349279
C71	C	0.639956	0.020128	0.191016
C72	C	0.675792	0.114733	0.111904
C73	C	0.711632	0.209323	0.191055
C74	C	0.711637	0.209312	0.349327
C75	C	0.675800	0.114707	0.428439
H76	H	0.613424	-0.049896	0.132416
H77	H	0.675789	0.114741	-0.005259
H78	H	0.738160	0.279355	0.132492
H79	H	0.738168	0.279336	0.407927
H80	H	0.675804	0.114699	0.545602
C81	C	0.326203	-0.167232	0.261946
C82	C	0.286414	-0.275389	0.296231
C83	C	0.258703	-0.274652	0.433321
C84	C	0.270781	-0.165758	0.536126
C85	C	0.310572	-0.057592	0.501844
C86	C	0.338283	-0.058329	0.364754
H87	H	0.277471	-0.356006	0.220126
H88	H	0.229247	-0.354724	0.458699
H89	H	0.250268	-0.165212	0.637608
H90	H	0.319515	0.023025	0.577948
H91	H	0.367739	0.021743	0.339376
C92	C	0.432043	-0.170066	-0.261432
C93	C	0.471833	-0.061898	-0.295671
C94	C	0.499562	-0.062618	-0.432733
C95	C	0.487500	-0.171505	-0.535556
C96	C	0.447708	-0.279681	-0.501320
C97	C	0.419980	-0.278962	-0.364258
H98	H	0.480764	0.018714	-0.219553
H99	H	0.529019	0.017462	-0.458077
H100	H	0.508027	-0.172038	-0.637018
H101	H	0.438778	-0.360294	-0.577438
H102	H	0.390523	-0.359041	-0.338914
H103	H	0.041661	-0.159611	0.351000
H104	H	0.652552	0.249484	0.000395
C105	C	0.662499	0.510308	0.000375
C106	C	0.698961	0.505395	0.119103
C107	C	0.746608	0.594855	0.119133
C108	C	0.757792	0.689228	0.000436
C109	C	0.721328	0.694145	-0.118301
C110	C	0.673682	0.604685	-0.118331
H111	H	0.690683	0.435530	0.206978
H112	H	0.773601	0.591214	0.207030
H113	H	0.793063	0.755452	0.000458
H114	H	0.729607	0.764010	-0.206175
H115	H	0.646689	0.608326	-0.206228
C116	C	0.477773	0.443738	0.000235
C117	C	0.464752	0.529423	0.118916
C118	C	0.415635	0.584018	0.118871
C119	C	0.379540	0.552929	0.000146
C120	C	0.392561	0.467240	-0.118544
C121	C	0.441677	0.412644	-0.118499
H122	H	0.491472	0.552441	0.206812
H123	H	0.405997	0.647451	0.206734
H124	H	0.343182	0.593343	0.000113
H125	H	0.365840	0.444221	-0.206439
H126	H	0.451316	0.349212	-0.206362
C127	C	0.480581	0.168709	0.000264
C128	C	0.444115	0.173624	-0.118455
C129	C	0.396470	0.084153	-0.118485
C130	C	0.385292	-0.010232	0.000204
C131	C	0.421759	-0.015150	0.118932
C132	C	0.469403	0.074320	0.118962
H133	H	0.452388	0.243497	-0.206324
H134	H	0.369475	0.087795	-0.206376
H135	H	0.350023	-0.076463	0.000182
H136	H	0.413485	-0.085023	0.206801
H137	H	0.496399	0.070679	0.206853
H138	H	-0.190320	-0.153518	-0.225709
H139	H	0.512419	-0.316488	0.369785
H140	H	0.630660	-0.004465	0.630856
H141	H	-0.049805	-0.157183	0.351010
C142	C	-0.183057	-0.153737	0.262034
C143	C	-0.195109	-0.262661	0.364791
C144	C	-0.167358	-0.263443	0.501835
C145	C	-0.127557	-0.155302	0.536122
C146	C	-0.115504	-0.046371	0.433363
C147	C	-0.143254	-0.045588	0.296318
H148	H	-0.224574	-0.342721	0.339412
H149	H	-0.176281	-0.344083	0.577904
H150	H	-0.107015	-0.155882	0.637571
H151	H	-0.086039	0.033689	0.458742
H152	H	-0.134332	0.035051	0.220249
C153	C	-0.288956	-0.150873	0.262064
C154	C	-0.328750	-0.259024	0.296332
C155	C	-0.356479	-0.258261	0.433390
C156	C	-0.344414	-0.149349	0.536180
C157	C	-0.304618	-0.041190	0.501915
C158	C	-0.276889	-0.041952	0.364857
H159	H	-0.337682	-0.339655	0.220239
H160	H	-0.385938	-0.338328	0.458755
H161	H	-0.364940	-0.148784	0.637639
H162	H	-0.295685	0.039441	0.578009
H163	H	-0.247430	0.038114	0.339492
H164	H	-0.049851	-0.157259	-0.350337
H165	H	0.424868	-0.169878	0.226314
H166	H	0.041611	-0.159683	-0.350356
H167	H	0.101409	-0.161272	-0.350369
H168	H	0.333363	-0.167461	-0.225816
H169	H	0.192885	-0.163701	-0.350371
H170	H	0.192929	-0.163659	0.350951
H171	H	0.101467	-0.161219	0.350967
H172	H	0.512434	-0.316488	0.630825
