data_functionalizedCrystal
_audit_creation_method	'MofGen! by Chris Wilmer'
_symmetry_space_group_name_H-M	'P1'
_symmetry_Int_Tables_number	1
_symmetry_cell_setting	triclinic
loop_
_symmetry_equiv_pos_as_xyz
  x,y,z
_cell_length_a	10.654550
_cell_length_b	14.853567
_cell_length_c	9.130313
_cell_angle_alpha	89.999276
_cell_angle_beta	89.999724
_cell_angle_gamma	84.059930
loop_
_atom_site_label
_atom_site_type_symbol
_atom_site_fract_x
_atom_site_fract_y
_atom_site_fract_z
O1	O	1.666524	0.126626	-0.121676
O2	O	1.300920	0.138690	-0.121702
O3	O	1.493488	0.001481	-0.121693
O4	O	1.473956	0.263836	-0.121686
O5	O	1.493475	0.001477	0.121906
O6	O	1.300907	0.138686	0.121897
O7	O	1.666511	0.126622	0.121922
Cu8	Cu	1.483708	0.132654	0.144152
Cu9	Cu	1.483723	0.132658	-0.143932
O10	O	1.473943	0.263832	0.121913
C11	C	1.254125	0.137802	0.000094
C12	C	1.114709	0.135152	0.000084
C13	C	1.034384	0.215939	0.000090
C14	C	0.903389	0.213443	0.000115
C15	C	0.933057	0.049367	0.000122
C16	C	1.064049	0.051864	0.000107
C17	C	1.492596	-0.032115	0.000102
C18	C	1.489944	-0.132213	0.000089
C19	C	1.364344	-0.545419	0.000108
C20	C	1.593119	-0.565475	0.000124
C21	C	1.595613	-0.471428	0.000116
C22	C	1.482470	-0.414372	0.000106
C23	C	1.366834	-0.451363	0.000104
C24	C	1.711247	-0.434430	0.000132
C25	C	1.713745	-0.340378	0.000125
C26	C	1.600601	-0.283320	0.000105
C27	C	1.484961	-0.320316	0.000102
C28	C	1.371818	-0.263260	0.000092
C29	C	1.256176	-0.300254	0.000078
C30	C	1.253691	-0.394305	0.000084
C31	C	1.603087	-0.189269	0.000099
C32	C	1.374308	-0.169204	0.000088
C33	C	1.713306	0.127510	0.000123
C34	C	1.852722	0.130160	0.000124
C35	C	1.474835	0.297427	0.000115
C36	C	1.477487	0.397525	0.000118
N37	N	1.483706	0.132650	0.346775
N38	N	1.483735	0.132655	-0.346554
C39	C	1.569003	0.071919	0.423431
C40	C	1.569015	0.071919	0.576767
C41	C	1.398428	0.193389	0.576779
C42	C	1.398411	0.193383	0.423445
H43	H	1.129454	-0.013927	0.000106
H44	H	1.328985	0.242838	0.639219
H45	H	0.891793	-0.018444	0.000150
N46	N	1.306395	0.258887	0.340766
H47	H	1.320960	0.322974	0.367433
H48	H	1.319366	0.249587	0.232022
N49	N	1.661032	0.006430	0.659448
H50	H	1.715065	-0.032038	0.587606
H51	H	1.716599	0.041335	0.723044
N52	N	1.089028	0.305767	0.000064
H53	H	1.018260	0.356565	0.000073
H54	H	1.142741	0.310378	0.090360
N55	N	0.816752	0.300577	0.000204
H56	H	0.868726	0.353715	0.000213
H57	H	0.761712	0.303147	-0.090066
H58	H	1.164056	-0.253787	0.000080
N59	N	1.252274	-0.107666	0.000064
H60	H	1.178645	-0.145376	0.000055
H61	H	1.248314	-0.068208	0.090370
N62	N	1.128972	-0.434205	0.000075
H63	H	1.144566	-0.502443	0.000088
H64	H	1.079454	-0.413382	0.090377
N65	N	1.833269	-0.495968	0.000126
H66	H	1.906903	-0.458263	0.000134
H67	H	1.837214	-0.535432	0.090426
N68	N	1.239620	-0.585312	0.000086
H69	H	1.255204	-0.653550	0.000086
H70	H	1.190100	-0.564492	0.090388
H71	H	1.685234	-0.611935	0.000144
H72	H	1.807907	-0.310265	0.000134
H73	H	1.697240	-0.159152	0.000120
N74	N	1.660993	0.006416	0.340733
H75	H	1.715028	-0.032057	0.412567
H76	H	1.612846	-0.033765	0.277125
