data_functionalizedCrystal
_audit_creation_method	'MofGen! by Chris Wilmer'
_symmetry_space_group_name_H-M	'P1'
_symmetry_Int_Tables_number	1
_symmetry_cell_setting	triclinic
loop_
_symmetry_equiv_pos_as_xyz
  x,y,z
_cell_length_a	13.032831
_cell_length_b	18.050589
_cell_length_c	13.032268
_cell_angle_alpha	82.850583
_cell_angle_beta	89.113023
_cell_angle_gamma	82.833186
loop_
_atom_site_label
_atom_site_type_symbol
_atom_site_fract_x
_atom_site_fract_y
_atom_site_fract_z
Zn1	Zn	1.498351	-0.501530	0.780835
Zn2	Zn	1.520065	-0.612177	0.608855
Zn3	Zn	1.348217	-0.470507	0.587076
Zn4	Zn	1.326314	-0.608161	0.758980
O5	O	1.423237	-0.548094	0.683937
O6	O	1.645148	-0.530872	0.776283
O7	O	1.515523	-0.582081	0.462049
O8	O	1.368212	-0.370708	0.612810
O9	O	1.661101	-0.612163	0.649930
O10	O	1.478515	-0.393501	0.755164
O11	O	1.389267	-0.477997	0.446048
O12	O	1.201395	-0.474104	0.591619
O13	O	1.330881	-0.605320	0.905796
O14	O	1.185303	-0.575238	0.717916
O15	O	1.457276	-0.526978	0.921853
O16	O	1.494284	-0.715559	0.628738
O17	O	1.351936	-0.712609	0.739034
C18	C	1.156033	-0.520869	0.650033
C19	C	1.041718	-0.509242	0.635553
C20	C	0.982831	-0.554162	0.691494
C21	C	0.864681	-0.542146	0.676530
C22	C	1.423115	-0.741032	0.683904
C23	C	1.423152	-0.823584	0.683936
C24	C	1.345814	-1.021463	0.743900
C25	C	1.332669	-1.060964	0.646879
C26	C	1.423252	-0.974726	0.683962
C27	C	1.436446	-1.082312	0.781001
C28	C	1.423345	-1.120722	0.683996
C29	C	1.410063	-1.013131	0.586886
C30	C	1.513876	-1.034484	0.721076
C31	C	1.500775	-1.073962	0.623995
C32	C	1.423195	-0.890621	0.683944
C33	C	1.423402	-1.204825	0.684003
C34	C	1.691484	-0.575426	0.717973
C35	C	1.805795	-0.587073	0.732478
C36	C	1.389213	-0.569162	0.952184
C37	C	1.374714	-0.578139	1.066495
C38	C	1.423384	-0.354407	0.683996
C39	C	1.423447	-0.271869	0.684021
C40	C	1.457187	-0.527061	0.416741
C41	C	1.471885	-0.517894	0.302456
C42	C	1.430788	-0.543380	1.125403
C43	C	1.415804	-0.552658	1.243549
H44	H	1.256073	-1.072993	0.615515
C45	C	1.395063	-0.973024	0.477513
C46	C	1.395118	-0.895581	0.478782
C47	C	1.381285	-0.858608	0.378053
H48	H	1.449772	-0.991312	0.434777
H49	H	1.330916	-0.982178	0.451065
H50	H	1.459258	-0.886432	0.505216
H51	H	1.340411	-0.877272	0.521497
H52	H	1.317137	-0.867762	0.351605
H53	H	1.435996	-0.876902	0.335325
H54	H	1.381311	-0.806059	0.378901
H55	H	1.489884	-0.506750	1.088368
H56	H	1.004664	-0.461885	0.576587
H57	H	1.566310	-1.096823	0.573255
H58	H	1.590448	-1.022459	0.752483
H59	H	1.019885	-0.601514	0.750468
C60	C	0.854985	-0.650240	0.811206
C61	C	0.777755	-0.689340	0.859930
C62	C	0.823028	-0.747526	0.932467
H63	H	0.901860	-0.683762	0.777171
H64	H	0.891195	-0.629658	0.861410
H65	H	0.741561	-0.709922	0.809733
H66	H	0.730874	-0.655839	0.893985
H67	H	0.859238	-0.726945	0.982671
H68	H	0.869903	-0.781043	0.898424
H69	H	0.770634	-0.774059	0.965542
C70	C	1.451134	-1.122281	0.890477
C71	C	1.369811	-1.095557	0.952861
C72	C	1.383306	-1.132348	1.053720
H73	H	1.451660	-1.174885	0.889769
H74	H	1.514926	-1.112749	0.917294
H75	H	1.306036	-1.105096	0.926051
H76	H	1.369271	-1.042959	0.953601
H77	H	1.447097	-1.122816	1.080537
H78	H	1.383833	-1.184950	1.053000
H79	H	1.328137	-1.114217	1.096062
C80	C	0.815101	-0.479073	0.597894
C81	C	0.707776	-0.479715	0.598651
C82	C	0.662070	-0.421634	0.526213
H83	H	0.830640	-0.432105	0.615177
H84	H	0.841353	-0.486216	0.530948
H85	H	0.681533	-0.472565	0.665582
H86	H	0.692208	-0.526669	0.581357
H87	H	0.688321	-0.428778	0.459267
H88	H	0.677616	-0.374670	0.543503
H89	H	0.589246	-0.422066	0.526710
H90	H	1.280253	-0.998449	0.794494
C91	C	1.337087	-0.601503	1.293114
C92	C	1.337902	-0.601018	1.400447
C93	C	1.265415	-0.646013	1.446142
H94	H	1.270146	-0.582283	1.266915
H95	H	1.354319	-0.651583	1.277514
H96	H	1.320663	-0.550948	1.416039
H97	H	1.404825	-0.620244	1.426675
H98	H	1.282648	-0.696093	1.430542
H99	H	1.198479	-0.626789	1.419936
H100	H	1.265965	-0.645695	1.518973
H101	H	1.530984	-0.481259	1.265427
C102	C	1.295984	-0.627098	1.115738
C103	C	1.321592	-0.700815	1.092478
C104	C	1.249080	-0.745936	1.137807
H105	H	1.296318	-0.626939	1.188592
H106	H	1.229088	-0.607863	1.089393
H107	H	1.388470	-0.720045	1.118828
H108	H	1.321251	-0.700997	1.019633
H109	H	1.182184	-0.726701	1.111462
H110	H	1.249419	-0.745771	1.210659
H111	H	1.266439	-0.795956	1.122024
