data_functionalizedCrystal
_audit_creation_method	'MofGen! by Chris Wilmer'
_symmetry_space_group_name_H-M	'P1'
_symmetry_Int_Tables_number	1
_symmetry_cell_setting	triclinic
loop_
_symmetry_equiv_pos_as_xyz
  x,y,z
_cell_length_a	10.654583
_cell_length_b	10.654550
_cell_length_c	9.130313
_cell_angle_alpha	90.001966
_cell_angle_beta	89.991231
_cell_angle_gamma	84.491717
loop_
_atom_site_label
_atom_site_type_symbol
_atom_site_fract_x
_atom_site_fract_y
_atom_site_fract_z
O1	O	-1.667815	-0.176588	0.121989
O2	O	-1.302342	-0.193350	0.121949
O3	O	-1.493482	-0.002231	0.121965
O4	O	-1.476676	-0.367707	0.121974
O5	O	-1.493468	-0.002245	-0.121634
O6	O	-1.302329	-0.193364	-0.121650
O7	O	-1.667802	-0.176602	-0.121610
Cu8	Cu	-1.485064	-0.184984	-0.143872
Cu9	Cu	-1.485080	-0.184968	0.144212
O10	O	-1.476662	-0.367721	-0.121625
C11	C	-1.255538	-0.192118	0.000145
C12	C	-1.116097	-0.188409	0.000129
C13	C	-1.050559	-0.186687	-0.132649
C14	C	-0.919538	-0.183212	-0.132632
C15	C	-0.919603	-0.183188	0.132953
C16	C	-1.050623	-0.186653	0.132935
C17	C	-1.050520	-0.186706	-0.285982
C18	C	-0.919499	-0.183232	-0.285966
C19	C	-1.492241	0.044560	0.000167
C20	C	-1.488549	0.184004	0.000172
C21	C	-0.714608	-0.177816	0.000183
C22	C	-0.854056	-0.181469	0.000164
C23	C	-1.477903	-0.414512	0.000176
C24	C	-1.481595	-0.553956	0.000181
N25	N	-1.485062	-0.184995	-0.346495
C26	C	-1.601089	0.263476	0.000179
C27	C	-1.597612	0.394497	0.000189
C28	C	-1.369046	0.366561	0.000177
C29	C	-1.372524	0.235543	0.000178
C30	C	-1.733050	0.279606	0.000180
C31	C	-1.729573	0.410627	0.000190
C32	C	-1.408256	-0.108072	-0.576507
C33	C	-1.408244	-0.108092	-0.423171
C34	C	-1.561906	-0.261873	-0.423164
C35	C	-1.561924	-0.261846	-0.576498
C36	C	-1.319537	-0.019292	-0.576510
C37	C	-1.319525	-0.019312	-0.423173
N38	N	-1.485092	-0.184947	0.346834
H39	H	-0.889909	-0.091638	-0.333549
N40	N	-1.644856	-0.344724	-0.659146
H41	H	-1.620910	-0.435883	-0.632499
H42	H	-1.633211	-0.332942	-0.767896
N43	N	-0.858179	-0.298207	-0.363920
H44	H	-0.799334	-0.348664	-0.294430
H45	H	-0.808871	-0.270864	-0.450845
N46	N	-1.360530	0.111890	-0.631596
H47	H	-1.300223	0.172325	-0.594755
H48	H	-1.448296	0.139156	-0.594704
H49	H	-1.624461	-0.324481	-0.360723
H50	H	-1.080092	-0.278307	-0.333555
H51	H	-1.769460	0.456271	0.105373
H52	H	-1.775065	0.243968	-0.104997
N53	N	-1.188322	-0.060206	-0.368087
H54	H	-1.188260	-0.060230	-0.257467
H55	H	-1.128018	0.000187	-0.405040
H56	H	-1.103981	-0.188036	0.241055
H57	H	-1.280883	0.170840	0.000192
H58	H	-1.224962	-0.058745	-0.624110
N59	N	-1.795420	0.465943	-0.134831
H60	H	-1.827304	0.396123	-0.195097
H61	H	-1.734167	0.511175	-0.194974
N62	N	-1.371873	0.105929	-0.360112
H63	H	-1.397172	0.166460	-0.442422
H64	H	-1.305379	0.141437	-0.297825
H65	H	-0.866278	-0.181758	0.241078
H66	H	-1.096776	-0.099919	-0.344865
H67	H	-1.274583	0.408541	0.000184
H68	H	-1.784670	0.250248	0.102124
