data_functionalizedCrystal
_audit_creation_method	'MofGen! by Chris Wilmer'
_symmetry_space_group_name_H-M	'P1'
_symmetry_Int_Tables_number	1
_symmetry_cell_setting	triclinic
loop_
_symmetry_equiv_pos_as_xyz
  x,y,z
_cell_length_a	19.121241
_cell_length_b	29.839131
_cell_length_c	19.120904
_cell_angle_alpha	87.590850
_cell_angle_beta	90.124528
_cell_angle_gamma	92.475545
loop_
_atom_site_label
_atom_site_type_symbol
_atom_site_fract_x
_atom_site_fract_y
_atom_site_fract_z
Zn1	Zn	1.054797	-0.162207	0.442177
Zn2	Zn	1.388130	0.171127	0.775510
Zn3	Zn	1.721463	0.504460	1.108844
Zn4	Zn	1.059685	-0.234002	0.324933
Zn5	Zn	1.393018	0.099331	0.658266
Zn6	Zn	1.726351	0.432665	0.991599
Zn7	Zn	0.942563	-0.161940	0.319947
Zn8	Zn	1.275897	0.171393	0.653280
Zn9	Zn	1.609230	0.504727	0.986614
Zn10	Zn	0.937491	-0.240367	0.437119
Zn11	Zn	1.270824	0.092967	0.770452
Zn12	Zn	1.604157	0.426300	1.103785
O13	O	0.998634	-0.199629	0.381044
O14	O	1.331967	0.133705	0.714377
O15	O	1.665301	0.467038	1.047711
O16	O	1.153554	-0.169178	0.430828
O17	O	1.486887	0.164155	0.764161
O18	O	1.820221	0.497488	1.097495
O19	O	1.048317	-0.221668	0.226167
O20	O	1.381650	0.111666	0.559501
O21	O	1.714984	0.444999	0.892834
O22	O	0.957529	-0.099107	0.336191
O23	O	1.290862	0.234226	0.669525
O24	O	1.624195	0.567560	1.002858
O25	O	1.157145	-0.221926	0.344689
O26	O	1.490478	0.111407	0.678022
O27	O	1.823812	0.444741	1.011356
O28	O	1.039986	-0.099303	0.425993
O29	O	1.373319	0.234031	0.759327
O30	O	1.706653	0.567364	1.092660
O31	O	0.962268	-0.168724	0.222504
O32	O	1.295602	0.164609	0.555838
O33	O	1.628935	0.497943	0.889171
O34	O	0.843782	-0.174895	0.331286
O35	O	1.177115	0.158438	0.664620
O36	O	1.510449	0.491771	0.997953
O37	O	0.948883	-0.232774	0.535894
O38	O	1.282216	0.100560	0.869227
O39	O	1.615550	0.433893	1.202561
O40	O	0.840055	-0.232515	0.417372
O41	O	1.173388	0.100818	0.750705
O42	O	1.506722	0.434152	1.084039
O43	O	1.035067	-0.175350	0.539610
O44	O	1.368401	0.157983	0.872944
O45	O	1.701734	0.491317	1.206277
O46	O	1.043398	-0.297715	0.339784
O47	O	1.376732	0.035619	0.673118
O48	O	1.710065	0.368952	1.006451
O49	O	0.953623	-0.302391	0.422207
O50	O	1.286956	0.030943	0.755540
O51	O	1.620289	0.364276	1.088873
C52	C	0.816480	-0.204367	0.373240
C53	C	1.149813	0.128966	0.706573
C54	C	1.483147	0.462299	1.039906
C55	C	0.738553	-0.206406	0.369918
C56	C	1.071886	0.126928	0.703251
C57	C	1.405220	0.460261	1.036584
C58	C	0.700071	-0.179948	0.413273
C59	C	1.033404	0.153385	0.746607
C60	C	1.366737	0.486719	1.079940
C61	C	0.626850	-0.181861	0.410146
C62	C	0.960184	0.151472	0.743479
C63	C	1.293517	0.484806	1.076813
C64	C	0.592113	-0.210235	0.363666
C65	C	0.925447	0.123099	0.696999
C66	C	1.258780	0.456432	1.030332
C67	C	0.630601	-0.236693	0.320305
C68	C	0.963934	0.096640	0.653639
C69	C	1.297268	0.429973	0.986972
C70	C	0.703820	-0.234778	0.323430
C71	C	1.037154	0.098556	0.656763
C72	C	1.370487	0.431889	0.990096
C73	C	0.371132	-0.217388	0.351982
C74	C	0.704466	0.115945	0.685315
C75	C	1.037799	0.449279	1.018648
C76	C	0.297908	-0.219303	0.348862
C77	C	0.631241	0.114031	0.682195
C78	C	0.964574	0.447364	1.015529
C79	C	0.294162	-0.164470	0.438702
C80	C	0.627496	0.168864	0.772035
C81	C	0.960829	0.502197	1.105369
C82	C	0.367383	-0.162559	0.441825
C83	C	0.700716	0.170775	0.775159
C84	C	1.034050	0.504108	1.108492
C85	C	0.405864	-0.189016	0.398462
C86	C	0.739198	0.144318	0.731796
C87	C	1.072531	0.477651	1.065129
C88	C	0.517270	-0.212192	0.360470
C89	C	0.850604	0.121142	0.693803
C90	C	1.183937	0.454475	1.027136
C91	C	0.480706	-0.187056	0.401656
C92	C	0.814039	0.146278	0.734989
C93	C	1.147373	0.479611	1.068322
C94	C	0.998509	-0.316354	0.381004
C95	C	1.331842	0.016980	0.714337
C96	C	1.665176	0.350313	1.047670
C97	C	0.998518	-0.366288	0.381013
C98	C	1.331852	-0.032955	0.714346
C99	C	1.665185	0.300379	1.047679
C100	C	1.045459	-0.673481	0.338195
C101	C	1.378792	-0.340148	0.671529
C102	C	1.712125	-0.006815	1.004862
C103	C	1.045544	-0.861153	0.338226
C104	C	1.378877	-0.527820	0.671560
C105	C	1.712211	-0.194486	1.004893
O106	O	1.085355	-0.883337	0.301791
O107	O	1.418688	-0.550003	0.635124
O108	O	1.752022	-0.216670	0.968457
N109	N	0.998777	-0.887069	0.381103
N110	N	1.332110	-0.553735	0.714436
N111	N	1.665444	-0.220402	1.047770
C112	C	0.951988	-0.866063	0.423978
C113	C	1.285322	-0.532730	0.757312
C114	C	1.618655	-0.199397	1.090645
O115	O	0.912217	-0.892412	0.460454
O116	O	1.245550	-0.559079	0.793787
O117	O	1.578884	-0.225746	1.127120
C118	C	0.951907	-0.678393	0.423951
C119	C	1.285240	-0.345059	0.757284
C120	C	1.618574	-0.011726	1.090617
C121	C	0.998672	-0.652479	0.381066
C122	C	1.332006	-0.319146	0.714399
C123	C	1.665339	0.014187	1.047733
C124	C	1.092221	-0.647568	0.295315
C125	C	1.425554	-0.314235	0.628648
C126	C	1.758887	0.019098	0.961982
C127	C	1.092196	-0.600653	0.295305
C128	C	1.425530	-0.267320	0.628638
C129	C	1.758863	0.066013	0.961971
C130	C	1.045410	-0.579651	0.338175
C131	C	1.378743	-0.246318	0.671509
C132	C	1.712077	0.087015	1.004842
C133	C	0.998648	-0.605564	0.381056
C134	C	1.331981	-0.272231	0.714389
C135	C	1.665315	0.061102	1.047722
C136	C	0.905122	-0.657389	0.466829
C137	C	1.238456	-0.324055	0.800162
C138	C	1.571789	0.009278	1.133496
C139	C	0.905107	-0.610468	0.466820
C140	C	1.238441	-0.277134	0.800153
C141	C	1.571774	0.056199	1.133486
C142	C	0.951873	-0.584554	0.423935
C143	C	1.285206	-0.251221	0.757268
C144	C	1.618539	0.082112	1.090602
C145	C	0.951837	-0.537647	0.423916
C146	C	1.285170	-0.204314	0.757250
C147	C	1.618504	0.129019	1.090583
N148	N	0.998604	-0.511732	0.381040
N149	N	1.331937	-0.178399	0.714373
N150	N	1.665271	0.154935	1.047706
C151	C	1.045391	-0.532734	0.338169
C152	C	1.378724	-0.199401	0.671502
C153	C	1.712057	0.133933	1.004836
C154	C	0.952034	-0.964593	0.423989
C155	C	1.285367	-0.631260	0.757322
C156	C	1.618700	-0.297926	1.090655
C157	C	0.952053	-1.011511	0.423995
C158	C	1.285386	-0.678177	0.757328
C159	C	1.618720	-0.344844	1.090662
C160	C	1.045610	-1.006597	0.338244
C161	C	1.378943	-0.673264	0.671577
C162	C	1.712276	-0.339930	1.004910
C163	C	1.045586	-0.959679	0.338234
C164	C	1.378920	-0.626345	0.671568
C165	C	1.712253	-0.293012	1.004901
C166	C	0.998801	-0.938678	0.381112
C167	C	1.332134	-0.605344	0.714446
C168	C	1.665467	-0.272011	1.047779
C169	C	1.045335	-0.434209	0.338151
C170	C	1.378669	-0.100876	0.671484
C171	C	1.712002	0.232458	1.004817
C172	C	1.045305	-0.387290	0.338142
C173	C	1.378638	-0.053957	0.671476
C174	C	1.711972	0.279377	1.004809
C175	C	0.951751	-0.392208	0.423896
C176	C	1.285084	-0.058875	0.757229
C177	C	1.618418	0.274459	1.090562
C178	C	0.951779	-0.439123	0.423902
C179	C	1.285112	-0.105789	0.757235
C180	C	1.618445	0.227544	1.090569
C181	C	0.998577	-0.460122	0.381027
C182	C	1.331910	-0.126789	0.714361
C183	C	1.665243	0.206545	1.047694
O184	O	0.912052	-0.515434	0.460339
O185	O	1.245386	-0.182101	0.793672
O186	O	1.578719	0.151233	1.127005
O187	O	1.085167	-0.506377	0.301711
O188	O	1.418500	-0.173044	0.635044
O189	O	1.751833	0.160290	0.968377
C190	C	1.045483	-0.720396	0.338206
C191	C	1.378816	-0.387063	0.671539
C192	C	1.712150	-0.053730	1.004872
C193	C	0.998721	-0.746310	0.381086
C194	C	1.332054	-0.412976	0.714419
C195	C	1.665388	-0.079643	1.047753
C196	C	0.951935	-0.725308	0.423957
C197	C	1.285268	-0.391974	0.757290
C198	C	1.618601	-0.058641	1.090623
C199	C	0.998741	-0.793227	0.381092
C200	C	1.332074	-0.459894	0.714426
C201	C	1.665407	-0.126560	1.047759
C202	C	1.045527	-0.814229	0.338222
C203	C	1.378860	-0.480896	0.671555
C204	C	1.712194	-0.147562	1.004888
C205	C	1.092294	-0.788313	0.295345
C206	C	1.425627	-0.454980	0.628679
C207	C	1.758961	-0.121647	0.962012
C208	C	1.092270	-0.741398	0.295335
C209	C	1.425603	-0.408065	0.628668
C210	C	1.758936	-0.074732	0.962002
C211	C	0.905168	-0.751223	0.466833
C212	C	1.238501	-0.417890	0.800167
C213	C	1.571834	-0.084557	1.133500
C214	C	0.905195	-0.798138	0.466839
C215	C	1.238529	-0.464805	0.800173
C216	C	1.571862	-0.131471	1.133506
C217	C	0.951982	-0.819140	0.423969
C218	C	1.285315	-0.485807	0.757302
C219	C	1.618648	-0.152473	1.090635
C220	C	1.181499	-0.194872	0.388879
C221	C	1.514833	0.138461	0.722212
C222	C	1.848166	0.471795	1.055546
C223	C	1.259425	-0.192845	0.392218
C224	C	1.592759	0.140488	0.725551
C225	C	1.926092	0.473822	1.058884
C226	C	0.990864	-0.204801	0.563901
C227	C	1.324198	0.128532	0.897234
C228	C	1.657531	0.461865	1.230567
C229	C	0.987553	-0.207006	0.641823
C230	C	1.320886	0.126328	0.975157
C231	C	1.654220	0.459661	1.308490
C232	C	0.998778	-0.082448	0.381100
C233	C	1.332111	0.250885	0.714434
C234	C	1.665445	0.584219	1.047767
C235	C	0.998839	-0.032513	0.381124
C236	C	1.332173	0.300821	0.714458
C237	C	1.665506	0.634154	1.047791
C238	C	1.006414	-0.194443	0.198900
C239	C	1.339747	0.138891	0.532234
C240	C	1.673081	0.472224	0.865567
C241	C	1.009861	-0.192108	0.120984
C242	C	1.343194	0.141225	0.454317
C243	C	1.676527	0.474558	0.787651
C244	C	1.030867	-0.178145	0.680367
C245	C	1.364200	0.155188	1.013701
C246	C	1.697533	0.488521	1.347034
C247	C	1.027747	-0.180215	0.753584
C248	C	1.361081	0.153118	1.086917
C249	C	1.694414	0.486452	1.420250
C250	C	0.981317	-0.211148	0.788254
C251	C	1.314650	0.122186	1.121588
C252	C	1.647984	0.455519	1.454921
C253	C	0.937999	-0.240009	0.749705
C254	C	1.271332	0.093324	1.083038
C255	C	1.604665	0.426657	1.416372
C256	C	0.941115	-0.237937	0.676490
C257	C	1.274448	0.095396	1.009823
C258	C	1.607782	0.428729	1.343157
C259	C	0.969659	-0.218898	1.009219
C260	C	1.302992	0.114435	1.342553
C261	C	1.636326	0.447769	1.675886
C262	C	0.966547	-0.220969	1.082440
C263	C	1.299880	0.112364	1.415773
C264	C	1.633214	0.445698	1.749106
C265	C	1.056295	-0.161174	1.086313
C266	C	1.389629	0.172160	1.419647
C267	C	1.722962	0.505493	1.752980
C268	C	1.059411	-0.159106	1.013097
C269	C	1.392744	0.174227	1.346430
C270	C	1.726077	0.507561	1.679764
C271	C	1.016090	-0.187966	0.974554
C272	C	1.349423	0.145367	1.307887
C273	C	1.682756	0.478701	1.641220
C274	C	0.978129	-0.213265	0.863093
C275	C	1.311462	0.120068	1.196427
C276	C	1.644795	0.453402	1.529760
C277	C	1.019275	-0.185846	0.899716
C278	C	1.352608	0.147487	1.233049
C279	C	1.685942	0.480820	1.566383
H280	H	0.735152	-0.256322	0.288124
H281	H	1.068485	0.077011	0.621458
H282	H	1.401818	0.410345	0.954791
H283	H	1.083387	-0.366192	0.303218
H284	H	1.416720	-0.032859	0.636551
H285	H	1.750053	0.300474	0.969885
H286	H	0.402455	-0.238932	0.316673
H287	H	0.735788	0.094402	0.650006
H288	H	1.069122	0.427735	0.983340
H289	H	1.083705	-1.023704	0.303337
H290	H	1.417039	-0.690371	0.636670
H291	H	1.750372	-0.357038	0.970004
H292	H	0.602312	-0.259793	0.282457
H293	H	0.935646	0.073540	0.615790
H294	H	1.268979	0.406874	0.949124
H295	H	0.269627	-0.242410	0.311012
H296	H	0.602961	0.090923	0.644345
H297	H	0.936294	0.424257	0.977679
H298	H	1.063020	-0.156715	0.784963
H299	H	1.396353	0.176619	1.118297
H300	H	1.729686	0.509952	1.451630
H301	H	0.488979	-0.235293	0.322625
H302	H	0.822313	0.098040	0.655959
H303	H	1.155646	0.431373	0.989292
H304	H	0.867069	-0.734127	0.501745
H305	H	1.200403	-0.400794	0.835078
H306	H	1.533736	-0.067461	1.168411
H307	H	0.913966	-1.032606	0.458909
H308	H	1.247299	-0.699272	0.792242
H309	H	1.580632	-0.365939	1.125576
H310	H	1.068678	-0.152958	0.652144
H311	H	1.402011	0.180376	0.985477
H312	H	1.735344	0.513709	1.318811
H313	H	0.913701	-0.460223	0.458824
H314	H	1.247034	-0.126889	0.792158
H315	H	1.580367	0.206444	1.125491
H316	H	0.867009	-0.593371	0.501738
H317	H	1.200343	-0.260038	0.835072
H318	H	1.533676	0.073295	1.168405
H319	H	0.913656	-0.375101	0.458798
H320	H	1.246989	-0.041767	0.792132
H321	H	1.580323	0.291566	1.125465
H322	H	1.097221	-0.133918	0.984873
H323	H	1.430554	0.199415	1.318206
H324	H	1.763888	0.532748	1.651540
H325	H	0.508992	-0.163952	0.439497
H326	H	0.842325	0.169381	0.772830
H327	H	1.175659	0.502714	1.106163
H328	H	0.940328	-0.238452	0.891331
H329	H	1.273662	0.094881	1.224664
H330	H	1.606995	0.428214	1.557997
H331	H	0.395660	-0.139456	0.479677
H332	H	0.728994	0.193878	0.813010
H333	H	1.062327	0.527211	1.146344
H334	H	1.083444	-0.451301	0.303240
H335	H	1.416778	-0.117967	0.636573
H336	H	1.750111	0.215366	0.969906
H337	H	1.057075	-0.160659	0.871484
H338	H	1.390409	0.172674	1.204817
H339	H	1.723742	0.506007	1.538151
H340	H	1.130387	-0.805421	0.260436
H341	H	1.463721	-0.472088	0.593770
H342	H	1.797054	-0.138755	0.927103
H343	H	0.728348	-0.156845	0.451124
H344	H	1.061681	0.176489	0.784458
H345	H	1.395015	0.509822	1.117791
H346	H	1.130279	-0.579557	0.260387
H347	H	1.463612	-0.246224	0.593720
H348	H	1.796945	0.087109	0.927053
H349	H	0.928736	-0.246159	1.110666
H350	H	1.262069	0.087174	1.444000
H351	H	1.595403	0.420508	1.777333
H352	H	1.130324	-0.664663	0.260404
H353	H	1.463657	-0.331329	0.593738
H354	H	1.796990	0.002004	0.927071
H355	H	1.091564	-0.137677	1.117703
H356	H	1.424897	0.195657	1.451036
H357	H	1.758230	0.528990	1.784370
H358	H	0.934394	-0.242404	0.977847
H359	H	1.267727	0.090929	1.311180
H360	H	1.601061	0.424262	1.644513
H361	H	1.083667	-0.938582	0.303315
H362	H	1.417000	-0.605249	0.636648
H363	H	1.750334	-0.271916	0.969981
H364	H	0.913933	-0.947498	0.458906
H365	H	1.247267	-0.614164	0.792239
H366	H	1.580600	-0.280831	1.125573
H367	H	0.867038	-0.678479	0.501747
H368	H	1.200371	-0.345146	0.835080
H369	H	1.533704	-0.011813	1.168414
H370	H	1.130350	-0.720303	0.260415
H371	H	1.463684	-0.386970	0.593748
H372	H	1.797017	-0.053636	0.927081
H373	H	0.867107	-0.819233	0.501760
H374	H	1.200441	-0.485900	0.835094
H375	H	1.533774	-0.152566	1.168427
H376	H	0.900192	-0.265194	0.777940
H377	H	1.233525	0.068139	1.111273
H378	H	1.566858	0.401473	1.444606
H379	H	0.905837	-0.261434	0.645108
H380	H	1.239171	0.071899	0.978441
H381	H	1.572504	0.405232	1.311774
H382	H	0.595521	-0.160317	0.445452
H383	H	0.928854	0.173016	0.778785
H384	H	1.262188	0.506349	1.112119
H385	H	0.262823	-0.142929	0.474005
H386	H	0.596156	0.190404	0.807338
H387	H	0.929490	0.523737	1.140671
