data_functionalizedCrystal
_audit_creation_method	'MofGen! by Chris Wilmer'
_symmetry_space_group_name_H-M	'P1'
_symmetry_Int_Tables_number	1
_symmetry_cell_setting	triclinic
loop_
_symmetry_equiv_pos_as_xyz
  x,y,z
_cell_length_a	17.699077
_cell_length_b	17.699083
_cell_length_c	8.140239
_cell_angle_alpha	89.995596
_cell_angle_beta	89.997839
_cell_angle_gamma	83.281795
loop_
_atom_site_label
_atom_site_type_symbol
_atom_site_fract_x
_atom_site_fract_y
_atom_site_fract_z
O1	O	1.004077	0.095689	-0.136595
O2	O	1.504077	0.595689	0.363405
O3	O	0.783698	0.108146	-0.136603
O4	O	1.283698	0.608146	0.363397
O5	O	0.900114	-0.008272	-0.136584
O6	O	1.400114	0.491728	0.363416
O7	O	0.887661	0.212106	-0.136614
O8	O	1.387661	0.712106	0.363386
O9	O	0.900107	-0.008273	0.136643
O10	O	1.400107	0.491727	0.636643
O11	O	0.783691	0.108144	0.136624
O12	O	1.283691	0.608144	0.636624
O13	O	1.004070	0.095687	0.136632
O14	O	1.504070	0.595687	0.636632
Zn15	Zn	0.893880	0.101916	0.180009
Zn16	Zn	1.393880	0.601916	0.680009
Zn17	Zn	0.893888	0.101917	-0.179980
Zn18	Zn	1.393888	0.601917	0.320020
O19	O	0.887655	0.212105	0.136613
O20	O	1.387655	0.712105	0.636613
C21	C	0.755498	0.107700	0.000009
C22	C	1.255498	0.607700	0.500009
C23	C	0.671479	0.106363	0.000006
C24	C	1.171479	0.606363	0.500006
C25	C	0.632008	0.105732	0.148944
C26	C	1.132008	0.605732	0.648944
C27	C	0.553066	0.104464	0.148946
C28	C	1.053066	0.604464	0.648946
C29	C	0.513595	0.103832	0.000009
C30	C	1.013595	0.603832	0.500009
C31	C	0.553072	0.104460	-0.148941
C32	C	1.053072	0.604460	0.351059
C33	C	0.632013	0.105723	-0.148941
C34	C	1.132013	0.605723	0.351059
C35	C	0.234708	0.099367	-0.148943
C36	C	0.734708	0.599367	0.351057
C37	C	0.155761	0.098106	-0.148932
C38	C	0.655761	0.598106	0.351068
C39	C	0.155761	0.098108	0.148944
C40	C	0.655761	0.598108	0.648944
C41	C	0.234703	0.099371	0.148944
C42	C	0.734703	0.599371	0.648944
C43	C	0.274173	0.099995	-0.000004
C44	C	0.774173	0.599995	0.499996
C45	C	0.359772	0.101369	-0.000005
C46	C	0.859772	0.601369	0.499995
C47	C	0.427997	0.102464	0.000007
C48	C	0.927997	0.602464	0.500007
C49	C	0.899664	-0.036470	0.000029
C50	C	1.399664	0.463530	0.500029
C51	C	0.898326	-0.120488	0.000030
C52	C	1.398326	0.379512	0.500030
C53	C	0.966659	-0.169110	0.000035
C54	C	1.466659	0.330890	0.500035
C55	C	0.965397	-0.248054	0.000020
C56	C	1.465397	0.251946	0.500020
C57	C	0.895800	-0.278373	0.000013
C58	C	1.395800	0.221627	0.500013
C59	C	0.827461	-0.229744	0.000003
C60	C	1.327461	0.270256	0.500003
C61	C	0.828724	-0.150803	0.000006
C62	C	1.328724	0.349197	0.500006
C63	C	0.822366	-0.548107	-0.000011
C64	C	1.322366	-0.048107	0.499989
C65	C	0.821108	-0.627055	-0.000009
C66	C	1.321108	-0.127055	0.499991
C67	C	0.959039	-0.645358	0.000004
C68	C	1.459039	-0.145358	0.500004
C69	C	0.960302	-0.566417	0.000007
C70	C	1.460302	-0.066417	0.500007
C71	C	0.891963	-0.517795	-0.000012
C72	C	1.391963	-0.017795	0.499988
C73	C	0.893333	-0.432196	0.000001
C74	C	1.393333	0.067804	0.500001
C75	C	0.894430	-0.363971	0.000012
C76	C	1.394430	0.136029	0.500012
C77	C	1.032271	0.096133	0.000016
C78	C	1.532271	0.596133	0.500016
C79	C	1.116289	0.097470	0.000008
C80	C	1.616289	0.597470	0.500008
C81	C	0.888104	0.240303	-0.000004
C82	C	1.388104	0.740303	0.499996
C83	C	0.889443	0.324321	-0.000016
C84	C	1.389443	0.824321	0.499984
N85	N	0.893880	0.101914	0.425691
N86	N	1.393880	0.601914	0.925691
N87	N	0.893895	0.101913	-0.425662
N88	N	1.393895	0.601913	0.074338
H89	H	0.664139	0.106253	0.270227
H90	H	1.164139	0.606253	0.770227
Cl91	Cl	0.503447	0.103685	0.336192
Cl92	Cl	1.003447	0.603685	0.836192
Cl93	Cl	0.742816	-0.089676	-0.000007
Cl94	Cl	1.242816	0.410324	0.499993
H95	H	0.123615	0.097596	0.270225
H96	H	0.623615	0.597596	0.770225
H97	H	0.266835	0.099889	0.270224
H98	H	0.766835	0.599889	0.770224
H99	H	1.014683	-0.684956	0.000011
H100	H	1.514683	-0.184956	0.500011
Cl101	Cl	0.503454	0.103638	-0.336178
Cl102	Cl	1.003454	0.603638	0.163822
Cl103	Cl	0.106141	0.097310	-0.336183
Cl104	Cl	0.606141	0.597310	0.163817
Cl105	Cl	0.739968	-0.267860	-0.000027
Cl106	Cl	1.239968	0.232140	0.499973
H107	H	0.266836	0.099873	-0.270226
H108	H	0.766836	0.599873	0.229774
H109	H	0.664149	0.106238	-0.270222
H110	H	1.164149	0.606238	0.229778
Cl111	Cl	1.054157	-0.131003	0.000062
Cl112	Cl	1.554157	0.368997	0.500062
H113	H	0.764431	-0.651737	-0.000012
H114	H	1.264431	-0.151737	0.499988
H115	H	0.766721	-0.508528	-0.000025
H116	H	1.266721	-0.008528	0.499975
Cl117	Cl	1.051306	-0.309176	0.000032
Cl118	Cl	1.551306	0.190824	0.500032
H119	H	1.016974	-0.541735	0.000021
H120	H	1.516974	-0.041735	0.500021
