data_functionalizedCrystal
_audit_creation_method	'MofGen! by Chris Wilmer'
_symmetry_space_group_name_H-M	'P1'
_symmetry_Int_Tables_number	1
_symmetry_cell_setting	triclinic
loop_
_symmetry_equiv_pos_as_xyz
  x,y,z
_cell_length_a	21.295120
_cell_length_b	16.625548
_cell_length_c	16.625545
_cell_angle_alpha	89.971982
_cell_angle_beta	89.645918
_cell_angle_gamma	90.067019
loop_
_atom_site_label
_atom_site_type_symbol
_atom_site_fract_x
_atom_site_fract_y
_atom_site_fract_z
Zn1	Zn	0.355956	1.233026	0.318364
Zn2	Zn	0.605956	1.483026	0.568364
Zn3	Zn	0.855956	1.733026	0.818364
Zn4	Zn	1.105956	1.983026	1.068364
Zn5	Zn	0.250692	1.232809	0.453980
Zn6	Zn	0.500692	1.482809	0.703980
Zn7	Zn	0.750692	1.732809	0.953980
Zn8	Zn	1.000692	1.982809	1.203980
Zn9	Zn	0.250697	1.098078	0.319168
Zn10	Zn	0.500697	1.348078	0.569168
Zn11	Zn	0.750697	1.598078	0.819168
Zn12	Zn	1.000697	1.848078	1.069168
Zn13	Zn	0.355927	1.098148	0.453162
Zn14	Zn	0.605927	1.348148	0.703162
Zn15	Zn	0.855927	1.598148	0.953162
Zn16	Zn	1.105927	1.848148	1.203162
O17	O	0.303318	1.165515	0.386169
O18	O	0.553318	1.415515	0.636169
O19	O	0.803318	1.665515	0.886169
O20	O	1.053318	1.915515	1.136169
O21	O	0.342002	1.345830	0.336361
O22	O	0.592002	1.595830	0.586361
O23	O	0.842002	1.845830	0.836361
O24	O	1.092002	2.095830	1.086361
O25	O	0.162600	1.214817	0.436776
O26	O	0.412600	1.464817	0.686776
O27	O	0.662600	1.714817	0.936776
O28	O	0.912600	1.964817	1.186776
O29	O	0.264675	1.116041	0.206229
O30	O	0.514675	1.366041	0.456229
O31	O	0.764675	1.616041	0.706229
O32	O	1.014675	1.866041	0.956229
O33	O	0.264665	1.345670	0.435997
O34	O	0.514665	1.595670	0.685997
O35	O	0.764665	1.845670	0.935997
O36	O	1.014665	2.095670	1.185997
O37	O	0.342008	1.215187	0.205639
O38	O	0.592008	1.465187	0.455639
O39	O	0.842008	1.715187	0.705639
O40	O	1.092008	1.965187	0.955639
O41	O	0.162604	1.115831	0.337730
O42	O	0.412604	1.365831	0.587730
O43	O	0.662604	1.615831	0.837730
O44	O	0.912604	1.865831	1.087730
O45	O	0.264647	0.985255	0.336936
O46	O	0.514647	1.235255	0.586936
O47	O	0.764647	1.485255	0.836936
O48	O	1.014647	1.735255	1.086936
O49	O	0.444023	1.116160	0.434602
O50	O	0.694023	1.366160	0.684602
O51	O	0.944023	1.616160	0.934602
O52	O	1.194023	1.866160	1.184602
O53	O	0.341958	0.985306	0.435381
O54	O	0.591958	1.235306	0.685381
O55	O	0.841958	1.485306	0.935381
O56	O	1.091958	1.735306	1.185381
O57	O	0.444044	1.215254	0.335567
O58	O	0.694044	1.465254	0.585567
O59	O	0.944044	1.715254	0.835567
O60	O	1.194044	1.965254	1.085567
O61	O	0.264637	1.214884	0.566704
O62	O	0.514637	1.464884	0.816704
O63	O	0.764637	1.714884	1.066704
O64	O	1.014637	1.964884	1.316704
O65	O	0.341953	1.115949	0.566103
O66	O	0.591953	1.365949	0.816103
O67	O	0.841953	1.615949	1.066103
O68	O	1.091953	1.865949	1.316103
C69	C	0.303300	0.956025	0.386157
C70	C	0.553300	1.206025	0.636157
C71	C	0.803300	1.456025	0.886157
C72	C	1.053300	1.706025	1.136157
C73	C	0.303308	0.866403	0.386172
C74	C	0.553308	1.116403	0.636172
C75	C	0.803308	1.366403	0.886172
C76	C	1.053308	1.616403	1.136172
C77	C	0.303335	0.538228	0.386177
C78	C	0.553335	0.788228	0.636177
C79	C	0.803335	1.038228	0.886177
C80	C	1.053335	1.288228	1.136177
C81	C	0.303325	0.629536	0.386173
C82	C	0.553325	0.879536	0.636173
C83	C	0.803325	1.129536	0.886173
C84	C	1.053325	1.379536	1.136173
C85	C	0.303321	0.702313	0.386175
C86	C	0.553321	0.952313	0.636175
C87	C	0.803321	1.202313	0.886175
C88	C	1.053321	1.452313	1.136175
C89	C	0.303312	0.793627	0.386170
C90	C	0.553312	1.043627	0.636170
C91	C	0.803312	1.293627	0.886170
C92	C	1.053312	1.543627	1.136170
C93	C	0.139761	1.165339	0.387371
C94	C	0.389761	1.415339	0.637371
C95	C	0.639761	1.665339	0.887371
C96	C	0.889761	1.915339	1.137371
C97	C	0.069791	1.165400	0.387683
C98	C	0.319791	1.415400	0.637683
C99	C	0.569791	1.665400	0.887683
C100	C	0.819791	1.915400	1.137683
C101	C	0.037446	1.216637	0.335539
C102	C	0.287446	1.466637	0.585539
C103	C	0.537446	1.716637	0.835539
C104	C	0.787446	1.966637	1.085539
C105	C	-0.028295	1.216696	0.335131
C106	C	0.221705	1.466696	0.585131
C107	C	0.471705	1.716696	0.835131
C108	C	0.721705	1.966696	1.085131
C109	C	-0.061688	1.165504	0.386860
C110	C	0.188312	1.415504	0.636860
C111	C	0.438312	1.665504	0.886860
C112	C	0.688312	1.915504	1.136860
C113	C	-0.029335	1.114265	0.439014
C114	C	0.220665	1.364265	0.689014
C115	C	0.470665	1.614265	0.939014
C116	C	0.720665	1.864265	1.189014
C117	C	0.036405	1.114212	0.439425
C118	C	0.286405	1.364212	0.689425
C119	C	0.536405	1.614212	0.939425
C120	C	0.786405	1.864212	1.189425
N121	N	-0.165061	1.095050	0.392907
N122	N	0.084939	1.345050	0.642907
N123	N	0.334939	1.595050	0.892907
N124	N	0.584939	1.845050	1.142907
N125	N	-0.227510	1.095102	0.392511
N126	N	0.022490	1.345102	0.642511
N127	N	0.272490	1.595102	0.892511
N128	N	0.522490	1.845102	1.142511
C129	C	-0.259757	1.165660	0.385624
C130	C	-0.009757	1.415660	0.635624
C131	C	0.240243	1.665660	0.885624
C132	C	0.490243	1.915660	1.135624
N133	N	-0.227194	1.236165	0.379132
N134	N	0.022806	1.486165	0.629132
N135	N	0.272806	1.736165	0.879132
N136	N	0.522806	1.986165	1.129132
N137	N	-0.164739	1.236112	0.379524
N138	N	0.085261	1.486112	0.629524
N139	N	0.335261	1.736112	0.879524
N140	N	0.585261	1.986112	1.129524
C141	C	-0.132971	1.165556	0.386420
C142	C	0.117029	1.415556	0.636420
C143	C	0.367029	1.665556	0.886420
C144	C	0.617029	1.915556	1.136420
C145	C	-0.363386	1.216964	0.333036
C146	C	-0.113386	1.466964	0.583036
C147	C	0.136614	1.716964	0.833036
C148	C	0.386614	1.966964	1.083036
C149	C	-0.429127	1.217025	0.332634
C150	C	-0.179127	1.467025	0.582634
C151	C	0.070873	1.717025	0.832634
C152	C	0.320873	1.967025	1.082634
C153	C	-0.430166	1.114587	0.436512
C154	C	-0.180166	1.364587	0.686512
C155	C	0.069834	1.614587	0.936512
C156	C	0.319834	1.864587	1.186512
C157	C	-0.364425	1.114533	0.436918
C158	C	-0.114425	1.364533	0.686918
C159	C	0.135575	1.614533	0.936918
C160	C	0.385575	1.864533	1.186918
C161	C	-0.331039	1.165721	0.385176
C162	C	-0.081039	1.415721	0.635176
C163	C	0.168961	1.665721	0.885176
C164	C	0.418961	1.915721	1.135176
C165	C	0.467514	1.165739	0.384903
C166	C	0.717514	1.415739	0.634903
C167	C	0.967514	1.665739	0.884903
C168	C	1.217514	1.915739	1.134903
C169	C	0.537484	1.165834	0.384364
C170	C	0.787484	1.415834	0.634364
C171	C	1.037484	1.665834	0.884364
C172	C	1.287484	1.915834	1.134364
C173	C	0.303305	1.165423	0.595659
C174	C	0.553305	1.415423	0.845659
C175	C	0.803305	1.665423	1.095659
C176	C	1.053305	1.915423	1.345659
C177	C	0.303320	1.165457	0.685280
C178	C	0.553320	1.415457	0.935280
C179	C	0.803320	1.665457	1.185280
C180	C	1.053320	1.915457	1.435280
C181	C	0.303336	1.375824	0.386181
C182	C	0.553336	1.625824	0.636181
C183	C	0.803336	1.875824	0.886181
C184	C	1.053336	2.125824	1.136181
C185	C	0.303344	1.465445	0.386186
C186	C	0.553344	1.715445	0.636186
C187	C	0.803344	1.965445	0.886186
C188	C	1.053344	2.215445	1.136186
C189	C	0.303335	1.165486	0.758063
C190	C	0.553335	1.415486	1.008063
C191	C	0.803335	1.665486	1.258063
C192	C	1.053335	1.915486	1.508063
C193	C	0.303352	1.165531	0.849371
C194	C	0.553352	1.415531	1.099371
C195	C	0.803352	1.665531	1.349371
C196	C	1.053352	1.915531	1.599371
C197	C	0.303362	1.165571	0.922147
C198	C	0.553362	1.415571	1.172147
C199	C	0.803362	1.665571	1.422147
C200	C	1.053362	1.915571	1.672147
C201	C	0.303378	1.165615	1.013462
C202	C	0.553378	1.415615	1.263462
C203	C	0.803378	1.665615	1.513462
C204	C	1.053378	1.915615	1.763462
C205	C	0.303353	1.165624	1.175859
C206	C	0.553353	1.415624	1.425859
C207	C	0.803353	1.665624	1.675859
C208	C	1.053353	1.915624	1.925859
C209	C	0.303388	1.165655	1.086238
C210	C	0.553388	1.415655	1.336238
C211	C	0.803388	1.665655	1.586238
C212	C	1.053388	1.915655	1.836238
H213	H	0.064625	1.258321	0.293409
H214	H	0.314625	1.508321	0.543409
H215	H	0.564625	1.758321	0.793409
H216	H	0.814625	2.008321	1.043409
H217	H	-0.054636	1.258418	0.292667
H218	H	0.195364	1.508418	0.542667
H219	H	0.445364	1.758418	0.792667
H220	H	0.695364	2.008418	1.042667
H221	H	-0.056527	1.072585	0.481133
H222	H	0.193473	1.322585	0.731133
H223	H	0.443473	1.572585	0.981133
H224	H	0.693473	1.822585	1.231133
N225	N	0.071296	1.058949	0.495669
N226	N	0.321296	1.308949	0.745669
N227	N	0.571296	1.558949	0.995669
N228	N	0.821296	1.808949	1.245669
H229	H	0.040169	1.026529	0.528381
H230	H	0.290169	1.276529	0.778381
H231	H	0.540169	1.526529	1.028381
H232	H	0.790169	1.776529	1.278381
H233	H	0.098799	1.021391	0.463288
H234	H	0.348799	1.271391	0.713288
H235	H	0.598799	1.521391	0.963288
H236	H	0.848799	1.771391	1.213288
H237	H	-0.336201	1.258644	0.290903
H238	H	-0.086201	1.508644	0.540903
H239	H	0.163799	1.758644	0.790903
H240	H	0.413799	2.008644	1.040903
N241	N	-0.464018	1.272296	0.276397
N242	N	-0.214018	1.522296	0.526397
N243	N	0.035982	1.772296	0.776397
N244	N	0.285982	2.022296	1.026397
H245	H	-0.432890	1.304712	0.243682
H246	H	-0.182890	1.554712	0.493682
H247	H	0.067110	1.804712	0.743682
H248	H	0.317110	2.054712	0.993682
H249	H	-0.491022	1.239246	0.239154
H250	H	-0.241022	1.489246	0.489154
H251	H	0.008978	1.739246	0.739154
H252	H	0.258978	1.989246	0.989154
H253	H	-0.457354	1.072909	0.478634
H254	H	-0.207354	1.322909	0.728634
H255	H	0.042646	1.572909	0.978634
H256	H	0.292646	1.822909	1.228634
N257	N	-0.329533	1.059268	0.493157
N258	N	-0.079533	1.309268	0.743157
N259	N	0.170467	1.559268	0.993157
N260	N	0.420467	1.809268	1.243157
H261	H	-0.360661	1.026846	0.525865
H262	H	-0.110661	1.276846	0.775865
H263	H	0.139339	1.526846	1.025865
H264	H	0.389339	1.776846	1.275865
H265	H	-0.302029	1.021712	0.460776
H266	H	-0.052029	1.271712	0.710776
H267	H	0.197971	1.521712	0.960776
H268	H	0.447971	1.771712	1.210776
