data_functionalizedCrystal
_audit_creation_method	'MofGen! by Chris Wilmer'
_symmetry_space_group_name_H-M	'P1'
_symmetry_Int_Tables_number	1
_symmetry_cell_setting	triclinic
loop_
_symmetry_equiv_pos_as_xyz
  x,y,z
_cell_length_a	16.992694
_cell_length_b	15.538191
_cell_length_c	15.455313
_cell_angle_alpha	91.603349
_cell_angle_beta	87.142206
_cell_angle_gamma	68.970158
loop_
_atom_site_label
_atom_site_type_symbol
_atom_site_fract_x
_atom_site_fract_y
_atom_site_fract_z
O1	O	0.989241	0.191780	-0.072014
O2	O	1.489241	0.691780	0.427986
O3	O	0.761568	0.189633	-0.072040
O4	O	1.261568	0.689633	0.427960
O5	O	0.919723	0.056913	-0.072026
O6	O	1.419723	0.556913	0.427974
O7	O	0.831085	0.324499	-0.072028
O8	O	1.331085	0.824499	0.427972
O9	O	0.910688	0.064469	0.072235
O10	O	1.410688	0.564469	0.572235
O11	O	0.752533	0.197189	0.072222
O12	O	1.252533	0.697189	0.572222
O13	O	0.980206	0.199336	0.072247
O14	O	1.480206	0.699336	0.572247
Cu15	Cu	0.865545	0.198952	0.085407
Cu16	Cu	1.365545	0.698952	0.585407
Cu17	Cu	0.876229	0.190016	-0.085199
Cu18	Cu	1.376229	0.690016	0.414801
O19	O	0.822051	0.332055	0.072233
O20	O	1.322051	0.832055	0.572233
C21	C	0.728624	0.190651	0.000088
C22	C	1.228624	0.690651	0.500088
C23	C	0.643924	0.182416	0.000078
C24	C	1.143924	0.682416	0.500078
C25	C	0.571070	0.261869	0.000078
C26	C	1.071070	0.761869	0.500078
C27	C	0.491487	0.254127	0.000090
C28	C	0.991487	0.754127	0.500090
C29	C	0.484758	0.166930	0.000095
C30	C	0.984758	0.666930	0.500095
C31	C	0.557620	0.087471	0.000098
C32	C	1.057620	0.587471	0.500098
C33	C	0.637201	0.095214	0.000092
C34	C	1.137201	0.595214	0.500092
C35	C	0.250294	0.134837	0.000119
C36	C	0.750294	0.634837	0.500119
C37	C	0.170704	0.127099	0.000122
C38	C	0.670704	0.627099	0.500122
C39	C	0.104576	0.293756	0.000116
C40	C	0.604576	0.793756	0.500116
C41	C	0.184162	0.301491	0.000105
C42	C	0.684162	0.801491	0.500105
C43	C	0.257016	0.222033	0.000112
C44	C	0.757016	0.722033	0.500112
N45	N	0.403412	0.159014	0.000105
N46	N	0.903412	0.659014	0.500105
N47	N	0.338360	0.229950	0.000108
N48	N	0.838360	0.729950	0.500108
C49	C	0.924480	0.026294	0.000103
C50	C	1.424480	0.526294	0.500103
C51	C	0.952104	-0.076201	0.000097
C52	C	1.452104	0.423799	0.500097
C53	C	0.677671	-0.384652	0.000085
C54	C	1.177671	0.115348	0.500085
C55	C	0.703646	-0.480962	0.000090
C56	C	1.203646	0.019038	0.500090
C57	C	0.849754	-0.492404	0.000106
C58	C	1.349754	0.007596	0.500106
C59	C	0.823791	-0.396094	0.000097
C60	C	1.323791	0.103906	0.500097
C61	C	0.737748	-0.342224	0.000087
C62	C	1.237748	0.157776	0.500087
C63	C	0.883868	-0.353667	0.000099
C64	C	1.383868	0.146333	0.500099
C65	C	0.857907	-0.257364	0.000095
C66	C	1.357907	0.242636	0.500095
C67	C	0.771868	-0.203488	0.000088
C68	C	1.271868	0.296512	0.500088
C69	C	0.711786	-0.245922	0.000083
C70	C	1.211786	0.254078	0.500083
C71	C	0.969911	-0.407537	0.000115
C72	C	1.469911	0.092463	0.500115
C73	C	1.029988	-0.365110	0.000117
C74	C	1.529988	0.134890	0.500117
C75	C	1.004027	-0.268806	0.000106
C76	C	1.504027	0.231194	0.500106
C77	C	0.917988	-0.214930	0.000099
C78	C	1.417988	0.285070	0.500099
C79	C	1.064108	-0.226373	0.000111
C80	C	1.564108	0.273627	0.500111
C81	C	1.038146	-0.130070	0.000107
C82	C	1.538146	0.369930	0.500107
C83	C	0.892026	-0.118628	0.000095
C84	C	1.392026	0.381372	0.500095
C85	C	1.013150	0.198318	0.000118
C86	C	1.513150	0.698318	0.500118
C87	C	1.097851	0.206553	0.000122
C88	C	1.597851	0.706553	0.500122
C89	C	0.817294	0.362675	0.000103
C90	C	1.317294	0.862675	0.500103
C91	C	0.789671	0.465169	0.000103
C92	C	1.289671	0.965169	0.500103
N93	N	0.858036	0.205237	0.205401
N94	N	1.358036	0.705237	0.705401
N95	N	0.883746	0.183724	-0.205194
N96	N	1.383746	0.683724	0.294806
C97	C	0.925237	0.148877	0.250801
C98	C	1.425237	0.648877	0.750801
C99	C	0.919563	0.153639	0.341609
C100	C	1.419563	0.653639	0.841609
C101	C	0.846689	0.214767	0.387015
C102	C	1.346689	0.714767	0.887015
C103	C	0.779482	0.271130	0.341608
C104	C	1.279482	0.771130	0.841608
C105	C	0.785154	0.266362	0.250803
C106	C	1.285154	0.766362	0.750803
C107	C	0.822212	0.235320	0.658594
C108	C	1.322212	0.735320	1.158594
C109	C	0.816545	0.240085	0.749406
C110	C	1.316545	0.740085	1.249406
C111	C	0.956626	0.122592	0.749400
C112	C	1.456626	0.622592	1.249400
C113	C	0.962294	0.117834	0.658593
C114	C	1.462294	0.617834	1.158593
C115	C	0.895085	0.174194	0.613194
C116	C	1.395085	0.674194	1.113194
N117	N	0.840889	0.219638	0.479834
N118	N	1.340889	0.719638	0.979834
N119	N	0.900884	0.169317	0.520376
N120	N	1.400884	0.669317	1.020376
H121	H	0.432169	0.318826	0.000089
H122	H	0.932169	0.818826	0.500089
H123	H	0.984580	0.099104	0.213838
H124	H	1.484580	0.599104	0.713838
H125	H	0.974283	0.107745	0.378573
H126	H	1.474283	0.607745	0.878573
H127	H	1.021633	0.068059	0.621625
H128	H	1.521633	0.568059	1.121625
O129	O	0.707960	0.017999	-0.000066
O130	O	1.207960	0.517999	0.499934
C131	C	0.713289	-0.038512	-0.074767
C132	C	1.213289	0.461488	0.425233
H133	H	0.675327	0.005378	-0.126988
H134	H	1.175327	0.505378	0.373012
H135	H	0.782191	-0.072529	-0.099848
H136	H	1.282191	0.427471	0.400152
H137	H	0.686659	-0.094079	-0.057872
H138	H	1.186659	0.405921	0.442128
H139	H	0.821962	-0.074764	0.000081
H140	H	1.321962	0.425236	0.500081
H141	H	1.011344	0.076706	0.786372
H142	H	1.511344	0.576706	1.286372
O143	O	0.933332	-0.544785	-0.000041
O144	O	1.433332	-0.044785	0.499959
C145	C	0.957391	-0.604767	-0.074740
C146	C	1.457391	-0.104767	0.425260
H147	H	0.911375	-0.575237	-0.126964
H148	H	1.411375	-0.075237	0.373036
H149	H	1.023872	-0.612237	-0.099817
H150	H	1.523872	-0.112237	0.400183
H151	H	0.956380	-0.675330	-0.057843
H152	H	1.456380	-0.175330	0.442157
O153	O	0.190850	0.386121	0.000032
O154	O	0.690850	0.886121	0.500032
C155	C	0.276713	0.375917	0.000030
C156	C	0.776713	0.875917	0.500030
H157	H	0.317702	0.303917	-0.027250
H158	H	0.817702	0.803917	0.472750
H159	H	0.288460	0.429855	-0.041892
H160	H	0.788460	0.929855	0.458108
H161	H	0.293409	0.385729	0.069228
H162	H	0.793409	0.885729	0.569228
O163	O	1.096390	-0.088700	0.000144
O164	O	1.596390	0.411300	0.500144
C165	C	1.055024	0.007849	0.000118
C166	C	1.555024	0.507849	0.500118
H167	H	0.986981	0.027346	0.027425
H168	H	1.486981	0.527346	0.527425
H169	H	1.089191	0.042994	0.042003
H170	H	1.589191	0.542994	0.542003
H171	H	1.055451	0.031280	-0.069092
H172	H	1.555451	0.531280	0.430908
O173	O	0.756868	0.290164	0.614636
O174	O	1.256868	0.790164	1.114636
C175	C	0.691328	0.345123	0.674188
C176	C	1.191328	0.845123	1.174188
H177	H	0.718459	0.351952	0.738910
H178	H	1.218459	0.851952	1.238910
H179	H	0.660291	0.416509	0.647947
H180	H	1.160291	0.916509	1.147947
H181	H	0.642237	0.311352	0.683861
H182	H	1.142237	0.811352	1.183861
H183	H	0.654716	-0.515501	0.000100
H184	H	1.154716	-0.015501	0.500100
H185	H	0.552135	0.016474	0.000115
H186	H	1.052135	0.516474	0.500115
O187	O	0.320973	0.057557	0.000084
O188	O	0.820973	0.557557	0.500084
C189	C	0.297964	-0.021060	0.000109
C190	C	0.797964	0.478940	0.500109
H191	H	0.233250	-0.003578	-0.027204
H192	H	0.733250	0.496422	0.472796
H193	H	0.346700	-0.079299	-0.041771
H194	H	0.846700	0.420701	0.458229
H195	H	0.295336	-0.043875	0.069320
H196	H	0.795336	0.456125	0.569320
H197	H	0.045251	0.358447	0.000112
H198	H	0.545251	0.858447	0.500112
O199	O	0.746592	-0.109928	0.000236
O200	O	1.246592	0.390072	0.500236
C201	C	0.693146	-0.070699	0.074933
C202	C	1.193146	0.429301	0.574933
H203	H	0.706127	-0.123558	0.127158
H204	H	1.206127	0.376442	0.627158
H205	H	0.705680	-0.007418	0.100010
H206	H	1.205680	0.492582	0.600010
H207	H	0.624413	-0.049398	0.058033
H208	H	1.124413	0.450602	0.558033
O209	O	0.745750	0.299339	0.793615
O210	O	1.245750	0.799339	1.293615
C211	C	0.709184	0.249096	0.846141
C212	C	1.209184	0.749096	1.346141
H213	H	0.759450	0.179967	0.859738
H214	H	1.259450	0.679967	1.359738
H215	H	0.682105	0.290013	0.909998
H216	H	1.182105	0.790013	1.409998
H217	H	0.656429	0.236679	0.811163
H218	H	1.156429	0.736679	1.311163
O219	O	0.594108	-0.332282	-0.000083
O220	O	1.094108	0.167718	0.499917
C221	C	0.579411	-0.280133	-0.074788
C222	C	1.079411	0.219867	0.425212
H223	H	0.631965	-0.315144	-0.127002
H224	H	1.131965	0.184856	0.372998
H225	H	0.516070	-0.275285	-0.099878
H226	H	1.016070	0.224715	0.400122
H227	H	0.578313	-0.207802	-0.057895
H228	H	1.078313	0.292198	0.442105
H229	H	0.641722	-0.202058	0.000069
H230	H	1.141722	0.297942	0.500069
H231	H	0.991046	-0.485953	0.000111
H232	H	1.491046	0.014047	0.500111
H233	H	0.730432	0.312256	0.213839
H234	H	1.230432	0.812256	0.713839
O235	O	1.113535	-0.417581	0.000087
O236	O	1.613535	0.082419	0.500087
C237	C	1.123568	-0.511677	0.000115
C238	C	1.623568	-0.011677	0.500115
H239	H	1.066035	-0.521347	-0.027197
H240	H	1.566035	-0.021347	0.472803
H241	H	1.182715	-0.554128	-0.041763
H242	H	1.682715	-0.054128	0.458237
H243	H	1.130067	-0.535647	0.069327
H244	H	1.630067	-0.035647	0.569327
H245	H	0.165234	0.056090	0.000126
H246	H	0.665234	0.556090	0.500126
H247	H	1.134164	-0.270247	0.000128
H248	H	1.634164	0.229753	0.500128
H249	H	0.576539	0.332874	0.000072
H250	H	1.076539	0.832874	0.500072
H251	H	0.720144	0.320898	0.378583
H252	H	1.220144	0.820898	0.878583
