data_functionalizedCrystal
_audit_creation_method	'MofGen! by Chris Wilmer'
_symmetry_space_group_name_H-M	'P1'
_symmetry_Int_Tables_number	1
_symmetry_cell_setting	triclinic
loop_
_symmetry_equiv_pos_as_xyz
  x,y,z
_cell_length_a	10.489741
_cell_length_b	10.654550
_cell_length_c	8.965430
_cell_angle_alpha	90.006701
_cell_angle_beta	90.000479
_cell_angle_gamma	84.512038
loop_
_atom_site_label
_atom_site_type_symbol
_atom_site_fract_x
_atom_site_fract_y
_atom_site_fract_z
O1	O	-1.693965	-0.177198	-0.123943
O2	O	-1.322761	-0.193830	-0.123966
O3	O	-1.516898	-0.002779	-0.123948
O4	O	-1.499828	-0.368250	-0.123960
O5	O	-1.516887	-0.002761	0.124131
O6	O	-1.322750	-0.193812	0.124113
O7	O	-1.693954	-0.177180	0.124136
Cu8	Cu	-1.508351	-0.185495	0.146776
Cu9	Cu	-1.508364	-0.185516	-0.146606
O10	O	-1.499818	-0.368231	0.124118
C11	C	-1.275225	-0.192565	0.000071
C12	C	-1.133597	-0.188807	0.000062
C13	C	-1.515639	0.044029	0.000089
C14	C	-1.511889	0.183474	0.000084
C15	C	-1.741491	-0.178445	0.000096
C16	C	-1.883118	-0.182204	0.000095
C17	C	-1.065516	-0.067246	0.000080
C18	C	-0.973367	-0.124679	-0.122235
C19	C	-0.973390	-0.124690	0.122352
C20	C	-1.043313	-0.246290	-0.122354
C21	C	-1.043346	-0.246284	0.122343
C22	C	-0.951224	-0.303805	-0.000002
C23	C	-1.501076	-0.415039	0.000078
C24	C	-1.504826	-0.554484	0.000073
N25	N	-1.508352	-0.185479	0.353125
C26	C	-1.626194	0.262906	0.000095
C27	C	-1.622663	0.393928	0.000085
C28	C	-1.390513	0.366074	0.000057
C29	C	-1.394045	0.235054	0.000057
C30	C	-1.744038	0.211326	0.000122
C31	C	-1.858352	0.290759	0.000135
C32	C	-1.854821	0.421782	0.000124
C33	C	-1.736976	0.473371	0.000101
N34	N	-1.508374	-0.185522	-0.352955
C35	C	-1.597431	-0.096427	0.549803
C36	C	-1.624209	-0.209799	0.450324
C37	C	-1.481629	-0.072117	0.450396
C38	C	-1.535211	-0.298951	0.549755
C39	C	-1.392580	-0.161194	0.549836
C40	C	-1.419311	-0.274648	0.450401
H41	H	-1.115254	0.032684	-0.000070
N42	N	-1.324799	-0.369221	0.395979
N43	N	-1.209656	-0.365178	0.429777
H44	H	-1.142910	-0.431971	0.391338
H45	H	-1.954297	0.248746	0.000117
N46	N	-0.934532	-0.060132	0.252066
N47	N	-0.876800	0.036567	0.238479
H48	H	-0.849359	0.082170	0.330082
H49	H	-1.947901	0.486453	0.000120
H50	H	-1.722124	-0.230366	0.406614
H51	H	-1.672804	-0.021187	0.593446
H52	H	-1.074363	-0.297669	0.225754
N53	N	-1.269775	-0.135360	0.604694
N54	N	-1.182351	-0.115944	0.515300
H55	H	-1.095618	-0.097687	0.554041
N56	N	-1.733345	0.607204	0.000098
N57	N	-1.628124	0.653245	0.000091
H58	H	-1.625557	0.747764	0.000095
N59	N	-0.934515	-0.060160	-0.251961
N60	N	-0.975695	0.052336	-0.273760
H61	H	-0.948266	0.097910	-0.365378
N62	N	-1.081967	-0.310799	-0.252200
N63	N	-1.197715	-0.324074	-0.273185
H64	H	-1.225018	-0.369640	-0.364882
N65	N	-1.270135	0.418747	0.000071
N66	N	-1.168083	0.347809	0.000072
H67	H	-1.083062	0.385007	0.000091
H68	H	-1.300968	0.170377	0.000050
N69	N	-1.563703	-0.419268	0.604288
N70	N	-1.568347	-0.438692	0.741588
H71	H	-1.588468	-0.523664	0.780108
N72	N	-1.747669	0.077494	0.000147
N73	N	-1.852890	0.031452	0.000177
H74	H	-1.855454	-0.063067	0.000199
H75	H	-1.459018	0.023770	0.406750
H76	H	-0.901752	-0.403841	-0.000072
