data_functionalizedCrystal
_audit_creation_method	'MofGen! by Chris Wilmer'
_symmetry_space_group_name_H-M	'P1'
_symmetry_Int_Tables_number	1
_symmetry_cell_setting	triclinic
loop_
_symmetry_equiv_pos_as_xyz
  x,y,z
_cell_length_a	10.654550
_cell_length_b	26.210047
_cell_length_c	10.654551
_cell_angle_alpha	90.006323
_cell_angle_beta	95.514820
_cell_angle_gamma	90.005874
loop_
_atom_site_label
_atom_site_type_symbol
_atom_site_fract_x
_atom_site_fract_y
_atom_site_fract_z
O1	O	1.667852	0.042389	-0.176381
O2	O	1.302374	0.042398	-0.193187
O3	O	1.493515	0.042392	-0.002045
O4	O	1.476711	0.042395	-0.367523
O5	O	1.493478	-0.042466	-0.002075
O6	O	1.302337	-0.042460	-0.193217
O7	O	1.667815	-0.042469	-0.176411
Cu8	Cu	1.485073	-0.050213	-0.184817
Cu9	Cu	1.485116	0.050142	-0.184781
O10	O	1.476674	-0.042463	-0.367553
C11	C	1.255557	-0.000030	-0.191968
C12	C	1.116114	-0.000026	-0.188276
N13	N	1.485051	-0.120797	-0.184841
C14	C	1.036629	-0.000027	-0.300818
C15	C	0.905608	-0.000036	-0.297341
C16	C	0.933570	-0.000041	-0.068772
C17	C	1.064588	-0.000036	-0.072250
C18	C	1.569745	-0.473314	-0.100163
C19	C	1.569773	-0.686972	-0.100146
O20	O	1.641734	-0.714596	-0.028155
N21	N	1.485123	-0.713691	-0.184754
C22	C	1.400454	-0.686992	-0.269367
O23	O	1.328446	-0.714620	-0.341322
C24	C	1.400422	-0.473334	-0.269377
C25	C	1.485086	-0.446618	-0.184772
C26	C	1.654401	-0.446598	-0.015564
C27	C	1.654398	-0.393186	-0.015573
C28	C	1.569739	-0.366491	-0.100182
C29	C	1.485083	-0.393207	-0.184782
C30	C	1.315748	-0.446636	-0.353983
C31	C	1.315745	-0.393218	-0.353976
C32	C	1.400410	-0.366502	-0.269371
C33	C	1.400420	-0.313100	-0.269400
N34	N	1.485070	-0.286381	-0.184792
C35	C	1.569730	-0.313076	-0.100183
C36	C	1.400479	-0.799165	-0.269357
C37	C	1.400488	-0.852579	-0.269356
C38	C	1.569806	-0.852556	-0.100133
C39	C	1.569801	-0.799141	-0.100141
C40	C	1.485129	-0.772446	-0.184749
C41	C	1.569717	-0.200909	-0.100211
C42	C	1.569710	-0.147492	-0.100232
C43	C	1.400389	-0.147520	-0.269450
C44	C	1.400400	-0.200932	-0.269434
C45	C	1.485069	-0.227625	-0.184804
O46	O	1.328487	-0.285443	-0.341344
O47	O	1.641708	-0.285439	-0.028220
C48	C	1.569748	-0.526725	-0.100153
C49	C	1.485092	-0.553441	-0.184752
C50	C	1.400433	-0.526745	-0.269361
C51	C	1.485101	-0.606855	-0.184751
C52	C	1.569761	-0.633551	-0.100143
C53	C	1.654411	-0.606832	-0.015534
C54	C	1.654408	-0.553420	-0.015544
C55	C	1.315783	-0.553464	-0.353969
C56	C	1.315794	-0.606876	-0.353954
C57	C	1.400453	-0.633571	-0.269345
C58	C	1.714632	-0.000040	-0.177630
C59	C	1.854075	-0.000041	-0.181322
C60	C	1.492262	-0.000036	0.044738
C61	C	1.488570	-0.000034	0.184181
N62	N	1.485148	0.120725	-0.184747
C63	C	1.477926	-0.000034	-0.414336
C64	C	1.481619	-0.000033	-0.553779
C65	C	1.486857	0.046223	0.249701
C66	C	1.483377	0.046223	0.380722
C67	C	1.483328	-0.046293	0.380691
C68	C	1.486799	-0.046293	0.249672
H69	H	1.078576	-0.000023	-0.395294
H70	H	0.840896	-0.000037	-0.388984
Br71	Br	1.769311	-0.643072	0.099285
Br72	Br	1.769309	-0.482818	0.099280
Br73	Br	1.480921	-0.109071	0.469579
Br74	Br	1.684624	-0.111238	0.014592
H75	H	0.891602	-0.000052	0.025693
Br76	Br	1.285512	-0.237188	-0.384275
Br77	Br	1.684626	-0.237126	0.014646
Br78	Br	1.172471	-0.000042	0.080497
H79	H	1.488187	-0.083963	0.196323
H80	H	1.481980	0.083890	0.434062
Br81	Br	1.684706	-0.762889	0.014684
Br82	Br	1.684700	-0.888796	0.014692
Br83	Br	1.769297	-0.356935	0.099258
H84	H	1.331560	-0.874327	-0.338263
H85	H	1.331464	-0.125776	-0.338341
H86	H	1.488295	0.083891	0.196382
Br87	Br	1.285559	-0.762942	-0.384194
Br88	Br	1.200841	-0.482882	-0.468808
Br89	Br	1.200820	-0.356993	-0.468803
H90	H	1.723349	-0.531672	0.053350
H91	H	1.246852	-0.628624	-0.422860
H92	H	1.246841	-0.531733	-0.422867
