data_functionalizedCrystal
_audit_creation_method	'MofGen! by Chris Wilmer'
_symmetry_space_group_name_H-M	'P1'
_symmetry_Int_Tables_number	1
_symmetry_cell_setting	triclinic
loop_
_symmetry_equiv_pos_as_xyz
  x,y,z
_cell_length_a	13.033808
_cell_length_b	14.908520
_cell_length_c	13.033109
_cell_angle_alpha	100.829980
_cell_angle_beta	89.075520
_cell_angle_gamma	100.058976
loop_
_atom_site_label
_atom_site_type_symbol
_atom_site_fract_x
_atom_site_fract_y
_atom_site_fract_z
Zn1	Zn	1.633234	-0.223517	-0.398658
Zn2	Zn	2.133234	0.276483	0.101342
Zn3	Zn	1.603439	-0.359921	-0.236802
Zn4	Zn	2.103439	0.140079	0.263198
Zn5	Zn	1.439135	-0.228445	-0.248875
Zn6	Zn	1.939135	0.271555	0.251125
Zn7	Zn	1.451181	-0.398127	-0.433357
Zn8	Zn	1.951181	0.101873	0.066643
O9	O	1.531747	-0.302503	-0.329423
O10	O	2.031747	0.197497	0.170577
O11	O	1.774234	-0.223559	-0.357613
O12	O	2.274234	0.276441	0.142387
O13	O	1.564134	-0.328553	-0.093461
O14	O	2.064134	0.171447	0.406539
O15	O	1.472311	-0.099693	-0.259275
O16	O	1.972311	0.400307	0.240725
O17	O	1.752343	-0.323775	-0.238699
O18	O	2.252343	0.176225	0.261301
O19	O	1.614915	-0.096072	-0.369320
O20	O	2.114915	0.403928	0.130680
O21	O	1.443420	-0.231958	-0.102330
O22	O	1.943420	0.268042	0.397670
O23	O	1.295782	-0.269005	-0.292921
O24	O	1.795782	0.230995	0.207079
O25	O	1.492841	-0.388892	-0.573697
O26	O	1.992841	0.111108	-0.073697
O27	O	1.304631	-0.393670	-0.428459
O28	O	1.804631	0.106330	0.071541
O29	O	1.626595	-0.260606	-0.548204
O30	O	2.126595	0.239394	-0.048204
O31	O	1.575814	-0.493088	-0.272345
O32	O	2.075814	0.006912	0.227655
O33	O	1.463950	-0.521157	-0.416753
O34	O	1.963950	-0.021157	0.083247
C35	C	1.262622	-0.336019	-0.365766
C36	C	1.762622	0.163981	0.134234
C37	C	1.147491	-0.350382	-0.381340
C38	C	1.647491	0.149618	0.118660
C39	C	0.972778	-0.309868	-0.337412
C40	C	1.472778	0.190132	0.162588
C41	C	1.091772	-0.295024	-0.321312
C42	C	1.591772	0.204976	0.178688
C43	C	1.517987	-0.540336	-0.347023
C44	C	2.017987	-0.040336	0.152977
C45	C	1.512199	-0.642073	-0.354574
C46	C	2.012199	-0.142073	0.145426
C47	C	1.617955	-0.803952	-0.218480
C48	C	2.117955	-0.303952	0.281520
C49	C	1.612520	-0.899542	-0.225571
C50	C	2.112520	-0.399542	0.274429
C51	C	1.495900	-0.928847	-0.375851
C52	C	1.995900	-0.428847	0.124149
C53	C	1.501335	-0.833256	-0.368760
C54	C	2.001335	-0.333256	0.131240
C55	C	1.562363	-0.770811	-0.290071
C56	C	2.062363	-0.270811	0.209929
C57	C	1.567792	-0.675219	-0.282976
C58	C	2.067792	-0.175219	0.217024
C59	C	1.451178	-0.704525	-0.433260
C60	C	1.951178	-0.204525	0.066740
C61	C	1.445743	-0.800116	-0.440351
C62	C	1.945743	-0.300116	0.059649
C63	C	1.801924	-0.268856	-0.292939
C64	C	2.301924	0.231144	0.207061
C65	C	1.917057	-0.254517	-0.277391
C66	C	2.417057	0.245483	0.222609
C67	C	1.564385	-0.328461	-0.599584
C68	C	2.064385	0.171539	-0.099584
C69	C	1.578293	-0.339523	-0.714710
C70	C	2.078293	0.160477	-0.214710
C71	C	1.545593	-0.063739	-0.311774
C72	C	2.045593	0.436261	0.188226
C73	C	1.551493	0.038007	-0.304253
C74	C	2.051493	0.538007	0.195747
C75	C	1.524767	-0.296662	-0.770426
C76	C	2.024767	0.203338	-0.270426
C77	C	1.539141	-0.308094	-0.889415
C78	C	2.039141	0.191906	-0.389415
C79	C	1.499300	-0.276571	-0.060301
C80	C	1.999300	0.223429	0.439699
C81	C	1.485608	-0.265226	0.054871
C82	C	1.985608	0.234774	0.554871
H83	H	0.932388	-0.368249	-0.400713
H84	H	1.432388	0.131751	0.099287
F85	F	1.144553	-0.218718	-0.238556
F86	F	1.644553	0.281282	0.261444
F87	F	1.612947	-0.367130	-0.942200
F88	F	2.112947	0.132870	-0.442200
F89	F	1.094711	-0.426690	-0.464095
F90	F	1.594711	0.073310	0.035905
F91	F	1.391997	-0.669249	-0.509447
F92	F	1.891997	-0.169249	-0.009447
H93	H	1.446221	-0.979704	-0.439921
H94	H	1.946221	-0.479704	0.060079
H95	H	1.396058	-0.850970	-0.504419
H96	H	1.896058	-0.350970	-0.004419
H97	H	1.429134	-0.220066	-0.904744
H98	H	1.929134	0.279934	-0.404744
F99	F	1.652095	-0.398556	-0.767500
F100	F	2.152095	0.101444	-0.267500
F101	F	1.450971	-0.237624	-0.717635
F102	F	1.950971	0.262376	-0.217635
H103	H	0.957446	-0.196143	-0.214083
H104	H	1.457446	0.303857	0.285917
H105	H	1.617482	-0.624377	-0.218901
H106	H	2.117482	-0.124377	0.281099
H107	H	1.667639	-0.753108	-0.154402
H108	H	2.167639	-0.253108	0.345598
F109	F	1.671691	-0.934809	-0.149376
F110	F	2.171691	-0.434809	0.350624
