data_functionalizedCrystal
_audit_creation_method	'MofGen! by Chris Wilmer'
_symmetry_space_group_name_H-M	'P1'
_symmetry_Int_Tables_number	1
_symmetry_cell_setting	triclinic
loop_
_symmetry_equiv_pos_as_xyz
  x,y,z
_cell_length_a	19.121102
_cell_length_b	25.639239
_cell_length_c	19.120904
_cell_angle_alpha	87.589896
_cell_angle_beta	89.911827
_cell_angle_gamma	87.592882
loop_
_atom_site_label
_atom_site_type_symbol
_atom_site_fract_x
_atom_site_fract_y
_atom_site_fract_z
Zn1	Zn	1.054765	-0.255751	0.442042
Zn2	Zn	1.059658	-0.339618	0.324799
Zn3	Zn	0.942536	-0.248315	0.319827
Zn4	Zn	0.937469	-0.339266	0.437001
O5	O	0.998607	-0.295738	0.380917
O6	O	1.153518	-0.270136	0.430680
O7	O	1.048290	-0.324541	0.226035
O8	O	0.957496	-0.176139	0.336067
O9	O	1.157113	-0.331752	0.344542
O10	O	1.039950	-0.181603	0.425859
O11	O	0.962241	-0.257461	0.222382
O12	O	0.843760	-0.257121	0.331180
O13	O	0.948861	-0.331153	0.535775
O14	O	0.840037	-0.323942	0.417267
O15	O	1.035037	-0.269795	0.539478
O16	O	1.043377	-0.412733	0.339654
O17	O	0.953605	-0.412475	0.422089
C18	C	0.816461	-0.289687	0.373137
C19	C	0.738537	-0.287111	0.369826
C20	C	0.700012	-0.320740	0.413021
C21	C	0.626794	-0.318313	0.409912
C22	C	0.592104	-0.282260	0.363605
C23	C	0.630634	-0.248627	0.320408
C24	C	0.703850	-0.251052	0.323520
C25	C	0.371134	-0.273194	0.351972
C26	C	0.297913	-0.270773	0.348862
C27	C	0.294078	-0.340458	0.438367
C28	C	0.367296	-0.342882	0.441472
C29	C	0.405820	-0.309247	0.398278
C30	C	0.517264	-0.279779	0.360425
C31	C	0.480658	-0.311726	0.401462
C32	C	0.998491	-0.431575	0.380880
C33	C	0.998504	-0.489690	0.380890
C34	C	1.045465	-0.850185	0.338075
C35	C	1.045491	-0.904791	0.338085
O36	O	1.085298	-0.933135	0.301642
N37	N	0.998728	-0.931982	0.380969
C38	C	0.951940	-0.904565	0.423850
O39	O	0.912167	-0.932708	0.460327
C40	C	0.951917	-0.849961	0.423843
C41	C	0.998679	-0.822772	0.380951
C42	C	1.092223	-0.822997	0.295188
C43	C	1.092195	-0.768395	0.295176
C44	C	1.045409	-0.740982	0.338052
C45	C	0.998651	-0.768171	0.380940
C46	C	0.905133	-0.822546	0.466727
C47	C	0.905115	-0.767938	0.466716
C48	C	0.951876	-0.740749	0.423825
C49	C	0.951837	-0.686156	0.423805
N50	N	0.998600	-0.658965	0.380921
C51	C	1.045386	-0.686378	0.338045
C52	C	0.951992	-1.019238	0.423863
C53	C	0.952011	-1.073841	0.423867
C54	C	1.045564	-1.074063	0.338103
C55	C	1.045541	-1.019459	0.338096
C56	C	0.998756	-0.992047	0.380980
C57	C	1.045324	-0.571710	0.338024
C58	C	1.045290	-0.517103	0.338014
C59	C	0.951740	-0.516886	0.423780
C60	C	0.951771	-0.571488	0.423788
C61	C	0.998569	-0.598899	0.380907
O62	O	0.912052	-0.657777	0.460232
O63	O	1.085159	-0.658229	0.301581
C64	C	1.181464	-0.301813	0.388728
C65	C	1.259387	-0.304401	0.392057
C66	C	0.990838	-0.301264	0.563775
C67	C	0.987527	-0.303619	0.641698
C68	C	0.998742	-0.159371	0.380971
C69	C	0.998800	-0.101259	0.380993
C70	C	1.006386	-0.290196	0.198772
C71	C	1.009833	-0.287698	0.120856
C72	C	1.030837	-0.272781	0.680236
C73	C	1.027718	-0.274992	0.753453
C74	C	0.981292	-0.308044	0.788130
C75	C	0.937977	-0.338883	0.749587
C76	C	0.941093	-0.336669	0.676372
C77	C	0.969635	-0.316324	1.009097
C78	C	0.966523	-0.318536	1.082318
C79	C	1.056263	-0.254644	1.086178
C80	C	1.059378	-0.252436	1.012961
C81	C	1.016061	-0.283273	0.974424
C82	C	0.978104	-0.310306	0.862970
C83	C	1.019246	-0.281008	0.899586
H84	H	0.595430	-0.345698	0.445086
O85	O	1.090689	-0.598389	0.296340
C86	C	1.104270	-0.657494	0.202093
C87	C	1.052818	-0.627315	0.249259
H88	H	1.073671	-0.680878	0.164007
H89	H	1.139533	-0.685239	0.235848
H90	H	1.137701	-0.628671	0.171474
H91	H	1.019341	-0.656099	0.279887
H92	H	1.017603	-0.599562	0.215467
O93	O	1.137784	-0.849634	0.253660
C94	C	1.232917	-0.914035	0.248409
C95	C	1.181345	-0.883911	0.295514
H96	H	1.268140	-0.941763	0.282228
H97	H	1.266374	-0.885221	0.217805
H98	H	1.202375	-0.937449	0.210310
H99	H	1.211831	-0.860497	0.333654
H100	H	1.147888	-0.912752	0.326069
H101	H	1.097185	-0.225523	0.984732
O102	O	0.906331	-0.490312	0.465532
C103	C	0.867190	-0.476034	0.583306
C104	C	0.918636	-0.506177	0.536095
H105	H	0.877130	-0.488841	0.640367
H106	H	0.811180	-0.484572	0.568607
H107	H	0.875204	-0.432339	0.575890
H108	H	0.910685	-0.549879	0.543486
H109	H	0.974628	-0.497595	0.550805
O110	O	0.927623	-0.346354	0.971710
C111	C	0.894393	-0.433472	0.947863
C112	C	0.942033	-0.399526	0.990236
H113	H	0.906016	-0.476467	0.962836
H114	H	0.904580	-0.426261	0.889566
H115	H	0.837271	-0.422811	0.959852
H116	H	0.999171	-0.410166	0.978306
H117	H	0.931786	-0.406741	1.048521
H118	H	0.395536	-0.372241	0.479179
H119	H	0.913696	-0.593627	0.458716
H120	H	1.083618	-0.997325	0.303171
O121	O	0.733596	-0.355778	0.458066
C122	C	0.722057	-0.424657	0.546489
C123	C	0.683937	-0.384995	0.495516
H124	H	0.681926	-0.448297	0.576770
H125	H	0.754781	-0.402966	0.584709
H126	H	0.757696	-0.452097	0.515684
H127	H	0.648263	-0.357544	0.526263
H128	H	0.651258	-0.406719	0.457295
H129	H	1.130274	-0.746261	0.260252
H130	H	0.402492	-0.245810	0.316795
H131	H	0.735217	-0.223665	0.288350
O132	O	1.091037	-1.100782	0.296570
C133	C	1.132605	-1.185014	0.258672
C134	C	1.081057	-1.154817	0.305719
H135	H	1.124545	-1.228705	0.266042
H136	H	1.188585	-1.176496	0.273509
H137	H	1.122815	-1.172189	0.201592
H138	H	1.090783	-1.167624	0.362812
H139	H	1.025095	-1.163336	0.290822
H140	H	1.091528	-0.229538	1.117562
O141	O	0.596828	-0.213648	0.275446
C142	C	0.485736	-0.179004	0.231018
C143	C	0.523930	-0.218651	0.281958
H144	H	0.426791	-0.183028	0.236275
H145	H	0.502462	-0.186882	0.175058
H146	H	0.499685	-0.137721	0.244045
H147	H	0.510000	-0.259950	0.268995
H148	H	0.507201	-0.210729	0.337903
O149	O	0.906469	-0.992691	0.465536
C150	C	0.813708	-0.998248	0.550631
C151	C	0.865212	-1.028372	0.503458
H152	H	0.780349	-1.027083	0.581314
H153	H	0.778383	-0.970545	0.516880
H154	H	0.844303	-0.974810	0.588659
H155	H	0.834675	-1.051839	0.465423
H156	H	0.900537	-1.056043	0.537253
H157	H	1.068644	-0.245869	0.652007
O158	O	0.906513	-1.100267	0.465424
C159	C	0.811510	-1.159152	0.470760
C160	C	0.862982	-1.129246	0.423609
H161	H	0.776312	-1.182597	0.436974
H162	H	0.778018	-1.130196	0.501386
H163	H	0.842133	-1.186832	0.508840
H164	H	0.832415	-1.101565	0.385490
H165	H	0.896475	-1.158232	0.393033
O166	O	0.256548	-0.373072	0.480300
C167	C	0.142056	-0.400242	0.515150
C168	C	0.184471	-0.363269	0.467628
H169	H	0.083775	-0.392337	0.504911
H170	H	0.154017	-0.393309	0.572327
H171	H	0.156984	-0.442483	0.503358
H172	H	0.169568	-0.321014	0.479358
H173	H	0.172507	-0.370247	0.410466
O174	O	0.921516	-0.350698	1.116044
C175	C	0.908483	-0.423441	1.198319
C176	C	0.959529	-0.387067	1.160156
H177	H	0.939195	-0.452847	1.234003
H178	H	0.878063	-0.445141	1.158236
H179	H	0.870389	-0.399236	1.231007
H180	H	0.997666	-0.411234	1.127469
H181	H	0.989898	-0.365365	1.200275
H182	H	0.508906	-0.341078	0.439168
O183	O	0.859685	-0.848869	0.508460
C184	C	0.766877	-0.842861	0.593506
C185	C	0.818322	-0.812987	0.546285
H186	H	0.733411	-0.813863	0.624088
H187	H	0.797451	-0.870550	0.631615
H188	H	0.731648	-0.866290	0.559729
H189	H	0.853563	-0.789529	0.580005
H190	H	0.787704	-0.785330	0.508171
O191	O	0.892916	-0.371061	0.783196
C192	C	0.857871	-0.459544	0.804138
C193	C	0.908936	-0.423158	0.766024
H194	H	0.870814	-0.501673	0.790280
H195	H	0.801952	-0.448091	0.787316
H196	H	0.863073	-0.455802	0.863083
H197	H	0.903796	-0.426881	0.707072
H198	H	0.964834	-0.434621	0.782904
O199	O	0.483530	-0.244829	0.315372
C200	C	0.404812	-0.232081	0.217273
C201	C	0.442993	-0.271723	0.268231
H202	H	0.372017	-0.253809	0.179157
H203	H	0.444885	-0.208463	0.186875
H204	H	0.369229	-0.204618	0.248101
H205	H	0.478574	-0.299220	0.237457
H206	H	0.402882	-0.295304	0.298631
O207	O	1.069862	-0.245020	0.790782
C208	C	1.159177	-0.181397	0.786884
C209	C	1.111497	-0.215322	0.744523
H210	H	1.192841	-0.157369	0.749501
H211	H	1.194396	-0.207632	0.822704
H212	H	1.125550	-0.154046	0.819813
H213	H	1.145070	-0.242677	0.711554
H214	H	1.076274	-0.189056	0.708747
H215	H	0.905819	-0.361775	0.644995
O216	O	0.932911	-0.342355	0.896619
C217	C	0.812687	-0.364474	0.913881
C218	C	0.863790	-0.328135	0.875738
H219	H	0.756793	-0.352998	0.897002
H220	H	0.817838	-0.360753	0.972836
H221	H	0.825608	-0.406604	0.900008
H222	H	0.850902	-0.285991	0.889554
H223	H	0.858629	-0.331902	0.816793
H224	H	1.057043	-0.254095	0.871348
O225	O	0.264285	-0.235771	0.303791
C226	C	0.246875	-0.205915	0.183656
C227	C	0.285024	-0.245574	0.234614
H228	H	0.263617	-0.213833	0.127713
H229	H	0.260787	-0.164613	0.196633
H230	H	0.187933	-0.209962	0.188899
H231	H	0.343975	-0.241574	0.229398
H232	H	0.271055	-0.286860	0.221622
H233	H	1.083369	-0.494968	0.303084
H234	H	0.867017	-0.745622	0.501639
