data_functionalizedCrystal
_audit_creation_method	'MofGen! by Chris Wilmer'
_symmetry_space_group_name_H-M	'P1'
_symmetry_Int_Tables_number	1
_symmetry_cell_setting	triclinic
loop_
_symmetry_equiv_pos_as_xyz
  x,y,z
_cell_length_a	16.109301
_cell_length_b	13.101018
_cell_length_c	14.044220
_cell_angle_alpha	86.335600
_cell_angle_beta	88.325179
_cell_angle_gamma	93.358643
loop_
_atom_site_label
_atom_site_type_symbol
_atom_site_fract_x
_atom_site_fract_y
_atom_site_fract_z
O1	O	1.116385	0.085152	0.116611
O2	O	0.875452	0.085169	0.131772
O3	O	0.992301	0.085150	-0.013792
O4	O	0.999535	0.085170	0.262174
O5	O	0.983908	-0.085279	-0.003338
O6	O	0.867058	-0.085260	0.142225
O7	O	1.107991	-0.085277	0.127064
Zn8	Zn	0.986192	-0.112328	0.136304
Zn9	Zn	0.997251	0.112220	0.122532
O10	O	0.991141	-0.085259	0.272627
C11	C	0.840234	-0.000044	0.136384
C12	C	0.747802	-0.000038	0.134542
C13	C	0.531637	-0.000044	0.216636
C14	C	0.444787	-0.000051	0.214899
C15	C	0.451812	-0.000059	0.042192
C16	C	0.538660	-0.000059	0.043931
C17	C	0.578570	-0.000047	0.131155
C18	C	0.404872	-0.000053	0.127680
C19	C	0.310706	-0.000060	0.125796
C20	C	0.672743	-0.000041	0.133040
N21	N	0.978650	-0.265576	0.145703
C22	C	1.015054	-0.525491	0.100334
C23	C	0.968397	-0.474611	0.158491
C24	C	0.974103	-0.358293	0.151374
C25	C	1.009349	-0.641819	0.107450
C26	C	1.143208	-0.000062	0.122451
C27	C	1.235641	-0.000062	0.124293
C28	C	0.984938	-0.000064	-0.043878
C29	C	0.975494	-0.000065	-0.149101
N30	N	1.004798	0.265467	0.113125
C31	C	0.958230	-0.000049	-0.341758
C32	C	1.025209	-0.000050	-0.399412
C33	C	1.015603	-0.000042	-0.506613
C34	C	0.967835	-0.000058	-0.234547
C35	C	0.998504	-0.000042	0.302714
C36	C	1.007948	-0.000035	0.407936
H37	H	0.406578	-0.000050	0.284507
C38	C	0.589734	0.000100	-0.048821
C39	C	0.644129	0.087767	-0.058228
C40	C	0.691198	0.087938	-0.143648
H41	H	0.553629	0.000153	-0.101099
H42	H	0.620883	-0.059303	-0.048096
H43	H	0.612982	0.147155	-0.058961
H44	H	0.680251	0.087733	-0.005971
H45	H	0.722348	0.028535	-0.142923
H46	H	0.655087	0.087988	-0.195919
H47	H	0.728117	0.147414	-0.150037
C48	C	0.872143	0.000165	-0.383248
C49	C	0.833391	0.087857	-0.357839
C50	C	0.754094	0.088093	-0.396066
H51	H	0.839771	-0.059199	-0.358841
H52	H	0.877016	0.000224	-0.450832
H53	H	0.828515	0.087790	-0.290269
H54	H	0.865739	0.147236	-0.382246
H55	H	0.758966	0.088151	-0.463649
H56	H	0.721728	0.028724	-0.371655
H57	H	0.727793	0.147595	-0.378838
H58	H	0.924167	-0.518409	0.213626
H59	H	1.059282	-0.481698	0.045204
C60	C	0.574813	-0.000093	0.311434
C61	C	0.515116	-0.000120	0.385924
C62	C	0.554854	-0.000182	0.473268
H63	H	0.611468	0.059323	0.312199
H64	H	0.605600	-0.059549	0.319397
H65	H	0.484342	0.059330	0.377964
H66	H	0.478458	-0.059532	0.385190
H67	H	0.585642	-0.059639	0.481231
H68	H	0.591508	0.059235	0.474023
H69	H	0.514356	-0.000211	0.523820
C70	C	1.111218	-0.000120	-0.357696
C71	C	1.103772	-0.000155	-0.258117
C72	C	1.182980	-0.000237	-0.219650
H73	H	1.143570	0.059291	-0.382029
H74	H	1.137643	-0.059581	-0.374807
H75	H	1.077358	0.059299	-0.241014
H76	H	1.071435	-0.059563	-0.233758
H77	H	1.209406	-0.059698	-0.236761
H78	H	1.215326	0.059175	-0.243990
H79	H	1.177938	-0.000271	-0.152082
H80	H	0.419305	-0.000075	-0.028822
