data_functionalizedCrystal
_audit_creation_method	'MofGen! by Chris Wilmer'
_symmetry_space_group_name_H-M	'P1'
_symmetry_Int_Tables_number	1
_symmetry_cell_setting	triclinic
loop_
_symmetry_equiv_pos_as_xyz
  x,y,z
_cell_length_a	16.992701
_cell_length_b	23.532357
_cell_length_c	15.455313
_cell_angle_alpha	92.642146
_cell_angle_beta	87.136501
_cell_angle_gamma	86.747731
loop_
_atom_site_label
_atom_site_type_symbol
_atom_site_fract_x
_atom_site_fract_y
_atom_site_fract_z
O1	O	1.042878	0.118375	-0.072155
O2	O	1.542878	0.618375	0.427845
O3	O	0.814603	0.117052	-0.072155
O4	O	1.314603	0.617052	0.427845
O5	O	0.935644	0.035123	-0.072137
O6	O	1.435644	0.535123	0.427863
O7	O	0.921838	0.200304	-0.072172
O8	O	1.421838	0.700304	0.427828
O9	O	0.928723	0.039787	0.072124
O10	O	1.428723	0.539787	0.572124
O11	O	0.807682	0.121717	0.072106
O12	O	1.307682	0.621717	0.572106
O13	O	1.035957	0.123039	0.072106
O14	O	1.535957	0.623039	0.572106
Cu15	Cu	0.921187	0.122804	0.085279
Cu16	Cu	1.421187	0.622804	0.585279
Cu17	Cu	0.929373	0.117288	-0.085327
Cu18	Cu	1.429373	0.617288	0.414673
O19	O	0.914916	0.204969	0.072089
O20	O	1.414916	0.704969	0.572089
C21	C	0.781944	0.117681	-0.000024
C22	C	1.281944	0.617681	0.499976
C23	C	0.694940	0.112598	-0.000023
C24	C	1.194940	0.612598	0.499977
C25	C	0.206255	0.078447	-0.000019
C26	C	0.706255	0.578447	0.499981
C27	C	0.288003	0.083227	-0.000015
C28	C	0.788003	0.583227	0.499985
C29	C	0.319114	0.137054	-0.000030
C30	C	0.819114	0.637054	0.499970
C31	C	0.268473	0.186104	-0.000041
C32	C	0.768473	0.686104	0.499959
C33	C	0.186726	0.181323	-0.000039
C34	C	0.686726	0.681323	0.499961
C35	C	0.562552	0.156868	-0.000032
C36	C	1.062552	0.656868	0.499968
C37	C	0.644305	0.161644	-0.000037
C38	C	1.144305	0.661644	0.499963
C39	C	0.663830	0.058767	-0.000009
C40	C	1.163830	0.558767	0.499991
C41	C	0.582081	0.053991	-0.000012
C42	C	1.082081	0.553991	0.499988
C43	C	0.531447	0.103041	-0.000018
C44	C	1.031447	0.603041	0.499982
N45	N	0.402674	0.141941	-0.000029
N46	N	0.902674	0.641941	0.499971
N47	N	0.447889	0.098153	-0.000014
N48	N	0.947889	0.598153	0.499986
C49	C	0.931838	0.016222	-0.000004
C50	C	1.431838	0.516222	0.499996
C51	C	0.930799	-0.047048	0.000005
C52	C	1.430799	0.452952	0.500005
C53	C	0.928055	-0.441927	-0.078679
C54	C	1.428055	0.058073	0.421321
C55	C	0.927068	-0.501376	-0.078684
C56	C	1.427068	-0.001376	0.421316
O57	O	0.929740	-0.534281	-0.145561
O58	O	1.429740	-0.034281	0.354439
N59	N	0.922806	-0.528569	-0.000048
N60	N	1.422806	-0.028569	0.499952
C61	C	0.919522	-0.496309	0.078597
C62	C	1.419522	0.003691	0.578597
O63	O	0.915805	-0.524898	0.145483
O64	O	1.415805	-0.024898	0.645483
C65	C	0.920503	-0.436862	0.078601
C66	C	1.420503	0.063138	0.578601
C67	C	0.924774	-0.409672	-0.000039
C68	C	1.424774	0.090328	0.499961
C69	C	0.932324	-0.414738	-0.157313
C70	C	1.432324	0.085262	0.342687
C71	C	0.933313	-0.355293	-0.157308
C72	C	1.433313	0.144707	0.342692
C73	C	0.930032	-0.323038	-0.078668
C74	C	1.430032	0.176962	0.421332
C75	C	0.925762	-0.350228	-0.000034
C76	C	1.425762	0.149772	0.499966
C77	C	0.917214	-0.404603	0.157246
C78	C	1.417214	0.095397	0.657246
C79	C	0.918195	-0.345151	0.157244
C80	C	1.418195	0.154849	0.657244
C81	C	0.922466	-0.317962	0.078603
C82	C	1.422466	0.182038	0.578603
C83	C	0.923469	-0.258529	0.078611
C84	C	1.423469	0.241471	0.578611
N85	N	0.927732	-0.231336	-0.000025
N86	N	1.427732	0.268664	0.499975
C87	C	0.931013	-0.263591	-0.078664
C88	C	1.431013	0.236409	0.421336
C89	C	0.917460	-0.621154	0.078583
C90	C	1.417460	-0.121154	0.578583
C91	C	0.916485	-0.680601	0.078580
C92	C	1.416485	-0.180601	0.578580
C93	C	0.924029	-0.685663	-0.078702
C94	C	1.424029	-0.185663	0.421298
C95	C	0.925011	-0.626215	-0.078698
C96	C	1.425011	-0.126215	0.421302
C97	C	0.921723	-0.593961	-0.000053
C98	C	1.421723	-0.093961	0.499947
C99	C	0.933089	-0.138753	-0.078647
C100	C	1.433089	0.361247	0.421353
C101	C	0.934080	-0.079303	-0.078635
C102	C	1.434080	0.420697	0.421365
C103	C	0.926531	-0.074246	0.078646
C104	C	1.426531	0.425754	0.578646
C105	C	0.925544	-0.133691	0.078634
C106	C	1.425544	0.366309	0.578634
C107	C	0.928821	-0.165943	-0.000019
C108	C	1.428821	0.334057	0.499981
O109	O	0.920797	-0.225586	0.145454
O110	O	1.420797	0.274414	0.645454
O111	O	0.934719	-0.234994	-0.145538
O112	O	1.434719	0.265006	0.354462
C113	C	1.068616	0.122411	-0.000026
C114	C	1.568616	0.622411	0.499974
C115	C	1.155620	0.127493	-0.000033
C116	C	1.655620	0.627493	0.499967
C117	C	0.918722	0.223870	-0.000047
C118	C	1.418722	0.723870	0.499953
C119	C	0.919762	0.287140	-0.000060
C120	C	1.419762	0.787140	0.499940
N121	N	0.915436	0.126684	0.205273
N122	N	1.415436	0.626684	0.705273
N123	N	0.935131	0.113404	-0.205322
N124	N	1.435131	0.613404	0.294678
C125	C	0.966876	0.091892	0.250675
C126	C	1.466876	0.591892	0.750675
C127	C	0.962533	0.094831	0.341482
C128	C	1.462533	0.594831	0.841482
C129	C	0.906754	0.132566	0.386886
C130	C	1.406754	0.632566	0.886886
C131	C	0.855309	0.167360	0.341478
C132	C	1.355309	0.667360	0.841478
C133	C	0.859648	0.164417	0.250672
C134	C	1.359648	0.664417	0.750672
C135	C	0.888024	0.145254	0.658465
C136	C	1.388024	0.645254	1.158465
C137	C	0.883691	0.148196	0.749277
C138	C	1.383691	0.648196	1.249277
C139	C	0.990915	0.075666	0.749275
C140	C	1.490915	0.575666	1.249275
C141	C	0.995252	0.072729	0.658467
C142	C	1.495252	0.572729	1.158467
C143	C	0.943804	0.107520	0.613067
C144	C	1.443804	0.607520	1.113067
N145	N	0.902316	0.135573	0.479706
N146	N	1.402316	0.635573	0.979706
N147	N	0.948239	0.104510	0.520249
N148	N	1.448239	0.604510	1.020249
H149	H	0.521335	0.196808	-0.000042
H150	H	1.021335	0.696808	0.499958
N151	N	0.912859	-0.432357	0.237585
N152	N	1.412859	0.067643	0.737585
N153	N	0.909927	-0.403540	0.307786
N154	N	1.409927	0.096460	0.807786
H155	H	0.906851	-0.423140	0.364531
H156	H	1.406851	0.076860	0.864531
H157	H	0.928487	-0.604082	-0.142734
H158	H	1.428487	-0.104082	0.357266
N159	N	1.015044	0.059274	0.387872
N160	N	1.515044	0.559274	0.887872
N161	N	1.011139	0.061885	0.468948
N162	N	1.511139	0.561885	0.968948
H163	H	1.048212	0.036761	0.501712
H164	H	1.548212	0.536761	1.001712
H165	H	0.913019	-0.702733	0.142617
H166	H	1.413019	-0.202733	0.642617
N167	N	1.052367	0.034284	0.612105
N168	N	1.552367	0.534284	1.112105
N169	N	1.098380	0.003290	0.652654
N170	N	1.598380	0.503290	1.152654
H171	H	1.138770	-0.023823	0.619911
H172	H	1.638770	0.476177	1.119911
N173	N	0.938448	-0.051522	-0.158961
N174	N	1.438448	0.448478	0.341039
N175	N	0.995100	-0.021657	-0.176505
N176	N	1.495100	0.478343	0.323495
H177	H	0.998185	-0.002037	-0.233233
H178	H	1.498185	0.497963	0.266767
H179	H	0.329227	0.043288	-0.000000
H180	H	0.829227	0.543288	0.500000
N181	N	0.676087	0.216630	-0.000030
N182	N	1.176087	0.716630	0.499970
N183	N	0.716611	0.232735	0.060777
N184	N	1.216611	0.732735	0.560777
H185	H	0.739060	0.271567	0.060781
H186	H	1.239060	0.771567	0.560781
H187	H	0.817759	0.192747	0.213707
H188	H	1.317759	0.692747	0.713707
N189	N	0.927365	-0.718607	-0.159041
N190	N	1.427365	-0.218607	0.340959
N191	N	0.931167	-0.694329	-0.229252
N192	N	1.431167	-0.194329	0.270748
H193	H	0.933522	-0.717596	-0.285988
H194	H	1.433522	-0.217596	0.214012
N195	N	0.550318	-0.000997	-0.000004
N196	N	1.050318	0.499003	0.499996
N197	N	0.595538	-0.044785	0.000004
N198	N	1.095538	0.455215	0.500004
H199	H	0.573106	-0.083622	0.000005
H200	H	1.073106	0.416378	0.500005
N201	N	0.134990	0.231417	-0.000065
N202	N	0.634990	0.731417	0.499935
N203	N	0.062005	0.227142	-0.000063
N204	N	0.562005	0.727142	0.499937
H205	H	0.025465	0.262522	-0.000078
H206	H	0.525465	0.762522	0.499922
H207	H	0.293810	0.229931	-0.000049
H208	H	0.793810	0.729931	0.499951
H209	H	0.935753	-0.165006	-0.142695
H210	H	1.435753	0.334994	0.357305
N211	N	0.715563	0.008672	-0.000003
N212	N	1.215563	0.508672	0.499997
N213	N	0.788550	0.012945	-0.000007
N214	N	1.288550	0.512945	0.499993
H215	H	0.825088	-0.022436	-0.000001
H216	H	1.325088	0.477564	0.499999
N217	N	0.937672	-0.327534	-0.237646
N218	N	1.437672	0.172466	0.262354
N219	N	0.940598	-0.356349	-0.307848
N220	N	1.440598	0.143651	0.192152
H221	H	0.943674	-0.336748	-0.364592
H222	H	1.443674	0.163252	0.135408
H223	H	0.934994	-0.440993	-0.221355
H224	H	1.434994	0.059007	0.278645
N225	N	0.914821	-0.312204	0.237580
N226	N	1.414821	0.187796	0.737580
N227	N	0.856922	-0.314409	0.290225
N228	N	1.356922	0.185591	0.790225
H229	H	0.854538	-0.291140	0.346963
H230	H	1.354538	0.208860	0.846963
H231	H	0.846135	0.173583	0.621507
H232	H	1.346135	0.673583	1.121507
H233	H	0.180931	0.034615	-0.000012
H234	H	0.680931	0.534615	0.499988
N235	N	0.798330	0.205898	0.387867
N236	N	1.298330	0.705898	0.887867
N237	N	0.794462	0.208521	0.468943
N238	N	1.294462	0.708521	0.968943
H239	H	0.754221	0.235740	0.501706
H240	H	1.254221	0.735740	1.001706
N241	N	0.914097	-0.588208	0.158923
N242	N	1.414097	-0.088208	0.658923
N243	N	0.856203	-0.590418	0.211575
N244	N	1.356203	-0.090418	0.711575
H245	H	0.853825	-0.567153	0.268315
H246	H	1.353825	-0.067153	0.768315
N247	N	0.921189	-0.161459	0.158969
N248	N	1.421189	0.338541	0.658969
N249	N	0.918260	-0.132650	0.229177
N250	N	1.418260	0.367350	0.729177
H251	H	0.915175	-0.152256	0.285916
H252	H	1.415175	0.347744	0.785916
N253	N	0.923188	-0.041284	0.158963
N254	N	1.423188	0.458716	0.658963
N255	N	0.924069	0.011793	0.158946
N256	N	1.424069	0.511793	0.658946
H257	H	0.921704	0.035075	0.215671
H258	H	1.421704	0.535075	0.715671
N259	N	1.023817	0.053311	0.204314
N260	N	1.523817	0.553311	0.704314
N261	N	1.069708	0.022225	0.244866
N262	N	1.569708	0.522225	0.744866
H263	H	1.109906	-0.005039	0.212127
H264	H	1.609906	0.494961	0.712127
H265	H	1.032800	0.047340	0.786248
H266	H	1.532800	0.547340	1.286248
H267	H	0.838266	0.178926	0.786240
H268	H	1.338266	0.678926	1.286240
