data_functionalizedCrystal
_audit_creation_method	'MofGen! by Chris Wilmer'
_symmetry_space_group_name_H-M	'P1'
_symmetry_Int_Tables_number	1
_symmetry_cell_setting	triclinic
loop_
_symmetry_equiv_pos_as_xyz
  x,y,z
_cell_length_a	17.019311
_cell_length_b	17.038272
_cell_length_c	15.455313
_cell_angle_alpha	92.858370
_cell_angle_beta	83.447586
_cell_angle_gamma	87.245400
loop_
_atom_site_label
_atom_site_type_symbol
_atom_site_fract_x
_atom_site_fract_y
_atom_site_fract_z
O1	O	1.060136	0.092450	-0.151316
O2	O	0.830556	0.105958	-0.134170
O3	O	0.943981	-0.014605	-0.142634
O4	O	0.946711	0.213013	-0.142852
O5	O	0.937493	-0.007739	0.002112
O6	O	0.824068	0.112824	0.010576
O7	O	1.053648	0.099316	-0.006570
Cu8	Cu	0.938265	0.106697	0.015220
Cu9	Cu	0.945938	0.098577	-0.155959
O10	O	0.940223	0.219879	0.001895
C11	C	0.797792	0.109013	-0.059592
C12	C	0.709830	0.107878	-0.053022
C13	C	0.212160	0.101672	-0.011910
C14	C	0.294809	0.102738	-0.018085
C15	C	0.339671	0.099523	-0.100075
C16	C	0.301879	0.095248	-0.175895
C17	C	0.219231	0.094188	-0.169719
C18	C	0.589391	0.102543	-0.122667
C19	C	0.672044	0.103602	-0.128837
C20	C	0.664968	0.111093	0.028974
C21	C	0.582320	0.110027	0.035142
C22	C	0.544535	0.105757	-0.040678
C23	C	0.424151	0.100610	-0.106388
C24	C	0.460055	0.104675	-0.034364
C25	C	0.938255	-0.040290	-0.070076
C26	C	0.930850	-0.127050	-0.069523
C27	C	0.998837	-0.177461	-0.074600
C28	C	0.991875	-0.258982	-0.074088
C29	C	0.916925	-0.290089	-0.068493
C30	C	0.848932	-0.239672	-0.063419
C31	C	0.855895	-0.158153	-0.063937
C32	C	0.892325	-0.535740	-0.066668
C33	C	0.885367	-0.617265	-0.066148
C34	C	1.028310	-0.636570	-0.076818
C35	C	1.035267	-0.555049	-0.077331
C36	C	0.967275	-0.504638	-0.072261
C37	C	0.909806	-0.373416	-0.067967
C38	C	0.974394	-0.421314	-0.072793
C39	C	1.086412	0.096261	-0.081149
C40	C	1.174374	0.097395	-0.087725
C41	C	0.945949	0.245563	-0.070666
C42	C	0.953354	0.332324	-0.071224
N43	N	0.932874	0.112407	0.135618
N44	N	0.951335	0.092860	-0.276358
C45	C	0.981081	0.061207	0.177414
C46	C	0.977012	0.065533	0.268526
C47	C	0.924740	0.121064	0.317839
C48	C	0.876528	0.172267	0.276036
C49	C	0.880594	0.167936	0.184926
C50	C	0.907189	0.139733	0.590730
C51	C	0.903129	0.144061	0.681846
C52	C	1.003612	0.037325	0.674329
C53	C	1.007676	0.033003	0.583218
C54	C	0.959462	0.084204	0.541423
N55	N	0.920581	0.125488	0.410969
N56	N	0.963617	0.079775	0.448295
H57	H	0.460687	0.097990	-0.173144
H58	H	0.800533	-0.117108	-0.059803
O59	O	0.182604	0.090137	-0.243426
C60	C	0.158916	0.151154	-0.376063
C61	C	0.200454	0.155822	-0.292634
H62	H	0.173319	0.204261	-0.415862
H63	H	0.180478	0.094852	-0.416512
H64	H	0.092145	0.150914	-0.357544
H65	H	0.267230	0.156093	-0.311075
H66	H	0.178828	0.212117	-0.252207
H67	H	1.047238	-0.300024	-0.078220
H68	H	0.558636	0.099063	-0.184406
H69	H	0.836960	-0.494705	-0.062539
H70	H	0.695742	0.114571	0.090702
H71	H	0.848781	-0.398752	-0.063410
H72	H	1.083666	-0.677622	-0.080948
H73	H	1.096299	-0.529728	-0.081886
H74	H	0.175639	0.104293	0.054855
H75	H	0.824329	-0.642588	-0.061577
O76	O	0.345576	0.092096	-0.255472
C77	C	0.476030	0.090451	-0.334926
C78	C	0.426642	0.094011	-0.244749
H79	H	0.541580	0.092015	-0.326287
H80	H	0.465138	0.033685	-0.372897
H81	H	0.457922	0.143080	-0.372359
H82	H	0.444721	0.041422	-0.207243
H83	H	0.437539	0.150811	-0.206844
O84	O	0.416597	0.107837	0.045347
C85	C	0.418295	0.115320	0.201224
C86	C	0.467613	0.111767	0.111007
H87	H	0.459521	0.118481	0.254333
H88	H	0.375885	0.169724	0.208378
H89	H	0.382960	0.060321	0.207743
H90	H	0.502995	0.166726	0.104426
H91	H	0.509973	0.057327	0.103892
O92	O	0.825679	0.226230	0.323807
C93	C	0.726472	0.331665	0.321636
C94	C	0.784011	0.270576	0.267435
H95	H	0.692780	0.367547	0.276082
H96	H	0.682712	0.300143	0.367410
H97	H	0.761373	0.372569	0.361551
H98	H	0.749175	0.229655	0.227468
H99	H	0.827771	0.302150	0.221716
H100	H	1.035419	-0.395983	-0.077367
O101	O	0.860284	0.189366	0.550100
C102	C	0.757950	0.201572	0.455199
C103	C	0.811005	0.145269	0.501186
H104	H	0.718106	0.165942	0.415626
H105	H	0.719840	0.241999	0.506056
H106	H	0.796675	0.238463	0.409819
H107	H	0.772341	0.108327	0.546562
H108	H	0.849121	0.104895	0.450281
H109	H	1.059870	-0.152141	-0.079150
O110	O	1.023813	0.015690	0.309029
C111	C	1.059795	-0.119076	0.334168
C112	C	1.006751	-0.062717	0.288236
H113	H	1.046008	-0.182480	0.317389
H114	H	1.124678	-0.110052	0.311426
H115	H	1.047930	-0.106410	0.407752
H116	H	1.018546	-0.075349	0.214646
H117	H	0.941886	-0.071753	0.311049
H118	H	0.325570	0.106218	0.043652
O119	O	0.776183	-0.270015	-0.057950
C120	C	0.702106	-0.387042	-0.052469
C121	C	0.784543	-0.352785	-0.058649
H122	H	0.708838	-0.453967	-0.053050
H123	H	0.665499	-0.363438	0.010652
H124	H	0.670950	-0.369077	-0.110501
H125	H	0.815766	-0.370737	-0.000662
H126	H	0.821092	-0.376388	-0.121805
H127	H	1.023650	0.015991	0.137269
H128	H	0.545799	0.112628	0.101907
H129	H	0.708569	0.100990	-0.195606
H130	H	1.050240	-0.012214	0.543069
H131	H	1.042865	-0.004360	0.708367
H132	H	0.860561	0.189284	0.721993
H133	H	0.841338	0.209629	0.150897
