data_functionalizedCrystal
_audit_creation_method	'MofGen! by Chris Wilmer'
_symmetry_space_group_name_H-M	'P1'
_symmetry_Int_Tables_number	1
_symmetry_cell_setting	triclinic
loop_
_symmetry_equiv_pos_as_xyz
  x,y,z
_cell_length_a	15.538191
_cell_length_b	12.811457
_cell_length_c	11.892113
_cell_angle_alpha	88.931388
_cell_angle_beta	95.361439
_cell_angle_gamma	65.746957
loop_
_atom_site_label
_atom_site_type_symbol
_atom_site_fract_x
_atom_site_fract_y
_atom_site_fract_z
O1	O	0.124180	1.342570	-0.043644
O2	O	0.139777	1.033068	-0.011914
O3	O	-0.005268	1.248066	-0.033950
O4	O	0.269225	1.127571	-0.021607
O5	O	-0.016002	1.240220	-0.221152
O6	O	0.129043	1.025221	-0.199116
O7	O	0.113446	1.334723	-0.230846
Zn8	Zn	0.119540	1.178727	-0.244704
Zn9	Zn	0.133683	1.189065	0.001944
O10	O	0.258491	1.119725	-0.208810
C11	C	0.133865	0.990501	-0.101553
C12	C	0.132231	0.875359	-0.089748
C13	C	0.117439	0.650447	-0.271677
C14	C	0.115903	0.542261	-0.260591
C15	C	0.127616	0.550801	-0.056491
C16	C	0.129152	0.658987	-0.067577
C17	C	0.124065	0.708806	-0.175174
C18	C	0.125607	0.816990	-0.186258
C19	C	0.137314	0.825533	0.017840
C20	C	0.135778	0.717346	0.028926
C21	C	-0.045755	1.256750	-0.128840
C22	C	-0.150401	1.294302	-0.132678
C23	C	-0.437467	0.921235	-0.094456
C24	C	-0.535801	0.956546	-0.098079
C25	C	-0.558631	1.155167	-0.118441
C26	C	-0.460296	1.119873	-0.114814
C27	C	-0.399721	1.002905	-0.102823
C28	C	-0.422550	1.201543	-0.123181
C29	C	-0.324224	1.166250	-0.119561
C30	C	-0.263643	1.049287	-0.107573
C31	C	-0.301395	0.967612	-0.099203
C32	C	-0.483127	1.318510	-0.135180
C33	C	-0.445382	1.400180	-0.143547
C34	C	-0.347053	1.364888	-0.139919
C35	C	-0.286473	1.247925	-0.127932
C36	C	-0.309302	1.446563	-0.148290
C37	C	-0.210976	1.411270	-0.144670
C38	C	-0.188147	1.212632	-0.124311
C39	C	0.298978	1.111041	-0.113917
C40	C	0.403624	1.073489	-0.110071
C41	C	0.119358	1.377290	-0.141204
C42	C	0.120992	1.492433	-0.153002
N43	N	0.109887	1.171679	-0.413035
C44	C	0.210543	1.245134	-0.657218
C45	C	0.203788	1.240219	-0.775056
C46	C	0.089617	1.156943	-0.766551
C47	C	0.096372	1.161857	-0.648713
C48	C	0.156838	1.205953	-0.594051
C49	C	0.163598	1.210860	-0.476210
C50	C	0.049423	1.127591	-0.467708
C51	C	0.042667	1.122676	-0.585546
N52	N	0.143328	1.196123	0.170274
H53	H	-0.183581	1.020554	-0.104632
H54	H	0.139915	0.676771	0.116528
C55	C	0.112119	0.704492	-0.388451
C56	C	0.193745	0.723907	-0.396440
C57	C	0.188884	0.773675	-0.504002
H58	H	0.057580	0.775316	-0.400080
H59	H	0.108007	0.654241	-0.444371
H60	H	0.197847	0.774156	-0.340537
H61	H	0.248296	0.653101	-0.384834
H62	H	0.184772	0.723424	-0.559922
H63	H	0.134342	0.844495	-0.515621
H64	H	0.244269	0.786844	-0.509441
H65	H	-0.494715	1.495415	-0.153315
C66	C	0.144654	0.888944	0.122538
C67	C	0.226944	0.908902	0.126459
C68	C	0.233735	0.967323	0.222880
H69	H	0.147520	0.843871	0.188285
H70	H	0.090576	0.960125	0.119523
H71	H	0.281009	0.837732	0.129484
H72	H	0.224096	0.953986	0.060735
H73	H	0.179657	1.038504	0.219865
H74	H	0.236598	0.922243	0.288620
H75	H	0.289564	0.980881	0.225548
C76	C	0.229095	1.258870	-0.416728
C77	C	0.175714	1.353961	-0.358497
C78	C	0.236018	1.398212	-0.303680
H79	H	0.260134	1.281601	-0.471109
H80	H	0.275168	1.201650	-0.364642
H81	H	0.129658	1.411170	-0.410577
H82	H	0.144676	1.331260	-0.304097
H83	H	0.282090	1.340992	-0.251595
H84	H	0.267053	1.420937	-0.358069
H85	H	0.199809	1.462729	-0.264156
C86	C	-0.122468	1.085607	-0.111101
C87	C	-0.133993	1.038309	-0.009537
C88	C	-0.073514	0.921301	0.002663
H89	H	-0.058469	1.076136	-0.110071
H90	H	-0.137638	1.047785	-0.172749
H91	H	-0.118816	1.076119	0.052095
H92	H	-0.197978	1.047749	-0.010544
H93	H	-0.088684	0.883479	-0.058985
H94	H	-0.009519	0.911841	0.003690
H95	H	-0.081331	0.889192	0.071569
C96	C	0.276045	1.293136	-0.597732
C97	C	0.222668	1.388231	-0.539502
C98	C	0.282979	1.432470	-0.484681
H99	H	0.307090	1.315860	-0.652111
H100	H	0.322112	1.235912	-0.545645
H101	H	0.176618	1.445443	-0.591584
H102	H	0.191625	1.365536	-0.485106
H103	H	0.329046	1.375246	-0.432594
H104	H	0.314021	1.455188	-0.539067
H105	H	0.246773	1.496990	-0.445158
C106	C	0.262044	1.282959	-0.843514
C107	C	0.237545	1.399124	-0.826589
C108	C	0.291200	1.438535	-0.889622
H109	H	0.249415	1.273837	-0.921553
H110	H	0.327695	1.240024	-0.819696
H111	H	0.171909	1.442046	-0.850413
H112	H	0.250177	1.408277	-0.748563
H113	H	0.356851	1.395599	-0.865804
H114	H	0.278567	1.429405	-0.967657
H115	H	0.274592	1.517353	-0.878139
C116	C	-0.008715	1.084899	-0.398977
C117	C	0.052441	0.995442	-0.321881
C118	C	-0.001071	0.956081	-0.258541
H119	H	-0.045692	1.057843	-0.448282
H120	H	-0.049515	1.145940	-0.358982
H121	H	0.093225	0.934413	-0.361873
H122	H	0.089418	1.022470	-0.272551
H123	H	-0.041871	1.017122	-0.218546
H124	H	-0.038045	0.929031	-0.307855
H125	H	0.040415	0.895388	-0.206217
H126	H	0.040378	1.121057	-0.811079
H127	H	0.110512	0.494746	-0.339174
C128	C	-0.375109	1.573545	-0.161082
C129	C	-0.426696	1.603655	-0.067437
C130	C	-0.487316	1.720625	-0.079175
H131	H	-0.417761	1.588837	-0.228140
H132	H	-0.338576	1.617178	-0.165489
H133	H	-0.463226	1.560036	-0.063041
H134	H	-0.384069	1.588391	-0.000366
H135	H	-0.450784	1.764258	-0.083583
H136	H	-0.529962	1.735906	-0.146236
H137	H	-0.522320	1.741071	-0.015635
H138	H	0.121471	0.857548	-0.273869
H139	H	0.131742	0.510228	0.031108
H140	H	-0.252070	0.872365	-0.089430
C141	C	-0.170024	1.499995	-0.153516
C142	C	-0.195284	1.572511	-0.064205
C143	C	-0.157563	1.654248	-0.072311
H144	H	-0.194534	1.543976	-0.223506
H145	H	-0.102782	1.462263	-0.149586
H146	H	-0.262512	1.610240	-0.068145
H147	H	-0.170773	1.528563	0.005798
H148	H	-0.090321	1.616516	-0.068381
H149	H	-0.182077	1.698220	-0.142305
H150	H	-0.174689	1.703453	-0.011711
H151	H	-0.388142	0.825988	-0.084683
C152	C	-0.624281	1.282202	-0.131282
C153	C	-0.601716	1.337570	-0.040240
C154	C	-0.662162	1.454598	-0.052034
H155	H	-0.688276	1.291688	-0.132199
H156	H	-0.616583	1.314550	-0.200121
H157	H	-0.609422	1.305233	0.028582
H158	H	-0.537732	1.328117	-0.039306
H159	H	-0.654464	1.486946	-0.120874
H160	H	-0.726153	1.464072	-0.052953
H161	H	-0.646854	1.492182	0.009729
H162	H	-0.566529	0.890031	-0.091280
H163	H	-0.563190	1.347241	-0.138117
H164	H	-0.006565	1.086780	-0.630068
