data_functionalizedCrystal
_audit_creation_method	'MofGen! by Chris Wilmer'
_symmetry_space_group_name_H-M	'P1'
_symmetry_Int_Tables_number	1
_symmetry_cell_setting	triclinic
loop_
_symmetry_equiv_pos_as_xyz
  x,y,z
_cell_length_a	14.044191
_cell_length_b	14.044220
_cell_length_c	13.101039
_cell_angle_alpha	86.332523
_cell_angle_beta	93.662449
_cell_angle_gamma	93.190327
loop_
_atom_site_label
_atom_site_type_symbol
_atom_site_fract_x
_atom_site_fract_y
_atom_site_fract_z
O1	O	1.281976	0.225377	0.085169
O2	O	1.781976	0.725377	0.585169
O3	O	1.005305	0.217064	0.085182
O4	O	1.505305	0.717064	0.585182
O5	O	1.139487	0.082885	0.085166
O6	O	1.639487	0.582885	0.585166
O7	O	1.147794	0.359556	0.085186
O8	O	1.647794	0.859556	0.585186
O9	O	1.129861	0.092530	-0.085263
O10	O	1.629861	0.592530	0.414737
O11	O	0.995679	0.226708	-0.085247
O12	O	1.495679	0.726708	0.414753
O13	O	1.272350	0.235022	-0.085259
O14	O	1.772350	0.735022	0.414741
Zn15	Zn	1.132486	0.232396	-0.112312
Zn16	Zn	1.632486	0.732396	0.387688
Zn17	Zn	1.145169	0.219689	0.112235
Zn18	Zn	1.645169	0.719689	0.612235
O19	O	1.138168	0.369200	-0.085243
O20	O	1.638168	0.869200	0.414757
C21	C	0.964870	0.218250	-0.000031
C22	C	1.464870	0.718250	0.499969
C23	C	0.858727	0.207402	-0.000026
C24	C	1.358727	0.707402	0.499974
C25	C	1.131038	0.052086	-0.000049
C26	C	1.631038	0.552086	0.499951
C27	C	1.120194	-0.054057	-0.000050
C28	C	1.620194	0.445943	0.499950
C29	C	0.613268	0.264503	-0.000032
C30	C	1.113268	0.764503	0.499968
C31	C	0.664393	0.187587	-0.000036
C32	C	1.164393	0.687587	0.499964
C33	C	0.772531	0.198615	-0.000031
C34	C	1.272531	0.698615	0.499969
C35	C	0.505121	0.253476	-0.000038
C36	C	1.005121	0.753476	0.499962
C37	C	1.100368	-0.248396	-0.000034
C38	C	1.600368	0.251604	0.499966
C39	C	1.177283	-0.299524	-0.000034
C40	C	1.677283	0.200476	0.499966
C41	C	1.166252	-0.407661	-0.000026
C42	C	1.666252	0.092339	0.499974
C43	C	1.111398	-0.140250	-0.000043
C44	C	1.611398	0.359750	0.499957
C45	C	1.312785	0.233836	-0.000044
C46	C	1.812785	0.733836	0.499956
C47	C	1.418929	0.244683	-0.000042
C48	C	1.918929	0.744683	0.499958
C49	C	1.146617	0.400000	-0.000026
C50	C	1.646617	0.900000	0.499974
C51	C	1.157462	0.506143	-0.000019
C52	C	1.657462	1.006143	0.499981
N53	N	1.123838	0.241069	-0.265560
N54	N	1.623838	0.741069	0.234440
C55	C	1.112072	0.252876	-0.474601
C56	C	1.612072	0.752876	0.025399
C57	C	1.165588	0.199205	-0.525483
C58	C	1.665588	0.699205	-0.025483
C59	C	1.159041	0.205775	-0.641801
C60	C	1.659041	0.705775	-0.141801
C61	C	1.118617	0.246308	-0.358273
C62	C	1.618617	0.746308	0.141727
N63	N	1.153824	0.211010	0.265482
N64	N	1.653824	0.711010	0.765482
H65	H	0.626954	0.113451	0.000031
H66	H	1.126954	0.613451	0.500031
H67	H	1.061342	0.303757	-0.518392
H68	H	1.561342	0.803757	-0.018392
H69	H	1.026241	-0.285836	-0.000028
H70	H	1.526241	0.214164	0.499972
H71	H	1.216322	0.148323	-0.481687
H72	H	1.716322	0.648323	0.018313
H73	H	0.650710	0.338629	-0.000024
H74	H	1.150710	0.838629	0.499976
H75	H	1.251420	-0.262087	0.000031
H76	H	1.751420	0.237913	0.500031
