data_functionalizedCrystal
_audit_creation_method	'MofGen! by Chris Wilmer'
_symmetry_space_group_name_H-M	'P1'
_symmetry_Int_Tables_number	1
_symmetry_cell_setting	triclinic
loop_
_symmetry_equiv_pos_as_xyz
  x,y,z
_cell_length_a	13.032831
_cell_length_b	16.959454
_cell_length_c	13.033454
_cell_angle_alpha	82.785136
_cell_angle_beta	89.091650
_cell_angle_gamma	82.825094
loop_
_atom_site_label
_atom_site_type_symbol
_atom_site_fract_x
_atom_site_fract_y
_atom_site_fract_z
Zn1	Zn	1.498529	-0.383759	-0.780886
Zn2	Zn	1.520248	-0.534574	-0.608900
Zn3	Zn	1.348370	-0.387973	-0.587117
Zn4	Zn	1.326511	-0.501452	-0.759033
O5	O	1.423415	-0.451939	-0.683984
O6	O	1.645332	-0.415863	-0.776334
O7	O	1.515685	-0.530752	-0.462086
O8	O	1.368348	-0.276806	-0.612850
O9	O	1.661288	-0.526666	-0.649977
O10	O	1.478669	-0.273710	-0.755212
O11	O	1.389407	-0.423045	-0.446082
O12	O	1.201549	-0.390928	-0.591660
O13	O	1.331093	-0.470215	-0.905856
O14	O	1.185489	-0.474300	-0.717966
O15	O	1.457474	-0.383746	-0.921912
O16	O	1.494489	-0.640788	-0.628786
O17	O	1.352152	-0.616454	-0.739088
C18	C	1.156202	-0.429478	-0.650078
C19	C	1.041884	-0.419885	-0.635597
C20	C	0.983011	-0.456946	-0.691542
C21	C	0.864857	-0.447032	-0.676576
C22	C	1.423331	-0.657300	-0.683956
C23	C	1.423384	-0.745159	-0.683990
C24	C	1.349396	-1.104006	-0.741423
C25	C	1.497706	-1.129283	-0.626686
C26	C	1.497672	-1.046735	-0.626672
C27	C	1.423497	-0.992818	-0.684033
C28	C	1.349357	-1.021450	-0.741409
C29	C	1.571804	-1.018097	-0.569289
C30	C	1.571772	-0.935545	-0.569272
C31	C	1.497600	-0.881627	-0.626640
C32	C	1.423458	-0.910263	-0.684018
C33	C	1.349283	-0.856346	-0.741380
C34	C	1.275145	-0.884980	-0.798765
C35	C	1.275186	-0.967531	-0.798776
C36	C	1.497559	-0.799075	-0.626628
C37	C	1.349244	-0.773790	-0.741365
C38	C	1.691671	-0.474490	-0.718023
C39	C	1.805986	-0.484099	-0.732528
C40	C	1.389422	-0.422816	-0.952245
C41	C	1.374937	-0.410405	-1.066562
C42	C	1.423524	-0.245776	-0.684039
C43	C	1.423571	-0.157922	-0.684062
C44	C	1.430959	-0.458163	-1.125447
C45	C	1.415989	-0.445337	-1.243600
C46	C	1.457334	-0.480898	-0.416774
C47	C	1.472018	-0.493102	-0.302483
H48	H	0.827792	-0.407957	-0.617601
H49	H	1.004814	-0.380812	-0.576627
H50	H	1.356944	-0.394948	-1.280654
H51	H	1.531072	-0.543487	-1.265431
C52	C	1.033085	-0.509731	-0.771214
N53	N	1.070799	-0.549491	-0.831223
C54	C	1.295168	-0.342337	-1.116622
N55	N	1.235084	-0.291068	-1.154325
C56	C	1.193554	-0.825662	-0.861860
N57	N	1.132103	-0.780980	-0.909382
H58	H	1.288845	-0.729895	-0.788080
C59	C	0.856053	-0.536884	-0.812208
N60	N	0.893764	-0.576643	-0.872221
H61	H	1.214825	-0.990853	-0.845495
C62	C	1.267844	-1.135504	-0.804539
N63	N	1.206415	-1.159229	-0.852076
C64	C	1.579108	-0.767581	-0.563510
N65	N	1.640537	-0.743861	-0.515970
H66	H	1.490008	-0.508544	-1.088389
H67	H	1.558091	-1.173186	-0.579978
C68	C	1.653319	-0.904056	-0.506141
N69	N	1.714741	-0.880337	-0.458588
C70	C	1.653377	-1.077410	-0.506179
N71	N	1.714819	-1.122088	-0.458640
