data_functionalizedCrystal
_audit_creation_method	'MofGen! by Chris Wilmer'
_symmetry_space_group_name_H-M	'P1'
_symmetry_Int_Tables_number	1
_symmetry_cell_setting	triclinic
loop_
_symmetry_equiv_pos_as_xyz
  x,y,z
_cell_length_a	12.759401
_cell_length_b	15.297327
_cell_length_c	12.759393
_cell_angle_alpha	99.643300
_cell_angle_beta	89.980732
_cell_angle_gamma	99.708126
loop_
_atom_site_label
_atom_site_type_symbol
_atom_site_fract_x
_atom_site_fract_y
_atom_site_fract_z
Zn1	Zn	1.533795	-0.359088	-0.666331
Zn2	Zn	1.503247	-0.509972	-0.521035
Zn3	Zn	1.358089	-0.359134	-0.490675
Zn4	Zn	1.327653	-0.509911	-0.696660
O5	O	1.430696	-0.434526	-0.593675
O6	O	1.676762	-0.379109	-0.647070
O7	O	1.483944	-0.490008	-0.369996
O8	O	1.406919	-0.232882	-0.488578
O9	O	1.654319	-0.489963	-0.540321
O10	O	1.536009	-0.232848	-0.617631
O11	O	1.377298	-0.379188	-0.347690
O12	O	1.207032	-0.379129	-0.517987
O13	O	1.355045	-0.489859	-0.839649
O14	O	1.184671	-0.489904	-0.669323
O15	O	1.506497	-0.379050	-0.817366
O16	O	1.454432	-0.636210	-0.569730
O17	O	1.325424	-0.636165	-0.698761
C18	C	1.157731	-0.434515	-0.593652
C19	C	1.040951	-0.434532	-0.593671
C20	C	0.974455	-0.492301	-0.672384
C21	C	0.864730	-0.492304	-0.672406
C22	C	0.888007	-0.376768	-0.514992
C23	C	0.997731	-0.376761	-0.514976
C24	C	0.708299	-0.524677	-0.802785
C25	C	0.641797	-0.582459	-0.881491
C26	C	0.659629	-0.670502	-0.915168
C27	C	0.743959	-0.700780	-0.870128
C28	C	0.810454	-0.643003	-0.791415
C29	C	0.792626	-0.554947	-0.757755
C30	C	1.154162	-0.344398	-0.384597
C31	C	1.220659	-0.286624	-0.305879
C32	C	1.202829	-0.198580	-0.272191
C33	C	1.118495	-0.168305	-0.317213
C34	C	1.051999	-0.226078	-0.395932
C35	C	1.069836	-0.314122	-0.429621
C36	C	1.383339	-0.668922	-0.640854
C37	C	1.363175	-0.769197	-0.661073
C38	C	1.575240	-1.051825	-0.449529
C39	C	1.594184	-0.957612	-0.430527
C40	C	1.536434	-0.910504	-0.488162
C41	C	1.459736	-0.957618	-0.564802
C42	C	1.440784	-1.051841	-0.583799
C43	C	1.401978	-0.910519	-0.622432
C44	C	1.325280	-0.957634	-0.699072
C45	C	1.306332	-1.051848	-0.718067
C46	C	1.364082	-1.098956	-0.660432
C47	C	1.420930	-0.816296	-0.603435
C48	C	1.286473	-0.816312	-0.737705
C49	C	1.267529	-0.910526	-0.756707
C50	C	1.704727	-0.434538	-0.593699
C51	C	1.821502	-0.434543	-0.593709
C52	C	1.430784	-0.434442	-0.867692
C53	C	1.430821	-0.434407	-0.984461
C54	C	1.478267	-0.199216	-0.546335
C55	C	1.498538	-0.098940	-0.526161
C56	C	1.352029	-0.492039	-1.160645
C57	C	1.351987	-0.492077	-1.050929
C58	C	1.509696	-0.376688	-1.027714
C59	C	1.509733	-0.376646	-1.137427
C60	C	1.221515	-0.524361	-0.907467
C61	C	1.142651	-0.582087	-0.864220
C62	C	1.108735	-0.670101	-0.917545
C63	C	1.153696	-0.700407	-1.014120
C64	C	1.232567	-0.642685	-1.057362
C65	C	1.266465	-0.554659	-1.004036
C66	C	1.640204	-0.344372	-1.280893
C67	C	1.719081	-0.286654	-1.324138
C68	C	1.753007	-0.198639	-1.270815
C69	C	1.708064	-0.168336	-1.174238
C70	C	1.629188	-0.226053	-1.130993
C71	C	1.595260	-0.314068	-1.184323
C72	C	1.430682	-0.434545	-0.320711
C73	C	1.430900	-0.434327	-0.203891
H74	H	1.168694	-0.416089	-0.412031
N75	N	1.281066	-0.675360	-1.161512
H76	H	1.247618	-0.739880	-1.188733
H77	H	1.267872	-0.636531	-1.215174
H78	H	1.205081	-0.948900	-0.819107
H79	H	0.573138	-0.557798	-0.918162
N80	N	1.637503	-1.102632	-0.387354
H81	H	1.613852	-1.169467	-0.411014
H82	H	1.715859	-1.086110	-0.400426
H83	H	0.852803	-0.329735	-0.450920
N84	N	1.267005	-0.554246	-1.232333
H85	H	1.217034	-0.590810	-1.188284
H86	H	1.225825	-0.517504	-1.270459
H87	H	1.573881	-0.329728	-0.973586
N88	N	1.224186	-0.765512	-0.799879
H89	H	1.172717	-0.809654	-0.851305
H90	H	1.183441	-0.726481	-0.749199
H91	H	0.758462	-0.772477	-0.897547
N92	N	1.117130	-0.795345	-1.071626
H93	H	1.060343	-0.827312	-1.029578
H94	H	1.087177	-0.793635	-1.144371
N95	N	1.580711	-0.193375	-1.026826
H96	H	1.614170	-0.128859	-0.999602
H97	H	1.501597	-0.197281	-1.038071
N98	N	0.961037	-0.193425	-0.444492
H99	H	0.989782	-0.140109	-0.479487
H100	H	0.921652	-0.243439	-0.499421
N101	N	1.023680	-0.732366	-0.870902
H102	H	1.000348	-0.699814	-0.801634
H103	H	0.960759	-0.752026	-0.922437
H104	H	1.106045	-0.557403	-0.785588
N105	N	1.258085	-0.429423	-0.849959
H106	H	1.217641	-0.418992	-0.782218
H107	H	1.336719	-0.420354	-0.832183
N108	N	1.744657	-0.073407	-1.116710
H109	H	1.801442	-0.041442	-1.158760
H110	H	1.682318	-0.040195	-1.108869
N111	N	1.099249	-0.073344	-0.280878
H112	H	1.154172	-0.041339	-0.224182
H113	H	1.104826	-0.040208	-0.343327
N114	N	0.587915	-0.732827	-1.000064
H115	H	0.552442	-0.787363	-0.970577
H116	H	0.531848	-0.700219	-1.023455
H117	H	1.348665	-1.175672	-0.675901
H118	H	1.656630	-0.919254	-0.368127
N119	N	1.838093	-0.136387	-1.317448
H120	H	1.861427	-0.168937	-1.386716
H121	H	1.808718	-0.081808	-1.330824
H122	H	1.483378	-0.777944	-0.541034
H123	H	1.256975	-0.151544	-0.208084
N124	N	1.767568	-0.319337	-1.428298
H125	H	1.734104	-0.383852	-1.455523
H126	H	1.754389	-0.280500	-1.481956
H127	H	0.693780	-0.452982	-0.775380
H128	H	1.551862	-0.833790	-0.472685
N129	N	1.311618	-0.319275	-0.257311
H130	H	1.312832	-0.383816	-0.290602
H131	H	1.380939	-0.280478	-0.270620
N132	N	1.223593	-1.102657	-0.800714
H133	H	1.243178	-1.086203	-0.872478
H134	H	1.220379	-1.169476	-0.803912
N135	N	1.021078	-0.554599	-0.757264
H136	H	1.058142	-0.596361	-0.722887
H137	H	0.962247	-0.591134	-0.807106
N138	N	0.901401	-0.675648	-0.742828
H139	H	0.902606	-0.740195	-0.776100
H140	H	0.970727	-0.636862	-0.756145
H141	H	1.612570	-0.416037	-1.324330
