data_functionalizedCrystal
_audit_creation_method	'MofGen! by Chris Wilmer'
_symmetry_space_group_name_H-M	'P1'
_symmetry_Int_Tables_number	1
_symmetry_cell_setting	triclinic
loop_
_symmetry_equiv_pos_as_xyz
  x,y,z
_cell_length_a	19.188925
_cell_length_b	19.188925
_cell_length_c	7.540329
_cell_angle_alpha	90.003232
_cell_angle_beta	89.996095
_cell_angle_gamma	96.857451
loop_
_atom_site_label
_atom_site_type_symbol
_atom_site_fract_x
_atom_site_fract_y
_atom_site_fract_z
O1	O	0.926144	-0.087149	-0.147519
O2	O	1.426144	0.412851	0.352481
O3	O	0.722832	-0.098887	-0.147514
O4	O	1.222832	0.401113	0.352486
O5	O	0.830357	0.008638	-0.147507
O6	O	1.330357	0.508638	0.352493
O7	O	0.818619	-0.194674	-0.147527
O8	O	1.318619	0.305326	0.352473
O9	O	0.830351	0.008640	0.147458
O10	O	1.330351	0.508640	0.647458
O11	O	0.722826	-0.098886	0.147451
O12	O	1.222826	0.401114	0.647451
O13	O	0.926138	-0.087147	0.147446
O14	O	1.426138	0.412853	0.647446
Cu15	Cu	0.824481	-0.093016	0.174381
Cu16	Cu	1.324481	0.406984	0.674381
Cu17	Cu	0.824489	-0.093018	-0.174449
Cu18	Cu	1.324489	0.406982	0.325551
O19	O	0.818613	-0.194673	0.147438
O20	O	1.318613	0.305327	0.647438
C21	C	0.696818	-0.098507	-0.000031
C22	C	1.196818	0.401493	0.499969
C23	C	0.619313	-0.097368	-0.000029
C24	C	1.119313	0.402632	0.499971
C25	C	0.057542	-0.152832	-0.000038
C26	C	0.557542	0.347168	0.499962
C27	C	0.130365	-0.153908	-0.000048
C28	C	0.630365	0.346092	0.499952
C29	C	0.175301	-0.090816	-0.000039
C30	C	0.675301	0.409184	0.499961
C31	C	0.147408	-0.026642	-0.000065
C32	C	0.647408	0.473358	0.499935
C33	C	0.074586	-0.025568	-0.000073
C34	C	0.574586	0.474432	0.499927
N35	N	0.295976	-0.045139	0.100374
N36	N	0.795976	0.454861	0.600374
N37	N	0.365154	-0.046164	0.100385
N38	N	0.865154	0.453836	0.600385
C39	C	0.394710	-0.094050	-0.000018
C40	C	0.894710	0.405950	0.499982
N41	N	0.352474	-0.140882	-0.100411
N42	N	0.852474	0.359118	0.399589
N43	N	0.283290	-0.139859	-0.100415
N44	N	0.783290	0.360141	0.399585
C45	C	0.254265	-0.091974	-0.000031
C46	C	0.754265	0.408026	0.499969
C47	C	0.501557	-0.159387	-0.000015
C48	C	1.001557	0.340613	0.499985
C49	C	0.574382	-0.160461	-0.000035
C50	C	1.074382	0.339539	0.499965
C51	C	0.591424	-0.033193	-0.000035
C52	C	1.091424	0.466807	0.499965
C53	C	0.518600	-0.032121	-0.000032
C54	C	1.018600	0.467879	0.499968
C55	C	0.473671	-0.095220	-0.000013
C56	C	0.973671	0.404780	0.499987
C57	C	0.829974	0.034650	-0.000026
C58	C	1.329974	0.534650	0.499974
C59	C	0.828835	0.112155	-0.000029
C60	C	1.328835	0.612155	0.499971
C61	C	0.952152	-0.087528	-0.000041
C62	C	1.452152	0.412472	0.499959
C63	C	1.029657	-0.088667	-0.000055
C64	C	1.529657	0.411333	0.499945
C65	C	0.818995	-0.220684	-0.000047
C66	C	1.318995	0.279316	0.499953
C67	C	0.820134	-0.298189	-0.000055
C68	C	1.320134	0.201811	0.499945
C69	C	0.884299	0.673926	-0.000075
C70	C	1.384299	1.173926	0.499925
C71	C	0.885376	0.601103	-0.000059
C72	C	1.385376	1.101103	0.499941
C73	C	0.822284	0.556167	-0.000058
C74	C	1.322284	1.056167	0.499942
C75	C	0.758110	0.584060	-0.000028
C76	C	1.258110	1.084060	0.499972
C77	C	0.757035	0.656882	-0.000026
C78	C	1.257035	1.156882	0.499974
N79	N	0.776610	0.435485	-0.100456
N80	N	1.276610	0.935485	0.399544
N81	N	0.777635	0.366308	-0.100461
N82	N	1.277635	0.866308	0.399539
C83	C	0.825518	0.336758	-0.000060
C84	C	1.325518	0.836758	0.499940
N85	N	0.872347	0.379000	0.100325
N86	N	1.372347	0.879000	0.600325
N87	N	0.871324	0.448184	0.100323
N88	N	1.371324	0.948184	0.600323
C89	C	0.823442	0.477203	-0.000059
C90	C	1.323442	0.977203	0.499941
C91	C	0.890854	0.229910	-0.000060
C92	C	1.390854	0.729910	0.499940
C93	C	0.891928	0.157085	-0.000033
C94	C	1.391928	0.657085	0.499967
C95	C	0.764661	0.140044	-0.000019
C96	C	1.264661	0.640044	0.499981
C97	C	0.763589	0.212867	-0.000029
C98	C	1.263589	0.712867	0.499971
C99	C	0.826688	0.257797	-0.000057
C100	C	1.326688	0.757797	0.499943
N101	N	0.824481	-0.093015	0.419729
N102	N	1.324481	0.406985	0.919729
N103	N	0.824494	-0.093014	-0.419798
N104	N	1.324494	0.406986	0.080202
H105	H	0.464974	-0.210766	-0.000003
H106	H	0.964974	0.289234	0.499997
H107	H	0.495897	0.020129	-0.000035
H108	H	0.995897	0.520129	0.499965
F109	F	0.639243	0.033955	-0.000047
F110	F	1.139243	0.533955	0.499953
H111	H	0.597084	-0.212714	-0.000037
H112	H	1.097084	0.287286	0.499963
H113	H	0.711338	0.235571	-0.000025
H114	H	1.211338	0.735571	0.499975
F115	F	0.960225	0.127409	-0.000059
F116	F	1.460225	0.627409	0.499941
H117	H	0.706740	0.547469	-0.000022
H118	H	1.206740	1.047469	0.499978
F119	F	0.951455	0.721739	-0.000092
F120	F	1.451455	1.221739	0.499908
F121	F	0.953672	0.571418	-0.000064
F122	F	1.453672	1.071418	0.499936
H123	H	0.942233	0.266494	-0.000082
H124	H	1.442233	0.766494	0.499918
H125	H	0.704783	0.679584	-0.000005
H126	H	1.204783	1.179584	0.499995
H127	H	0.020964	-0.204212	-0.000032
H128	H	0.520964	0.295788	0.499968
F129	F	0.160049	-0.222204	-0.000028
F130	F	0.660049	0.277796	0.499972
F131	F	0.697512	0.092225	0.000002
F132	F	1.197512	0.592225	0.500002
H133	H	0.051883	0.026685	-0.000087
H134	H	0.551883	0.526685	0.499913
F135	F	0.195232	0.040505	-0.000062
F136	F	0.695232	0.540505	0.499938
