data_functionalizedCrystal
_audit_creation_method	'MofGen! by Chris Wilmer'
_symmetry_space_group_name_H-M	'P1'
_symmetry_Int_Tables_number	1
_symmetry_cell_setting	triclinic
loop_
_symmetry_equiv_pos_as_xyz
  x,y,z
_cell_length_a	14.519710
_cell_length_b	14.519709
_cell_length_c	13.596369
_cell_angle_alpha	90.006934
_cell_angle_beta	89.995619
_cell_angle_gamma	96.319855
loop_
_atom_site_label
_atom_site_type_symbol
_atom_site_fract_x
_atom_site_fract_y
_atom_site_fract_z
O1	O	1.223868	-0.120893	-0.081772
O2	O	1.473868	0.129107	0.168228
O3	O	1.723868	0.379107	0.418228
O4	O	1.973868	0.629107	0.668228
O5	O	0.955392	-0.135129	-0.081779
O6	O	1.205392	0.114871	0.168221
O7	O	1.455392	0.364871	0.418221
O8	O	1.705392	0.614871	0.668221
O9	O	1.096748	0.006227	-0.081766
O10	O	1.346748	0.256227	0.168234
O11	O	1.596748	0.506227	0.418234
O12	O	1.846748	0.756227	0.668234
O13	O	1.082512	-0.262249	-0.081785
O14	O	1.332512	-0.012249	0.168215
O15	O	1.582512	0.237751	0.418215
O16	O	1.832512	0.487751	0.668215
O17	O	1.096734	0.006235	0.081816
O18	O	1.346734	0.256235	0.331816
O19	O	1.596734	0.506235	0.581816
O20	O	1.846734	0.756235	0.831816
O21	O	0.955377	-0.135122	0.081804
O22	O	1.205377	0.114878	0.331804
O23	O	1.455377	0.364878	0.581804
O24	O	1.705377	0.614878	0.831804
O25	O	1.223854	-0.120885	0.081811
O26	O	1.473854	0.129115	0.331811
O27	O	1.723854	0.379115	0.581811
O28	O	1.973854	0.629115	0.831811
Zn29	Zn	1.089614	-0.128002	0.107780
Zn30	Zn	1.339614	0.121998	0.357780
Zn31	Zn	1.589614	0.371998	0.607780
Zn32	Zn	1.839614	0.621998	0.857780
Zn33	Zn	1.089632	-0.128012	-0.107748
Zn34	Zn	1.339632	0.121988	0.142252
Zn35	Zn	1.589632	0.371988	0.392252
Zn36	Zn	1.839632	0.621988	0.642252
O37	O	1.082498	-0.262242	0.081798
O38	O	1.332498	-0.012242	0.331798
O39	O	1.582498	0.237758	0.581798
O40	O	1.832498	0.487758	0.831798
C41	C	1.096078	0.040591	0.000025
C42	C	1.346078	0.290591	0.250025
C43	C	1.596078	0.540591	0.500025
C44	C	1.846078	0.790591	0.750025
C45	C	1.094090	0.142972	0.000026
C46	C	1.344090	0.392972	0.250026
C47	C	1.594090	0.642972	0.500026
C48	C	1.844090	0.892972	0.750026
C49	C	0.921025	-0.134462	0.000012
C50	C	1.171025	0.115538	0.250012
C51	C	1.421025	0.365538	0.500012
C52	C	1.671025	0.615538	0.750012
C53	C	0.818643	-0.132474	0.000009
C54	C	1.068643	0.117526	0.250009
C55	C	1.318643	0.367526	0.500009
C56	C	1.568643	0.617526	0.750009
C57	C	1.258221	-0.121553	0.000018
C58	C	1.508221	0.128447	0.250018
C59	C	1.758221	0.378447	0.500018
C60	C	2.008221	0.628447	0.750018
C61	C	1.360602	-0.123541	0.000014
C62	C	1.610602	0.126459	0.250014
C63	C	1.860602	0.376459	0.500014
C64	C	2.110602	0.626459	0.750014
C65	C	1.735498	-0.130860	0.000013
C66	C	1.985498	0.119140	0.250013
C67	C	2.235498	0.369140	0.500013
C68	C	2.485498	0.619140	0.750013
C69	C	1.631190	-0.128828	0.000013
C70	C	1.881190	0.121172	0.250013
C71	C	2.131190	0.371172	0.500013
C72	C	2.381190	0.621172	0.750013
C73	C	1.548054	-0.127201	0.000013
C74	C	1.798054	0.122799	0.250013
C75	C	2.048054	0.372799	0.500013
C76	C	2.298054	0.622799	0.750013
C77	C	1.443739	-0.125168	0.000014
C78	C	1.693739	0.124832	0.250014
C79	C	1.943739	0.374832	0.500014
C80	C	2.193739	0.624832	0.750014
C81	C	1.083168	-0.296606	0.000005
C82	C	1.333168	-0.046606	0.250005
C83	C	1.583168	0.203394	0.500005
C84	C	1.833168	0.453394	0.750005
C85	C	1.085156	-0.398987	-0.000002
C86	C	1.335156	-0.148987	0.249998
C87	C	1.585156	0.101013	0.499998
C88	C	1.835156	0.351013	0.749998
N89	N	1.089608	-0.127995	0.254872
N90	N	1.339608	0.122005	0.504872
N91	N	1.589608	0.372005	0.754872
N92	N	1.839608	0.622005	1.004872
C93	C	1.086770	0.517868	-0.000000
C94	C	1.336770	0.767868	0.250000
C95	C	1.586770	1.017868	0.500000
C96	C	1.836770	1.267868	0.750000
C97	C	1.088803	0.413560	0.000007
C98	C	1.338803	0.663560	0.250007
C99	C	1.588803	0.913560	0.500007
C100	C	1.838803	1.163560	0.750007
C101	C	1.090430	0.330423	0.000014
C102	C	1.340430	0.580423	0.250014
C103	C	1.590430	0.830423	0.500014
C104	C	1.840430	1.080423	0.750014
C105	C	1.092463	0.226109	0.000019
C106	C	1.342463	0.476109	0.250019
C107	C	1.592463	0.726109	0.500019
C108	C	1.842463	0.976109	0.750019
N109	N	1.089645	-0.128012	-0.254840
N110	N	1.339645	0.121988	-0.004840
N111	N	1.589645	0.371988	0.245160
N112	N	1.839645	0.621988	0.495160
C113	C	1.089631	-0.128013	0.656162
C114	C	1.339631	0.121987	0.906162
C115	C	1.589631	0.371987	1.156162
C116	C	1.839631	0.621987	1.406162
C117	C	1.089622	-0.128011	0.544511
C118	C	1.339622	0.121989	0.794511
C119	C	1.589622	0.371989	1.044511
C120	C	1.839622	0.621989	1.294511
C121	C	1.089620	-0.128005	0.455521
C122	C	1.339620	0.121995	0.705521
C123	C	1.589620	0.371995	0.955521
C124	C	1.839620	0.621995	1.205521
C125	C	1.089610	-0.128001	0.343862
C126	C	1.339610	0.121999	0.593862
C127	C	1.589610	0.371999	0.843862
C128	C	1.839610	0.621999	1.093862
