data_functionalizedCrystal
_audit_creation_method	'MofGen! by Chris Wilmer'
_symmetry_space_group_name_H-M	'P1'
_symmetry_Int_Tables_number	1
_symmetry_cell_setting	triclinic
loop_
_symmetry_equiv_pos_as_xyz
  x,y,z
_cell_length_a	19.288855
_cell_length_b	19.288864
_cell_length_c	17.766277
_cell_angle_alpha	89.976755
_cell_angle_beta	90.007804
_cell_angle_gamma	96.865756
loop_
_atom_site_label
_atom_site_type_symbol
_atom_site_fract_x
_atom_site_fract_y
_atom_site_fract_z
O1	O	-0.086648	0.921350	-0.062840
O2	O	0.413352	1.421350	0.437160
O3	O	-0.098337	0.719089	-0.062789
O4	O	0.401663	1.219089	0.437211
O5	O	0.008638	0.826068	-0.062806
O6	O	0.508638	1.326068	0.437194
O7	O	-0.193623	0.814372	-0.062823
O8	O	0.306377	1.314372	0.437177
O9	O	0.008641	0.826049	0.062383
O10	O	0.508641	1.326049	0.562383
O11	O	-0.098334	0.719070	0.062400
O12	O	0.401666	1.219070	0.562400
O13	O	-0.086645	0.921331	0.062349
O14	O	0.413355	1.421331	0.562349
Cu15	Cu	-0.092489	0.820199	0.073805
Cu16	Cu	0.407511	1.320199	0.573805
Cu17	Cu	-0.092493	0.820221	-0.074245
Cu18	Cu	0.407507	1.320221	0.425755
O19	O	-0.193620	0.814353	0.062366
O20	O	0.306380	1.314353	0.562366
C21	C	-0.097959	0.693203	-0.000188
C22	C	0.402041	1.193203	0.499812
C23	C	-0.096830	0.616100	-0.000168
C24	C	0.403170	1.116100	0.499832
C25	C	-0.159598	0.571401	-0.000185
C26	C	0.340402	1.071401	0.499815
C27	C	-0.158538	0.498954	-0.000193
C28	C	0.341462	0.998954	0.499807
C29	C	-0.094705	0.471209	-0.000200
C30	C	0.405295	0.971209	0.499800
C31	C	-0.031929	0.515917	-0.000178
C32	C	0.468071	1.015917	0.499822
C33	C	-0.032991	0.588363	-0.000163
C34	C	0.467009	1.088363	0.499837
C35	C	-0.044527	0.362955	-0.044080
C36	C	0.455473	0.862955	0.455920
C37	C	-0.043467	0.290511	-0.044100
C38	C	0.456533	0.790511	0.455900
C39	C	-0.091426	0.247763	-0.000245
C40	C	0.408574	0.747763	0.499755
C41	C	-0.140456	0.277468	0.043621
C42	C	0.359544	0.777468	0.543621
C43	C	-0.141518	0.349913	0.043637
C44	C	0.358482	0.849913	0.543637
C45	C	-0.093546	0.392655	-0.000216
C46	C	0.406454	0.892655	0.499784
C47	C	-0.153048	0.124509	-0.000270
C48	C	0.346952	0.624509	0.499730
C49	C	-0.151985	0.052061	-0.000274
C50	C	0.348015	0.552061	0.499726
C51	C	-0.025374	0.069026	-0.000266
C52	C	0.474626	0.569026	0.499734
C53	C	-0.026439	0.141472	-0.000255
C54	C	0.473561	0.641472	0.499745
C55	C	-0.090278	0.169209	-0.000260
C56	C	0.409722	0.669209	0.499740
C57	C	0.034517	0.825683	-0.000211
C58	C	0.534517	1.325683	0.499789
C59	C	0.111620	0.824557	-0.000208
C60	C	0.611620	1.324557	0.499792
C61	C	0.147829	0.824041	-0.068448
C62	C	0.647829	1.324041	0.431552
C63	C	0.220276	0.822973	-0.068452
C64	C	0.720276	1.322973	0.431548
C65	C	0.256512	0.822434	-0.000213
C66	C	0.756512	1.322434	0.499787
C67	C	0.220293	0.822946	0.068036
C68	C	0.720293	1.322946	0.568036
C69	C	0.147848	0.824007	0.068039
C70	C	0.647848	1.324007	0.568039
C71	C	0.376745	0.861429	0.052053
C72	C	0.876745	1.361429	0.552053
C73	C	0.449189	0.860372	0.052047
C74	C	0.949189	1.360372	0.552047
C75	C	0.479958	0.819158	-0.000219
C76	C	0.979958	1.319158	0.499781
C77	C	0.438274	0.779010	-0.052492
C78	C	0.938274	1.279010	0.447508
C79	C	0.365828	0.780072	-0.052490
C80	C	0.865828	1.280072	0.447510
C81	C	0.335067	0.821283	-0.000209
C82	C	0.835067	1.321283	0.499791
C83	C	0.594721	0.817484	-0.068469
C84	C	1.094721	1.317484	0.431531
C85	C	0.667168	0.816411	-0.068471
C86	C	1.167168	1.316411	0.431529
C87	C	0.667185	0.816391	0.068019
C88	C	1.167185	1.316391	0.568019
C89	C	0.594739	0.817456	0.068019
C90	C	1.094739	1.317456	0.568019
C91	C	0.558512	0.818006	-0.000227
C92	C	1.058512	1.318006	0.499773
C93	C	0.780502	0.814739	-0.000229
C94	C	1.280502	1.314739	0.499771
C95	C	0.703399	0.815871	-0.000231
C96	C	1.203399	1.315871	0.499769
C97	C	-0.087023	0.947217	-0.000254
C98	C	0.412977	1.447217	0.499746
C99	C	-0.088152	1.024321	-0.000279
C100	C	0.411848	1.524321	0.499721
N101	N	-0.092486	0.820188	0.177935
N102	N	0.407514	1.320188	0.677935
N103	N	-0.092490	0.820238	-0.178375
N104	N	0.407510	1.320238	0.321625
C105	C	-0.134510	0.862174	0.217301
C106	C	0.365490	1.362174	0.717301
C107	C	-0.134508	0.862185	0.296103
C108	C	0.365492	1.362185	0.796103
C109	C	-0.092490	0.820197	0.335536
C110	C	0.407510	1.320197	0.835536
C111	C	-0.050458	0.778208	0.296161
C112	C	0.449542	1.278208	0.796161
C113	C	-0.050456	0.778204	0.217360
C114	C	0.449544	1.278204	0.717360
C115	C	-0.090733	0.757585	0.460411
C116	C	0.409267	1.257585	0.960411
C117	C	-0.090740	0.757588	0.539210
C118	C	0.409260	1.257588	1.039210
C119	C	-0.092492	0.820211	0.578582
C120	C	0.407508	1.320211	1.078582
C121	C	-0.094252	0.882833	0.539146
C122	C	0.405748	1.382833	1.039146
C123	C	-0.094250	0.882829	0.460345
C124	C	0.405750	1.382829	0.960345
C125	C	-0.092487	0.820197	0.420981
C126	C	0.407513	1.320197	0.920981
C127	C	-0.134516	0.862213	0.703394
C128	C	0.365484	1.362213	1.203394
C129	C	-0.134509	0.862225	0.782197
C130	C	0.365491	1.362225	1.282197
C131	C	-0.050463	0.778242	0.782253
C132	C	0.449537	1.278242	1.282253
C133	C	-0.050466	0.778236	0.703452
C134	C	0.449534	1.278236	1.203452
C135	C	-0.092496	0.820220	0.664027
C136	C	0.407504	1.320220	1.164027
H137	H	-0.205029	0.147093	-0.000263
H138	H	0.294971	0.647093	0.499737
C139	C	0.707033	0.815795	0.143083
C140	C	1.207033	1.315795	0.643083
H141	H	0.675088	0.816252	0.183726
H142	H	1.175088	1.316252	0.683726
H143	H	0.740721	0.855875	0.145912
H144	H	1.240721	1.355875	0.645912
H145	H	0.729865	0.774877	0.145927
H146	H	1.229865	1.274877	0.645927
H147	H	0.249762	0.822549	-0.124023
H148	H	0.749762	1.322549	0.375977
C149	C	-0.088794	0.688698	0.417106
C150	C	0.411206	1.188698	0.917106
H151	H	-0.089034	0.697664	0.364528
H152	H	0.410966	1.197664	0.864528
H153	H	-0.128555	0.657007	0.430024
H154	H	0.371445	1.157007	0.930024
H155	H	-0.047580	0.668932	0.430043
H156	H	0.452420	1.168932	0.930043
C157	C	-0.096179	0.951725	0.582440
C158	C	0.403821	1.451725	1.082440
H159	H	-0.097232	0.989016	0.547668
H160	H	0.402768	1.489016	1.047668
H161	H	-0.055767	0.960287	0.613182
H162	H	0.444233	1.460287	1.113182
H163	H	-0.136742	0.948374	0.613175
H164	H	0.363258	1.448374	1.113175
C165	C	-0.195440	0.382587	0.091892
C166	C	0.304560	0.882587	0.591892
H167	H	-0.223850	0.346758	0.118015
H168	H	0.276150	0.846758	0.618015
H169	H	-0.223901	0.407111	0.060279
H170	H	0.276099	0.907111	0.560279
H171	H	-0.171831	0.414044	0.127168
H172	H	0.328169	0.914044	0.627168
C173	C	0.472108	0.733671	-0.109987
C174	C	0.972108	1.233671	0.390013
H175	H	0.521223	0.738781	-0.102499
H176	H	1.021223	1.238781	0.397501
H177	H	0.462147	0.748157	-0.159532
H178	H	0.962147	1.248157	0.340468
H179	H	0.453837	0.686101	-0.103389
H180	H	0.953837	1.186101	0.396611
C181	C	-0.004246	0.732001	0.174053
C182	C	0.495754	1.232001	0.674053
H183	H	-0.010265	0.738010	0.121475
H184	H	0.489735	1.238010	0.621475
H185	H	-0.017282	0.684442	0.186998
H186	H	0.482718	1.184442	0.686998
H187	H	0.043320	0.745054	0.186958
H188	H	0.543320	1.245054	0.686958
C189	C	-0.096175	0.951707	0.416968
C190	C	0.403825	1.451707	0.916968
H191	H	-0.097214	0.989008	0.451697
H192	H	0.402786	1.489008	0.951697
H193	H	-0.136730	0.948357	0.386218
H194	H	0.363270	1.448357	0.886218
H195	H	-0.055755	0.960257	0.386234
H196	H	0.444245	1.460257	0.886234
C197	C	0.706998	0.815841	-0.143539
C198	C	1.206998	1.315841	0.356461
H199	H	0.675044	0.816326	-0.184180
H200	H	1.175044	1.316326	0.315820
H201	H	0.729831	0.774930	-0.146370
H202	H	1.229831	1.274930	0.353630
H203	H	0.740685	0.855927	-0.146383
H204	H	1.240685	1.355927	0.353617
C205	C	-0.221033	0.002892	-0.000292
C206	C	0.278967	0.502892	0.499708
H207	H	-0.259202	0.029790	-0.000300
H208	H	0.240798	0.529790	0.499700
H209	H	-0.223255	-0.025746	0.043358
H210	H	0.276745	0.474254	0.543358
H211	H	-0.223246	-0.025697	-0.043960
H212	H	0.276754	0.474303	0.456040
C213	C	0.495035	0.904531	0.109545
C214	C	0.995035	1.404531	0.609545
H215	H	0.466335	0.929218	0.140682
H216	H	0.966335	1.429218	0.640682
H217	H	0.527675	0.936839	0.083654
H218	H	1.027675	1.436839	0.583654
H219	H	0.519370	0.874774	0.139784
H220	H	1.019370	1.374774	0.639784
H221	H	0.351700	0.894989	0.094620
H222	H	0.851700	1.394989	0.594620
H223	H	0.331891	0.747380	-0.095051
H224	H	0.831891	1.247380	0.404949
H225	H	0.565258	0.817882	0.123588
H226	H	1.065258	1.317882	0.623588
H227	H	-0.209653	0.462554	-0.000205
H228	H	0.290347	0.962554	0.499795
C229	C	0.554867	0.818080	-0.143535
C230	C	1.054867	1.318080	0.356465
H231	H	0.586809	0.817610	-0.184178
H232	H	1.086809	1.317610	0.315822
H233	H	0.532032	0.858992	-0.146382
H234	H	1.032032	1.358992	0.353618
H235	H	0.521179	0.777995	-0.146359
H236	H	1.021179	1.277995	0.353641
H237	H	-0.179508	0.242664	0.079333
H238	H	0.320492	0.742664	0.579333
H239	H	0.026600	0.046436	-0.000318
H240	H	0.526600	0.546436	0.499682
C241	C	0.010458	0.257838	-0.092354
C242	C	0.510458	0.757838	0.407646
H243	H	0.004216	0.208570	-0.086091
H244	H	0.504216	0.708570	0.413909
H245	H	0.056240	0.275856	-0.076927
H246	H	0.556240	0.775856	0.423073
H247	H	0.004175	0.268925	-0.143820
H248	H	0.504175	0.768925	0.356180
C249	C	0.042607	0.190642	-0.000248
C250	C	0.542607	0.690642	0.499752
H251	H	0.080776	0.163745	-0.000259
H252	H	0.580776	0.663745	0.499741
H253	H	0.044827	0.219234	0.043413
H254	H	0.544827	0.719234	0.543413
H255	H	0.044820	0.219277	-0.043905
H256	H	0.544820	0.719277	0.456095
H257	H	-0.005472	0.397755	-0.079797
H258	H	0.494528	0.897755	0.420203
C259	C	-0.229816	0.601912	-0.000187
C260	C	0.270184	1.101912	0.499813
H261	H	-0.221462	0.651460	-0.000182
H262	H	0.278538	1.151460	0.499818
H263	H	-0.255655	0.586529	0.043462
H264	H	0.244345	1.086529	0.543462
H265	H	-0.255648	0.586578	-0.043856
H266	H	0.244352	1.086578	0.456144
C267	C	0.260150	0.822355	0.143097
C268	C	0.760150	1.322355	0.643097
H269	H	0.308484	0.821656	0.133322
H270	H	0.808484	1.321656	0.633322
H271	H	0.242859	0.782028	0.171147
H272	H	0.742859	1.282028	0.671147
H273	H	0.253705	0.863025	0.171126
H274	H	0.753705	1.363025	0.671126
C275	C	0.108017	0.824580	0.143106
C276	C	0.608017	1.324580	0.643106
H277	H	0.139972	0.824110	0.183748
H278	H	0.639972	1.324110	0.683748
H279	H	0.074328	0.784500	0.145954
H280	H	0.574328	1.284500	0.645954
H281	H	0.085187	0.865498	0.145932
H282	H	0.585187	1.365498	0.645932
C283	C	0.038287	0.485404	-0.000187
C284	C	0.538287	0.985404	0.499813
H285	H	0.075519	0.522404	-0.000169
H286	H	0.575519	1.022404	0.499831
H287	H	0.041333	0.457520	-0.043849
H288	H	0.541333	0.957520	0.456151
H289	H	0.041332	0.457471	0.043468
H290	H	0.541332	0.957471	0.543468
H291	H	0.018124	0.624757	-0.000149
H292	H	0.518124	1.124757	0.499851
C293	C	0.107981	0.824634	-0.143515
C294	C	0.607981	1.324634	0.356485
H295	H	0.139926	0.824167	-0.184157
H296	H	0.639926	1.324167	0.315843
H297	H	0.085141	0.865542	-0.146365
H298	H	0.585141	1.365542	0.353635
H299	H	0.074299	0.784544	-0.146339
H300	H	0.574299	1.284544	0.353661
C301	C	-0.180733	0.908361	0.173934
C302	C	0.319267	1.408361	0.673934
H303	H	-0.174717	0.902344	0.121364
H304	H	0.325283	1.402344	0.621364
H305	H	-0.167707	0.955925	0.186829
H306	H	0.332293	1.455925	0.686829
H307	H	-0.228295	0.895299	0.186845
H308	H	0.271705	1.395299	0.686845
H309	H	-0.168740	0.896399	0.671292
H310	H	0.331260	1.396399	1.171292
C311	C	-0.180737	0.908368	0.339418
C312	C	0.319263	1.408368	0.839418
H313	H	-0.174715	0.902359	0.391995
H314	H	0.325285	1.402359	0.891995
H315	H	-0.228295	0.895306	0.326502
H316	H	0.271705	1.395306	0.826502
H317	H	-0.167710	0.955935	0.326485
H318	H	0.332290	1.455935	0.826485
H319	H	-0.168728	0.896420	0.814247
H320	H	0.331272	1.396420	1.314247
H321	H	-0.016250	0.744056	0.814359
H322	H	0.483750	1.244056	1.314359
C323	C	-0.004247	0.732043	0.660147
C324	C	0.495753	1.232043	1.160147
H325	H	0.020774	0.707032	0.694916
H326	H	0.520774	1.207032	1.194916
H327	H	0.027793	0.760603	0.629396
H328	H	0.527793	1.260603	1.129396
H329	H	-0.032799	0.699982	0.629421
H330	H	0.467201	1.199982	1.129421
H331	H	-0.089311	0.706597	0.571313
H332	H	0.410689	1.206597	1.071313
H333	H	-0.016246	0.744022	0.328272
H334	H	0.483754	1.244022	0.828272
