data_functionalizedCrystal
_audit_creation_method	'MofGen! by Chris Wilmer'
_symmetry_space_group_name_H-M	'P1'
_symmetry_Int_Tables_number	1
_symmetry_cell_setting	triclinic
loop_
_symmetry_equiv_pos_as_xyz
  x,y,z
_cell_length_a	17.699097
_cell_length_b	27.731996
_cell_length_c	16.776229
_cell_angle_alpha	89.987372
_cell_angle_beta	89.989262
_cell_angle_gamma	82.954908
loop_
_atom_site_label
_atom_site_type_symbol
_atom_site_fract_x
_atom_site_fract_y
_atom_site_fract_z
O1	O	1.003515	0.061159	-0.066365
O2	O	0.783066	0.069105	-0.066353
O3	O	0.900158	-0.005242	-0.066342
O4	O	0.886423	0.135506	-0.066376
O5	O	0.900142	-0.005246	0.066234
O6	O	0.783050	0.069101	0.066223
O7	O	1.003500	0.061154	0.066212
Zn8	Zn	0.893273	0.065127	0.087267
Zn9	Zn	0.893293	0.065133	-0.087408
O10	O	0.886408	0.135501	0.066201
C11	C	0.754864	0.068817	-0.000063
C12	C	0.670854	0.067960	-0.000058
C13	C	0.155192	0.062706	-0.072356
C14	C	0.234129	0.063509	-0.072353
C15	C	0.273583	0.063908	-0.000082
C16	C	0.234097	0.063500	0.072189
C17	C	0.155162	0.062694	0.072185
C18	C	0.552431	0.066749	0.072210
C19	C	0.631371	0.067557	0.072209
C20	C	0.631398	0.067564	-0.072328
C21	C	0.552463	0.066758	-0.072332
C22	C	0.512985	0.066347	-0.000061
C23	C	0.427393	0.065476	-0.000066
C24	C	0.359173	0.064783	-0.000076
C25	C	0.899868	-0.023252	-0.000051
C26	C	0.899018	-0.076912	-0.000043
C27	C	0.893680	-0.409645	-0.072349
C28	C	0.890453	-0.611315	-0.072363
O29	O	0.890010	-0.637385	-0.133824
N30	N	0.890044	-0.636536	-0.000096
C31	C	0.890436	-0.611336	0.072179
O32	O	0.890006	-0.637415	0.133646
C33	C	0.893658	-0.409666	0.072192
C34	C	0.894075	-0.384449	-0.000079
C35	C	0.894096	-0.384427	-0.144615
C36	C	0.894907	-0.334013	-0.144611
C37	C	0.895301	-0.308817	-0.072341
C38	C	0.894885	-0.334035	-0.000075
C39	C	0.894045	-0.384467	0.144467
C40	C	0.894848	-0.334046	0.144464
C41	C	0.895265	-0.308828	0.072192
C42	C	0.896091	-0.258424	0.072199
N43	N	0.896500	-0.233203	-0.000068
C44	C	0.896105	-0.258399	-0.072338
C45	C	0.888746	-0.717215	0.072167
C46	C	0.887942	-0.767633	0.072164
C47	C	0.887957	-0.767608	-0.072378
C48	C	0.888767	-0.717190	-0.072374
C49	C	0.889155	-0.691994	-0.000100
C50	C	0.897809	-0.152526	-0.072323
C51	C	0.898623	-0.102108	-0.072313
C52	C	0.898604	-0.102137	0.072229
C53	C	0.897794	-0.152551	0.072219
C54	C	0.897394	-0.177744	-0.000064
O55	O	0.896526	-0.232322	0.133628
O56	O	0.896519	-0.232310	-0.133796
C57	C	0.892869	-0.460059	-0.072353
C58	C	0.892453	-0.485277	-0.000088
C59	C	0.892848	-0.460081	0.072182
C60	C	0.891649	-0.535694	-0.000091
C61	C	0.891254	-0.560890	-0.072361
C62	C	0.891663	-0.535669	-0.144627
C63	C	0.892474	-0.485255	-0.144623
C64	C	0.892439	-0.485302	0.144449
C65	C	0.891629	-0.535716	0.144439
C66	C	0.891234	-0.560912	0.072169
C67	C	1.031702	0.061442	-0.000080
C68	C	1.115711	0.062300	-0.000091
C69	C	0.886698	0.153512	-0.000092
C70	C	0.887547	0.207171	-0.000106
N71	N	0.893264	0.065122	0.206478
N72	N	0.893307	0.065133	-0.206620
C73	C	0.945128	0.032215	0.248200
C74	C	0.945132	0.032215	0.331652
C75	C	0.893276	0.065124	0.373381
C76	C	0.841406	0.098033	0.331653
C77	C	0.841399	0.098031	0.248202
C78	C	0.841434	0.098043	0.668200
C79	C	0.841446	0.098043	0.751657
C80	C	0.945167	0.032226	0.751650
C81	C	0.945160	0.032224	0.668199
C82	C	0.893288	0.065131	0.626479
C83	C	0.893283	0.065131	0.535991
C84	C	0.893284	0.065127	0.463868
H85	H	0.898964	-0.081578	-0.131168
C86	C	1.002220	-0.003977	0.797541
H87	H	1.033107	-0.023572	0.760736
H88	H	0.975243	-0.024079	0.830111
H89	H	1.033520	0.013391	0.830078
C90	C	0.784398	0.134250	0.622314
H91	H	0.791816	0.129537	0.566637
H92	H	0.792245	0.166501	0.635983
H93	H	0.733945	0.129046	0.636003
H94	H	0.987388	0.005428	0.634227
H95	H	0.895243	-0.313485	-0.203462
C96	C	0.891240	-0.563390	-0.224124
H97	H	0.891610	-0.541154	-0.267170
H98	H	0.846775	-0.579321	-0.227129
H99	H	0.935086	-0.586795	-0.227120
C100	C	1.002190	-0.003979	0.377543
H101	H	1.033080	-0.023573	0.340739
H102	H	0.975219	-0.024083	0.410116
H103	H	1.033485	0.013394	0.410077
H104	H	0.799216	0.124843	0.785631
H105	H	0.987359	0.005418	0.214230
H106	H	0.799180	0.124827	0.365633
C107	C	0.508944	0.066612	0.151700
H108	H	0.456263	0.066164	0.141352
H109	H	0.515924	0.095016	0.181060
H110	H	0.527788	0.038656	0.181727
H111	H	0.266227	0.063822	0.131033
C112	C	0.784352	0.134231	0.202308
H113	H	0.753474	0.153834	0.239111
H114	H	0.753055	0.116866	0.169771
H115	H	0.811336	0.154333	0.169738
H116	H	0.123074	0.062384	-0.131208
H117	H	0.663492	0.067882	0.131064
C118	C	0.277554	0.063958	-0.151845
H119	H	0.242750	0.063611	-0.194887
H120	H	0.314456	0.036096	-0.154847
H121	H	0.302237	0.092453	-0.154850
C122	C	0.111733	0.062250	0.151677
H123	H	0.146533	0.062608	0.194720
H124	H	0.087049	0.033759	0.154687
H125	H	0.074831	0.090116	0.154672
H126	H	0.520343	0.066435	-0.131183
C127	C	0.887490	-0.795367	0.151663
H128	H	0.887833	-0.773136	0.194700
H129	H	0.931327	-0.818775	0.154671
H130	H	0.843016	-0.811294	0.154668
H131	H	0.663551	0.067896	-0.131175
H132	H	0.892761	-0.464792	0.203301
C133	C	0.897390	-0.180233	-0.151832
H134	H	0.897765	-0.157989	-0.194865
H135	H	0.852928	-0.196165	-0.154857
H136	H	0.941239	-0.203636	-0.154831
H137	H	0.893771	-0.404936	-0.203469
C138	C	0.889218	-0.689454	-0.151872
H139	H	0.888864	-0.711685	-0.194910
H140	H	0.933683	-0.673523	-0.154882
H141	H	0.845371	-0.666050	-0.154876
H142	H	0.892813	-0.464727	-0.203474
H143	H	0.887637	-0.788131	-0.131223
C144	C	0.889184	-0.689507	0.151675
H145	H	0.888833	-0.711753	0.194707
H146	H	0.845347	-0.666100	0.154694
H147	H	0.933658	-0.673581	0.154678
H148	H	0.893707	-0.404991	0.203318
C149	C	0.895279	-0.306334	0.223968
H150	H	0.894921	-0.328577	0.267004
H151	H	0.851442	-0.282926	0.226977
H152	H	0.939753	-0.290409	0.226976
H153	H	0.897461	-0.173085	0.131068
H154	H	0.898929	-0.081613	0.131069
H155	H	0.891295	-0.556244	0.203295
