data_functionalizedCrystal
_audit_creation_method	'MofGen! by Chris Wilmer'
_symmetry_space_group_name_H-M	'P1'
_symmetry_Int_Tables_number	1
_symmetry_cell_setting	triclinic
loop_
_symmetry_equiv_pos_as_xyz
  x,y,z
_cell_length_a	16.959455
_cell_length_b	17.077402
_cell_length_c	17.077396
_cell_angle_alpha	90.029784
_cell_angle_beta	89.979128
_cell_angle_gamma	89.978169
loop_
_atom_site_label
_atom_site_type_symbol
_atom_site_fract_x
_atom_site_fract_y
_atom_site_fract_z
Zn1	Zn	1.208401	0.312530	-0.443864
Zn2	Zn	1.708401	0.812530	0.056136
Zn3	Zn	1.208307	0.443805	-0.312595
Zn4	Zn	1.708307	0.943805	0.187405
Zn5	Zn	1.076220	0.312555	-0.312609
Zn6	Zn	1.576220	0.812555	0.187391
Zn7	Zn	1.076187	0.443756	-0.443816
Zn8	Zn	1.576187	0.943756	0.056184
O9	O	1.142279	0.378161	-0.378221
O10	O	1.642279	0.878161	0.121779
O11	O	1.318999	0.329954	-0.426466
O12	O	1.818999	0.829954	0.073534
O13	O	1.190760	0.426425	-0.202750
O14	O	1.690760	0.926425	0.297250
O15	O	1.093806	0.202705	-0.330046
O16	O	1.593806	0.702705	0.169954
O17	O	1.318930	0.426402	-0.330023
O18	O	1.818930	0.926402	0.169977
O19	O	1.190919	0.202686	-0.426479
O20	O	1.690919	0.702686	0.073521
O21	O	1.093716	0.329996	-0.202760
O22	O	1.593716	0.829996	0.297240
O23	O	0.965604	0.329948	-0.329999
O24	O	1.465604	0.829948	0.170001
O25	O	1.093751	0.426317	-0.553669
O26	O	1.593751	0.926317	-0.053669
O27	O	0.965581	0.426341	-0.426396
O28	O	1.465581	0.926341	0.073604
O29	O	1.190888	0.329906	-0.553705
O30	O	1.690888	0.829906	-0.053705
O31	O	1.190729	0.553645	-0.329976
O32	O	1.690729	1.053645	0.170024
O33	O	1.093661	0.553609	-0.426383
O34	O	1.593661	1.053609	0.073617
C35	C	0.936912	0.378143	-0.378195
C36	C	1.436912	0.878143	0.121805
C37	C	0.849056	0.378153	-0.378202
C38	C	1.349056	0.878153	0.121798
C39	C	0.807771	0.327895	-0.328093
C40	C	1.307771	0.827895	0.171907
C41	C	0.807787	0.428418	-0.428322
C42	C	1.307787	0.928418	0.071678
C43	C	0.725242	0.428427	-0.428334
C44	C	1.225242	0.928427	0.071666
C45	C	0.683956	0.378168	-0.378225
C46	C	1.183956	0.878168	0.121775
C47	C	0.725217	0.327900	-0.328104
C48	C	1.225217	0.827900	0.171896
C49	C	0.683975	0.478688	-0.478459
C50	C	1.183975	0.978688	0.021541
C51	C	0.601424	0.478699	-0.478473
C52	C	1.101424	0.978699	0.021527
C53	C	0.560137	0.428443	-0.428360
C54	C	1.060137	0.928443	0.071640
C55	C	0.601403	0.378174	-0.378237
C56	C	1.101403	0.878174	0.121763
C57	C	0.560118	0.327915	-0.328128
C58	C	1.060118	0.827915	0.171872
C59	C	0.601382	0.277649	-0.278000
C60	C	1.101382	0.777649	0.222000
C61	C	0.683931	0.277645	-0.277991
C62	C	1.183931	0.777645	0.222009
C63	C	0.477589	0.428448	-0.428369
C64	C	0.977589	0.928448	0.071631
C65	C	0.477564	0.327921	-0.328139
C66	C	0.977564	0.827921	0.171861
C67	C	1.142202	0.582109	-0.378190
C68	C	1.642202	1.082109	0.121810
C69	C	1.142242	0.669359	-0.378203
C70	C	1.642242	1.169359	0.121797
C71	C	1.142327	0.378104	-0.582965
C72	C	1.642327	0.878104	-0.082965
C73	C	1.142347	0.378079	-0.670215
C74	C	1.642347	0.878079	-0.170215
C75	C	1.348447	0.378181	-0.378248
C76	C	1.848447	0.878181	0.121752
C77	C	1.436304	0.378189	-0.378260
C78	C	1.936304	0.878189	0.121740
C79	C	1.142377	0.173417	-0.378270
C80	C	1.642377	0.673417	0.121730
C81	C	1.142419	0.086167	-0.378290
C82	C	1.642419	0.586167	0.121710
C83	C	1.192837	0.710342	-0.328057
C84	C	1.692837	1.210342	0.171943
C85	C	1.192876	0.792322	-0.328077
C86	C	1.692876	1.292322	0.171923
C87	C	1.142315	0.833318	-0.378239
C88	C	1.642315	1.333318	0.121761
C89	C	1.091718	0.792330	-0.428390
C90	C	1.591718	1.292330	0.071610
C91	C	1.091684	0.710351	-0.428373
C92	C	1.591684	1.210351	0.071627
C93	C	1.091791	0.963200	-0.428420
C94	C	1.591791	1.463200	0.071580
C95	C	1.091824	1.045184	-0.428436
C96	C	1.591824	1.545184	0.071564
C97	C	1.192983	1.045171	-0.328124
C98	C	1.692983	1.545171	0.171876
C99	C	1.192949	0.963192	-0.328107
C100	C	1.692949	1.463192	0.171893
C101	C	1.142351	0.922209	-0.378257
C102	C	1.642351	1.422209	0.121743
C103	C	1.192928	0.327874	-0.711225
C104	C	1.692928	0.827874	-0.211225
C105	C	1.192937	0.327848	-0.793206
C106	C	1.692937	0.827848	-0.293206
C107	C	1.142369	0.378031	-0.834175
C108	C	1.642369	0.878031	-0.334175
C109	C	1.091783	0.428239	-0.793159
C110	C	1.591783	0.928239	-0.293159
C111	C	1.091770	0.428260	-0.711180
C112	C	1.591770	0.928260	-0.211180
C113	C	1.091815	0.428191	-0.964029
C114	C	1.591815	0.928191	-0.464029
C115	C	1.091828	0.428171	-1.046014
C116	C	1.591828	0.928171	-0.546014
C117	C	1.192982	0.327779	-1.046055
C118	C	1.692982	0.827779	-0.546055
C119	C	1.192969	0.327800	-0.964076
C120	C	1.692969	0.827800	-0.464076
C121	C	1.142384	0.378009	-0.923066
C122	C	1.642384	0.878009	-0.423066
C123	C	1.142277	0.378162	-0.174273
C124	C	1.642277	0.878162	0.325727
C125	C	1.142409	0.377966	-0.087024
C126	C	1.642409	0.877966	0.412976
H127	H	0.841407	0.469333	-0.469122
H128	H	1.341407	0.969333	0.030878
H129	H	1.050607	0.469096	-0.826523
H130	H	1.550607	0.969096	-0.326523
H131	H	1.050650	0.469033	-1.079369
H132	H	1.550650	0.969033	-0.579369
H133	H	0.443956	0.286995	-0.287333
H134	H	0.943956	0.786995	0.212667
F135	F	1.246760	0.919563	-0.274718
F136	F	1.746760	1.419563	0.225282
F137	F	1.246647	0.666718	-0.274662
F138	F	1.746647	1.166718	0.225338
H139	H	1.050485	0.676983	-0.469208
H140	H	1.550485	1.176983	0.030792
H141	H	1.234109	0.287011	-0.677874
H142	H	1.734109	0.787011	-0.177874
H143	H	1.050591	0.929834	-0.469260
H144	H	1.550591	1.429834	0.030740
H145	H	1.050610	0.469064	-0.930641
H146	H	1.550610	0.969064	-0.430641
F147	F	0.557434	0.224157	-0.224677
F148	F	1.057434	0.724157	0.275323
F149	F	1.246820	0.274343	-1.089702
F150	F	1.746820	0.774343	-0.589702
H151	H	0.717595	0.519604	-0.519258
H152	H	1.217595	1.019604	-0.019258
H153	H	1.234127	0.286967	-0.826593
H154	H	1.734127	0.786967	-0.326593
H155	H	1.050554	0.825715	-0.469236
H156	H	1.550554	1.325715	0.030764
H157	H	1.234185	1.078544	-0.287292
H158	H	1.734185	1.578544	0.212708
F159	F	1.246794	0.274394	-0.920475
F160	F	1.746794	0.774394	-0.420475
F161	F	1.037933	0.481694	-0.667535
F162	F	1.537933	0.981694	-0.167535
H163	H	0.841372	0.286972	-0.287278
H164	H	1.341372	0.786972	0.212722
F165	F	0.727852	0.224150	-0.224649
F166	F	1.227852	0.724150	0.275351
F167	F	1.246728	0.835936	-0.274708
F168	F	1.746728	1.335936	0.225292
H169	H	0.567833	0.519629	-0.519290
H170	H	1.067833	1.019629	-0.019290
F171	F	0.433676	0.481936	-0.481719
F172	F	0.933676	0.981936	0.018281
H173	H	1.050668	1.078561	-0.469297
H174	H	1.550668	1.578561	0.030703
