data_functionalizedCrystal
_audit_creation_method	'MofGen! by Chris Wilmer'
_symmetry_space_group_name_H-M	'P1'
_symmetry_Int_Tables_number	1
_symmetry_cell_setting	triclinic
loop_
_symmetry_equiv_pos_as_xyz
  x,y,z
_cell_length_a	19.805407
_cell_length_b	16.625546
_cell_length_c	19.805399
_cell_angle_alpha	89.972133
_cell_angle_beta	89.980427
_cell_angle_gamma	90.022468
loop_
_atom_site_label
_atom_site_type_symbol
_atom_site_fract_x
_atom_site_fract_y
_atom_site_fract_z
Zn1	Zn	1.034754	-0.321020	-0.382718
Zn2	Zn	1.034677	-0.455857	-0.269529
Zn3	Zn	0.921569	-0.321043	-0.269543
Zn4	Zn	0.921540	-0.455815	-0.382676
O5	O	0.978135	-0.388434	-0.326117
O6	O	1.129461	-0.338915	-0.367716
O7	O	1.019652	-0.438001	-0.174815
O8	O	0.936628	-0.208207	-0.284579
O9	O	1.129404	-0.437980	-0.284556
O10	O	1.019784	-0.208191	-0.367729
O11	O	0.936553	-0.338953	-0.174825
O12	O	0.826848	-0.338912	-0.284538
O13	O	0.936579	-0.437907	-0.477398
O14	O	0.826827	-0.437928	-0.367657
O15	O	1.019756	-0.338874	-0.477429
O16	O	1.019625	-0.568684	-0.284515
O17	O	0.936504	-0.568653	-0.367644
C18	C	0.802279	-0.388418	-0.326095
C19	C	0.727047	-0.388431	-0.326102
C20	C	0.978071	-0.597925	-0.326088
C21	C	0.978105	-0.687546	-0.326099
C22	C	0.691710	-0.440067	-0.369311
C23	C	0.621021	-0.440068	-0.369321
C24	C	0.585671	-0.388437	-0.326117
C25	C	0.621014	-0.336796	-0.282905
C26	C	0.691701	-0.336791	-0.282899
C27	C	0.335941	-0.336814	-0.282927
C28	C	0.265248	-0.336825	-0.282935
C29	C	0.265261	-0.440091	-0.369349
C30	C	0.335948	-0.440086	-0.369343
C31	C	0.371284	-0.388442	-0.326134
C32	C	0.447932	-0.388440	-0.326125
C33	C	0.509024	-0.388443	-0.326122
C34	C	0.978224	-1.015721	-0.326169
C35	C	0.978189	-0.924413	-0.326152
C36	C	0.978164	-0.851636	-0.326134
C37	C	0.978130	-0.760322	-0.326117
C38	C	1.154678	-0.388450	-0.326139
C39	C	1.229910	-0.388457	-0.326149
C40	C	0.978173	-0.388383	-0.502660
C41	C	0.978189	-0.388361	-0.577892
C42	C	0.978218	-0.178125	-0.326160
C43	C	0.978253	-0.088504	-0.326178
C44	C	1.021501	-0.336792	-0.613253
C45	C	1.021508	-0.336769	-0.683941
C46	C	0.978206	-0.388319	-0.719267
C47	C	0.934889	-0.439890	-0.683901
C48	C	0.934880	-0.439909	-0.613214
C49	C	0.934928	-0.439815	-0.968974
C50	C	0.934942	-0.439794	-1.039667
C51	C	1.021556	-0.336675	-1.039702
C52	C	1.021546	-0.336694	-0.969015
C53	C	0.978227	-0.388262	-0.933655
C54	C	0.978219	-0.388285	-0.857006
C55	C	0.978217	-0.388300	-0.795914
C56	C	0.978136	-0.388426	-0.150261
C57	C	0.978251	-0.388221	-0.075029
H58	H	0.592253	-0.482116	-0.404506
O59	O	0.370181	-0.490265	-0.411376
C60	C	0.362731	-0.592725	-0.497066
C61	C	0.323880	-0.535927	-0.449507
H62	H	0.325313	-0.629669	-0.527897
H63	H	0.395831	-0.555795	-0.532555
H64	H	0.395819	-0.634799	-0.465915
H65	H	0.290754	-0.493841	-0.480604
H66	H	0.290822	-0.572906	-0.414016
O67	O	0.230829	-0.490177	-0.411307
C68	C	0.121939	-0.535991	-0.449592
C69	C	0.160845	-0.479215	-0.402056
H70	H	0.065349	-0.527160	-0.442119
H71	H	0.135817	-0.521918	-0.504205
H72	H	0.135854	-0.600978	-0.437611
H73	H	0.146950	-0.414209	-0.413976
H74	H	0.146963	-0.493357	-0.347458
H75	H	0.592226	-0.294754	-0.247730
H76	H	0.720472	-0.294740	-0.247717
H77	H	0.720486	-0.482113	-0.404491
H78	H	1.056764	-0.294817	-0.584496
O79	O	0.231013	-0.286587	-0.240946
C80	C	0.238456	-0.184182	-0.155210
C81	C	0.277312	-0.241015	-0.202736
H82	H	0.275871	-0.147334	-0.124294
H83	H	0.205404	-0.142025	-0.186323
H84	H	0.205320	-0.221160	-0.119792
H85	H	0.310484	-0.204102	-0.238163
H86	H	0.310321	-0.283174	-0.171580
O87	O	0.370331	-0.286765	-0.240917
C88	C	0.450062	-0.275762	-0.149509
C89	C	0.411167	-0.332535	-0.197057
H90	H	0.483076	-0.312745	-0.114027
H91	H	0.483225	-0.233654	-0.180603
H92	H	0.412636	-0.238851	-0.118663
H93	H	0.448545	-0.369499	-0.227913
H94	H	0.377994	-0.374590	-0.165924
O95	O	1.063647	-0.286652	-0.718186
C96	C	1.149536	-0.184344	-0.710762
C97	C	1.101857	-0.241076	-0.671896
H98	H	1.180431	-0.147469	-0.673353
H99	H	1.184960	-0.221321	-0.743838
H100	H	1.118474	-0.142202	-0.743876
H101	H	1.132864	-0.283230	-0.638746
H102	H	1.066431	-0.204049	-0.638863
H103	H	1.056809	-0.294719	-0.940256
H104	H	1.056826	-0.294683	-1.068501
H105	H	0.899678	-0.481774	-1.068427
O106	O	0.892943	-0.489951	-0.934564
C107	C	0.883762	-0.598878	-0.854777
C108	C	0.931391	-0.542133	-0.893691
H109	H	0.914829	-0.641093	-0.821732
H110	H	0.848385	-0.561913	-0.821642
H111	H	0.852808	-0.635676	-0.892190
H112	H	0.962389	-0.505323	-0.856326
H113	H	0.966724	-0.579145	-0.926836
O114	O	0.892859	-0.490078	-0.718141
C115	C	0.859980	-0.627226	-0.739763
C116	C	0.907609	-0.570476	-0.700935
H117	H	0.871898	-0.692240	-0.725877
H118	H	0.805394	-0.613132	-0.725846
H119	H	0.867417	-0.618315	-0.796356
H120	H	0.900233	-0.579356	-0.644333
H121	H	0.962177	-0.584585	-0.714908
O122	O	0.892906	-0.490045	-0.578783
C123	C	0.883756	-0.598952	-0.498973
C124	C	0.931369	-0.542213	-0.537913
H125	H	0.914835	-0.641156	-0.465931
H126	H	0.848387	-0.561981	-0.465834
H127	H	0.852792	-0.635762	-0.536370
H128	H	0.962377	-0.505391	-0.500564
H129	H	0.966693	-0.579231	-0.571062
