data_functionalizedCrystal
_audit_creation_method	'MofGen! by Chris Wilmer'
_symmetry_space_group_name_H-M	'P1'
_symmetry_Int_Tables_number	1
_symmetry_cell_setting	triclinic
loop_
_symmetry_equiv_pos_as_xyz
  x,y,z
_cell_length_a	15.944493
_cell_length_b	10.723024
_cell_length_c	9.798715
_cell_angle_alpha	90.003391
_cell_angle_beta	90.002726
_cell_angle_gamma	96.028543
loop_
_atom_site_label
_atom_site_type_symbol
_atom_site_fract_x
_atom_site_fract_y
_atom_site_fract_z
O1	O	0.117811	-1.655662	-0.113463
O2	O	0.617811	-1.155662	0.386537
O3	O	0.129088	-1.292364	-0.113465
O4	O	0.629088	-0.792364	0.386535
O5	O	0.001228	-1.483972	-0.113475
O6	O	0.501228	-0.983972	0.386525
O7	O	0.245671	-1.464055	-0.113453
O8	O	0.745671	-0.964055	0.386547
O9	O	0.001228	-1.483958	0.113507
O10	O	0.501228	-0.983958	0.613507
O11	O	0.129088	-1.292350	0.113517
O12	O	0.629088	-0.792350	0.613517
O13	O	0.117811	-1.655648	0.113520
O14	O	0.617811	-1.155648	0.613520
Zn15	Zn	0.123449	-1.473997	0.149557
Zn16	Zn	0.623449	-0.973997	0.649557
Zn17	Zn	0.123450	-1.474016	-0.149502
Zn18	Zn	0.623450	-0.974016	0.350498
O19	O	0.245670	-1.464041	0.113529
O20	O	0.745670	-0.964041	0.613529
C21	C	0.128267	-1.245868	0.000025
C22	C	0.628267	-0.745868	0.500025
C23	C	0.125812	-1.107346	0.000023
C24	C	0.625812	-0.607346	0.500023
C25	C	-0.030071	-1.483151	0.000010
C26	C	0.469929	-0.983151	0.500010
C27	C	-0.123334	-1.480710	-0.000007
C28	C	0.376666	-0.980710	0.499993
C29	C	-0.358448	-1.593495	0.000019
C30	C	0.141552	-1.093495	0.500019
C31	C	-0.409364	-1.532681	-0.111894
C32	C	0.090636	-1.032681	0.388106
C33	C	-0.294081	-1.476188	0.000009
C34	C	0.205919	-0.976188	0.500009
C35	C	-0.409341	-1.532640	0.111892
C36	C	0.090659	-1.032640	0.611892
C37	C	-0.459015	-1.471829	0.000031
C38	C	0.040985	-0.971829	0.500031
C39	C	-0.343768	-1.415406	-0.111997
C40	C	0.156232	-0.915406	0.388003
C41	C	-0.343741	-1.415382	0.111890
C42	C	0.156259	-0.915382	0.611890
C43	C	-0.394625	-1.354482	-0.000051
C44	C	0.105375	-0.854482	0.499949
C45	C	-0.199066	-1.478703	-0.000005
C46	C	0.300934	-0.978703	0.499995
C47	C	-0.554027	-1.469305	0.000036
C48	C	-0.054027	-0.969305	0.500036
C49	C	0.118632	-1.702144	0.000026
C50	C	0.618632	-1.202144	0.500026
C51	C	0.121087	-1.840667	0.000019
C52	C	0.621087	-1.340667	0.500019
C53	C	0.276970	-1.464862	0.000041
C54	C	0.776970	-0.964862	0.500041
C55	C	0.370233	-1.467302	0.000050
C56	C	0.870233	-0.967302	0.500050
N57	N	0.123448	-1.473993	0.353656
N58	N	0.623448	-0.973993	0.853656
C59	C	0.197355	-1.031437	0.000029
C60	C	0.697355	-0.531437	0.500029
C61	C	0.194819	-0.888266	0.000027
C62	C	0.694819	-0.388266	0.500027
N63	N	0.123444	-1.474029	-0.353602
N64	N	0.623444	-0.974029	0.146398
C65	C	0.069527	-1.554447	0.421429
C66	C	0.569527	-1.054447	0.921429
C67	C	0.069524	-1.554467	0.578592
C68	C	0.569524	-1.054467	1.078592
H69	H	-0.438026	-1.582228	-0.206510
H70	H	0.061974	-1.082228	0.293490
H71	H	0.062683	-1.066340	-0.000018
H72	H	0.562683	-0.566340	0.499982
O73	O	0.039949	-0.927048	0.000027
O74	O	0.539949	-0.427048	0.500027
H75	H	0.037393	-0.987071	-0.092479
H76	H	0.537393	-0.487071	0.407521
O77	O	0.280980	-1.085744	0.000047
O78	O	0.780980	-0.585744	0.500047
H79	H	0.333002	-1.008361	0.000064
H80	H	0.833002	-0.508361	0.500064
O81	O	-0.305740	-1.349811	0.237216
O82	O	0.194260	-0.849811	0.737216
H83	H	-0.332120	-1.398714	0.329986
H84	H	0.167880	-0.898714	0.829986
O85	O	0.275951	-0.801874	0.000033
O86	O	0.775951	-0.301874	0.500033
H87	H	0.330348	-0.858528	0.000030
H88	H	0.830348	-0.358528	0.500030
H89	H	0.023361	-1.623308	0.363103
H90	H	0.523361	-1.123308	0.863103
H91	H	0.023363	-1.623352	0.636873
H92	H	0.523363	-1.123352	1.136873
O93	O	0.184586	-1.382768	0.569207
O94	O	0.684586	-0.882768	1.069207
H95	H	0.225584	-1.435506	0.504082
H96	H	0.725584	-0.935506	1.004082
O97	O	-0.336959	-1.727329	-0.000125
O98	O	0.163041	-1.227329	0.499875
H99	H	-0.363357	-1.775745	-0.093171
H100	H	0.136643	-1.275745	0.406829
H101	H	0.169607	-1.405124	0.411984
H102	H	0.669607	-0.905124	0.911984
H103	H	-0.315232	-1.365900	-0.206712
H104	H	0.184768	-0.865900	0.293288
H105	H	-0.410670	-1.253359	-0.000113
H106	H	0.089330	-0.753359	0.499887
H107	H	-0.437988	-1.582199	0.206501
H108	H	0.062012	-1.082199	0.706501
