data_functionalizedCrystal
_audit_creation_method	'MofGen! by Chris Wilmer'
_symmetry_space_group_name_H-M	'P1'
_symmetry_Int_Tables_number	1
_symmetry_cell_setting	triclinic
loop_
_symmetry_equiv_pos_as_xyz
  x,y,z
_cell_length_a	10.654550
_cell_length_b	10.489741
_cell_length_c	9.730223
_cell_angle_alpha	89.998920
_cell_angle_beta	89.996251
_cell_angle_gamma	84.512038
loop_
_atom_site_label
_atom_site_type_symbol
_atom_site_fract_x
_atom_site_fract_y
_atom_site_fract_z
O1	O	1.667918	0.179156	-0.114402
O2	O	1.302447	0.196226	-0.114380
O3	O	1.493499	0.002089	-0.114383
O4	O	1.476867	0.373293	-0.114399
O5	O	1.493497	0.002094	0.114196
O6	O	1.302445	0.196231	0.114200
O7	O	1.667916	0.179161	0.114178
Zn8	Zn	1.485180	0.187697	0.150481
Zn9	Zn	1.485183	0.187690	-0.150683
O10	O	1.476864	0.373298	0.114181
C11	C	1.255648	0.194975	-0.000087
C12	C	1.116203	0.191225	-0.000079
C13	C	1.036771	0.305530	-0.000103
C14	C	0.905748	0.301999	-0.000127
C15	C	0.933603	0.069849	-0.000107
C16	C	1.064623	0.073381	-0.000073
C17	C	1.020688	0.439560	-0.000121
C18	C	0.889665	0.436029	-0.000145
C19	C	1.492241	-0.045439	-0.000094
C20	C	1.488483	-0.187067	-0.000096
C21	C	1.366923	-0.255148	-0.000099
C22	C	1.424346	-0.347296	0.112599
C23	C	1.424377	-0.347276	-0.112763
C24	C	1.545956	-0.277350	0.112695
C25	C	1.545970	-0.277319	-0.112768
C26	C	1.603481	-0.369440	-0.000043
C27	C	1.714715	0.180412	-0.000118
C28	C	1.854160	0.184162	-0.000136
C29	C	1.478122	0.420826	-0.000111
C30	C	1.481880	0.562454	-0.000118
N31	N	1.485187	0.187700	0.356017
N32	N	1.485186	0.187677	-0.356220
C33	C	1.569807	0.101766	0.427942
C34	C	1.569803	0.101751	0.571825
C35	C	1.400557	0.273615	0.571846
C36	C	1.400555	0.273623	0.427966
C37	C	1.667524	0.002545	0.427931
C38	C	1.667520	0.002530	0.571814
H39	H	1.056364	0.482235	-0.098810
H40	H	1.597362	-0.246302	-0.208058
C41	C	1.354871	-0.389167	0.241317
H42	H	1.410341	-0.445885	0.294376
H43	H	1.283911	-0.431487	0.214233
H44	H	1.327515	-0.315948	0.294766
C45	C	1.615368	-0.235738	0.241558
H46	H	1.617292	-0.145381	0.240805
H47	H	1.699150	-0.275894	0.241884
H48	H	1.572457	-0.260249	0.321492
C49	C	1.797904	0.032057	0.624569
H50	H	1.851523	0.044225	0.548628
H51	H	1.833610	-0.037495	0.678797
H52	H	1.789009	0.107683	0.678814
C53	C	1.626265	-0.122636	0.632105
H54	H	1.607900	-0.178368	0.559391
H55	H	1.553135	-0.103904	0.687066
H56	H	1.692330	-0.162867	0.687040
C57	C	1.738563	-0.436408	0.000106
H58	H	1.751147	-0.487870	-0.079966
H59	H	1.750522	-0.488909	0.079465
H60	H	1.797346	-0.373786	0.000913
C61	C	1.151994	-0.052353	-0.000031
H62	H	1.102507	-0.123038	-0.000044
H63	H	1.203661	-0.055790	0.079694
H64	H	1.203706	-0.055812	-0.079738
H65	H	0.844012	0.476536	0.098538
C66	C	1.354875	-0.389090	-0.241477
H67	H	1.270841	-0.349563	-0.241323
H68	H	1.353647	-0.479519	-0.241008
H69	H	1.397250	-0.363955	-0.321510
C70	C	1.307467	0.368143	0.348853
H71	H	1.257075	0.419319	0.412312
H72	H	1.254782	0.321760	0.292725
H73	H	1.353121	0.421685	0.292727
C74	C	1.307477	0.368129	0.650993
H75	H	1.319600	0.355823	0.746985
H76	H	1.223537	0.353488	0.627416
H77	H	1.321890	0.453399	0.627419
H78	H	1.646035	-0.095499	0.388882
H79	H	0.847957	0.486527	-0.095814
C80	C	0.876860	-0.059769	-0.000115
H81	H	0.787452	-0.045504	-0.000146
H82	H	0.904035	-0.106884	0.079601
H83	H	0.904074	-0.106880	-0.079831
C84	C	1.790724	0.044500	0.367624
H85	H	1.845591	0.063172	0.440332
H86	H	1.772247	0.118778	0.312675
H87	H	1.830353	-0.022585	0.312674
H88	H	1.266977	-0.205449	0.000020
C89	C	1.060352	0.510387	0.129096
H90	H	0.987756	0.537106	0.182226
H91	H	1.101171	0.583168	0.102519
H92	H	1.116589	0.454568	0.182273
