data_functionalizedCrystal
_audit_creation_method	'MofGen! by Chris Wilmer'
_symmetry_space_group_name_H-M	'P1'
_symmetry_Int_Tables_number	1
_symmetry_cell_setting	triclinic
loop_
_symmetry_equiv_pos_as_xyz
  x,y,z
_cell_length_a	14.519731
_cell_length_b	13.596369
_cell_length_c	11.026607
_cell_angle_alpha	89.997861
_cell_angle_beta	96.137435
_cell_angle_gamma	90.006024
loop_
_atom_site_label
_atom_site_type_symbol
_atom_site_fract_x
_atom_site_fract_y
_atom_site_fract_z
O1	O	1.250096	0.081791	0.159249
O2	O	0.984705	0.081792	0.177962
O3	O	1.095405	0.081788	-0.008097
O4	O	1.139396	0.081795	0.345309
O5	O	1.095389	-0.081795	-0.008087
O6	O	0.984689	-0.081791	0.177973
O7	O	1.250080	-0.081792	0.159260
Zn8	Zn	1.117382	-0.107764	0.168618
Zn9	Zn	1.117403	0.107764	0.168604
O10	O	1.139380	-0.081788	0.345319
C11	C	0.950193	0.000001	0.177091
C12	C	0.847380	0.000001	0.174463
C13	C	0.763884	0.000005	0.172328
C14	C	0.659136	0.000005	0.169661
C15	C	0.575648	0.000005	0.167543
C16	C	0.470893	0.000007	0.164876
N17	N	1.117375	-0.254856	0.168626
C18	C	1.117380	-0.343854	0.168629
C19	C	1.117387	-0.455505	0.168621
C20	C	1.117397	-0.544495	0.168607
C21	C	1.117406	-0.656154	0.168600
C22	C	1.284592	0.000001	0.160131
C23	C	1.387405	0.000007	0.162759
C24	C	1.087282	-0.000002	-0.053321
C25	C	1.063089	0.000001	-0.188090
N26	N	1.117416	0.254856	0.168586
C27	C	1.129889	0.000002	-0.261744
C28	C	1.104886	0.000006	-0.401035
C29	C	1.147503	0.000004	0.390543
C30	C	1.171696	0.000007	0.525312
H31	H	1.205589	-0.000004	-0.221681
H32	H	0.987389	0.000008	-0.228154
C33	C	1.002612	0.000005	-0.455147
N34	N	0.925580	0.000002	-0.495906
C35	C	1.273971	0.000006	-0.420579
N36	N	1.351004	0.000003	-0.379823
