data_functionalizedCrystal
_audit_creation_method	'MofGen! by Chris Wilmer'
_symmetry_space_group_name_H-M	'P1'
_symmetry_Int_Tables_number	1
_symmetry_cell_setting	triclinic
loop_
_symmetry_equiv_pos_as_xyz
  x,y,z
_cell_length_a	12.784890
_cell_length_b	19.188924
_cell_length_c	11.892095
_cell_angle_alpha	93.873774
_cell_angle_beta	86.513306
_cell_angle_gamma	78.124261
loop_
_atom_site_label
_atom_site_type_symbol
_atom_site_fract_x
_atom_site_fract_y
_atom_site_fract_z
O1	O	1.417114	-0.000507	-0.093968
O2	O	1.917114	0.499493	0.406032
O3	O	1.107519	0.029404	-0.093980
O4	O	1.607519	0.529404	0.406020
O5	O	1.271254	-0.087732	-0.093961
O6	O	1.771254	0.412268	0.406039
O7	O	1.253380	0.116629	-0.093988
O8	O	1.753380	0.616629	0.406012
O9	O	1.257602	-0.077979	0.094045
O10	O	1.757602	0.422021	0.594045
O11	O	1.093867	0.039156	0.094026
O12	O	1.593867	0.539156	0.594026
O13	O	1.403462	0.009246	0.094037
O14	O	1.903462	0.509246	0.594037
Zn15	Zn	1.246497	0.025750	0.123882
Zn16	Zn	1.746497	0.525750	0.623882
Zn17	Zn	1.264484	0.012900	-0.123824
Zn18	Zn	1.764484	0.512900	0.376176
O19	O	1.239728	0.126381	0.094018
O20	O	1.739728	0.626381	0.594018
C21	C	1.061085	0.036225	0.000022
C22	C	1.561085	0.536225	0.500022
C23	C	0.943064	0.042013	0.000018
C24	C	1.443064	0.542013	0.500018
C25	C	0.763748	0.114556	0.000006
C26	C	1.263748	0.614556	0.500006
C27	C	0.874639	0.109122	0.000007
C28	C	1.374639	0.609122	0.500007
C29	C	0.900592	-0.019666	0.000024
C30	C	1.400592	0.480334	0.500024
C31	C	0.789702	-0.014232	0.000023
C32	C	1.289702	0.485768	0.500023
C33	C	0.721283	0.052881	0.000016
C34	C	1.221283	0.552881	0.500016
C35	C	0.610390	0.058315	0.000023
C36	C	1.110390	0.558315	0.500023
C37	C	0.636346	-0.070473	0.000032
C38	C	1.136346	0.429527	0.500032
C39	C	0.747237	-0.075907	0.000033
C40	C	1.247237	0.424093	0.500033
C41	C	1.263850	-0.108832	0.000043
C42	C	1.763850	0.391168	0.500043
C43	C	1.262116	-0.186235	0.000046
C44	C	1.762116	0.313765	0.500046
C45	C	1.268748	-0.227903	-0.102436
C46	C	1.768748	0.272097	0.397564
C47	C	1.267104	-0.300629	-0.102445
C48	C	1.767104	0.199371	0.397555
C49	C	1.258849	-0.331688	0.000035
C50	C	1.758849	0.168312	0.500035
C51	C	1.252210	-0.290010	0.102531
C52	C	1.752210	0.209990	0.602531
C53	C	1.253843	-0.217284	0.102536
C54	C	1.753843	0.282716	0.602536
N55	N	1.311249	-0.450796	0.076310
N56	N	1.811249	0.049204	0.576310
N57	N	1.309700	-0.519884	0.076298
N58	N	1.809700	-0.019884	0.576298
C59	C	1.253925	-0.550809	0.000024
C60	C	1.753925	-0.050809	0.500024
N61	N	1.199773	-0.510039	-0.076254
N62	N	1.699773	-0.010039	0.423746
N63	N	1.201327	-0.440945	-0.076245
N64	N	1.701327	0.059055	0.423755
C65	C	1.257077	-0.410548	0.000040
C66	C	1.757077	0.089452	0.500040
C67	C	1.258774	-0.671335	-0.102475
C68	C	1.758774	-0.171335	0.397525
C69	C	1.257123	-0.744062	-0.102479
C70	C	1.757123	-0.244062	0.397521
C71	C	1.242240	-0.733443	0.102499
C72	C	1.742240	-0.233443	0.602499
C73	C	1.243880	-0.660716	0.102500
C74	C	1.743880	-0.160716	0.602500
C75	C	1.252152	-0.629668	0.000010
C76	C	1.752152	-0.129668	0.500010
C77	C	1.449897	0.002424	0.000033
C78	C	1.949897	0.502424	0.500033
C79	C	1.567919	-0.003364	0.000030
C80	C	2.067919	0.496636	0.500030
C81	C	1.247132	0.147482	0.000012
C82	C	1.747132	0.647482	0.500012
C83	C	1.248867	0.224884	0.000001
C84	C	1.748867	0.724884	0.500001
N85	N	1.234230	0.034518	0.292934
N86	N	1.734230	0.534518	0.792934
N87	N	1.276761	0.004125	-0.292877
N88	N	1.776761	0.504125	0.207123
C89	C	1.362126	-0.056931	0.529597
C90	C	1.862126	0.443069	1.029597
C91	C	1.353558	-0.050797	0.647938
C92	C	1.853558	0.449203	1.147938
C93	C	1.208523	0.052916	0.647959
C94	C	1.708523	0.552916	1.147959
C95	C	1.217091	0.046782	0.529618
C96	C	1.717091	0.546782	1.029618
C97	C	1.293895	-0.008142	0.470441
C98	C	1.793895	0.491858	0.970441
C99	C	1.302467	-0.014273	0.352098
C100	C	1.802467	0.485727	0.852098
C101	C	1.157428	0.089437	0.352121
C102	C	1.657428	0.589437	0.852121
C103	C	1.148860	0.095571	0.470462
C104	C	1.648860	0.595571	0.970462
H105	H	0.956318	-0.074307	0.000021
H106	H	1.456318	0.425693	0.500021
N107	N	0.821040	-0.148286	0.000049
N108	N	1.321040	0.351714	0.500049
H109	H	0.802354	-0.171873	0.069750
H110	H	1.302354	0.328127	0.569750
H111	H	0.812444	-0.179056	-0.069684
H112	H	1.312444	0.320944	0.430316
N113	N	0.590546	-0.136998	0.000052
N114	N	1.090546	0.363002	0.500052
H115	H	0.509915	-0.123374	0.000054
H116	H	1.009915	0.376626	0.500054
H117	H	0.620652	-0.169685	-0.069639
H118	H	1.120652	0.330315	0.430361
N119	N	1.277666	-0.194414	-0.212974
N120	N	1.777666	0.305586	0.287026
H121	H	1.281617	-0.231850	-0.277898
H122	H	1.781617	0.268150	0.222102
H123	H	1.212773	-0.154809	-0.217442
H124	H	1.712773	0.345191	0.282558
N125	N	0.689954	0.186941	0.000017
N126	N	1.189954	0.686941	0.500017
H127	H	0.708635	0.210538	-0.069675
H128	H	1.208635	0.710538	0.430325
H129	H	0.613288	0.180971	0.000063
H130	H	1.113288	0.680971	0.500063
N131	N	0.920444	0.175641	-0.000014
N132	N	1.420444	0.675641	0.499986
H133	H	0.860271	0.218978	-0.000021
H134	H	1.360271	0.718978	0.499979
H135	H	0.960830	0.179810	0.069680
H136	H	1.460830	0.679810	0.569680
N137	N	1.233338	-0.766939	0.213027
N138	N	1.733338	-0.266939	0.713027
H139	H	1.296261	-0.761625	0.257837
H140	H	1.796261	-0.261625	0.757837
H141	H	1.164440	-0.742283	0.257741
H142	H	1.664440	-0.242283	0.757741
N143	N	1.083821	0.142056	0.288315
N144	N	1.583821	0.642056	0.788315
H145	H	1.033867	0.177778	0.343764
H146	H	1.533867	0.677778	0.843764
H147	H	1.127929	0.167932	0.239203
H148	H	1.627929	0.667932	0.739203
H149	H	1.272499	-0.334561	-0.185901
H150	H	1.772499	0.165439	0.314099
H151	H	1.245486	-0.315303	0.185970
H152	H	1.745486	0.184697	0.685970
H153	H	0.554684	0.112963	0.000024
H154	H	1.054684	0.612963	0.500024
H155	H	1.265504	-0.646053	-0.185928
H156	H	1.765504	-0.146053	0.314072
H157	H	1.262519	-0.777987	-0.185936
H158	H	1.762519	-0.277987	0.314064
H159	H	1.238488	-0.626791	0.185953
H160	H	1.738488	-0.126791	0.685953
H161	H	1.248438	-0.183357	0.185992
H162	H	1.748438	0.316643	0.685992
N163	N	1.385306	-0.073507	0.288267
N164	N	1.885306	0.426493	0.788267
H165	H	1.427226	-0.103484	0.343704
H166	H	1.927226	0.396516	0.843704
H167	H	1.348302	-0.104469	0.239177
H168	H	1.848302	0.395531	0.739177
H169	H	1.424670	-0.101649	0.481415
H170	H	1.924670	0.398351	0.981415
H171	H	1.409117	-0.090526	0.696100
H172	H	1.909117	0.409474	1.196100
N173	N	1.125700	0.112150	0.711812
N174	N	1.625700	0.612150	1.211812
H175	H	1.139206	0.159913	0.691220
H176	H	1.639206	0.659913	1.191220
H177	H	1.051803	0.107538	0.691219
H178	H	1.551803	0.607538	1.191219
N179	N	1.066020	0.154805	0.534291
N180	N	1.566020	0.654805	1.034291
H181	H	1.070942	0.151288	0.618236
H182	H	1.570942	0.651288	1.118236
H183	H	1.079569	0.202537	0.513601
H184	H	1.579569	0.702537	1.013601
