data_functionalizedCrystal
_audit_creation_method	'MofGen! by Chris Wilmer'
_symmetry_space_group_name_H-M	'P1'
_symmetry_Int_Tables_number	1
_symmetry_cell_setting	triclinic
loop_
_symmetry_equiv_pos_as_xyz
  x,y,z
_cell_length_a	8.497374
_cell_length_b	19.805407
_cell_length_c	19.805405
_cell_angle_alpha	89.973590
_cell_angle_beta	89.985911
_cell_angle_gamma	90.004504
loop_
_atom_site_label
_atom_site_type_symbol
_atom_site_fract_x
_atom_site_fract_y
_atom_site_fract_z
Zn1	Zn	0.892011	1.034635	0.269581
Zn2	Zn	0.628188	1.034580	0.382739
Zn3	Zn	0.628226	0.921479	0.269569
Zn4	Zn	0.891907	0.921413	0.382733
O5	O	0.760083	0.978027	0.326155
O6	O	0.857043	1.129344	0.284598
O7	O	0.407431	1.019581	0.367724
O8	O	0.663277	0.936541	0.174854
O9	O	0.663213	1.129303	0.367735
O10	O	0.857079	1.019676	0.174862
O11	O	0.407458	0.936487	0.284579
O12	O	0.663176	0.826754	0.284573
O13	O	1.112683	0.936428	0.367725
O14	O	0.856901	0.826705	0.367714
O15	O	1.112760	1.019611	0.284593
O16	O	0.663111	1.019517	0.477455
O17	O	0.856864	0.936374	0.477450
C18	C	0.760032	0.802171	0.326142
C19	C	0.760048	0.726939	0.326153
C20	C	0.760007	0.977951	0.502011
C21	C	0.760027	0.977980	0.577243
C22	C	0.860757	0.691587	0.369510
C23	C	0.860779	0.620899	0.369511
C24	C	0.760083	0.585563	0.326158
C25	C	0.659369	0.620920	0.282797
C26	C	0.659356	0.691607	0.282793
C27	C	0.659421	0.335847	0.282812
C28	C	0.659439	0.265155	0.282821
C29	C	0.860844	0.265138	0.369530
C30	C	0.860831	0.335825	0.369526
C31	C	0.760124	0.371176	0.326162
C32	C	0.760103	0.447824	0.326161
C33	C	0.760095	0.508916	0.326163
C34	C	1.171563	0.978022	0.326156
C35	C	1.350207	0.978023	0.326164
C36	C	0.760135	1.154569	0.326169
C37	C	0.760157	1.229801	0.326175
C38	C	0.760194	0.978122	0.149613
C39	C	0.760241	0.978162	0.074381
C40	C	0.659245	1.021314	0.612567
C41	C	0.659280	1.021343	0.683256
C42	C	0.760090	0.978034	0.718619
C43	C	0.860882	0.934697	0.683290
C44	C	0.860854	0.934672	0.612603
C45	C	0.860999	0.934797	0.968363
C46	C	0.861016	0.934824	1.039055
C47	C	0.659425	1.021468	1.039016
C48	C	0.659397	1.021443	0.968329
C49	C	0.760195	0.978109	0.933006
C50	C	0.760158	0.978080	0.856358
C51	C	0.760120	0.978059	0.795266
H52	H	0.942785	0.592118	0.404817
O53	O	0.959185	0.892826	1.073378
C54	C	1.227471	0.859867	1.094964
C55	C	1.116487	0.907477	1.056064
H56	H	1.354671	0.871686	1.080970
H57	H	1.210306	0.867331	1.151561
H58	H	1.199579	0.805297	1.081124
H59	H	1.144310	0.962065	1.069848
H60	H	1.133673	0.899955	0.999476
O61	O	0.561148	1.063289	0.578188
C62	C	0.348205	1.072448	0.498381
C63	C	0.459175	1.024833	0.537283
H64	H	0.265755	1.041376	0.465289
H65	H	0.276067	1.103415	0.535742
H66	H	0.420732	1.107814	0.465275
H67	H	0.386770	0.989426	0.570390
H68	H	0.531319	0.993913	0.499885
H69	H	0.942851	0.236347	0.404836
H70	H	0.577407	0.364621	0.247508
O71	O	0.561574	0.230933	0.240638
C72	C	0.361748	0.238405	0.154652
C73	C	0.472518	0.277244	0.202373
H74	H	0.289694	0.275830	0.123711
H75	H	0.434269	0.205346	0.119272
H76	H	0.279196	0.205276	0.185683
H77	H	0.555092	0.310410	0.171396
H78	H	0.399899	0.310260	0.237754
O79	O	0.561227	1.063458	0.717465
C80	C	0.361321	1.149421	0.709966
C81	C	0.472262	1.101747	0.671141
H82	H	0.289387	1.180400	0.672531
H83	H	0.278676	1.118419	0.743083
H84	H	0.433860	1.184772	0.743035
H85	H	0.399850	1.066386	0.638036
H86	H	0.554911	1.132791	0.638067
O87	O	0.958919	0.892674	0.578255
C88	C	1.171795	0.883469	0.498384
C89	C	1.060851	0.931106	0.537253
H90	H	1.254213	0.914522	0.465214
H91	H	1.243970	0.852528	0.535768
H92	H	1.099246	0.848080	0.465360
H93	H	1.133279	0.966536	0.570278
H94	H	0.988671	0.962000	0.499833
H95	H	0.942823	0.364592	0.404830
H96	H	0.577387	0.592144	0.247496
H97	H	0.577303	1.056707	0.939538
H98	H	0.577356	0.720390	0.247484
H99	H	0.577357	1.056755	1.067784
H100	H	0.942970	0.899437	0.712088
O101	O	0.958725	0.725804	0.411645
C102	C	1.158444	0.718319	0.497676
C103	C	1.047594	0.679487	0.449983
H104	H	1.230300	0.680888	0.528695
H105	H	1.241164	0.751412	0.466687
H106	H	1.085838	0.751412	0.532989
H107	H	1.120073	0.646357	0.414660
H108	H	0.964869	0.646436	0.481014
O109	O	0.959069	0.892794	0.934030
C110	C	1.171968	0.883566	0.854173
C111	C	1.061024	0.931215	0.893027
H112	H	1.254405	0.914609	0.821002
H113	H	1.244123	0.852628	0.891566
H114	H	1.099420	0.848174	0.821151
H115	H	1.133450	0.966648	0.926050
H116	H	0.988864	0.962105	0.855597
