data_functionalizedCrystal
_audit_creation_method	'MofGen! by Chris Wilmer'
_symmetry_space_group_name_H-M	'P1'
_symmetry_Int_Tables_number	1
_symmetry_cell_setting	triclinic
loop_
_symmetry_equiv_pos_as_xyz
  x,y,z
_cell_length_a	19.288859
_cell_length_b	13.339070
_cell_length_c	17.766277
_cell_angle_alpha	89.997970
_cell_angle_beta	89.989440
_cell_angle_gamma	99.381510
loop_
_atom_site_label
_atom_site_type_symbol
_atom_site_fract_x
_atom_site_fract_y
_atom_site_fract_z
O1	O	0.945921	0.126056	-0.062607
O2	O	1.445921	0.626056	0.437393
O3	O	0.746975	0.143071	-0.062605
O4	O	1.246975	0.643071	0.437395
O5	O	0.823615	-0.012595	-0.062603
O6	O	1.323615	0.487405	0.437397
O7	O	0.869280	0.281722	-0.062608
O8	O	1.369280	0.781722	0.437392
O9	O	0.823595	-0.012603	0.062585
O10	O	1.323595	0.487397	0.562585
O11	O	0.746954	0.143064	0.062584
O12	O	1.246954	0.643064	0.562584
O13	O	0.945900	0.126048	0.062582
O14	O	1.445900	0.626048	0.562582
Cu15	Cu	0.846425	0.134555	0.074013
Cu16	Cu	1.346425	0.634555	0.574013
Cu17	Cu	0.846450	0.134564	-0.074037
Cu18	Cu	1.346450	0.634564	0.425963
O19	O	0.869260	0.281715	0.062580
O20	O	1.369260	0.781715	0.562580
C21	C	0.720982	0.142521	-0.000010
C22	C	1.220982	0.642521	0.499990
C23	C	0.643558	0.140881	-0.000010
C24	C	1.143558	0.640881	0.499990
C25	C	0.095154	0.221122	-0.000012
C26	C	0.595154	0.721122	0.499988
C27	C	0.167903	0.222672	-0.000016
C28	C	0.667903	0.722672	0.499984
C29	C	0.194810	0.131334	-0.000013
C30	C	0.694810	0.631334	0.499987
C31	C	0.148963	0.038439	-0.000026
C32	C	0.648963	0.538439	0.499974
C33	C	0.076216	0.036891	-0.000029
C34	C	0.576216	0.536891	0.499971
C35	C	0.302799	0.063212	0.043850
C36	C	0.802799	0.563212	0.543850
C37	C	0.375545	0.064763	0.043858
C38	C	0.875545	0.564763	0.543858
C39	C	0.419186	0.136103	-0.000006
C40	C	0.919186	0.636103	0.499994
C41	C	0.390073	0.205909	-0.043868
C42	C	0.890073	0.705909	0.456132
C43	C	0.317327	0.204361	-0.043871
C44	C	0.817327	0.704361	0.456129
C45	C	0.273691	0.133002	-0.000010
C46	C	0.773691	0.633002	0.499990
C47	C	0.543906	0.230673	-0.000003
C48	C	1.043906	0.730673	0.499997
C49	C	0.616656	0.232220	-0.000011
C50	C	1.116656	0.732220	0.499989
C51	C	0.597714	0.047984	-0.000013
C52	C	1.097714	0.547984	0.499987
C53	C	0.524966	0.046440	-0.000012
C54	C	1.024966	0.546440	0.499988
C55	C	0.498067	0.137788	-0.000003
C56	C	0.998067	0.637788	0.499997
C57	C	0.815891	-0.050253	-0.000010
C58	C	1.315891	0.449747	0.499990
C59	C	0.792898	-0.162449	-0.000013
C60	C	1.292898	0.337551	0.499987
C61	C	0.971678	-0.528062	-0.000014
C62	C	1.471678	-0.028062	0.499986
C63	C	0.993283	-0.422649	-0.000008
C64	C	1.493283	0.077351	0.499992
C65	C	0.943189	-0.357594	-0.000009
C66	C	1.443189	0.142406	0.499991
C67	C	0.871486	-0.397962	-0.000017
C68	C	1.371486	0.102038	0.499983
C69	C	0.849879	-0.503386	-0.000018
C70	C	1.349879	-0.003386	0.499982
C71	C	0.821389	-0.332918	-0.000013
C72	C	1.321389	0.167082	0.499987
C73	C	0.749686	-0.373286	-0.000021
C74	C	1.249686	0.126714	0.499979
C75	C	0.728083	-0.478700	-0.000022
C76	C	1.228083	0.021300	0.499978
C77	C	0.778177	-0.543755	-0.000021
C78	C	1.278177	-0.043755	0.499979
C79	C	0.842996	-0.227494	-0.000012
C80	C	1.342996	0.272506	0.499988
C81	C	0.721197	-0.202818	-0.000016
C82	C	1.221197	0.297182	0.499984
C83	C	0.699592	-0.308232	-0.000022
C84	C	1.199592	0.191768	0.499978
C85	C	0.971893	0.126599	-0.000015
C86	C	1.471893	0.626599	0.499985
C87	C	1.049317	0.128239	-0.000020
C88	C	1.549317	0.628239	0.499980
C89	C	0.876984	0.319372	-0.000015
C90	C	1.376984	0.819372	0.499985
C91	C	0.899977	0.431569	-0.000017
C92	C	1.399977	0.931569	0.499983
N93	N	0.846413	0.134549	0.178144
N94	N	1.346413	0.634549	0.678144
C95	C	0.880371	0.065653	0.217531
C96	C	1.380371	0.565653	0.717531
C97	C	0.880373	0.065649	0.296333
C98	C	1.380373	0.565649	0.796333
C99	C	0.846428	0.134557	0.335744
C100	C	1.346428	0.634557	0.835744
C101	C	0.812462	0.203458	0.296347
C102	C	1.312462	0.703458	0.796347
C103	C	0.812455	0.203453	0.217547
C104	C	1.312455	0.703453	0.717547
C105	C	0.855075	0.226650	0.460581
C106	C	1.355075	0.726650	0.960581
C107	C	0.855088	0.226656	0.539379
C108	C	1.355088	0.726656	1.039379
C109	C	0.846448	0.134570	0.578791
C110	C	1.346448	0.634570	1.078791
C111	C	0.837809	0.042475	0.539393
C112	C	1.337809	0.542475	1.039393
C113	C	0.837802	0.042470	0.460593
C114	C	1.337802	0.542470	0.960593
C115	C	0.846432	0.134569	0.421190
C116	C	1.346432	0.634569	0.921190
C117	C	0.880410	0.065664	0.703624
C118	C	1.380410	0.565664	1.203624
C119	C	0.880408	0.065658	0.782427
C120	C	1.380408	0.565658	1.282427
C121	C	0.812502	0.203476	0.782440
C122	C	1.312502	0.703476	1.282440
C123	C	0.812499	0.203473	0.703638
C124	C	1.312499	0.703473	1.203638
C125	C	0.846457	0.134568	0.664235
C126	C	1.346457	0.634568	1.164235
N127	N	0.846461	0.134566	0.821833
N128	N	1.346461	0.634566	1.321833
H129	H	0.653977	0.307859	-0.000011
H130	H	1.153977	0.807859	0.499989
H131	H	1.051663	-0.389788	0.000000
H132	H	1.551663	0.110212	0.500000
H133	H	0.425605	0.264003	-0.079584
H134	H	0.925605	0.764003	0.420416
H135	H	0.908027	0.009544	0.328408
H136	H	1.408027	0.509544	0.828408
Br137	Br	0.972511	-0.214530	-0.000002
Br138	Br	1.472511	0.285470	0.499998
H139	H	0.399243	0.007928	0.079577
H140	H	0.899243	0.507928	0.579577
H141	H	0.680406	-0.149850	-0.000013
H142	H	1.180406	0.350150	0.499987
H143	H	0.073258	0.295504	-0.000009
H144	H	0.573258	0.795504	0.499991
H145	H	0.908019	0.009545	0.185451
H146	H	1.408019	0.509545	0.685451
H147	H	0.170876	-0.035929	-0.000025
H148	H	0.670876	0.464071	0.499975
Br149	Br	0.748858	-0.686824	-0.000132
Br150	Br	1.248858	-0.186824	0.499868
H151	H	0.830774	-0.032510	0.571480
H152	H	1.330774	0.467490	1.071480
Br153	Br	0.230123	0.348736	-0.000005
Br154	Br	0.730123	0.848736	0.499995
Br155	Br	0.277818	0.299088	-0.103398
Br156	Br	0.777818	0.799088	0.396602
Br157	Br	0.926489	-0.027858	0.835886
Br158	Br	1.426489	0.472142	1.335886
H159	H	0.038894	-0.038747	-0.000036
H160	H	0.538894	0.461253	0.499964
H161	H	0.908058	0.009554	0.671541
H162	H	1.408058	0.509554	1.171541
H163	H	0.830766	-0.032517	0.428518
H164	H	1.330766	0.467483	0.928518
H165	H	0.522004	0.305054	0.000003
H166	H	1.022004	0.805054	0.500003
H167	H	0.619622	-0.026385	-0.000017
H168	H	1.119622	0.473615	0.499983
Br169	Br	0.243573	-0.033673	0.103333
Br170	Br	0.743573	0.466327	0.603333
Br171	Br	0.766424	0.296984	0.835920
Br172	Br	1.266424	0.796984	1.335920
H173	H	0.784851	0.259578	0.671567
H174	H	1.284851	0.759578	1.171567
H175	H	0.901377	-0.194636	-0.000005
H176	H	1.401377	0.305364	0.499995
Br177	Br	0.866819	0.351640	0.592840
Br178	Br	1.366819	0.851640	1.092840
Br179	Br	0.630772	-0.533485	-0.000019
Br180	Br	1.130772	-0.033485	0.499981
Br181	Br	0.462754	-0.079622	-0.000029
Br182	Br	0.962754	0.420378	0.499971
H183	H	0.862099	0.301642	0.428499
H184	H	1.362099	0.801642	0.928499
H185	H	1.012457	-0.581038	-0.000007
H186	H	1.512457	-0.081038	0.499993
Br187	Br	0.602283	-0.363030	-0.000038
Br188	Br	1.102283	0.136970	0.499962
Br189	Br	0.766387	0.296970	0.349831
Br190	Br	1.266387	0.796970	0.849831
Br191	Br	0.766365	0.296960	0.164087
Br192	Br	1.266365	0.796960	0.664087
