data_functionalizedCrystal
_audit_creation_method	'MofGen! by Chris Wilmer'
_symmetry_space_group_name_H-M	'P1'
_symmetry_Int_Tables_number	1
_symmetry_cell_setting	triclinic
loop_
_symmetry_equiv_pos_as_xyz
  x,y,z
_cell_length_a	11.169416
_cell_length_b	11.169417
_cell_length_c	11.169409
_cell_angle_alpha	89.980176
_cell_angle_beta	89.968635
_cell_angle_gamma	90.011027
loop_
_atom_site_label
_atom_site_type_symbol
_atom_site_fract_x
_atom_site_fract_y
_atom_site_fract_z
Zn1	Zn	-0.477682	1.834964	-0.678551
Zn2	Zn	0.022318	2.334964	-0.178551
Zn3	Zn	-0.678422	1.834854	-0.477871
Zn4	Zn	-0.178422	2.334854	0.022129
Zn5	Zn	-0.477755	1.634250	-0.477885
Zn6	Zn	0.022245	2.134250	0.022115
Zn7	Zn	-0.678325	1.634258	-0.678516
Zn8	Zn	-0.178325	2.134258	-0.178516
O9	O	-0.578046	1.734581	-0.578206
O10	O	-0.078046	2.234581	-0.078206
O11	O	-0.504321	2.002899	-0.651939
O12	O	-0.004321	2.502899	-0.151939
O13	O	-0.651875	1.808194	-0.309923
O14	O	-0.151875	2.308194	0.190077
O15	O	-0.309796	1.660918	-0.504524
O16	O	0.190204	2.160918	-0.004524
O17	O	-0.651804	2.002818	-0.504500
O18	O	-0.151804	2.502818	-0.004500
O19	O	-0.309742	1.808381	-0.651953
O20	O	0.190258	2.308381	-0.151953
O21	O	-0.504445	1.660811	-0.309934
O22	O	-0.004445	2.160811	0.190066
O23	O	-0.504351	1.466301	-0.504491
O24	O	-0.004351	1.966301	-0.004491
O25	O	-0.651637	1.660931	-0.846470
O26	O	-0.151637	2.160931	-0.346470
O27	O	-0.651708	1.466307	-0.651893
O28	O	-0.151708	1.966307	-0.151893
O29	O	-0.504226	1.808389	-0.846496
O30	O	-0.004226	2.308389	-0.346496
O31	O	-0.846359	1.808202	-0.504467
O32	O	-0.346359	2.308202	-0.004467
O33	O	-0.846287	1.660825	-0.651880
O34	O	-0.346287	2.160825	-0.151880
C35	C	-0.578028	1.422757	-0.578190
C36	C	-0.078028	1.922757	-0.078190
C37	C	-0.578049	1.289357	-0.578212
C38	C	-0.078049	1.789357	-0.078212
C39	C	-0.889871	1.734535	-0.578194
C40	C	-0.389871	2.234535	-0.078194
C41	C	-1.023271	1.734625	-0.578229
C42	C	-0.523271	2.234625	-0.078229
C43	C	-0.265004	1.734661	-0.578244
C44	C	0.234996	2.234661	-0.078244
C45	C	-0.131604	1.734695	-0.578260
C46	C	0.368396	2.234695	-0.078260
C47	C	-0.577913	1.734674	-0.891248
C48	C	-0.077913	2.234674	-0.391248
C49	C	-0.577856	1.734713	-1.024649
C50	C	-0.077856	2.234713	-0.524649
C51	C	-0.578065	2.047624	-0.578222
C52	C	-0.078065	2.547624	-0.078222
C53	C	-0.578073	2.181024	-0.578229
C54	C	-0.078073	2.681024	-0.078229
C55	C	-0.578092	1.734559	-0.266381
C56	C	-0.078092	2.234559	0.233619
C57	C	-0.577811	1.734752	-0.132982
C58	C	-0.077811	2.234752	0.367018
