data_functionalizedCrystal
_audit_creation_method	'MofGen! by Chris Wilmer'
_symmetry_space_group_name_H-M	'P1'
_symmetry_Int_Tables_number	1
_symmetry_cell_setting	triclinic
loop_
_symmetry_equiv_pos_as_xyz
  x,y,z
_cell_length_a	10.654556
_cell_length_b	14.044190
_cell_length_c	9.130313
_cell_angle_alpha	89.993628
_cell_angle_beta	89.999332
_cell_angle_gamma	88.839593
loop_
_atom_site_label
_atom_site_type_symbol
_atom_site_fract_x
_atom_site_fract_y
_atom_site_fract_z
O1	O	1.681225	0.133255	-0.121833
O2	O	2.181225	0.633255	0.378167
O3	O	1.317023	0.145943	-0.121834
O4	O	1.817023	0.645943	0.378166
O5	O	1.493652	0.001578	-0.121805
O6	O	1.993652	0.501578	0.378195
O7	O	1.504595	0.277620	-0.121862
O8	O	2.004595	0.777620	0.378138
O9	O	1.493651	0.001582	0.121794
O10	O	1.993651	0.501582	0.621794
O11	O	1.317021	0.145947	0.121765
O12	O	1.817021	0.645947	0.621765
O13	O	1.681223	0.133259	0.121766
O14	O	2.181223	0.633259	0.621766
Cu15	Cu	1.499122	0.139603	0.144008
Cu16	Cu	1.999122	0.639603	0.644008
Cu17	Cu	1.499124	0.139599	-0.144076
Cu18	Cu	1.999124	0.639599	0.355924
O19	O	1.504593	0.277624	0.121737
O20	O	2.004593	0.777624	0.621737
C21	C	1.270130	0.145012	-0.000035
C22	C	1.770130	0.645012	0.499965
C23	C	1.130407	0.142221	-0.000034
C24	C	1.630407	0.642221	0.499966
C25	C	1.488864	-0.033766	-0.000001
C26	C	1.988864	0.466234	0.499999
C27	C	1.474585	-0.139086	0.000012
C28	C	1.974585	0.360914	0.500012
C29	C	0.933483	0.138292	-0.132831
C30	C	1.433483	0.638292	0.367169
C31	C	1.064768	0.140909	-0.132825
C32	C	1.564768	0.640909	0.367175
C33	C	1.064754	0.140907	0.132760
C34	C	1.564754	0.640907	0.632760
C35	C	0.933471	0.138284	0.132753
C36	C	1.433471	0.638284	0.632753
C37	C	0.933492	0.138297	-0.286164
C38	C	1.433492	0.638297	0.213836
C39	C	1.064777	0.140913	-0.286158
C40	C	1.564777	0.640913	0.213842
C41	C	1.549751	-0.388877	-0.000045
C42	C	2.049751	0.111123	0.499955
C43	C	1.448501	-0.331915	-0.000036
C44	C	1.948501	0.168085	0.499964
C45	C	1.463018	-0.224615	-0.000009
C46	C	1.963018	0.275385	0.499991
C47	C	1.535235	-0.496187	-0.000072
C48	C	2.035235	0.003813	0.499928
C49	C	1.728115	0.134190	-0.000037
C50	C	2.228115	0.634190	0.499963
C51	C	1.867839	0.136981	-0.000047
C52	C	2.367839	0.636981	0.499953
C53	C	1.509381	0.312968	-0.000070
C54	C	2.009381	0.812968	0.499930
C55	C	1.523660	0.418288	-0.000093
C56	C	2.023660	0.918288	0.499907
N57	N	1.499129	0.139606	0.346631
N58	N	1.999129	0.639606	0.846631
N59	N	1.499126	0.139589	-0.346699
N60	N	1.999126	0.639589	0.153301
C61	C	1.577365	0.075703	0.423296
C62	C	2.077365	0.575703	0.923296
C63	C	1.577360	0.075692	0.576632
C64	C	2.077360	0.575692	1.076632
C65	C	1.420881	0.203494	0.576626
C66	C	1.920881	0.703494	1.076626
C67	C	1.420880	0.203500	0.423292
C68	C	1.920880	0.703500	0.923292
C69	C	1.667711	0.001920	0.423301
C70	C	2.167711	0.501920	0.923301
C71	C	1.667706	0.001909	0.576638
C72	C	2.167706	0.501909	1.076638
H73	H	0.880030	0.137197	0.240878
H74	H	1.380030	0.637197	0.740878
H75	H	1.118208	0.141968	0.240881
H76	H	1.618208	0.641968	0.740881
H77	H	1.647329	-0.357060	-0.000030
H78	H	2.147329	0.142940	0.499970
H79	H	1.357163	0.255527	0.360872
H80	H	1.857163	0.755527	0.860872
H81	H	1.357172	0.255515	0.639060
H82	H	1.857172	0.755515	1.139060
Cl83	Cl	1.623289	-0.110643	0.359054
Cl84	Cl	2.123289	0.389357	0.859054
H85	H	1.630268	-0.066991	0.624199
H86	H	2.130268	0.433009	1.124199
Cl87	Cl	1.812068	0.037604	0.349854
Cl88	Cl	2.312068	0.537604	0.849854
H89	H	1.765852	0.018163	0.618250
H90	H	2.265852	0.518163	1.118250
Cl91	Cl	0.884761	0.034894	-0.377043
Cl92	Cl	1.384761	0.534894	0.122957
H93	H	1.109693	0.073354	-0.333724
H94	H	1.609693	0.573354	0.166276
Cl95	Cl	0.864138	0.242593	-0.359642
Cl96	Cl	1.364138	0.742593	0.140358
H97	H	1.096344	0.207894	-0.345030
H98	H	1.596344	0.707894	0.154970
H99	H	1.350915	-0.363734	-0.000044
H100	H	1.850915	0.136266	0.499956
