data_functionalizedCrystal
_audit_creation_method	'MofGen! by Chris Wilmer'
_symmetry_space_group_name_H-M	'P1'
_symmetry_Int_Tables_number	1
_symmetry_cell_setting	triclinic
loop_
_symmetry_equiv_pos_as_xyz
  x,y,z
_cell_length_a	25.639242
_cell_length_b	25.639239
_cell_length_c	12.827885
_cell_angle_alpha	90.035982
_cell_angle_beta	90.030023
_cell_angle_gamma	90.034213
loop_
_atom_site_label
_atom_site_type_symbol
_atom_site_fract_x
_atom_site_fract_y
_atom_site_fract_z
Zn1	Zn	0.799266	-0.208188	0.591103
Zn2	Zn	0.799177	-0.295633	0.416345
Zn3	Zn	0.711830	-0.208206	0.416344
Zn4	Zn	0.711787	-0.295587	0.591012
O5	O	0.755515	-0.251904	0.503701
O6	O	0.872419	-0.219799	0.567960
O7	O	0.787571	-0.284063	0.270108
O8	O	0.723484	-0.135039	0.439564
O9	O	0.872354	-0.284044	0.439565
O10	O	0.787722	-0.135025	0.567959
O11	O	0.723398	-0.219831	0.270108
O12	O	0.638659	-0.219786	0.439476
O13	O	0.723410	-0.283967	0.737260
O14	O	0.638628	-0.283985	0.567803
O15	O	0.787681	-0.219755	0.737327
O16	O	0.787530	-0.368792	0.439477
O17	O	0.723325	-0.368758	0.567804
C18	C	0.619672	-0.251883	0.503630
C19	C	0.561558	-0.251887	0.503625
C20	C	0.201188	-0.285388	0.570458
C21	C	0.146583	-0.285391	0.570474
O22	O	0.118340	-0.313849	0.627238
N23	N	0.119276	-0.251918	0.503769
C24	C	0.146575	-0.218436	0.437051
O25	O	0.118334	-0.189965	0.380315
C26	C	0.201179	-0.218431	0.437040
C27	C	0.228484	-0.251909	0.503742
C28	C	0.228493	-0.318863	0.637155
C29	C	0.283093	-0.318860	0.637137
C30	C	0.310389	-0.285382	0.570422
C31	C	0.283084	-0.251907	0.503724
C32	C	0.228477	-0.184947	0.370328
C33	C	0.283084	-0.184944	0.370324
C34	C	0.310389	-0.218422	0.437026
C35	C	0.364980	-0.218426	0.436990
N36	N	0.392288	-0.251899	0.503696
C37	C	0.364992	-0.285377	0.570411
C38	C	0.031905	-0.218449	0.437079
C39	C	-0.022697	-0.218457	0.437083
C40	C	-0.022686	-0.285411	0.570509
C41	C	0.031918	-0.285406	0.570498
C42	C	0.059212	-0.251922	0.503784
C43	C	0.479657	-0.285369	0.570367
C44	C	0.534263	-0.285365	0.570340
C45	C	0.534246	-0.218409	0.436919
C46	C	0.479645	-0.218415	0.436942
C47	C	0.452352	-0.251897	0.503675
O48	O	0.393258	-0.189981	0.380258
O49	O	0.393240	-0.313838	0.627147
C50	C	0.755427	-0.387746	0.503653
C51	C	0.755437	-0.445860	0.503668
C52	C	0.789034	-0.806228	0.436995
C53	C	0.789054	-0.860832	0.437009
O54	O	0.817528	-0.889073	0.380269
N55	N	0.755607	-0.888143	0.503770
C56	C	0.722141	-0.860846	0.570530
O57	O	0.693694	-0.889089	0.627317
C58	C	0.722124	-0.806242	0.570520
C59	C	0.755569	-0.778935	0.503747
C60	C	0.822477	-0.778921	0.370228
C61	C	0.822456	-0.724320	0.370213
C62	C	0.788992	-0.697027	0.436965
C63	C	0.755548	-0.724334	0.503732
C64	C	0.688661	-0.778946	0.637284
C65	C	0.688647	-0.724339	0.637269
C66	C	0.722092	-0.697032	0.570496
C67	C	0.722063	-0.642441	0.570468
N68	N	0.755510	-0.615131	0.503707
C69	C	0.788974	-0.642424	0.436955
C70	C	0.722180	-0.975516	0.570546
C71	C	0.722195	-1.030119	0.570551
C72	C	0.789108	-1.030102	0.437031
C73	C	0.789091	-0.975498	0.437022
C74	C	0.755628	-0.948206	0.503784
C75	C	0.788927	-0.527759	0.436928
C76	C	0.788902	-0.473153	0.436916
C77	C	0.721990	-0.473175	0.570439
C78	C	0.722013	-0.527776	0.570447
C79	C	0.755486	-0.555066	0.503689
O80	O	0.693605	-0.614165	0.627183
O81	O	0.817422	-0.614174	0.380187
C82	C	0.891888	-0.251925	0.503773
C83	C	0.950002	-0.251934	0.503803
C84	C	0.755551	-0.251853	0.776271
C85	C	0.755566	-0.251832	0.892425
C86	C	0.755617	-0.115531	0.503772
C87	C	0.755661	-0.057416	0.503802
C88	C	0.755510	-0.251916	0.232191
C89	C	0.755596	-0.251790	0.116039
C90	C	0.787372	-0.220052	0.944243
C91	C	0.787388	-0.220029	1.064293
H92	H	0.556480	-0.191154	0.382598
C93	C	0.651833	-0.694319	0.710709
C94	C	0.674451	-0.656730	0.792796
C95	C	0.637636	-0.626711	0.866232
C96	C	0.578204	-0.634283	0.857581
C97	C	0.555584	-0.671874	0.775490
C98	C	0.592398	-0.701893	0.702054
H99	H	0.718449	-0.651123	0.799203
H100	H	0.654382	-0.598883	0.927001
H101	H	0.550952	-0.612061	0.911943
H102	H	0.511586	-0.677481	0.769083
H103	H	0.575652	-0.729720	0.641285
C104	C	0.449611	-0.181589	0.363565
C105	C	0.412030	-0.204187	0.281444
C106	C	0.382002	-0.167355	0.208074
C107	C	0.389556	-0.107924	0.216824
C108	C	0.427139	-0.085322	0.298947
C109	C	0.457167	-0.122155	0.372318
H110	H	0.406436	-0.248184	0.274964
H111	H	0.354180	-0.184086	0.147280
H112	H	0.367328	-0.080658	0.162510
H113	H	0.432732	-0.041325	0.305428
H114	H	0.484988	-0.105423	0.433112
C115	C	-0.052730	-0.181635	0.363701
C116	C	-0.090307	-0.204242	0.281581
C117	C	-0.120338	-0.167417	0.208202
C118	C	-0.112792	-0.107984	0.216942
C119	C	-0.075214	-0.085374	0.299066
C120	C	-0.045183	-0.122200	0.372446
H121	H	-0.095894	-0.248240	0.275108
H122	H	-0.148155	-0.184155	0.147408
H123	H	-0.135023	-0.080724	0.162623
H124	H	-0.069626	-0.041376	0.305540
H125	H	-0.017365	-0.105462	0.433239
H126	H	0.814621	-0.192822	1.108855
C127	C	0.825696	-0.443116	0.363464
C128	C	0.821467	-0.450678	0.244659
C129	C	0.858260	-0.420644	0.171211
C130	C	0.899283	-0.383048	0.216568
C131	C	0.903514	-0.375485	0.335378
C132	C	0.866720	-0.405519	0.408826
H133	H	0.791098	-0.478510	0.211078
H134	H	0.855128	-0.426242	0.083259
H135	H	0.926520	-0.360815	0.162197
H136	H	0.933883	-0.347653	0.368960
H137	H	0.869852	-0.399920	0.496778
C138	C	0.061927	-0.181621	0.363674
C139	C	0.099426	-0.204225	0.281537
C140	C	0.129446	-0.167398	0.208134
C141	C	0.121966	-0.107966	0.216869
C142	C	0.084466	-0.085359	0.299010
C143	C	0.054446	-0.122187	0.372412
H144	H	0.104965	-0.248223	0.275068
H145	H	0.157206	-0.184133	0.147328
H146	H	0.144189	-0.080704	0.162532
H147	H	0.078927	-0.041362	0.305479
H148	H	0.026686	-0.105451	0.433219
H149	H	0.849731	-0.801137	0.315870
C150	C	0.313125	-0.355683	0.710519
C151	C	0.350700	-0.333073	0.792640
C152	C	0.380729	-0.369896	0.866028
C153	C	0.373183	-0.429329	0.857295
C154	C	0.335607	-0.451942	0.775171
C155	C	0.305578	-0.415119	0.701783
H156	H	0.356287	-0.289075	0.799107
H157	H	0.408545	-0.353156	0.926821
H158	H	0.395412	-0.456587	0.911621
H159	H	0.330019	-0.495940	0.768703
H160	H	0.277761	-0.431859	0.640989
C161	C	0.685400	-1.060153	0.643994
C162	C	0.648591	-1.030124	0.717416
C163	C	0.611798	-1.060156	0.790867
C164	C	0.611812	-1.120217	0.790897
C165	C	0.648622	-1.150250	0.717473
C166	C	0.685416	-1.120218	0.644021
H167	H	0.648579	-0.985660	0.717396
H168	H	0.584549	-1.037923	0.845221
H169	H	0.584576	-1.142449	0.845270
H170	H	0.648634	-1.194714	0.717492
H171	H	0.712665	-1.142450	0.589668
C172	C	0.685361	-0.945498	0.643979
C173	C	0.625929	-0.953069	0.635315
C174	C	0.589111	-0.923054	0.708748
C175	C	0.611724	-0.885468	0.790846
C176	C	0.671159	-0.877894	0.799514
C177	C	0.707977	-0.907909	0.726080
H178	H	0.609187	-0.980895	0.574538
H179	H	0.545114	-0.928661	0.702332
H180	H	0.584469	-0.863249	0.845206
H181	H	0.687901	-0.850068	0.860290
H182	H	0.751975	-0.902302	0.732497
H183	H	0.816185	-0.549972	0.382569
C184	C	0.564297	-0.322192	0.643720
C185	C	0.601795	-0.363215	0.598283
C186	C	0.631827	-0.400041	0.671661
C187	C	0.624360	-0.395843	0.790476
C188	C	0.586860	-0.354818	0.835920
C189	C	0.556828	-0.317993	0.762541
H190	H	0.607324	-0.366324	0.510323
H191	H	0.659587	-0.430410	0.638020
H192	H	0.646591	-0.423104	0.844795
H193	H	0.581331	-0.351709	0.923879
H194	H	0.529068	-0.287624	0.796182
C195	C	0.718805	-0.288551	1.055855
C196	C	0.677797	-0.265869	0.980784
C197	C	0.641006	-0.302629	0.920591
C198	C	0.645223	-0.362072	0.935469
C199	C	0.686232	-0.384756	1.010544
C200	C	0.723023	-0.347996	1.070736
H201	H	0.674674	-0.221864	0.969767
H202	H	0.610648	-0.285836	0.865016
H203	H	0.617988	-0.389284	0.890911
H204	H	0.689355	-0.428762	1.021560
H205	H	0.753381	-0.364789	1.126311
H206	H	0.457442	-0.312632	0.624710
H207	H	0.816359	-1.052334	0.382682
H208	H	0.849692	-0.702090	0.315844
H209	H	0.206255	-0.157686	0.316009
H210	H	0.661423	-0.801171	0.691653
C211	C	0.824145	-0.183317	0.884117
C212	C	0.801477	-0.142314	0.809062
C213	C	0.838252	-0.105578	0.748939
C214	C	0.897695	-0.109845	0.763870
C215	C	0.920367	-0.150850	0.838929
C216	C	0.883592	-0.187586	0.899052
H217	H	0.757471	-0.139153	0.798005
H218	H	0.821469	-0.075224	0.693375
H219	H	0.924918	-0.082651	0.719364
H220	H	0.964373	-0.154010	0.849986
H221	H	0.900375	-0.217940	0.954616
H222	H	0.816326	-0.953268	0.382650
H223	H	0.206274	-0.346125	0.691489
H224	H	0.694781	-0.550011	0.624823
H225	H	0.054146	-0.312666	0.624815
H226	H	-0.044920	-0.312669	0.624836
H227	H	0.305305	-0.157674	0.316002
H228	H	0.694742	-0.450945	0.624784
H229	H	0.728344	-0.279020	0.936938
