data_functionalizedCrystal
_audit_creation_method	'MofGen! by Chris Wilmer'
_symmetry_space_group_name_H-M	'P1'
_symmetry_Int_Tables_number	1
_symmetry_cell_setting	triclinic
loop_
_symmetry_equiv_pos_as_xyz
  x,y,z
_cell_length_a	17.640112
_cell_length_b	12.827893
_cell_length_c	12.827885
_cell_angle_alpha	90.025242
_cell_angle_beta	78.824418
_cell_angle_gamma	101.227192
loop_
_atom_site_label
_atom_site_type_symbol
_atom_site_fract_x
_atom_site_fract_y
_atom_site_fract_z
Zn1	Zn	1.208361	-0.092695	0.268431
Zn2	Zn	1.208308	-0.267487	0.093720
Zn3	Zn	1.076194	-0.128107	0.128973
Zn4	Zn	1.076210	-0.302750	0.303670
O5	O	1.142268	-0.197760	0.198698
O6	O	1.318950	-0.086304	0.215753
O7	O	1.190754	-0.249060	-0.047832
O8	O	1.093741	0.022831	0.147479
O9	O	1.318912	-0.214723	0.087394
O10	O	1.190844	0.048848	0.249937
O11	O	1.093690	-0.146658	-0.021932
O12	O	0.965599	-0.180851	0.181649
O13	O	1.093769	-0.274824	0.445224
O14	O	0.965611	-0.309161	0.309998
O15	O	1.190860	-0.120497	0.419334
O16	O	1.190770	-0.418405	0.121564
O17	O	1.093718	-0.444313	0.275814
C18	C	0.936929	-0.252676	0.253474
C19	C	0.849084	-0.276195	0.276931
C20	C	1.142261	-0.469271	0.198704
C21	C	1.142331	-0.585406	0.198722
C22	C	1.142322	-0.197644	0.471254
C23	C	1.142345	-0.197595	0.587401
C24	C	0.560032	-0.019072	0.020501
C25	C	0.477488	-0.041193	0.042557
C26	C	0.477555	-0.174986	0.175976
C27	C	0.560100	-0.152873	0.153935
C28	C	0.601332	-0.074916	0.076195
C29	C	0.601401	-0.208717	0.209629
C30	C	0.683939	-0.186609	0.187585
C31	C	0.725177	-0.108658	0.109847
C32	C	0.683871	-0.052808	0.054151
C33	C	0.560167	-0.286679	0.287363
C34	C	0.601468	-0.342523	0.343058
C35	C	0.684007	-0.320410	0.321019
C36	C	0.725245	-0.242459	0.243281
C37	C	0.725314	-0.376260	0.376715
C38	C	0.807852	-0.354152	0.354671
C39	C	0.807783	-0.220351	0.221237
C40	C	1.348409	-0.142629	0.143710
C41	C	1.436254	-0.119136	0.120277
C42	C	1.142297	0.074818	0.198710
C43	C	1.142309	0.190974	0.198714
C44	C	1.094269	0.229888	0.148022
C45	C	1.094281	0.349941	0.148026
C46	C	1.142260	-0.197787	-0.072809
C47	C	1.142390	-0.197501	-0.188997
C48	C	1.190381	-0.248239	0.626368
C49	C	1.190405	-0.248190	0.746412
H50	H	0.841357	-0.156855	0.157949
C51	C	0.469372	-0.310995	0.311611
N52	N	0.400985	-0.329308	0.329874
H53	H	0.792385	-0.090662	0.091898
C54	C	1.086830	-0.138917	0.765676
N55	N	1.044984	-0.094788	0.731527
C56	C	1.038743	0.154841	0.089307
N57	N	0.996937	0.098322	0.045052
H58	H	1.231530	-0.291550	0.779972
C59	C	1.197885	0.266034	0.257351
N60	N	1.239748	0.322569	0.301516
H61	H	1.053156	0.383455	0.104621
C62	C	0.556103	-0.428271	0.428571
N63	N	0.521935	-0.492856	0.492984
H64	H	0.717444	0.010688	-0.009137
C65	C	1.245916	-0.306867	0.551380
N66	N	1.287746	-0.351029	0.494900
H67	H	1.183464	0.381088	0.242120
H68	H	0.593605	0.044424	-0.042787
H69	H	0.443864	0.004295	-0.002795
H70	H	1.101242	-0.154194	0.642912
H71	H	0.443973	-0.238462	0.239269
H72	H	0.691730	-0.439739	0.440003
H73	H	0.841480	-0.399625	0.400024
