data_functionalizedCrystal
_audit_creation_method	'MofGen! by Chris Wilmer'
_symmetry_space_group_name_H-M	'P1'
_symmetry_Int_Tables_number	1
_symmetry_cell_setting	triclinic
loop_
_symmetry_equiv_pos_as_xyz
  x,y,z
_cell_length_a	17.699077
_cell_length_b	11.792254
_cell_length_c	16.176319
_cell_angle_alpha	89.993043
_cell_angle_beta	89.993140
_cell_angle_gamma	83.739587
loop_
_atom_site_label
_atom_site_type_symbol
_atom_site_fract_x
_atom_site_fract_y
_atom_site_fract_z
O1	O	1.004851	0.143494	-0.068736
O2	O	0.784572	0.162174	-0.068740
O3	O	0.900052	-0.012400	-0.068732
O4	O	0.889371	0.318068	-0.068744
O5	O	0.900036	-0.012411	0.068761
O6	O	0.784556	0.162163	0.068753
O7	O	1.004835	0.143483	0.068757
Cu8	Cu	0.894694	0.152822	0.081309
Cu9	Cu	0.894713	0.152835	-0.081292
O10	O	0.889355	0.318057	0.068749
C11	C	0.756363	0.161500	0.000006
C12	C	0.672334	0.159496	0.000005
C13	C	0.632853	0.158545	0.074953
C14	C	0.553900	0.156643	0.074954
C15	C	0.514429	0.155700	0.000006
C16	C	0.553916	0.156648	-0.074949
C17	C	0.632868	0.158541	-0.074949
C18	C	0.235512	0.149010	-0.074950
C19	C	0.156554	0.147120	-0.074944
C20	C	0.156544	0.147112	0.074953
C21	C	0.235496	0.149006	0.074953
C22	C	0.274977	0.149947	-0.000001
C23	C	0.360586	0.152007	-0.000001
C24	C	0.428821	0.153649	0.000005
C25	C	0.899371	-0.054688	0.000014
C26	C	0.897357	-0.180677	0.000013
C27	C	0.895721	-0.282994	0.000011
C28	C	0.893675	-0.411356	0.000003
C29	C	1.033043	0.144156	0.000009
C30	C	1.117072	0.146161	0.000005
C31	C	0.890036	0.360345	0.000001
C32	C	0.892050	0.486333	-0.000004
N33	N	0.894686	0.152812	0.195675
N34	N	0.894727	0.152836	-0.195657
C35	C	0.945836	0.075542	0.238942
C36	C	0.945840	0.075541	0.325489
C37	C	0.894697	0.152816	0.368767
C38	C	0.843541	0.230089	0.325493
C39	C	0.843534	0.230084	0.238948
C40	C	0.843567	0.230110	0.674522
C41	C	0.843579	0.230112	0.761073
C42	C	0.945873	0.075567	0.761063
C43	C	0.945866	0.075562	0.674518
C44	C	0.894708	0.152831	0.631251
C45	C	0.894704	0.152830	0.537407
C46	C	0.894704	0.152823	0.462610
H47	H	0.124390	0.146341	0.135984
H48	H	0.267629	0.149779	0.135983
H49	H	0.664984	0.159322	0.135985
N50	N	0.998114	-0.003377	0.805271
N51	N	0.973815	-0.073784	0.853574
H52	H	1.010709	-0.129537	0.884796
N53	N	0.791319	0.309043	0.805269
N54	N	0.721360	0.307606	0.795623
H55	H	0.684453	0.363348	0.826836
N56	N	0.513587	0.155693	0.151523
N57	N	0.515757	0.235880	0.201696
H58	H	0.487289	0.235211	0.255778
H59	H	0.267648	0.149773	-0.135982
N60	N	0.116246	0.146159	-0.151514
N61	N	0.151504	0.147000	-0.218431
H62	H	0.123037	0.146323	-0.272506
H63	H	0.521774	0.155872	-0.135973
N64	N	0.791305	0.309039	0.630347
N65	N	0.745646	0.378026	0.669000
H66	H	0.708732	0.433772	0.637800
H67	H	0.665013	0.159317	-0.135979
N68	N	0.998043	-0.003462	0.194752
N69	N	1.043678	-0.072493	0.233399
H70	H	1.080533	-0.128321	0.202192
N71	N	0.998091	-0.003401	0.369673
N72	N	1.043753	-0.072387	0.331023
H73	H	1.080657	-0.128145	0.362227
N74	N	0.998123	-0.003365	0.630324
N75	N	1.043793	-0.072347	0.668967
H76	H	1.080702	-0.128091	0.637758
N77	N	0.791298	0.309008	0.369710
N78	N	0.791310	0.309004	0.446982
H79	H	0.754414	0.364744	0.478211
N80	N	0.791277	0.309016	0.194761
N81	N	0.745616	0.378006	0.233409
H82	H	0.708705	0.433753	0.202204
