data_functionalizedCrystal
_audit_creation_method	'MofGen! by Chris Wilmer'
_symmetry_space_group_name_H-M	'P1'
_symmetry_Int_Tables_number	1
_symmetry_cell_setting	triclinic
loop_
_symmetry_equiv_pos_as_xyz
  x,y,z
_cell_length_a	18.101398
_cell_length_b	18.101397
_cell_length_c	21.395356
_cell_angle_alpha	89.970896
_cell_angle_beta	89.970615
_cell_angle_gamma	90.018196
loop_
_atom_site_label
_atom_site_type_symbol
_atom_site_fract_x
_atom_site_fract_y
_atom_site_fract_z
Zn1	Zn	1.132209	-0.294893	-0.354352
Zn2	Zn	1.132118	-0.418736	-0.249572
Zn3	Zn	1.008358	-0.294908	-0.249578
Zn4	Zn	1.008342	-0.418692	-0.354302
O5	O	1.070257	-0.356807	-0.301951
O6	O	1.235830	-0.311333	-0.340471
O7	O	1.115670	-0.402335	-0.161895
O8	O	1.024832	-0.191273	-0.263500
O9	O	1.235763	-0.402320	-0.263490
O10	O	1.115825	-0.191262	-0.340477
O11	O	1.024744	-0.311359	-0.161899
O12	O	0.904723	-0.311316	-0.263451
O13	O	1.024804	-0.402246	-0.441986
O14	O	0.904711	-0.402260	-0.340391
O15	O	1.115809	-0.311291	-0.442023
O16	O	1.115654	-0.522363	-0.263441
O17	O	1.024716	-0.522331	-0.340385
C18	C	0.877846	-0.356786	-0.301917
C19	C	0.795532	-0.356794	-0.301917
C20	C	0.644824	-0.356809	-0.301945
C21	C	0.613453	-0.299508	-0.253618
C22	C	0.527835	-0.299292	-0.253776
C23	C	0.496441	-0.356824	-0.301972
C24	C	0.527584	-0.335994	-0.368079
C25	C	0.613228	-0.335570	-0.367784
C26	C	0.613233	-0.435089	-0.284750
C27	C	0.527581	-0.434677	-0.283309
C28	C	0.412582	-0.356834	-0.301991
C29	C	0.728683	-0.356798	-0.301931
C30	C	1.070194	-0.549218	-0.301921
C31	C	1.070234	-0.631532	-0.301929
C32	C	1.070329	-0.930623	-0.301986
C33	C	1.127385	-0.899287	-0.253445
C34	C	1.127583	-0.813669	-0.253571
C35	C	1.070282	-0.782241	-0.301957
C36	C	1.091444	-0.813251	-0.368001
C37	C	1.091886	-0.898896	-0.367737
C38	C	0.991958	-0.899128	-0.285054
C39	C	0.992345	-0.813479	-0.283580
C40	C	1.070254	-0.698381	-0.301945
C41	C	1.070358	-1.014483	-0.302002
C42	C	1.263419	-0.356830	-0.301986
C43	C	1.345733	-0.356839	-0.302000
C44	C	1.070315	-0.356762	-0.465374
C45	C	1.070340	-0.356742	-0.535016
C46	C	1.070341	-0.163646	-0.301995
C47	C	1.070376	-0.081331	-0.302014
C48	C	1.023008	-0.309366	-0.567721
C49	C	1.023005	-0.309352	-0.633157
C50	C	1.070348	-0.356707	-0.665884
C51	C	1.117684	-0.404093	-0.633170
C52	C	1.117680	-0.404110	-0.567736
C53	C	1.137074	-0.362532	-0.769576
C54	C	1.137079	-0.362509	-0.835009
C55	C	1.070360	-0.356657	-0.867705
C56	C	1.003634	-0.350812	-0.834960
C57	C	1.003630	-0.350830	-0.769526
C58	C	1.070358	-0.356693	-0.736836
C59	C	1.023021	-0.309263	-0.971363
C60	C	1.023017	-0.309254	-1.036800
C61	C	1.117703	-0.403991	-1.036812
C62	C	1.117700	-0.404004	-0.971377
C63	C	1.070360	-0.356636	-0.938656
C64	C	1.070242	-0.356800	-0.139163
C65	C	1.070360	-0.356611	-0.069523
H66	H	0.507363	-0.241292	-0.265193
H67	H	1.185635	-0.793128	-0.264774
Cl68	Cl	1.107197	-0.931160	-0.177609
Cl69	Cl	0.644103	-0.247242	-0.390223
Cl70	Cl	0.644577	-0.501003	-0.339078
Cl71	Cl	0.496199	-0.398466	-0.425215
H72	H	1.149171	-0.918817	-0.382079
Cl73	Cl	0.923177	-0.780463	-0.334167
Cl74	Cl	0.646702	-0.210459	-0.271016
Cl75	Cl	0.963487	-0.249711	-1.077916
Cl76	Cl	0.494500	-0.248643	-0.390917
Cl77	Cl	0.967702	-0.782193	-0.208542
Cl78	Cl	0.919753	-0.343450	-0.876056
H79	H	0.507224	-0.450389	-0.234657
H80	H	1.156227	-0.442689	-0.541108
H81	H	1.052149	-0.919622	-0.405151
H82	H	0.949447	-0.919394	-0.320408
H83	H	1.156252	-0.442547	-1.063458
Cl84	Cl	0.645191	-0.319319	-0.177702
Cl85	Cl	1.107093	-0.781299	-0.177973
H86	H	0.506205	-0.479633	-0.315919
H87	H	0.984463	-0.270769	-0.659791
Cl88	Cl	0.646515	-0.464457	-0.211565
Cl89	Cl	0.963491	-0.249821	-0.526590
Cl90	Cl	1.220957	-0.369895	-0.728479
H91	H	1.156245	-0.442581	-0.944748
H92	H	0.949299	-0.346072	-0.742867
H93	H	0.984474	-0.270694	-0.944721
H94	H	1.185120	-0.920758	-0.264519
H95	H	0.633985	-0.375508	-0.405039
Cl96	Cl	1.220962	-0.369865	-0.876167
H97	H	1.156231	-0.442649	-0.659821
H98	H	0.506775	-0.312288	-0.204767
H99	H	1.051158	-0.792891	-0.405141
H100	H	1.148088	-0.791746	-0.382585
Cl101	Cl	0.962236	-0.932567	-0.211988
