data_functionalizedCrystal
_audit_creation_method	'MofGen! by Chris Wilmer'
_symmetry_space_group_name_H-M	'P1'
_symmetry_Int_Tables_number	1
_symmetry_cell_setting	triclinic
loop_
_symmetry_equiv_pos_as_xyz
  x,y,z
_cell_length_a	21.395362
_cell_length_b	29.839131
_cell_length_c	21.395355
_cell_angle_alpha	89.979828
_cell_angle_beta	89.956060
_cell_angle_gamma	90.057297
loop_
_atom_site_label
_atom_site_type_symbol
_atom_site_fract_x
_atom_site_fract_y
_atom_site_fract_z
Zn1	Zn	0.957813	-0.178715	-0.354578
Zn2	Zn	0.957696	-0.253830	-0.249798
Zn3	Zn	0.853028	-0.178736	-0.249780
Zn4	Zn	0.852977	-0.253840	-0.354503
O5	O	0.905378	-0.216280	-0.302165
O6	O	1.045475	-0.188667	-0.340718
O7	O	0.943783	-0.243874	-0.162117
O8	O	0.866998	-0.115866	-0.263706
O9	O	1.045389	-0.243853	-0.263737
O10	O	0.943983	-0.115851	-0.340701
O11	O	0.866884	-0.188702	-0.162104
O12	O	0.765343	-0.188711	-0.263632
O13	O	0.866912	-0.243869	-0.442191
O14	O	0.765306	-0.243889	-0.340571
O15	O	0.943934	-0.188676	-0.442246
O16	O	0.943735	-0.316699	-0.263663
O17	O	0.866798	-0.316705	-0.340589
C18	C	0.742591	-0.216304	-0.302092
C19	C	0.672950	-0.216325	-0.302076
C20	C	0.640233	-0.245094	-0.342078
C21	C	0.574798	-0.245083	-0.342106
C22	C	0.542081	-0.216308	-0.302120
C23	C	0.574805	-0.187533	-0.262115
C24	C	0.640239	-0.187541	-0.262093
C25	C	0.438357	-0.212688	-0.245715
C26	C	0.372925	-0.212683	-0.245736
C27	C	0.340261	-0.216278	-0.302189
C28	C	0.373038	-0.219889	-0.358623
C29	C	0.438472	-0.219897	-0.358601
C30	C	0.471129	-0.216295	-0.302140
C31	C	0.236592	-0.245037	-0.342226
C32	C	0.171155	-0.245023	-0.342254
C33	C	0.171164	-0.187475	-0.262258
C34	C	0.236599	-0.187487	-0.262235
C35	C	0.269309	-0.216270	-0.302218
C36	C	0.905265	-0.333003	-0.302133
C37	C	0.905274	-0.382937	-0.302141
C38	C	0.945512	-0.692564	-0.262168
C39	C	0.945589	-0.880237	-0.262192
O40	O	0.979711	-0.904488	-0.228181
N41	N	0.905508	-0.903722	-0.302212
C42	C	0.865408	-0.880286	-0.342231
O43	O	0.831323	-0.904567	-0.376276
C44	C	0.865334	-0.692614	-0.342210
C45	C	0.905414	-0.669131	-0.302183
C46	C	0.985588	-0.669082	-0.222145
C47	C	0.985566	-0.622166	-0.222136
C48	C	0.945468	-0.598733	-0.262152
C49	C	0.905391	-0.622216	-0.302175
C50	C	0.825238	-0.669178	-0.382232
C51	C	0.825224	-0.622257	-0.382224
C52	C	0.865303	-0.598775	-0.342197
C53	C	0.865271	-0.551867	-0.342182
N54	N	0.905352	-0.528383	-0.302162
C55	C	0.945450	-0.551816	-0.262147
C56	C	0.865449	-0.978816	-0.342239
C57	C	0.865466	-1.025734	-0.342244
C58	C	0.945649	-1.025683	-0.262205
C59	C	0.945627	-0.978764	-0.262198
C60	C	0.905530	-0.955332	-0.302219
C61	C	0.945400	-0.453290	-0.262132
C62	C	0.945373	-0.406370	-0.262126
C63	C	0.865193	-0.406426	-0.342167
C64	C	0.865218	-0.453342	-0.342171
C65	C	0.905327	-0.476772	-0.302152
O66	O	0.831172	-0.527587	-0.376180
O67	O	0.979540	-0.527526	-0.228117
C68	C	0.945534	-0.739480	-0.262176
C69	C	0.905458	-0.762962	-0.302199
C70	C	0.865359	-0.739529	-0.342214
C71	C	0.905475	-0.809880	-0.302204
C72	C	0.945574	-0.833313	-0.262189
C73	C	0.985655	-0.809828	-0.222169
C74	C	0.985633	-0.762913	-0.222161
C75	C	0.825278	-0.763014	-0.382234
C76	C	0.825303	-0.809929	-0.382238
C77	C	0.865402	-0.833362	-0.342223
C78	C	1.068802	-0.216257	-0.302238
C79	C	1.138443	-0.216247	-0.302269
C80	C	0.905431	-0.216271	-0.465588
C81	C	0.905453	-0.216267	-0.535229
C82	C	0.905509	-0.099102	-0.302210
C83	C	0.905565	-0.049167	-0.302229
C84	C	0.945556	-0.187527	-0.567972
C85	C	0.945556	-0.187507	-0.633408
C86	C	0.905458	-0.216237	-0.666098
C87	C	0.865346	-0.244979	-0.633347
C88	C	0.865344	-0.244994	-0.567912
C89	C	0.900471	-0.256689	-0.769760
C90	C	0.900478	-0.256674	-0.835193
C91	C	0.905461	-0.216189	-0.867918
C92	C	0.910451	-0.175717	-0.835203
C93	C	0.910449	-0.175733	-0.769769
C94	C	0.905455	-0.216223	-0.737050
C95	C	0.945566	-0.187425	-0.971614
C96	C	0.945561	-0.187405	-1.037051
C97	C	0.865355	-0.244881	-1.036988
C98	C	0.865357	-0.244897	-0.971553
C99	C	0.905466	-0.216170	-0.938870
C100	C	0.905363	-0.216257	-0.139377
C101	C	0.905462	-0.216134	-0.069736
H102	H	0.666862	-0.268532	-0.374636
H103	H	0.792661	-0.829045	-0.414832
H104	H	0.978211	-0.164101	-0.660072
C105	C	0.785950	-0.411178	-0.421295
C106	C	0.821125	-0.380663	-0.386157
H107	H	0.758745	-0.395271	-0.448454
H108	H	0.813246	-0.429447	-0.445291
H109	H	0.761995	-0.429508	-0.393969
H110	H	0.845083	-0.362336	-0.413483
H111	H	0.793825	-0.362387	-0.362159
H112	H	0.832795	-0.959741	-0.374830
H113	H	0.548163	-0.164102	-0.229560
C114	C	0.746019	-0.767787	-0.461338
C115	C	0.781192	-0.737261	-0.426216
H116	H	0.718796	-0.751889	-0.488487
H117	H	0.773315	-0.786049	-0.485343
H118	H	0.722085	-0.786122	-0.434000
H119	H	0.805131	-0.718928	-0.453554
H120	H	0.753893	-0.718991	-0.402209
C121	C	0.150965	-0.165481	-0.156221
C122	C	0.135221	-0.155842	-0.218296
H123	H	0.128778	-0.145949	-0.129080
H124	H	0.140172	-0.195651	-0.146985
H125	H	0.194621	-0.161374	-0.150499
H126	H	0.091565	-0.159953	-0.224019
H127	H	0.146009	-0.125666	-0.227535
H128	H	0.144519	-0.268450	-0.374833
C129	C	0.740547	-0.162004	-0.226540
C130	C	0.676206	-0.155918	-0.218117
H131	H	0.762751	-0.142479	-0.199392
H132	H	0.751204	-0.192177	-0.217287
H133	H	0.751323	-0.155475	-0.268652
H134	H	0.665429	-0.162450	-0.176005
H135	H	0.665544	-0.125737	-0.227365
H136	H	0.263237	-0.164062	-0.229657
H137	H	0.978010	-0.387252	-0.229529
C138	C	0.920297	-0.095707	-0.776344
C139	C	0.915924	-0.131248	-0.733808
H140	H	0.923671	-0.068245	-0.754141
H141	H	0.956201	-0.099642	-0.801888
H142	H	0.883979	-0.095128	-0.801842
H143	H	0.952245	-0.131830	-0.708312
H144	H	0.880016	-0.127313	-0.708252
C145	C	0.829757	-0.270386	-1.137263
C146	C	0.821285	-0.276466	-1.072914
H147	H	0.802552	-0.289889	-1.159442
H148	H	0.820613	-0.240205	-1.147980
H149	H	0.871852	-0.276948	-1.148008
H150	H	0.779191	-0.269901	-1.062168
H151	H	0.830424	-0.306654	-1.062192
C152	C	1.024648	-0.448513	-0.183009
C153	C	0.989483	-0.479040	-0.218139
H154	H	1.051857	-0.464411	-0.155845
H155	H	1.048591	-0.430184	-0.210336
H156	H	0.997341	-0.430246	-0.159014
H157	H	1.016790	-0.497305	-0.242138
H158	H	0.965538	-0.497377	-0.190808
C159	C	0.458345	-0.244729	-0.144739
C160	C	0.474263	-0.208742	-0.183658
H161	H	0.480516	-0.242294	-0.106432
H162	H	0.414691	-0.244203	-0.136674
H163	H	0.469045	-0.272097	-0.164714
H164	H	0.463559	-0.181375	-0.163685
H165	H	0.517927	-0.209264	-0.191722
C166	C	1.029861	-0.181191	-0.898100
C167	C	0.989652	-0.155847	-0.935687
H168	H	1.057080	-0.161696	-0.875925
H169	H	1.005979	-0.198308	-0.869232
H170	H	1.053800	-0.200754	-0.923654
H171	H	0.965710	-0.136286	-0.910132
H172	H	1.013536	-0.138723	-0.964558
H173	H	1.018204	-0.603050	-0.189545
C174	C	1.064831	-0.664306	-0.143025
C175	C	1.029666	-0.694834	-0.178151
H176	H	1.092039	-0.680203	-0.115858
H177	H	1.088777	-0.645979	-0.170354
H178	H	1.037525	-0.646036	-0.119032
H179	H	1.056972	-0.713102	-0.202147
H180	H	1.005719	-0.713168	-0.150818
H181	H	0.792598	-0.688290	-0.414823
H182	H	0.346444	-0.222815	-0.404593
H183	H	1.018303	-0.828916	-0.189585
C184	C	1.024882	-0.983436	-0.183084
C185	C	0.989687	-0.952954	-0.218203
H186	H	1.052087	-0.967503	-0.155926
H187	H	0.997600	-1.001766	-0.159088
H188	H	1.048838	-1.001708	-0.210423
H189	H	0.965727	-0.934685	-0.190865
H190	H	1.016973	-0.934617	-0.242201
H191	H	0.914510	-0.142751	-0.861847
C192	C	1.024835	-0.130713	-0.574612
C193	C	0.989637	-0.155945	-0.532048
H194	H	1.052045	-0.111213	-0.552431
H195	H	1.048780	-0.150278	-0.600147
H196	H	0.997550	-0.113528	-0.600117
H197	H	1.016922	-0.173132	-0.506545
H198	H	0.965690	-0.136378	-0.506502
H199	H	0.978217	-0.163998	-1.063709
C200	C	0.501118	-0.305514	-0.350674
C201	C	0.538828	-0.276710	-0.386079
H202	H	0.478912	-0.325037	-0.377823
H203	H	0.526587	-0.322669	-0.323328
H204	H	0.472272	-0.288367	-0.326869
H205	H	0.567677	-0.293857	-0.409881
H206	H	0.513357	-0.259553	-0.413436
C207	C	0.981341	-1.097585	-0.226750
C208	C	0.989773	-1.051446	-0.218267
H209	H	1.008599	-1.113491	-0.199644
H210	H	0.939271	-1.105328	-0.217480
H211	H	0.990445	-1.105228	-0.268880
H212	H	0.980665	-1.043803	-0.176138
H213	H	1.031852	-1.043700	-0.227533
C214	C	0.458787	-0.187868	-0.459562
C215	C	0.474500	-0.223858	-0.420630
H216	H	0.481032	-0.190311	-0.497855
H217	H	0.415148	-0.188382	-0.467655
H218	H	0.469534	-0.160502	-0.439582
H219	H	0.463748	-0.251223	-0.440608
H220	H	0.518148	-0.223348	-0.412538
H221	H	0.263226	-0.268472	-0.374785
C222	C	0.838672	-0.322324	-0.749548
C223	C	0.894940	-0.301180	-0.733765
H224	H	0.835244	-0.349786	-0.727320
H225	H	0.804636	-0.303406	-0.738832
H226	H	0.837982	-0.328125	-0.793195
H227	H	0.895628	-0.295375	-0.690117
H228	H	0.928985	-0.320101	-0.744476
C229	C	0.299218	-0.246666	-0.175509
C230	C	0.336904	-0.208721	-0.183703
H231	H	0.276987	-0.244222	-0.137208
H232	H	0.270401	-0.248805	-0.209125
H233	H	0.324712	-0.272705	-0.174625
H234	H	0.311410	-0.182683	-0.184591
H235	H	0.365725	-0.206578	-0.150078
C236	C	0.786082	-0.301707	-0.978066
C237	C	0.821278	-0.276494	-0.935557
H238	H	0.758869	-0.321215	-0.955842
H239	H	0.762140	-0.282131	-1.003570
H240	H	0.813368	-0.318882	-1.003608
H241	H	0.793991	-0.259317	-0.910018
H242	H	0.845221	-0.296072	-0.910043
H243	H	0.832824	-1.044850	-0.374832
H244	H	0.792573	-0.603181	-0.414816
H245	H	0.832696	-0.268369	-0.659967
C246	C	0.856496	-0.506086	-0.426446
C247	C	0.821161	-0.479159	-0.386162
H248	H	0.829298	-0.522025	-0.453604
H249	H	0.883765	-0.487746	-0.450441
H250	H	0.880380	-0.526755	-0.402610
H251	H	0.797279	-0.458488	-0.409998
H252	H	0.793880	-0.497501	-0.362165
C253	C	0.945204	-0.329009	-0.855351
C254	C	0.894997	-0.301163	-0.871143
H255	H	0.941818	-0.356477	-0.877540
H256	H	0.983358	-0.314639	-0.866108
H257	H	0.944480	-0.334803	-0.811696
H258	H	0.895724	-0.295366	-0.914798
H259	H	0.856833	-0.315536	-0.860390
H260	H	1.018269	-0.743797	-0.189567
C261	C	0.786068	-0.301807	-0.574425
C262	C	0.821265	-0.276593	-0.531917
H263	H	0.758861	-0.321318	-0.552200
H264	H	0.762121	-0.282231	-0.599924
H265	H	0.813354	-0.318979	-0.599971
H266	H	0.793979	-0.259420	-0.506374
H267	H	0.845214	-0.296172	-0.506407
