data_functionalizedCrystal
_audit_creation_method	'MofGen! by Chris Wilmer'
_symmetry_space_group_name_H-M	'P1'
_symmetry_Int_Tables_number	1
_symmetry_cell_setting	triclinic
loop_
_symmetry_equiv_pos_as_xyz
  x,y,z
_cell_length_a	12.759395
_cell_length_b	17.640280
_cell_length_c	12.759379
_cell_angle_alpha	78.731268
_cell_angle_beta	89.957286
_cell_angle_gamma	78.802277
loop_
_atom_site_label
_atom_site_type_symbol
_atom_site_fract_x
_atom_site_fract_y
_atom_site_fract_z
Zn1	Zn	1.690957	-0.314370	-0.509607
Zn2	Zn	1.726319	-0.446657	-0.298412
Zn3	Zn	1.515219	-0.314490	-0.333911
Zn4	Zn	1.550752	-0.446524	-0.474087
O5	O	1.620812	-0.380510	-0.404004
O6	O	1.842670	-0.331923	-0.481600
O7	O	1.698246	-0.429231	-0.156071
O8	O	1.508862	-0.203855	-0.386939
O9	O	1.868651	-0.429114	-0.326436
O10	O	1.637975	-0.203767	-0.516022
O11	O	1.543151	-0.332129	-0.182152
O12	O	1.372910	-0.331999	-0.352497
O13	O	1.569421	-0.428887	-0.625849
O14	O	1.399016	-0.429004	-0.455484
O15	O	1.672429	-0.331794	-0.651945
O16	O	1.732700	-0.557259	-0.291994
O17	O	1.603711	-0.557161	-0.421061
C18	C	1.347842	-0.380501	-0.403989
C19	C	1.231069	-0.380515	-0.404002
C20	C	1.258335	-0.481690	-0.510980
C21	C	1.217109	-0.532283	-0.564471
C22	C	1.107390	-0.532293	-0.564481
C23	C	1.038893	-0.481702	-0.510998
C24	C	1.080119	-0.431109	-0.457507
C25	C	1.189842	-0.431106	-0.457500
C26	C	1.052852	-0.329931	-0.350536
C27	C	1.162572	-0.329925	-0.350518
C28	C	0.984355	-0.279340	-0.297053
C29	C	1.025581	-0.228750	-0.243555
C30	C	1.135308	-0.228743	-0.243546
C31	C	1.203798	-0.279331	-0.297028
C32	C	1.675927	-0.585892	-0.348844
C33	C	1.699601	-0.673755	-0.325281
C34	C	1.441390	-0.962608	-0.583389
C35	C	1.463638	-1.045169	-0.561215
C36	C	1.598037	-1.045206	-0.426953
C37	C	1.575804	-0.962643	-0.449119
C38	C	1.497479	-0.921351	-0.527338
C39	C	1.631893	-0.921386	-0.393068
C40	C	1.609658	-0.838831	-0.415229
C41	C	1.531334	-0.797533	-0.493442
C42	C	1.475243	-0.838796	-0.549499
C43	C	1.710213	-0.962680	-0.314844
C44	C	1.766302	-0.921423	-0.258793
C45	C	1.744072	-0.838866	-0.280959
C46	C	1.665748	-0.797568	-0.359172
C47	C	1.800163	-0.797603	-0.224902
C48	C	1.777927	-0.715047	-0.247063
C49	C	1.643513	-0.715012	-0.381333
C50	C	1.894848	-0.380520	-0.404020
C51	C	2.011626	-0.380525	-0.404027
C52	C	1.620944	-0.380312	-0.678091
C53	C	1.621001	-0.380228	-0.794891
C54	C	1.565510	-0.174326	-0.459403
C55	C	1.541944	-0.086463	-0.483010
C56	C	1.620725	-0.380650	-0.130999
C57	C	1.620812	-0.380512	-0.014259
C58	C	1.458719	-0.279858	0.178046
C59	C	1.377534	-0.229741	0.109672
C60	C	1.377439	-0.229878	-0.000013
C61	C	1.458537	-0.280140	-0.041323
C62	C	1.539722	-0.330257	0.027051
C63	C	1.539809	-0.330113	0.136736
C64	C	1.701997	-0.430630	0.054115
C65	C	1.702098	-0.430490	0.163798
C66	C	1.783095	-0.480891	0.012804
C67	C	1.864286	-0.531006	0.081177
C68	C	1.864378	-0.530866	0.190868
C69	C	1.783283	-0.480607	0.232173
H70	H	0.895016	-0.279349	-0.297070
Br71	Br	1.501420	-0.685492	-0.523787
Br72	Br	0.889984	-0.481702	-0.511035
Br73	Br	1.191246	-0.160070	-0.170957
Br74	Br	1.368956	-0.782748	-0.655667
Br75	Br	1.051434	-0.600948	-0.637087
H76	H	1.377617	-0.928987	-0.647091
H77	H	1.930306	-0.571928	0.047533
H78	H	1.458794	-0.279735	0.267354
Br79	Br	1.387492	-1.101160	-0.637278
Br80	Br	1.267262	-0.161859	-0.092812
H81	H	1.661807	-1.078837	-0.363264
Br82	Br	0.932617	-0.160090	-0.170991
Br83	Br	1.872598	-0.977469	-0.152644
H84	H	1.728317	-1.029902	-0.296806
H85	H	1.458445	-0.280254	-0.130634
H86	H	1.783008	-0.481004	-0.076507
H87	H	1.823600	-0.681455	-0.201419
Br88	Br	1.906448	-0.853651	-0.118742
Br89	Br	1.783407	-0.480408	0.381028
H90	H	1.347677	-0.481693	-0.510968
Br91	Br	1.974557	-0.598894	0.283655
Br92	Br	1.310073	-0.600943	-0.637046
Br93	Br	1.352707	-0.279331	-0.297011
H94	H	1.579740	-0.681391	-0.445034
Br95	Br	1.267491	-0.161519	0.165737
