data_functionalizedCrystal
_audit_creation_method	'MofGen! by Chris Wilmer'
_symmetry_space_group_name_H-M	'P1'
_symmetry_Int_Tables_number	1
_symmetry_cell_setting	triclinic
loop_
_symmetry_equiv_pos_as_xyz
  x,y,z
_cell_length_a	21.295418
_cell_length_b	16.625547
_cell_length_c	16.625539
_cell_angle_alpha	90.017150
_cell_angle_beta	90.039782
_cell_angle_gamma	90.016959
loop_
_atom_site_label
_atom_site_type_symbol
_atom_site_fract_x
_atom_site_fract_y
_atom_site_fract_z
Zn1	Zn	0.962460	-0.320660	0.456385
Zn2	Zn	0.962423	-0.455503	0.321579
Zn3	Zn	0.857190	-0.320725	0.321521
Zn4	Zn	0.857206	-0.455491	0.456324
O5	O	0.909820	-0.388095	0.388952
O6	O	1.050544	-0.338524	0.438553
O7	O	0.948442	-0.437656	0.208739
O8	O	0.871163	-0.207884	0.339412
O9	O	1.050517	-0.437593	0.339511
O10	O	0.948504	-0.207836	0.438497
O11	O	0.871127	-0.338636	0.208696
O12	O	0.769103	-0.338625	0.339352
O13	O	0.871190	-0.437573	0.569164
O14	O	0.769115	-0.437637	0.438391
O15	O	0.948519	-0.338513	0.569210
O16	O	0.948457	-0.568334	0.339451
O17	O	0.871155	-0.568325	0.438448
C18	C	0.746268	-0.388137	0.388859
C19	C	0.676300	-0.388175	0.388839
C20	C	0.909836	-0.177786	0.388955
C21	C	0.909842	-0.088165	0.388956
C22	C	0.909821	-0.597585	0.388967
C23	C	0.909879	-0.687207	0.389000
C24	C	0.643456	-0.439798	0.440331
C25	C	0.577713	-0.439779	0.440367
C26	C	0.544817	-0.388143	0.388897
C27	C	0.577669	-0.336509	0.337401
C28	C	0.643411	-0.336525	0.337372
N29	N	0.441543	-0.381847	0.318372
N30	N	0.379091	-0.381837	0.318402
C31	C	0.346743	-0.388092	0.388982
N32	N	0.379205	-0.394373	0.459533
N33	N	0.441662	-0.394388	0.459502
C34	C	0.473532	-0.388120	0.388923
C35	C	0.242613	-0.439697	0.440518
C36	C	0.176870	-0.439671	0.440556
C37	C	0.176827	-0.336407	0.337582
C38	C	0.242569	-0.336428	0.337551
C39	C	0.275459	-0.388077	0.389019
C40	C	1.074010	-0.388053	0.389046
C41	C	1.143978	-0.388035	0.389086
C42	C	0.909861	-0.388035	0.599261
C43	C	0.909878	-0.388009	0.688882
C44	C	0.909875	0.240011	0.388999
C45	C	0.909868	0.148703	0.388989
C46	C	0.909859	0.075926	0.388977
C47	C	0.909851	-0.015388	0.388968
C48	C	0.909815	-0.388096	0.179461
C49	C	0.909920	-0.387895	0.089841
C50	C	0.909907	-0.387919	1.017058
C51	C	0.909897	-0.387946	0.925750
C52	C	0.909893	-0.387964	0.852973
C53	C	0.909882	-0.387991	0.761659
H54	H	0.670230	-0.481854	0.482241
H55	H	0.269393	-0.481749	0.482430
C56	C	0.663556	-0.297085	0.200890
C57	C	0.679518	-0.279783	0.280761
H58	H	0.685852	-0.262058	0.165941
H59	H	0.619701	-0.289677	0.193548
H60	H	0.674300	-0.351251	0.189012
H61	H	0.668771	-0.225619	0.292641
H62	H	0.723383	-0.287184	0.288107
H63	H	0.150129	-0.481708	0.482492
H64	H	0.150044	-0.294360	0.295677
C65	C	0.235921	-0.234363	0.235767
C66	C	0.278676	-0.279689	0.280940
H67	H	0.258213	-0.199335	0.200814
H68	H	0.210322	-0.203559	0.270956
H69	H	0.210240	-0.269457	0.204883
H70	H	0.304354	-0.244595	0.311828
H71	H	0.304286	-0.310494	0.245746
H72	H	0.550881	-0.294466	0.295494
C73	C	0.584353	-0.541858	0.542145
C74	C	0.541601	-0.496525	0.496975
H75	H	0.562058	-0.576892	0.577089
H76	H	0.610032	-0.506775	0.573030
H77	H	0.609954	-0.572663	0.506947
H78	H	0.516003	-0.465715	0.532172
H79	H	0.515911	-0.531612	0.466088
