data_functionalizedCrystal
_audit_creation_method	'MofGen! by Chris Wilmer'
_symmetry_space_group_name_H-M	'P1'
_symmetry_Int_Tables_number	1
_symmetry_cell_setting	triclinic
loop_
_symmetry_equiv_pos_as_xyz
  x,y,z
_cell_length_a	13.635800
_cell_length_b	23.752963
_cell_length_c	11.102291
_cell_angle_alpha	84.883160
_cell_angle_beta	108.605752
_cell_angle_gamma	79.933268
loop_
_atom_site_label
_atom_site_type_symbol
_atom_site_fract_x
_atom_site_fract_y
_atom_site_fract_z
V1	V	2.034387	-0.079169	0.397005
O2	O	2.036311	0.003797	0.388680
O3	O	2.001761	-0.156973	0.395028
O4	O	2.023107	-0.077955	0.569816
O5	O	2.014818	-0.075768	0.212682
V6	V	2.275618	-0.069245	0.374869
O7	O	2.166178	-0.100939	0.445562
O8	O	2.368925	-0.047476	0.326311
O9	O	2.196640	0.008558	0.376846
O10	O	2.332392	-0.152212	0.383193
O11	O	2.353885	-0.072647	0.559191
O12	O	2.175294	-0.070460	0.202058
V13	V	2.534387	-0.079169	0.397005
O14	O	2.536311	0.003797	0.388680
O15	O	2.501761	-0.156973	0.395028
O16	O	2.523107	-0.077955	0.569816
O17	O	2.514818	-0.075768	0.212682
V18	V	2.775618	-0.069245	0.374869
O19	O	2.666178	-0.100939	0.445562
O20	O	2.868925	-0.047476	0.326311
O21	O	2.696640	0.008558	0.376846
O22	O	2.832392	-0.152212	0.383193
O23	O	2.853885	-0.072647	0.559191
O24	O	2.675294	-0.070460	0.202058
C25	C	1.921794	-0.175939	0.388955
C26	C	1.935848	-0.239544	0.388491
C27	C	1.995191	-0.625784	0.269009
C28	C	2.008408	-0.685547	0.268554
O29	O	1.991568	-0.709507	0.169278
N30	N	2.042891	-0.723609	0.384792
C31	C	2.064170	-0.701906	0.501493
O32	O	2.094716	-0.739768	0.600321
C33	C	2.050961	-0.642144	0.501947
C34	C	2.016466	-0.604084	0.385700
C35	C	1.960700	-0.587724	0.152772
C36	C	1.947483	-0.527966	0.153226
C37	C	1.968758	-0.506266	0.269918
C38	C	2.003249	-0.544325	0.386155
C39	C	2.072248	-0.620442	0.618646
C40	C	2.059036	-0.560676	0.619090
C41	C	2.024541	-0.522616	0.502843
C42	C	2.011307	-0.462867	0.503301
N43	N	1.976823	-0.424805	0.387063
C44	C	1.955549	-0.446504	0.270371
C45	C	2.091910	-0.827409	0.500532
C46	C	2.105112	-0.887169	0.500080
C47	C	2.049350	-0.870806	0.267141
C48	C	2.036141	-0.811044	0.267594
C49	C	2.057426	-0.789347	0.384294
C50	C	1.927793	-0.321007	0.271334
C51	C	1.914574	-0.261244	0.271799
C52	C	1.970342	-0.277612	0.504738
C53	C	1.983555	-0.337371	0.504274
C54	C	1.962282	-0.359066	0.387562
O55	O	2.028131	-0.438865	0.602527
O56	O	1.925019	-0.408636	0.171561
C57	C	1.949022	-0.075144	0.611913
C58	C	1.980386	-0.074665	0.753191
C59	C	2.108278	0.027521	0.382915
C60	C	2.083843	0.091126	0.383388
C61	C	2.081050	-0.073273	0.159954
C62	C	2.039305	-0.073748	0.018674
C63	C	2.421794	-0.175939	0.388955
C64	C	2.435848	-0.239544	0.388491
C65	C	2.449022	-0.075144	0.611913
C66	C	2.480386	-0.074665	0.753191
C67	C	2.086353	-0.077294	0.826064
C68	C	2.115813	-0.076834	0.958806
C69	C	1.933329	-0.071118	0.945791
C70	C	1.903869	-0.071574	0.813050
C71	C	2.191710	-0.080597	0.833580
C72	C	2.221170	-0.080136	0.966322
C73	C	2.608278	0.027521	0.382915
C74	C	2.583843	0.091126	0.383388
C75	C	2.581050	-0.073273	0.159954
C76	C	2.539305	-0.073748	0.018674
C77	C	2.533678	-0.272331	0.394650
C78	C	2.546902	-0.332097	0.394233
C79	C	2.462294	-0.359073	0.387647
C80	C	2.364457	-0.326282	0.381491
C81	C	2.351236	-0.266518	0.381918
C82	C	2.658507	0.123913	0.377232
C83	C	2.635555	0.183678	0.377655
C84	C	2.537941	0.210654	0.384244
C85	C	2.463270	0.177863	0.390396
C86	C	2.486220	0.118100	0.389963
C87	C	2.586353	-0.077294	0.826064
C88	C	2.615813	-0.076834	0.958806
C89	C	2.433329	-0.071118	0.945791
C90	C	2.403869	-0.071574	0.813050
C91	C	2.691710	-0.080597	0.833580
C92	C	2.721170	-0.080136	0.966322
H93	H	1.886480	-0.230257	0.177133
H94	H	2.371035	-0.068600	0.994544
H95	H	2.750373	-0.039512	0.995041
C96	C	2.476458	-0.423942	0.386969
C97	C	2.404801	-0.434422	0.273447
C98	C	2.417813	-0.494171	0.272783
H99	H	2.546785	-0.439670	0.391507
H100	H	2.463544	-0.441635	0.458982
H101	H	2.417722	-0.416737	0.201453
H102	H	2.334466	-0.418708	0.268884
H103	H	2.404900	-0.511864	0.344796
H104	H	2.488143	-0.509894	0.277325
H105	H	2.369191	-0.501290	0.195766
H106	H	2.211936	-0.041762	0.786118
C107	C	2.716606	0.219327	0.371194
C108	C	2.743932	0.246107	0.480974
C109	C	2.818582	0.278955	0.475060
H110	H	2.778104	0.194760	0.367283
H111	H	2.687197	0.248019	0.296627
H112	H	2.773344	0.217419	0.555520
H113	H	2.682457	0.270683	0.484907
H114	H	2.789173	0.307647	0.400493
H115	H	2.880074	0.254385	0.471146
H116	H	2.837126	0.297134	0.549537
H117	H	1.817583	-0.069434	0.753722
C118	C	2.513111	0.275560	0.384511
C119	C	2.516993	0.304629	0.271279
C120	C	2.494147	0.364419	0.271492
H121	H	2.444288	0.287015	0.389249
H122	H	2.563822	0.284945	0.456722
H123	H	2.466284	0.295249	0.199087
H124	H	2.585808	0.293191	0.266518
H125	H	2.544858	0.373804	0.343703
H126	H	2.425325	0.375869	0.276233
H127	H	2.496787	0.384150	0.194672
H128	H	2.711936	-0.041762	0.786118
H129	H	2.250373	-0.039512	0.995041
C130	C	2.625511	-0.242992	0.402002
C131	C	2.649550	-0.216551	0.512525
C132	C	2.734139	-0.189518	0.519339
H133	H	2.685747	-0.271028	0.405687
H134	H	2.606337	-0.214543	0.327968
H135	H	2.668728	-0.244997	0.586540
H136	H	2.589337	-0.188506	0.508865
H137	H	2.714965	-0.161069	0.445305
H138	H	2.794369	-0.217558	0.523020
H139	H	2.750454	-0.171570	0.594321
H140	H	2.727884	-0.123266	0.809519
C141	C	2.801980	-0.135361	1.037090
C142	C	2.821965	-0.169599	0.947672
C143	C	2.896367	-0.220484	1.012815
H144	H	2.865945	-0.125877	1.087180
H145	H	2.774915	-0.156145	1.091834
H146	H	2.849033	-0.148819	0.892950
H147	H	2.758023	-0.179099	0.897578
H148	H	2.869302	-0.241267	1.067559
H149	H	2.960325	-0.210993	1.062903
H150	H	2.909929	-0.243723	0.952156
H151	H	1.910468	-0.338664	0.176297
H152	H	2.227884	-0.123266	0.809519
C153	C	2.142762	-0.928466	0.626345
C154	C	2.242472	-0.921613	0.702715
C155	C	2.277202	-0.959649	0.819036
H156	H	2.093807	-0.920209	0.670355
H157	H	2.147659	-0.967179	0.609434
H158	H	2.237569	-0.882909	0.719629
H159	H	2.291451	-0.929874	0.658745
H160	H	2.282098	-0.998362	0.802125
H161	H	2.228239	-0.951389	0.863035
H162	H	2.344862	-0.955008	0.870862
H163	H	2.008051	-0.780059	0.172936
H164	H	1.919402	-0.496982	0.058567
H165	H	1.943375	-0.605385	0.057742
C166	C	2.301980	-0.135361	1.037090
C167	C	2.321965	-0.169599	0.947672
C168	C	2.396367	-0.220484	1.012815
H169	H	2.365945	-0.125877	1.087180
H170	H	2.274915	-0.156145	1.091834
H171	H	2.349033	-0.148819	0.892950
H172	H	2.258023	-0.179099	0.897578
H173	H	2.369302	-0.241267	1.067559
H174	H	2.460325	-0.210993	1.062903
H175	H	2.409929	-0.243723	0.952156
H176	H	2.032028	-0.888484	0.172124
H177	H	2.109241	-0.809747	0.595569
C178	C	2.653192	-0.367585	0.400845
C179	C	2.724437	-0.331160	0.406650
C180	C	2.822354	-0.363828	0.412724
H181	H	2.680129	-0.396251	0.475441
H182	H	2.644347	-0.385781	0.326411
H183	H	2.733283	-0.312974	0.481077
H184	H	2.697534	-0.302495	0.332063
H185	H	2.813510	-0.382024	0.338289
H186	H	2.849281	-0.392493	0.487320
H187	H	2.870703	-0.339118	0.416651
H188	H	2.100336	-0.651422	0.713307
C189	C	2.272485	-0.355473	0.374381
C190	C	2.183974	-0.313975	0.369102
C191	C	2.099233	-0.340846	0.362556
H192	H	2.255895	-0.373436	0.299448
H193	H	2.291629	-0.383883	0.448475
H194	H	2.164832	-0.285575	0.295015
H195	H	2.200530	-0.296010	0.444027
H196	H	2.118378	-0.369257	0.436650
H197	H	2.082653	-0.358808	0.287622
H198	H	2.039172	-0.312695	0.358985
H199	H	2.076382	-0.543014	0.714124
C200	C	2.405316	0.082420	0.396857
C201	C	2.448961	0.040221	0.506889
C202	C	2.374463	0.007340	0.513273
H203	H	2.343866	0.106976	0.400917
H204	H	2.386637	0.064175	0.322490
H205	H	2.467625	0.058465	0.581238
H206	H	2.510403	0.015652	0.502854
H207	H	2.355784	-0.010905	0.438905
H208	H	2.313016	0.031901	0.517329
H209	H	2.404069	-0.021299	0.587922
C210	C	2.021067	-0.378604	0.630620
C211	C	2.036891	-0.346807	0.732911
C212	C	2.071473	-0.384768	0.849323
H213	H	1.969097	-0.400420	0.631404
H214	H	2.085779	-0.404104	0.639425
H215	H	1.972188	-0.321317	0.724108
H216	H	2.088867	-0.324993	0.732169
H217	H	2.136186	-0.410268	0.858128
H218	H	2.019499	-0.406581	0.850094
H219	H	2.082224	-0.363199	0.918742
H220	H	2.271569	-0.239827	0.376895
C221	C	2.764529	0.094744	0.369997
C222	C	2.824977	0.136262	0.364657
C223	C	2.922644	0.109420	0.357965
H224	H	2.801265	0.066327	0.444035
H225	H	2.753039	0.076797	0.295020
H226	H	2.836471	0.154200	0.439626
H227	H	2.788274	0.164681	0.290622
H228	H	2.911154	0.091473	0.282988
H229	H	2.959370	0.081003	0.432005
H230	H	2.963666	0.137586	0.354329
H231	H	1.987656	-0.259934	0.599745
H232	H	2.317583	-0.069434	0.753722
C233	C	2.357275	0.207247	0.397358
C234	C	2.303583	0.249115	0.288083
C235	C	2.205947	0.276201	0.294471
H236	H	2.315957	0.179233	0.400907
H237	H	2.368786	0.225245	0.472266
H238	H	2.292067	0.231117	0.213196
H239	H	2.344869	0.277140	0.284512
H240	H	2.217459	0.294199	0.369378
H241	H	2.164639	0.248183	0.298023
H242	H	2.169510	0.304615	0.220336
H243	H	1.871035	-0.068600	0.994544
