data_functionalizedCrystal
_audit_creation_method	'MofGen! by Chris Wilmer'
_symmetry_space_group_name_H-M	'P1'
_symmetry_Int_Tables_number	1
_symmetry_cell_setting	triclinic
loop_
_symmetry_equiv_pos_as_xyz
  x,y,z
_cell_length_a	18.215407
_cell_length_b	12.759400
_cell_length_c	18.215384
_cell_angle_alpha	90.093053
_cell_angle_beta	89.937603
_cell_angle_gamma	89.977245
loop_
_atom_site_label
_atom_site_type_symbol
_atom_site_fract_x
_atom_site_fract_y
_atom_site_fract_z
Zn1	Zn	1.125394	0.417557	-0.416133
Zn2	Zn	1.125217	0.593463	-0.293073
Zn3	Zn	1.002236	0.417800	-0.293080
Zn4	Zn	1.002298	0.593196	-0.416098
O5	O	1.063786	0.505504	-0.354596
O6	O	1.228355	0.440901	-0.399820
O7	O	1.108803	0.570375	-0.190089
O8	O	1.018621	0.270747	-0.309421
O9	O	1.228225	0.570139	-0.309409
O10	O	1.109105	0.270568	-0.399827
O11	O	1.018449	0.441317	-0.190094
O12	O	0.899260	0.441057	-0.309387
O13	O	1.018728	0.569683	-0.519087
O14	O	0.899306	0.569919	-0.399768
O15	O	1.109166	0.440642	-0.519113
O16	O	1.108864	0.740449	-0.309375
O17	O	1.018556	0.740252	-0.399761
C18	C	0.872580	0.505486	-0.354575
C19	C	0.790781	0.505504	-0.354583
C20	C	1.063717	0.778472	-0.354580
C21	C	1.063755	0.895248	-0.354597
C22	C	1.063974	0.505105	-0.546550
C23	C	1.064054	0.504935	-0.628349
C24	C	0.602631	0.572708	-0.401586
C25	C	0.525772	0.572711	-0.401595
C26	C	0.525694	0.438319	-0.307622
C27	C	0.602552	0.438311	-0.307618
C28	C	0.641018	0.505512	-0.354598
C29	C	0.487302	0.505523	-0.354612
C30	C	0.403968	0.505526	-0.354622
C31	C	0.724357	0.505508	-0.354590
C32	C	1.255739	0.505523	-0.354618
C33	C	1.337538	0.505531	-0.354627
C34	C	1.110869	1.059664	-0.401725
C35	C	1.110843	0.949940	-0.401710
C36	C	1.016696	0.950286	-0.307491
C37	C	1.016727	1.060008	-0.307503
C38	C	1.063850	1.231471	-0.354624
C39	C	1.063813	1.114694	-0.354624
C40	C	1.063642	0.505826	-0.163389
C41	C	1.063705	0.505700	-0.081591
C42	C	1.017105	0.573050	0.106818
C43	C	1.017163	0.572920	0.183677
C44	C	1.110655	0.437577	0.183237
C45	C	1.110593	0.437704	0.106380
C46	C	1.063820	0.505446	0.068172
C47	C	1.063939	0.505189	0.221888
C48	C	1.064001	0.505046	0.305222
C49	C	1.063756	0.505588	-0.015166
H50	H	0.633947	0.627424	-0.439842
C51	C	0.964900	0.890128	-0.255669
H52	H	0.971614	0.816900	-0.262412
H53	H	0.975664	0.908220	-0.206233
H54	H	0.915458	0.908143	-0.266403
H55	H	1.148634	0.382646	0.074913
C56	C	0.644780	0.364393	-0.255928
H57	H	0.610865	0.324383	-0.227941
H58	H	0.674806	0.318618	-0.284132
H59	H	0.674716	0.404586	-0.223811
C60	C	0.483545	0.646627	-0.453279
H61	H	0.432262	0.637002	-0.446561
H62	H	0.496111	0.717215	-0.442424
H63	H	0.496205	0.631247	-0.502745
H64	H	0.979121	0.627967	0.215139
H65	H	0.978407	1.104815	-0.269143
H66	H	0.494366	0.383609	-0.269372
C67	C	0.965650	0.647554	0.064793
H68	H	0.937833	0.687791	0.098820
H69	H	0.993990	0.693094	0.034844
H70	H	0.933369	0.607734	0.034796
H71	H	1.149206	1.104186	-0.440097
H72	H	1.149161	0.905137	-0.440064
C73	C	1.162109	0.363077	0.225267
H74	H	1.155462	0.372691	0.276576
H75	H	1.150998	0.292617	0.212558
H76	H	1.211619	0.377979	0.212604
