data_functionalizedCrystal
_audit_creation_method	'MofGen! by Chris Wilmer'
_symmetry_space_group_name_H-M	'P1'
_symmetry_Int_Tables_number	1
_symmetry_cell_setting	triclinic
loop_
_symmetry_equiv_pos_as_xyz
  x,y,z
_cell_length_a	18.101395
_cell_length_b	18.050591
_cell_length_c	18.101389
_cell_angle_alpha	90.025013
_cell_angle_beta	90.016841
_cell_angle_gamma	90.027110
loop_
_atom_site_label
_atom_site_type_symbol
_atom_site_fract_x
_atom_site_fract_y
_atom_site_fract_z
Zn1	Zn	-0.294986	1.135308	0.418860
Zn2	Zn	-0.044986	1.385308	0.668860
Zn3	Zn	0.205014	1.635308	0.918860
Zn4	Zn	0.455014	1.885308	1.168860
Zn5	Zn	-0.418812	1.135203	0.295022
Zn6	Zn	-0.168812	1.385203	0.545022
Zn7	Zn	0.081188	1.635203	0.795022
Zn8	Zn	0.331188	1.885203	1.045022
Zn9	Zn	-0.294980	1.011118	0.295020
Zn10	Zn	-0.044980	1.261118	0.545020
Zn11	Zn	0.205020	1.511118	0.795020
Zn12	Zn	0.455020	1.761118	1.045020
Zn13	Zn	-0.418782	1.011069	0.418809
Zn14	Zn	-0.168782	1.261069	0.668809
Zn15	Zn	0.081218	1.511069	0.918809
Zn16	Zn	0.331218	1.761069	1.168809
O17	O	-0.356890	1.073174	0.356928
O18	O	-0.106890	1.323174	0.606928
O19	O	0.143110	1.573174	0.856928
O20	O	0.393110	1.823174	1.106928
O21	O	-0.311427	1.239218	0.402455
O22	O	-0.061427	1.489218	0.652455
O23	O	0.188573	1.739218	0.902455
O24	O	0.438573	1.989218	1.152455
O25	O	-0.402395	1.118720	0.191389
O26	O	-0.152395	1.368720	0.441389
O27	O	0.097605	1.618720	0.691389
O28	O	0.347605	1.868720	0.941389
O29	O	-0.191348	1.027656	0.311468
O30	O	0.058652	1.277656	0.561468
O31	O	0.308652	1.527656	0.811468
O32	O	0.558652	1.777656	1.061468
O33	O	-0.402401	1.239142	0.311472
O34	O	-0.152401	1.489142	0.561472
O35	O	0.097599	1.739142	0.811472
O36	O	0.347599	1.989142	1.061472
O37	O	-0.191352	1.118898	0.402453
O38	O	0.058648	1.368898	0.652453
O39	O	0.308648	1.618898	0.902453
O40	O	0.558648	1.868898	1.152453
O41	O	-0.311417	1.027555	0.191387
O42	O	-0.061417	1.277555	0.441387
O43	O	0.188583	1.527555	0.691387
O44	O	0.438583	1.777555	0.941387
O45	O	-0.311387	0.907187	0.311419
O46	O	-0.061387	1.157187	0.561419
O47	O	0.188613	1.407187	0.811419
O48	O	0.438613	1.657187	1.061419
O49	O	-0.402350	1.027572	0.522449
O50	O	-0.152350	1.277572	0.772449
O51	O	0.097650	1.527572	1.022449
O52	O	0.347650	1.777572	1.272449
O53	O	-0.402344	0.907151	0.402366
O54	O	-0.152344	1.157151	0.652366
O55	O	0.097656	1.407151	0.902366
O56	O	0.347656	1.657151	1.152366
O57	O	-0.311398	1.118850	0.522487
O58	O	-0.061398	1.368850	0.772487
O59	O	0.188602	1.618850	1.022487
O60	O	0.438602	1.868850	1.272487
O61	O	-0.522441	1.118672	0.311422
O62	O	-0.272441	1.368672	0.561422
O63	O	-0.022441	1.618672	0.811422
O64	O	0.227559	1.868672	1.061422
O65	O	-0.522419	1.027471	0.402368
O66	O	-0.272419	1.277471	0.652368
O67	O	-0.022419	1.527471	0.902368
O68	O	0.227581	1.777471	1.152368
C69	C	-0.356862	0.880222	0.356887
C70	C	-0.106862	1.130222	0.606887
C71	C	0.143138	1.380222	0.856887
C72	C	0.393138	1.630222	1.106887
C73	C	-0.356868	0.797676	0.356887
C74	C	-0.106868	1.047676	0.606887
C75	C	0.143132	1.297676	0.856887
C76	C	0.393132	1.547676	1.106887
C77	C	-0.549301	1.073075	0.356906
C78	C	-0.299301	1.323075	0.606906
C79	C	-0.049301	1.573075	0.856906
C80	C	0.200699	1.823075	1.106906
C81	C	-0.631615	1.073100	0.356922
C82	C	-0.381615	1.323100	0.606922
C83	C	-0.131615	1.573100	0.856922
C84	C	0.118385	1.823100	1.106922
C85	C	-0.930706	1.073263	0.356962
C86	C	-0.680706	1.323263	0.606962
C87	C	-0.430706	1.573263	0.856962
C88	C	-0.180706	1.823263	1.106962
C89	C	-0.899397	1.016015	0.414324
C90	C	-0.649397	1.266015	0.664324
C91	C	-0.399397	1.516015	0.914324
C92	C	-0.149397	1.766015	1.164324
C93	C	-0.813779	1.015743	0.414145
C94	C	-0.563779	1.265743	0.664145
C95	C	-0.313779	1.515743	0.914145
C96	C	-0.063779	1.765743	1.164145
C97	C	-0.782323	1.073182	0.356942
C98	C	-0.532323	1.323182	0.606942
C99	C	-0.282323	1.573182	0.856942
C100	C	-0.032323	1.823182	1.106942
C101	C	-0.813459	1.051994	0.278891
C102	C	-0.563459	1.301994	0.528891
C103	C	-0.313459	1.551994	0.778891
C104	C	-0.063459	1.801994	1.028891
C105	C	-0.899104	1.051625	0.279234
C106	C	-0.649104	1.301625	0.529234
C107	C	-0.399104	1.551625	0.779234
C108	C	-0.149104	1.801625	1.029234
C109	C	-0.899058	1.151826	0.376964
C110	C	-0.649058	1.401826	0.626964
C111	C	-0.399058	1.651826	0.876964
C112	C	-0.149058	1.901826	1.126964
C113	C	-0.813408	1.151364	0.378675
C114	C	-0.563408	1.401364	0.628675
C115	C	-0.313408	1.651364	0.878675
C116	C	-0.063408	1.901364	1.128675
C117	C	-0.698464	1.073138	0.356927
C118	C	-0.448464	1.323138	0.606927
C119	C	-0.198464	1.573138	0.856927
C120	C	0.051536	1.823138	1.106927
C121	C	-1.014565	1.073306	0.356972
C122	C	-0.764565	1.323306	0.606972
C123	C	-0.514565	1.573306	0.856972
C124	C	-0.264565	1.823306	1.106972
C125	C	-0.307349	0.598224	0.307544
C126	C	-0.057349	0.848224	0.557544
C127	C	0.192651	1.098224	0.807544
C128	C	0.442651	1.348224	1.057544
C129	C	-0.374893	0.548800	0.289321
C130	C	-0.124893	0.798800	0.539321
C131	C	0.125107	1.048800	0.789321
C132	C	0.375107	1.298800	1.039321
C133	C	-0.356891	0.646546	0.356921
C134	C	-0.106891	0.896546	0.606921
C135	C	0.143109	1.146546	0.856921
C136	C	0.393109	1.396546	1.106921
C137	C	-0.289370	0.548889	0.375142
C138	C	-0.039370	0.798889	0.625142
C139	C	0.210630	1.048889	0.875142
C140	C	0.460630	1.298889	1.125142
C141	C	-0.356907	0.500561	0.356952
C142	C	-0.106907	0.750561	0.606952
C143	C	0.143093	1.000561	0.856952
C144	C	0.393093	1.250561	1.106952
C145	C	-0.424471	0.598209	0.338662
C146	C	-0.174471	0.848209	0.588662
C147	C	0.075529	1.098209	0.838662
C148	C	0.325529	1.348209	1.088662
C149	C	-0.338902	0.598302	0.424515
C150	C	-0.088902	0.848302	0.674515
C151	C	0.161098	1.098302	0.924515
C152	C	0.411098	1.348302	1.174515
C153	C	-0.406493	0.548900	0.406317
C154	C	-0.156493	0.798900	0.656317
C155	C	0.093507	1.048900	0.906317
C156	C	0.343507	1.298900	1.156317
C157	C	-0.356881	0.730644	0.356901
C158	C	-0.106881	0.980644	0.606901
C159	C	0.143119	1.230644	0.856901
C160	C	0.393119	1.480644	1.106901
C161	C	-0.356924	0.416464	0.356971
C162	C	-0.106924	0.666464	0.606971
C163	C	0.143076	0.916464	0.856971
C164	C	0.393076	1.166464	1.106971
C165	C	-0.163728	1.073294	0.356966
C166	C	0.086272	1.323294	0.606966
C167	C	0.336272	1.573294	0.856966
C168	C	0.586272	1.823294	1.106966
C169	C	-0.081414	1.073345	0.356982
C170	C	0.168586	1.323345	0.606982
C171	C	0.418586	1.573345	0.856982
C172	C	0.668586	1.823345	1.106982
C173	C	-0.356871	1.073217	0.550090
C174	C	-0.106871	1.323217	0.800090
C175	C	0.143129	1.573217	1.050090
C176	C	0.393129	1.823217	1.300090
C177	C	-0.356863	1.073236	0.632404
C178	C	-0.106863	1.323236	0.882404
C179	C	0.143137	1.573236	1.132404
C180	C	0.393137	1.823236	1.382404
C181	C	-0.356918	1.266880	0.356970
C182	C	-0.106918	1.516880	0.606970
C183	C	0.143082	1.766880	0.856970
C184	C	0.393082	2.016880	1.106970
C185	C	-0.356930	1.349426	0.356987
C186	C	-0.106930	1.599426	0.606987
C187	C	0.143070	1.849426	0.856987
C188	C	0.393070	2.099426	1.106987
C189	C	-0.356855	1.073174	0.164518
C190	C	-0.106855	1.323174	0.414518
C191	C	0.143145	1.573174	0.664518
C192	C	0.393145	1.823174	0.914518
C193	C	-0.356655	1.073300	0.082204
C194	C	-0.106655	1.323300	0.332204
C195	C	0.143345	1.573300	0.582204
C196	C	0.393345	1.823300	0.832204
C197	C	-0.356724	1.073279	0.931495
C198	C	-0.106724	1.323279	1.181495
C199	C	0.143276	1.573279	1.431495
C200	C	0.393276	1.823279	1.681495
C201	C	-0.413767	1.015652	0.900146
C202	C	-0.163767	1.265652	1.150146
C203	C	0.086233	1.515652	1.400146
C204	C	0.336233	1.765652	1.650146
C205	C	-0.414032	1.015807	0.814528
C206	C	-0.164032	1.265807	1.064528
C207	C	0.085968	1.515807	1.314528
C208	C	0.335968	1.765807	1.564528
C209	C	-0.356793	1.073257	0.783113
C210	C	-0.106793	1.323257	1.033113
C211	C	0.143207	1.573257	1.283113
C212	C	0.393207	1.823257	1.533113
C213	C	-0.377983	1.151502	0.814220
C214	C	-0.127983	1.401502	1.064220
C215	C	0.122017	1.651502	1.314220
C216	C	0.372017	1.901502	1.564220
C217	C	-0.378357	1.151181	0.899865
C218	C	-0.128357	1.401181	1.149865
C219	C	0.121643	1.651181	1.399865
C220	C	0.371643	1.901181	1.649865
C221	C	-0.278365	1.053341	0.899917
C222	C	-0.028365	1.303341	1.149917
C223	C	0.221635	1.553341	1.399917
C224	C	0.471635	1.803341	1.649917
C225	C	-0.278818	1.051600	0.814266
C226	C	-0.028818	1.301600	1.064266
C227	C	0.221182	1.551600	1.314266
C228	C	0.471182	1.801600	1.564266
C229	C	-0.356831	1.073249	0.699253
C230	C	-0.106831	1.323249	0.949253
C231	C	0.143169	1.573249	1.199253
C232	C	0.393169	1.823249	1.449253
C233	C	-0.356689	1.073292	1.015355
C234	C	-0.106689	1.323292	1.265355
C235	C	0.143311	1.573292	1.515355
C236	C	0.393311	1.823292	1.765355
H237	H	-0.792727	1.029000	0.472019
H238	H	-0.542727	1.279000	0.722019
H239	H	-0.292727	1.529000	0.972019
H240	H	-0.042727	1.779000	1.222019
F241	F	-0.214727	0.520566	0.395268
F242	F	0.035273	0.770566	0.645268
F243	F	0.285273	1.020566	0.895268
F244	F	0.535273	1.270566	1.145268
F245	F	-0.326377	1.209173	0.926976
F246	F	-0.076377	1.459173	1.176976
F247	F	0.173623	1.709173	1.426976
F248	F	0.423623	1.959173	1.676976
F249	F	-0.499137	0.626405	0.318449
F250	F	-0.249137	0.876405	0.568449
F251	F	0.000863	1.126405	0.818449
F252	F	0.250863	1.376405	1.068449
H253	H	-0.235866	1.095315	0.920192
H254	H	0.014134	1.345315	1.170192
H255	H	0.264134	1.595315	1.420192
H256	H	0.514134	1.845315	1.670192
F257	F	-0.396696	0.939969	0.787033
F258	F	-0.146696	1.189969	1.037033
F259	F	0.103304	1.439969	1.287033
F260	F	0.353304	1.689969	1.537033
H261	H	-0.793083	1.092379	0.234985
H262	H	-0.543083	1.342379	0.484985
H263	H	-0.293083	1.592379	0.734985
H264	H	-0.043083	1.842379	0.984985
F265	F	-0.926271	1.033167	0.490217
F266	F	-0.676271	1.283167	0.740217
F267	F	-0.426271	1.533167	0.990217
F268	F	-0.176271	1.783167	1.240217
F269	F	-0.461324	0.520769	0.460914
F270	F	-0.211324	0.770769	0.710914
F271	F	0.038676	1.020769	0.960914
F272	F	0.288676	1.270769	1.210914
H273	H	-0.262839	0.994019	0.793933
H274	H	-0.012839	1.244019	1.043933
H275	H	0.237161	1.494019	1.293933
H276	H	0.487161	1.744019	1.543933
H277	H	-0.919304	1.194478	0.335184
H278	H	-0.669304	1.444478	0.585184
H279	H	-0.419304	1.694478	0.835184
H280	H	-0.169304	1.944478	1.085184
H281	H	-0.920618	1.171144	0.432909
H282	H	-0.670618	1.421144	0.682909
H283	H	-0.420618	1.671144	0.932909
H284	H	-0.170618	1.921144	1.182909
F285	F	-0.252646	0.626533	0.252909
F286	F	-0.002646	0.876533	0.502909
F287	F	0.247354	1.126533	0.752909
F288	F	0.497354	1.376533	1.002909
H289	H	-0.435639	1.168082	0.919850
H290	H	-0.185639	1.418082	1.169850
H291	H	0.064361	1.668082	1.419850
H292	H	0.314361	1.918082	1.669850
F293	F	-0.787073	0.939629	0.396830
F294	F	-0.537073	1.189629	0.646830
F295	F	-0.287073	1.439629	0.896830
F296	F	-0.037073	1.689629	1.146830
F297	F	-0.325385	1.209132	0.787628
F298	F	-0.075385	1.459132	1.037628
F299	F	0.174615	1.709132	1.287628
F300	F	0.424615	1.959132	1.537628
F301	F	-0.489213	1.032650	0.928327
F302	F	-0.239213	1.282650	1.178327
F303	F	0.010787	1.532650	1.428327
F304	F	0.260787	1.782650	1.678327
F305	F	-0.927617	0.940366	0.397237
F306	F	-0.677617	1.190366	0.647237
F307	F	-0.427617	1.440366	0.897237
F308	F	-0.177617	1.690366	1.147237
H309	H	-0.323654	0.620063	0.481647
H310	H	-0.073654	0.870063	0.731647
H311	H	0.176346	1.120063	0.981647
H312	H	0.426346	1.370063	1.231647
H313	H	-0.434656	1.168696	0.792779
H314	H	-0.184656	1.418696	1.042779
H315	H	0.065344	1.668696	1.292779
H316	H	0.315344	1.918696	1.542779
F317	F	-0.925294	0.976562	0.257089
F318	F	-0.675294	1.226562	0.507089
F319	F	-0.425294	1.476562	0.757089
F320	F	-0.175294	1.726562	1.007089
F321	F	-0.926178	1.103755	0.221461
F322	F	-0.676178	1.353755	0.471461
F323	F	-0.426178	1.603755	0.721461
F324	F	-0.176178	1.853755	0.971461
F325	F	-0.786808	1.172251	0.453756
F326	F	-0.536808	1.422251	0.703756
F327	F	-0.286808	1.672251	0.953756
F328	F	-0.036808	1.922251	1.203756
F329	F	-0.396609	0.939581	0.927045
F330	F	-0.146609	1.189581	1.177045
F331	F	0.103391	1.439581	1.427045
F332	F	0.353391	1.689581	1.677045
F333	F	-0.489941	1.033047	0.787755
F334	F	-0.239941	1.283047	1.037755
F335	F	0.010059	1.533047	1.287755
F336	F	0.260059	1.783047	1.537755
F337	F	-0.253134	0.980060	0.928127
F338	F	-0.003134	1.230060	1.178127
F339	F	0.246866	1.480060	1.428127
F340	F	0.496866	1.730060	1.678127
F341	F	-0.220317	1.102465	0.786323
F342	F	0.029683	1.352465	1.036323
F343	F	0.279683	1.602465	1.286323
F344	F	0.529683	1.852465	1.536323
H345	H	-0.792067	0.995174	0.261645
H346	H	-0.542067	1.245174	0.511645
H347	H	-0.292067	1.495174	0.761645
H348	H	-0.042067	1.745174	1.011645
F349	F	-0.785410	1.210067	0.328052
F350	F	-0.535410	1.460067	0.578052
F351	F	-0.285410	1.710067	0.828052
F352	F	-0.035410	1.960067	1.078052
F353	F	-0.394797	0.520379	0.214623
F354	F	-0.144797	0.770379	0.464623
F355	F	0.105203	1.020379	0.714623
F356	F	0.355203	1.270379	0.964623
