data_functionalizedCrystal
_audit_creation_method	'MofGen! by Chris Wilmer'
_symmetry_space_group_name_H-M	'P1'
_symmetry_Int_Tables_number	1
_symmetry_cell_setting	triclinic
loop_
_symmetry_equiv_pos_as_xyz
  x,y,z
_cell_length_a	14.044220
_cell_length_b	14.044191
_cell_length_c	10.868271
_cell_angle_alpha	89.998192
_cell_angle_beta	89.993930
_cell_angle_gamma	93.190327
loop_
_atom_site_label
_atom_site_type_symbol
_atom_site_fract_x
_atom_site_fract_y
_atom_site_fract_z
O1	O	0.230200	1.277172	-0.102268
O2	O	0.563534	1.610506	0.231065
O3	O	0.896867	1.943839	0.564398
O4	O	0.221888	1.000500	-0.102284
O5	O	0.555221	1.333833	0.231050
O6	O	0.888554	1.667166	0.564383
O7	O	0.087708	1.134683	-0.102264
O8	O	0.421042	1.468016	0.231069
O9	O	0.754375	1.801350	0.564403
O10	O	0.364380	1.142989	-0.102288
O11	O	0.697713	1.476322	0.231045
O12	O	1.031047	1.809655	0.564379
O13	O	0.087702	1.134671	0.102381
O14	O	0.421035	1.468004	0.435714
O15	O	0.754368	1.801337	0.769047
O16	O	0.221881	1.000487	0.102361
O17	O	0.555214	1.333821	0.435694
O18	O	0.888548	1.667154	0.769028
O19	O	0.230194	1.277160	0.102376
O20	O	0.563527	1.610493	0.435710
O21	O	0.896860	1.943826	0.769043
Zn22	Zn	0.226036	1.138821	0.134860
Zn23	Zn	0.559370	1.472155	0.468194
Zn24	Zn	0.892703	1.805488	0.801527
Zn25	Zn	0.226045	1.138838	-0.134768
Zn26	Zn	0.559378	1.472171	0.198566
Zn27	Zn	0.892712	1.805505	0.531899
O28	O	0.364373	1.142976	0.102357
O29	O	0.697707	1.476310	0.435690
O30	O	1.031040	1.809643	0.769023
C31	C	0.218248	0.964872	0.000037
C32	C	0.551581	1.298205	0.333370
C33	C	0.884914	1.631538	0.666704
C34	C	0.207401	0.858728	0.000031
C35	C	0.540734	1.192062	0.333365
C36	C	0.874067	1.525395	0.666698
C37	C	0.052083	1.131041	0.000059
C38	C	0.385416	1.464375	0.333392
C39	C	0.718750	1.797708	0.666725
C40	C	-0.054060	1.120197	0.000060
C41	C	0.279273	1.453530	0.333393
C42	C	0.612607	1.786863	0.666726
C43	C	0.264501	0.613270	0.000039
C44	C	0.597834	0.946603	0.333372
C45	C	0.931168	1.279937	0.666705
C46	C	0.187585	0.664395	0.000043
C47	C	0.520918	0.997729	0.333377
C48	C	0.854251	1.331062	0.666710
C49	C	0.198613	0.772532	0.000037
C50	C	0.531946	1.105866	0.333370
C51	C	0.865280	1.439199	0.666703
C52	C	0.253474	0.505123	0.000045
C53	C	0.586808	0.838457	0.333379
C54	C	0.920141	1.171790	0.666712
C55	C	-0.248398	1.100370	0.000041
C56	C	0.084935	1.433704	0.333374
C57	C	0.418268	1.767037	0.666707
C58	C	-0.299526	1.177285	0.000041
C59	C	0.033807	1.510618	0.333375
C60	C	0.367140	1.843952	0.666708
C61	C	-0.407663	1.166253	0.000031
C62	C	-0.074329	1.499587	0.333364
C63	C	0.259004	1.832920	0.666697
C64	C	-0.140252	1.111400	0.000051
C65	C	0.193081	1.444734	0.333385
C66	C	0.526415	1.778067	0.666718
C67	C	0.399998	1.146618	0.000031
C68	C	0.733332	1.479952	0.333365
C69	C	1.066665	1.813285	0.666698
C70	C	0.506142	1.157463	0.000022
C71	C	0.839475	1.490796	0.333356
C72	C	1.172808	1.824130	0.666689
C73	C	0.233834	1.312788	0.000053
C74	C	0.567167	1.646121	0.333387
C75	C	0.900500	1.979455	0.666720
C76	C	0.244681	1.418931	0.000051
C77	C	0.578014	1.752264	0.333384
C78	C	0.911348	2.085598	0.666717
N79	N	0.226030	1.138817	0.318875
N80	N	0.559364	1.472151	0.652208
N81	N	0.892697	1.805484	0.985541
N82	N	0.226044	1.138849	-0.318782
N83	N	0.559378	1.472183	0.014552
N84	N	0.892711	1.805516	0.347885
C85	C	0.226043	1.138833	0.569881
C86	C	0.559376	1.472166	0.903214
C87	C	0.892709	1.805499	1.236547
C88	C	0.226038	1.138821	0.430203
C89	C	0.559372	1.472155	0.763536
C90	C	0.892705	1.805488	1.096870
H91	H	0.113452	0.626952	-0.000037
H92	H	0.446786	0.960285	0.333296
H93	H	0.780119	1.293619	0.666630
H94	H	0.338628	0.650711	0.000029
H95	H	0.671961	0.984045	0.333362
H96	H	1.005294	1.317378	0.666695
O97	O	-0.254716	1.265659	0.000113
O98	O	0.078617	1.598992	0.333446
O99	O	0.411951	1.932325	0.666780
C100	C	-0.155157	1.257146	0.000092
C101	C	0.178176	1.590480	0.333425
C102	C	0.511509	1.923813	0.666759
H103	H	-0.138199	1.184580	0.038824
H104	H	0.195134	1.517913	0.372157
H105	H	0.528467	1.851247	0.705490
H106	H	-0.127023	1.264086	-0.098082
H107	H	0.206311	1.597419	0.235251
H108	H	0.539644	1.930752	0.568584
C109	C	-0.128146	1.425627	0.032795
C110	C	0.205187	1.758960	0.366129
C111	C	0.538521	2.092293	0.699462
C112	C	-0.107317	1.336502	0.080376
C113	C	0.226016	1.669836	0.413710
C114	C	0.559349	2.003169	0.747043
H115	H	-0.098635	1.474579	0.082313
H116	H	0.234699	1.807912	0.415647
H117	H	0.568032	2.141246	0.748980
H118	H	-0.195220	1.431363	0.032805
H119	H	0.138113	1.764696	0.366138
H120	H	0.471446	2.098030	0.699472
H121	H	-0.104700	1.431396	-0.049015
H122	H	0.228634	1.764729	0.284318
H123	H	0.561967	2.098063	0.617651
H124	H	-0.130774	1.330730	0.162179
H125	H	0.202559	1.664063	0.495513
H126	H	0.535892	1.997396	0.828846
H127	H	-0.040246	1.330767	0.080382
H128	H	0.293088	1.664100	0.413715
H129	H	0.626421	1.997434	0.747049
H130	H	-0.285837	1.026242	0.000034
H131	H	0.047496	1.359576	0.333367
H132	H	0.380830	1.692909	0.666700
