data_functionalizedCrystal
_audit_creation_method	'MofGen! by Chris Wilmer'
_symmetry_space_group_name_H-M	'P1'
_symmetry_Int_Tables_number	1
_symmetry_cell_setting	triclinic
loop_
_symmetry_equiv_pos_as_xyz
  x,y,z
_cell_length_a	23.532407
_cell_length_b	14.519709
_cell_length_c	12.996460
_cell_angle_alpha	90.007090
_cell_angle_beta	90.000251
_cell_angle_gamma	83.264411
loop_
_atom_site_label
_atom_site_type_symbol
_atom_site_fract_x
_atom_site_fract_y
_atom_site_fract_z
O1	O	-0.755765	-0.111951	-0.085441
O2	O	-0.589975	-0.128149	-0.085471
O3	O	-0.677266	0.014240	-0.085446
O4	O	-0.668475	-0.254341	-0.085466
O5	O	-0.677257	0.014248	0.085688
O6	O	-0.589966	-0.128141	0.085663
O7	O	-0.755756	-0.111943	0.085693
Cu8	Cu	-0.672860	-0.120042	0.101304
Cu9	Cu	-0.672871	-0.120051	-0.101082
O10	O	-0.668465	-0.254333	0.085668
C11	C	-0.676852	0.048599	0.000121
C12	C	-0.675624	0.150966	0.000121
C13	C	-0.568753	-0.127733	0.000092
C14	C	-0.505530	-0.126493	0.000081
C15	C	-0.776979	-0.112360	0.000128
C16	C	-0.840201	-0.113600	0.000132
C17	C	-0.106772	-0.202977	0.000121
C18	C	-0.047367	-0.201825	0.000128
O19	O	-0.010942	-0.272727	0.000160
N20	N	-0.024358	-0.117175	0.000132
C21	C	-0.060759	-0.033671	0.000141
O22	O	-0.035734	0.038437	0.000147
C23	C	-0.120164	-0.034824	0.000142
C24	C	-0.143168	-0.119480	0.000127
C25	C	-0.129777	-0.287626	0.000107
C26	C	-0.189179	-0.288778	0.000099
C27	C	-0.225575	-0.205281	0.000105
C28	C	-0.202570	-0.120631	0.000119
C29	C	-0.156563	0.048679	0.000158
C30	C	-0.215971	0.047519	0.000160
C31	C	-0.238976	-0.037137	0.000145
C32	C	-0.298367	-0.038286	0.000116
N33	N	-0.321375	-0.122936	0.000111
C34	C	-0.284979	-0.206434	0.000106
C35	C	0.063994	-0.031256	0.000141
C36	C	0.123397	-0.030102	0.000133
C37	C	0.136786	-0.198257	0.000121
C38	C	0.077382	-0.199410	0.000122
C39	C	0.040986	-0.115906	0.000136
C40	C	-0.409727	-0.208846	0.000087
C41	C	-0.469134	-0.209990	0.000075
C42	C	-0.482517	-0.041836	0.000092
C43	C	-0.423115	-0.040691	0.000099
C44	C	-0.386721	-0.124204	0.000100
O45	O	-0.334827	0.032579	0.000088
O46	O	-0.310012	-0.278529	0.000114
C47	C	-0.668880	-0.288692	0.000099
C48	C	-0.670107	-0.391058	0.000091
N49	N	-0.672857	-0.120035	0.243651
C50	C	-0.671104	0.525808	0.000094
C51	C	-0.672359	0.421515	0.000102
C52	C	-0.673364	0.338390	0.000109
C53	C	-0.674619	0.234091	0.000115
N54	N	-0.672879	-0.120050	-0.243429
C55	C	-0.672870	-0.120052	0.663465
C56	C	-0.672865	-0.120050	0.546660
C57	C	-0.672864	-0.120044	0.453562
C58	C	-0.672858	-0.120041	0.336749
H59	H	-0.487860	-0.278930	0.000062
Br60	Br	0.154610	0.084793	0.000122
Br61	Br	0.014605	0.082082	0.000151
H62	H	-0.512162	0.026146	0.000092
H63	H	-0.100149	-0.355624	0.000107
Br64	Br	-0.220389	-0.403674	0.000083
H65	H	0.058656	-0.268344	0.000116
Br66	Br	-0.360343	-0.322185	0.000091
H67	H	0.166431	-0.266245	0.000121
Br68	Br	-0.125358	0.163577	0.000156
H69	H	-0.404384	0.028243	0.000096
Br70	Br	-0.265362	0.160852	0.000185
