data_functionalizedCrystal
_audit_creation_method	'MofGen! by Chris Wilmer'
_symmetry_space_group_name_H-M	'P1'
_symmetry_Int_Tables_number	1
_symmetry_cell_setting	triclinic
loop_
_symmetry_equiv_pos_as_xyz
  x,y,z
_cell_length_a	12.759401
_cell_length_b	15.299816
_cell_length_c	12.759393
_cell_angle_alpha	99.650122
_cell_angle_beta	89.981433
_cell_angle_gamma	80.349384
loop_
_atom_site_label
_atom_site_type_symbol
_atom_site_fract_x
_atom_site_fract_y
_atom_site_fract_z
Zn1	Zn	1.678549	-0.359025	-0.666404
Zn2	Zn	1.708818	-0.509869	-0.521151
Zn3	Zn	1.502860	-0.359070	-0.490752
Zn4	Zn	1.533200	-0.509797	-0.696778
O5	O	1.605857	-0.434440	-0.593771
O6	O	1.829588	-0.379047	-0.647146
O7	O	1.681468	-0.489914	-0.370107
O8	O	1.500801	-0.232855	-0.488619
O9	O	1.851826	-0.489871	-0.540430
O10	O	1.629879	-0.232823	-0.617669
O11	O	1.530151	-0.379122	-0.347773
O12	O	1.359861	-0.379052	-0.518071
O13	O	1.552510	-0.489748	-0.839760
O14	O	1.382152	-0.489791	-0.669437
O15	O	1.659298	-0.378977	-0.817444
O16	O	1.710886	-0.636068	-0.569882
O17	O	1.581860	-0.636015	-0.698914
C18	C	1.332885	-0.434419	-0.593752
C19	C	1.216111	-0.434432	-0.593774
C20	C	1.149685	-0.376835	-0.649467
C21	C	1.039964	-0.376852	-0.649477
C22	C	1.063108	-0.492071	-0.538099
C23	C	1.172825	-0.492049	-0.538083
C24	C	1.136323	-0.310316	-0.713774
C25	C	1.026602	-0.310333	-0.713784
C26	C	1.652979	-0.668766	-0.641016
C27	C	1.673234	-0.769011	-0.661263
C28	C	1.461780	-1.051953	-0.449422
C29	C	1.442744	-0.957767	-0.430402
C30	C	1.500365	-0.910574	-0.488115
C31	C	1.577025	-0.957575	-0.564852
C32	C	1.596057	-1.051770	-0.583880
C33	C	1.634642	-0.910391	-0.622573
C34	C	1.711302	-0.957392	-0.699311
C35	C	1.730331	-1.051577	-0.718335
C36	C	1.672710	-1.098771	-0.660621
C37	C	1.615610	-0.816196	-0.603545
C38	C	1.749887	-0.816013	-0.738004
C39	C	1.768923	-0.910198	-0.757024
C40	C	1.879894	-0.434462	-0.593791
C41	C	1.996673	-0.434472	-0.593799
C42	C	1.605912	-0.434349	-0.867786
C43	C	1.605936	-0.434311	-0.984555
C44	C	1.558580	-0.199200	-0.546365
C45	C	1.538433	-0.098954	-0.526163
C46	C	1.661548	-0.376627	-1.027798
C47	C	1.661567	-0.376594	-1.137516
C48	C	1.550358	-0.491937	-1.160739
C49	C	1.550334	-0.491965	-1.051023
C50	C	1.725757	-0.310037	-1.014391
C51	C	1.725776	-0.310004	-1.124109
C52	C	1.605849	-0.434466	-0.320809
C53	C	1.605978	-0.434251	-0.203989
H54	H	1.175441	-0.335410	-0.796074
F55	F	1.693139	-1.199015	-0.680688
H56	H	1.808071	-0.335077	-0.985407
F57	F	1.534026	-0.766184	-0.521878
H58	H	1.027850	-0.538981	-0.492758
F59	F	1.678921	-0.218745	-0.957078
F60	F	1.491127	-0.553347	-1.005002
H61	H	1.484862	-0.833884	-0.472623
F62	F	1.811214	-0.765790	-0.799432
F63	F	1.156844	-0.218980	-0.667051
H64	H	1.380327	-0.919503	-0.367924
H65	H	1.226905	-0.538942	-0.492721
H66	H	1.683298	-0.243639	-1.144770
H67	H	1.505087	-0.538875	-1.214870
H68	H	1.414868	-1.090387	-0.402445
H69	H	0.979194	-0.243952	-0.671395
F70	F	0.992665	-0.334902	-0.825048
H71	H	1.792748	-1.089843	-0.780824
H72	H	1.831339	-0.948480	-0.819505
F73	F	1.837055	-0.334447	-1.167967
