data_functionalizedCrystal
_audit_creation_method	'MofGen! by Chris Wilmer'
_symmetry_space_group_name_H-M	'P1'
_symmetry_Int_Tables_number	1
_symmetry_cell_setting	triclinic
loop_
_symmetry_equiv_pos_as_xyz
  x,y,z
_cell_length_a	14.446369
_cell_length_b	12.970454
_cell_length_c	12.970454
_cell_angle_alpha	59.999320
_cell_angle_beta	59.998284
_cell_angle_gamma	90.000763
loop_
_atom_site_label
_atom_site_type_symbol
_atom_site_fract_x
_atom_site_fract_y
_atom_site_fract_z
Zr1	Zr	-0.121500	0.993187	1.128551
O2	O	-0.269310	1.043646	1.128561
O3	O	-0.076188	0.828565	1.128548
O4	O	-0.269312	0.828551	1.343654
O5	O	0.076153	1.213337	0.743776
O6	O	-0.269314	0.828548	1.513324
O7	O	-0.076186	1.043659	0.913455
O8	O	0.076149	0.828572	1.128538
O9	O	-0.269311	1.213312	1.128561
O10	O	-0.056865	0.938556	1.255170
O11	O	0.056825	1.065187	1.001918
O12	O	-0.170554	1.065171	1.255178
O13	O	-0.056863	1.191802	1.001926
Zr14	Zr	0.121459	1.263797	1.128538
Zr15	Zr	-0.121504	0.993181	1.399155
Zr16	Zr	0.121462	1.263802	0.857934
Zr17	Zr	-0.121502	1.263785	1.128553
Zr18	Zr	0.121460	0.993198	1.128536
O19	O	0.076146	1.428418	1.128541
O20	O	-0.269315	1.043638	1.513325
O21	O	0.076152	1.428426	0.743777
O22	O	0.269268	1.213338	1.128529
O23	O	-0.076193	0.828557	1.513312
O24	O	0.269274	1.213346	0.743764
O25	O	-0.076194	1.043647	1.513313
O26	O	0.269270	1.428432	0.913435
O27	O	0.269273	1.428436	0.743765
O28	O	0.076144	1.213324	1.343635
O29	O	-0.269314	1.213308	1.343656
O30	O	0.269272	1.043676	0.913433
O31	O	0.269269	1.043671	1.128528
O32	O	0.076146	0.828568	1.343633
O33	O	-0.076188	1.428416	0.913457
O34	O	-0.076191	1.428411	1.128551
O35	O	0.170512	1.191813	1.001912
O36	O	0.056821	1.065182	1.255164
O37	O	-0.056867	1.191797	1.255171
O38	O	0.056824	1.318427	1.001919
C39	C	-0.000019	0.790014	1.128543
C40	C	-0.000019	0.675138	1.128542
C41	C	-0.303927	1.128477	1.128563
C42	C	-0.407070	1.128472	1.128569
C43	C	-0.625441	1.049013	1.288279
C44	C	-0.518209	1.048563	1.288386
C45	C	-0.410395	1.070224	1.049232
C46	C	-0.518164	1.069645	1.050246
C47	C	-0.516795	1.266291	1.046958
C48	C	-0.410826	1.266070	1.049968
C49	C	0.303885	1.128506	1.128526
C50	C	0.407028	1.128511	1.128520
C51	C	-0.000016	1.128499	0.790060
C52	C	-0.000015	1.128501	0.675181
C53	C	-0.000022	1.466969	1.128546
C54	C	-0.000023	1.581845	1.128547
C55	C	-0.000026	1.128485	1.467029
C56	C	-0.000027	1.128482	1.581908
C57	C	-0.303930	0.789993	1.467046
C58	C	-0.407074	0.675109	1.581930
C59	C	-0.000024	0.790007	1.467027
C60	C	-0.000025	0.675129	1.581905
C61	C	0.303890	1.128513	0.790041
C62	C	0.407034	1.128521	0.675157
C63	C	-0.000018	1.466976	0.790062
C64	C	-0.000017	1.581855	0.675184
C65	C	0.303888	1.466991	0.790043
C66	C	0.407032	1.581874	0.675159
C67	C	-0.303932	1.128470	1.467048
C68	C	-0.407076	1.128463	1.581933
C69	C	-0.455514	0.621147	1.729368
C70	C	-0.552419	0.513191	1.837329
C71	C	-0.600887	0.459204	1.797849
C72	C	-0.552438	0.513172	1.650396
C73	C	-0.455530	0.621120	1.542438
C74	C	0.455474	1.222002	0.527719
C75	C	0.552380	1.222014	0.419757
C76	C	0.600850	1.128549	0.459236
C77	C	0.552401	1.035058	0.606688
C78	C	0.455492	1.035042	0.714647
C79	C	0.455480	1.635828	0.527721
C80	C	0.552404	1.743763	0.419760
C81	C	0.600874	1.797747	0.459240
C82	C	0.552422	1.743783	0.606693
C83	C	0.455505	1.635845	0.714651
C84	C	-0.455514	1.221945	1.542408
C85	C	-0.552420	1.221964	1.650339
C86	C	-0.600891	1.128494	1.797795
C87	C	-0.552444	1.035006	1.837319
C88	C	-0.455535	1.034994	1.729389
H89	H	-0.519826	1.087626	1.350637
H90	H	0.416064	0.958920	0.834696
H91	H	0.416061	1.591927	0.834701
H92	H	-0.416065	1.298060	1.422349
H93	H	-0.591856	0.469267	1.957384
H94	H	0.416026	1.591890	0.495548
H95	H	0.591840	1.787688	0.299705
H96	H	0.679791	1.885637	0.371321
H97	H	0.679758	1.128576	0.371314
H98	H	-0.489374	1.325811	0.929280
H99	H	0.591900	1.787751	0.638823
H100	H	-0.566816	1.314950	1.098078
H101	H	0.591880	0.958962	0.638813
H102	H	-0.416065	0.665091	1.761542
H103	H	-0.411345	1.309583	1.107817
H104	H	-0.591854	1.298092	1.618129
H105	H	-0.679802	1.128516	1.885664
H106	H	-0.591923	0.958906	1.957391
H107	H	-0.416108	0.958863	1.761592
H108	H	-0.591913	0.469201	1.618266
H109	H	-0.679353	1.087922	1.350959
H110	H	-0.679796	0.371305	1.885768
H111	H	-0.680422	0.947989	1.350671
H112	H	-0.408262	0.969798	1.104336
H113	H	0.416022	1.298116	0.495546
H114	H	-0.520667	0.946925	1.351035
H115	H	-0.568511	0.968258	1.106628
H116	H	-0.416100	0.665054	1.422388
H117	H	0.591815	1.298150	0.299703
H118	H	-0.491509	1.123804	0.933033
H119	H	-0.332126	1.125338	0.931724
H120	H	-0.331665	1.330284	0.933372
