data_functionalizedCrystal
_audit_creation_method	'MofGen! by Chris Wilmer'
_symmetry_space_group_name_H-M	'P1'
_symmetry_Int_Tables_number	1
_symmetry_cell_setting	triclinic
loop_
_symmetry_equiv_pos_as_xyz
  x,y,z
_cell_length_a	12.759401
_cell_length_b	19.077068
_cell_length_c	19.077174
_cell_angle_alpha	94.657148
_cell_angle_beta	87.686247
_cell_angle_gamma	92.328499
loop_
_atom_site_label
_atom_site_type_symbol
_atom_site_fract_x
_atom_site_fract_y
_atom_site_fract_z
Zn1	Zn	1.612885	-0.296648	-0.409819
Zn2	Zn	2.112885	0.203352	0.090181
Zn3	Zn	1.599186	-0.409803	-0.296663
Zn4	Zn	2.099186	0.090197	0.203337
Zn5	Zn	1.430419	-0.291937	-0.291952
Zn6	Zn	1.930419	0.208063	0.208048
Zn7	Zn	1.430349	-0.414501	-0.414511
Zn8	Zn	1.930349	0.085499	0.085489
O9	O	1.518210	-0.353222	-0.353236
O10	O	2.018210	0.146778	0.146764
O11	O	1.758089	-0.311663	-0.394817
O12	O	2.258089	0.188337	0.105183
O13	O	1.571095	-0.390230	-0.197390
O14	O	2.071095	0.109770	0.302610
O15	O	1.460386	-0.193913	-0.303652
O16	O	1.960386	0.306087	0.196348
O17	O	1.748024	-0.394798	-0.311681
O18	O	2.248024	0.105202	0.188319
O19	O	1.594443	-0.197374	-0.390249
O20	O	2.094443	0.302626	0.109751
O21	O	1.447103	-0.303634	-0.193929
O22	O	1.947103	0.196366	0.306071
O23	O	1.283389	-0.308190	-0.308202
O24	O	1.783389	0.191810	0.191798
O25	O	1.460267	-0.402806	-0.512537
O26	O	1.960267	0.097194	-0.012537
O27	O	1.283338	-0.398238	-0.398246
O28	O	1.783338	0.101762	0.101754
O29	O	1.594375	-0.316219	-0.509090
O30	O	2.094375	0.183781	-0.009090
O31	O	1.571027	-0.509075	-0.316231
O32	O	2.071027	-0.009075	0.183769
O33	O	1.446984	-0.512527	-0.402814
O34	O	1.946984	-0.012527	0.097186
C35	C	1.245242	-0.353213	-0.353222
C36	C	1.745242	0.146787	0.146778
C37	C	1.128465	-0.353227	-0.353233
C38	C	1.628465	0.146773	0.146767
C39	C	1.073596	-0.400180	-0.400051
C40	C	1.573596	0.099820	0.099949
C41	C	0.963873	-0.400184	-0.400065
C42	C	1.463873	0.099816	0.099935
C43	C	0.963897	-0.306278	-0.306438
C44	C	1.463897	0.193722	0.193562
C45	C	1.073619	-0.306272	-0.306428
C46	C	1.573619	0.193728	0.193572
C47	C	1.507541	-0.536381	-0.360558
C48	C	2.007541	-0.036381	0.139442
C49	C	1.503074	-0.614738	-0.363714
C50	C	2.003074	-0.114738	0.136286
C51	C	1.565612	-0.649731	-0.320155
C52	C	2.065612	-0.149731	0.179845
C53	C	1.561418	-0.723356	-0.323128
C54	C	2.061418	-0.223356	0.176872
C55	C	1.494678	-0.761986	-0.369656
C56	C	1.994678	-0.261986	0.130344
C57	C	1.432137	-0.726988	-0.413220
C58	C	1.932137	-0.226988	0.086780
C59	C	1.436338	-0.653364	-0.410250
C60	C	1.936338	-0.153364	0.089750
C61	C	1.475187	-0.982372	-0.383370
C62	C	1.975187	-0.482372	0.116630
C63	C	1.470989	-1.056000	-0.386335
C64	C	1.970989	-0.556000	0.113665
C65	C	1.600271	-1.052363	-0.296243
C66	C	2.100271	-0.552363	0.203757
C67	C	1.604462	-0.978738	-0.293275
C68	C	2.104462	-0.478738	0.206725
C69	C	1.541925	-0.943747	-0.336841
C70	C	2.041925	-0.443747	0.163159
N71	N	1.490386	-0.837242	-0.372694
N72	N	1.990386	-0.337242	0.127306
N73	N	1.546223	-0.868492	-0.333806
N74	N	2.046223	-0.368492	0.166194
C75	C	1.792243	-0.353232	-0.353251
C76	C	2.292243	0.146768	0.146749
C77	C	1.909020	-0.353236	-0.353258
C78	C	2.409020	0.146764	0.146742
C79	C	1.528841	-0.360562	-0.537107
C80	C	2.028841	0.139438	-0.037107
C81	C	1.533372	-0.363690	-0.615461
C82	C	2.033372	0.136310	-0.115461
C83	C	1.528950	-0.169349	-0.345901
C84	C	2.028950	0.330651	0.154099
C85	C	1.533527	-0.090993	-0.342776
C86	C	2.033527	0.409007	0.157224
C87	C	1.470947	-0.320075	-0.650470
C88	C	1.970947	0.179925	-0.150470
C89	C	1.475199	-0.323019	-0.724093
C90	C	1.975199	0.176981	-0.224093
C91	C	1.541883	-0.369576	-0.762705
C92	C	2.041883	0.130424	-0.262705
C93	C	1.604310	-0.413197	-0.727692
C94	C	2.104310	0.086803	-0.227692
C95	C	1.600051	-0.410255	-0.654070
C96	C	2.100051	0.089745	-0.154070
C97	C	1.561537	-0.383212	-0.983083
C98	C	2.061537	0.116788	-0.483083
C99	C	1.565793	-0.386149	-1.056709
C100	C	2.065793	0.113851	-0.556709
C101	C	1.436680	-0.295972	-1.053105
C102	C	1.936680	0.204028	-0.553105
C103	C	1.432432	-0.293032	-0.979482
C104	C	1.932432	0.206968	-0.479482
C105	C	1.494855	-0.336655	-0.944475
C106	C	1.994855	0.163345	-0.444475
N107	N	1.546234	-0.372586	-0.837959
N108	N	2.046234	0.127414	-0.337959
N109	N	1.490498	-0.333648	-0.869222
N110	N	1.990498	0.166352	-0.369222
C111	C	1.507683	-0.345860	-0.170079
C112	C	2.007683	0.154140	0.329921
C113	C	1.503368	-0.342534	-0.091717
C114	C	2.003368	0.157466	0.408283
H115	H	1.118295	-0.268032	-0.268303
H116	H	1.618295	0.231968	0.231697
H117	H	1.620099	-0.424062	-1.088145
H118	H	2.120099	0.075938	-0.588145
H119	H	1.424265	-0.953888	-0.418842
H120	H	1.924265	-0.453888	0.081158
H121	H	1.658599	-0.451108	-0.759136
H122	H	2.158599	0.048892	-0.259136
H123	H	0.919228	-0.268049	-0.268329
H124	H	1.419228	0.231951	0.231671
H125	H	1.658806	-0.947287	-0.255388
H126	H	2.158806	-0.447287	0.244612
H127	H	1.619954	-0.618282	-0.282264
H128	H	2.119954	-0.118282	0.217736
Br129	Br	1.646302	-0.770844	-0.264013
Br130	Br	2.146302	-0.270844	0.235987
Br131	Br	1.148028	-0.463903	-0.463574
Br132	Br	1.648028	0.036097	0.036426
H133	H	1.651187	-1.080861	-0.260775
H134	H	2.151187	-0.580861	0.239225
H135	H	1.416655	-1.087452	-0.424236
H136	H	1.916655	-0.587452	0.075764
Br137	Br	1.341570	-0.779414	-0.476372
Br138	Br	1.841570	-0.279414	0.023628
Br139	Br	1.351468	-0.605873	-0.469373
Br140	Br	1.851468	-0.105873	0.030627
Br141	Br	1.380452	-0.256881	-0.598074
Br142	Br	1.880452	0.243119	-0.098074
H143	H	1.385858	-0.260458	-1.081615
H144	H	1.885858	0.239542	-0.581615
Br145	Br	1.390417	-0.263863	-0.771603
Br146	Br	1.890417	0.236137	-0.271603
H147	H	1.378128	-0.255122	-0.948048
H148	H	1.878128	0.244878	-0.448048
Br149	Br	1.646261	-0.442411	-0.935582
Br150	Br	2.146261	0.057589	-0.435582
H151	H	1.650892	-0.445766	-0.625567
H152	H	2.150892	0.054234	-0.125567
Br153	Br	0.889411	-0.463906	-0.463609
Br154	Br	1.389411	0.036094	0.036391
