data_functionalizedCrystal
_audit_creation_method	'MofGen! by Chris Wilmer'
_symmetry_space_group_name_H-M	'P1'
_symmetry_Int_Tables_number	1
_symmetry_cell_setting	triclinic
loop_
_symmetry_equiv_pos_as_xyz
  x,y,z
_cell_length_a	27.271600
_cell_length_b	9.582889
_cell_length_c	9.582880
_cell_angle_alpha	89.899755
_cell_angle_beta	111.206715
_cell_angle_gamma	111.206979
loop_
_atom_site_label
_atom_site_type_symbol
_atom_site_fract_x
_atom_site_fract_y
_atom_site_fract_z
V1	V	-1.039083	-0.206404	-0.466307
V2	V	-0.539083	0.293596	0.033693
O3	O	-1.025083	0.010590	-0.457713
O4	O	-0.525083	0.510590	0.042287
O5	O	-1.036611	-0.409910	-0.462847
O6	O	-0.536611	0.090090	0.037153
O7	O	-1.036610	-0.202944	-0.669813
O8	O	-0.536610	0.297056	-0.169813
O9	O	-1.025083	-0.197809	-0.249314
O10	O	-0.525083	0.302191	0.250686
V11	V	-1.157495	-0.180480	-0.440384
V12	V	-0.657495	0.319520	0.059616
O13	O	-1.109813	-0.263263	-0.523166
O14	O	-0.609813	0.236737	-0.023166
O15	O	-1.199314	-0.123619	-0.383523
O16	O	-0.699314	0.376381	0.116477
O17	O	-1.104166	0.023024	-0.443845
O18	O	-0.604166	0.523024	0.056155
O19	O	-1.200844	-0.397473	-0.448978
O20	O	-0.700844	0.102527	0.051022
O21	O	-1.200844	-0.189075	-0.657377
O22	O	-0.700844	0.310925	-0.157377
O23	O	-1.104166	-0.183942	-0.236879
O24	O	-0.604166	0.316058	0.263121
V25	V	-0.907492	-0.180485	-0.440389
V26	V	-0.407492	0.319515	0.059611
O27	O	-0.921492	-0.189080	-0.657382
O28	O	-0.421492	0.310920	-0.157382
O29	O	-0.909965	-0.183946	-0.236883
O30	O	-0.409965	0.316054	0.263117
O31	O	-0.909965	0.023020	-0.443849
O32	O	-0.409965	0.523020	0.056151
O33	O	-0.921493	-0.397479	-0.448983
O34	O	-0.421493	0.102521	0.051017
V35	V	-0.789081	-0.206409	-0.466312
V36	V	-0.289081	0.293591	0.033688
O37	O	-0.836763	-0.123626	-0.383530
O38	O	-0.336763	0.376374	0.116470
O39	O	-0.747262	-0.263270	-0.523174
O40	O	-0.247262	0.236730	-0.023174
O41	O	-0.842409	-0.202947	-0.669817
O42	O	-0.342409	0.297053	-0.169817
O43	O	-0.745732	-0.197815	-0.249319
O44	O	-0.245732	0.302185	0.250681
O45	O	-0.745731	0.010584	-0.457718
O46	O	-0.245731	0.510584	0.042282
O47	O	-0.842410	-0.409914	-0.462851
O48	O	-0.342410	0.090086	0.037149
V49	V	-1.289082	-0.206399	-0.466302
V50	V	-0.789082	0.293601	0.033698
O51	O	-1.275082	0.010595	-0.457708
O52	O	-0.775082	0.510595	0.042292
O53	O	-1.286609	-0.409905	-0.462842
O54	O	-0.786609	0.090095	0.037158
O55	O	-1.286609	-0.202939	-0.669808
O56	O	-0.786609	0.297061	-0.169808
O57	O	-1.275082	-0.197804	-0.249309
O58	O	-0.775082	0.302196	0.250691
V59	V	-1.407493	-0.180475	-0.440379
V60	V	-0.907493	0.319525	0.059621
O61	O	-1.359812	-0.263258	-0.523161
O62	O	-0.859812	0.236742	-0.023161
O63	O	-1.449313	-0.123614	-0.383518
O64	O	-0.949313	0.376386	0.116482
O65	O	-1.354165	0.023029	-0.443840
O66	O	-0.854165	0.523029	0.056160
O67	O	-1.450843	-0.397468	-0.448973
O68	O	-0.950843	0.102532	0.051027
O69	O	-1.450843	-0.189070	-0.657372
O70	O	-0.950843	0.310930	-0.157372
O71	O	-1.354165	-0.183937	-0.236874
O72	O	-0.854165	0.316063	0.263126
V73	V	-0.657493	-0.180485	-0.440389
V74	V	-0.157493	0.319515	0.059611
O75	O	-0.671491	-0.189079	-0.657381
O76	O	-0.171491	0.310921	-0.157381
O77	O	-0.659968	-0.183948	-0.236885
O78	O	-0.159968	0.316052	0.263115
O79	O	-0.659967	0.023018	-0.443851
O80	O	-0.159967	0.523018	0.056149
O81	O	-0.671491	-0.397478	-0.448982
O82	O	-0.171491	0.102522	0.051018
V83	V	-0.539078	-0.206399	-0.466302
V84	V	-0.039078	0.293601	0.033698
O85	O	-0.586763	-0.123622	-0.383525
O86	O	-0.086763	0.376378	0.116475
O87	O	-0.497257	-0.263256	-0.523159
O88	O	0.002743	0.236744	-0.023159
O89	O	-0.592406	-0.202940	-0.669809
O90	O	-0.092406	0.297060	-0.169809
O91	O	-0.495730	-0.197803	-0.249308
O92	O	0.004270	0.302197	0.250692
O93	O	-0.495730	0.010595	-0.457707
O94	O	0.004270	0.510595	0.042293
O95	O	-0.592406	-0.409906	-0.462843
O96	O	-0.092406	0.090094	0.037157
C97	C	-0.999892	-0.459530	-0.455421
C98	C	-0.499892	0.040470	0.044579
C99	C	-1.018256	-0.625896	-0.453948
C100	C	-0.518256	-0.125896	0.046052
C101	C	-1.056721	0.072635	-0.451269
C102	C	-0.556721	0.572635	0.048731
C103	C	-1.033167	0.238999	-0.452752
C104	C	-0.533167	0.738999	0.047248
C105	C	-0.999891	-0.195522	-0.719425
C106	C	-0.499891	0.304478	-0.219425
C107	C	-1.018253	-0.194039	-0.885790
C108	C	-0.518253	0.305961	-0.385790
C109	C	-1.056722	-0.191370	-0.187261
C110	C	-0.556722	0.308630	0.312739
C111	C	-1.033169	-0.192845	-0.020895
C112	C	-0.533169	0.307155	0.479105
C113	C	-0.946685	-0.191372	-0.187263
C114	C	-0.446685	0.308628	0.312737
C115	C	-0.928321	-0.192849	-0.020898
C116	C	-0.428321	0.307151	0.479102
C117	C	-0.946685	0.072632	-0.451272
C118	C	-0.446685	0.572632	0.048728
C119	C	-0.928322	0.238997	-0.452758
C120	C	-0.428322	0.738997	0.047242
C121	C	-0.889854	-0.195523	-0.719427
C122	C	-0.389854	0.304477	-0.219427
C123	C	-0.913407	-0.194038	-0.885791
C124	C	-0.413407	0.305962	-0.385791
C125	C	-0.889855	-0.459532	-0.455426
C126	C	-0.389855	0.040468	0.044574
C127	C	-0.913410	-0.625900	-0.453959
C128	C	-0.413410	-0.125900	0.046041
C129	C	-1.249890	-0.459525	-0.455416
C130	C	-0.749890	0.040475	0.044584
C131	C	-1.268254	-0.625891	-0.453943
C132	C	-0.768254	-0.125891	0.046057
C133	C	-1.249889	-0.195517	-0.719420
C134	C	-0.749889	0.304483	-0.219420
C135	C	-1.268252	-0.194034	-0.885785
C136	C	-0.768252	0.305966	-0.385785
C137	C	-1.306720	0.072640	-0.451264
C138	C	-0.806720	0.572640	0.048736
C139	C	-1.283166	0.239004	-0.452747
C140	C	-0.783166	0.739004	0.047253
C141	C	-1.306721	-0.191365	-0.187256
C142	C	-0.806721	0.308635	0.312744
C143	C	-1.283167	-0.192840	-0.020890
C144	C	-0.783167	0.307160	0.479110
C145	C	-0.696688	-0.191378	-0.187269
C146	C	-0.196688	0.308622	0.312731
C147	C	-0.678326	-0.192855	-0.020904
C148	C	-0.178326	0.307145	0.479096
C149	C	-0.696688	0.072627	-0.451278
C150	C	-0.196688	0.572627	0.048722
C151	C	-0.678327	0.238991	-0.452764
C152	C	-0.178327	0.738991	0.047236
C153	C	-0.639851	-0.195519	-0.719423
C154	C	-0.139851	0.304481	-0.219423
C155	C	-0.663403	-0.194034	-0.885787
C156	C	-0.163403	0.305966	-0.385787
C157	C	-0.639852	-0.459528	-0.455421
C158	C	-0.139852	0.040472	0.044579
C159	C	-0.663406	-0.625896	-0.453955
C160	C	-0.163406	-0.125896	0.046045
