data_functionalizedCrystal
_audit_creation_method	'MofGen! by Chris Wilmer'
_symmetry_space_group_name_H-M	'P1'
_symmetry_Int_Tables_number	1
_symmetry_cell_setting	triclinic
loop_
_symmetry_equiv_pos_as_xyz
  x,y,z
_cell_length_a	21.295420
_cell_length_b	21.295418
_cell_length_c	11.169409
_cell_angle_alpha	89.962757
_cell_angle_beta	89.976775
_cell_angle_gamma	90.024169
loop_
_atom_site_label
_atom_site_type_symbol
_atom_site_fract_x
_atom_site_fract_y
_atom_site_fract_z
Zn1	Zn	0.962356	-0.250629	-0.678611
Zn2	Zn	0.962265	-0.355917	-0.477910
Zn3	Zn	0.857082	-0.250658	-0.477933
Zn4	Zn	0.857053	-0.355857	-0.678543
O5	O	0.909689	-0.303265	-0.578249
O6	O	1.050433	-0.264609	-0.652006
O7	O	0.948286	-0.341992	-0.309963
O8	O	0.871097	-0.162565	-0.504591
O9	O	1.050366	-0.341964	-0.504552
O10	O	0.948442	-0.162543	-0.652028
O11	O	0.871009	-0.264658	-0.309980
O12	O	0.768989	-0.264600	-0.504526
O13	O	0.871047	-0.341860	-0.846502
O14	O	0.768967	-0.341889	-0.651913
O15	O	0.948413	-0.264550	-0.846551
O16	O	0.948258	-0.443999	-0.504487
O17	O	0.870959	-0.443954	-0.651891
C18	C	0.746137	-0.303241	-0.578215
C19	C	0.676169	-0.303246	-0.578229
C20	C	0.176745	-0.263082	-0.655171
C21	C	0.242488	-0.263077	-0.655171
C22	C	0.275330	-0.303284	-0.578277
C23	C	0.242424	-0.343511	-0.501400
C24	C	0.176682	-0.343519	-0.501410
N25	N	0.378521	-0.308039	-0.473188
N26	N	0.440973	-0.308028	-0.473181
C27	C	0.473404	-0.303264	-0.578242
N28	N	0.441026	-0.298499	-0.683313
N29	N	0.378568	-0.298507	-0.683318
C30	C	0.346615	-0.303280	-0.578258
C31	C	0.577588	-0.263038	-0.655121
C32	C	0.643332	-0.263037	-0.655122
C33	C	0.643266	-0.343468	-0.501340
C34	C	0.577524	-0.343472	-0.501349
C35	C	0.544689	-0.303253	-0.578238
C36	C	0.909612	-0.466817	-0.578205
C37	C	0.909637	-0.536785	-0.578227
C38	C	0.950041	-1.036178	-0.655174
C39	C	0.950022	-0.970436	-0.655155
C40	C	0.909775	-0.937624	-0.578324
C41	C	0.869554	-0.970561	-0.501485
C42	C	0.869578	-1.036302	-0.501498
N43	N	0.854637	-0.834452	-0.569000
N44	N	0.854616	-0.772000	-0.568994
C45	C	0.909701	-0.739550	-0.578279
N46	N	0.964808	-0.771910	-0.587593
N47	N	0.964828	-0.834367	-0.587604
C48	C	0.909744	-0.866339	-0.578301
C49	C	0.949902	-0.635336	-0.655087
C50	C	0.949884	-0.569592	-0.655060
C51	C	0.869411	-0.569718	-0.501396
C52	C	0.869434	-0.635460	-0.501417
C53	C	0.909678	-0.668265	-0.578269
C54	C	1.073879	-0.303290	-0.578284
C55	C	1.143847	-0.303300	-0.578299
C56	C	0.909737	-0.303195	-0.891292
C57	C	0.909758	-0.303166	-1.024692
C58	C	0.909783	-0.139075	-0.578320
C59	C	0.909823	-0.069107	-0.578350
C60	C	0.909677	-0.303289	-0.266425
C61	C	0.909778	-0.303142	-0.133025
H62	H	0.982816	-1.062884	-0.717743
C63	C	0.140983	-0.219449	-0.738533
C64	C	0.076367	-0.228053	-0.722076
C65	C	0.043402	-0.187866	-0.798840
H66	H	0.151703	-0.228668	-0.819186
H67	H	0.151727	-0.177128	-0.721097
H68	H	0.065628	-0.270364	-0.739520
H69	H	0.065629	-0.218829	-0.641438
H70	H	0.054146	-0.145545	-0.781405
H71	H	0.054127	-0.197089	-0.879489
H72	H	-0.000443	-0.193694	-0.787677
C73	C	0.993553	-0.670883	-0.738716
C74	C	0.979809	-0.654839	-0.857428
C75	C	1.020009	-0.687567	-0.934503
H76	H	0.987838	-0.714761	-0.727887
H77	H	1.035864	-0.660079	-0.721311
H78	H	0.937509	-0.665648	-0.874827
H79	H	0.985528	-0.610967	-0.868295
H80	H	1.062320	-0.676762	-0.917098
H81	H	1.014291	-0.731443	-0.923663
H82	H	1.010693	-0.676681	-1.015057
C83	C	0.278103	-0.219340	-0.738683
C84	C	0.235276	-0.184111	-0.806002
C85	C	0.268059	-0.143809	-0.882934
H86	H	0.303758	-0.243375	-0.790999
H87	H	0.303731	-0.191851	-0.692879
H88	H	0.209658	-0.211596	-0.851803
H89	H	0.209620	-0.160063	-0.753718
H90	H	0.293687	-0.116321	-0.837130
H91	H	0.293713	-0.167850	-0.935242
H92	H	0.239006	-0.119898	-0.928611
H93	H	0.836785	-0.943842	-0.438926
H94	H	0.149897	-0.376271	-0.438810
C95	C	0.825838	-1.071943	-0.418045
C96	C	0.790576	-1.029141	-0.350770
C97	C	0.750269	-1.061952	-0.273894
H98	H	0.849872	-1.097596	-0.365698
H99	H	0.798372	-1.097576	-0.463887
H100	H	0.818039	-1.003518	-0.304931
H101	H	0.766529	-1.003487	-0.403085
H102	H	0.722803	-1.087585	-0.319736
H103	H	0.774308	-1.087603	-0.221555
H104	H	0.726335	-1.032916	-0.228247
H105	H	0.836643	-0.543003	-0.438835
C106	C	0.993451	-0.533759	-0.738544
C107	C	0.957771	-0.496000	-0.815367
C108	C	0.997883	-0.462975	-0.892280
H109	H	1.017434	-0.562643	-0.784427
H110	H	1.020877	-0.508076	-0.692716
H111	H	0.930356	-0.521681	-0.861190
H112	H	0.933789	-0.467104	-0.769516
H113	H	1.025309	-0.437292	-0.846452
H114	H	1.021864	-0.491864	-0.938155
H115	H	0.973680	-0.437348	-0.944405
C116	C	0.825693	-0.671102	-0.417972
C117	C	0.790429	-0.628299	-0.350702
C118	C	0.750122	-0.661108	-0.273825
H119	H	0.849727	-0.696753	-0.365621
H120	H	0.798227	-0.696737	-0.463813
H121	H	0.817891	-0.602675	-0.304865
H122	H	0.766382	-0.602647	-0.403021
H123	H	0.722656	-0.686743	-0.319666
H124	H	0.774161	-0.686758	-0.221483
H125	H	0.726187	-0.632072	-0.228181
C126	C	0.278191	-0.387096	-0.417958
C127	C	0.342806	-0.378469	-0.434376
C128	C	0.375773	-0.418606	-0.357522
H129	H	0.267486	-0.429428	-0.435310
H130	H	0.267434	-0.377834	-0.337325
H131	H	0.353559	-0.387736	-0.514991
H132	H	0.353530	-0.336145	-0.417016
H133	H	0.365016	-0.409344	-0.276888
H134	H	0.365064	-0.460936	-0.374880
H135	H	0.419618	-0.412754	-0.368643
H136	H	0.670117	-0.230288	-0.717730
H137	H	0.550852	-0.230289	-0.717728
H138	H	0.670005	-0.376211	-0.438741
H139	H	0.550738	-0.376220	-0.438746
H140	H	0.982774	-0.943621	-0.717716
