data_functionalizedCrystal
_audit_creation_method	'MofGen! by Chris Wilmer'
_symmetry_space_group_name_H-M	'P1'
_symmetry_Int_Tables_number	1
_symmetry_cell_setting	triclinic
loop_
_symmetry_equiv_pos_as_xyz
  x,y,z
_cell_length_a	14.971491
_cell_length_b	13.339071
_cell_length_c	13.448316
_cell_angle_alpha	89.989367
_cell_angle_beta	89.991393
_cell_angle_gamma	99.622757
loop_
_atom_site_label
_atom_site_type_symbol
_atom_site_fract_x
_atom_site_fract_y
_atom_site_fract_z
O1	O	1.219554	0.131899	-0.082749
O2	O	0.963057	0.147685	-0.082744
O3	O	1.061868	-0.007508	-0.082724
O4	O	1.120743	0.287092	-0.082769
O5	O	1.061848	-0.007517	0.082660
O6	O	0.963038	0.147676	0.082640
O7	O	1.219534	0.131889	0.082635
Cu8	Cu	1.091284	0.139782	0.097738
Cu9	Cu	1.091307	0.139793	-0.097847
O10	O	1.120723	0.287082	0.082615
C11	C	0.929548	0.146974	-0.000051
C12	C	0.829727	0.144855	-0.000048
C13	C	0.399773	0.135719	-0.090220
C14	C	0.493564	0.137706	-0.090216
C15	C	0.540447	0.138701	-0.000062
C16	C	0.493531	0.137699	0.090094
C17	C	0.399740	0.135704	0.090090
C18	C	0.689021	0.141859	0.090097
C19	C	0.782819	0.143856	0.090102
C20	C	0.782845	0.143861	-0.090209
C21	C	0.689054	0.141866	-0.090213
C22	C	0.642146	0.140866	-0.000056
C23	C	1.051913	-0.045214	-0.000028
C24	C	1.022269	-0.157552	-0.000017
C25	C	0.929826	-0.198364	-0.000032
C26	C	0.901971	-0.303911	-0.000053
C27	C	0.966556	-0.368657	-0.000065
C28	C	1.059002	-0.327845	-0.000057
C29	C	1.086859	-0.222288	-0.000028
C30	C	1.123590	-0.392580	-0.000061
C31	C	1.216035	-0.351769	-0.000053
C32	C	1.243888	-0.246222	-0.000025
C33	C	1.179303	-0.181476	-0.000013
C34	C	1.095732	-0.498138	-0.000090
C35	C	1.252766	-0.522062	-0.000086
C36	C	1.280621	-0.416515	-0.000065
C37	C	1.253043	0.132601	-0.000061
C38	C	1.352864	0.134719	-0.000070
C39	C	1.130678	0.324788	-0.000083
C40	C	1.160323	0.437127	-0.000101
N41	N	1.091274	0.139773	0.235303
N42	N	1.091322	0.139793	-0.235412
C43	C	1.135053	0.071082	0.287352
C44	C	1.135059	0.071081	0.391455
C45	C	1.091290	0.139777	0.443507
C46	C	1.047505	0.208471	0.391451
C47	C	1.047495	0.208467	0.287349
C48	C	1.047531	0.208478	0.608431
C49	C	1.047543	0.208485	0.712539
C50	C	1.135096	0.071093	0.712536
C51	C	1.135085	0.071088	0.608435
C52	C	1.091302	0.139784	0.556386
H53	H	0.361550	0.134901	0.163499
H54	H	1.170700	0.015146	0.244978
H55	H	1.011901	0.264423	0.754915
H56	H	0.650886	0.141063	-0.163625
H57	H	1.011862	0.264402	0.433837
O58	O	1.005948	-0.537824	0.000070
C59	C	0.883344	-0.643192	0.085680
C60	C	0.985040	-0.598299	0.085638
H61	H	0.866412	-0.692113	0.154843
H62	H	0.841925	-0.578826	0.085755
H63	H	0.866418	-0.691932	0.016420
H64	H	1.002051	-0.549571	0.154885
H65	H	1.026404	-0.662714	0.085510
O66	O	1.333699	-0.206626	-0.000184
C67	C	1.476471	-0.194792	-0.085818
C68	C	1.374773	-0.239678	-0.085775
H69	H	1.509713	-0.221513	-0.155000
H70	H	1.485343	-0.108227	-0.085858
H71	H	1.509659	-0.221464	-0.016578
H72	H	1.341519	-0.213084	-0.155003
H73	H	1.365965	-0.326238	-0.085683
H74	H	1.201978	-0.095530	-0.000004
O75	O	0.828388	0.145004	-0.177816
C76	C	0.868668	0.233184	-0.331969
C77	C	0.817066	0.232023	-0.232785
H78	H	0.859516	0.303521	-0.376449
H79	H	0.943774	0.234840	-0.316546
H80	H	0.840860	0.162000	-0.376372
H81	H	0.844797	0.303194	-0.188332
H82	H	0.741964	0.230315	-0.248278
H83	H	0.361609	0.134916	-0.163634
H84	H	1.170706	0.015147	0.433833
H85	H	1.355891	-0.383271	-0.000065
O86	O	0.939456	-0.471178	-0.000269
C87	C	0.856372	-0.616027	-0.085968
C88	C	0.887023	-0.499912	-0.085865
H89	H	0.813958	-0.639292	-0.155154
H90	H	0.918380	-0.655344	-0.086045
H91	H	0.814031	-0.639399	-0.016732
H92	H	0.929345	-0.476448	-0.155090
H93	H	0.824976	-0.460660	-0.085737
O94	O	0.812141	-0.343385	-0.000106
C95	C	0.659326	-0.308510	-0.000041
C96	C	0.761035	-0.263671	-0.000003
H97	H	0.617978	-0.244084	0.000064
H98	H	0.642322	-0.357261	-0.069281
H99	H	0.642385	-0.357395	0.069145
H100	H	0.778048	-0.214741	-0.069142
H101	H	0.777986	-0.214979	0.069282
O102	O	0.643533	0.140755	0.177738
C103	C	0.603154	0.052520	0.331841
C104	C	0.654726	0.053650	0.232640
H105	H	0.612170	-0.017908	0.376248
H106	H	0.630973	0.123629	0.376351
H107	H	0.528078	0.050972	0.316327
H108	H	0.729809	0.055162	0.248064
H109	H	0.626834	-0.017455	0.188160
O110	O	0.867132	-0.135429	-0.000193
C111	C	0.807517	-0.002271	-0.085803
C112	C	0.878558	-0.073506	-0.085759
H113	H	0.816743	0.047826	-0.154966
H114	H	0.736635	-0.049513	-0.085883
H115	H	0.816622	0.047659	-0.016543
H116	H	0.869537	-0.123450	-0.155008
H117	H	0.949413	-0.026203	-0.085628
H118	H	1.011844	0.264401	0.244972
H119	H	0.820989	0.144671	0.163513
H120	H	1.011874	0.264415	0.566055
H121	H	1.305357	-0.574778	-0.000094
O122	O	1.177613	0.004262	0.558024
C123	C	1.264499	-0.131973	0.569001
C124	C	1.216356	-0.056361	0.626215
H125	H	1.295852	-0.180992	0.624108
H126	H	1.213344	-0.182670	0.520315
H127	H	1.319998	-0.088177	0.520210
H128	H	1.160860	-0.100075	0.675059
H129	H	1.267566	-0.005665	0.674837
H130	H	0.531752	0.138514	-0.163625
H131	H	1.170745	0.015158	0.754921
H132	H	0.531709	0.138503	0.163499
