data_functionalizedCrystal
_audit_creation_method	'MofGen! by Chris Wilmer'
_symmetry_space_group_name_H-M	'P1'
_symmetry_Int_Tables_number	1
_symmetry_cell_setting	triclinic
loop_
_symmetry_equiv_pos_as_xyz
  x,y,z
_cell_length_a	6.817900
_cell_length_b	12.200875
_cell_length_c	13.081398
_cell_angle_alpha	98.943952
_cell_angle_beta	104.351412
_cell_angle_gamma	107.143593
loop_
_atom_site_label
_atom_site_type_symbol
_atom_site_fract_x
_atom_site_fract_y
_atom_site_fract_z
V1	V	-4.082274	-0.373543	-0.149152
O2	O	-4.054392	-0.350116	0.006916
O3	O	-4.047202	-0.386681	-0.295501
O4	O	-4.051793	-0.529299	-0.146968
O5	O	-4.049769	-0.206511	-0.142646
V6	V	-4.561853	-0.351659	-0.130471
O7	O	-4.352184	-0.421549	-0.190129
O8	O	-4.742141	-0.303653	-0.089494
O9	O	-4.373719	-0.338521	0.015878
O10	O	-4.707133	-0.375086	-0.286539
O11	O	-4.711755	-0.518691	-0.136978
O12	O	-4.369128	-0.195903	-0.132655
C13	C	-3.900720	-0.566759	-0.141704
C14	C	-3.957170	-0.694193	-0.140887
C15	C	-3.894865	-0.384837	-0.331175
C16	C	-3.947596	-0.396617	-0.450818
C17	C	-4.060482	-0.927509	-0.139392
C18	C	-4.002984	-0.797675	-0.140224
C19	C	-4.189398	-0.340362	0.051546
C20	C	-4.115907	-0.328590	0.171188
C21	C	-3.938976	-0.205316	0.355266
C22	C	-4.008022	-0.216367	0.242853
C23	C	-4.154750	-0.429768	0.211942
C24	C	-4.085704	-0.418718	0.324355
C25	C	-3.977813	-0.306488	0.396013
C26	C	-3.908752	-0.295438	0.508428
C27	C	-4.055494	-0.508838	0.477516
C28	C	-4.124541	-0.519889	0.365103
C29	C	-4.183543	-0.158437	-0.137922
C30	C	-4.106331	-0.031001	-0.138734
H31	H	-3.851102	-0.113935	0.413610
H32	H	-3.976393	-0.133982	0.209682
N33	N	-4.234724	-0.634513	0.291883
N34	N	-4.157053	-0.669352	0.221465
H35	H	-4.234863	-0.750306	0.169751
N36	N	-4.264997	-0.544389	0.138723
N37	N	-4.326654	-0.554232	0.038359
H38	H	-4.404524	-0.635183	-0.013354
N39	N	-4.095127	-0.612196	0.519132
N40	N	-3.940393	-0.634713	0.574157
H41	H	-3.968369	-0.707709	0.603548
N42	N	-3.798531	-0.180796	0.581611
N43	N	-3.763871	-0.090474	0.545209
H44	H	-3.686029	-0.009504	0.596892
