data_functionalizedCrystal
_audit_creation_method	'MofGen! by Chris Wilmer'
_symmetry_space_group_name_H-M	'P1'
_symmetry_Int_Tables_number	1
_symmetry_cell_setting	triclinic
loop_
_symmetry_equiv_pos_as_xyz
  x,y,z
_cell_length_a	18.215407
_cell_length_b	12.759399
_cell_length_c	18.215399
_cell_angle_alpha	89.972629
_cell_angle_beta	89.983176
_cell_angle_gamma	90.015564
loop_
_atom_site_label
_atom_site_type_symbol
_atom_site_fract_x
_atom_site_fract_y
_atom_site_fract_z
Zn1	Zn	1.125100	-0.418240	-0.416131
Zn2	Zn	1.125036	-0.593944	-0.293071
Zn3	Zn	1.002039	-0.418281	-0.293079
Zn4	Zn	1.002019	-0.593878	-0.416096
O5	O	1.063549	-0.506086	-0.354594
O6	O	1.228076	-0.441557	-0.399819
O7	O	1.108701	-0.570687	-0.190088
O8	O	1.018398	-0.271255	-0.309419
O9	O	1.228029	-0.570647	-0.309407
O10	O	1.108811	-0.271224	-0.399826
O11	O	1.018336	-0.441628	-0.190093
O12	O	0.899052	-0.441565	-0.309385
O13	O	1.018365	-0.570534	-0.519085
O14	O	0.899038	-0.570575	-0.399766
O15	O	1.108792	-0.441493	-0.519111
O16	O	1.108682	-0.740957	-0.309373
O17	O	1.018303	-0.740908	-0.399759
C18	C	0.872342	-0.506068	-0.354573
C19	C	0.790543	-0.506086	-0.354582
C20	C	0.602361	-0.573367	-0.401584
C21	C	0.525503	-0.573370	-0.401593
C22	C	0.525488	-0.438824	-0.307621
C23	C	0.602345	-0.438816	-0.307616
C24	C	0.640780	-0.506094	-0.354596
C25	C	0.487064	-0.506105	-0.354610
C26	C	0.403730	-0.506108	-0.354620
C27	C	0.724119	-0.506089	-0.354588
C28	C	1.063504	-0.779053	-0.354578
C29	C	1.063552	-0.895830	-0.354595
C30	C	1.110666	-0.950682	-0.307585
C31	C	1.110713	-1.060406	-0.307609
C32	C	1.016525	-1.060416	-0.401657
C33	C	1.016482	-0.950694	-0.401635
C34	C	1.197581	-1.210282	-0.281423
C35	C	1.244688	-1.265138	-0.234401
C36	C	1.256018	-1.229591	-0.162596
C37	C	1.220228	-1.139190	-0.137798
C38	C	1.173115	-1.084340	-0.184816
C39	C	1.161800	-1.119885	-0.256632
C40	C	0.929614	-0.800817	-0.427814
C41	C	0.882496	-0.745964	-0.474829
C42	C	0.871160	-0.781509	-0.546635
C43	C	0.906936	-0.871913	-0.571430
C44	C	0.954054	-0.926765	-0.524415
C45	C	0.965392	-0.891213	-0.452610
C46	C	1.255502	-0.506105	-0.354616
C47	C	1.337300	-0.506113	-0.354625
C48	C	1.063583	-0.506002	-0.546547
C49	C	1.063598	-0.505966	-0.628346
C50	C	1.063614	-0.232053	-0.354627
C51	C	1.063642	-0.115276	-0.354641
C52	C	1.016585	-0.438720	-0.816544
C53	C	1.016598	-0.438699	-0.893403
C54	C	1.110700	-0.573087	-0.893386
C55	C	1.110683	-0.573113	-0.816529
C56	C	1.063626	-0.505923	-0.778110
C57	C	1.063656	-0.505876	-0.931826
C58	C	1.063670	-0.505854	-1.015160
C59	C	1.063611	-0.505947	-0.694771
C60	C	1.063556	-0.506094	-0.163388
C61	C	1.063684	-0.505833	-0.081590
H62	H	1.148994	-0.906014	-0.269283
O63	O	0.970801	-0.373430	-0.779337
C64	C	0.877489	-0.240100	-0.787468
C65	C	0.929294	-0.314002	-0.829694
H66	H	0.843929	-0.192017	-0.828164
H67	H	0.838943	-0.288299	-0.751496
H68	H	0.911289	-0.185220	-0.751477
H69	H	0.895555	-0.368897	-0.865726
H70	H	0.967843	-0.265737	-0.865620
O71	O	0.639784	-0.373499	-0.262037
C72	C	0.758184	-0.313908	-0.220356
C73	C	0.715876	-0.387914	-0.272017
H74	H	0.819712	-0.325553	-0.228396
H75	H	0.743145	-0.229192	-0.233381
H76	H	0.743007	-0.332245	-0.161001
H77	H	0.731030	-0.369672	-0.331389
H78	H	0.730918	-0.472608	-0.258929
H79	H	0.978291	-0.383976	-0.924692
H80	H	0.938847	-0.771861	-0.369345
H81	H	1.149012	-0.627790	-0.924677
O82	O	0.488069	-0.638623	-0.447211
C83	C	0.369675	-0.698310	-0.488840
C84	C	0.411975	-0.624339	-0.437149
H85	H	0.308146	-0.686802	-0.480711
H86	H	0.384758	-0.679963	-0.548218
H87	H	0.384813	-0.782990	-0.475820
H88	H	0.396860	-0.539634	-0.450102
H89	H	0.396888	-0.642776	-0.377786
H90	H	0.494185	-0.384051	-0.269370
H91	H	1.148991	-0.627842	-0.785235
H92	H	1.229450	-1.110262	-0.079324
O93	O	0.639584	-0.638743	-0.447293
C94	C	0.631482	-0.772230	-0.540476
C95	C	0.589240	-0.698230	-0.488756
H96	H	0.590798	-0.820361	-0.574001
H97	H	0.667465	-0.724106	-0.579059
H98	H	0.667466	-0.827062	-0.506612
H99	H	0.553217	-0.643384	-0.522560
H100	H	0.553304	-0.746420	-0.450170
O101	O	1.301827	-1.282973	-0.117024
C102	C	1.382818	-1.430832	-0.102544
C103	C	1.330969	-1.370462	-0.154230
H104	H	1.406382	-1.501592	-0.132599
H105	H	1.429499	-1.377203	-0.084472
H106	H	1.350913	-1.458433	-0.052271
H107	H	1.362811	-1.342854	-0.204538
H108	H	1.284288	-1.424130	-0.172243
H109	H	1.273829	-1.338742	-0.254599
H110	H	1.188368	-1.239225	-0.339895
O111	O	1.138434	-0.996523	-0.160630
C112	C	1.119108	-0.877422	-0.059839
C113	C	1.158439	-0.976882	-0.087142
H114	H	1.135256	-0.861523	-0.000416
H115	H	1.135725	-0.807878	-0.095481
H116	H	1.057178	-0.889279	-0.063398
H117	H	1.220377	-0.965128	-0.083583
H118	H	1.141762	-1.046391	-0.051495
H119	H	0.978202	-1.105100	-0.439954
O120	O	0.988902	-1.014469	-0.548575
C121	C	1.072799	-1.088548	-0.636701
C122	C	1.033391	-0.989145	-0.609409
H123	H	1.108765	-1.068114	-0.685899
H124	H	1.108471	-1.121647	-0.590803
H125	H	1.030286	-1.149497	-0.653635
H126	H	1.075852	-0.928124	-0.592484
H127	H	0.997705	-0.956134	-0.655326
O128	O	0.896005	-0.906303	-0.641231
C129	C	0.905565	-0.867096	-0.770300
C130	C	0.918002	-0.828031	-0.691289
H131	H	0.923328	-0.803824	-0.810793
H132	H	0.939250	-0.941098	-0.780001
H133	H	0.844851	-0.885267	-0.778596
H134	H	0.978696	-0.809800	-0.682937
H135	H	0.884269	-0.754064	-0.681626
O136	O	0.825387	-0.728077	-0.592220
C137	C	0.744317	-0.580301	-0.606672
C138	C	0.796143	-0.640692	-0.554975
H139	H	0.720647	-0.509650	-0.576575
H140	H	0.776184	-0.552562	-0.656933
H141	H	0.697708	-0.634037	-0.624769
H142	H	0.842763	-0.587018	-0.536822
H143	H	0.764224	-0.668445	-0.504751
H144	H	0.853370	-0.672348	-0.454636
