data_functionalizedCrystal
_audit_creation_method	'MofGen! by Chris Wilmer'
_symmetry_space_group_name_H-M	'P1'
_symmetry_Int_Tables_number	1
_symmetry_cell_setting	triclinic
loop_
_symmetry_equiv_pos_as_xyz
  x,y,z
_cell_length_a	21.295417
_cell_length_b	12.827893
_cell_length_c	12.827885
_cell_angle_alpha	89.980728
_cell_angle_beta	89.961900
_cell_angle_gamma	90.030477
loop_
_atom_site_label
_atom_site_type_symbol
_atom_site_fract_x
_atom_site_fract_y
_atom_site_fract_z
Zn1	Zn	-0.250579	1.597560	-0.590788
Zn2	Zn	0.082754	1.930893	-0.257455
Zn3	Zn	0.416087	2.264227	0.075878
Zn4	Zn	-0.355861	1.597408	-0.416023
Zn5	Zn	-0.022528	1.930741	-0.082690
Zn6	Zn	0.310805	2.264074	0.250643
Zn7	Zn	-0.250610	1.422801	-0.416062
Zn8	Zn	0.082723	1.756135	-0.082729
Zn9	Zn	0.416057	2.089468	0.250605
Zn10	Zn	-0.355814	1.422740	-0.590723
Zn11	Zn	-0.022481	1.756074	-0.257390
Zn12	Zn	0.310852	2.089407	0.075943
O13	O	-0.303216	1.510127	-0.503399
O14	O	0.030117	1.843461	-0.170066
O15	O	0.363450	2.176794	0.163268
O16	O	-0.264552	1.743776	-0.567616
O17	O	0.068781	2.077109	-0.234283
O18	O	0.402115	2.410442	0.099050
O19	O	-0.341932	1.574208	-0.269792
O20	O	-0.008599	1.907541	0.063541
O21	O	0.324735	2.240874	0.396874
O22	O	-0.162516	1.446072	-0.439283
O23	O	0.170817	1.779406	-0.105950
O24	O	0.504150	2.112739	0.227384
O25	O	-0.341902	1.743664	-0.439217
O26	O	-0.008569	2.076997	-0.105884
O27	O	0.324764	2.410331	0.227449
O28	O	-0.162494	1.574467	-0.567654
O29	O	0.170839	1.907800	-0.234321
O30	O	0.504173	2.241133	0.099013
O31	O	-0.264604	1.445925	-0.269821
O32	O	0.068729	1.779258	0.063513
O33	O	0.402063	2.112592	0.396846
O34	O	-0.264559	1.276557	-0.439220
O35	O	0.068775	1.609890	-0.105887
O36	O	0.402108	1.943224	0.227447
O37	O	-0.341822	1.445969	-0.736968
O38	O	-0.008489	1.779302	-0.403635
O39	O	0.324844	2.112635	-0.070301
O40	O	-0.341852	1.276512	-0.567543
O41	O	-0.008519	1.609846	-0.234210
O42	O	0.324815	1.943179	0.099124
O43	O	-0.264506	1.574408	-0.737016
O44	O	0.068827	1.907741	-0.403682
O45	O	0.402160	2.241075	-0.070349
O46	O	-0.443944	1.574149	-0.439154
O47	O	-0.110611	1.907482	-0.105821
O48	O	0.222722	2.240815	0.227513
O49	O	-0.443910	1.445821	-0.567505
O50	O	-0.110577	1.779155	-0.234172
O51	O	0.222757	2.112488	0.099161
C52	C	-0.303204	1.238617	-0.503379
C53	C	0.030129	1.571951	-0.170046
C54	C	0.363463	1.905284	0.163287
C55	C	-0.303214	1.122464	-0.503396
C56	C	0.030119	1.455798	-0.170062
C57	C	0.363453	1.789131	0.163271
C58	C	-0.341521	1.070685	-0.566796
C59	C	-0.008188	1.404018	-0.233462
C60	C	0.325146	1.737352	0.099871
C61	C	-0.341532	0.950635	-0.566814
C62	C	-0.008199	1.283968	-0.233481
C63	C	0.325134	1.617301	0.099853
C64	C	-0.466768	1.509990	-0.503341
C65	C	-0.133435	1.843324	-0.170008
C66	C	0.199899	2.176657	0.163325
C67	C	-0.536736	1.510027	-0.503351
C68	C	-0.203403	1.843361	-0.170018
C69	C	0.129931	2.176694	0.163315
C70	C	-0.569600	1.576907	-0.436587
C71	C	-0.236266	1.910240	-0.103254
C72	C	0.097067	2.243573	0.230079
C73	C	-0.635342	1.576956	-0.436611
C74	C	-0.302009	1.910289	-0.103278
C75	C	0.031325	2.243622	0.230056
C76	C	-0.668218	1.510107	-0.503387
C77	C	-0.334885	1.843440	-0.170054
C78	C	-0.001552	2.176773	0.163279
C79	C	-0.635347	1.443222	-0.570165
C80	C	-0.302014	1.776556	-0.236831
C81	C	0.031320	2.109889	0.096502
C82	C	-0.569606	1.443183	-0.570147
C83	C	-0.236272	1.776516	-0.236813
C84	C	0.097061	2.109850	0.096520
N85	N	-0.771484	1.418690	-0.511347
N86	N	-0.438150	1.752023	-0.178014
N87	N	-0.104817	2.085357	0.155319
N88	N	-0.833935	1.418731	-0.511358
N89	N	-0.500602	1.752064	-0.178025
N90	N	-0.167268	2.085397	0.155308
C91	C	-0.866293	1.510224	-0.503447
C92	C	-0.532960	1.843557	-0.170114
C93	C	-0.199626	2.176890	0.163219
N94	N	-0.833840	1.601676	-0.495504
N95	N	-0.500507	1.935010	-0.162171
N96	N	-0.167174	2.268343	0.171162
N97	N	-0.771383	1.601635	-0.495488
N98	N	-0.438050	1.934968	-0.162155
N99	N	-0.104717	2.268301	0.171179
C100	C	-0.739504	1.510143	-0.503415
C101	C	-0.406170	1.843476	-0.170082
C102	C	-0.072837	2.176809	0.163252
C103	C	-0.970442	1.577162	-0.436705
C104	C	-0.637109	1.910495	-0.103372
C105	C	-0.303776	2.243829	0.229961
C106	C	-1.036186	1.577213	-0.436736
C107	C	-0.702853	1.910546	-0.103403
C108	C	-0.369519	2.243879	0.229931
C109	C	-1.036189	1.443470	-0.570284
C110	C	-0.702856	1.776803	-0.236951
C111	C	-0.369523	2.110137	0.096382
C112	C	-0.970447	1.443429	-0.570259
C113	C	-0.637114	1.776762	-0.236926
C114	C	-0.303780	2.110095	0.096408
C115	C	-0.937577	1.510273	-0.503464
C116	C	-0.604244	1.843606	-0.170130
C117	C	-0.270911	2.176940	0.163203
C118	C	-0.139026	1.510293	-0.503480
C119	C	0.194307	1.843627	-0.170147
C120	C	0.527641	2.176960	0.163187
C121	C	-0.069058	1.510364	-0.503515
C122	C	0.264276	1.843697	-0.170181
C123	C	0.597609	2.177031	0.163152
C124	C	-0.303156	1.510198	-0.775969
C125	C	0.030178	1.843532	-0.442636
C126	C	0.363511	2.176865	-0.109303
C127	C	-0.303130	1.510229	-0.892123
C128	C	0.030203	1.843562	-0.558789
C129	C	0.363537	2.176895	-0.225456
C130	C	-0.303229	1.782697	-0.503420
C131	C	0.030104	2.116031	-0.170086
C132	C	0.363438	2.449364	0.163247
C133	C	-0.303234	1.898851	-0.503428
C134	C	0.030099	2.232184	-0.170095
C135	C	0.363432	2.565517	0.163238
C136	C	-0.264864	1.573791	-0.943931
C137	C	0.068469	1.907125	-0.610598
C138	C	0.401802	2.240458	-0.277264
C139	C	-0.264837	1.573824	-1.063982
C140	C	0.068497	1.907158	-0.730648
C141	C	0.401830	2.240491	-0.397315
C142	C	-0.303231	1.510117	-0.231889
C143	C	0.030102	1.843450	0.101444
C144	C	0.363436	2.176783	0.434777
C145	C	-0.303079	1.510289	-0.115737
C146	C	0.030254	1.843622	0.217597
C147	C	0.363587	2.176955	0.550930
H148	H	-0.374330	0.906106	-0.621090
H149	H	-0.040997	1.239439	-0.287757
H150	H	0.292337	1.572772	0.045576
H151	H	-0.374306	1.115232	-0.621065
H152	H	-0.040973	1.448565	-0.287732
H153	H	0.292360	1.781898	0.045601
H154	H	-0.542839	1.631338	-0.382202
H155	H	-0.209506	1.964671	-0.048868
H156	H	0.123828	2.298005	0.284465
H157	H	-0.662119	1.388795	-0.624536
H158	H	-0.328786	1.722129	-0.291203
H159	H	0.004548	2.055462	0.042130
H160	H	-0.270439	0.943373	-0.449143
H161	H	0.062895	1.276706	-0.115809
H162	H	0.396228	1.610039	0.217524
H163	H	-0.270424	1.077918	-0.449134
H164	H	0.062909	1.411251	-0.115801
H165	H	0.396243	1.744584	0.217533
H166	H	-0.232078	1.628246	-1.108535
H167	H	0.101255	1.961579	-0.775202
H168	H	0.434589	2.294913	-0.441869
H169	H	-0.662105	1.631421	-0.382244
H170	H	-0.328772	1.964754	-0.048911
H171	H	0.004562	2.298087	0.284423
H172	H	-1.062942	1.631680	-0.382371
H173	H	-0.729609	1.965014	-0.049037
H174	H	-0.396276	2.298347	0.284296
H175	H	-0.943679	1.631594	-0.382320
H176	H	-0.610345	1.964928	-0.048986
H177	H	-0.277012	2.298261	0.284347
H178	H	-0.335844	1.455871	-1.071189
H179	H	-0.002511	1.789205	-0.737856
H180	H	0.330822	2.122538	-0.404523
H181	H	-0.335866	1.455828	-0.936644
H182	H	-0.002533	1.789161	-0.603311
H183	H	0.330800	2.122495	-0.269978
H184	H	-0.542847	1.388721	-0.624515
H185	H	-0.209514	1.722054	-0.291182
H186	H	0.123819	2.055387	0.042152
H187	H	-1.062957	1.389045	-0.624660
H188	H	-0.729623	1.722378	-0.291326
H189	H	-0.396290	2.055711	0.042007
H190	H	-0.943688	1.388965	-0.624620
H191	H	-0.610354	1.722298	-0.291287
H192	H	-0.277021	2.055631	0.042047
H193	H	-0.232122	1.628182	-0.899409
H194	H	0.101212	1.961515	-0.566076
H195	H	0.434545	2.294848	-0.232743
