data_functionalizedCrystal
_audit_creation_method	'MofGen! by Chris Wilmer'
_symmetry_space_group_name_H-M	'P1'
_symmetry_Int_Tables_number	1
_symmetry_cell_setting	triclinic
loop_
_symmetry_equiv_pos_as_xyz
  x,y,z
_cell_length_a	14.044220
_cell_length_b	14.044220
_cell_length_c	14.185569
_cell_angle_alpha	75.620253
_cell_angle_beta	104.382557
_cell_angle_gamma	93.188878
loop_
_atom_site_label
_atom_site_type_symbol
_atom_site_fract_x
_atom_site_fract_y
_atom_site_fract_z
O1	O	1.257366	0.249958	-0.083318
O2	O	0.980688	0.241658	-0.083343
O3	O	1.114876	0.107470	-0.083321
O4	O	1.123177	0.384146	-0.083340
O5	O	1.154517	0.067835	0.083520
O6	O	1.020329	0.202023	0.083498
O7	O	1.297006	0.210322	0.083523
Cu8	Cu	1.162287	0.202554	0.098745
Cu9	Cu	1.115407	0.249427	-0.098564
O10	O	1.162818	0.344511	0.083501
C11	C	0.964886	0.218206	0.000074
C12	C	0.858741	0.207363	0.000065
C13	C	0.664408	0.187532	0.000086
C14	C	0.613278	0.264447	0.000085
C15	C	0.505145	0.253412	0.000097
C16	C	0.772551	0.198565	0.000074
C17	C	1.131061	0.052031	0.000100
C18	C	1.120216	-0.054112	0.000100
C19	C	1.100386	-0.248446	0.000084
C20	C	1.177302	-0.299577	0.000088
C21	C	1.166268	-0.407711	0.000079
C22	C	1.111419	-0.140302	0.000093
C23	C	1.312808	0.233776	0.000104
C24	C	1.418951	0.244620	0.000106
C25	C	1.146633	0.399951	0.000078
C26	C	1.157476	0.506095	0.000071
N27	N	1.195267	0.169585	0.237521
N28	N	1.082435	0.282389	-0.237341
C29	C	0.985537	0.379209	0.605136
C30	C	1.010526	0.354243	0.710162
C31	C	1.129380	0.235469	0.710143
C32	C	1.104397	0.260422	0.605115
C33	C	1.032476	0.332293	0.552620
C34	C	1.151337	0.213507	0.552598
C35	C	1.126360	0.238462	0.447580
C36	C	1.054444	0.310332	0.395078
C37	C	1.007499	0.357248	0.447601
C38	C	1.223263	0.141641	0.605095
C39	C	1.270202	0.094726	0.552579
C40	C	1.245220	0.119675	0.447558
C41	C	1.173304	0.191546	0.395056
C42	C	1.292165	0.072759	0.395035
C43	C	1.267188	0.097714	0.290016
C44	C	1.148327	0.216500	0.290037
H45	H	0.650715	0.338583	0.000075
C46	C	0.906378	0.458229	0.547386
N47	N	0.846745	0.517733	0.503888
H48	H	1.251421	-0.262123	0.000027
H49	H	1.089755	0.275018	0.247294
H50	H	1.026257	-0.285881	0.000075
C51	C	0.613833	0.087386	0.000091
N52	N	0.575727	0.011958	0.000089
H53	H	1.034112	0.330653	0.309565
C54	C	0.928340	0.436269	0.389851
N55	N	0.868708	0.495772	0.346353
C56	C	0.958880	0.405857	0.767927
N57	N	0.919981	0.444733	0.811434
H58	H	1.187941	0.176954	0.752896
C59	C	1.250735	0.114191	0.720620
N60	N	1.271426	0.093516	0.807633
C61	C	1.349311	0.015666	0.610335
N62	N	1.408893	-0.043887	0.653836
C63	C	1.371280	-0.006293	0.452793
N64	N	1.430870	-0.065838	0.496297
H65	H	1.305412	0.059511	0.247257
