data_functionalizedCrystal
_audit_creation_method	'MofGen! by Chris Wilmer'
_symmetry_space_group_name_H-M	'P1'
_symmetry_Int_Tables_number	1
_symmetry_cell_setting	triclinic
loop_
_symmetry_equiv_pos_as_xyz
  x,y,z
_cell_length_a	12.827893
_cell_length_b	29.839131
_cell_length_c	12.827885
_cell_angle_alpha	90.044475
_cell_angle_beta	90.019272
_cell_angle_gamma	90.035389
loop_
_atom_site_label
_atom_site_type_symbol
_atom_site_fract_x
_atom_site_fract_y
_atom_site_fract_z
Zn1	Zn	1.597526	-0.178830	0.590742
Zn2	Zn	1.597359	-0.253967	0.415957
Zn3	Zn	1.422767	-0.178852	0.416016
Zn4	Zn	1.422692	-0.253934	0.590657
O5	O	1.510086	-0.216395	0.503343
O6	O	1.743739	-0.188801	0.567567
O7	O	1.574161	-0.244026	0.269729
O8	O	1.446050	-0.115982	0.439253
O9	O	1.743617	-0.244004	0.439154
O10	O	1.574445	-0.115965	0.567624
O11	O	1.445889	-0.188839	0.269772
O12	O	1.276521	-0.188807	0.439171
O13	O	1.445922	-0.243948	0.736905
O14	O	1.276466	-0.243969	0.567480
O15	O	1.574372	-0.188769	0.736967
O16	O	1.574088	-0.316830	0.439072
O17	O	1.445761	-0.316805	0.567423
C18	C	1.238576	-0.216387	0.503323
C19	C	1.122423	-0.216394	0.503339
C20	C	1.070698	-0.189127	0.566982
C21	C	0.950648	-0.189134	0.567000
C22	C	1.509926	-0.333118	0.503255
C23	C	1.509954	-0.383052	0.503252
C24	C	1.576926	-0.692652	0.570281
C25	C	1.577040	-0.880325	0.570344
O26	O	1.633826	-0.904553	0.627269
N27	N	1.510263	-0.903837	0.503459
C28	C	1.443449	-0.880428	0.436559
O29	O	1.386647	-0.904733	0.379678
C30	C	1.443331	-0.692756	0.436502
C31	C	1.510119	-0.669247	0.503384
C32	C	1.643708	-0.669143	0.637158
C33	C	1.643683	-0.622227	0.637138
C34	C	1.576876	-0.598822	0.570240
C35	C	1.510094	-0.622331	0.503363
C36	C	1.376512	-0.669348	0.369608
C37	C	1.376487	-0.622427	0.369601
C38	C	1.443275	-0.598917	0.436483
C39	C	1.443262	-0.552010	0.436445
N40	N	1.510039	-0.528498	0.503330
C41	C	1.576846	-0.551904	0.570228
C42	C	1.443517	-0.978959	0.436592
C43	C	1.443548	-1.025877	0.436604
C44	C	1.577137	-1.025771	0.570391
C45	C	1.577111	-0.978852	0.570372
C46	C	1.510293	-0.955447	0.503477
C47	C	1.576789	-0.453378	0.570179
C48	C	1.576761	-0.406458	0.570150
C49	C	1.443168	-0.406569	0.436367
C50	C	1.443199	-0.453484	0.436392
C51	C	1.510013	-0.476888	0.503307
O52	O	1.386498	-0.527753	0.379559
O53	O	1.633623	-0.527591	0.627116
C54	C	1.576951	-0.739568	0.570301
C55	C	1.510169	-0.763078	0.503424
C56	C	1.443362	-0.739672	0.436527
C57	C	1.510200	-0.809995	0.503437
C58	C	1.577007	-0.833401	0.570334
C59	C	1.643783	-0.809889	0.637219
C60	C	1.643758	-0.762974	0.637199
C61	C	1.376586	-0.763184	0.369642
C62	C	1.376617	-0.810099	0.369667
C63	C	1.443424	-0.833505	0.436565
C64	C	1.782656	-0.216404	0.503364
C65	C	1.898809	-0.216408	0.503372
C66	C	1.510157	-0.216352	0.775913
C67	C	1.510187	-0.216334	0.892067
C68	C	1.510274	-0.099217	0.503454
C69	C	1.510355	-0.049283	0.503502
C70	C	1.510075	-0.216406	0.231833
C71	C	1.510247	-0.216298	0.115681
C72	C	1.573755	-0.189024	0.943882
C73	C	1.573788	-0.189005	1.063933
H74	H	0.943284	-0.239756	0.448889
H75	H	1.388777	-0.387504	0.381897
C76	C	1.370018	-0.953219	0.362990
C77	C	1.378630	-0.959720	0.244205
C78	C	1.305135	-0.933983	0.170598
C79	C	1.223029	-0.901744	0.215776
C80	C	1.214414	-0.895242	0.334568
C81	C	1.287909	-0.920979	0.408175
H82	H	1.439413	-0.983586	0.210755
H83	H	1.311513	-0.938796	0.082660
H84	H	1.168624	-0.882692	0.161288
H85	H	1.153631	-0.871375	0.368018
H86	H	1.281531	-0.916165	0.496113
H87	H	1.077829	-0.239743	0.448865
H88	H	1.628150	-0.165657	0.899366
C89	C	1.436718	-0.247887	1.055499
C90	C	1.445153	-0.298962	1.070358
C91	C	1.371623	-0.330551	1.010167
C92	C	1.289658	-0.311065	0.935118
C93	C	1.281220	-0.259987	0.920256
C94	C	1.354749	-0.228398	0.980447
H95	H	1.505831	-0.313390	1.125917
H96	H	1.377871	-0.368363	1.021170
H97	H	1.235227	-0.334449	0.890562
H98	H	1.220541	-0.245560	0.864697
H99	H	1.348502	-0.190587	0.969444
H100	H	1.631151	-0.387318	0.624613
C101	C	0.890565	-0.157594	0.640612
C102	C	0.905524	-0.106511	0.632329
C103	C	0.845439	-0.074971	0.705944
C104	C	0.770396	-0.094512	0.787843
C105	C	0.755433	-0.145598	0.796130
C106	C	0.815518	-0.177138	0.722514
H107	H	0.961079	-0.092043	0.571700
H108	H	0.856516	-0.037154	0.699810
H109	H	0.725917	-0.071164	0.842337
H110	H	0.699878	-0.160066	0.856759
H111	H	0.804442	-0.214955	0.728649
C112	C	1.303103	-0.737440	0.296042
C113	C	1.221006	-0.705196	0.341215
C114	C	1.147525	-0.679454	0.267603
C115	C	1.156142	-0.685957	0.148818
C116	C	1.238242	-0.718203	0.103639
C117	C	1.311723	-0.743944	0.177251
H118	H	1.214625	-0.700381	0.429152
H119	H	1.086749	-0.655583	0.301048
H120	H	1.101747	-0.666901	0.094325
H121	H	1.244623	-0.723017	0.015701
H122	H	1.372499	-0.767815	0.143806
C123	C	1.302987	-0.596682	0.296010
C124	C	1.311581	-0.603179	0.177222
C125	C	1.238085	-0.577435	0.103630
C126	C	1.155995	-0.545193	0.148826
C127	C	1.147399	-0.538694	0.267620
C128	C	1.220895	-0.564438	0.341212
H129	H	1.372351	-0.627048	0.143760
H130	H	1.244449	-0.582246	0.015690
H131	H	1.101589	-0.526135	0.094349
H132	H	1.086628	-0.514825	0.301083
H133	H	1.214530	-0.559627	0.429152
H134	H	1.115292	-0.165775	0.621450
H135	H	1.455782	-0.239697	0.936582
C136	C	1.650289	-0.479118	0.643778
C137	C	1.769085	-0.472621	0.635341
C138	C	1.842590	-0.498360	0.708933
C139	C	1.797298	-0.530597	0.790963
C140	C	1.678495	-0.537095	0.799403
C141	C	1.604990	-0.511356	0.725811
H142	H	1.802619	-0.448756	0.574615
H143	H	1.930536	-0.493550	0.702685
H144	H	1.851711	-0.549651	0.845440
H145	H	1.644962	-0.560960	0.860130
H146	H	1.517044	-0.516166	0.732060
H147	H	1.698110	-0.688195	0.691640
C148	C	1.650572	-0.952994	0.643949
C149	C	1.769378	-0.959405	0.635528
C150	C	1.842841	-0.933549	0.709110
C151	C	1.797497	-0.901282	0.791111
C152	C	1.678684	-0.894869	0.799535
C153	C	1.605222	-0.920725	0.725954
H154	H	1.802950	-0.983292	0.574823
H155	H	1.930794	-0.938296	0.702874
H156	H	1.851878	-0.882142	0.845581
H157	H	1.645113	-0.870982	0.860241
H158	H	1.517269	-0.915978	0.732190
H159	H	1.322126	-0.688481	0.315145
C160	C	1.370086	-1.051734	0.363026
C161	C	1.378669	-1.045321	0.244234
C162	C	1.305199	-1.071176	0.170658
C163	C	1.223146	-1.103443	0.215874
C164	C	1.214559	-1.109857	0.334672
C165	C	1.288029	-1.084002	0.408248
H166	H	1.439413	-1.021434	0.210757
H167	H	1.311556	-1.066428	0.082716
H168	H	1.168759	-1.122582	0.161409
H169	H	1.153815	-1.133744	0.368150
H170	H	1.281672	-1.088750	0.496191
C171	C	1.717220	-0.737118	0.710779
C172	C	1.836025	-0.743534	0.702366
C173	C	1.909489	-0.717682	0.775953
C174	C	1.864147	-0.685414	0.857954
C175	C	1.745335	-0.678997	0.866371
C176	C	1.671872	-0.704849	0.792783
H177	H	1.869596	-0.767422	0.641661
H178	H	1.997441	-0.722433	0.769723
H179	H	1.918529	-0.666277	0.912428
H180	H	1.711765	-0.655109	0.927076
H181	H	1.583919	-0.700098	0.799014
C182	C	1.647315	-0.157417	1.124121
C183	C	1.729280	-0.176903	1.199170
C184	C	1.802810	-0.145314	1.259360
C185	C	1.794374	-0.094239	1.244501
C186	C	1.712405	-0.074750	1.169448
C187	C	1.638876	-0.106339	1.109258
H188	H	1.735528	-0.214714	1.210172
H189	H	1.863488	-0.159741	1.314919
H190	H	1.848805	-0.070855	1.289057
H191	H	1.706158	-0.036938	1.158446
H192	H	1.578197	-0.091912	1.053699
H193	H	1.698065	-0.603089	0.691601
H194	H	1.388823	-0.472626	0.381924
H195	H	1.698183	-0.828954	0.691686
H196	H	1.631535	-1.044836	0.624860
H197	H	1.322232	-0.829237	0.315194
