data_functionalizedCrystal
_audit_creation_method	'MofGen! by Chris Wilmer'
_symmetry_space_group_name_H-M	'P1'
_symmetry_Int_Tables_number	1
_symmetry_cell_setting	triclinic
loop_
_symmetry_equiv_pos_as_xyz
  x,y,z
_cell_length_a	15.944551
_cell_length_b	19.288865
_cell_length_c	17.766277
_cell_angle_alpha	89.988397
_cell_angle_beta	89.995130
_cell_angle_gamma	83.317493
loop_
_atom_site_label
_atom_site_type_symbol
_atom_site_fract_x
_atom_site_fract_y
_atom_site_fract_z
O1	O	1.114185	0.089583	-0.062525
O2	O	0.869593	0.100628	-0.062544
O3	O	0.998956	-0.006006	-0.062519
O4	O	0.984821	0.196217	-0.062550
O5	O	0.998934	-0.006012	0.062669
O6	O	0.869570	0.100622	0.062644
O7	O	1.114162	0.089578	0.062664
Cu8	Cu	0.991864	0.095100	0.074085
Cu9	Cu	0.991891	0.095106	-0.073965
O10	O	0.984799	0.196212	0.062639
C11	C	0.998490	-0.031887	0.000077
C12	C	0.997125	-0.108994	0.000084
C13	C	0.838289	0.100167	0.000048
C14	C	0.745048	0.098792	0.000041
C15	C	1.073030	-0.153490	0.000094
C16	C	1.071747	-0.225941	0.000082
C17	C	0.994555	-0.253891	0.000075
C18	C	0.918641	-0.209385	0.000061
C19	C	0.919925	-0.136936	0.000065
C20	C	0.933866	-0.362341	0.043921
C21	C	0.932584	-0.434788	0.043921
C22	C	0.990589	-0.477347	0.000058
C23	C	1.049890	-0.447451	-0.043796
C24	C	1.051175	-0.375002	-0.043791
C25	C	0.993153	-0.332449	0.000070
C26	C	1.065108	-0.600404	0.000054
C27	C	1.063822	-0.672855	0.000037
C28	C	0.910714	-0.656298	0.000024
C29	C	0.912002	-0.583848	0.000033
C30	C	0.989201	-0.555906	0.000051
C31	C	0.530459	0.029410	0.000066
C32	C	0.469326	0.061631	-0.061664
C33	C	0.574332	0.096305	0.000050
C34	C	0.469326	0.061642	0.061762
C35	C	0.409429	0.093898	0.000062
C36	C	0.514427	0.128545	-0.061731
C37	C	0.514433	0.128546	0.061751
C38	C	0.453318	0.160816	0.000006
C39	C	0.669329	0.097690	0.000042
C40	C	0.314433	0.092519	0.000064
C41	C	1.145466	0.090039	0.000070
C42	C	1.238706	0.091414	0.000072
C43	C	0.985265	0.222092	0.000040
C44	C	0.986630	0.299199	0.000029
N45	N	0.991851	0.095095	0.178215
N46	N	0.991910	0.095105	-0.178096
C47	C	1.049152	0.047900	0.217613
C48	C	1.049157	0.047897	0.296415
C49	C	0.991869	0.095100	0.335816
C50	C	0.934558	0.142298	0.296408
C51	C	0.934549	0.142295	0.217608
C52	C	0.980624	0.158358	0.460643
C53	C	0.980639	0.158362	0.539442
C54	C	0.991891	0.095109	0.578862
C55	C	1.003147	0.031849	0.539473
C56	C	1.003138	0.031846	0.460673
C57	C	0.991872	0.095108	0.421261
C58	C	1.049201	0.047907	0.703706
C59	C	1.049200	0.047903	0.782509
C60	C	0.934604	0.142310	0.782501
C61	C	0.934601	0.142308	0.703699
C62	C	0.991904	0.095107	0.664306
H63	H	1.133560	-0.262177	0.000087
H64	H	0.887956	0.180741	0.814580
H65	H	0.419945	0.216391	-0.000037
H66	H	0.887945	0.180741	0.671619
C67	C	0.867358	-0.467671	0.092161
C68	C	0.865946	-0.547362	0.092165
C69	C	0.800720	-0.580243	0.140407
C70	C	0.736905	-0.533433	0.188645
C71	C	0.738315	-0.453737	0.188644
C72	C	0.803541	-0.420856	0.140402
H73	H	0.913188	-0.582018	0.056454
H74	H	0.799677	-0.639239	0.140408
H75	H	0.688621	-0.557773	0.224357
H76	H	0.691073	-0.419081	0.224355
H77	H	0.804584	-0.361860	0.140401
C78	C	1.116395	-0.342115	-0.092034
C79	C	1.117805	-0.262424	-0.092027
C80	C	1.183022	-0.229535	-0.140273
C81	C	1.246830	-0.276339	-0.188524
C82	C	1.245423	-0.356035	-0.188533
C83	C	1.180206	-0.388923	-0.140287
H84	H	1.070568	-0.227773	-0.056307
H85	H	1.184064	-0.170539	-0.140266
H86	H	1.295109	-0.251993	-0.224238
H87	H	1.292660	-0.390685	-0.224253
H88	H	1.179164	-0.447919	-0.140294
C89	C	0.541486	0.166732	0.132243
C90	C	0.524011	0.138645	0.211154
C91	C	0.551069	0.176824	0.281653
C92	C	0.595602	0.243088	0.273240
C93	C	0.613080	0.271178	0.194325
C94	C	0.586022	0.233000	0.123827
H95	H	0.491042	0.089589	0.217384
H96	H	0.538131	0.156029	0.340070
H97	H	0.615633	0.271350	0.325427
H98	H	0.646049	0.320235	0.188095
H99	H	0.598960	0.253795	0.065409
H100	H	1.095809	0.009465	0.185542
H101	H	0.971479	0.209872	0.571507
C102	C	0.836425	-0.087986	0.000061
C103	C	0.773104	-0.091100	-0.064952
C104	C	0.689603	-0.042148	-0.064953
C105	C	0.669422	0.009918	0.000058
C106	C	0.732744	0.013034	0.065076
C107	C	0.816245	-0.035918	0.065077
H108	H	0.788042	-0.129644	-0.113081
H109	H	0.642727	-0.044455	-0.113084
H110	H	0.607609	0.046156	0.000057
H111	H	0.717806	0.051579	0.113205
H112	H	0.863121	-0.033611	0.113208
C113	C	0.541287	0.166738	-0.132315
C114	C	0.474369	0.196601	-0.189833
C115	C	0.501231	0.234790	-0.260417
C116	C	0.595012	0.243117	-0.273483
C117	C	0.661936	0.213254	-0.215964
C118	C	0.635074	0.175064	-0.145379
H119	H	0.404942	0.190437	-0.180162
H120	H	0.451689	0.256897	-0.302997
H121	H	0.614897	0.271388	-0.325734
H122	H	0.731363	0.219418	-0.225634
H123	H	0.684616	0.152958	-0.102800
H124	H	0.971446	0.209870	0.428554
H125	H	0.564006	-0.026108	-0.000002
H126	H	1.097124	-0.482102	-0.079514
H127	H	1.125636	-0.709084	0.000041
C128	C	1.112196	-0.004017	0.339764
C129	C	1.175249	-0.055913	0.296431
C130	C	1.238289	-0.107826	0.339776
C131	C	1.238277	-0.107842	0.426454
C132	C	1.175222	-0.055944	0.469791
C133	C	1.112182	-0.004031	0.426446
H134	H	1.175260	-0.055902	0.232263
H135	H	1.284967	-0.146244	0.307695
H136	H	1.284944	-0.146271	0.458540
H137	H	1.175211	-0.055955	0.533959
H138	H	1.065504	0.034387	0.458527
H139	H	0.886629	-0.327694	0.079644
H140	H	1.012301	-0.019662	0.428606
C141	C	0.442326	0.023405	0.132266
C142	C	0.476833	-0.053505	0.145819
C143	C	0.449837	-0.091747	0.216318
C144	C	0.388335	-0.053080	0.273264
C145	C	0.353825	0.023834	0.259712
C146	C	0.380821	0.062076	0.189213
H147	H	0.522363	-0.082133	0.103663
H148	H	0.475384	-0.148685	0.226350
H149	H	0.368352	-0.081389	0.325452
H150	H	0.308294	0.052462	0.301868
H151	H	0.355274	0.119014	0.179181
H152	H	0.449334	0.033339	-0.113843
C153	C	0.828504	-0.534897	0.000031
C154	C	0.829914	-0.455206	0.000035
C155	C	0.746412	-0.406254	0.000031
C156	C	0.661500	-0.436994	0.000022
C157	C	0.660087	-0.516689	0.000019
C158	C	0.743589	-0.565641	0.000023
H159	H	0.892773	-0.432447	0.000042
H160	H	0.747458	-0.347258	0.000034
H161	H	0.599687	-0.400757	0.000019
H162	H	0.597228	-0.539448	0.000012
H163	H	0.742543	-0.624637	0.000020
C164	C	1.015589	-0.037735	0.582823
C165	C	1.015639	-0.037737	0.669501
C166	C	1.028116	-0.107317	0.712854
C167	C	1.040542	-0.176896	0.669531
C168	C	1.040492	-0.176896	0.582849
C169	C	1.028016	-0.107316	0.539495
H170	H	1.006440	0.013771	0.701576
H171	H	1.028152	-0.107316	0.777022
H172	H	1.049778	-0.228403	0.701624
H173	H	1.049692	-0.228405	0.550774
H174	H	1.027980	-0.107317	0.475327
H175	H	0.887912	0.180730	0.328492
H176	H	1.095857	0.009471	0.671631
C177	C	1.112233	-0.004015	0.825853
C178	C	1.175279	-0.055916	0.782521
C179	C	1.238314	-0.107834	0.825866
C180	C	1.238303	-0.107849	0.912543
C181	C	1.175254	-0.055946	0.955880
C182	C	1.112220	-0.004028	0.912535
H183	H	1.175290	-0.055907	0.718353
H184	H	1.284986	-0.146256	0.793785
H185	H	1.284964	-0.146282	0.944630
H186	H	1.175244	-0.055955	1.020048
H187	H	1.065547	0.034394	0.944616
C188	C	0.833729	-0.240129	0.000055
C189	C	0.770736	-0.223351	0.065054
C190	C	0.685821	-0.254093	0.065043
C191	C	0.663900	-0.301613	0.000033
C192	C	0.726894	-0.318394	-0.064971
C193	C	0.811809	-0.287651	-0.064960
H194	H	0.786962	-0.188171	0.113182
H195	H	0.639189	-0.241671	0.113164
H196	H	0.601041	-0.324371	0.000026
H197	H	0.710668	-0.353573	-0.113099
H198	H	0.858441	-0.300073	-0.113080
H199	H	0.887887	0.180727	0.185529
C200	C	1.150023	-0.569658	0.000064
C201	C	1.171950	-0.522146	0.065079
C202	C	1.256863	-0.491403	0.065089
C203	C	1.319850	-0.508171	0.000083
C204	C	1.297925	-0.555685	-0.064937
C205	C	1.213011	-0.586429	-0.064947
H206	H	1.125322	-0.509731	0.113204
H207	H	1.273094	-0.456229	0.113221
H208	H	1.382708	-0.485413	0.000090
H209	H	1.344553	-0.568100	-0.113062
H210	H	1.196781	-0.621603	-0.113079
C211	C	0.825802	-0.687037	0.000016
C212	C	0.762836	-0.670235	-0.064996
C213	C	0.677923	-0.700979	-0.065007
C214	C	0.655975	-0.748525	-0.000006
C215	C	0.718942	-0.765330	0.065011
C216	C	0.803856	-0.734586	0.065022
H217	H	0.779082	-0.635037	-0.113119
H218	H	0.631310	-0.688539	-0.113138
H219	H	0.593117	-0.771284	-0.000014
H220	H	0.702697	-0.800528	0.113134
H221	H	0.850469	-0.747026	0.113153
H222	H	1.135891	-0.130744	0.000106
