data_functionalizedCrystal
_audit_creation_method	'MofGen! by Chris Wilmer'
_symmetry_space_group_name_H-M	'P1'
_symmetry_Int_Tables_number	1
_symmetry_cell_setting	triclinic
loop_
_symmetry_equiv_pos_as_xyz
  x,y,z
_cell_length_a	10.686220
_cell_length_b	12.759394
_cell_length_c	10.686551
_cell_angle_alpha	94.404940
_cell_angle_beta	89.691918
_cell_angle_gamma	94.395425
loop_
_atom_site_label
_atom_site_type_symbol
_atom_site_fract_x
_atom_site_fract_y
_atom_site_fract_z
Zn1	Zn	1.972294	-0.256138	0.562390
Zn2	Zn	1.956069	-0.446297	0.352634
Zn3	Zn	1.746413	-0.283014	0.368708
Zn4	Zn	1.762499	-0.444168	0.578412
O5	O	1.859319	-0.357404	0.465536
O6	O	2.145683	-0.271006	0.521133
O7	O	1.914736	-0.436776	0.179221
O8	O	1.776434	-0.132422	0.394422
O9	O	2.133763	-0.410716	0.367027
O10	O	1.942388	-0.112677	0.536719
O11	O	1.760702	-0.316812	0.191030
O12	O	1.573005	-0.314748	0.409958
O13	O	1.803851	-0.407087	0.751832
O14	O	1.584824	-0.433147	0.564026
O15	O	1.957986	-0.268942	0.740061
O16	O	1.930334	-0.593041	0.382563
O17	O	1.788119	-0.591477	0.548440
C18	C	1.533399	-0.376633	0.490476
C19	C	1.393971	-0.384883	0.501175
C20	C	1.859248	-0.630377	0.465521
C21	C	1.859335	-0.747147	0.465547
C22	C	2.032032	-0.726426	0.613851
C23	C	2.118420	-0.770924	0.688009
C24	C	2.118497	-0.880639	0.688031
C25	C	2.032173	-0.945860	0.613889
C26	C	1.945785	-0.901363	0.539730
C27	C	1.945720	-0.791644	0.539714
C28	C	1.773084	-0.922083	0.391435
C29	C	1.773011	-0.812368	0.391405
C30	C	1.686760	-0.987304	0.317293
C31	C	1.600376	-0.942807	0.243126
C32	C	1.600303	-0.833085	0.243107
C33	C	1.686623	-0.767870	0.317247
C34	C	2.186512	-0.338100	0.440500
C35	C	2.325942	-0.329874	0.429831
C36	C	1.884523	-0.334779	0.792736
C37	C	1.895264	-0.325137	0.932169
C38	C	1.859427	-0.083361	0.465576
C39	C	1.859473	0.033420	0.465593
C40	C	1.834285	-0.379861	0.139604
C41	C	1.823787	-0.389193	0.000153
H42	H	1.374366	-0.276468	0.360565
F43	F	1.330674	-0.454705	0.591706
H44	H	2.031989	-0.637089	0.613829
H45	H	2.188702	-0.717811	0.748378
F46	F	1.733065	-0.470521	0.936805
F47	F	2.210437	-0.927998	0.766961
F48	F	1.686540	-0.651100	0.317248
F49	F	2.032388	-1.062630	0.613766
F50	F	1.686967	-1.104074	0.317174
H51	H	1.530092	-0.995918	0.182772
H52	H	1.529951	-0.796862	0.182723
H53	H	1.964684	-0.262920	0.980642
