data_functionalizedCrystal
_audit_creation_method	'MofGen! by Chris Wilmer'
_symmetry_space_group_name_H-M	'P1'
_symmetry_Int_Tables_number	1
_symmetry_cell_setting	triclinic
loop_
_symmetry_equiv_pos_as_xyz
  x,y,z
_cell_length_a	10.489711
_cell_length_b	8.965430
_cell_length_c	9.065218
_cell_angle_alpha	90.002272
_cell_angle_beta	95.228553
_cell_angle_gamma	90.005384
loop_
_atom_site_label
_atom_site_type_symbol
_atom_site_fract_x
_atom_site_fract_y
_atom_site_fract_z
O1	O	1.694826	0.124087	-0.207947
O2	O	1.323697	0.124077	-0.227533
O3	O	1.516933	0.124079	-0.003060
O4	O	1.501590	0.124085	-0.432421
O5	O	1.516916	-0.124000	-0.003075
O6	O	1.323680	-0.124002	-0.227548
O7	O	1.694810	-0.123992	-0.207962
Cu8	Cu	1.509244	-0.146648	-0.217756
Cu9	Cu	1.509263	0.146734	-0.217739
O10	O	1.501574	-0.123994	-0.432435
C11	C	1.276151	0.000037	-0.226070
C12	C	1.134504	0.000033	-0.221673
C13	C	0.952605	0.000052	-0.356664
C14	C	1.044515	0.122365	-0.289227
C15	C	1.044472	-0.122221	-0.289205
C16	C	0.974048	0.122479	-0.146326
C17	C	0.973995	-0.122217	-0.146324
C18	C	1.065877	0.000125	-0.078783
N19	N	1.509239	-0.352997	-0.217768
C20	C	1.419846	-0.450304	-0.321545
C21	C	1.535452	-0.549715	-0.351386
C22	C	1.393682	-0.549715	-0.187940
C23	C	1.624904	-0.450219	-0.247676
C24	C	1.483058	-0.450210	-0.084172
C25	C	1.598747	-0.549576	-0.113956
C26	C	1.742356	0.000052	-0.209425
C27	C	1.884003	0.000065	-0.213822
C28	C	1.515450	0.000042	0.051912
C29	C	1.511041	0.000049	0.215733
N30	N	1.509277	0.353083	-0.217716
C31	C	1.503057	0.000046	-0.487407
C32	C	1.507466	0.000049	-0.651228
H33	H	0.942747	-0.225631	-0.085941
H34	H	1.075639	-0.225629	-0.349675
H35	H	1.557623	-0.593421	-0.464342
F36	F	1.752690	-0.393341	-0.280794
H37	H	0.903338	0.000175	-0.474069
F38	F	1.085309	0.257533	-0.368213
F39	F	1.697685	-0.606199	0.000787
F40	F	1.454034	-0.393033	0.063426
F41	F	1.321129	-0.393324	-0.436356
H42	H	1.295942	-0.593422	-0.162735
F43	F	1.129979	0.000205	0.074810
F44	F	0.933509	0.257790	-0.067378
