data_functionalizedCrystal
_audit_creation_method	'MofGen! by Chris Wilmer'
_symmetry_space_group_name_H-M	'P1'
_symmetry_Int_Tables_number	1
_symmetry_cell_setting	triclinic
loop_
_symmetry_equiv_pos_as_xyz
  x,y,z
_cell_length_a	14.971486
_cell_length_b	8.559649
_cell_length_c	13.448316
_cell_angle_alpha	89.994831
_cell_angle_beta	89.998199
_cell_angle_gamma	76.696397
loop_
_atom_site_label
_atom_site_type_symbol
_atom_site_fract_x
_atom_site_fract_y
_atom_site_fract_z
O1	O	1.172521	0.208203	-0.082574
O2	O	0.910393	0.233136	-0.082601
O3	O	1.064550	-0.011888	-0.082584
O4	O	1.018363	0.453227	-0.082591
O5	O	1.064534	-0.011904	0.082800
O6	O	0.910377	0.233121	0.082783
O7	O	1.172504	0.208188	0.082810
Cu8	Cu	1.041439	0.220653	0.097897
Cu9	Cu	1.041458	0.220671	-0.097688
O10	O	1.018347	0.453212	0.082793
C11	C	0.877137	0.232013	0.000088
C12	C	0.778072	0.228672	0.000078
C13	C	0.710872	0.372617	0.000077
C14	C	0.617791	0.369468	0.000092
C15	C	0.591911	0.222372	0.000100
C16	C	0.659119	0.078416	0.000104
C17	C	0.752198	0.081566	0.000096
C18	C	0.465111	0.071859	0.000118
C19	C	0.372025	0.068707	0.000124
C20	C	0.330704	0.359760	0.000113
C21	C	0.423783	0.362910	0.000106
C22	C	0.490984	0.218954	0.000107
C23	C	1.068043	-0.071419	0.000106
C24	C	1.078461	-0.248779	0.000102
C25	C	1.205760	0.209310	0.000119
C26	C	1.304826	0.212652	0.000123
C27	C	1.014855	0.512743	0.000101
C28	C	1.004436	0.690103	0.000098
N29	N	1.041432	0.220639	0.235462
N30	N	1.041473	0.220672	-0.235252
C31	C	1.109709	0.112187	0.287509
C32	C	1.109715	0.112186	0.391613
C33	C	1.041447	0.220646	0.443666
C34	C	0.973163	0.329103	0.391611
C35	C	0.973154	0.329095	0.287510
C36	C	0.973187	0.329114	0.608591
C37	C	0.973196	0.329124	0.712700
C38	C	1.109747	0.112204	0.712694
C39	C	1.109739	0.112197	0.608593
C40	C	1.041456	0.220656	0.556545
H41	H	0.563079	0.486682	0.000090
H42	H	1.165304	0.023874	0.245134
H43	H	0.933089	-0.226536	0.000094
H44	H	0.350958	-0.051071	0.000132
C45	C	1.184859	-0.007102	0.769937
H46	H	1.225523	-0.071682	0.724026
H47	H	1.157273	-0.073711	0.810558
H48	H	1.218135	0.050501	0.810535
C49	C	1.174852	-0.361391	0.000111
H50	H	1.169449	-0.469824	0.000108
H51	H	1.207285	-0.341920	0.057782
H52	H	1.207285	-0.341917	-0.057571
H53	H	0.806913	-0.035649	0.000096
C54	C	0.739337	0.534420	0.000065
H55	H	0.804396	0.515686	0.000050
H56	H	0.715595	0.593695	0.057737
H57	H	0.715588	0.593696	-0.057617
H58	H	1.165310	0.023875	0.433989
C59	C	0.898054	0.448324	0.769957
H60	H	0.857364	0.512874	0.724052
H61	H	0.925595	0.514972	0.810588
H62	H	0.864817	0.390627	0.810546
C63	C	0.898081	0.448424	0.551340
H64	H	0.857430	0.513033	0.597249
H65	H	0.864801	0.390848	0.510738
H66	H	0.925685	0.515025	0.510724
C67	C	0.630658	-0.083391	0.000112
H68	H	0.684013	-0.168668	0.000120
H69	H	0.595205	-0.090666	-0.057559
H70	H	0.595209	-0.090674	0.057795
C71	C	1.184831	-0.007107	0.551335
H72	H	1.225494	-0.071711	0.597241
H73	H	1.218099	0.050473	0.510712
H74	H	1.157221	-0.073713	0.510739
H75	H	0.444850	0.482689	0.000089
H76	H	0.917574	0.417407	0.433999
C77	C	0.256791	0.518114	0.000117
H78	H	0.285535	0.606169	0.000098
H79	H	0.219624	0.522939	0.057794
H80	H	0.219619	0.522933	-0.057560
H81	H	0.917556	0.417406	0.245133
H82	H	0.519825	-0.045367	0.000121
