data_functionalizedCrystal
_audit_creation_method	'MofGen! by Chris Wilmer'
_symmetry_space_group_name_H-M	'P1'
_symmetry_Int_Tables_number	1
_symmetry_cell_setting	triclinic
loop_
_symmetry_equiv_pos_as_xyz
  x,y,z
_cell_length_a	14.446369
_cell_length_b	20.875641
_cell_length_c	20.875641
_cell_angle_alpha	60.089808
_cell_angle_beta	90.002056
_cell_angle_gamma	62.438463
loop_
_atom_site_label
_atom_site_type_symbol
_atom_site_fract_x
_atom_site_fract_y
_atom_site_fract_z
Zr1	Zr	0.934142	0.694313	-0.105746
O2	O	0.798485	0.820558	-0.209014
O3	O	0.970653	0.563057	-0.070814
O4	O	0.984286	0.687080	-0.204286
O5	O	0.779872	0.703989	0.026017
O6	O	1.136622	0.687074	-0.204282
O7	O	0.784852	0.696536	-0.075542
O8	O	1.112236	0.465220	0.034475
O9	O	0.804259	0.925843	-0.212740
O10	O	1.106044	0.618896	-0.059870
O11	O	0.988640	0.624463	0.015919
O12	O	1.004691	0.770484	-0.141226
O13	O	0.887287	0.776051	-0.065437
Zr14	Zr	1.169159	0.706192	0.056235
Zr15	Zr	1.177102	0.694305	-0.105740
Zr16	Zr	0.926200	0.706201	0.056229
Zr17	Zr	0.943351	0.862231	-0.111689
Zr18	Zr	1.159951	0.538275	0.062177
O19	O	1.132649	0.837449	0.021302
O20	O	1.143942	0.820546	-0.209005
O21	O	0.787192	0.837461	0.021293
O22	O	1.304817	0.579947	0.159503
O23	O	1.316110	0.563044	-0.070805
O24	O	0.959360	0.579959	0.159494
O25	O	1.323429	0.696516	-0.075528
O26	O	1.119016	0.713426	0.154774
O27	O	0.966680	0.713431	0.154770
O28	O	1.318450	0.703970	0.026031
O29	O	0.997379	0.925836	-0.212735
O30	O	1.105923	0.474669	0.163223
O31	O	1.299043	0.474662	0.163228
O32	O	1.305356	0.465213	0.034480
O33	O	0.797946	0.935292	-0.083991
O34	O	0.991066	0.935285	-0.083986
O35	O	1.098611	0.630021	0.091715
O36	O	1.216015	0.624455	0.015925
O37	O	1.114662	0.776042	-0.065431
O38	O	0.997258	0.781609	0.010358
C39	C	1.040133	0.490214	-0.017323
C40	C	1.036223	0.418928	-0.014800
C41	C	0.747746	0.700264	-0.024764
C42	C	0.644603	0.700267	-0.024766
C43	C	1.095667	0.382533	-0.053176
C44	C	1.091996	0.315548	-0.050799
C45	C	1.028875	0.284965	-0.010049
C46	C	0.969429	0.321364	0.028332
C47	C	0.973107	0.388343	0.025958
C48	C	1.011310	0.084955	0.001296
C49	C	1.007635	0.017973	0.003665
C50	C	1.130204	0.012161	-0.075465
C51	C	1.133871	0.079145	-0.077839
C52	C	1.074430	0.115534	-0.039454
N53	N	1.025119	0.216498	-0.007620
N54	N	1.078193	0.183996	-0.041880
C55	C	0.434001	0.795881	-0.075837
C56	C	0.541250	0.795928	-0.076106
C57	C	0.640290	0.648478	-0.057892
C58	C	0.532572	0.649081	-0.058263
C59	C	0.528052	0.655679	0.059517
C60	C	0.634130	0.657537	0.059321
C61	C	1.355556	0.700242	-0.024748
C62	C	1.458699	0.700238	-0.024745
C63	C	1.061585	0.685383	-0.227362
C64	C	1.064957	0.680336	-0.296124
C65	C	1.063169	0.910292	-0.032189
C66	C	1.067079	0.981577	-0.034711
C67	C	1.013638	0.757091	-0.370896
C68	C	1.016820	0.752344	-0.435503
C69	C	1.071316	0.670842	-0.425337
C70	C	1.122642	0.594082	-0.350557
C71	C	1.119465	0.598830	-0.285952
C72	C	1.086495	0.648157	-0.614002
C73	C	1.089664	0.643415	-0.678615
C74	C	0.983844	0.801677	-0.763557
C75	C	0.980667	0.806418	-0.698947
C76	C	1.031998	0.729658	-0.624173
N77	N	1.074567	0.665987	-0.491374
N78	N	1.028752	0.734513	-0.558137
C79	C	1.041716	0.715122	0.177850
C80	C	1.038345	0.720169	0.246613
C81	C	1.344038	0.490203	-0.017315
C82	C	1.443271	0.418914	-0.014790
C83	C	1.030198	0.505083	0.185283
C84	C	1.022917	0.438845	0.256568
C85	C	1.334103	0.505072	0.185291
C86	C	1.429965	0.438830	0.256579
C87	C	0.769199	0.895433	-0.234802
C88	C	0.673337	0.961675	-0.306090
C89	C	0.759264	0.910303	-0.032197
C90	C	0.660031	0.981592	-0.034722
C91	C	1.073104	0.895422	-0.234795
C92	C	1.080385	0.961661	-0.306080
C93	C	1.432469	0.382534	-0.053175
C94	C	1.525701	0.315558	-0.050818
C95	C	1.629734	0.284960	-0.010070
C96	C	1.640534	0.321347	0.028316
C97	C	1.547303	0.388325	0.025954
C98	C	1.076901	0.410640	0.329616
C99	C	1.070056	0.348412	0.396602
C100	C	1.009232	0.314384	0.390539
C101	C	0.955242	0.342595	0.317483
C102	C	0.962081	0.404827	0.250499
C103	C	1.536276	0.404816	0.250495
C104	C	1.626358	0.342583	0.317471
C105	C	1.610127	0.314361	0.390530
C106	C	1.503805	0.348381	0.396612
C107	C	1.413725	0.410617	0.329637
C108	C	0.567026	0.995697	-0.300007
C109	C	0.476945	1.057951	-0.366984
C110	C	0.493177	1.086177	-0.440043
C111	C	0.599499	1.052152	-0.446125
C112	C	0.689578	0.989905	-0.379149
C113	C	0.670834	1.017978	0.003656
C114	C	0.577604	1.084971	0.001281
C115	C	0.473571	1.115571	-0.039469
C116	C	0.462770	1.079182	-0.077852
C117	C	0.556000	1.012195	-0.075481
C118	C	1.141217	0.995669	-0.299992
C119	C	1.148080	1.057899	-0.366965
C120	C	1.094103	1.086124	-0.440026
C121	C	1.033268	1.052109	-0.446113
C122	C	1.026412	0.989876	-0.379140
H123	H	1.147062	0.407433	-0.086363
H124	H	1.516886	0.285940	-0.082076
H125	H	0.586419	1.114589	0.032540
Cl126	Cl	1.150976	0.551658	-0.520009
Cl127	Cl	0.619886	1.087642	-0.537977
H128	H	1.197616	1.085587	-0.361995
Cl129	Cl	1.158180	0.540947	-0.665829
Cl130	Cl	0.801607	0.979528	0.054886
H131	H	1.099693	1.136799	-0.494554
H132	H	1.549513	0.427785	0.191013
Cl133	Cl	0.331977	1.117657	-0.129074
Cl134	Cl	0.919321	0.898169	-0.857559
Cl135	Cl	0.898377	0.434096	0.074207
H136	H	0.487122	0.679613	-0.120189
H137	H	0.540481	0.836454	-0.054274
H138	H	0.989322	1.075100	-0.505608
Cl139	Cl	0.894214	0.440270	0.158671
Cl140	Cl	0.949918	0.947139	-0.386807
H141	H	1.556114	0.417938	0.057217
Cl142	Cl	1.723383	0.236117	0.474722
Cl143	Cl	1.153375	0.453403	0.337258
Cl144	Cl	0.823223	0.947135	-0.386810
Cl145	Cl	1.137941	0.312957	0.488433
Cl146	Cl	0.546592	0.960226	-0.208169
Cl147	Cl	0.356377	1.199784	-0.042441
H148	H	1.140401	0.285915	-0.082047
Cl149	Cl	0.890093	0.282905	0.079573
H150	H	1.725250	0.296423	0.061492
Cl151	Cl	0.343296	1.100709	-0.359320
Cl152	Cl	1.746929	0.200755	-0.007106
H153	H	0.547188	0.982570	-0.106731
Cl154	Cl	0.352224	0.858594	-0.042040
Cl155	Cl	1.483417	0.312891	0.488465
Cl156	Cl	1.213220	0.117592	-0.129074
H157	H	1.327164	0.438304	0.334601
Cl158	Cl	1.301696	0.420989	-0.104410
Cl159	Cl	1.000647	0.236148	0.474757
H160	H	1.712923	0.314890	0.312505
Cl161	Cl	0.651028	0.694458	-0.152570
Cl162	Cl	1.204929	-0.033593	-0.123713
H163	H	0.905720	0.314880	0.312558
Cl164	Cl	0.379922	1.164432	-0.524235
H165	H	1.185173	0.972698	-0.240508
H166	H	1.167019	0.527721	-0.342284
H167	H	0.634303	0.695345	0.084099
H168	H	0.962914	0.114572	0.032555
Cl169	Cl	0.356970	0.848810	-0.171315
Cl170	Cl	0.928273	-0.020471	0.054894
H171	H	0.553648	0.578726	-0.023273
Cl172	Cl	0.545367	0.849049	-0.172158
Cl173	Cl	0.561556	0.546961	0.118500
Cl174	Cl	0.752456	0.539635	-0.002978
H175	H	0.707436	0.588006	0.100318
Cl176	Cl	0.451297	0.707944	0.102760
H177	H	0.969254	0.823459	-0.379184
H178	H	0.975033	0.814845	-0.496384
Cl179	Cl	1.183997	0.502334	-0.191950
Cl180	Cl	0.912102	0.908882	-0.711735
