data_functionalizedCrystal
_audit_creation_method	'MofGen! by Chris Wilmer'
_symmetry_space_group_name_H-M	'P1'
_symmetry_Int_Tables_number	1
_symmetry_cell_setting	triclinic
loop_
_symmetry_equiv_pos_as_xyz
  x,y,z
_cell_length_a	25.639242
_cell_length_b	25.639239
_cell_length_c	25.639233
_cell_angle_alpha	89.981253
_cell_angle_beta	90.021583
_cell_angle_gamma	89.966413
loop_
_atom_site_label
_atom_site_type_symbol
_atom_site_fract_x
_atom_site_fract_y
_atom_site_fract_z
Zn1	Zn	0.799225	0.208286	0.295734
Zn2	Zn	0.799149	0.295704	0.208298
Zn3	Zn	0.711801	0.208277	0.208299
Zn4	Zn	0.711746	0.295684	0.295689
O5	O	0.755480	0.251988	0.252005
O6	O	0.872380	0.219894	0.284154
O7	O	0.787553	0.284112	0.135133
O8	O	0.723453	0.135113	0.219917
O9	O	0.872324	0.284120	0.219915
O10	O	0.787683	0.135119	0.284155
O11	O	0.723379	0.219879	0.135134
O12	O	0.638629	0.219860	0.219873
O13	O	0.723360	0.284085	0.368860
O14	O	0.638589	0.284077	0.284078
O15	O	0.787630	0.219874	0.368893
O16	O	0.787499	0.368867	0.219872
O17	O	0.723286	0.368852	0.284078
C18	C	0.619638	0.251966	0.251971
C19	C	0.561524	0.251969	0.251969
C20	C	0.310343	0.218494	0.218631
C21	C	0.364947	0.218489	0.218625
O22	O	0.393194	0.189997	0.190250
N23	N	0.392250	0.251975	0.251995
C24	C	0.364946	0.285465	0.285378
O25	O	0.393183	0.313947	0.313762
C26	C	0.310342	0.285467	0.285387
C27	C	0.283042	0.251982	0.252011
C28	C	0.283042	0.185011	0.185258
C29	C	0.228442	0.185017	0.185264
C30	C	0.201141	0.218505	0.218644
C31	C	0.228442	0.251987	0.252017
C32	C	0.283039	0.318953	0.318773
C33	C	0.228432	0.318952	0.318779
C34	C	0.201132	0.285467	0.285403
C35	C	0.146541	0.285481	0.285402
N36	N	0.119238	0.251995	0.252032
C37	C	0.146538	0.218507	0.218652
C38	C	0.479616	0.285458	0.285358
C39	C	0.534219	0.285459	0.285347
C40	C	0.534216	0.218482	0.218594
C41	C	0.479613	0.218484	0.218602
C42	C	0.452313	0.251971	0.251987
C43	C	0.031873	0.218522	0.218667
C44	C	-0.022732	0.218532	0.218675
C45	C	-0.022725	0.285506	0.285430
C46	C	0.031876	0.285498	0.285421
C47	C	0.059173	0.252002	0.252038
O48	O	0.118259	0.313958	0.313764
O49	O	0.118294	0.190025	0.190278
C50	C	0.755392	0.387830	0.251981
C51	C	0.755403	0.445944	0.251988
C52	C	0.755497	0.251979	0.388378
C53	C	0.755504	0.251975	0.446492
C54	C	0.891853	0.252010	0.252040
C55	C	0.949967	0.252020	0.252054
C56	C	0.755583	0.115615	0.252041
C57	C	0.755627	0.057501	0.252056
C58	C	0.789004	0.806303	0.218630
C59	C	0.789024	0.860907	0.218637
O60	O	0.817502	0.889139	0.190249
N61	N	0.755572	0.888227	0.252040
C62	C	0.722102	0.860939	0.285441
O63	O	0.693651	0.889191	0.313854
C64	C	0.722085	0.806336	0.285437
C65	C	0.755535	0.779019	0.252028
C66	C	0.822452	0.778985	0.185225
C67	C	0.822431	0.724385	0.185217
C68	C	0.788962	0.697101	0.218615
C69	C	0.755514	0.724419	0.252021
C70	C	0.688617	0.779050	0.318840
C71	C	0.688603	0.724443	0.318833
C72	C	0.722053	0.697126	0.285425
C73	C	0.722024	0.642535	0.285411
N74	N	0.755475	0.615215	0.252008
C75	C	0.788944	0.642498	0.218610
C76	C	0.722141	0.975610	0.285449
C77	C	0.722155	1.030212	0.285452
C78	C	0.789078	1.030176	0.218648
C79	C	0.789061	0.975573	0.218644
C80	C	0.755593	0.948290	0.252047
C81	C	0.788897	0.527833	0.218597
C82	C	0.788872	0.473228	0.218591
C83	C	0.721951	0.473269	0.285396
C84	C	0.721974	0.527869	0.285400
C85	C	0.755452	0.555150	0.251999
O86	O	0.693562	0.614267	0.313786
O87	O	0.817396	0.614240	0.190208
C88	C	0.755494	0.251959	0.116163
C89	C	0.755588	0.251816	0.058049
C90	C	0.789012	0.218440	0.806878
C91	C	0.789019	0.218426	0.861483
O92	O	0.817466	0.189976	0.889739
N93	N	0.755562	0.251852	0.888775
C94	C	0.722093	0.285291	0.861460
O95	O	0.693636	0.313721	0.889688
C96	C	0.722084	0.285302	0.806857
C97	C	0.755547	0.251878	0.779567
C98	C	0.822472	0.185018	0.779589
C99	C	0.822466	0.185034	0.724988
C100	C	0.789000	0.218471	0.697677
C101	C	0.755541	0.251893	0.724967
C102	C	0.688613	0.318738	0.779543
C103	C	0.688607	0.318747	0.724936
C104	C	0.722069	0.285322	0.697646
C105	C	0.722070	0.285346	0.643055
N106	N	0.755526	0.251920	0.615763
C107	C	0.788992	0.218482	0.643074
C108	C	0.722113	0.285264	0.976131
C109	C	0.722124	0.285255	1.030733
C110	C	0.789049	0.218390	1.030752
C111	C	0.789041	0.218401	0.976149
C112	C	0.755570	0.251838	0.948839
C113	C	0.788977	0.218517	0.528409
C114	C	0.788970	0.218537	0.473803
C115	C	0.722043	0.285401	0.473789
C116	C	0.722052	0.285383	0.528390
C117	C	0.755521	0.251937	0.555698
O118	O	0.693635	0.313780	0.614764
O119	O	0.817439	0.190053	0.614839
H120	H	0.457393	0.312732	0.312543
H121	H	0.206219	0.157750	0.158086
C122	C	0.061896	0.181679	0.181944
C123	C	0.099464	0.140654	0.204662
C124	C	0.129487	0.103815	0.167936
C125	C	0.121941	0.107999	0.108493
C126	C	0.084371	0.149025	0.085773
C127	C	0.054349	0.185865	0.122498
H128	H	0.105051	0.137555	0.248668
H129	H	0.157299	0.073445	0.184756
H130	H	0.144166	0.080729	0.081307
H131	H	0.078784	0.152124	0.041767
H132	H	0.026537	0.216235	0.105678
H133	H	0.661364	0.345956	0.801753
H134	H	0.694857	0.312495	0.953898
H135	H	0.816300	0.953334	0.191440
H136	H	0.816221	0.191318	0.451587
H137	H	0.305258	0.346220	0.345951
C138	C	-0.052762	0.322341	0.322147
C139	C	-0.022739	0.359174	0.358861
C140	C	-0.052777	0.396007	0.395582
C141	C	-0.112839	0.396005	0.395587
C142	C	-0.142865	0.359170	0.358872
C143	C	-0.112827	0.322338	0.322151
H144	H	0.021725	0.359177	0.358858
H145	H	-0.030550	0.423274	0.422761
H146	H	-0.135075	0.423270	0.422770
H147	H	-0.187329	0.359168	0.358875
H148	H	-0.135055	0.295071	0.294972
H149	H	0.661345	0.345970	0.702703
H150	H	0.694912	1.052449	0.312652
H151	H	0.816333	1.052400	0.191456
H152	H	0.816229	0.191281	0.550637
C153	C	0.859271	0.808990	0.148482
C154	C	0.855037	0.801500	0.089041
C155	C	0.891856	0.831500	0.052292
C156	C	0.932908	0.868990	0.074984
C157	C	0.937144	0.876481	0.134428
C158	C	0.900325	0.846481	0.171177
H159	H	0.824645	0.773747	0.072240
H160	H	0.888720	0.825954	0.008287
H161	H	0.960164	0.891197	0.047780
H162	H	0.967536	0.904235	0.151228
H163	H	0.903461	0.852027	0.215181
C164	C	0.859271	0.148260	0.694976
C165	C	0.855043	0.088821	0.702498
C166	C	0.891849	0.052043	0.672491
C167	C	0.932883	0.074703	0.634962
C168	C	0.937113	0.134144	0.627438
C169	C	0.900307	0.170923	0.657445
H170	H	0.824666	0.072044	0.730281
H171	H	0.888718	0.008041	0.678061
H172	H	0.960129	0.047477	0.612749
H173	H	0.967490	0.150921	0.599656
H174	H	0.903438	0.214925	0.651876
C175	C	0.685317	0.945602	0.322190
C176	C	0.625886	0.953172	0.317856
C177	C	0.589062	0.923168	0.354597
C178	C	0.611670	0.885593	0.395672
C179	C	0.671104	0.878022	0.400008
C180	C	0.707927	0.908026	0.363267
H181	H	0.609148	0.980988	0.287448
H182	H	0.545065	0.928773	0.351387
H183	H	0.584411	0.863382	0.422870
H184	H	0.687842	0.850205	0.430415
H185	H	0.751924	0.902421	0.366477
H186	H	0.849670	0.702147	0.158015
C187	C	0.825847	0.181631	0.946133
C188	C	0.866875	0.204296	0.908601
C189	C	0.903682	0.167523	0.878589
C190	C	0.899460	0.108084	0.886108
C191	C	0.858430	0.085415	0.923642
C192	C	0.821623	0.122188	0.953654
H193	H	0.870001	0.248299	0.903033
H194	H	0.934055	0.184305	0.850804
H195	H	0.926707	0.080862	0.863892
H196	H	0.855303	0.041412	0.929210
H197	H	0.791250	0.105407	0.981439
C198	C	0.651784	0.694432	0.355576
C199	C	0.592353	0.702001	0.351247
C200	C	0.555533	0.671992	0.387988
C201	C	0.578145	0.634413	0.429057
C202	C	0.637580	0.626843	0.433387
C203	C	0.674399	0.656853	0.396647
H204	H	0.575611	0.729820	0.320844
H205	H	0.511536	0.677596	0.384782
H206	H	0.550889	0.612199	0.456254
H207	H	0.654321	0.599024	0.463790
H208	H	0.718397	0.651248	0.399852
C209	C	0.198403	0.355791	0.355502
C210	C	0.205881	0.415221	0.351128
C211	C	0.175853	0.452061	0.387849
C212	C	0.138348	0.429470	0.428945
C213	C	0.130868	0.370037	0.433321
C214	C	0.160896	0.333197	0.396599
H215	H	0.233647	0.431947	0.320705
H216	H	0.181390	0.496058	0.384610
H217	H	0.116120	0.456741	0.456128
H218	H	0.103103	0.353311	0.463744
H219	H	0.155359	0.289201	0.399839
H220	H	0.457388	0.191216	0.191426
C221	C	0.313065	0.148174	0.148532
C222	C	0.305585	0.088744	0.152899
C223	C	0.335603	0.051908	0.116165
C224	C	0.373100	0.074503	0.075064
C225	C	0.380581	0.133937	0.070695
C226	C	0.350564	0.170772	0.107429
H227	H	0.277826	0.072015	0.183325
H228	H	0.330064	0.007911	0.119399
H229	H	0.395320	0.047235	0.047871
H230	H	0.408340	0.150665	0.040268
H231	H	0.356102	0.214769	0.104195
H232	H	0.816111	0.450988	0.191384
H233	H	0.661376	0.801282	0.346043
H234	H	0.556454	0.191213	0.191415
H235	H	0.556442	0.312731	0.312520
C236	C	0.825719	0.557837	0.181853
C237	C	0.821483	0.550353	0.122411
C238	C	0.858301	0.580357	0.085664
C239	C	0.899354	0.617845	0.108359
C240	C	0.903591	0.625330	0.167803
C241	C	0.866774	0.595326	0.204550
H242	H	0.791091	0.522601	0.105608
H243	H	0.855164	0.574816	0.041659
H244	H	0.926609	0.640055	0.081156
H245	H	0.933983	0.653082	0.184606
H246	H	0.869911	0.600867	0.248555
C247	C	0.825860	0.181604	1.060801
C248	C	0.825862	0.181591	1.120862
C249	C	0.862670	0.144808	1.150913
C250	C	0.899476	0.108038	1.120901
C251	C	0.899475	0.108049	1.060837
C252	C	0.862667	0.144832	1.030786
H253	H	0.798615	0.208812	1.143081
H254	H	0.862671	0.144800	1.195377
H255	H	0.926724	0.080809	1.143146
H256	H	0.926722	0.080828	1.038617
H257	H	0.862666	0.144840	0.986322
H258	H	0.694738	0.550112	0.312606
C259	C	0.685315	0.322023	1.060748
C260	C	0.648503	0.358799	1.030699
C261	C	0.611689	0.395565	1.060712
C262	C	0.611686	0.395554	1.120773
C263	C	0.648499	0.358776	1.150825
C264	C	0.685314	0.322011	1.120813
H265	H	0.648504	0.358809	0.986235
H266	H	0.584437	0.422790	1.038464
H267	H	0.584434	0.422769	1.142990
H268	H	0.648498	0.358767	1.195290
H269	H	0.712565	0.294786	1.143060
C270	C	0.685261	0.322160	0.558420
C271	C	0.689499	0.381600	0.550912
C272	C	0.652710	0.418377	0.580941
C273	C	0.611684	0.395716	0.618478
C274	C	0.607445	0.336273	0.625987
C275	C	0.644233	0.299496	0.595958
H276	H	0.719870	0.398378	0.523124
H277	H	0.655848	0.462381	0.575382
H278	H	0.584451	0.422941	0.640707
H279	H	0.577073	0.319495	0.653776
H280	H	0.641095	0.255492	0.601517
H281	H	0.054105	0.312768	0.312594
H282	H	0.849723	0.157787	0.801820
C283	C	0.685138	0.443249	0.322133
C284	C	0.644096	0.405754	0.299430
C285	C	0.607287	0.375732	0.336170
C286	C	0.611520	0.383204	0.395614
C287	C	0.652563	0.420700	0.418320
C288	C	0.689373	0.450723	0.381579
H289	H	0.640961	0.400221	0.255424
H290	H	0.576903	0.347975	0.319361
H291	H	0.584271	0.360980	0.422811
H292	H	0.655698	0.426233	0.462326
H293	H	0.719756	0.478480	0.398388
H294	H	-0.044958	0.191264	0.191494
H295	H	0.694798	0.312626	0.451543
