data_functionalizedCrystal
_audit_creation_method	'MofGen! by Chris Wilmer'
_symmetry_space_group_name_H-M	'P1'
_symmetry_Int_Tables_number	1
_symmetry_cell_setting	triclinic
loop_
_symmetry_equiv_pos_as_xyz
  x,y,z
_cell_length_a	18.101398
_cell_length_b	13.897448
_cell_length_c	13.897441
_cell_angle_alpha	89.969401
_cell_angle_beta	90.027215
_cell_angle_gamma	89.987041
loop_
_atom_site_label
_atom_site_type_symbol
_atom_site_fract_x
_atom_site_fract_y
_atom_site_fract_z
Zn1	Zn	1.132211	0.384106	0.545548
Zn2	Zn	1.382211	0.634106	0.795548
Zn3	Zn	1.632211	0.884106	1.045548
Zn4	Zn	1.882211	1.134106	1.295548
Zn5	Zn	1.132130	0.545428	0.384249
Zn6	Zn	1.382130	0.795428	0.634249
Zn7	Zn	1.632130	1.045428	0.884249
Zn8	Zn	1.882130	1.295428	1.134249
Zn9	Zn	1.008364	0.384135	0.384248
Zn10	Zn	1.258364	0.634135	0.634248
Zn11	Zn	1.508364	0.884135	0.884248
Zn12	Zn	1.758364	1.134135	1.134248
Zn13	Zn	1.008350	0.545347	0.545484
Zn14	Zn	1.258350	0.795347	0.795484
Zn15	Zn	1.508350	1.045347	1.045484
Zn16	Zn	1.758350	1.295347	1.295484
O17	O	1.070264	0.464754	0.464882
O18	O	1.320264	0.714754	0.714882
O19	O	1.570264	0.964754	0.964882
O20	O	1.820264	1.214754	1.214882
O21	O	1.235833	0.405527	0.524179
O22	O	1.485833	0.655527	0.774179
O23	O	1.735833	0.905527	1.024179
O24	O	1.985833	1.155527	1.274179
O25	O	1.115684	0.524077	0.249267
O26	O	1.365684	0.774077	0.499267
O27	O	1.615684	1.024077	0.749267
O28	O	1.865684	1.274077	0.999267
O29	O	1.024832	0.249149	0.405671
O30	O	1.274832	0.499149	0.655671
O31	O	1.524832	0.749149	0.905671
O32	O	1.774832	0.999149	1.155671
O33	O	1.235773	0.524049	0.405673
O34	O	1.485773	0.774049	0.655673
O35	O	1.735773	1.024049	0.905673
O36	O	1.985773	1.274049	1.155673
O37	O	1.115823	0.249128	0.524178
O38	O	1.365823	0.499128	0.774178
O39	O	1.615823	0.749128	1.024178
O40	O	1.865823	0.999128	1.274178
O41	O	1.024753	0.405576	0.249267
O42	O	1.274753	0.655576	0.499267
O43	O	1.524753	0.905576	0.749267
O44	O	1.774753	1.155576	0.999267
O45	O	0.904729	0.405499	0.405609
O46	O	1.154729	0.655499	0.655609
O47	O	1.404729	0.905499	0.905609
O48	O	1.654729	1.155499	1.155609
O49	O	1.024808	0.523913	0.680474
O50	O	1.274808	0.773913	0.930474
O51	O	1.524808	1.023913	1.180474
O52	O	1.774808	1.273913	1.430474
O53	O	0.904719	0.523941	0.524068
O54	O	1.154719	0.773941	0.774068
O55	O	1.404719	1.023941	1.024068
O56	O	1.654719	1.273941	1.274068
O57	O	1.115809	0.405449	0.680521
O58	O	1.365809	0.655449	0.930521
O59	O	1.615809	0.905449	1.180521
O60	O	1.865809	1.155449	1.430521
O61	O	1.115670	0.680399	0.405611
O62	O	1.365670	0.930399	0.655611
O63	O	1.615670	1.180399	0.905611
O64	O	1.865670	1.430399	1.155611
O65	O	1.024730	0.680340	0.524069
O66	O	1.274730	0.930340	0.774069
O67	O	1.524730	1.180340	1.024069
O68	O	1.774730	1.430340	1.274069
C69	C	1.070210	0.715368	0.464854
C70	C	1.320210	0.965368	0.714854
C71	C	1.570210	1.215368	0.964854
C72	C	1.820210	1.465368	1.214854
C73	C	1.070254	0.822582	0.464875
C74	C	1.320254	1.072582	0.714875
C75	C	1.570254	1.322582	0.964875
C76	C	1.820254	1.572582	1.214875
C77	C	0.877853	0.464715	0.464832
C78	C	1.127853	0.714715	0.714832
C79	C	1.377853	0.964715	0.964832
C80	C	1.627853	1.214715	1.214832
C81	C	0.795539	0.464721	0.464833
C82	C	1.045539	0.714721	0.714833
C83	C	1.295539	0.964721	0.964833
C84	C	1.545539	1.214721	1.214833
C85	C	1.070316	0.464669	0.716475
C86	C	1.320316	0.714669	0.966475
C87	C	1.570316	0.964669	1.216475
C88	C	1.820316	1.214669	1.466475
C89	C	1.070339	0.464632	0.823689
C90	C	1.320339	0.714632	1.073689
C91	C	1.570339	0.964632	1.323689
C92	C	1.820339	1.214632	1.573689
C93	C	0.496448	0.464781	0.464914
C94	C	0.746448	0.714781	0.714914
C95	C	0.996448	0.964781	0.964914
C96	C	1.246448	1.214781	1.214914
C97	C	0.527755	0.389888	0.390747
C98	C	0.777755	0.639888	0.640747
C99	C	1.027755	0.889888	0.890747
C100	C	1.277755	1.139888	1.140747
C101	C	0.613373	0.390089	0.390430
C102	C	0.863373	0.640089	0.640430
C103	C	1.113373	0.890089	0.890430
C104	C	1.363373	1.140089	1.140430
C105	C	0.644831	0.464751	0.464874
C106	C	0.894831	0.714751	0.714874
C107	C	1.144831	0.964751	0.964874
C108	C	1.394831	1.214751	1.214874
C109	C	0.613730	0.566363	0.437102
C110	C	0.863730	0.816363	0.687102
C111	C	1.113730	1.066363	0.937102
C112	C	1.363730	1.316363	1.187102
C113	C	0.528084	0.565946	0.436586
C114	C	0.778084	0.815946	0.686586
C115	C	1.028084	1.065946	0.936586
C116	C	1.278084	1.315946	1.186586
C117	C	0.528062	0.438946	0.567029
C118	C	0.778062	0.688946	0.817029
C119	C	1.028062	0.938946	1.067029
C120	C	1.278062	1.188946	1.317029
C121	C	0.613712	0.436683	0.566471
C122	C	0.863712	0.686683	0.816471
C123	C	1.113712	0.936683	1.066471
C124	C	1.363712	1.186683	1.316471
C125	C	0.728690	0.464740	0.464853
C126	C	0.978690	0.714740	0.714853
C127	C	1.228690	0.964740	0.964853
C128	C	1.478690	1.214740	1.214853
C129	C	0.412589	0.464799	0.464933
C130	C	0.662589	0.714799	0.714933
C131	C	0.912589	0.964799	0.964933
C132	C	1.162589	1.214799	1.214933
C133	C	1.263426	0.464794	0.464933
C134	C	1.513426	0.714794	0.714933
C135	C	1.763426	0.964794	0.964933
C136	C	2.013426	1.214794	1.214933
C137	C	1.345740	0.464811	0.464955
C138	C	1.595740	0.714811	0.714955
C139	C	1.845740	0.964811	0.964955
C140	C	2.095740	1.214811	1.214955
C141	C	1.070338	0.213161	0.464931
C142	C	1.320338	0.463161	0.714931
C143	C	1.570338	0.713161	0.964931
C144	C	1.820338	0.963161	1.214931
C145	C	1.070370	0.105947	0.464952
C146	C	1.320370	0.355947	0.714952
C147	C	1.570370	0.605947	0.964952
C148	C	1.820370	0.855947	1.214952
C149	C	1.070332	1.018877	0.464935
C150	C	1.320332	1.268877	0.714935
C151	C	1.570332	1.518877	0.964935
C152	C	1.820332	1.768877	1.214935
C153	C	1.070287	0.909645	0.464904
C154	C	1.320287	1.159645	0.714904
C155	C	1.570287	1.409645	0.964904
C156	C	1.820287	1.659645	1.214904
C157	C	1.070254	0.464769	0.214268
C158	C	1.320254	0.714769	0.464268
C159	C	1.570254	0.964769	0.714268
C160	C	1.820254	1.214769	0.964268
C161	C	1.070375	0.464534	0.107055
C162	C	1.320375	0.714534	0.357055
C163	C	1.570375	0.964534	0.607055
C164	C	1.820375	1.214534	0.857055
C165	C	1.070359	0.464567	1.019985
C166	C	1.320359	0.714567	1.269985
C167	C	1.570359	0.964567	1.519985
C168	C	1.820359	1.214567	1.769985
C169	C	1.070345	0.464606	0.910752
C170	C	1.320345	0.714606	1.160752
C171	C	1.570345	0.964606	1.410752
C172	C	1.820345	1.214606	1.660752
H173	H	0.634401	0.314740	0.407838
H174	H	0.884401	0.564740	0.657838
H175	H	1.134401	0.814740	0.907838
H176	H	1.384401	1.064740	1.157838
H177	H	0.507817	0.493495	0.622290
H178	H	0.757817	0.743495	0.872290
H179	H	1.007817	0.993495	1.122290
H180	H	1.257817	1.243495	1.372290
H181	H	0.507172	0.314309	0.407963
H182	H	0.757172	0.564309	0.657963
H183	H	1.007172	0.814309	0.907963
H184	H	1.257172	1.064309	1.157963
F185	F	0.640111	0.412410	0.291528
F186	F	0.890111	0.662410	0.541528
F187	F	1.140111	0.912410	0.791528
F188	F	1.390111	1.162410	1.041528
H189	H	0.634106	0.623659	0.489432
H190	H	0.884106	0.873659	0.739432
H191	H	1.134106	1.123659	0.989432
H192	H	1.384106	1.373659	1.239432
F193	F	0.641719	0.595498	0.340581
F194	F	0.891719	0.845498	0.590581
F195	F	1.141719	1.095498	0.840581
F196	F	1.391719	1.345498	1.090581
F197	F	0.501013	0.641355	0.504110
F198	F	0.751013	0.891355	0.754110
F199	F	1.001013	1.141355	1.004110
F200	F	1.251013	1.391355	1.254110
F201	F	0.499577	0.411945	0.292424
F202	F	0.749577	0.661945	0.542424
F203	F	0.999577	0.911945	0.792424
F204	F	1.249577	1.161945	1.042424
H205	H	0.634044	0.361908	0.587413
H206	H	0.884044	0.611908	0.837413
H207	H	1.134044	0.861908	1.087413
H208	H	1.384044	1.111908	1.337413
H209	H	0.635129	0.487256	0.624693
H210	H	0.885129	0.737256	0.874693
H211	H	1.135129	0.987256	1.124693
H212	H	1.385129	1.237256	1.374693
H213	H	0.506478	0.366140	0.592280
H214	H	0.756478	0.616140	0.842280
H215	H	1.006478	0.866140	1.092280
H216	H	1.256478	1.116140	1.342280
H217	H	0.508074	0.587856	0.361936
H218	H	0.758074	0.837856	0.611936
H219	H	1.008074	1.087856	0.861936
H220	H	1.258074	1.337856	1.111936
