data_functionalizedCrystal
_audit_creation_method	'MofGen! by Chris Wilmer'
_symmetry_space_group_name_H-M	'P1'
_symmetry_Int_Tables_number	1
_symmetry_cell_setting	triclinic
loop_
_symmetry_equiv_pos_as_xyz
  x,y,z
_cell_length_a	16.109301
_cell_length_b	17.038272
_cell_length_c	14.586319
_cell_angle_alpha	89.995924
_cell_angle_beta	89.999213
_cell_angle_gamma	87.286518
loop_
_atom_site_label
_atom_site_type_symbol
_atom_site_fract_x
_atom_site_fract_y
_atom_site_fract_z
O1	O	1.110268	0.100495	-0.076183
O2	O	1.610268	0.600495	0.423817
O3	O	0.869094	0.113001	-0.076198
O4	O	1.369094	0.613001	0.423802
O5	O	0.988248	-0.007067	-0.076183
O6	O	1.488248	0.492933	0.423817
O7	O	0.991114	0.220564	-0.076198
O8	O	1.491114	0.720564	0.423802
O9	O	0.988239	-0.007069	0.076298
O10	O	1.488239	0.492931	0.576298
O11	O	0.869085	0.113000	0.076283
O12	O	1.369085	0.613000	0.576283
O13	O	1.110259	0.100493	0.076298
O14	O	1.610259	0.600493	0.576298
Cu15	Cu	0.989671	0.106746	0.090213
Cu16	Cu	1.489671	0.606746	0.590213
Cu17	Cu	0.989682	0.106748	-0.090113
Cu18	Cu	1.489682	0.606748	0.409887
O19	O	0.991105	0.220562	0.076283
O20	O	1.491105	0.720562	0.576283
C21	C	0.838079	0.112494	0.000041
C22	C	1.338079	0.612494	0.500041
C23	C	0.745676	0.110975	0.000035
C24	C	1.245676	0.610975	0.500035
C25	C	0.985636	-0.036196	0.000057
C26	C	1.485636	0.463804	0.500057
C27	C	0.977857	-0.122989	0.000056
C28	C	1.477857	0.377011	0.500056
C29	C	0.528212	0.178690	0.000042
C30	C	1.028212	0.678690	0.500042
C31	C	0.441390	0.177257	0.000048
C32	C	0.941390	0.677257	0.500048
C33	C	0.451147	0.034799	0.000053
C34	C	0.951147	0.534799	0.500053
C35	C	0.537968	0.036233	0.000054
C36	C	1.037968	0.536233	0.500054
C37	C	0.576498	0.108181	0.000043
C38	C	1.076498	0.608181	0.500043
C39	C	0.402855	0.105314	0.000049
C40	C	0.902855	0.605314	0.500049
C41	C	0.308719	0.103759	0.000055
C42	C	0.808719	0.603759	0.500055
C43	C	0.670640	0.109736	0.000039
C44	C	1.170640	0.609736	0.500039
C45	C	1.049277	-0.173104	0.000062
C46	C	1.549277	0.326896	0.500062
C47	C	1.041963	-0.254654	0.000052
C48	C	1.541963	0.245346	0.500052
C49	C	0.963228	-0.286089	0.000044
C50	C	1.463228	0.213911	0.500044
C51	C	0.891802	-0.235967	0.000036
C52	C	1.391802	0.264033	0.500036
C53	C	0.899116	-0.154418	0.000039
C54	C	1.399116	0.345582	0.500039
C55	C	0.937385	-0.531846	0.000030
C56	C	1.437385	-0.031846	0.500030
C57	C	0.930076	-0.613402	0.000031
C58	C	1.430076	-0.113402	0.500031
C59	C	1.080238	-0.632083	0.000045
C60	C	1.580238	-0.132083	0.500045
C61	C	1.087546	-0.550532	0.000053
C62	C	1.587546	-0.050532	0.500053
C63	C	1.016120	-0.500418	0.000040
C64	C	1.516120	-0.000418	0.500040
C65	C	0.955749	-0.369446	0.000038
C66	C	1.455749	0.130554	0.500038
C67	C	1.023599	-0.417062	0.000040
C68	C	1.523599	0.082938	0.500040
C69	C	1.141274	0.101001	0.000057
C70	C	1.641274	0.601001	0.500057
C71	C	1.233677	0.102519	0.000057
C72	C	1.733677	0.602519	0.500057
C73	C	0.993717	0.249691	0.000041
C74	C	1.493717	0.749691	0.500041
C75	C	1.001496	0.336484	0.000036
C76	C	1.501496	0.836484	0.500036
N77	N	0.989670	0.106744	0.217045
N78	N	1.489670	0.606744	0.717045
N79	N	0.989689	0.106744	-0.216945
N80	N	1.489689	0.606744	0.283055
C81	C	1.042451	0.053596	0.452058
C82	C	1.542451	0.553596	0.952058
C83	C	1.042453	0.053594	0.548039
C84	C	1.542453	0.553594	1.048039
C85	C	0.936902	0.159895	0.548036
C86	C	1.436902	0.659895	1.048036
C87	C	0.936896	0.159893	0.452056
C88	C	1.436896	0.659893	0.952056
C89	C	0.989675	0.106744	0.404070
C90	C	1.489675	0.606744	0.904070
C91	C	0.989684	0.106744	0.596030
C92	C	1.489684	0.606744	1.096030
C93	C	0.989686	0.106743	0.700098
C94	C	1.489686	0.606743	1.200098
C95	C	0.989672	0.106744	0.299996
C96	C	1.489672	0.606744	0.799996
H97	H	0.559580	0.237274	0.000040
H98	H	1.059580	0.737274	0.500040
O99	O	0.885541	0.211419	0.405392
O100	O	1.385541	0.711419	0.905392
C101	C	0.831302	0.169531	0.349865
C102	C	1.331302	0.669531	0.849865
H103	H	0.825536	0.107874	0.378801
H104	H	1.325536	0.607874	0.878801
H105	H	0.767478	0.201415	0.348771
H106	H	1.267478	0.701415	0.848771
H107	H	0.857032	0.165434	0.277124
H108	H	1.357032	0.665434	0.777124
H109	H	0.402079	0.234672	0.000048
H110	H	0.902079	0.734672	0.500048
H111	H	0.865956	-0.638991	0.000039
H112	H	1.365956	-0.138991	0.500039
O113	O	0.413584	-0.035019	0.000015
O114	O	0.913584	0.464981	0.500015
C115	C	0.326599	-0.021167	0.000034
C116	C	0.826599	0.478833	0.500034
H117	H	0.310549	0.039853	-0.028835
H118	H	0.810549	0.539853	0.471165
H119	H	0.296720	-0.067199	-0.044235
H120	H	0.796720	0.432801	0.455765
H121	H	0.302190	-0.024954	0.073186
H122	H	0.802190	0.475046	0.573186
H123	H	1.085425	0.010318	0.412989
H124	H	1.585425	0.510318	0.912989
O125	O	0.584755	-0.032336	0.000013
O126	O	1.084755	0.467664	0.500013
C127	C	0.532132	-0.096146	0.000037
C128	C	1.032132	0.403854	0.500037
H129	H	0.468813	-0.076290	-0.028834
H130	H	0.968813	0.423710	0.471166
H131	H	0.560634	-0.145545	-0.044229
H132	H	1.060634	0.354455	0.455771
H133	H	0.524397	-0.118202	0.073191
H134	H	1.024397	0.381798	0.573191
H135	H	1.138389	-0.672894	0.000053
H136	H	1.638389	-0.172894	0.500053
H137	H	1.085426	0.010315	0.587108
H138	H	1.585426	0.510315	1.087108
O139	O	0.885720	0.211497	0.594794
O140	O	1.385720	0.711497	1.094794
C141	C	0.897027	0.200092	0.689799
C142	C	1.397027	0.700092	1.189799
H143	H	0.961059	0.170887	0.702905
H144	H	1.461059	0.670887	1.202905
H145	H	0.891969	0.259301	0.726267
H146	H	1.391969	0.759301	1.226267
H147	H	0.847198	0.160869	0.717047
H148	H	1.347198	0.660869	1.217047
H149	H	0.879224	-0.491053	0.000020
H150	H	1.379224	0.008947	0.500020
O151	O	1.125780	-0.142609	-0.000095
O152	O	1.625780	0.357391	0.499905
C153	C	1.169677	-0.168231	-0.079054
C154	C	1.669677	0.331769	0.420946
H155	H	1.123737	-0.185178	-0.134252
H156	H	1.623737	0.314822	0.365748
H157	H	1.208544	-0.118838	-0.105561
H158	H	1.708544	0.381162	0.394439
H159	H	1.212244	-0.221394	-0.061200
H160	H	1.712244	0.278606	0.438800
O161	O	1.111319	-0.303365	-0.000105
O162	O	1.611319	0.196635	0.499895
C163	C	1.111582	-0.351098	-0.079070
C164	C	1.611582	0.148902	0.420930
H165	H	1.071183	-0.321216	-0.134267
H166	H	1.571183	0.178784	0.365733
H167	H	1.177906	-0.360277	-0.105573
H168	H	1.677906	0.139723	0.394427
H169	H	1.085873	-0.410397	-0.061225
H170	H	1.585873	0.089603	0.438775
H171	H	1.151661	-0.524945	0.000059
H172	H	1.651661	-0.024945	0.500059
H173	H	0.827693	-0.261567	0.000024
H174	H	1.327693	0.238433	0.500024
H175	H	0.891642	-0.395049	0.000034
H176	H	1.391642	0.104951	0.500034
O177	O	0.829654	-0.105846	0.000075
O178	O	1.329654	0.394154	0.500075
C179	C	0.758590	-0.151075	0.000044
C180	C	1.258590	0.348925	0.500044
H181	H	0.775382	-0.211946	0.028916
H182	H	1.275382	0.288054	0.528916
H183	H	0.708188	-0.120979	0.044305
H184	H	1.208188	0.379021	0.544305
H185	H	0.734736	-0.156873	-0.073112
H186	H	1.234736	0.343127	0.426888
O187	O	1.100126	-0.386624	0.000168
O188	O	1.600126	0.113376	0.500168
C189	C	1.144000	-0.412219	0.079156
C190	C	1.644000	0.087781	0.579156
H191	H	1.117344	-0.468776	0.105483
H192	H	1.617344	0.031224	0.605483
H193	H	1.212437	-0.423549	0.061404
H194	H	1.712437	0.076451	0.561404
H195	H	1.137697	-0.365029	0.134453
H196	H	1.637697	0.134971	0.634453
