data_functionalizedCrystal
_audit_creation_method	'MofGen! by Chris Wilmer'
_symmetry_space_group_name_H-M	'P1'
_symmetry_Int_Tables_number	1
_symmetry_cell_setting	triclinic
loop_
_symmetry_equiv_pos_as_xyz
  x,y,z
_cell_length_a	13.635800
_cell_length_b	11.102188
_cell_length_c	11.102300
_cell_angle_alpha	88.052188
_cell_angle_beta	108.605850
_cell_angle_gamma	71.396125
loop_
_atom_site_label
_atom_site_type_symbol
_atom_site_fract_x
_atom_site_fract_y
_atom_site_fract_z
V1	V	2.055760	-0.175839	0.396257
O2	O	2.035282	0.008450	0.388713
O3	O	2.044144	-0.348659	0.393547
O4	O	2.044151	-0.173134	0.569078
O5	O	2.035275	-0.168290	0.211967
V6	V	2.294312	-0.153795	0.374214
O7	O	2.193430	-0.224192	0.444609
O8	O	2.381741	-0.105442	0.325862
O9	O	2.194325	0.019025	0.376924
O10	O	2.373489	-0.338084	0.381757
O11	O	2.373496	-0.161344	0.558503
O12	O	2.194318	-0.156500	0.201393
V13	V	2.555760	-0.175839	0.396257
O14	O	2.535282	0.008450	0.388713
O15	O	2.544144	-0.348659	0.393547
O16	O	2.544151	-0.173134	0.569078
O17	O	2.535275	-0.168290	0.211967
V18	V	2.794312	-0.153795	0.374214
O19	O	2.693430	-0.224192	0.444609
O20	O	2.881741	-0.105442	0.325862
O21	O	2.694325	0.019025	0.376924
O22	O	2.873489	-0.338084	0.381757
O23	O	2.873496	-0.161344	0.558503
O24	O	2.694318	-0.156500	0.201393
C25	C	1.969299	-0.390788	0.387295
C26	C	2.000528	-0.532071	0.386232
C27	C	1.985116	-0.580297	0.269348
C28	C	2.014471	-0.713048	0.268353
C29	C	2.074648	-0.749338	0.501137
C30	C	2.045300	-0.616589	0.502131
C31	C	2.077569	-0.876826	0.131240
C32	C	2.062138	-0.925053	0.014349
C33	C	1.966904	-0.861792	-0.092165
C34	C	1.887076	-0.750302	-0.081794
C35	C	1.902499	-0.702080	0.035098
C36	C	1.997755	-0.765341	0.141610
C37	C	1.982191	-0.452807	0.639235
C38	C	1.997607	-0.404583	0.756128
C39	C	2.092837	-0.467843	0.862653
C40	C	2.172655	-0.579338	0.852294
C41	C	2.157239	-0.627563	0.735400
C42	C	2.062009	-0.564293	0.628875
C43	C	1.969306	-0.166887	0.611201
C44	C	2.000539	-0.165819	0.752483
C45	C	2.100842	0.061148	0.383172
C46	C	2.059232	0.202429	0.384244
C47	C	2.100834	-0.162751	0.159263
C48	C	2.059220	-0.163812	0.017979
C49	C	2.469299	-0.390788	0.387295
C50	C	2.500528	-0.532071	0.386232
C51	C	2.469306	-0.166887	0.611201
C52	C	2.500539	-0.165819	0.752483
C53	C	2.107218	-0.171665	0.825332
C54	C	2.136558	-0.170657	0.958081
C55	C	1.952531	-0.157963	0.945120
C56	C	1.923190	-0.158961	0.812373
C57	C	2.600842	0.061148	0.383172
C58	C	2.559232	0.202429	0.384244
C59	C	2.600834	-0.162751	0.159263
C60	C	2.559220	-0.163812	0.017979
C61	C	2.607204	-0.604919	0.392072
C62	C	2.636544	-0.737670	0.391083
C63	C	2.452521	-0.724712	0.378406
C64	C	2.423185	-0.591965	0.379405
C65	C	2.607218	-0.171665	0.825332
C66	C	2.636558	-0.170657	0.958081
C67	C	2.452531	-0.157963	0.945120
C68	C	2.423190	-0.158961	0.812373
H69	H	1.948661	-0.511485	0.174975
H70	H	2.723423	-0.175415	1.017389
H71	H	1.837502	-0.611311	0.043544
H72	H	2.170202	-0.177247	0.776574
O73	O	1.950264	-0.913812	-0.218239
H74	H	1.870623	-0.851100	-0.290564
O75	O	2.251616	-0.176950	1.036657
H76	H	2.300467	-0.181889	0.972705
H77	H	2.250196	-0.630852	0.939036
O78	O	1.869111	-0.150587	1.009716
H79	H	1.907437	-0.150891	1.114266
H80	H	1.836314	-0.154191	0.753055
H81	H	1.809525	-0.698809	-0.168529
O82	O	2.690626	-0.540318	0.399472
H83	H	2.769739	-0.613285	0.403387
O84	O	2.148268	-1.045247	0.003129
H85	H	2.217110	-1.081109	0.096819
O86	O	2.180277	-0.945074	0.246138
H87	H	2.233173	-1.030715	0.219292
H88	H	2.111102	-0.818168	0.595498
O89	O	2.243341	-0.747796	0.724203
H90	H	2.312163	-0.783677	0.817908
O91	O	2.690641	-0.179040	0.760740
H92	H	2.704182	-0.266827	0.714149
H93	H	2.723408	-0.796978	0.395841
O94	O	2.369111	-0.150587	1.009716
H95	H	2.407437	-0.150891	1.114266
O96	O	2.308122	-0.152651	0.733776
H97	H	2.292116	-0.236444	0.769696
O98	O	2.109468	-0.415839	0.988739
H99	H	2.037969	-0.327683	0.978056
O100	O	2.308121	-0.513377	0.373105
H101	H	2.259262	-0.577322	0.368172
O102	O	1.911528	-0.284318	0.767308
H103	H	1.842725	-0.248412	0.673591
O104	O	2.369106	-0.789315	0.371046
H105	H	2.355562	-0.835909	0.283260
O106	O	1.879473	-0.384580	0.524332
H107	H	1.826552	-0.298964	0.551182
