data_functionalizedCrystal
_audit_creation_method	'MofGen! by Chris Wilmer'
_symmetry_space_group_name_H-M	'P1'
_symmetry_Int_Tables_number	1
_symmetry_cell_setting	triclinic
loop_
_symmetry_equiv_pos_as_xyz
  x,y,z
_cell_length_a	10.654545
_cell_length_b	14.044190
_cell_length_c	9.730223
_cell_angle_alpha	90.007832
_cell_angle_beta	90.003032
_cell_angle_gamma	88.837428
loop_
_atom_site_label
_atom_site_type_symbol
_atom_site_fract_x
_atom_site_fract_y
_atom_site_fract_z
O1	O	1.681234	0.133209	0.114293
O2	O	1.317031	0.145907	0.114301
O3	O	1.493661	0.001537	0.114270
O4	O	1.504604	0.277579	0.114324
O5	O	1.493647	0.001537	-0.114310
O6	O	1.317017	0.145907	-0.114279
O7	O	1.681220	0.133209	-0.114287
Zn8	Zn	1.499116	0.139558	-0.150575
Zn9	Zn	1.499134	0.139558	0.150589
O10	O	1.504590	0.277579	-0.114256
C11	C	1.270132	0.144976	0.000011
C12	C	1.130409	0.142189	0.000013
C13	C	1.064765	0.140877	-0.124587
C14	C	0.933481	0.138243	-0.124588
C15	C	0.933495	0.138236	0.124623
C16	C	1.064778	0.140864	0.124622
C17	C	1.488867	-0.033808	-0.000024
C18	C	1.474588	-0.139128	-0.000035
C19	C	1.549753	-0.388921	0.000017
C20	C	1.448503	-0.331957	0.000009
C21	C	1.463020	-0.224657	-0.000016
C22	C	1.535238	-0.496231	0.000042
C23	C	1.728119	0.134141	0.000006
C24	C	1.867842	0.136927	0.000013
C25	C	1.509384	0.312925	0.000041
C26	C	1.523663	0.418244	0.000062
N27	N	1.499113	0.139558	-0.356111
C28	C	1.581782	0.197625	-0.428022
C29	C	1.581802	0.197619	-0.571905
C30	C	1.416474	0.081477	-0.571954
C31	C	1.416461	0.081479	-0.428073
N32	N	1.499147	0.139551	0.356125
H33	H	0.880039	0.137175	-0.226049
O34	O	1.336224	0.025156	-0.642070
C35	C	1.353912	0.037637	-0.784485
H36	H	1.397742	0.109755	-0.804093
H37	H	1.418860	-0.021327	-0.825387
C38	C	1.172457	-0.055073	-0.834228
C39	C	1.226280	0.033507	-0.858312
H40	H	1.093730	-0.057625	-0.879771
H41	H	1.160542	-0.063485	-0.738281
H42	H	1.226593	-0.104200	-0.868314
H43	H	1.172152	0.082631	-0.824211
H44	H	1.238183	0.041927	-0.954256
H45	H	0.880043	0.137159	0.226075
H46	H	1.350917	-0.363772	0.000019
O47	O	1.662018	0.254169	-0.358269
C48	C	1.637961	0.350211	-0.393390
H49	H	1.589683	0.353940	-0.497864
H50	H	1.574448	0.384679	-0.312417
C51	C	1.821993	0.398945	-0.271696
C52	C	1.762706	0.403525	-0.400018
H53	H	1.898939	0.431833	-0.275779
H54	H	1.838198	0.334240	-0.248029
H55	H	1.769052	0.427667	-0.204232
H56	H	1.815640	0.374792	-0.467476
H57	H	1.746513	0.468226	-0.423697
H58	H	1.118226	0.141929	0.226092
O59	O	1.666075	-0.350818	-0.000070
C60	C	1.654854	-0.250613	-0.000061
H61	H	1.559325	-0.228159	-0.043323
H62	H	1.663988	-0.222995	0.109592
C63	C	1.876632	-0.236375	-0.036597
C64	C	1.759306	-0.208796	-0.089744
H65	H	1.941066	-0.210578	-0.091912
H66	H	1.884194	-0.303884	-0.036598
H67	H	1.884226	-0.213357	0.054779
H68	H	1.751708	-0.231824	-0.181111
H69	H	1.751746	-0.141289	-0.089760
H70	H	1.649121	0.244902	-0.630448
O71	O	1.336081	0.025210	-0.358066
C72	C	1.256779	0.082459	-0.274875
H73	H	1.303776	0.153114	-0.253299
H74	H	1.163946	0.096324	-0.330346
C75	C	1.174345	-0.055958	-0.164718
C76	C	1.232074	0.030819	-0.138208
H77	H	1.159100	-0.087812	-0.080418
H78	H	1.227769	-0.094529	-0.220769
H79	H	1.096991	-0.044391	-0.210947
H80	H	1.309433	0.019251	-0.091996
H81	H	1.178662	0.069387	-0.082146
O82	O	1.128329	0.142108	-0.245750
C83	C	1.042230	0.140406	-0.355723
H84	H	0.950492	0.108557	-0.319195
H85	H	1.023595	0.216092	-0.394025
C86	C	1.209947	0.118449	-0.518321
C87	C	1.097277	0.079323	-0.473459
H88	H	1.243904	0.080774	-0.590949
H89	H	1.267955	0.119599	-0.444231
H90	H	1.194403	0.181519	-0.550229
H91	H	1.112826	0.016259	-0.441536
H92	H	1.039273	0.078161	-0.547547
