data_functionalizedCrystal
_audit_creation_method	'MofGen! by Chris Wilmer'
_symmetry_space_group_name_H-M	'P1'
_symmetry_Int_Tables_number	1
_symmetry_cell_setting	triclinic
loop_
_symmetry_equiv_pos_as_xyz
  x,y,z
_cell_length_a	13.635800
_cell_length_b	11.102193
_cell_length_c	19.551823
_cell_angle_alpha	85.475021
_cell_angle_beta	101.663376
_cell_angle_gamma	71.395941
loop_
_atom_site_label
_atom_site_type_symbol
_atom_site_fract_x
_atom_site_fract_y
_atom_site_fract_z
V1	V	2.038256	-0.396852	0.096680
O2	O	2.036114	-0.388686	-0.004641
O3	O	2.009444	-0.394726	0.191695
O4	O	2.026911	-0.569664	0.095195
O5	O	2.018525	-0.212536	0.092527
V6	V	2.279001	-0.374735	0.084561
O7	O	2.171113	-0.445367	0.123265
O8	O	2.371243	-0.326219	0.057976
O9	O	2.196210	-0.376861	-0.010455
O10	O	2.339842	-0.382901	0.185881
O11	O	2.357430	-0.559050	0.088713
O12	O	2.178742	-0.201922	0.086045
V13	V	2.538256	-0.396852	0.096680
O14	O	2.536114	-0.388686	-0.004641
O15	O	2.509444	-0.394726	0.191695
O16	O	2.526911	-0.569664	0.095195
O17	O	2.518525	-0.212536	0.092527
V18	V	2.779001	-0.374735	0.084561
O19	O	2.671113	-0.445367	0.123265
O20	O	2.871243	-0.326219	0.057976
O21	O	2.696210	-0.376861	-0.010455
O22	O	2.839842	-0.382901	0.185881
O23	O	2.857430	-0.559050	0.088713
O24	O	2.678742	-0.201922	0.086045
C25	C	1.952688	-0.611767	0.091761
C26	C	1.984024	-0.753046	0.091176
C27	C	2.021020	-0.790159	0.219156
C28	C	2.054237	-0.875087	0.282867
C29	C	2.083680	-1.007829	0.282314
C30	C	2.079909	-1.055646	0.218041
C31	C	2.046693	-0.970718	0.154329
C32	C	2.017248	-0.837974	0.154890
C33	C	2.009704	-0.933605	0.026351
C34	C	1.980253	-0.800862	0.026903
C35	C	2.005932	-0.981421	-0.037921
C36	C	1.972709	-0.896493	-0.101635
C37	C	1.943263	-0.763743	-0.101079
C38	C	1.947036	-0.715934	-0.036809
C39	C	1.930406	-0.388617	0.214858
C40	C	1.947578	-0.388030	0.292534
C41	C	2.106918	-0.382966	-0.033613
C42	C	2.079365	-0.383561	-0.111289
C43	C	2.084637	-0.159813	0.089481
C44	C	2.042920	-0.018533	0.090063
C45	C	2.430406	-0.388617	0.214858
C46	C	2.447578	-0.388030	0.292534
C47	C	2.452688	-0.611767	0.091761
C48	C	2.484024	-0.753046	0.091176
C49	C	2.047001	-0.394110	0.332580
C50	C	2.063140	-0.393572	0.405566
C51	C	1.979843	-0.386928	0.438501
C52	C	1.880408	-0.380855	0.398446
C53	C	1.864275	-0.381406	0.325463
C54	C	1.917233	-0.306338	0.544988
C55	C	1.933367	-0.305779	0.617969
C56	C	2.029598	-0.385234	0.663607
C57	C	2.109706	-0.465232	0.636253
C58	C	2.093574	-0.465783	0.563269
C59	C	1.997326	-0.386331	0.517639
C60	C	2.146527	-0.390733	0.782793
C61	C	2.162664	-0.390203	0.855781
C62	C	1.979926	-0.377472	0.848659
C63	C	1.963795	-0.378016	0.775674
C64	C	2.047098	-0.384640	0.742744
C65	C	2.606918	-0.382966	-0.033613
C66	C	2.579365	-0.383561	-0.111289
C67	C	2.584637	-0.159813	0.089481
C68	C	2.542920	-0.018533	0.090063
C69	C	2.547015	-0.394127	0.332574
C70	C	2.563169	-0.393595	0.405561
C71	C	2.479882	-0.386958	0.438506
C72	C	2.380439	-0.380865	0.398460
C73	C	2.364289	-0.381406	0.325475
C74	C	2.652423	-0.377468	-0.151329
C75	C	2.626542	-0.378005	-0.224315
C76	C	2.527605	-0.384645	-0.257260
C77	C	2.454541	-0.390735	-0.217215
C78	C	2.480420	-0.390188	-0.144230
C79	C	2.666786	-0.766058	0.098159
C80	C	2.772886	-0.838937	0.101378
C81	C	2.802322	-0.971680	0.100827
C82	C	2.725650	-1.031546	0.097055
C83	C	2.619550	-0.958667	0.093836
C84	C	2.590124	-0.825923	0.094390
C85	C	2.436788	-0.945653	0.086848
C86	C	2.407351	-0.812912	0.087404
C87	C	2.360116	-1.005520	0.083076
C88	C	2.254016	-0.932643	0.079863
C89	C	2.224582	-0.799892	0.080415
C90	C	2.301252	-0.740033	0.084186
H91	H	1.997032	-0.682074	0.219612
H92	H	2.686047	-0.373048	-0.256910
Br93	Br	2.698132	-0.401861	0.459893
H94	H	2.888716	-1.031017	0.103446
H95	H	2.114837	-0.399513	0.305774
H96	H	1.912105	-0.372070	0.875475
Br97	Br	2.765598	-1.211695	0.096295
Br98	Br	2.198083	-0.401829	0.459925
Br99	Br	1.907068	-0.535784	-0.036048
Br100	Br	2.080582	-0.700993	0.076036
Br101	Br	2.202281	-0.574353	0.526147
H102	H	2.835306	-0.790178	0.104446
Br103	Br	2.267416	-0.371854	0.443181
Br104	Br	2.240315	-0.573066	0.698180
Br105	Br	2.492499	-0.385383	-0.356313
H106	H	1.783312	-0.376456	0.292858
Br107	Br	2.626848	-0.585911	0.098923
Br108	Br	1.828854	-0.369756	0.721321
Br109	Br	2.660067	-0.403145	0.287882
Br110	Br	2.229326	-0.373123	0.271143
H111	H	2.493047	-0.386519	0.497935
Br112	Br	2.259583	-0.399750	0.738101
Br113	Br	2.786703	-0.368458	-0.106635
Br114	Br	2.045901	-1.161573	-0.038674
Br115	Br	2.149973	-1.013893	0.074739
Br116	Br	2.059364	-0.810190	0.370091
H117	H	2.277296	-0.631949	0.084639
Br118	Br	2.381255	-0.398459	-0.089899
H119	H	2.373985	-0.396140	-0.244050
Br120	Br	2.297610	-0.398469	0.910132
H121	H	2.110728	-1.076979	0.334193
H122	H	2.384090	-1.113605	0.082623
H123	H	2.103898	-1.163734	0.217596
Br124	Br	1.824661	-0.197189	0.655084
H125	H	1.969649	-0.935437	-0.153960
H126	H	1.838864	-0.241641	0.507835
H127	H	1.812589	-0.375449	0.425267
Br128	Br	1.898204	-0.648495	-0.187549
