data_functionalizedCrystal
_audit_creation_method	'MofGen! by Chris Wilmer'
_symmetry_space_group_name_H-M	'P1'
_symmetry_Int_Tables_number	1
_symmetry_cell_setting	triclinic
loop_
_symmetry_equiv_pos_as_xyz
  x,y,z
_cell_length_a	13.635800
_cell_length_b	27.923497
_cell_length_c	11.452834
_cell_angle_alpha	84.060730
_cell_angle_beta	71.302722
_cell_angle_gamma	81.035752
loop_
_atom_site_label
_atom_site_type_symbol
_atom_site_fract_x
_atom_site_fract_y
_atom_site_fract_z
V1	V	2.020903	-0.034952	-0.381068
O2	O	2.025846	0.034719	-0.372987
O3	O	1.985714	-0.101080	-0.379256
O4	O	2.004954	-0.019917	-0.546902
O5	O	2.006472	-0.047005	-0.204181
V6	V	2.263072	-0.028331	-0.359814
O7	O	2.150639	-0.049474	-0.427689
O8	O	2.358434	-0.013809	-0.313192
O9	O	2.186657	0.037797	-0.361625
O10	O	2.316828	-0.098002	-0.367895
O11	O	2.336201	-0.016277	-0.536700
O12	O	2.167417	-0.043366	-0.193980
V13	V	2.520903	-0.034952	-0.381068
O14	O	2.525846	0.034719	-0.372987
O15	O	2.485714	-0.101080	-0.379256
O16	O	2.504954	-0.019917	-0.546902
O17	O	2.506472	-0.047005	-0.204181
V18	V	2.763072	-0.028331	-0.359814
O19	O	2.650639	-0.049474	-0.427689
O20	O	2.858434	-0.013809	-0.313192
O21	O	2.686657	0.037797	-0.361625
O22	O	2.816828	-0.098002	-0.367895
O23	O	2.836201	-0.016277	-0.536700
O24	O	2.667417	-0.043366	-0.193980
C25	C	1.905274	-0.117653	-0.373450
C26	C	1.917202	-0.171620	-0.373075
C27	C	1.966808	-0.508788	-0.258843
C28	C	2.011666	-0.711620	-0.257366
O29	O	1.996733	-0.739982	-0.162123
N30	N	2.041701	-0.734472	-0.368955
C31	C	2.060530	-0.706613	-0.480921
O32	O	2.087116	-0.730704	-0.575800
C33	C	2.015679	-0.503782	-0.482397
C34	C	1.985632	-0.480932	-0.370801
C35	C	1.936764	-0.485939	-0.147256
C36	C	1.925545	-0.435233	-0.147626
C37	C	1.944370	-0.407378	-0.259583
C38	C	1.974413	-0.430227	-0.371171
C39	C	2.034515	-0.475924	-0.594362
C40	C	2.023302	-0.425213	-0.594722
C41	C	1.993255	-0.402364	-0.483125
C42	C	1.982019	-0.351667	-0.483498
N43	N	1.951983	-0.328815	-0.371909
C44	C	1.933159	-0.356670	-0.259952
C45	C	2.084073	-0.813102	-0.480138
C46	C	2.095284	-0.863809	-0.479769
C47	C	2.046421	-0.868813	-0.256214
C48	C	2.035203	-0.818105	-0.256584
C49	C	2.054038	-0.790250	-0.368549
C50	C	1.909599	-0.250186	-0.260738
C51	C	1.898377	-0.199476	-0.261117
C52	C	1.947246	-0.194476	-0.484672
C53	C	1.958462	-0.245182	-0.484292
C54	C	1.939640	-0.273035	-0.372316
O55	O	1.996945	-0.323274	-0.578692
O56	O	1.906596	-0.332571	-0.165088
C57	C	1.978027	-0.559493	-0.258473
C58	C	2.008070	-0.582343	-0.370061
C59	C	2.026895	-0.554487	-0.482018
C60	C	2.019281	-0.633050	-0.369692
C61	C	2.000457	-0.660906	-0.257734
C62	C	1.970421	-0.638054	-0.146146
C63	C	1.959202	-0.587349	-0.146516
C64	C	2.056930	-0.577339	-0.593606
C65	C	2.068146	-0.628044	-0.593227
C66	C	2.049322	-0.655900	-0.481270
C67	C	1.929817	-0.014121	-0.587296
C68	C	1.957346	-0.002266	-0.722872
C69	C	2.098768	0.054368	-0.367428
C70	C	2.076460	0.108335	-0.367811
C71	C	1.982604	-0.037765	-0.800375
C72	C	2.011057	-0.025513	-0.940500
C73	C	2.074225	-0.049164	-0.153579
C74	C	2.036316	-0.061016	-0.018002
C75	C	2.405274	-0.117653	-0.373450
C76	C	2.417202	-0.171620	-0.373075
C77	C	2.429817	-0.014121	-0.587296
C78	C	2.457346	-0.002266	-0.722872
C79	C	2.598768	0.054368	-0.367428
C80	C	2.576460	0.108335	-0.367811
C81	C	2.574225	-0.049164	-0.153579
C82	C	2.536316	-0.061016	-0.018002
C83	C	2.513760	-0.198921	-0.379021
C84	C	2.524986	-0.249628	-0.378688
C85	C	2.439649	-0.273035	-0.372398
C86	C	2.343083	-0.245731	-0.366454
C87	C	2.331861	-0.195024	-0.366797
C88	C	2.561244	0.001410	-0.792785
C89	C	2.587123	0.012555	-0.920171
C90	C	2.509103	0.020021	-0.977642
C91	C	2.405196	0.016346	-0.907719
C92	C	2.379317	0.005204	-0.780334
C93	C	2.652395	0.135635	-0.361868
C94	C	2.631442	0.186343	-0.362208
C95	C	2.534555	0.209750	-0.368500
C96	C	2.458614	0.182446	-0.374441
C97	C	2.479565	0.131739	-0.374092
C98	C	2.432108	-0.068474	0.039438
C99	C	2.396471	-0.079606	0.166828
C100	C	2.465045	-0.083282	0.236774
C101	C	2.569262	-0.075822	0.179326
C102	C	2.604895	-0.064687	0.051940
H103	H	1.873907	-0.180875	-0.170238
H104	H	2.448801	-0.314324	-0.372119
H105	H	2.092605	-0.646643	-0.684109
Br106	Br	2.667149	-0.008721	-0.714818
Br107	Br	2.376495	0.094694	-0.382160
Br108	Br	2.227277	-0.277505	-0.357914
H109	H	1.982912	-0.263786	-0.575162
H110	H	2.058981	-0.494518	-0.685236
Br111	Br	2.255035	-0.089731	0.244764
H112	H	1.901086	-0.416634	-0.056753
H113	H	2.036880	-0.100481	-0.980625
H114	H	2.010736	-0.799505	-0.165712
Br115	Br	2.010131	0.040265	-1.002791
Br116	Br	2.339020	-0.063488	-0.055461
Br117	Br	1.972780	-0.156663	-0.636606
H118	H	2.436020	-0.092355	0.340497
Br119	Br	2.728145	0.017537	-1.015041
Br120	Br	2.238304	0.000212	-0.685470
H121	H	2.038652	-0.402536	-0.685900
H122	H	2.530189	0.029093	-1.081368
H123	H	1.934737	-0.568750	-0.055643
H124	H	2.625086	-0.078816	0.236296
H125	H	2.253229	-0.172800	-0.361948
Br126	Br	2.783893	0.103881	-0.353329
Br127	Br	1.956422	0.063509	-0.785169
Br128	Br	2.746332	-0.054574	-0.026001
Br129	Br	2.629594	-0.167166	-0.387568
Br130	Br	2.299325	0.026474	-0.985738
H131	H	2.603620	-0.271853	-0.383524
Br132	Br	2.506138	0.278568	-0.368970
H133	H	1.894271	-0.272859	-0.169556
Br134	Br	1.983554	-0.103540	-0.738080
Br135	Br	2.327126	0.214220	-0.382970
Br136	Br	1.911215	-0.523734	0.004707
Br137	Br	2.020874	-0.906627	-0.104272
Br138	Br	2.734518	0.223388	-0.354145
H139	H	2.099410	-0.790427	-0.571318
Br140	Br	2.136019	-0.894812	-0.631224
H141	H	2.072261	-0.554664	-0.684777
Br142	Br	1.944870	-0.675868	0.005795
