data_functionalizedCrystal
_audit_creation_method	'MofGen! by Chris Wilmer'
_symmetry_space_group_name_H-M	'P1'
_symmetry_Int_Tables_number	1
_symmetry_cell_setting	triclinic
loop_
_symmetry_equiv_pos_as_xyz
  x,y,z
_cell_length_a	31.640172
_cell_length_b	14.560438
_cell_length_c	31.640172
_cell_angle_alpha	60.012082
_cell_angle_beta	90.011976
_cell_angle_gamma	59.997940
loop_
_atom_site_label
_atom_site_type_symbol
_atom_site_fract_x
_atom_site_fract_y
_atom_site_fract_z
Zr1	Zr	0.407181	1.005139	-0.055396
O2	O	0.339689	1.196729	-0.122882
O3	O	0.427871	0.813542	-0.034709
O4	O	0.427867	1.005104	-0.122872
O5	O	0.339695	1.005197	0.034827
O6	O	0.497424	1.005085	-0.122862
O7	O	0.339692	1.005167	-0.034719
O8	O	0.497430	0.662415	0.034845
O9	O	0.339689	1.347867	-0.122880
O10	O	0.488604	0.892337	-0.025878
O11	O	0.436697	0.892374	0.026016
O12	O	0.436693	1.117914	-0.077784
O13	O	0.384785	1.117951	-0.025890
Zr14	Zr	0.518120	1.005157	0.055536
Zr15	Zr	0.518116	1.005109	-0.055381
Zr16	Zr	0.407185	1.005187	0.055522
Zr17	Zr	0.407181	1.246187	-0.055394
Zr18	Zr	0.518120	0.764109	0.055534
O19	O	0.497431	1.196754	0.034849
O20	O	0.497424	1.196686	-0.122861
O21	O	0.339695	1.196798	0.034828
O22	O	0.585613	0.813567	0.123022
O23	O	0.585606	0.813499	-0.034688
O24	O	0.427877	0.813610	0.123001
O25	O	0.585607	1.005099	-0.034686
O26	O	0.497434	1.005192	0.123012
O27	O	0.427877	1.005211	0.123003
O28	O	0.585609	1.005129	0.034860
O29	O	0.427868	1.347843	-0.122869
O30	O	0.497434	0.662453	0.123009
O31	O	0.585612	0.662429	0.123021
O32	O	0.585609	0.662391	0.034857
O33	O	0.339692	1.347905	-0.034716
O34	O	0.427871	1.347881	-0.034704
O35	O	0.488608	0.892382	0.077925
O36	O	0.540516	0.892345	0.026030
O37	O	0.488604	1.117922	-0.025876
O38	O	0.436697	1.117959	0.026018
C39	C	0.462650	0.703634	0.000068
C40	C	0.462650	0.601303	0.000067
C41	C	0.489744	0.553208	-0.027022
C42	C	0.489746	0.457049	-0.027017
C43	C	0.435556	0.457092	0.027166
C44	C	0.435557	0.553243	0.027163
C45	C	0.323887	1.005186	0.000052
C46	C	0.276792	1.005199	0.000046
C47	C	0.011883	0.887387	0.027175
C48	C	-0.165102	0.887365	0.027185
O49	O	-0.164942	0.787223	0.050247
N50	N	-0.214329	1.005112	0.000090
C51	C	-0.219308	1.122874	-0.027007
O52	O	-0.265240	1.223026	-0.050048
C53	C	-0.042324	1.122896	-0.027013
C54	C	0.006903	1.005140	0.000079
C55	C	0.061108	0.769641	0.054266
C56	C	0.105351	0.769648	0.054261
C57	C	0.100370	0.887401	0.027165
C58	C	0.051146	1.005147	0.000074
C59	C	-0.047304	1.240656	-0.054107
C60	C	-0.003053	1.240651	-0.054105
C61	C	0.046173	1.122895	-0.027013
C62	C	0.090408	1.122906	-0.027027
N63	N	0.139635	1.005158	0.000068
C64	C	0.144616	0.887406	0.027164
C65	C	-0.312226	1.122855	-0.027002
C66	C	-0.356472	1.122850	-0.027001
C67	C	-0.302262	0.887340	0.027192
C68	C	-0.258015	0.887346	0.027188
C69	C	-0.262999	1.005107	0.000093
C70	C	0.237528	0.887429	0.027151
C71	C	0.281773	0.887446	0.027142
C72	C	0.227559	1.122956	-0.027049
C73	C	0.183318	1.122939	-0.027042
C74	C	0.188306	1.005165	0.000062
O75	O	0.090288	1.222996	-0.050072
O76	O	0.190552	0.787269	0.050212
C77	C	-0.032360	0.887380	0.027180
C78	C	-0.081584	1.005126	0.000089
C79	C	-0.086565	1.122879	-0.027007
C80	C	-0.125830	1.005121	0.000090
C81	C	-0.120849	0.887369	0.027186
C82	C	-0.071622	0.769621	0.054282
C83	C	-0.027379	0.769627	0.054276
C84	C	-0.135792	1.240627	-0.054102
C85	C	-0.180033	1.240611	-0.054095
C86	C	-0.175052	1.122858	-0.026999
C87	C	0.601414	1.005110	0.000089
C88	C	0.648509	1.005097	0.000095
C89	C	0.462645	1.005088	-0.138670
C90	C	0.462643	1.005068	-0.185758
C91	C	0.462651	1.306662	0.000073
C92	C	0.462651	1.408993	0.000074
C93	C	0.489759	0.887389	-0.494969
C94	C	0.489751	0.887350	-0.317970
O95	O	0.512812	0.787206	-0.272043
N96	N	0.462653	1.005096	-0.322930
C97	C	0.435557	1.122860	-0.372145
O98	O	0.412512	1.223009	-0.372304
C99	C	0.435568	1.122898	-0.549144
C100	C	0.462664	1.005144	-0.544179
C101	C	0.516854	0.769645	-0.490006
C102	C	0.516853	0.769656	-0.534254
C103	C	0.489758	0.887411	-0.583464
C104	C	0.462663	1.005155	-0.588426
C105	C	0.408475	1.240660	-0.598358
C106	C	0.408481	1.240659	-0.642608
C107	C	0.435578	1.122906	-0.637643
C108	C	0.435568	1.122921	-0.681884
N109	N	0.462666	1.005175	-0.676923
C110	C	0.489762	0.887420	-0.627713
C111	C	0.435552	1.122832	-0.279217
C112	C	0.435548	1.122823	-0.234968
C113	C	0.489744	0.887312	-0.180795
C114	C	0.489744	0.887323	-0.225045
C115	C	0.462651	1.005086	-0.274256
C116	C	0.489758	0.887452	-0.720638
C117	C	0.489753	0.887474	-0.764892
C118	C	0.435560	1.122983	-0.819060
C119	C	0.435562	1.122963	-0.774811
C120	C	0.462665	1.005187	-0.725598
O121	O	0.412524	1.223012	-0.727826
O122	O	0.512812	0.787286	-0.627566
C123	C	0.489760	0.887378	-0.450721
C124	C	0.462665	1.005122	-0.455684
C125	C	0.435570	1.122877	-0.504894
C126	C	0.462662	1.005113	-0.411435
C127	C	0.489757	0.887358	-0.362225
C128	C	0.516856	0.769612	-0.357264
C129	C	0.516855	0.769623	-0.401511
C130	C	0.408471	1.240623	-0.509855
C131	C	0.408474	1.240602	-0.465605
C132	C	0.435569	1.122847	-0.416395
C133	C	0.462656	1.005208	0.138811
C134	C	0.462658	1.005229	0.185898
C135	C	0.601414	0.703596	0.000086
C136	C	0.648509	0.601252	0.000092
C137	C	0.462656	0.703694	0.138808
C138	C	0.462658	0.601384	0.185895
C139	C	0.601419	0.703656	0.138827
C140	C	0.648516	0.601333	0.185920
C141	C	0.323882	1.306640	-0.138686
C142	C	0.276785	1.408963	-0.185779
C143	C	0.323888	1.306700	0.000054
C144	C	0.276793	1.409044	0.000049
C145	C	0.462645	1.306602	-0.138668
C146	C	0.462644	1.408912	-0.185754
C147	C	0.643527	0.553186	-0.027006
C148	C	0.687774	0.457037	-0.027011
C149	C	0.737001	0.408948	0.000084
C150	C	0.741981	0.457024	0.027183
C151	C	0.697735	0.553178	0.027185
C152	C	0.489756	0.553342	0.235107
C153	C	0.489755	0.457224	0.279354
C154	C	0.462660	0.409142	0.274388
C155	C	0.435558	0.457194	0.225170
C156	C	0.435556	0.553317	0.180924
C157	C	0.697733	0.553261	0.180947
C158	C	0.741989	0.457131	0.225191
C159	C	0.737028	0.409067	0.274408
C160	C	0.687806	0.457148	0.279380
C161	C	0.643550	0.553283	0.235136
C162	C	0.227568	1.457046	-0.180806
C163	C	0.183312	1.553207	-0.225050
C164	C	0.188273	1.601276	-0.274267
C165	C	0.237495	1.553189	-0.279239
C166	C	0.281751	1.457037	-0.234995
C167	C	0.281774	1.457120	0.027142
C168	C	0.237527	1.553296	0.027135
C169	C	0.188300	1.601388	0.000038
C170	C	0.183320	1.553308	-0.027058
C171	C	0.227566	1.457140	-0.027054
C172	C	0.489745	1.456963	-0.180771
C173	C	0.489753	1.553082	-0.225010
C174	C	0.462657	1.601155	-0.274231
C175	C	0.435555	1.553095	-0.279213
C176	C	0.435550	1.456971	-0.234975
H177	H	0.321856	0.791551	0.049205
N178	N	0.133039	1.602268	-0.219961
N179	N	0.102304	1.591518	-0.238604
H180	H	0.066800	1.626157	-0.235007
H181	H	0.413498	1.218856	-0.859135
H182	H	0.511822	1.592203	-0.220943
N183	N	-0.066540	0.649339	0.081969
N184	N	-0.043452	0.570514	0.129740
H185	H	-0.039865	0.485570	0.149296
H186	H	0.145430	0.673759	0.076320
H187	H	0.065172	0.673747	0.076334
N188	N	-0.207738	0.767051	0.054862
N189	N	-0.203305	0.661930	0.079048
H190	H	-0.167797	0.576964	0.098595
N191	N	0.407862	1.407910	-0.240079
N192	N	0.383672	1.450854	-0.284032
H193	H	0.364116	1.416209	-0.287640
N194	N	0.462672	1.699340	-0.319411
N195	N	0.486873	1.742225	-0.314949
H196	H	0.486885	1.811570	-0.346855
N197	N	0.517424	0.602295	-0.054687
N198	N	0.517424	0.688141	-0.054685
H199	H	0.536976	0.722805	-0.074223
H200	H	0.413494	0.592401	0.049224
H201	H	0.773068	0.330787	0.310430
N202	N	0.222464	1.408049	-0.054733
N203	N	0.178507	1.451006	-0.078922
H204	H	0.174899	1.416342	-0.098472
N205	N	0.332058	1.408010	0.054813
N206	N	0.371565	1.322152	0.054816
H207	H	0.407078	1.287477	0.074358
N208	N	0.517427	1.407885	-0.130500
N209	N	0.541624	1.450807	-0.126068
H210	H	0.561179	1.416146	-0.090565
H211	H	0.782068	0.417856	0.049243
H212	H	0.386419	1.336559	-0.682677
H213	H	0.511810	0.417891	-0.049074
N214	N	0.407871	0.408032	0.054836
N215	N	0.383681	0.450991	0.079019
H216	H	0.364125	0.416348	0.098561
N217	N	0.682752	0.408026	0.329659
N218	N	0.722273	0.322182	0.369154
H219	H	0.718706	0.287478	0.404666
H220	H	0.413491	0.592420	0.140855
N221	N	0.407892	1.602132	-0.329484
N222	N	0.360117	1.655771	-0.342711
H223	H	0.340586	1.690374	-0.378212
H224	H	0.152233	1.679568	-0.310289
N225	N	0.517433	0.767027	-0.130523
N226	N	0.565212	0.688190	-0.117316
H227	H	0.584770	0.603243	-0.081811
N228	N	0.242550	1.602316	-0.329519
N229	N	0.203028	1.688161	-0.369013
H230	H	0.206595	1.722858	-0.404525
H231	H	-0.139856	1.336518	-0.076168
N232	N	0.407881	1.243241	-0.779878
N233	N	0.372200	1.269551	-0.761245
H234	H	0.352654	1.354504	-0.764830
H235	H	0.241597	0.791526	0.049222
N236	N	0.332020	1.407921	-0.240090
N237	N	0.345202	1.354282	-0.263181
H238	H	0.380704	1.319598	-0.266783
H239	H	0.511820	0.592479	0.239161
H240	H	0.603448	0.592339	-0.049077
H241	H	0.012700	0.673739	0.076339
N242	N	0.517443	0.408168	0.329620
N243	N	0.541637	0.451104	0.334043
H244	H	0.561192	0.416462	0.369542
N245	N	-0.297187	0.767068	0.054863
N246	N	-0.336700	0.767096	0.054855
H247	H	-0.333119	0.682159	0.074398
N248	N	-0.406757	1.243123	-0.054674
N249	N	-0.446262	1.243119	-0.054672
H250	H	-0.481776	1.328065	-0.074215
H251	H	0.538920	0.673736	-0.397462
H252	H	0.538915	0.673732	-0.317189
N253	N	0.380785	1.360906	-0.470691
N254	N	0.356597	1.466030	-0.514635
H255	H	0.337045	1.550993	-0.518229
H256	H	0.223519	1.417914	-0.140735
H257	H	0.241592	1.592427	0.049202
N258	N	0.380792	1.360925	-0.560115
N259	N	0.356603	1.466037	-0.564531
H260	H	0.337050	1.551010	-0.600027
H261	H	-0.316292	1.218756	-0.049069
N262	N	0.462669	0.310958	0.319592
N263	N	0.486869	0.268080	0.363527
H264	H	0.486878	0.198735	0.395455
H265	H	0.152277	1.679694	0.000039
N266	N	0.133030	1.602457	-0.054735
N267	N	0.093534	1.688316	-0.054728
H268	H	0.058015	1.723027	-0.074273
H269	H	-0.087380	1.336546	-0.076168
N270	N	-0.008155	1.360957	-0.081783
N271	N	-0.052111	1.466076	-0.105968
H272	H	-0.055715	1.551043	-0.125516
H273	H	0.683709	0.417905	-0.049078
H274	H	0.143235	1.218825	-0.049110
N275	N	0.407879	0.408088	0.220093
N276	N	0.360101	0.483194	0.197009
H277	H	0.340554	0.448507	0.193423
N278	N	0.222469	1.243243	-0.054732
N279	N	0.199376	1.322083	-0.102502
H280	H	0.195781	1.407038	-0.122052
N281	N	-0.230312	1.360917	-0.081779
N282	N	-0.234745	1.466038	-0.105968
H283	H	-0.270253	1.551003	-0.125518
H284	H	0.511818	0.791580	-0.760843
N285	N	0.702808	0.602332	0.130676
N286	N	0.725896	0.527193	0.117479
H287	H	0.729484	0.561847	0.081976
N288	N	0.517454	0.767138	-0.670377
N289	N	0.541647	0.662027	-0.665963
H290	H	0.561208	0.577053	-0.630466
N291	N	0.792260	0.408045	0.220096
N292	N	0.796678	0.450966	0.176147
H293	H	0.832181	0.416302	0.172547
H294	H	0.538920	0.673769	-0.530205
N295	N	0.593283	0.602334	0.240234
N296	N	0.580105	0.527176	0.263325
H297	H	0.544605	0.561808	0.266931
N298	N	0.544538	0.649339	-0.439745
N299	N	0.568726	0.544230	-0.435333
H300	H	0.588278	0.459255	-0.399837
H301	H	0.413477	1.218709	-0.239017
N302	N	0.517423	0.767030	-0.219963
N303	N	0.541609	0.661906	-0.176018
H304	H	0.561158	0.576943	-0.172425
H305	H	0.701798	0.592301	0.049254
H306	H	0.413488	1.218734	-0.319285
H307	H	0.773025	0.330652	0.000079
H308	H	0.386411	1.336548	-0.602411
