data_functionalizedCrystal
_audit_creation_method	'MofGen! by Chris Wilmer'
_symmetry_space_group_name_H-M	'P1'
_symmetry_Int_Tables_number	1
_symmetry_cell_setting	triclinic
loop_
_symmetry_equiv_pos_as_xyz
  x,y,z
_cell_length_a	27.731994
_cell_length_b	27.731993
_cell_length_c	26.809956
_cell_angle_alpha	90.002784
_cell_angle_beta	89.987196
_cell_angle_gamma	97.379399
loop_
_atom_site_label
_atom_site_type_symbol
_atom_site_fract_x
_atom_site_fract_y
_atom_site_fract_z
O1	O	-0.057386	0.640937	-0.041337
O2	O	0.442614	1.140937	0.458663
O3	O	-0.066159	0.500138	-0.041366
O4	O	0.433841	1.000138	0.458634
O5	O	0.008627	0.574924	-0.041358
O6	O	0.508627	1.074924	0.458642
O7	O	-0.132172	0.566151	-0.041345
O8	O	0.367828	1.066151	0.458655
O9	O	0.008615	0.574910	0.041601
O10	O	0.508615	1.074910	0.541601
O11	O	-0.066171	0.500124	0.041593
O12	O	0.433829	1.000124	0.541593
O13	O	-0.057398	0.640923	0.041622
O14	O	0.442602	1.140923	0.541622
Zn15	Zn	-0.061786	0.570521	0.054779
Zn16	Zn	0.438214	1.070521	0.554779
Zn17	Zn	-0.061771	0.570540	-0.054523
Zn18	Zn	0.438229	1.070540	0.445477
O19	O	-0.132184	0.566137	0.041615
O20	O	0.367816	1.066137	0.541615
C21	C	-0.065985	0.482124	0.000110
C22	C	0.434015	0.982124	0.500110
C23	C	-0.065443	0.428468	0.000098
C24	C	0.434557	0.928468	0.500098
C25	C	-0.061506	0.045316	-0.045099
C26	C	0.438494	0.545316	0.454901
C27	C	-0.063573	0.246973	-0.045112
C28	C	0.436427	0.746973	0.454888
O29	O	-0.063815	0.273053	-0.083572
O30	O	0.436185	0.773053	0.416428
N31	N	-0.063838	0.272186	0.000108
N32	N	0.436162	0.772186	0.500108
C33	C	-0.063583	0.246981	0.045334
C34	C	0.436417	0.746981	0.545334
O35	O	-0.063850	0.273054	0.083797
O36	O	0.436150	0.773054	0.583797
C37	C	-0.061512	0.045326	0.045347
C38	C	0.438488	0.545326	0.545347
C39	C	-0.061252	0.020115	0.000124
C40	C	0.438748	0.520115	0.500124
C41	C	-0.061245	0.020105	-0.090318
C42	C	0.438755	0.520105	0.409682
C43	C	-0.060731	-0.030306	-0.090315
C44	C	0.439269	0.469694	0.409685
C45	C	-0.060478	-0.055507	-0.045091
C46	C	0.439522	0.444493	0.454909
C47	C	-0.060738	-0.030297	0.000128
C48	C	0.439262	0.469703	0.500128
C49	C	-0.061253	0.020123	0.090573
C50	C	0.438747	0.520123	0.590573
C51	C	-0.060735	-0.030294	0.090572
C52	C	0.439265	0.469706	0.590572
C53	C	-0.060475	-0.055505	0.045349
C54	C	0.439525	0.444495	0.545349
C55	C	-0.059970	-0.105909	0.045355
C56	C	0.440030	0.394091	0.545355
N57	N	-0.059705	-0.131122	0.000135
N58	N	0.440295	0.368878	0.500135
C59	C	-0.059959	-0.105921	-0.045088
C60	C	0.440041	0.394079	0.454912
C61	C	-0.064671	0.352853	0.045324
C62	C	0.435329	0.852853	0.545324
C63	C	-0.065189	0.403267	0.045321
C64	C	0.434811	0.903267	0.545321
C65	C	-0.065178	0.403255	-0.045126
C66	C	0.434822	0.903255	0.454874
C67	C	-0.064663	0.352840	-0.045122
C68	C	0.435337	0.852840	0.454878
C69	C	-0.064406	0.327641	0.000104
C70	C	0.435594	0.827641	0.500104
C71	C	-0.058880	-0.211789	-0.045077
C72	C	0.441120	0.288211	0.454923
C73	C	-0.058368	-0.262205	-0.045069
C74	C	0.441632	0.237795	0.454931
C75	C	-0.058376	-0.262189	0.045377
C76	C	0.441624	0.237811	0.545377
C77	C	-0.058891	-0.211777	0.045370
C78	C	0.441109	0.288223	0.545370
C79	C	-0.059141	-0.186578	0.000139
C80	C	0.440859	0.313422	0.500139
O81	O	-0.059722	-0.132019	0.083794
O82	O	0.440278	0.367981	0.583794
O83	O	-0.059681	-0.132001	-0.083545
O84	O	0.440319	0.367999	0.416455
C85	C	-0.062020	0.095728	-0.045103
C86	C	0.437980	0.595728	0.454897
C87	C	-0.062280	0.120938	0.000117
C88	C	0.437720	0.620938	0.500117
C89	C	-0.062027	0.095737	0.045340
C90	C	0.437973	0.595737	0.545340
C91	C	-0.062799	0.171352	0.000113
C92	C	0.437201	0.671352	0.500113
C93	C	-0.063052	0.196553	-0.045110
C94	C	0.436948	0.696553	0.454890
C95	C	-0.062788	0.171340	-0.090330
C96	C	0.437212	0.671340	0.409670
C97	C	-0.062274	0.120929	-0.090326
C98	C	0.437726	0.620929	0.409674
C99	C	-0.062292	0.120950	0.090560
C100	C	0.437708	0.620950	0.590560
C101	C	-0.062806	0.171361	0.090552
C102	C	0.437194	0.671361	0.590552
C103	C	-0.063060	0.196562	0.045329
C104	C	0.436940	0.696562	0.545329
C105	C	-0.150185	0.566324	0.000137
C106	C	0.349815	1.066324	0.500137
C107	C	-0.203841	0.566867	0.000143
C108	C	0.296159	1.066867	0.500143
C109	C	-0.536553	0.570290	-0.045100
C110	C	-0.036553	1.070290	0.454900
C111	C	-0.738211	0.572352	-0.045107
C112	C	-0.238211	1.072352	0.454893
O113	O	-0.764278	0.572646	-0.083566
O114	O	-0.264278	1.072646	0.416434
N115	N	-0.763432	0.572600	0.000114
N116	N	-0.263432	1.072600	0.500114
C117	C	-0.738235	0.572336	0.045340
C118	C	-0.238235	1.072336	0.545340
O119	O	-0.764313	0.572600	0.083803
O120	O	-0.264313	1.072600	0.583803
C121	C	-0.536578	0.570278	0.045346
C122	C	-0.036578	1.070278	0.545346
C123	C	-0.511360	0.570025	0.000123
C124	C	-0.011360	1.070025	0.500123
C125	C	-0.511335	0.570038	-0.090320
C126	C	-0.011335	1.070038	0.409680
C127	C	-0.460924	0.569520	-0.090318
C128	C	0.039076	1.069520	0.409682
C129	C	-0.435731	0.569254	-0.045095
C130	C	0.064269	1.069254	0.454905
C131	C	-0.460949	0.569507	0.000125
C132	C	0.039051	1.069507	0.500125
C133	C	-0.511381	0.570018	0.090572
C134	C	-0.011381	1.070018	0.590572
C135	C	-0.460963	0.569504	0.090569
C136	C	0.039037	1.069504	0.590569
C137	C	-0.435746	0.569251	0.045345
C138	C	0.064254	1.069251	0.545345
C139	C	-0.385345	0.568724	0.045349
C140	C	0.114655	1.068724	0.545349
N141	N	-0.360124	0.568475	0.000128
N142	N	0.139876	1.068475	0.500128
C143	C	-0.385317	0.568741	-0.045094
C144	C	0.114683	1.068741	0.454906
C145	C	-0.844108	0.573416	0.045333
C146	C	-0.344108	1.073416	0.545333
C147	C	-0.894522	0.573929	0.045332
C148	C	-0.394522	1.073929	0.545332
C149	C	-0.894495	0.573946	-0.045115
C150	C	-0.394495	1.073946	0.454885
C151	C	-0.844080	0.573429	-0.045113
C152	C	-0.344080	1.073429	0.454887
C153	C	-0.818887	0.573167	0.000113
C154	C	-0.318887	1.073167	0.500113
C155	C	-0.279450	0.567652	-0.045086
C156	C	0.220550	1.067652	0.454914
C157	C	-0.229035	0.567132	-0.045080
C158	C	0.270965	1.067132	0.454920
C159	C	-0.229066	0.567118	0.045367
C160	C	0.270934	1.067118	0.545367
C161	C	-0.279478	0.567636	0.045361
C162	C	0.220522	1.067636	0.545361
C163	C	-0.304668	0.567904	0.000131
C164	C	0.195332	1.067904	0.500131
O165	O	-0.359246	0.568435	0.083788
O166	O	0.140754	1.068435	0.583788
O167	O	-0.359228	0.568488	-0.083551
O168	O	0.140772	1.068488	0.416449
C169	C	-0.586964	0.570808	-0.045102
C170	C	-0.086964	1.070808	0.454898
C171	C	-0.612182	0.571061	0.000118
C172	C	-0.112182	1.071061	0.500118
C173	C	-0.586989	0.570796	0.045341
C174	C	-0.086989	1.070796	0.545341
C175	C	-0.662596	0.571574	0.000117
C176	C	-0.162596	1.071574	0.500117
C177	C	-0.687789	0.571840	-0.045106
C178	C	-0.187789	1.071840	0.454894
C179	C	-0.662568	0.571591	-0.090327
C180	C	-0.162568	1.071591	0.409673
C181	C	-0.612157	0.571073	-0.090324
C182	C	-0.112157	1.071073	0.409676
C183	C	-0.612210	0.571044	0.090561
C184	C	-0.112210	1.071044	0.590561
C185	C	-0.662621	0.571561	0.090556
C186	C	-0.162621	1.071561	0.590556
C187	C	-0.687814	0.571827	0.045333
C188	C	-0.187814	1.071827	0.545333
C189	C	0.026628	0.574737	0.000119
C190	C	0.526628	1.074737	0.500119
C191	C	0.080285	0.574195	0.000110
C192	C	0.580285	1.074195	0.500110
C193	C	-0.057572	0.658938	0.000146
C194	C	0.442428	1.158938	0.500146
C195	C	-0.058114	0.712594	0.000154
C196	C	0.441886	1.212594	0.500154
N197	N	-0.061796	0.570512	0.129375
N198	N	0.438204	1.070512	0.629375
N199	N	-0.061757	0.570553	-0.129119
N200	N	0.438243	1.070553	0.370881
C201	C	-0.028664	0.603651	0.474005
C202	C	0.471336	1.103651	0.974005
C203	C	-0.028656	0.603662	0.682883
C204	C	0.471344	1.103662	1.182883
O205	O	-0.000489	0.631818	0.709890
O206	O	0.499511	1.131818	1.209890
N207	N	-0.061760	0.570543	0.709003
N208	N	0.438240	1.070543	1.209003
C209	C	-0.094866	0.537416	0.682900
C210	C	0.405134	1.037416	1.182900
O211	O	-0.123020	0.509242	0.709909
O212	O	0.376980	1.009242	1.209909
C213	C	-0.094871	0.537402	0.474023
C214	C	0.405129	1.037402	0.974023
C215	C	-0.061768	0.570527	0.447906
C216	C	0.438232	1.070527	0.947906
C217	C	0.004437	0.636773	0.447888
C218	C	0.504437	1.136773	0.947888
C219	C	0.004433	0.636772	0.395672
C220	C	0.504433	1.136772	0.895672
C221	C	-0.028672	0.603648	0.369572
C222	C	0.471328	1.103648	0.869572
C223	C	-0.061772	0.570526	0.395690
C224	C	0.438228	1.070526	0.895690
C225	C	-0.127974	0.504273	0.447921
C226	C	0.372026	1.004273	0.947921
C227	C	-0.127972	0.504272	0.395699
C228	C	0.372028	1.004272	0.895699
C229	C	-0.094869	0.537397	0.369582
C230	C	0.405131	1.037397	0.869582
C231	C	-0.094881	0.537401	0.317374
C232	C	0.405119	1.037401	0.817374
N233	N	-0.061777	0.570521	0.291254
N234	N	0.438223	1.070521	0.791254
C235	C	-0.028672	0.603644	0.317353
C236	C	0.471328	1.103644	0.817353
C237	C	-0.094862	0.537426	0.792563
C238	C	0.405138	1.037426	1.292563
C239	C	-0.094862	0.537430	0.844782
C240	C	0.405138	1.037430	1.344782
C241	C	-0.028651	0.603676	0.844761
C242	C	0.471349	1.103676	1.344761
C243	C	-0.028654	0.603674	0.792541
C244	C	0.471346	1.103674	1.292541
C245	C	-0.061758	0.570545	0.766443
C246	C	0.438242	1.070545	1.266443
C247	C	-0.028683	0.603639	0.207695
C248	C	0.471317	1.103639	0.707695
C249	C	-0.028692	0.603636	0.155475
C250	C	0.471308	1.103636	0.655475
C251	C	-0.094900	0.537388	0.155500
C252	C	0.405100	1.037388	0.655500
C253	C	-0.094894	0.537393	0.207716
C254	C	0.405106	1.037393	0.707716
C255	C	-0.061781	0.570520	0.233813
C256	C	0.438219	1.070520	0.733813
O257	O	-0.123029	0.509256	0.290335
O258	O	0.376971	1.009256	0.790335
O259	O	-0.000516	0.631806	0.290335
O260	O	0.499484	1.131806	0.790335
C261	C	-0.028660	0.603652	0.526221
C262	C	0.471340	1.103652	1.026221
C263	C	-0.061760	0.570530	0.552338
C264	C	0.438240	1.070530	1.052338
C265	C	-0.094865	0.537407	0.526239
C266	C	0.405135	1.037407	1.026239
C267	C	-0.061760	0.570534	0.604557
C268	C	0.438240	1.070534	1.104557
C269	C	-0.028655	0.603658	0.630657
C270	C	0.471345	1.103658	1.130657
C271	C	0.004448	0.636777	0.604537
C272	C	0.504448	1.136777	1.104537
C273	C	0.004445	0.636776	0.552320
C274	C	0.504445	1.136776	1.052320
C275	C	-0.127969	0.504287	0.552359
C276	C	0.372031	1.004287	1.052359
C277	C	-0.127962	0.504292	0.604576
C278	C	0.372038	1.004292	1.104576
C279	C	-0.094858	0.537415	0.630675
C280	C	0.405142	1.037415	1.130675
H281	H	-0.064452	0.332317	-0.081947
H282	H	0.435548	0.832317	0.418053
H283	H	-0.001699	0.630647	0.771280
H284	H	0.498301	1.130647	1.271280
F285	F	0.006581	0.638928	0.872547
F286	F	0.506581	1.138928	1.372547
H287	H	-0.121822	0.510461	0.866043
H288	H	0.378178	1.010461	1.366043
F289	F	-0.130099	0.502165	0.764792
F290	F	0.369901	1.002165	1.264792
H291	H	-0.060517	-0.050828	-0.127140
H292	H	0.439483	0.449172	0.372860
F293	F	-0.689390	0.571873	-0.138456
F294	F	-0.189390	1.071873	0.361544
F295	F	-0.921357	0.574188	0.093465
F296	F	-0.421357	1.074188	0.593465
F297	F	-0.202246	0.566832	0.093493
F298	F	0.297754	1.066832	0.593493
H299	H	-0.440454	0.569292	0.127398
H300	H	0.059546	1.069292	0.627398
F301	F	-0.817302	0.573136	0.093472
F302	F	-0.317302	1.073136	0.593472
F303	F	-0.163206	0.469010	0.367927
F304	F	0.336794	0.969010	0.867927
H305	H	0.031389	0.663744	0.374410
H306	H	0.531389	1.163744	0.874410
H307	H	-0.061450	0.040619	-0.127147
H308	H	0.438550	0.540619	0.372853
F309	F	-0.306252	0.567938	-0.093225
F310	F	0.193748	1.067938	0.406775
F311	F	-0.163200	0.469035	0.632366
F312	F	0.336800	0.969035	1.132366
H313	H	0.031396	0.663746	0.469133
H314	H	0.531396	1.163746	0.969133
F315	F	-0.065475	0.430091	0.093454
F316	F	0.434525	0.930091	0.593454
H317	H	-0.154926	0.477313	0.531113
H318	H	0.345074	0.977313	1.031113
F319	F	-0.306317	0.567903	0.093493
F320	F	0.193683	1.067903	0.593493
F321	F	-0.058108	-0.289019	0.093505
F322	F	0.441892	0.210981	0.593505
H323	H	-0.531842	0.570255	-0.127147
H324	H	-0.031842	1.070255	0.372853
H325	H	-0.591629	0.570867	-0.127150
H326	H	-0.091629	1.070867	0.372850
H327	H	-0.060529	-0.050810	0.127402
H328	H	0.439471	0.449190	0.627402
F329	F	-0.130132	0.502138	0.127715
F330	F	0.369868	1.002138	0.627715
H331	H	-0.208505	0.566924	-0.081908
H332	H	0.291495	1.066924	0.418092
F333	F	-0.163206	0.469016	0.475708
F334	F	0.336794	0.969016	0.975708
H335	H	-0.531904	0.570229	0.127398
H336	H	-0.031904	1.070229	0.627398
H337	H	-0.591702	0.570829	0.127388
H338	H	-0.091702	1.070829	0.627388
H339	H	-0.683150	0.571763	0.127385
H340	H	-0.183150	1.071763	0.627385
H341	H	-0.001735	0.630612	0.134212
H342	H	0.498265	1.130612	0.634212
H343	H	-0.062997	0.191867	-0.127152
H344	H	0.437003	0.691867	0.372848
H345	H	0.031402	0.663750	0.625795
H346	H	0.531402	1.163750	1.125795
H347	H	-0.001720	0.630614	0.228937
H348	H	0.498280	1.130614	0.728937
H349	H	-0.058158	-0.282730	-0.081897
H350	H	0.441842	0.217270	0.418103
H351	H	0.031400	0.663749	0.531060
H352	H	0.531400	1.163749	1.031060
H353	H	-0.059084	-0.191278	-0.081909
H354	H	0.440916	0.308722	0.418091
H355	H	-0.064459	0.332340	0.082155
H356	H	0.435541	0.832340	0.582155
F357	F	-0.065450	0.430084	-0.093256
F358	F	0.434550	0.930084	0.406744
H359	H	-0.062062	0.100407	-0.127151
H360	H	0.437938	0.600407	0.372849
F361	F	-0.130131	0.502142	0.235511
F362	F	0.369869	1.002142	0.735511
F363	F	-0.061530	0.046943	0.138707
F364	F	0.438470	0.546943	0.638707
F365	F	-0.062025	0.094135	0.138695
F366	F	0.437975	0.594135	0.638695
H367	H	-0.059112	-0.191251	0.082194
H368	H	0.440888	0.308749	0.582194
H369	H	-0.063022	0.191883	0.127381
H370	H	0.436978	0.691883	0.627381
H371	H	-0.440396	0.569317	-0.127144
H372	H	0.059604	1.069317	0.372856
H373	H	-0.823551	0.573221	-0.081938
H374	H	-0.323551	1.073221	0.418062
H375	H	-0.915016	0.574158	-0.081937
H376	H	-0.415016	1.074158	0.418063
