data_functionalizedCrystal
_audit_creation_method	'MofGen! by Chris Wilmer'
_symmetry_space_group_name_H-M	'P1'
_symmetry_Int_Tables_number	1
_symmetry_cell_setting	triclinic
loop_
_symmetry_equiv_pos_as_xyz
  x,y,z
_cell_length_a	18.050590
_cell_length_b	19.121747
_cell_length_c	18.050582
_cell_angle_alpha	87.581618
_cell_angle_beta	89.999233
_cell_angle_gamma	87.579812
loop_
_atom_site_label
_atom_site_type_symbol
_atom_site_fract_x
_atom_site_fract_y
_atom_site_fract_z
Zn1	Zn	1.147900	-0.279844	0.432227
Zn2	Zn	1.153102	-0.397280	0.313335
Zn3	Zn	1.023719	-0.279832	0.308085
Zn4	Zn	1.028956	-0.397229	0.437516
O5	O	1.088420	-0.338546	0.372791
O6	O	1.252516	-0.295448	0.416440
O7	O	1.135924	-0.381717	0.208715
O8	O	1.035823	-0.181556	0.320142
O9	O	1.256338	-0.381728	0.329091
O10	O	1.127059	-0.181564	0.411349
O11	O	1.040867	-0.295429	0.204857
O12	O	0.920488	-0.295379	0.325270
O13	O	1.044749	-0.381641	0.540738
O14	O	0.924336	-0.381630	0.420362
O15	O	1.132137	-0.295398	0.536852
O16	O	1.141003	-0.495551	0.334219
O17	O	1.049793	-0.495514	0.425453
C18	C	0.895465	-0.338498	0.372821
C19	C	0.812919	-0.338495	0.372852
C20	C	0.615589	-0.385532	0.424451
C21	C	0.563310	-0.321496	0.439837
C22	C	0.661791	-0.338534	0.372817
C23	C	0.566989	-0.402606	0.357432
C24	C	0.515808	-0.338577	0.372785
C25	C	0.610598	-0.274464	0.388237
C26	C	0.614283	-0.355617	0.305802
C27	C	0.562025	-0.291537	0.321161
C28	C	0.745888	-0.338510	0.372837
C29	C	0.431712	-0.338594	0.372765
C30	C	1.096551	-0.521015	0.380996
C31	C	1.100097	-0.599076	0.384531
C32	C	1.122596	-1.040570	0.406924
C33	C	1.119255	-0.967223	0.403596
C34	C	1.070121	-0.930612	0.354413
C35	C	1.024331	-0.967351	0.308551
C36	C	1.027675	-1.040696	0.311876
C37	C	1.057651	-0.709160	0.341993
C38	C	1.054308	-0.635810	0.338674
C39	C	1.149234	-0.635687	0.433718
C40	C	1.152572	-0.709034	0.437041
C41	C	1.106784	-0.745766	0.391176
C42	C	1.066704	-0.855640	0.351012
C43	C	1.110205	-0.820737	0.394574
C44	C	1.282127	-0.338595	0.372761
C45	C	1.364674	-0.338616	0.372749
C46	C	1.088447	-0.338515	0.566495
C47	C	1.088459	-0.338502	0.649040
C48	C	1.080277	-0.155365	0.364570
C49	C	1.076807	-0.077304	0.361066
C50	C	1.088432	-0.338526	0.179838
C51	C	1.088556	-0.338342	0.097284
C52	C	1.040973	-0.385336	0.850601
C53	C	1.109502	-0.402516	0.900749
C54	C	1.088493	-0.338448	0.800168
C55	C	1.020000	-0.321249	0.897101
C56	C	1.088520	-0.338398	0.946151
C57	C	1.157060	-0.355661	0.849230
C58	C	1.067511	-0.274365	0.845577
C59	C	1.136086	-0.291520	0.895702
C60	C	1.088477	-0.338479	0.716071
C61	C	1.088545	-0.338367	1.030246
H62	H	0.547734	-0.456773	0.344434
H63	H	1.026697	-0.825825	0.310968
H64	H	0.962065	-0.306724	0.918156
H65	H	0.538710	-0.251765	0.277480
H66	H	0.639038	-0.425207	0.468160
Br67	Br	1.189276	-1.090250	0.473679
Br68	Br	1.211371	-0.585832	0.495961
H69	H	1.192590	-0.738838	0.477082
Br70	Br	0.987628	-0.586123	0.271916
Br71	Br	0.965536	-1.090551	0.249633
Br72	Br	0.651559	-0.379694	0.211377
Br73	Br	0.974060	-0.451507	0.817480
Br74	Br	1.253654	-0.379981	0.814302
Br75	Br	1.181401	-0.917373	0.465833
Br76	Br	1.139112	-0.492805	0.940982
Br77	Br	0.526035	-0.297433	0.534271
Br78	Br	0.642526	-0.184154	0.410011
H79	H	1.150212	-0.850549	0.434616
H80	H	1.020367	-0.739059	0.304647
H81	H	0.984327	-0.937538	0.268502
Br82	Br	1.203162	-0.225394	0.928600
H83	H	1.049728	-0.220208	0.821422
