data_functionalizedCrystal
_audit_creation_method	'MofGen! by Chris Wilmer'
_symmetry_space_group_name_H-M	'P1'
_symmetry_Int_Tables_number	1
_symmetry_cell_setting	triclinic
loop_
_symmetry_equiv_pos_as_xyz
  x,y,z
_cell_length_a	12.837943
_cell_length_b	22.610064
_cell_length_c	12.811415
_cell_angle_alpha	95.426764
_cell_angle_beta	89.411917
_cell_angle_gamma	90.007937
loop_
_atom_site_label
_atom_site_type_symbol
_atom_site_fract_x
_atom_site_fract_y
_atom_site_fract_z
O1	O	1.376641	0.063813	0.272960
O2	O	1.074778	0.063093	0.259476
O3	O	1.233302	0.055296	0.114187
O4	O	1.218117	0.071610	0.418249
O5	O	1.233274	-0.043072	0.114208
O6	O	1.074749	-0.035275	0.259497
O7	O	1.376613	-0.034556	0.272981
Zn8	Zn	1.225677	-0.050533	0.266242
Zn9	Zn	1.225714	0.079071	0.266215
O10	O	1.218089	-0.026758	0.418270
C11	C	1.036123	0.013665	0.254931
C12	C	0.920987	0.012938	0.241345
N13	N	1.225659	-0.138985	0.266261
C14	C	0.680735	0.021692	0.404673
C15	C	0.572554	0.021009	0.391913
C16	C	0.596442	0.010883	0.203065
C17	C	0.704623	0.011566	0.215825
C18	C	0.746766	0.016972	0.316632
C19	C	0.854949	0.017660	0.329392
C20	C	0.878834	0.007530	0.140545
C21	C	0.770653	0.006846	0.127785
C22	C	1.295912	-0.551081	0.201892
C23	C	1.295917	-0.613001	0.201885
O24	O	1.355604	-0.647956	0.147168
N25	N	1.225713	-0.640526	0.266193
C26	C	1.155492	-0.606127	0.330504
O27	O	1.095778	-0.635225	0.385202
C28	C	1.155483	-0.544208	0.330505
C29	C	1.225698	-0.516687	0.266201
C30	C	1.366121	-0.523559	0.137592
C31	C	1.366117	-0.461643	0.137601
C32	C	1.295903	-0.427249	0.201910
C33	C	1.225694	-0.454770	0.266210
C34	C	1.085257	-0.509811	0.394810
C35	C	1.085253	-0.447888	0.394805
C36	C	1.155469	-0.420367	0.330500
C37	C	1.155476	-0.358460	0.330527
N38	N	1.225680	-0.330935	0.266219
C39	C	1.295894	-0.365330	0.201911
C40	C	1.155516	-0.736161	0.330496
C41	C	1.155529	-0.798078	0.330502
C42	C	1.295954	-0.804948	0.201881
C43	C	1.295944	-0.743029	0.201882
C44	C	1.225720	-0.708636	0.266188
C45	C	1.295880	-0.235301	0.201934
C46	C	1.295873	-0.173379	0.201952
C47	C	1.155446	-0.166515	0.330568
C48	C	1.155456	-0.228431	0.330555
C49	C	1.225678	-0.262823	0.266230
O50	O	1.095817	-0.323467	0.385213
O51	O	1.355589	-0.336225	0.147212
C52	C	1.415268	0.014874	0.277526
C53	C	1.530404	0.015605	0.291112
C54	C	1.232436	0.004010	0.075009
C55	C	1.229887	-0.002251	-0.041763
N56	N	1.225740	0.167522	0.266189
C57	C	1.225107	0.093236	-0.261202
C58	C	1.222711	0.087356	-0.370919
C59	C	1.222691	-0.019892	-0.370916
C60	C	1.225087	-0.014011	-0.261199
C61	C	1.226296	0.042554	-0.206346
C62	C	1.228700	0.048434	-0.096627
C63	C	1.228673	-0.058813	-0.096626
C64	C	1.226277	-0.064693	-0.206343
C65	C	1.218954	0.024528	0.457448
C66	C	1.221504	0.030794	0.574220
H67	H	0.889259	0.022061	0.411474
C68	C	0.437029	-0.024451	0.487129
C69	C	0.499973	0.026200	0.488690
H70	H	0.392226	-0.021247	0.546882
H71	H	0.396448	-0.027763	0.425278
H72	H	0.479730	-0.058695	0.488186
H73	H	0.457273	0.060443	0.487625
H74	H	0.540558	0.029518	0.550557
H75	H	1.221698	-0.065945	-0.415597
H76	H	1.098290	-0.250839	0.382929
H77	H	1.353055	-0.150973	0.149588
C78	C	0.646262	0.031638	0.590060
C79	C	0.727066	0.027637	0.515476
H80	H	0.674866	0.035305	0.658465
H81	H	0.604576	0.065462	0.581149
H82	H	0.604553	-0.003145	0.581157
H83	H	0.768771	0.062422	0.524374
H84	H	0.768769	-0.006190	0.524391
C85	C	1.475216	-0.826344	0.158267
C86	C	1.373130	-0.842764	0.131185
H87	H	1.522856	-0.849694	0.114629
H88	H	1.485262	-0.785535	0.149055
H89	H	1.486767	-0.832676	0.229482
H90	H	1.361577	-0.836428	0.059971
H91	H	1.363080	-0.883582	0.140388
H92	H	1.229645	-0.100081	-0.051950
C93	C	1.134538	-0.133373	-0.326845
C94	C	1.224956	-0.126866	-0.266649
H95	H	1.133732	-0.171756	-0.364078
H96	H	1.075080	-0.128754	-0.282081
H97	H	1.133493	-0.104026	-0.375214
H98	H	1.225997	-0.156211	-0.218274
H99	H	1.284429	-0.131492	-0.311417
H100	H	0.562111	0.006433	0.120992
H101	H	0.736326	0.002438	0.045710
C102	C	1.055274	0.004085	0.076245
C103	C	0.951419	0.002341	0.043762
H104	H	1.100082	0.000881	0.016496
H105	H	1.068094	0.040577	0.117124
H106	H	1.068081	-0.028029	0.117133
H107	H	0.938609	0.034458	0.002880
H108	H	0.938593	-0.034156	0.002866
C109	C	1.434687	-0.235855	0.074802
C110	C	1.373070	-0.273099	0.131229
H111	H	1.482345	-0.259190	0.031160
H112	H	1.391353	-0.213965	0.032697
H113	H	1.472165	-0.209157	0.122285
H114	H	1.335585	-0.299793	0.083747
H115	H	1.416409	-0.294998	0.173337
C116	C	1.232349	0.105071	0.071562
C117	C	1.230002	0.110609	-0.036326
H118	H	1.233149	0.143457	0.108784
H119	H	1.172347	0.084098	0.091490
H120	H	1.293156	0.083909	0.087580
H121	H	1.169191	0.131768	-0.052346
H122	H	1.290009	0.131591	-0.056262
H123	H	1.098364	-0.820481	0.382876
C124	C	1.063330	-0.571902	0.535457
C125	C	1.008067	-0.540053	0.465489
H126	H	1.015669	-0.590568	0.579095
H127	H	1.105135	-0.601251	0.497166
H128	H	1.106651	-0.545482	0.577573
H129	H	0.964751	-0.566474	0.423367
H130	H	0.966245	-0.510701	0.503784
C131	C	1.504905	-0.474673	0.010456
C132	C	1.443289	-0.431397	0.066902
H133	H	1.552542	-0.456002	-0.033200
H134	H	1.542396	-0.496272	0.057919
H135	H	1.461559	-0.501086	-0.031645
H136	H	1.486634	-0.404986	0.109010
H137	H	1.405795	-0.409788	0.019433
C138	C	1.222955	0.193954	-0.359896
C139	C	1.221393	0.143066	-0.431218
H140	H	1.222142	0.228349	-0.397124
H141	H	1.163493	0.194116	-0.315138
H142	H	1.284301	0.193914	-0.319067
H143	H	1.160043	0.143104	-0.472041
H144	H	1.280860	0.142905	-0.475994
H145	H	1.423297	-0.551558	0.085220
H146	H	1.353119	-0.720625	0.149519
H147	H	1.028065	-0.419888	0.447169
C148	C	1.016726	-0.735599	0.457647
C149	C	1.078332	-0.698358	0.401205
H150	H	0.969082	-0.712262	0.501303
H151	H	0.979241	-0.762294	0.410183
H152	H	1.060076	-0.757491	0.499749
H153	H	1.034983	-0.676469	0.359097
H154	H	1.115820	-0.671652	0.448676
H155	H	1.098281	-0.138501	0.382931
H156	H	1.226100	0.139294	-0.216540
