data_functionalizedCrystal
_audit_creation_method	'MofGen! by Chris Wilmer'
_symmetry_space_group_name_H-M	'P1'
_symmetry_Int_Tables_number	1
_symmetry_cell_setting	triclinic
loop_
_symmetry_equiv_pos_as_xyz
  x,y,z
_cell_length_a	23.532407
_cell_length_b	23.532407
_cell_length_c	13.330367
_cell_angle_alpha	89.990692
_cell_angle_beta	89.997789
_cell_angle_gamma	82.848678
loop_
_atom_site_label
_atom_site_type_symbol
_atom_site_fract_x
_atom_site_fract_y
_atom_site_fract_z
O1	O	0.755262	0.069134	-0.083308
O2	O	1.088595	0.402468	0.250025
O3	O	1.421929	0.735801	0.583358
O4	O	0.589399	0.079138	-0.083339
O5	O	0.922732	0.412471	0.249994
O6	O	1.256065	0.745804	0.583327
O7	O	0.677332	-0.008796	-0.083305
O8	O	1.010665	0.324538	0.250029
O9	O	1.343999	0.657871	0.583362
O10	O	0.667329	0.157068	-0.083343
O11	O	1.000662	0.490401	0.249990
O12	O	1.333995	0.823734	0.583324
O13	O	0.677319	-0.008798	0.083543
O14	O	1.010653	0.324536	0.416876
O15	O	1.343986	0.657869	0.750209
O16	O	0.589386	0.079136	0.083508
O17	O	0.922719	0.412469	0.416841
O18	O	1.256053	0.745802	0.750175
O19	O	0.755249	0.069133	0.083539
O20	O	1.088583	0.402466	0.416872
O21	O	1.421916	0.735799	0.750205
Cu22	Cu	0.672317	0.074134	0.098758
Cu23	Cu	1.005650	0.407467	0.432091
Cu24	Cu	1.338983	0.740801	0.765424
Cu25	Cu	0.672332	0.074136	-0.098558
Cu26	Cu	1.005665	0.407470	0.234775
Cu27	Cu	1.338998	0.740803	0.568108
O28	O	0.667316	0.157066	0.083504
O29	O	1.000649	0.490399	0.416837
O30	O	1.333983	0.823732	0.750171
C31	C	0.568176	0.078882	0.000081
C32	C	0.901510	0.412215	0.333414
C33	C	1.234843	0.745549	0.666747
C34	C	0.504959	0.078116	0.000070
C35	C	0.838293	0.411449	0.333403
C36	C	1.171626	0.744783	0.666736
C37	C	0.105856	0.125350	0.000104
C38	C	0.439190	0.458683	0.333437
C39	C	0.772523	0.792016	0.666771
C40	C	0.046456	0.124638	0.000110
C41	C	0.379789	0.457971	0.333444
C42	C	0.713123	0.791305	0.666777
O43	O	0.009711	0.168424	0.000137
O44	O	0.343045	0.501757	0.333470
O45	O	0.676378	0.835091	0.666803
N46	N	0.023830	0.072362	0.000121
N47	N	0.357163	0.405695	0.333454
N48	N	0.690496	0.739028	0.666788
C49	C	0.060607	0.020794	0.000135
C50	C	0.393941	0.354127	0.333469
C51	C	0.727274	0.687460	0.666802
O52	O	0.035908	-0.023737	0.000146
O53	O	0.369241	0.309596	0.333479
O54	O	0.702574	0.642930	0.666812
C55	C	0.120006	0.021506	0.000136
C56	C	0.453340	0.354839	0.333469
C57	C	0.786673	0.688172	0.666803
C58	C	0.142629	0.073785	0.000115
C59	C	0.475962	0.407119	0.333449
C60	C	0.809296	0.740452	0.666782
C61	C	0.128479	0.177625	0.000084
C62	C	0.461813	0.510958	0.333418
C63	C	0.795146	0.844292	0.666751
C64	C	0.187876	0.178336	0.000076
C65	C	0.521209	0.511670	0.333410
C66	C	0.854542	0.845003	0.666743
C67	C	0.224649	0.126772	0.000088
C68	C	0.557982	0.460105	0.333421
C69	C	0.891315	0.793439	0.666754
C70	C	0.202025	0.074496	0.000107
C71	C	0.535359	0.407830	0.333441
C72	C	0.868692	0.741163	0.666774
C73	C	0.156783	-0.030062	0.000158
C74	C	0.490116	0.303271	0.333491
C75	C	0.823450	0.636605	0.666824
C76	C	0.216185	-0.029345	0.000159
C77	C	0.549519	0.303988	0.333493
C78	C	0.882852	0.637321	0.666826
C79	C	0.238808	0.022934	0.000139
C80	C	0.572141	0.356268	0.333472
C81	C	0.905475	0.689601	0.666805
C82	C	0.298194	0.023643	0.000110
C83	C	0.631528	0.356977	0.333444
C84	C	0.964861	0.690310	0.666777
N85	N	0.320820	0.075920	0.000100
N86	N	0.654154	0.409253	0.333433
N87	N	0.987487	0.742586	0.666767
C88	C	0.284048	0.127484	0.000089
C89	C	0.617381	0.460817	0.333422
C90	C	0.950714	0.794151	0.666755
C91	C	-0.064135	0.019302	0.000135
C92	C	0.269198	0.352635	0.333469
C93	C	0.602532	0.685969	0.666802
C94	C	-0.123533	0.018589	0.000127
C95	C	0.209800	0.351923	0.333460
C96	C	0.543134	0.685256	0.666794
C97	C	-0.137680	0.122434	0.000104
C98	C	0.195653	0.455768	0.333437
C99	C	0.528986	0.789101	0.666771
C100	C	-0.078281	0.123146	0.000105
C101	C	0.255052	0.456480	0.333438
C102	C	0.588385	0.789813	0.666772
C103	C	-0.041509	0.071578	0.000125
C104	C	0.291824	0.404912	0.333458
C105	C	0.625158	0.738245	0.666791
C106	C	0.408784	0.128974	0.000071
C107	C	0.742118	0.462307	0.333404
C108	C	1.075451	0.795640	0.666737
C109	C	0.468186	0.129680	0.000058
C110	C	0.801520	0.463014	0.333392
C111	C	1.134853	0.796347	0.666725
C112	C	0.482329	0.025836	0.000087
C113	C	0.815662	0.359169	0.333420
C114	C	1.148995	0.692503	0.666753
C115	C	0.422932	0.025129	0.000094
C116	C	0.756265	0.358462	0.333427
C117	C	1.089598	0.691796	0.666760
C118	C	0.386160	0.076702	0.000089
C119	C	0.719494	0.410036	0.333422
C120	C	1.052827	0.743369	0.666756
O121	O	0.334974	-0.020119	0.000088
O122	O	0.668307	0.313214	0.333422
O123	O	1.001640	0.646547	0.666755
O124	O	0.308755	0.172007	0.000091
O125	O	0.642089	0.505340	0.333425
O126	O	0.975422	0.838674	0.666758
C127	C	0.677071	-0.030013	0.000122
C128	C	1.010404	0.303321	0.333455
C129	C	1.343738	0.636654	0.666788
C130	C	0.676305	-0.093230	0.000129
C131	C	1.009638	0.240104	0.333462
C132	C	1.342972	0.573437	0.666796
C133	C	0.723539	-0.492333	0.000083
C134	C	1.056872	-0.158999	0.333416
C135	C	1.390205	0.174334	0.666750
C136	C	0.722827	-0.551733	0.000075
C137	C	1.056160	-0.218400	0.333409
C138	C	1.389494	0.114934	0.666742
O139	O	0.766613	-0.588478	0.000046
O140	O	1.099946	-0.255144	0.333380
O141	O	1.433280	0.078189	0.666713
N142	N	0.670551	-0.574359	0.000066
N143	N	1.003884	-0.241026	0.333400
N144	N	1.337217	0.092307	0.666733
C145	C	0.618983	-0.537582	0.000055
C146	C	0.952316	-0.204248	0.333388
C147	C	1.285649	0.129085	0.666721
O148	O	0.574452	-0.562281	0.000045
O149	O	0.907785	-0.228948	0.333379
O150	O	1.241119	0.104385	0.666712
C151	C	0.619695	-0.478182	0.000055
C152	C	0.953028	-0.144849	0.333389
C153	C	1.286361	0.188484	0.666722
C154	C	0.671974	-0.455560	0.000074
C155	C	1.005308	-0.122227	0.333408
C156	C	1.338641	0.211107	0.666741
C157	C	0.775814	-0.469710	0.000101
C158	C	1.109147	-0.136376	0.333434
C159	C	1.442481	0.196957	0.666768
C160	C	0.776525	-0.410313	0.000111
C161	C	1.109859	-0.076980	0.333444
C162	C	1.443192	0.256353	0.666777
C163	C	0.724961	-0.373540	0.000102
C164	C	1.058294	-0.040207	0.333435
C165	C	1.391628	0.293126	0.666769
C166	C	0.672685	-0.396164	0.000084
C167	C	1.006019	-0.062830	0.333417
C168	C	1.339352	0.270503	0.666751
C169	C	0.568127	-0.441406	0.000037
C170	C	0.901460	-0.108073	0.333370
C171	C	1.234794	0.225261	0.666703
C172	C	0.568844	-0.382004	0.000036
C173	C	0.902177	-0.048670	0.333370
C174	C	1.235510	0.284663	0.666703
C175	C	0.621123	-0.359381	0.000056
C176	C	0.954457	-0.026048	0.333389
C177	C	1.287790	0.307286	0.666722
C178	C	0.621832	-0.299995	0.000085
C179	C	0.955166	0.033339	0.333419
C180	C	1.288499	0.366672	0.666752
N181	N	0.674109	-0.277368	0.000094
N182	N	1.007442	0.055965	0.333428
N183	N	1.340775	0.389298	0.666761
C184	C	0.725673	-0.314141	0.000103
C185	C	1.059006	0.019192	0.333436
C186	C	1.392340	0.352525	0.666769
C187	C	0.617491	-0.662324	0.000052
C188	C	0.950824	-0.328991	0.333385
C189	C	1.284158	0.004343	0.666718
C190	C	0.616778	-0.721722	0.000058
C191	C	0.950112	-0.388389	0.333392
C192	C	1.283445	-0.055055	0.666725
C193	C	0.720623	-0.735869	0.000077
C194	C	1.053957	-0.402536	0.333410
C195	C	1.387290	-0.069203	0.666744
C196	C	0.721335	-0.676470	0.000078
C197	C	1.054669	-0.343137	0.333411
C198	C	1.388002	-0.009804	0.666744
C199	C	0.669767	-0.639698	0.000061
C200	C	1.003101	-0.306365	0.333394
C201	C	1.336434	0.026969	0.666727
C202	C	0.727163	-0.189405	0.000124
C203	C	1.060496	0.143929	0.333457
C204	C	1.393829	0.477262	0.666790
C205	C	0.727869	-0.130003	0.000138
C206	C	1.061203	0.203331	0.333471
C207	C	1.394536	0.536664	0.666804
C208	C	0.624025	-0.115860	0.000114
C209	C	0.957358	0.217473	0.333447
C210	C	1.290692	0.550806	0.666780
C211	C	0.623318	-0.175257	0.000105
C212	C	0.956651	0.158076	0.333439
C213	C	1.289985	0.491409	0.666772
C214	C	0.674891	-0.212029	0.000107
C215	C	1.008225	0.121305	0.333440
C216	C	1.341558	0.454638	0.666774
O217	O	0.578070	-0.263215	0.000110
O218	O	0.911403	0.070118	0.333443
O219	O	1.244736	0.403451	0.666777
O220	O	0.770196	-0.289433	0.000099
O221	O	1.103529	0.043900	0.333432
O222	O	1.436863	0.377233	0.666766
C223	C	0.776472	0.069388	0.000117
C224	C	1.109805	0.402722	0.333450
C225	C	1.443138	0.736055	0.666783
C226	C	0.839689	0.070154	0.000121
C227	C	1.173022	0.403487	0.333454
C228	C	1.506355	0.736821	0.666788
C229	C	0.667577	0.178283	0.000076
C230	C	1.000910	0.511616	0.333409
C231	C	1.334244	0.844949	0.666742
C232	C	0.668343	0.241500	0.000062
C233	C	1.001676	0.574833	0.333395
C234	C	1.335010	0.908167	0.666728
N235	N	0.672310	0.074132	0.237539
N236	N	1.005644	0.407465	0.570873
N237	N	1.338977	0.740799	0.904206
N238	N	0.672342	0.074134	-0.237340
N239	N	1.005676	0.407467	0.095994
N240	N	1.339009	0.740800	0.429327
C241	C	0.633393	0.113058	0.710147
C242	C	0.966726	0.446391	1.043480
C243	C	1.300060	0.779724	1.376813
C244	C	0.711285	0.035210	0.710146
C245	C	1.044619	0.368543	1.043479
C246	C	1.377952	0.701877	1.376812
C247	C	0.711279	0.035208	0.605127
C248	C	1.044612	0.368542	0.938461
C249	C	1.377946	0.701875	1.271794
C250	C	0.672330	0.074132	0.552614
C251	C	1.005663	0.407466	0.885947
C252	C	1.338996	0.740799	1.219280
C253	C	0.633387	0.113058	0.605119
C254	C	0.966720	0.446392	0.938452
C255	C	1.300053	0.779725	1.271785
C256	C	0.750225	-0.003713	0.552614
C257	C	1.083558	0.329620	0.885948
C258	C	1.416892	0.662953	1.219281
C259	C	0.750221	-0.003716	0.447590
C260	C	1.083554	0.329617	0.780923
C261	C	1.416887	0.662951	1.114256
C262	C	0.711268	0.035206	0.395074
C263	C	1.044601	0.368539	0.728408
C264	C	1.377935	0.701873	1.061741
C265	C	0.672323	0.074133	0.447586
C266	C	1.005656	0.407466	0.780919
C267	C	1.338990	0.740800	1.114252
C268	C	0.633374	0.113057	0.395072
C269	C	0.966707	0.446391	0.728406
C270	C	1.300040	0.779724	1.061739
C271	C	0.594426	0.151982	0.447582
C272	C	0.927759	0.485316	0.780915
C273	C	1.261092	0.818649	1.114248
C274	C	0.594434	0.151980	0.552603
C275	C	0.927767	0.485314	0.885937
C276	C	1.261101	0.818647	1.219270
C277	C	0.711260	0.035208	0.290053
C278	C	1.044593	0.368541	0.623386
C279	C	1.377926	0.701874	0.956719
C280	C	0.633367	0.113058	0.290044
C281	C	0.966701	0.446391	0.623377
C282	C	1.300034	0.779725	0.956711
H283	H	0.246123	-0.071339	0.000176
H284	H	0.579457	0.261994	0.333509
H285	H	0.912790	0.595327	0.666843
H286	H	0.781933	-0.035411	0.404843
H287	H	1.115267	0.297922	0.738176
H288	H	1.448600	0.631256	1.071510
H289	H	0.763906	-0.658056	0.000092
H290	H	1.097239	-0.324722	0.333426
H291	H	1.430573	0.008611	0.666759
H292	H	0.742973	0.003518	0.247304
H293	H	1.076306	0.336852	0.580638
H294	H	1.409640	0.670185	0.913971
H295	H	0.817806	-0.499645	0.000104
H296	H	1.151140	-0.166312	0.333437
H297	H	1.484473	0.167022	0.666771
H298	H	0.562724	0.183672	0.595363
H299	H	0.896058	0.517006	0.928696
H300	H	1.229391	0.850339	1.262030
H301	H	0.486602	0.172255	0.000041
H302	H	0.819935	0.505588	0.333374
H303	H	1.153269	0.838921	0.666707
H304	H	0.770443	-0.111587	0.000156
H305	H	1.103777	0.221746	0.333489
H306	H	1.437110	0.555080	0.666822
H307	H	0.378851	0.170970	0.000070
H308	H	0.712185	0.504303	0.333403
H309	H	1.045518	0.837637	0.666737
H310	H	0.762610	-0.765821	0.000080
H311	H	1.095943	-0.432488	0.333413
H312	H	1.429276	-0.099154	0.666747
H313	H	0.574207	-0.740136	0.000060
H314	H	0.907540	-0.406802	0.333393
H315	H	1.240874	-0.073469	0.666727
H316	H	0.206289	0.220908	0.000059
H317	H	0.539622	0.554241	0.333392
H318	H	0.872956	0.887574	0.666726
H319	H	0.601648	0.144753	0.247294
H320	H	0.934981	0.478086	0.580627
H321	H	1.268314	0.811420	0.913961
H322	H	0.138375	-0.072634	0.000175
H323	H	0.471708	0.260700	0.333509
H324	H	0.805041	0.594033	0.666842
H325	H	0.098544	0.219617	0.000079
H326	H	0.431877	0.552951	0.333412
H327	H	0.765211	0.886284	0.666746
H328	H	0.582043	-0.085909	0.000110
H329	H	0.915376	0.247424	0.333444
H330	H	1.248709	0.580757	0.666777
H331	H	0.404512	-0.017441	0.000096
H332	H	0.737845	0.315892	0.333429
H333	H	1.071178	0.649225	0.666762
H334	H	-0.059867	0.165717	0.000094
H335	H	0.273467	0.499050	0.333427
H336	H	0.606800	0.832384	0.666760
H337	H	-0.141947	-0.023982	0.000128
H338	H	0.191387	0.309352	0.333462
H339	H	0.524720	0.642685	0.666795
H340	H	0.562715	0.183677	0.404813
H341	H	0.896048	0.517010	0.738147
H342	H	1.229382	0.850344	1.071480
H343	H	0.769159	-0.219337	0.000121
H344	H	1.102492	0.113996	0.333455
H345	H	1.435826	0.447329	0.666788
H346	H	0.512280	-0.016146	0.000092
H347	H	0.845613	0.317187	0.333425
H348	H	1.178946	0.650520	0.666759
H349	H	0.819097	-0.391900	0.000122
H350	H	1.152430	-0.058567	0.333455
H351	H	1.485763	0.274767	0.666789
H352	H	0.743000	0.003522	0.752905
H353	H	1.076333	0.336855	1.086239
H354	H	1.409666	0.670188	1.419572
H355	H	0.575496	-0.632386	0.000047
H356	H	0.908829	-0.299053	0.333380
H357	H	1.242162	0.034280	0.666713
H358	H	-0.167632	0.164421	0.000100
H359	H	0.165701	0.497754	0.333433
H360	H	0.499035	0.831087	0.666766
H361	H	0.525555	-0.459814	0.000015
H362	H	0.858889	-0.126481	0.333348
H363	H	1.192222	0.206852	0.666682
H364	H	0.526850	-0.352066	0.000021
H365	H	0.860183	-0.018732	0.333355
H366	H	1.193516	0.314601	0.666688
H367	H	-0.034198	-0.022693	0.000142
H368	H	0.299136	0.310640	0.333476
H369	H	0.632469	0.643973	0.666809
H370	H	0.580748	-0.193677	0.000117
H371	H	0.914081	0.139656	0.333451
H372	H	1.247414	0.472989	0.666784
H373	H	0.601680	0.144748	0.752903
H374	H	0.935014	0.478082	1.086236
H375	H	1.268347	0.811415	1.419569
H376	H	0.781939	-0.035402	0.595374
H377	H	1.115273	0.297932	0.928708
H378	H	1.448606	0.631265	1.262041
