data_functionalizedCrystal
_audit_creation_method	'MofGen! by Chris Wilmer'
_symmetry_space_group_name_H-M	'P1'
_symmetry_Int_Tables_number	1
_symmetry_cell_setting	triclinic
loop_
_symmetry_equiv_pos_as_xyz
  x,y,z
_cell_length_a	12.827893
_cell_length_b	12.827892
_cell_length_c	19.805399
_cell_angle_alpha	90.021038
_cell_angle_beta	89.986043
_cell_angle_gamma	89.982699
loop_
_atom_site_label
_atom_site_type_symbol
_atom_site_fract_x
_atom_site_fract_y
_atom_site_fract_z
Zn1	Zn	1.597601	0.416044	-0.382704
Zn2	Zn	1.597505	0.590803	-0.269532
Zn3	Zn	1.422858	0.416077	-0.269535
Zn4	Zn	1.422821	0.590743	-0.382684
O5	O	1.510196	0.503417	-0.326114
O6	O	1.743824	0.439237	-0.367699
O7	O	1.574313	0.567664	-0.174815
O8	O	1.446094	0.269836	-0.284556
O9	O	1.743754	0.567632	-0.284551
O10	O	1.574476	0.269812	-0.367702
O11	O	1.446001	0.439293	-0.174818
O12	O	1.276617	0.439235	-0.284537
O13	O	1.446031	0.567530	-0.477403
O14	O	1.276590	0.567562	-0.367667
O15	O	1.574440	0.439179	-0.477418
O16	O	1.574278	0.737031	-0.284532
O17	O	1.445938	0.736987	-0.367665
C18	C	1.238687	0.503396	-0.326101
C19	C	1.122533	0.503413	-0.326111
C20	C	1.510122	0.774927	-0.326111
C21	C	1.510186	0.891080	-0.326132
C22	C	1.070763	0.567012	-0.367183
C23	C	0.950713	0.567031	-0.367195
C24	C	1.573766	0.942852	-0.285043
C25	C	1.573833	1.062902	-0.285064
C26	C	1.782766	0.503438	-0.326127
C27	C	1.898920	0.503447	-0.326133
C28	C	1.510242	0.503344	-0.502656
C29	C	1.510262	0.503313	-0.577888
C30	C	1.510291	1.230846	-0.326140
C31	C	1.510310	1.114693	-0.326172
C32	C	1.443469	0.436464	-0.613233
C33	C	1.443483	0.436444	-0.683922
C34	C	1.510297	0.503268	-0.719264
C35	C	1.577093	0.570124	-0.683914
C36	C	1.577072	0.570149	-0.613227
C37	C	1.577176	0.570027	-0.968988
C38	C	1.577193	0.569994	-1.039680
C39	C	1.443586	0.436321	-1.039682
C40	C	1.443566	0.436346	-0.968995
C41	C	1.510358	0.503206	-0.933652
C42	C	1.510340	0.503229	-0.857003
C43	C	1.510320	0.503241	-0.795911
C44	C	1.510211	0.503413	-0.150258
C45	C	1.510394	0.503150	-0.075026
H46	H	1.115317	0.621445	-0.402340
O47	O	0.952133	0.438628	-0.284145
C48	C	1.015212	0.498088	-0.240384
H49	H	1.031457	0.577343	-0.264179
H50	H	0.973178	0.509437	-0.190192
C51	C	1.098999	0.343306	-0.199015
C52	C	1.118959	0.440645	-0.228243
H53	H	1.162994	0.307872	-0.191523
H54	H	1.056500	0.303246	-0.228495
H55	H	1.063968	0.352778	-0.157192
H56	H	1.153977	0.431172	-0.270069
H57	H	1.161467	0.480703	-0.198769
O58	O	1.069432	0.438323	-0.284241
C59	C	1.096064	0.334169	-0.299110
H60	H	1.126175	0.328960	-0.353166
H61	H	1.159313	0.306713	-0.262804
C62	C	0.962057	0.270920	-0.224983
C63	C	0.999032	0.264521	-0.291377
H64	H	0.902205	0.227956	-0.220210
H65	H	0.944117	0.341091	-0.214963
H66	H	1.014774	0.248042	-0.194735
H67	H	0.946320	0.287411	-0.321623
H68	H	1.016961	0.194352	-0.301402
H69	H	0.906191	0.621484	-0.402357
H70	H	1.628154	0.898301	-0.249851
H71	H	1.389089	0.382013	-0.712696
O72	O	1.378581	0.371530	-1.074046
C73	C	1.311085	0.431003	-1.114936
H74	H	1.304594	0.513315	-1.093626
H75	H	1.343403	0.434585	-1.168511
C76	C	1.210444	0.278840	-1.142188
C77	C	1.202464	0.379935	-1.116013
H78	H	1.143442	0.247337	-1.142856
H79	H	1.255919	0.238771	-1.114642
H80	H	1.237379	0.281839	-1.186832
H81	H	1.175541	0.376933	-1.071367
H82	H	1.156981	0.420002	-1.143551
H83	H	1.628263	1.107425	-0.249884
O84	O	1.378713	0.371439	-0.578875
C85	C	1.438216	0.303976	-0.537982
H86	H	1.520531	0.297517	-0.559286
H87	H	1.441786	0.336304	-0.484406
C88	C	1.286099	0.203272	-0.510741
C89	C	1.387196	0.195332	-0.536910
H90	H	1.254626	0.136256	-0.510077
H91	H	1.246009	0.248725	-0.538289
H92	H	1.289087	0.230216	-0.466097
H93	H	1.384205	0.168401	-0.581556
H94	H	1.427285	0.149872	-0.509369
H95	H	1.455869	1.070178	-0.361349
H96	H	1.455807	0.935632	-0.361328
H97	H	1.631488	0.624539	-0.712696
O98	O	1.378811	0.371324	-0.934634
C99	C	1.438315	0.303865	-0.893739
H100	H	1.520628	0.297402	-0.915045
H101	H	1.441890	0.336199	-0.840165
C102	C	1.286198	0.203167	-0.866489
C103	C	1.387293	0.195222	-0.892660
H104	H	1.254723	0.136152	-0.865820
H105	H	1.246107	0.248618	-0.894038
H106	H	1.289190	0.230116	-0.821846
H107	H	1.384299	0.168286	-0.937305
H108	H	1.427383	0.149765	-0.865118
H109	H	1.631603	0.624415	-1.068454
O110	O	1.642166	0.634991	-0.934766
C111	C	1.701128	0.693974	-0.981120
H112	H	1.704764	0.651151	-1.031512
H113	H	1.662842	0.773340	-0.988628
C114	C	1.807875	0.761634	-0.891650
C115	C	1.812348	0.709034	-0.953541
H116	H	1.876480	0.770929	-0.874637
H117	H	1.768150	0.721900	-0.860419
H118	H	1.775966	0.827767	-0.897915
H119	H	1.844245	0.642898	-0.947273
H120	H	1.852082	0.748758	-0.984770
H121	H	1.631470	0.624577	-0.584450
