data_functionalizedCrystal
_audit_creation_method	'MofGen! by Chris Wilmer'
_symmetry_space_group_name_H-M	'P1'
_symmetry_Int_Tables_number	1
_symmetry_cell_setting	triclinic
loop_
_symmetry_equiv_pos_as_xyz
  x,y,z
_cell_length_a	15.995350
_cell_length_b	19.288865
_cell_length_c	15.072220
_cell_angle_alpha	90.014629
_cell_angle_beta	89.999876
_cell_angle_gamma	96.685689
loop_
_atom_site_label
_atom_site_type_symbol
_atom_site_fract_x
_atom_site_fract_y
_atom_site_fract_z
O1	O	1.110646	-0.089535	-0.073718
O2	O	0.866829	-0.100591	-0.073737
O3	O	0.995783	0.006049	-0.073709
O4	O	0.981693	-0.196175	-0.073746
O5	O	0.995775	0.006062	0.073856
O6	O	0.866821	-0.100578	0.073828
O7	O	1.110638	-0.089522	0.073847
Zn8	Zn	0.988729	-0.095048	0.097267
Zn9	Zn	0.988739	-0.095065	-0.097157
O10	O	0.981685	-0.196162	0.073819
C11	C	0.835632	-0.100128	0.000043
C12	C	0.742687	-0.098757	0.000036
N13	N	0.988728	-0.095036	0.229955
C14	C	0.995326	0.031933	0.000076
C15	C	0.993965	0.109040	0.000083
C16	C	0.404958	-0.093836	0.000056
C17	C	0.452679	-0.017889	0.000398
C18	C	0.549364	-0.019260	0.000059
C19	C	0.572509	-0.096277	0.000047
C20	C	0.531286	-0.133744	-0.084224
C21	C	0.434657	-0.131837	-0.084288
C22	C	0.434303	-0.133391	0.083521
C23	C	0.531249	-0.133373	0.084629
C24	C	0.667202	-0.097661	0.000038
C25	C	0.310266	-0.092455	0.000058
C26	C	1.141835	-0.089986	0.000065
C27	C	1.234781	-0.091356	0.000066
C28	C	0.982142	-0.222047	0.000032
C29	C	0.983503	-0.299154	0.000019
C30	C	1.069629	0.153540	0.000094
C31	C	1.068350	0.225990	0.000080
C32	C	0.991403	0.253937	0.000073
C33	C	0.915729	0.209428	0.000058
C34	C	0.917010	0.136979	0.000063
C35	C	0.930911	0.362386	0.051757
C36	C	0.929633	0.434834	0.051757
C37	C	0.987450	0.477393	0.000053
C38	C	1.046558	0.447497	-0.051640
C39	C	1.047839	0.375048	-0.051635
C40	C	0.990006	0.332495	0.000067
C41	C	1.061733	0.600453	0.000047
C42	C	1.060451	0.672904	0.000027
C43	C	0.907827	0.656340	0.000014
C44	C	0.909111	0.583890	0.000024
C45	C	0.986066	0.555951	0.000045
C46	C	0.988742	-0.095060	0.589157
C47	C	1.057965	-0.038189	0.551537
C48	C	1.057785	-0.037979	0.448712
C49	C	0.988736	-0.095048	0.410953
C50	C	0.901438	-0.079220	0.448292
C51	C	0.901849	-0.078818	0.551150
C52	C	1.006028	-0.167926	0.551222
C53	C	1.008013	-0.167438	0.448358
C54	C	0.988726	-0.095043	0.310240
C55	C	0.988745	-0.095063	0.689870
N56	N	0.988750	-0.095071	0.770154
H57	H	0.577900	0.010191	0.060468
N58	N	0.410538	-0.095659	-0.167713
H59	H	0.462652	-0.081097	-0.204101
H60	H	0.382748	-0.053026	-0.151300
H61	H	0.885778	-0.026684	0.422548
H62	H	0.881500	0.459169	0.093844
N63	N	0.832732	0.239561	0.000052
H64	H	0.828801	0.269240	-0.054651
H65	H	0.828843	0.269226	0.054790
N66	N	1.088526	-0.188083	0.585572
H67	H	1.115531	-0.150180	0.626078
H68	H	1.127273	-0.194232	0.533976
H69	H	1.132291	0.130797	0.000108
H70	H	0.886571	-0.025677	0.575158
H71	H	0.960840	-0.211740	0.422652
N72	N	0.868555	0.316478	0.107525
H73	H	0.809418	0.322683	0.088225
H74	H	0.876204	0.329968	0.172018
N75	N	0.939183	-0.224007	0.583443
H76	H	0.882091	-0.213181	0.562661
H77	H	0.940114	-0.225693	0.650404
N78	N	1.111584	0.342804	-0.107387
H79	H	1.103567	0.354547	-0.171900
H80	H	1.103586	0.290460	-0.099461
N81	N	1.043187	0.033649	0.416143
H82	H	0.987170	0.045553	0.438806
H83	H	1.043053	0.034041	0.349138
N84	N	0.831594	-0.131599	0.584124
H85	H	0.800492	-0.155022	0.531840
H86	H	0.791361	-0.107187	0.621286
H87	H	0.546402	-0.189536	0.089709
H88	H	0.402330	-0.189386	0.084082
H89	H	0.402198	-0.187596	-0.088121
H90	H	0.559761	-0.107732	-0.146930
H91	H	0.413858	-0.108557	0.147396
N92	N	0.428299	0.022332	0.080453
H93	H	0.386080	-0.008283	0.117275
H94	H	0.402521	0.065034	0.060288
N95	N	1.093076	-0.183354	0.416039
H96	H	1.119023	-0.143843	0.377327
H97	H	1.086173	-0.228097	0.380596
N98	N	1.149962	0.273999	0.000089
H99	H	1.198905	0.245306	0.000101
H100	H	1.152743	0.304430	0.054793
N101	N	1.108926	0.493389	-0.107410
H102	H	1.099146	0.543821	-0.099575
H103	H	1.101326	0.479857	-0.171894
H104	H	0.558665	-0.106022	0.146971
N105	N	0.549719	-0.208692	-0.088404
H106	H	0.585054	-0.219105	-0.035584
H107	H	0.581340	-0.216395	-0.144883
H108	H	1.122686	-0.047405	0.423466
N109	N	1.144225	-0.050469	0.584297
H110	H	1.169687	-0.008429	0.619013
H111	H	1.181447	-0.058208	0.531944
H112	H	0.848697	-0.119538	0.423834
H113	H	0.433202	0.012323	-0.059691
H114	H	0.577337	0.010379	-0.060444
H115	H	1.124394	0.577704	0.000059
H116	H	1.122068	0.709136	0.000031
H117	H	1.047111	0.015579	0.577404
N118	N	0.824838	0.686482	0.000013
H119	H	0.791699	0.670267	0.054715
H120	H	0.791765	0.670235	-0.054726
H121	H	0.847497	0.547657	0.000021
H122	H	0.855393	0.100746	0.000055
