data_functionalizedCrystal
_audit_creation_method	'MofGen! by Chris Wilmer'
_symmetry_space_group_name_H-M	'P1'
_symmetry_Int_Tables_number	1
_symmetry_cell_setting	triclinic
loop_
_symmetry_equiv_pos_as_xyz
  x,y,z
_cell_length_a	12.759401
_cell_length_b	12.759399
_cell_length_c	12.759393
_cell_angle_alpha	89.969094
_cell_angle_beta	89.979062
_cell_angle_gamma	90.016641
loop_
_atom_site_label
_atom_site_type_symbol
_atom_site_fract_x
_atom_site_fract_y
_atom_site_fract_z
Zn1	Zn	1.606263	-0.418173	-0.594017
Zn2	Zn	1.606153	-0.593888	-0.418336
Zn3	Zn	1.430562	-0.418229	-0.418352
Zn4	Zn	1.430553	-0.593815	-0.593973
O5	O	1.518383	-0.506026	-0.506170
O6	O	1.753270	-0.441489	-0.570724
O7	O	1.582818	-0.570641	-0.271317
O8	O	1.453919	-0.271200	-0.441680
O9	O	1.753189	-0.570587	-0.441652
O10	O	1.583006	-0.271159	-0.570740
O11	O	1.453812	-0.441584	-0.271329
O12	O	1.283540	-0.441513	-0.441637
O13	O	1.453903	-0.570461	-0.741000
O14	O	1.283533	-0.570516	-0.570665
O15	O	1.582997	-0.441418	-0.741032
O16	O	1.582809	-0.740900	-0.441609
O17	O	1.453796	-0.740846	-0.570649
C18	C	1.245415	-0.506013	-0.506149
C19	C	1.128639	-0.506033	-0.506165
C20	C	1.518318	-0.778994	-0.506146
C21	C	1.518387	-0.895770	-0.506171
C22	C	1.073801	-0.573307	-0.573244
C23	C	0.964077	-0.573311	-0.573265
C24	C	0.964038	-0.438764	-0.439118
C25	C	1.073760	-0.438756	-0.439104
C26	C	1.585641	-0.950625	-0.439056
C27	C	1.585708	-1.060349	-0.439091
C28	C	1.451259	-1.060353	-0.573359
C29	C	1.451198	-0.950631	-0.573328
C30	C	1.792416	-0.506040	-0.506191
C31	C	1.909193	-0.506046	-0.506200
C32	C	1.518461	-0.505925	-0.780203
C33	C	1.518495	-0.505882	-0.896980
C34	C	1.518476	-0.231993	-0.506217
C35	C	1.518516	-0.115216	-0.506237
C36	C	1.585719	-0.438679	-0.951860
C37	C	1.585737	-0.438633	-1.061584
C38	C	1.451303	-0.573004	-1.061538
C39	C	1.451281	-0.573044	-0.951816
C40	C	1.518365	-0.506051	-0.233202
C41	C	1.518535	-0.505798	-0.116426
H42	H	0.919432	-0.628090	-0.627889
H43	H	0.919343	-0.383991	-0.384518
C44	C	1.378331	-0.645899	-0.892034
C45	C	1.392678	-0.631534	-0.784208
C46	C	1.325486	-0.698614	-0.729104
H47	H	1.393616	-0.716529	-0.909874
H48	H	1.307727	-0.630501	-0.909945
H49	H	1.463266	-0.646940	-0.766303
H50	H	1.377385	-0.560919	-0.766336
H51	H	1.254881	-0.683215	-0.747015
H52	H	1.340776	-0.769239	-0.746953
H53	H	1.335204	-0.688869	-0.655938
H54	H	1.640476	-0.383908	-1.106263
H55	H	1.640446	-0.383989	-0.907216
C56	C	1.378401	-0.646097	-1.120944
C57	C	1.401217	-0.750056	-1.094217
C58	C	1.334073	-0.817421	-1.148908
H59	H	1.387977	-0.636595	-1.194167
H60	H	1.307793	-0.630786	-1.102934
H61	H	1.471808	-0.765362	-1.112234
H62	H	1.391635	-0.759592	-1.021003
H63	H	1.263466	-0.802110	-1.130897
H64	H	1.343655	-0.807909	-1.222128
H65	H	1.349539	-0.887964	-1.130774
C66	C	1.378477	-1.120055	-0.646321
C67	C	1.437962	-1.182965	-0.713711
C68	C	1.370947	-1.237986	-0.780928
H69	H	1.338390	-1.071790	-0.686391
H70	H	1.332761	-1.162988	-0.606129
H71	H	1.483659	-1.140036	-0.753899
H72	H	1.478047	-1.231250	-0.673671
H73	H	1.325231	-1.280919	-0.740736
H74	H	1.330863	-1.189713	-0.820990
H75	H	1.411297	-1.280683	-0.826653
C76	C	1.378060	-0.891255	-0.646240
C77	C	1.319206	-0.962782	-0.705035
C78	C	1.251818	-0.908124	-0.772201
H79	H	1.418089	-0.848378	-0.692131
H80	H	1.332224	-0.848546	-0.606021
H81	H	1.365036	-1.005474	-0.745250
H82	H	1.279155	-1.005661	-0.659172
H83	H	1.205983	-0.865414	-0.731983
H84	H	1.291856	-0.865248	-0.818085
H85	H	1.211871	-0.956646	-0.812095
H86	H	1.118479	-0.628086	-0.627852
H87	H	1.118411	-0.383967	-0.384480
H88	H	1.640352	-0.905960	-0.384374
H89	H	1.640474	-1.105007	-0.384441
