data_functionalizedCrystal
_audit_creation_method	'MofGen! by Chris Wilmer'
_symmetry_space_group_name_H-M	'P1'
_symmetry_Int_Tables_number	1
_symmetry_cell_setting	triclinic
loop_
_symmetry_equiv_pos_as_xyz
  x,y,z
_cell_length_a	27.732048
_cell_length_b	27.732048
_cell_length_c	26.210047
_cell_angle_alpha	90.003465
_cell_angle_beta	89.999521
_cell_angle_gamma	97.357345
loop_
_atom_site_label
_atom_site_type_symbol
_atom_site_fract_x
_atom_site_fract_y
_atom_site_fract_z
O1	O	0.057510	-0.640931	-0.042369
O2	O	0.066256	-0.500138	-0.042385
O3	O	-0.008514	-0.574907	-0.042367
O4	O	0.132279	-0.566162	-0.042387
O5	O	-0.008502	-0.574893	0.042491
O6	O	0.066267	-0.500123	0.042473
O7	O	0.057522	-0.640917	0.042489
Cu8	Cu	0.061896	-0.570519	0.050229
Cu9	Cu	0.061882	-0.570536	-0.050125
O10	O	0.132291	-0.566147	0.042471
C11	C	0.066078	-0.482124	0.000042
C12	C	0.065525	-0.428469	0.000036
C13	C	-0.026515	-0.574716	0.000064
C14	C	-0.080170	-0.574164	0.000068
N15	N	0.061905	-0.570510	0.120813
C16	C	-0.418985	-0.614867	0.000046
C17	C	-0.620645	-0.612816	0.000039
O18	O	-0.651900	-0.650037	0.000021
N19	N	-0.639768	-0.568481	0.000034
C20	C	-0.608474	-0.524656	0.000028
O21	O	-0.629367	-0.486899	0.000019
C22	C	-0.406815	-0.526707	0.000032
C23	C	-0.387694	-0.571045	0.000042
C24	C	-0.399864	-0.659202	0.000056
C25	C	-0.349452	-0.659714	0.000060
C26	C	-0.318161	-0.615892	0.000056
C27	C	-0.337282	-0.571557	0.000046
C28	C	-0.375521	-0.482882	0.000022
C29	C	-0.325104	-0.483399	0.000022
C30	C	-0.305983	-0.527737	0.000032
C31	C	-0.255580	-0.528247	0.000046
N32	N	-0.236456	-0.572583	0.000051
C33	C	-0.267747	-0.616405	0.000056
C34	C	-0.714348	-0.523582	0.000027
C35	C	-0.764762	-0.523069	0.000027
C36	C	-0.776930	-0.611230	0.000037
C37	C	-0.726514	-0.611742	0.000041
C38	C	-0.695224	-0.567917	0.000032
C39	C	-0.161878	-0.617477	0.000066
C40	C	-0.111461	-0.617986	0.000073
C41	C	-0.099298	-0.529825	0.000060
C42	C	-0.149710	-0.529316	0.000056
C43	C	-0.180999	-0.573147	0.000057
O44	O	-0.224296	-0.491047	0.000059
O45	O	-0.246844	-0.654156	0.000054
C46	C	-0.469397	-0.614355	0.000042
C47	C	-0.488518	-0.570021	0.000033
C48	C	-0.457228	-0.526198	0.000028
C49	C	-0.538933	-0.569508	0.000033
C50	C	-0.570223	-0.613330	0.000037
C51	C	-0.551100	-0.657665	0.000042
C52	C	-0.500688	-0.658177	0.000046
C53	C	-0.476351	-0.481863	0.000023
C54	C	-0.526764	-0.481355	0.000019
C55	C	-0.558054	-0.525177	0.000024
C56	C	0.150292	-0.566338	0.000040
C57	C	0.203947	-0.566891	0.000032
C58	C	0.057699	-0.658931	0.000061
C59	C	0.058252	-0.712586	0.000064
C60	C	0.106229	-0.089654	0.000053
C61	C	0.104178	0.112006	0.000057
O62	O	0.141398	0.143262	0.000074
N63	N	0.059843	0.131130	0.000063
C64	C	0.016017	0.099835	0.000071
O65	O	-0.021740	0.120728	0.000081
C66	C	0.018068	-0.101824	0.000069
C67	C	0.062407	-0.120944	0.000059
C68	C	0.150563	-0.108775	0.000043
C69	C	0.151076	-0.159187	0.000039
C70	C	0.107253	-0.190477	0.000045
C71	C	0.062919	-0.171356	0.000055
C72	C	-0.025757	-0.133117	0.000081
C73	C	-0.025240	-0.183535	0.000082
C74	C	0.019098	-0.202655	0.000071
C75	C	0.019609	-0.253059	0.000057
N76	N	0.063944	-0.272183	0.000051
C77	C	0.107766	-0.240892	0.000045
C78	C	0.014943	0.205709	0.000070
C79	C	0.014430	0.256124	0.000070
C80	C	0.102591	0.268291	0.000057
C81	C	0.103104	0.217876	0.000054
C82	C	0.059278	0.186585	0.000065
C83	C	0.108839	-0.346761	0.000036
C84	C	0.109347	-0.397178	0.000030
C85	C	0.021186	-0.409341	0.000045
C86	C	0.020678	-0.358929	0.000049
C87	C	0.064508	-0.327639	0.000046
O88	O	-0.017592	-0.284343	0.000046
O89	O	0.145518	-0.261794	0.000047
C90	C	0.105716	-0.039242	0.000057
C91	C	0.061382	-0.020120	0.000067
C92	C	0.017560	-0.051411	0.000073
C93	C	0.060869	0.030294	0.000066
C94	C	0.104691	0.061585	0.000060
C95	C	0.149026	0.042461	0.000054
C96	C	0.149539	-0.007951	0.000050
C97	C	-0.026775	-0.032287	0.000078
C98	C	-0.027284	0.018125	0.000082
C99	C	0.016538	0.049416	0.000076
N100	N	0.061868	-0.570548	-0.120709
C101	C	0.028781	-0.603640	0.473336
C102	C	0.028774	-0.603651	0.686994
O103	O	0.000614	-0.631801	0.714623
N104	N	0.061871	-0.570538	0.713707
C105	C	0.094970	-0.537419	0.687003
O106	O	0.123117	-0.509251	0.714626
C107	C	0.094974	-0.537406	0.473345
C108	C	0.061878	-0.570524	0.446635
C109	C	-0.004312	-0.636755	0.446625
C110	C	-0.004308	-0.636754	0.393214
C111	C	0.028789	-0.603638	0.366513
C112	C	0.061882	-0.570523	0.393223
C113	C	0.128070	-0.504284	0.446641
C114	C	0.128067	-0.504283	0.393223
C115	C	0.094971	-0.537401	0.366513
C116	C	0.094983	-0.537405	0.313111
N117	N	0.061886	-0.570518	0.286397
C118	C	0.028789	-0.603634	0.313098
C119	C	0.094966	-0.537428	0.799176
C120	C	0.094965	-0.537432	0.852590
C121	C	0.028769	-0.603664	0.852578
C122	C	0.028773	-0.603662	0.799163
C123	C	0.061869	-0.570541	0.772463
C124	C	0.028800	-0.603629	0.200931
C125	C	0.028808	-0.603626	0.147514
C126	C	0.095002	-0.537393	0.147531
C127	C	0.094996	-0.537397	0.200943
C128	C	0.061891	-0.570517	0.227641
O129	O	0.123125	-0.509267	0.285449
O130	O	0.000639	-0.631790	0.285466
C131	C	0.028777	-0.603641	0.526747
C132	C	0.061871	-0.570527	0.553457
C133	C	0.094968	-0.537410	0.526756
C134	C	0.061870	-0.570530	0.606872
C135	C	0.028773	-0.603646	0.633573
C136	C	-0.004323	-0.636759	0.606859
C137	C	-0.004320	-0.636758	0.553448
C138	C	0.128064	-0.504298	0.553470
C139	C	0.128058	-0.504302	0.606881
C140	C	0.094961	-0.537418	0.633582
H141	H	-0.095896	-0.654093	0.000082
N142	N	0.163767	-0.468562	0.364424
H143	H	0.145442	-0.447299	0.342264
H144	H	0.184722	-0.447618	0.389484
N145	N	0.150923	0.197252	0.000050
H146	H	0.153099	0.176603	-0.031407
H147	H	0.178577	0.224754	0.000064
H148	H	-0.073812	-0.494146	0.000058
N149	N	-0.040006	-0.672485	0.475417
H150	H	-0.074278	-0.667184	0.466120
H151	H	-0.034619	-0.706725	0.466093
N152	N	0.130669	-0.501709	0.770378
H153	H	0.112348	-0.480441	0.748220
H154	H	0.151626	-0.480769	0.795440
N155	N	0.197833	-0.075030	0.000065
H156	H	0.225992	-0.094801	0.000068
H157	H	0.199556	-0.053838	-0.031385
N158	N	-0.328834	-0.707537	0.000056
H159	H	-0.292148	-0.701219	0.000054
H160	H	-0.340305	-0.726695	0.031513
H161	H	-0.020747	0.180236	0.000079
N162	N	0.130662	-0.501714	0.881397
H163	H	0.164933	-0.507019	0.872099
H164	H	0.125284	-0.467468	0.872090
H165	H	0.155019	-0.477317	0.468381
H166	H	-0.165279	-0.493213	0.000062
N167	N	0.196293	0.076215	0.000045
H168	H	0.189235	0.111052	0.000048
H169	H	0.215636	0.070064	0.031500
H170	H	-0.542327	-0.445246	0.000016
H171	H	-0.688875	-0.487892	0.000020
N172	N	-0.705896	-0.659565	0.000050
H173	H	-0.685251	-0.661752	-0.031406
H174	H	-0.685274	-0.661708	0.031528
N175	N	0.130697	-0.501674	0.118729
H176	H	0.151974	-0.519981	0.096564
H177	H	0.112332	-0.480423	0.096601
N178	N	-0.006900	-0.639356	0.229722
H179	H	-0.028183	-0.621054	0.251885
H180	H	-0.027826	-0.660323	0.204657
H181	H	-0.450879	-0.446177	0.000018
H182	H	0.121950	-0.510434	0.222691
N183	N	-0.006923	-0.639381	0.770356
H184	H	-0.027887	-0.660360	0.795381
H185	H	-0.028168	-0.621038	0.748198
H186	H	0.145454	-0.412743	0.000021
H187	H	-0.031269	-0.663725	0.531704
H188	H	-0.576585	-0.693347	0.000048
H189	H	0.144530	-0.321291	0.000036
H190	H	0.187180	-0.174750	0.000030
H191	H	-0.031271	-0.663725	0.628608
N192	N	-0.006926	-0.639383	0.881384
H193	H	-0.001595	-0.673647	0.872088
H194	H	-0.001879	-0.634313	0.919264
H195	H	0.155013	-0.477334	0.628625
N196	N	0.163761	-0.468575	0.524675
H197	H	0.184724	-0.447601	0.549707
H198	H	0.185008	-0.486916	0.502513
N199	N	-0.006893	-0.639341	0.118702
H200	H	0.011430	-0.660605	0.096538
H201	H	-0.027855	-0.660285	0.143754
N202	N	-0.195621	-0.664750	0.000067
H203	H	-0.175851	-0.692910	0.000075
H204	H	-0.216804	-0.666453	0.031524
N205	N	-0.433609	-0.706471	0.000061
H206	H	-0.413838	-0.734630	0.000067
H207	H	-0.454788	-0.708174	0.031521
N208	N	-0.033390	0.276746	0.000080
H209	H	-0.035577	0.297389	-0.031376
H210	H	-0.061044	0.249244	0.000105
H211	H	-0.061861	-0.117558	0.000090
H212	H	0.138273	0.293777	0.000053
N213	N	-0.810686	-0.658494	0.000043
H214	H	-0.831873	-0.660245	-0.031415
H215	H	-0.790894	-0.686635	0.000063
N216	N	-0.785383	-0.475247	0.000031
H217	H	-0.757906	-0.447566	0.000028
H218	H	-0.806036	-0.473115	-0.031426
H219	H	-0.060929	-0.209009	0.000091
N220	N	-0.396136	-0.435060	0.000018
H221	H	-0.368657	-0.407381	0.000014
H222	H	-0.416788	-0.432927	-0.031440
N223	N	-0.040007	-0.672470	0.364407
H224	H	-0.034677	-0.706734	0.373703
H225	H	-0.074259	-0.667116	0.373719
N226	N	-0.291350	-0.436132	0.000015
H227	H	-0.297461	-0.416777	-0.031445
H228	H	-0.297481	-0.416805	0.031490
N229	N	-0.480068	-0.705999	0.000058
H230	H	-0.507546	-0.733679	0.000060
H231	H	-0.459416	-0.708142	-0.031399
H232	H	-0.015426	-0.343360	0.000050
H233	H	-0.014492	-0.434827	0.000048
H234	H	-0.063392	0.033688	0.000086
H235	H	-0.062462	-0.057760	0.000085
N236	N	0.197361	-0.028571	0.000035
H237	H	0.225040	-0.001092	0.000032
H238	H	0.199504	-0.049221	0.031491
