data_functionalizedCrystal
_audit_creation_method	'MofGen! by Chris Wilmer'
_symmetry_space_group_name_H-M	'P1'
_symmetry_Int_Tables_number	1
_symmetry_cell_setting	triclinic
loop_
_symmetry_equiv_pos_as_xyz
  x,y,z
_cell_length_a	12.784902
_cell_length_b	14.519731
_cell_length_c	11.295483
_cell_angle_alpha	85.886642
_cell_angle_beta	93.662375
_cell_angle_gamma	78.398238
loop_
_atom_site_label
_atom_site_type_symbol
_atom_site_fract_x
_atom_site_fract_y
_atom_site_fract_z
O1	O	-0.132271	-1.219261	0.099025
O2	O	-0.148653	-0.949450	0.099027
O3	O	0.014225	-1.104099	0.099021
O4	O	-0.295150	-1.064612	0.099031
O5	O	-0.000058	-1.090518	-0.099029
O6	O	-0.162937	-0.935869	-0.099024
O7	O	-0.146555	-1.205680	-0.099025
Cu8	Cu	-0.156050	-1.069534	-0.117108
Cu9	Cu	-0.139158	-1.085596	0.117109
O10	O	-0.309434	-1.051031	-0.099019
C11	C	0.046678	-1.099876	-0.000003
C12	C	0.164657	-1.107518	0.000001
C13	C	-0.155027	-0.908362	0.000002
C14	C	-0.152727	-0.806170	0.000002
C15	C	0.361349	-0.951831	-0.000012
C16	C	0.472200	-0.959007	-0.000009
C17	C	0.497211	-1.129043	0.000003
C18	C	0.386360	-1.121867	-0.000001
C19	C	0.318433	-1.033259	-0.000007
C20	C	0.207580	-1.026085	-0.000002
C21	C	0.232592	-1.196119	0.000002
C22	C	0.343443	-1.203295	0.000005
C23	C	0.658114	-1.055253	0.000005
C24	C	0.540134	-1.047609	0.000001
C25	C	-0.140181	-1.246767	0.000002
C26	C	-0.142480	-1.348960	0.000010
C27	C	-0.150858	-0.723179	0.000007
C28	C	-0.148523	-0.619061	0.000007
C29	C	-0.146669	-0.536073	0.000007
C30	C	-0.144334	-0.431948	0.000010
N31	N	-0.167931	-1.058244	-0.281844
C32	C	-0.041687	-1.178171	-0.531138
C33	C	-0.050673	-1.169645	-0.655801
C34	C	-0.194883	-1.032662	-0.655836
C35	C	-0.185897	-1.041189	-0.531173
C36	C	-0.109298	-1.113946	-0.468828
C37	C	-0.100318	-1.122475	-0.344162
C38	C	-0.244522	-0.985490	-0.344200
C39	C	-0.253507	-0.976964	-0.468863
N40	N	-0.127269	-1.096894	0.281845
H41	H	0.152275	-0.953935	-0.000004
C42	C	0.286628	-0.854363	-0.000013
N43	N	0.230348	-0.780948	-0.000015
C44	C	0.519404	-0.869431	-0.000010
N45	N	0.554957	-0.801958	-0.000011
C46	C	-0.016055	-1.202507	-0.275585
N47	N	0.047418	-1.262786	-0.223936
C48	C	-0.337755	-0.896929	-0.537456
N49	N	-0.401211	-0.836645	-0.589120
H50	H	0.552534	-1.201182	-0.000007
H51	H	0.020676	-1.237418	-0.480376
H52	H	0.398764	-1.275436	0.000005
H53	H	0.197646	-1.262431	0.000111
C54	C	-0.318898	-0.914838	-0.275649
N55	N	-0.374918	-0.861625	-0.224015
H56	H	0.004384	-1.221942	-0.706530
H57	H	-0.257241	-0.973420	-0.706613
