data_functionalizedCrystal
_audit_creation_method	'MofGen! by Chris Wilmer'
_symmetry_space_group_name_H-M	'P1'
_symmetry_Int_Tables_number	1
_symmetry_cell_setting	triclinic
loop_
_symmetry_equiv_pos_as_xyz
  x,y,z
_cell_length_a	13.897449
_cell_length_b	18.101395
_cell_length_c	13.897441
_cell_angle_alpha	89.969302
_cell_angle_beta	89.976606
_cell_angle_gamma	90.031931
loop_
_atom_site_label
_atom_site_type_symbol
_atom_site_fract_x
_atom_site_fract_y
_atom_site_fract_z
Zn1	Zn	1.474613	-0.294790	-0.545449
Zn2	Zn	1.974613	0.205210	-0.045449
Zn3	Zn	1.474469	-0.418645	-0.384150
Zn4	Zn	1.974469	0.081355	0.115850
Zn5	Zn	1.313302	-0.294824	-0.384160
Zn6	Zn	1.813302	0.205176	0.115840
Zn7	Zn	1.313246	-0.418596	-0.545395
Zn8	Zn	1.813246	0.081404	-0.045395
O9	O	1.393907	-0.356714	-0.464789
O10	O	1.893907	0.143286	0.035211
O11	O	1.609575	-0.311226	-0.524071
O12	O	2.109575	0.188774	-0.024071
O13	O	1.453053	-0.402255	-0.249170
O14	O	1.953053	0.097745	0.250830
O15	O	1.334784	-0.191186	-0.405582
O16	O	1.834784	0.308814	0.094418
O17	O	1.609470	-0.402222	-0.405565
O18	O	2.109470	0.097778	0.094435
O19	O	1.453298	-0.191161	-0.524080
O20	O	1.953298	0.308839	-0.024080
O21	O	1.334644	-0.311284	-0.249177
O22	O	1.834644	0.188716	0.250823
O23	O	1.178313	-0.311236	-0.405530
O24	O	1.678313	0.188764	0.094470
O25	O	1.334688	-0.402137	-0.680384
O26	O	1.834688	0.097863	-0.180384
O27	O	1.178272	-0.402171	-0.523989
O28	O	1.678272	0.097829	-0.023989
O29	O	1.453244	-0.311178	-0.680424
O30	O	1.953244	0.188822	-0.180424
O31	O	1.452999	-0.522272	-0.405513
O32	O	1.952999	-0.022272	0.094487
O33	O	1.334549	-0.522235	-0.523979
O34	O	1.834549	-0.022235	-0.023979
C35	C	1.143293	-0.356702	-0.464755
C36	C	1.643293	0.143298	0.035245
C37	C	1.036079	-0.356715	-0.464763
C38	C	1.536079	0.143285	0.035237
C39	C	0.949009	-0.356718	-0.464779
C40	C	1.449009	0.143282	0.035221
C41	C	0.839777	-0.356723	-0.464809
C42	C	1.339777	0.143277	0.035191
C43	C	1.393778	-0.549124	-0.464760
C44	C	1.893778	-0.049124	0.035240
C45	C	1.393811	-0.631438	-0.464780
C46	C	1.893811	-0.131438	0.035220
C47	C	1.394023	-0.930529	-0.464832
C48	C	1.894023	-0.430529	0.035168
C49	C	1.319670	-0.899212	-0.539553
C50	C	1.819670	-0.399212	-0.039553
C51	C	1.319317	-0.813594	-0.539319
C52	C	1.819317	-0.313594	-0.039319
C53	C	1.393918	-0.782147	-0.464807
C54	C	1.893918	-0.282147	0.035193
C55	C	1.366392	-0.813303	-0.363147
C56	C	1.866392	-0.313303	0.136853
C57	C	1.365913	-0.898948	-0.363594
C58	C	1.865913	-0.398948	0.136406
C59	C	1.496064	-0.898871	-0.490877
C60	C	1.996064	-0.398871	0.009123
C61	C	1.495464	-0.813219	-0.493106
C62	C	1.995464	-0.313219	0.006894
C63	C	1.393860	-0.698287	-0.464787
C64	C	1.893860	-0.198287	0.035213
C65	C	1.394078	-1.014389	-0.464846
C66	C	1.894078	-0.514389	0.035154
C67	C	1.645500	-0.356726	-0.464823
C68	C	2.145500	0.143274	0.035177
C69	C	1.752714	-0.356731	-0.464837
C70	C	2.252714	0.143269	0.035163
C71	C	1.393976	-0.356648	-0.716382
C72	C	1.893976	0.143352	-0.216382
C73	C	1.394005	-0.356620	-0.823596
C74	C	1.894005	0.143380	-0.323596
C75	C	1.394063	-0.163552	-0.464838
C76	C	1.894063	0.336448	0.035162
C77	C	1.394130	-0.081238	-0.464859
C78	C	1.894130	0.418762	0.035141
C79	C	1.394031	-0.356570	-1.019891
C80	C	1.894031	0.143430	-0.519891
C81	C	1.394014	-0.356600	-0.910658
C82	C	1.894014	0.143400	-0.410658
C83	C	1.393895	-0.356725	-0.214174
C84	C	1.893895	0.143275	0.285826
C85	C	1.394052	-0.356545	-0.106961
C86	C	1.894052	0.143455	0.393039
H87	H	1.336539	-0.792526	-0.614699
H88	H	1.836539	-0.292526	-0.114699
H89	H	1.243682	-0.793172	-0.522067
H90	H	1.743682	-0.293172	-0.022067
H91	H	1.336722	-0.919756	-0.615177
H92	H	1.836722	-0.419756	-0.115177
N93	N	1.267113	-0.925508	-0.334368
N94	N	1.767113	-0.425508	0.165632
H95	H	1.224280	-0.881580	-0.321317
H96	H	1.724280	-0.381580	0.178683
H97	H	1.238612	-0.956132	-0.387992
H98	H	1.738612	-0.456132	0.112008
N99	N	1.268634	-0.784980	-0.333400
N100	N	1.768634	-0.284980	0.166600
H101	H	1.218863	-0.801397	-0.381830
H102	H	1.718863	-0.301397	0.118170
H103	H	1.251646	-0.805341	-0.267882
H104	H	1.751646	-0.305341	0.232118
N105	N	1.220088	-0.927802	-0.516997
N106	N	1.720088	-0.427802	-0.016997
H107	H	1.222929	-0.960952	-0.458587
H108	H	1.722929	-0.460952	0.041413
H109	H	1.175805	-0.884796	-0.503597
H110	H	1.675805	-0.384796	-0.003597
N111	N	1.434498	-0.926398	-0.287308
N112	N	1.934498	-0.426398	0.212692
H113	H	1.434714	-0.982194	-0.286997
H114	H	1.934714	-0.482194	0.213003
H115	H	1.501447	-0.907639	-0.301627
H116	H	2.001447	-0.407639	0.198373
N117	N	1.435863	-0.786329	-0.287384
N118	N	1.935863	-0.286329	0.212616
H119	H	1.485967	-0.753573	-0.318305
H120	H	1.985967	-0.253573	0.181695
H121	H	1.399609	-0.757347	-0.236987
H122	H	1.899609	-0.257347	0.263013
H123	H	1.521159	-0.920415	-0.563744
H124	H	2.021159	-0.420415	-0.063744
N125	N	1.522970	-0.786244	-0.592207
N126	N	2.022970	-0.286244	-0.092207
H127	H	1.469883	-0.754028	-0.618668
H128	H	1.969883	-0.254028	-0.118668
H129	H	1.584496	-0.756698	-0.588066
H130	H	2.084496	-0.256698	-0.088066
H131	H	1.553792	-0.791809	-0.442650
H132	H	2.053792	-0.291809	0.057350
H133	H	1.551460	-0.919122	-0.436455
H134	H	2.051460	-0.419122	0.063545
