data_functionalizedCrystal
_audit_creation_method	'MofGen! by Chris Wilmer'
_symmetry_space_group_name_H-M	'P1'
_symmetry_Int_Tables_number	1
_symmetry_cell_setting	triclinic
loop_
_symmetry_equiv_pos_as_xyz
  x,y,z
_cell_length_a	27.732048
_cell_length_b	19.188930
_cell_length_c	17.666332
_cell_angle_alpha	90.023234
_cell_angle_beta	89.988553
_cell_angle_gamma	97.106284
loop_
_atom_site_label
_atom_site_type_symbol
_atom_site_fract_x
_atom_site_fract_y
_atom_site_fract_z
O1	O	0.060348	-0.925765	-0.063200
O2	O	0.068472	-0.722402	-0.063149
O3	O	-0.005968	-0.830399	-0.063161
O4	O	0.134787	-0.817767	-0.063187
O5	O	-0.005971	-0.830380	0.062735
O6	O	0.068468	-0.722383	0.062748
O7	O	0.060344	-0.925746	0.062697
Cu8	Cu	0.064406	-0.824063	0.074218
Cu9	Cu	0.064410	-0.824085	-0.074670
O10	O	0.134783	-0.817748	0.062710
C11	C	-0.023977	-0.830125	-0.000211
C12	C	-0.077635	-0.829326	-0.000204
C13	C	0.068207	-0.696383	-0.000194
C14	C	0.067417	-0.618883	-0.000174
C15	C	0.060609	-0.951765	-0.000260
C16	C	0.061399	-1.029264	-0.000285
C17	C	-0.416270	-0.888119	-0.000258
C18	C	-0.617939	-0.885157	-0.000268
O19	O	-0.649030	-0.938918	-0.000314
N20	N	-0.637258	-0.821118	-0.000251
C21	C	-0.606157	-0.757816	-0.000237
O22	O	-0.627217	-0.703280	-0.000231
C23	C	-0.404489	-0.760780	-0.000233
C24	C	-0.385173	-0.824822	-0.000242
C25	C	-0.396953	-0.952156	-0.000268
C26	C	-0.346539	-0.952896	-0.000261
C27	C	-0.315441	-0.889599	-0.000245
C28	C	-0.334759	-0.825562	-0.000235
C29	C	-0.373389	-0.697478	-0.000224
C30	C	-0.322969	-0.698225	-0.000225
C31	C	-0.303653	-0.762267	-0.000234
C32	C	-0.253247	-0.763005	-0.000212
N33	N	-0.233928	-0.827043	-0.000229
C34	C	-0.265025	-0.890340	-0.000245
C35	C	-0.712036	-0.756265	-0.000238
C36	C	-0.762452	-0.755524	-0.000238
C37	C	-0.774231	-0.882865	-0.000270
C38	C	-0.723813	-0.883605	-0.000265
C39	C	-0.692716	-0.820303	-0.000254
C40	C	-0.159151	-0.891889	-0.000231
C41	C	-0.108732	-0.892623	-0.000221
C42	C	-0.096958	-0.765283	-0.000193
C43	C	-0.147373	-0.764549	-0.000198
C44	C	-0.178468	-0.827857	-0.000220
O45	O	-0.222127	-0.709272	-0.000174
O46	O	-0.243956	-0.944868	-0.000268
C47	C	-0.466684	-0.887379	-0.000265
C48	C	-0.486001	-0.823342	-0.000255
C49	C	-0.454904	-0.760045	-0.000238
C50	C	-0.536418	-0.822601	-0.000254
C51	C	-0.567515	-0.885898	-0.000271
C52	C	-0.548195	-0.949936	-0.000288
C53	C	-0.497781	-0.950676	-0.000281
C54	C	-0.474223	-0.696007	-0.000222
C55	C	-0.524638	-0.695272	-0.000227
C56	C	-0.555735	-0.758569	-0.000244
C57	C	0.152793	-0.818023	-0.000243
C58	C	0.206450	-0.818821	-0.000254
N59	N	0.064402	-0.824052	0.178937
C60	C	0.111096	-0.573681	-0.000194
C61	C	0.110354	-0.500862	-0.000202
C62	C	0.065931	-0.473249	-0.000205
C63	C	0.022246	-0.518461	-0.000181
C64	C	0.022990	-0.591278	-0.000165
N65	N	0.031976	-0.365491	-0.043078
N66	N	0.031273	-0.296317	-0.043094
C67	C	0.063689	-0.253854	-0.000251
N68	N	0.096841	-0.283177	0.042600
N69	N	0.097546	-0.352357	0.042613
C70	C	0.065120	-0.394291	-0.000222
C71	C	0.106566	-0.129692	-0.000279
C72	C	0.105822	-0.056872	-0.000282
C73	C	0.017714	-0.074473	-0.000269
C74	C	0.018459	-0.147292	-0.000258
C75	C	0.062886	-0.174897	-0.000267
N76	N	0.064410	-0.824101	-0.179389
C77	C	0.031456	-0.871889	0.218541
C78	C	0.031454	-0.871893	0.297789
C79	C	0.064406	-0.824067	0.337429
C80	C	0.097354	-0.776221	0.297816
C81	C	0.097352	-0.776214	0.218570
N82	N	0.107196	-0.814718	0.461842
N83	N	0.107196	-0.814729	0.537122
C84	C	0.064412	-0.824085	0.576193
N85	N	0.021627	-0.833444	0.537140
N86	N	0.021628	-0.833436	0.461853
C87	C	0.064411	-0.824069	0.423359
C88	C	0.031462	-0.871929	0.701727
C89	C	0.031459	-0.871928	0.780976
C90	C	0.097363	-0.776260	0.781001
C91	C	0.097361	-0.776257	0.701754
C92	C	0.064411	-0.824096	0.662121
H93	H	-0.093007	-0.944776	-0.000226
Br94	Br	0.169636	-0.439504	-0.000224
H95	H	0.124191	-0.737317	0.813276
Br96	Br	0.171389	-0.611142	-0.000204
H97	H	0.142741	-0.152169	-0.000275
H98	H	-0.013923	-0.495974	-0.000195
H99	H	0.004628	-0.910880	0.813222
Br100	Br	0.165106	0.004477	-0.000303
H101	H	0.004625	-0.910840	0.186275
Br102	Br	-0.013257	-0.936849	0.647938
H103	H	0.124191	-0.737307	0.669506
Br104	Br	-0.280769	-0.612310	-0.000214
Br105	Br	-0.201344	-0.977808	-0.000261
Br106	Br	-0.036293	-0.652629	-0.000137
Br107	Br	-0.320332	-1.039815	-0.000295
Br108	Br	-0.399591	-0.610558	-0.000214
Br109	Br	-0.173589	-0.677634	-0.000169
Br110	Br	-0.471574	-1.037595	-0.000298
H111	H	0.004625	-0.910848	0.330041
Br112	Br	-0.697603	-0.970522	-0.000275
H113	H	-0.017109	-0.184097	-0.000246
Br114	Br	-0.590409	-1.035839	-0.000304
H115	H	-0.778175	-0.703375	-0.000217
H116	H	-0.018456	-0.051991	-0.000319
H117	H	0.124183	-0.737280	0.330095
H118	H	-0.422268	-1.003703	-0.000284
Br119	Br	-0.669840	-0.670347	-0.000225
Br120	Br	0.142067	-0.711287	0.164816
Br121	Br	-0.550846	-0.608349	-0.000209
H122	H	-0.071630	-0.713749	-0.000177
H123	H	-0.799559	-0.934404	-0.000283
H124	H	-0.448908	-0.644461	-0.000210
