data_functionalizedCrystal
_audit_creation_method	'MofGen! by Chris Wilmer'
_symmetry_space_group_name_H-M	'P1'
_symmetry_Int_Tables_number	1
_symmetry_cell_setting	triclinic
loop_
_symmetry_equiv_pos_as_xyz
  x,y,z
_cell_length_a	25.639239
_cell_length_b	13.897449
_cell_length_c	13.897441
_cell_angle_alpha	90.023394
_cell_angle_beta	90.034305
_cell_angle_gamma	90.039513
loop_
_atom_site_label
_atom_site_type_symbol
_atom_site_fract_x
_atom_site_fract_y
_atom_site_fract_z
Zn1	Zn	-0.208123	1.474562	0.545425
Zn2	Zn	0.291877	1.974562	1.045425
Zn3	Zn	-0.295565	1.474397	0.384116
Zn4	Zn	0.204435	1.974397	0.884116
Zn5	Zn	-0.208147	1.313251	0.384136
Zn6	Zn	0.291853	1.813251	0.884136
Zn7	Zn	-0.295530	1.313174	0.545361
Zn8	Zn	0.204470	1.813174	1.045361
O9	O	-0.251841	1.393846	0.464759
O10	O	0.248159	1.893846	0.964759
O11	O	-0.219727	1.609522	0.524045
O12	O	0.280273	2.109522	1.024045
O13	O	-0.283994	1.452984	0.249137
O14	O	0.216006	1.952984	0.749137
O15	O	-0.134978	1.334751	0.405566
O16	O	0.365022	1.834751	0.905566
O17	O	-0.283970	1.609400	0.405532
O18	O	0.216030	2.109400	0.905532
O19	O	-0.134961	1.453265	0.524065
O20	O	0.365039	1.953265	1.024065
O21	O	-0.219768	1.334591	0.249151
O22	O	0.280232	1.834591	0.749151
O23	O	-0.219734	1.178259	0.405504
O24	O	0.280266	1.678259	0.905504
O25	O	-0.283910	1.334619	0.680351
O26	O	0.216090	1.834619	1.180351
O27	O	-0.283934	1.178202	0.523956
O28	O	0.216066	1.678202	1.023956
O29	O	-0.219693	1.453190	0.680398
O30	O	0.280307	1.953190	1.180398
O31	O	-0.368726	1.452909	0.405470
O32	O	0.131274	1.952909	0.905470
O33	O	-0.368700	1.334459	0.523936
O34	O	0.131300	1.834459	1.023936
C35	C	-0.251833	1.143232	0.464726
C36	C	0.248167	1.643232	0.964726
C37	C	-0.251842	1.036018	0.464734
C38	C	0.248158	1.536018	0.964734
C39	C	-0.251844	0.948948	0.464750
C40	C	0.248156	1.448948	0.964750
C41	C	-0.251848	0.839715	0.464780
C42	C	0.248152	1.339715	0.964780
C43	C	-0.387684	1.393684	0.464715
C44	C	0.112316	1.893684	0.964715
C45	C	-0.445798	1.393703	0.464728
C46	C	0.054202	1.893703	0.964728
C47	C	-0.806162	1.455684	0.403179
C48	C	-0.306162	1.955684	0.903179
C49	C	-0.860766	1.455721	0.403192
C50	C	-0.360766	1.955721	0.903192
O51	O	-0.889003	1.508251	0.350812
O52	O	-0.389003	2.008251	0.850812
N53	N	-0.888080	1.394015	0.464823
N54	N	-0.388080	1.894015	0.964823
C55	C	-0.860787	1.332275	0.526452
C56	C	-0.360787	1.832275	1.026452
O57	O	-0.889034	1.279794	0.578876
O58	O	-0.389034	1.779794	1.078876
C59	C	-0.806184	1.332243	0.526444
C60	C	-0.306184	1.832243	1.026444
C61	C	-0.778873	1.393946	0.464801
C62	C	-0.278873	1.893946	0.964801
C63	C	-0.778850	1.517382	0.341543
C64	C	-0.278850	2.017382	0.841543
C65	C	-0.724250	1.517343	0.341529
C66	C	-0.224250	2.017343	0.841529
C67	C	-0.696961	1.455606	0.403151
C68	C	-0.196961	1.955606	0.903151
C69	C	-0.724272	1.393907	0.464788
C70	C	-0.224272	1.893907	0.964788
C71	C	-0.778892	1.270509	0.588077
C72	C	-0.278892	1.770509	1.088077
C73	C	-0.724285	1.270483	0.588063
C74	C	-0.224285	1.770483	1.088063
C75	C	-0.696974	1.332186	0.526421
C76	C	-0.196974	1.832186	1.026421
C77	C	-0.642382	1.332131	0.526396
C78	C	-0.142382	1.832131	1.026396
N79	N	-0.615068	1.393837	0.464765
N80	N	-0.115068	1.893837	0.964765
C81	C	-0.642357	1.455574	0.403142
C82	C	-0.142357	1.955574	0.903142
C83	C	-0.975458	1.332348	0.526467
C84	C	-0.475458	1.832348	1.026467
C85	C	-1.030060	1.332374	0.526472
C86	C	-0.530060	1.832374	1.026472
C87	C	-1.030035	1.455822	0.403212
C88	C	-0.530035	1.955822	0.903212
C89	C	-0.975432	1.455790	0.403204
C90	C	-0.475432	1.955790	0.903204
C91	C	-0.948144	1.394054	0.464836
C92	C	-0.448144	1.894054	0.964836
C93	C	-0.527692	1.455487	0.403117
C94	C	-0.027692	1.955487	0.903117
C95	C	-0.473087	1.455440	0.403106
C96	C	0.026913	1.955440	0.903106
C97	C	-0.473117	1.331997	0.526369
C98	C	0.026883	1.831997	1.026369
C99	C	-0.527717	1.332040	0.526377
C100	C	-0.027717	1.832040	1.026377
C101	C	-0.555004	1.393793	0.464748
C102	C	-0.055004	1.893793	0.964748
O103	O	-0.614110	1.279630	0.578752
O104	O	-0.114110	1.779630	1.078752
O105	O	-0.614104	1.508056	0.350736
O106	O	-0.114104	2.008056	0.850736
C107	C	-0.115468	1.394035	0.464825
C108	C	0.384532	1.894035	0.964825
C109	C	-0.057354	1.394116	0.464853
C110	C	0.442646	1.894116	0.964853
C111	C	-0.251795	1.393914	0.716352
C112	C	0.248205	1.893914	1.216352
C113	C	-0.251775	1.393944	0.823566
C114	C	0.248225	1.893944	1.323566
C115	C	-0.251850	1.645439	0.464794
C116	C	0.248150	2.145439	0.964794
C117	C	-0.251853	1.752653	0.464808
C118	C	0.248147	2.252653	0.964808
C119	C	-0.251849	1.393833	0.214145
C120	C	0.248151	1.893833	0.714145
C121	C	-0.251722	1.393991	0.106931
C122	C	0.248278	1.893991	0.606931
C123	C	-0.251740	1.393970	1.019862
C124	C	0.248260	1.893970	1.519862
C125	C	-0.251761	1.393952	0.910629
C126	C	0.248239	1.893952	1.410629
H127	H	-0.450851	1.505686	0.352906
H128	H	0.049149	2.005686	0.852906
C129	C	-0.522168	1.577495	0.281267
C130	C	-0.022168	2.077495	0.781267
C131	C	-0.557680	1.523359	0.335367
C132	C	-0.057680	2.023359	0.835367
H133	H	-0.540682	1.619387	0.239435
H134	H	-0.040682	2.119387	0.739435
H135	H	-0.500836	1.614353	0.323326
H136	H	-0.000836	2.114353	0.823326
H137	H	-0.500907	1.535456	0.244338
H138	H	-0.000907	2.035456	0.744338
H139	H	-0.578938	1.565399	0.372302
H140	H	-0.078938	2.065399	0.872302
H141	H	-0.579021	1.486499	0.293304
H142	H	-0.079021	1.986499	0.793304
C143	C	-0.456368	1.168630	0.573222
C144	C	0.043632	1.668630	1.073222
C145	C	-0.443115	1.264143	0.594112
C146	C	0.056885	1.764143	1.094112
H147	H	-0.437843	1.126747	0.615048
H148	H	0.062157	1.626747	1.115048
H149	H	-0.492791	1.159821	0.582055
H150	H	0.007209	1.659821	1.082055
H151	H	-0.447448	1.154542	0.508398
H152	H	0.052552	1.654542	1.008398
H153	H	-0.452039	1.278233	0.658934
H154	H	0.047961	1.778233	1.158934
H155	H	-0.406684	1.272957	0.585287
H156	H	0.093316	1.772957	1.085287
C157	C	-0.729726	1.639380	0.219712
C158	C	-0.229726	2.139380	0.719712
C159	C	-0.694234	1.585184	0.273783
C160	C	-0.194234	2.085184	0.773783
H161	H	-0.711197	1.681271	0.177895
H162	H	-0.211197	2.181271	0.677895
H163	H	-0.751057	1.597386	0.182778
H164	H	-0.251057	2.097386	0.682778
H165	H	-0.750990	1.676251	0.261797
H166	H	-0.250990	2.176251	0.761797
H167	H	-0.672972	1.548308	0.231699
H168	H	-0.172972	2.048308	0.731699
H169	H	-0.672894	1.627184	0.310721
H170	H	-0.172894	2.127184	0.810721
C171	C	-1.113732	1.510804	0.348633
C172	C	-0.613732	2.010804	0.848633
C173	C	-1.060038	1.523772	0.335560
C174	C	-0.560038	2.023772	0.835560
H175	H	-1.132254	1.552779	0.306896
H176	H	-0.632254	2.052779	0.806896
H177	H	-1.122740	1.446042	0.334376
H178	H	-0.622740	1.946042	0.834376
H179	H	-1.122616	1.524812	0.413491
H180	H	-0.622616	2.024812	0.913491
H181	H	-1.051154	1.509757	0.270704
H182	H	-0.551154	2.009757	0.770704
H183	H	-1.051027	1.588549	0.349810
H184	H	-0.551027	2.088549	0.849810
C185	C	-0.840137	1.647261	0.328338
C186	C	-0.340137	2.147261	0.828338
C187	C	-0.808819	1.585319	0.273834
C188	C	-0.308819	2.085319	0.773834
H189	H	-0.858626	1.689225	0.286540
H190	H	-0.358626	2.189225	0.786540
H191	H	-0.864238	1.610528	0.364995
H192	H	-0.364238	2.110528	0.864995
H193	H	-0.818781	1.684050	0.370431
H194	H	-0.318781	2.184050	0.870431
H195	H	-0.830174	1.548524	0.231745
H196	H	-0.330174	2.048524	0.731745
H197	H	-0.784714	1.622056	0.237161
H198	H	-0.284714	2.122056	0.737161
C199	C	-0.662951	1.140679	0.601349
C200	C	-0.162951	1.640679	1.101349
C201	C	-0.694291	1.202618	0.655813
C202	C	-0.194291	1.702618	1.155813
H203	H	-0.644433	1.098787	0.643176
H204	H	-0.144433	1.598787	1.143176
H205	H	-0.684290	1.103822	0.559302
H206	H	-0.184290	1.603822	1.059302
H207	H	-0.638869	1.177427	0.564645
H208	H	-0.138869	1.677427	1.064645
H209	H	-0.718376	1.165870	0.692512
H210	H	-0.218376	1.665870	1.192512
H211	H	-0.672950	1.239479	0.697877
H212	H	-0.172950	1.739479	1.197877
H213	H	-0.953198	1.506034	0.353010
H214	H	-0.453198	2.006034	0.853010
H215	H	-0.549955	1.281799	0.576574
H216	H	-0.049955	1.781799	1.076574
H217	H	-1.052293	1.282120	0.576658
H218	H	-0.552293	1.782120	1.076658
C219	C	-0.914018	1.318815	0.656208
C220	C	-0.414018	1.818815	1.156208
C221	C	-0.945465	1.264471	0.594211
C222	C	-0.445465	1.764471	1.094211
H223	H	-0.895507	1.276910	0.698033
H224	H	-0.395507	1.776910	1.198033
H225	H	-0.889935	1.355545	0.619506
H226	H	-0.389935	1.855545	1.119506
H227	H	-0.935287	1.360833	0.693143
H228	H	-0.435287	1.860833	1.193143
H229	H	-0.924195	1.222457	0.557270
H230	H	-0.424195	1.722457	1.057270
H231	H	-0.969551	1.227724	0.630916
H232	H	-0.469551	1.727724	1.130916
C233	C	-0.773409	1.148509	0.709929
C234	C	-0.273409	1.648509	1.209929
C235	C	-0.808903	1.202688	0.655844
C236	C	-0.308903	1.702688	1.155844
H237	H	-0.791937	1.106643	0.751772
H238	H	-0.291937	1.606643	1.251772
H239	H	-0.752152	1.111622	0.667861
H240	H	-0.252152	1.611622	1.167861
H241	H	-0.752071	1.190523	0.746845
H242	H	-0.252071	1.690523	1.246845
H243	H	-0.830238	1.160675	0.618922
H244	H	-0.330238	1.660675	1.118922
H245	H	-0.830169	1.239579	0.697917
H246	H	-0.330169	1.739579	1.197917
