data_functionalizedCrystal
_audit_creation_method	'MofGen! by Chris Wilmer'
_symmetry_space_group_name_H-M	'P1'
_symmetry_Int_Tables_number	1
_symmetry_cell_setting	triclinic
loop_
_symmetry_equiv_pos_as_xyz
  x,y,z
_cell_length_a	15.944493
_cell_length_b	14.421503
_cell_length_c	14.971486
_cell_angle_alpha	90.004087
_cell_angle_beta	96.455414
_cell_angle_gamma	90.007064
loop_
_atom_site_label
_atom_site_type_symbol
_atom_site_fract_x
_atom_site_fract_y
_atom_site_fract_z
O1	O	1.114669	0.077100	-0.115101
O2	O	1.614669	0.577100	0.384899
O3	O	0.870126	0.077104	-0.129377
O4	O	1.370126	0.577104	0.370623
O5	O	0.998952	0.077095	0.007970
O6	O	1.498952	0.577095	0.507970
O7	O	0.985843	0.077109	-0.252448
O8	O	1.485843	0.577109	0.247552
O9	O	0.998931	-0.077128	0.007949
O10	O	1.498931	0.422872	0.507949
O11	O	0.870105	-0.077119	-0.129398
O12	O	1.370105	0.422881	0.370602
O13	O	1.114648	-0.077124	-0.115121
O14	O	1.614648	0.422876	0.384879
Cu15	Cu	0.992374	-0.091203	-0.122261
Cu16	Cu	1.492374	0.408797	0.377739
Cu17	Cu	0.992400	0.091184	-0.122237
Cu18	Cu	1.492400	0.591184	0.377763
O19	O	0.985822	-0.077115	-0.252468
O20	O	1.485822	0.422885	0.247532
C21	C	0.838820	-0.000007	-0.128804
C22	C	1.338820	0.499993	0.371196
C23	C	0.745570	-0.000005	-0.127055
C24	C	1.245570	0.499995	0.372945
C25	C	0.509887	-0.000000	-0.207900
C26	C	1.009887	0.500000	0.292100
C27	C	0.459277	-0.076047	-0.164313
C28	C	0.959277	0.423953	0.335687
C29	C	0.574846	-0.000007	-0.123813
C30	C	1.074846	0.499993	0.376187
C31	C	0.459302	0.076005	-0.164273
C32	C	0.959302	0.576005	0.335727
C33	C	0.409933	-0.000005	-0.120688
C34	C	0.909933	0.499995	0.379312
C35	C	0.525464	-0.076116	-0.080249
C36	C	1.025464	0.423884	0.419751
C37	C	0.525493	0.076004	-0.080221
C38	C	1.025493	0.576004	0.419779
C39	C	0.474915	-0.000061	-0.036573
C40	C	0.974915	0.499939	0.463427
C41	C	0.669848	-0.000009	-0.125616
C42	C	1.169848	0.499991	0.374384
C43	C	0.314935	-0.000010	-0.118879
C44	C	0.814935	0.499990	0.381121
N45	N	0.992363	-0.219484	-0.122278
N46	N	1.492363	0.280516	0.377722
C47	C	0.932783	-0.469134	-0.185758
C48	C	1.432783	0.030866	0.314242
C49	C	1.008702	-0.530937	-0.203107
C50	C	1.508702	-0.030937	0.296893
C51	C	0.992383	-0.408646	-0.122256
C52	C	1.492383	0.091354	0.377744
C53	C	0.916484	-0.530937	-0.104929
C54	C	1.416484	-0.030937	0.395071
C55	C	0.992396	-0.591367	-0.122238
C56	C	1.492396	-0.091367	0.377762
C57	C	1.068340	-0.469088	-0.139645
C58	C	1.568340	0.030912	0.360355
C59	C	0.976073	-0.469082	-0.041432
C60	C	1.476073	0.030918	0.458568
C61	C	1.052046	-0.530858	-0.058746
C62	C	1.552046	-0.030858	0.441254
C63	C	0.992375	-0.303385	-0.122269
C64	C	1.492375	0.196615	0.377731
C65	C	0.992414	-0.696626	-0.122224
C66	C	1.492414	-0.196626	0.377776
C67	C	1.145954	-0.000010	-0.115694
C68	C	1.645954	0.499990	0.384306
C69	C	1.239204	-0.000006	-0.117444
C70	C	1.739204	0.499994	0.382556
C71	C	0.998355	-0.000016	0.041283
C72	C	1.498355	0.499984	0.541283
C73	C	0.996598	-0.000015	0.140578
C74	C	1.496598	0.499985	0.640578
N75	N	0.992418	0.219465	-0.122214
N76	N	1.492418	0.719465	0.377786
C77	C	0.986419	-0.000001	-0.285782
C78	C	1.486419	0.499999	0.214218
C79	C	0.988176	0.000004	-0.385077
C80	C	1.488176	0.500004	0.114923
C81	C	1.072280	-0.000017	0.197902
C82	C	1.572280	0.499983	0.697902
C83	C	1.070624	-0.000008	0.291199
C84	C	1.570624	0.499992	0.791199
C85	C	0.993286	-0.000003	0.327171
C86	C	1.493286	0.499997	0.827171
C87	C	0.917599	0.000002	0.269840
C88	C	1.417599	0.500002	0.769840
C89	C	0.919255	-0.000001	0.176544
C90	C	1.419255	0.499999	0.676544
C91	C	0.914151	0.000005	0.464298
C92	C	1.414151	0.500005	0.964298
C93	C	0.912494	0.000006	0.557600
C94	C	1.412494	0.500006	1.057600
C95	C	1.065520	-0.000002	0.578953
C96	C	1.565520	0.499998	1.078953
C97	C	1.067177	-0.000004	0.485657
C98	C	1.567177	0.499996	0.985657
C99	C	0.991489	-0.000001	0.428333
C100	C	1.491489	0.499999	0.928333
H101	H	0.525580	-0.000068	-0.280332
H102	H	1.025580	0.499932	0.219668
C103	C	1.148775	0.000012	0.642005
C104	C	1.648775	0.500012	1.142005
H105	H	1.136715	0.000028	0.702721
H106	H	1.636715	0.500028	1.202721
H107	H	1.180481	-0.053769	0.631107
H108	H	1.680481	0.446231	1.131107
H109	H	1.180485	0.053800	0.631098
H110	H	1.680485	0.553800	1.131098
H111	H	0.459381	-0.000108	0.035914
H112	H	0.959381	0.499892	0.535914
C113	C	0.420212	-0.162888	-0.212294
C114	C	0.920212	0.337112	0.287706
H115	H	0.431915	-0.162793	-0.273129
H116	H	0.931915	0.337207	0.226871
H117	H	0.443747	-0.216887	-0.183030
H118	H	0.943747	0.283113	0.316970
H119	H	0.360865	-0.162546	-0.210341
H120	H	0.860865	0.337454	0.289659
C121	C	1.157353	-0.000022	0.158341
C122	C	1.657353	0.499978	0.658341
H123	H	1.202189	-0.000014	0.205847
H124	H	1.702189	0.499986	0.705847
H125	H	1.161176	-0.053804	0.122387
H126	H	1.661176	0.446196	0.622387
H127	H	1.161187	0.053765	0.122395
H128	H	1.661187	0.553765	0.622395
H129	H	0.554414	0.140294	-0.044728
H130	H	1.054414	0.640294	0.455272
H131	H	1.102508	-0.557789	-0.005033
H132	H	1.602508	-0.057789	0.494967
H133	H	0.430407	0.140288	-0.199793
H134	H	0.930407	0.640288	0.300207
H135	H	1.132252	-0.000012	0.337869
H136	H	1.632252	0.499988	0.837869
C137	C	0.827427	0.000015	0.597172
C138	C	1.327427	0.500015	1.097172
H139	H	0.837283	0.000005	0.660946
H140	H	1.337283	0.500005	1.160946
H141	H	0.796270	0.053799	0.577504
H142	H	1.296270	0.553799	1.077504
H143	H	0.796251	-0.053770	0.577491
H144	H	1.296251	0.446230	1.077491
H145	H	0.554249	-0.140471	-0.044768
H146	H	1.054249	0.359529	0.455232
H147	H	0.852518	0.000010	0.417626
H148	H	1.352518	0.500010	0.917626
H149	H	0.852292	-0.558106	-0.090282
H150	H	1.352292	-0.058106	0.409718
H151	H	0.882433	-0.442033	-0.239503
H152	H	1.382433	0.057967	0.260497
C153	C	1.027351	-0.567655	-0.295426
C154	C	1.527351	-0.067655	0.204574
H155	H	0.984948	-0.546529	-0.340488
H156	H	1.484948	-0.046529	0.159512
H157	H	1.080863	-0.545573	-0.308171
H158	H	1.580863	-0.045573	0.191829
H159	H	1.027725	-0.633522	-0.294578
H160	H	1.527725	-0.133522	0.205422
H161	H	1.132546	-0.442035	-0.154374
H162	H	1.632546	0.057965	0.345626
H163	H	0.962241	-0.441892	0.026890
H164	H	1.462241	0.058108	0.526890
H165	H	1.130152	-0.000015	0.456373
H166	H	1.630152	0.499985	0.956373
H167	H	0.854628	0.000012	0.299135
H168	H	1.354628	0.500012	0.799135
C169	C	0.836006	-0.000001	0.113488
C170	C	1.336006	0.499999	0.613488
H171	H	0.789708	-0.000006	0.148272
H172	H	1.289708	0.499994	0.648272
H173	H	0.833480	0.053779	0.076653
H174	H	1.333480	0.553779	0.576653
H175	H	0.833463	-0.053789	0.076647
H176	H	1.333463	0.446211	0.576647
