data_functionalizedCrystal
_audit_creation_method	'MofGen! by Chris Wilmer'
_symmetry_space_group_name_H-M	'P1'
_symmetry_Int_Tables_number	1
_symmetry_cell_setting	triclinic
loop_
_symmetry_equiv_pos_as_xyz
  x,y,z
_cell_length_a	18.101398
_cell_length_b	25.639239
_cell_length_c	18.101389
_cell_angle_alpha	89.979551
_cell_angle_beta	89.975673
_cell_angle_gamma	90.033952
loop_
_atom_site_label
_atom_site_type_symbol
_atom_site_fract_x
_atom_site_fract_y
_atom_site_fract_z
Zn1	Zn	1.132082	-0.208272	-0.418828
Zn2	Zn	1.131961	-0.295693	-0.294982
Zn3	Zn	1.008241	-0.208266	-0.294989
Zn4	Zn	1.008175	-0.295671	-0.418771
O5	O	1.070115	-0.251975	-0.356893
O6	O	1.235699	-0.219880	-0.402421
O7	O	1.115527	-0.284103	-0.191350
O8	O	1.024747	-0.135102	-0.311444
O9	O	1.235610	-0.284108	-0.311432
O10	O	1.115732	-0.135106	-0.402428
O11	O	1.024630	-0.219871	-0.191356
O12	O	0.904599	-0.219849	-0.311388
O13	O	1.024635	-0.284070	-0.522411
O14	O	0.904551	-0.284065	-0.402330
O15	O	1.115668	-0.219858	-0.522454
O16	O	1.115463	-0.368855	-0.311376
O17	O	1.024518	-0.368839	-0.402323
C18	C	0.877704	-0.251954	-0.356854
C19	C	0.795390	-0.251958	-0.356855
C20	C	0.496299	-0.251990	-0.356917
C21	C	0.527630	-0.211386	-0.299978
C22	C	0.613248	-0.211495	-0.299735
C23	C	0.644682	-0.251974	-0.356886
C24	C	0.613553	-0.307048	-0.335559
C25	C	0.527908	-0.306822	-0.335163
C26	C	0.527917	-0.238000	-0.435317
C27	C	0.613568	-0.236773	-0.434890
C28	C	0.728541	-0.251968	-0.356870
C29	C	0.412440	-0.252000	-0.356932
C30	C	1.069990	-0.387818	-0.356859
C31	C	1.070005	-0.445932	-0.356869
C32	C	1.117594	-0.806291	-0.309617
C33	C	1.117622	-0.860895	-0.309627
O34	O	1.157955	-0.889129	-0.269415
N35	N	1.070245	-0.888214	-0.356942
C36	C	1.022841	-0.860926	-0.404255
O37	O	0.982546	-0.889177	-0.444501
C38	C	1.022817	-0.806323	-0.404248
C39	C	1.070192	-0.779007	-0.356925
C40	C	1.164965	-0.778975	-0.262299
C41	C	1.164936	-0.724374	-0.262288
C42	C	1.117534	-0.697090	-0.309596
C43	C	1.070162	-0.724406	-0.356914
C44	C	0.975417	-0.779036	-0.451564
C45	C	0.975397	-0.724429	-0.451554
C46	C	1.022773	-0.697113	-0.404231
C47	C	1.022731	-0.642522	-0.404212
N48	N	1.070108	-0.615202	-0.356897
C49	C	1.117509	-0.642487	-0.309589
C50	C	1.022897	-0.975597	-0.404266
C51	C	1.022917	-1.030199	-0.404270
C52	C	1.117699	-1.030164	-0.309643
C53	C	1.117675	-0.975561	-0.309636
C54	C	1.070274	-0.948278	-0.356952
C55	C	1.117443	-0.527822	-0.309570
C56	C	1.117406	-0.473216	-0.309561
C57	C	1.022627	-0.473256	-0.404190
C58	C	1.022661	-0.527856	-0.404197
C59	C	1.070074	-0.555138	-0.356884
O60	O	0.982421	-0.614254	-0.444405
O61	O	1.157804	-0.614229	-0.269357
C62	C	1.263277	-0.251997	-0.356932
C63	C	1.345591	-0.252006	-0.356949
C64	C	1.070158	-0.251962	-0.550055
C65	C	1.070176	-0.251957	-0.632369
C66	C	1.070260	-0.115602	-0.356943
C67	C	1.070322	-0.057488	-0.356964
C68	C	1.070219	-0.251859	-0.931460
C69	C	1.012746	-0.292130	-0.900108
C70	C	1.012901	-0.292317	-0.814490
C71	C	1.070197	-0.251907	-0.783077
C72	C	1.148220	-0.266868	-0.814182
C73	C	1.147899	-0.267132	-0.899827
C74	C	1.050348	-0.196537	-0.899887
C75	C	1.048612	-0.196856	-0.814236
C76	C	1.070189	-0.251934	-0.699218
C77	C	1.070232	-0.251833	-1.015320
C78	C	1.070115	-0.251951	-0.164482
C79	C	1.070240	-0.251809	-0.082169
H80	H	1.155985	-0.450977	-0.271023
H81	H	1.203570	-0.801184	-0.223775
H82	H	1.156053	-0.550028	-0.271045
H83	H	1.025734	-0.332886	-0.921632
H84	H	0.984086	-0.550098	-0.442733
H85	H	1.156252	-0.953323	-0.271102
C86	C	1.258635	-0.729841	-0.168769
C87	C	1.217023	-0.694353	-0.210280
H88	H	1.290798	-0.711309	-0.136666
H89	H	1.226395	-0.751165	-0.140410
H90	H	1.286941	-0.751113	-0.201082
H91	H	1.188713	-0.673084	-0.177967
H92	H	1.249267	-0.673020	-0.238641
H93	H	1.156299	-1.052389	-0.271125
C94	C	1.170661	-0.322666	-1.004152
C95	C	1.170650	-0.321723	-0.926809
H96	H	1.184714	-0.356367	-1.020804
H97	H	1.122559	-0.314742	-1.021825
H98	H	1.204729	-0.297532	-1.022278
H99	H	1.136579	-0.346854	-0.908682
H100	H	1.218759	-0.329653	-0.909128
H101	H	0.984333	-1.052436	-0.442798
H102	H	0.984292	-0.953386	-0.442794
H103	H	0.936836	-0.801268	-0.490096
H104	H	0.936799	-0.702218	-0.490086
C105	C	0.681284	-0.386784	-0.351112
C106	C	0.641036	-0.348988	-0.389784
H107	H	0.698247	-0.412677	-0.384589
H108	H	0.722399	-0.370809	-0.327644
H109	H	0.650495	-0.402506	-0.314883
H110	H	0.671827	-0.333264	-0.426009
H111	H	0.599915	-0.364965	-0.413263
C112	C	0.980518	-0.389563	-0.446190
C113	C	0.970529	-0.443258	-0.456193
H114	H	0.948360	-0.371044	-0.478301
H115	H	0.969698	-0.380643	-0.396426
H116	H	1.030271	-0.380587	-0.457071
H117	H	0.920777	-0.452234	-0.445307
H118	H	0.981344	-0.452182	-0.505969
C119	C	0.561843	-0.332541	-0.212228
C120	C	0.500884	-0.322834	-0.257790
H121	H	0.545160	-0.342422	-0.164459
H122	H	0.590619	-0.359905	-0.232761
H123	H	0.591084	-0.301874	-0.208555
H124	H	0.471646	-0.353503	-0.261468
H125	H	0.472095	-0.295468	-0.237252
H126	H	0.955044	-0.282955	-0.793458
H127	H	0.954715	-0.282864	-0.920695
C128	C	1.079858	-0.105832	-0.814413
C129	C	1.100996	-0.154196	-0.785373
H130	H	1.112200	-0.079496	-0.796590
H131	H	1.082323	-0.107023	-0.866801
H132	H	1.030718	-0.098172	-0.799532
H133	H	1.150135	-0.161858	-0.800259
H134	H	1.098538	-0.153005	-0.732974
H135	H	1.026019	-0.333323	-0.794005
H136	H	0.507180	-0.338099	-0.374826
H137	H	1.192191	-0.238457	-0.793838
H138	H	1.192172	-0.239073	-0.920569
C139	C	1.237048	-0.316292	-0.744937
C140	C	1.171358	-0.320883	-0.785242
H141	H	1.251326	-0.349639	-0.727069
H142	H	1.274803	-0.302773	-0.775978
H143	H	1.229560	-0.293354	-0.704422
H144	H	1.178848	-0.343818	-0.825761
H145	H	1.133595	-0.334409	-0.754199
C146	C	0.561273	-0.302988	-0.524775
C147	C	0.500562	-0.277921	-0.492594
H148	H	0.544380	-0.327636	-0.560127
H149	H	0.591808	-0.277902	-0.548460
H150	H	0.588797	-0.320434	-0.487562
H151	H	0.473041	-0.260472	-0.529807
H152	H	0.470015	-0.303010	-0.468909
H153	H	0.994443	-0.182907	-0.921474
H154	H	0.991194	-0.185574	-0.793905
H155	H	0.633919	-0.196245	-0.450971
C156	C	0.581545	-0.122927	-0.328849
C157	C	0.641668	-0.156356	-0.317740
H158	H	0.599090	-0.088883	-0.339948
H159	H	0.552515	-0.135414	-0.368810
H160	H	0.552263	-0.121807	-0.285317
H161	H	0.670948	-0.157479	-0.361274
H162	H	0.670711	-0.143866	-0.277775
C163	C	0.421297	-0.221280	-0.221854
C164	C	0.498569	-0.223774	-0.222013
H165	H	0.403368	-0.228947	-0.173723
H166	H	0.406003	-0.187237	-0.235775
H167	H	0.402116	-0.245970	-0.255948
H168	H	0.517751	-0.199080	-0.187922
H169	H	0.513870	-0.257822	-0.208082
H170	H	1.092209	-0.166532	-0.920164
H171	H	0.507068	-0.170421	-0.313200
H172	H	0.506352	-0.198540	-0.454708
C173	C	0.718218	-0.224143	-0.220705
C174	C	0.640866	-0.223984	-0.221314
H175	H	0.735266	-0.231852	-0.172287
H176	H	0.735855	-0.249851	-0.254098
H177	H	0.735991	-0.190827	-0.235304
H178	H	0.623093	-0.257300	-0.206720
H179	H	0.623222	-0.198274	-0.187910
H180	H	0.634966	-0.319119	-0.278864
H181	H	0.634968	-0.264193	-0.479587
