data_functionalizedCrystal
_audit_creation_method	'MofGen! by Chris Wilmer'
_symmetry_space_group_name_H-M	'P1'
_symmetry_Int_Tables_number	1
_symmetry_cell_setting	triclinic
loop_
_symmetry_equiv_pos_as_xyz
  x,y,z
_cell_length_a	12.970454
_cell_length_b	14.560438
_cell_length_c	14.560438
_cell_angle_alpha	60.001909
_cell_angle_beta	59.999012
_cell_angle_gamma	89.999747
loop_
_atom_site_label
_atom_site_type_symbol
_atom_site_fract_x
_atom_site_fract_y
_atom_site_fract_z
Zr1	Zr	0.993223	-0.120519	1.005268
O2	O	0.828598	-0.267159	1.196867
O3	O	1.043689	-0.075568	0.813668
O4	O	1.043688	-0.267166	1.005265
O5	O	0.828599	0.075577	1.005272
O6	O	1.213355	-0.267168	1.005265
O7	O	0.828598	-0.075562	1.005270
O8	O	1.213357	0.075565	0.662532
O9	O	0.828598	-0.267156	1.348005
O10	O	1.191833	-0.056396	0.892476
O11	O	1.065213	0.056398	0.892478
O12	O	1.065212	-0.169183	1.118059
O13	O	0.938592	-0.056388	1.118062
Zr14	Zr	1.263824	0.120526	1.005271
Zr15	Zr	1.263823	-0.120523	1.005267
Zr16	Zr	0.993224	0.120529	1.005272
Zr17	Zr	0.993223	-0.120514	1.246316
Zr18	Zr	1.263824	0.120521	0.764223
O19	O	1.213358	0.075575	1.196871
O20	O	1.213356	-0.267164	1.196865
O21	O	0.828600	0.075580	1.196873
O22	O	1.428449	0.267166	0.813672
O23	O	1.428447	-0.075573	0.813666
O24	O	1.043691	0.267171	0.813674
O25	O	1.428447	-0.075570	1.005267
O26	O	1.213359	0.267172	1.005274
O27	O	1.043691	0.267175	1.005274
O28	O	1.428448	0.075568	1.005269
O29	O	1.043689	-0.267159	1.348004
O30	O	1.213358	0.267166	0.662535
O31	O	1.428449	0.267163	0.662534
O32	O	1.428448	0.075562	0.662531
O33	O	0.828599	-0.075555	1.348008
O34	O	1.043690	-0.075558	1.348007
O35	O	1.191835	0.169190	0.892479
O36	O	1.318455	0.056395	0.892477
O37	O	1.191834	-0.056392	1.118061
O38	O	1.065213	0.056403	1.118063
C39	C	0.790044	0.000008	1.005271
C40	C	0.675167	0.000010	1.005272
C41	C	1.128523	-0.000002	0.703756
C42	C	1.128522	-0.000004	0.601425
C43	C	1.128525	0.301518	1.005275
C44	C	1.128526	0.403849	1.005276
C45	C	1.467003	-0.000001	1.005268
C46	C	1.581879	-0.000003	1.005267
C47	C	1.128522	-0.301511	1.005264
C48	C	1.128521	-0.403842	1.005263
C49	C	1.062433	0.393054	1.123027
C50	C	1.062426	0.489209	1.123020
C51	C	1.194616	0.606951	0.887503
C52	C	1.194614	0.510797	0.887511
C53	C	1.194614	-0.058882	0.553347
C54	C	1.194619	-0.058871	0.457188
C55	C	1.062430	0.058896	0.457196
C56	C	1.062434	0.058891	0.553347
C57	C	1.128524	0.000009	1.306783
C58	C	1.128524	0.000011	1.409114
C59	C	1.467002	-0.000007	0.703754
C60	C	1.581879	-0.000010	0.601422
C61	C	1.128524	0.301512	0.703761
C62	C	1.128525	0.403841	0.601431
C63	C	1.467004	0.301507	0.703759
C64	C	1.581881	0.403835	0.601429
C65	C	0.790043	-0.301501	1.306780
C66	C	0.675166	-0.403828	1.409110
C67	C	0.790045	0.000014	1.306785
C68	C	0.675168	0.000017	1.409116
C69	C	1.128522	-0.301505	1.306778
C70	C	1.128522	-0.403835	1.409107
C71	C	1.635827	0.083254	0.470092
C72	C	1.743755	0.083255	0.373927
C73	C	1.797737	-0.000006	0.409096
C74	C	1.743779	-0.083279	0.540439
C75	C	1.635848	-0.083283	0.636602
C76	C	1.635837	0.451887	0.470099
C77	C	1.743788	0.548024	0.373934
C78	C	1.797777	0.596112	0.409103
C79	C	1.743815	0.548051	0.540447
C80	C	1.635871	0.451912	0.636608
C81	C	0.621219	-0.451889	1.540440
C82	C	0.513291	-0.548047	1.636605
C83	C	0.459308	-0.596139	1.601436
C84	C	0.513264	-0.548073	1.470092
C85	C	0.621195	-0.451922	1.373930
C86	C	0.621220	0.083292	1.373907
C87	C	0.513292	0.083319	1.470045
C88	C	0.459309	0.000064	1.601392
C89	C	0.513267	-0.083216	1.636601
C90	C	0.621198	-0.083236	1.540463
C91	C	1.194619	0.510792	0.553356
C92	C	1.194605	0.606937	0.457215
C93	C	1.062401	0.489168	0.457231
C94	C	1.062408	0.393025	0.553376
H95	H	1.008616	0.305976	1.218919
Cl96	Cl	0.979292	0.475581	0.396809
H97	H	0.371424	0.000093	1.679660
H98	H	1.248450	0.519605	0.592484
H99	H	1.591935	-0.151086	0.743536
Cl100	Cl	1.277701	0.524369	0.739469
H101	H	0.665111	-0.151054	1.569150
Cl102	Cl	0.688993	-0.391507	1.208829
H103	H	1.248439	-0.106813	0.418044
H104	H	1.885619	0.000008	0.330781
Cl105	Cl	1.277695	0.741388	0.396785
H106	H	1.008580	0.305935	0.592523
H107	H	0.469299	-0.150998	1.743555
Cl108	Cl	0.979359	0.132938	0.396742
H109	H	1.248430	-0.106836	0.592488
Cl110	Cl	1.811658	-0.187942	0.584630
H111	H	0.469373	-0.587166	1.743544
Cl112	Cl	0.979320	0.475630	1.271056
H113	H	0.665155	0.151088	1.266964
H114	H	1.248425	0.694037	0.791623
H115	H	0.469372	0.151135	1.441353
H116	H	1.008613	0.106842	0.592490
H117	H	1.591893	0.412746	0.441439
Cl118	Cl	0.323619	-0.717015	1.722342
H119	H	1.591889	0.151058	0.441432
H120	H	1.787703	0.587146	0.266995
H121	H	1.787674	0.151069	0.266988
Cl122	Cl	1.811696	0.608524	0.584638
Cl123	Cl	1.933477	0.716978	0.288195
Cl124	Cl	1.568046	0.391522	0.801710
H125	H	0.665155	-0.412743	1.569101
H126	H	0.469294	-0.587244	1.441474
