data_functionalizedCrystal
_audit_creation_method	'MofGen! by Chris Wilmer'
_symmetry_space_group_name_H-M	'P1'
_symmetry_Int_Tables_number	1
_symmetry_cell_setting	triclinic
loop_
_symmetry_equiv_pos_as_xyz
  x,y,z
_cell_length_a	18.215407
_cell_length_b	14.908520
_cell_length_c	18.215399
_cell_angle_alpha	93.266785
_cell_angle_beta	89.983176
_cell_angle_gamma	93.321174
loop_
_atom_site_label
_atom_site_type_symbol
_atom_site_fract_x
_atom_site_fract_y
_atom_site_fract_z
Zn1	Zn	1.108156	-0.359136	-0.433016
Zn2	Zn	1.100973	-0.510011	-0.317050
Zn3	Zn	0.985093	-0.359172	-0.309965
Zn4	Zn	0.977960	-0.509955	-0.440072
O5	O	1.043046	-0.434568	-0.375026
O6	O	1.210187	-0.379159	-0.417645
O7	O	1.085581	-0.490041	-0.213128
O8	O	1.007409	-0.232922	-0.320370
O9	O	1.204910	-0.490006	-0.332445
O10	O	1.097823	-0.232896	-0.410775
O11	O	1.000445	-0.379220	-0.207923
O12	O	0.881163	-0.379165	-0.327212
O13	O	0.995251	-0.489909	-0.542119
O14	O	0.875922	-0.489944	-0.422801
O15	O	1.090906	-0.379104	-0.536935
O16	O	1.078664	-0.636248	-0.339287
O17	O	0.988286	-0.636207	-0.429671
C18	C	0.851840	-0.434553	-0.375004
C19	C	0.770040	-0.434568	-0.375013
C20	C	1.031942	-0.668961	-0.386029
C21	C	1.027259	-0.769236	-0.390761
C22	C	0.579133	-0.492342	-0.424732
C23	C	0.502274	-0.492344	-0.424741
C24	C	0.507710	-0.376812	-0.325337
C25	C	0.584568	-0.376805	-0.325332
C26	C	0.620277	-0.434575	-0.375028
C27	C	0.466560	-0.434585	-0.375043
C28	C	0.383226	-0.434587	-0.375052
C29	C	0.703616	-0.434571	-0.375020
C30	C	1.112666	-0.957644	-0.305612
C31	C	1.108269	-1.051861	-0.310056
C32	C	1.014070	-1.051887	-0.404096
C33	C	1.018468	-0.957671	-0.399652
C34	C	1.067767	-0.910552	-0.350408
C35	C	1.072160	-0.816334	-0.345961
C36	C	0.977966	-0.816362	-0.440004
C37	C	0.973569	-0.910579	-0.444447
C38	C	1.234998	-0.434585	-0.375048
C39	C	1.316796	-0.434591	-0.375058
C40	C	1.043084	-0.434496	-0.566976
C41	C	1.043100	-0.434466	-0.648773
C42	C	1.054213	-0.199260	-0.363996
C43	C	1.058972	-0.098986	-0.359295
C44	C	0.998811	-0.376722	-0.834256
C45	C	0.998825	-0.376704	-0.911114
C46	C	1.087482	-0.492101	-0.916523
C47	C	1.087464	-0.492123	-0.839667
C48	C	1.043130	-0.434429	-0.798535
C49	C	1.043162	-0.434389	-0.952249
C50	C	1.043177	-0.434369	-1.035582
C51	C	1.043113	-0.434449	-0.715197
C52	C	1.043053	-0.434575	-0.183820
C53	C	1.043191	-0.434352	-0.102011
H54	H	0.608205	-0.539380	-0.465199
H55	H	0.468777	-0.539382	-0.465215
O56	O	0.955877	-0.320607	-0.945894
C57	C	1.000547	-0.262315	-0.987618
H58	H	1.054812	-0.294129	-1.000626
H59	H	0.971153	-0.250216	-1.041096
H60	H	1.011795	-0.195464	-0.954874
H61	H	0.941404	-0.778010	-0.476477
H62	H	1.152802	-0.919280	-0.265511
H63	H	1.123578	-0.539074	-0.950022
O64	O	0.624577	-0.320592	-0.277147
C65	C	0.671818	-0.262399	-0.316388
H66	H	0.648934	-0.256913	-0.374100
H67	H	0.675973	-0.192932	-0.286600
H68	H	0.728746	-0.290294	-0.320196
O69	O	0.472903	-0.320783	-0.277091
C70	C	0.396244	-0.333158	-0.287765
H71	H	0.382456	-0.402818	-0.315043
H72	H	0.367307	-0.326954	-0.232360
H73	H	0.376979	-0.279709	-0.324521
O74	O	1.130586	-0.548212	-0.805078
C75	C	1.169712	-0.599140	-0.857861
H76	H	1.174030	-0.562175	-0.910918
H77	H	1.227232	-0.608774	-0.836106
H78	H	1.139513	-0.667653	-0.869241
O79	O	1.119944	-0.770520	-0.298048
C80	C	1.080621	-0.716089	-0.247917
H81	H	1.021335	-0.744549	-0.244653
H82	H	1.107330	-0.715037	-0.191259
H83	H	1.081403	-0.644668	-0.267299
O84	O	1.151912	-1.097467	-0.266464
C85	C	1.196379	-1.035671	-0.222064
H86	H	1.169370	-0.968545	-0.216321
H87	H	1.202997	-1.062930	-0.165374
H88	H	1.252724	-1.025568	-0.248593
H89	H	0.962711	-0.329744	-0.800768
O90	O	0.925665	-0.956214	-0.492343
C91	C	0.886964	-0.894442	-0.530913
H92	H	0.920240	-0.827245	-0.530321
H93	H	0.877803	-0.921624	-0.590171
H94	H	0.831554	-0.884508	-0.503437
O95	O	0.966204	-1.097806	-0.451865
C96	C	0.971970	-1.191061	-0.446194
H97	H	0.995512	-1.203944	-0.390032
H98	H	0.915171	-1.226932	-0.452822
H99	H	1.009888	-1.217716	-0.491142
