data_functionalizedCrystal
_audit_creation_method	'MofGen! by Chris Wilmer'
_symmetry_space_group_name_H-M	'P1'
_symmetry_Int_Tables_number	1
_symmetry_cell_setting	triclinic
loop_
_symmetry_equiv_pos_as_xyz
  x,y,z
_cell_length_a	10.654549
_cell_length_b	11.792240
_cell_length_c	10.868271
_cell_angle_alpha	90.010280
_cell_angle_beta	89.996217
_cell_angle_gamma	95.660903
loop_
_atom_site_label
_atom_site_type_symbol
_atom_site_fract_x
_atom_site_fract_y
_atom_site_fract_z
O1	O	1.667392	-0.159412	-0.102322
O2	O	2.167392	0.340588	0.397678
O3	O	1.301870	-0.174601	-0.102334
O4	O	1.801870	0.325399	0.397666
O5	O	1.493501	-0.001856	-0.102290
O6	O	1.993501	0.498144	0.397710
O7	O	1.475761	-0.332156	-0.102366
O8	O	1.975761	0.167844	0.397634
O9	O	1.493482	-0.001863	0.102354
O10	O	1.993482	0.498137	0.602354
O11	O	1.301851	-0.174608	0.102311
O12	O	1.801851	0.325392	0.602311
O13	O	1.667373	-0.159419	0.102322
O14	O	2.167373	0.340581	0.602322
Zn15	Zn	1.484609	-0.167015	0.134808
Zn16	Zn	1.984609	0.332985	0.634808
Zn17	Zn	1.484634	-0.167005	-0.134820
Zn18	Zn	1.984634	0.332995	0.365180
O19	O	1.475742	-0.332163	0.102279
O20	O	1.975742	0.167837	0.602279
C21	C	1.255066	-0.173489	-0.000012
C22	C	1.755066	0.326511	0.499988
C23	C	1.115632	-0.170153	-0.000015
C24	C	1.615632	0.329847	0.499985
C25	C	1.492377	0.040434	0.000039
C26	C	1.992377	0.540434	0.500039
C27	C	1.489042	0.166455	0.000060
C28	C	1.989042	0.666455	0.500060
C29	C	0.904838	-0.268718	-0.000032
C30	C	1.404838	0.231282	0.499968
C31	C	1.035850	-0.271862	-0.000040
C32	C	1.535850	0.228138	0.499960
C33	C	1.064396	-0.065293	0.000006
C34	C	1.564396	0.434707	0.500006
C35	C	0.933387	-0.062151	0.000006
C36	C	1.433387	0.437849	0.500006
C37	C	1.482909	0.397182	0.000079
C38	C	1.982909	0.897182	0.500079
C39	C	1.486316	0.268789	0.000068
C40	C	1.986316	0.768789	0.500068
C41	C	1.714177	-0.160530	-0.000002
C42	C	2.214177	0.339470	0.499998
C43	C	1.853611	-0.163867	-0.000007
C44	C	2.353611	0.336133	0.499993
N45	N	1.484601	-0.167020	0.318823
N46	N	1.984601	0.332980	0.818823
C47	C	1.476866	0.625547	-0.000009
C48	C	1.976866	1.125547	0.499991
C49	C	1.480201	0.499525	0.000093
C50	C	1.980201	0.999525	0.500093
C51	C	1.484609	-0.167022	0.430160
C52	C	1.984609	0.332978	0.930160
C53	C	1.484625	-0.167013	0.569838
C54	C	1.984625	0.332987	1.069838
N55	N	1.484643	-0.166999	0.681166
N56	N	1.984643	0.333001	1.181166
H57	H	0.839888	-0.351543	-0.000044
H58	H	1.339888	0.148457	0.499956
C59	C	0.877034	0.053200	0.000041
C60	C	1.377034	0.553200	0.500041
N61	N	0.834589	0.140079	0.000067
N62	N	1.334589	0.640079	0.500067
C63	C	1.092194	-0.387207	-0.000058
C64	C	1.592194	0.112793	0.499942
N65	N	1.134630	-0.474090	-0.000069
N66	N	1.634630	0.025910	0.499931
H67	H	1.129365	0.017520	0.000020
H68	H	1.629365	0.517520	0.500020
