data_functionalizedCrystal
_audit_creation_method	'MofGen! by Chris Wilmer'
_symmetry_space_group_name_H-M	'P1'
_symmetry_Int_Tables_number	1
_symmetry_cell_setting	triclinic
loop_
_symmetry_equiv_pos_as_xyz
  x,y,z
_cell_length_a	16.109301
_cell_length_b	14.044220
_cell_length_c	14.586319
_cell_angle_alpha	89.995213
_cell_angle_beta	89.999213
_cell_angle_gamma	88.325179
loop_
_atom_site_label
_atom_site_type_symbol
_atom_site_fract_x
_atom_site_fract_y
_atom_site_fract_z
O1	O	1.112195	0.121835	-0.076185
O2	O	1.445529	0.455168	0.257149
O3	O	1.778862	0.788501	0.590482
O4	O	0.871261	0.136997	-0.076199
O5	O	1.204595	0.470330	0.257134
O6	O	1.537928	0.803663	0.590467
O7	O	0.988112	-0.008568	-0.076183
O8	O	1.321445	0.324765	0.257150
O9	O	1.654779	0.658099	0.590484
O10	O	0.995345	0.267399	-0.076201
O11	O	1.328678	0.600732	0.257133
O12	O	1.662012	0.934066	0.590466
O13	O	0.988103	-0.008570	0.076298
O14	O	1.321436	0.324763	0.409631
O15	O	1.654770	0.658097	0.742964
O16	O	0.871252	0.136995	0.076281
O17	O	1.204586	0.470328	0.409615
O18	O	1.537919	0.803661	0.742948
O19	O	1.112186	0.121832	0.076296
O20	O	1.445520	0.455166	0.409630
O21	O	1.778853	0.788499	0.742963
Cu22	Cu	0.991719	0.129413	0.090212
Cu23	Cu	1.325052	0.462747	0.423545
Cu24	Cu	1.658385	0.796080	0.756878
Cu25	Cu	0.991729	0.129416	-0.090115
Cu26	Cu	1.325063	0.462749	0.243219
Cu27	Cu	1.658396	0.796082	0.576552
O28	O	0.995336	0.267397	0.076280
O29	O	1.328669	0.600730	0.409613
O30	O	1.662002	0.934064	0.742947
C31	C	0.840236	0.136381	0.000039
C32	C	1.173570	0.469715	0.333373
C33	C	1.506903	0.803048	0.666706
C34	C	0.747804	0.134540	0.000034
C35	C	1.081137	0.467873	0.333367
C36	C	1.414471	0.801207	0.666701
C37	C	0.531640	0.216634	0.000039
C38	C	0.864973	0.549967	0.333373
C39	C	1.198306	0.883300	0.666706
C40	C	0.444790	0.214896	0.000045
C41	C	0.778123	0.548230	0.333379
C42	C	1.111457	0.881563	0.666712
C43	C	0.451815	0.042189	0.000052
C44	C	0.785148	0.375522	0.333386
C45	C	1.118481	0.708855	0.666719
C46	C	0.538663	0.043927	0.000053
C47	C	0.871996	0.377261	0.333386
C48	C	1.205329	0.710594	0.666720
C49	C	0.578573	0.131153	0.000042
C50	C	0.911906	0.464486	0.333375
C51	C	1.245239	0.797819	0.666708
C52	C	0.404875	0.127677	0.000047
C53	C	0.738208	0.461010	0.333381
C54	C	1.071542	0.794343	0.666714
C55	C	0.310709	0.125792	0.000054
C56	C	0.644042	0.459125	0.333387
C57	C	0.977375	0.792459	0.666720
C58	C	0.672745	0.133038	0.000037
C59	C	1.006078	0.466371	0.333370
C60	C	1.339412	0.799704	0.666704
C61	C	0.984941	-0.043882	0.000058
C62	C	1.318275	0.289451	0.333391
C63	C	1.651608	0.622784	0.666724
C64	C	0.975498	-0.149105	0.000058
C65	C	1.308831	0.184228	0.333391
C66	C	1.642164	0.517561	0.666725
C67	C	0.958232	-0.341761	0.000044
C68	C	1.291566	-0.008428	0.333377
C69	C	1.624899	0.324905	0.666710
C70	C	1.025212	-0.399415	0.000045
C71	C	1.358545	-0.066082	0.333378
C72	C	1.691878	0.267251	0.666712
C73	C	1.015605	-0.506616	0.000037
C74	C	1.348938	-0.173282	0.333371
C75	C	1.682272	0.160051	0.666704
C76	C	0.967838	-0.234551	0.000052
C77	C	1.301171	0.098783	0.333385
C78	C	1.634504	0.432116	0.666718
C79	C	1.143211	0.122448	0.000056
C80	C	1.476545	0.455781	0.333389
C81	C	1.809878	0.789114	0.666722
C82	C	1.235644	0.124289	0.000055
C83	C	1.568977	0.457622	0.333388
C84	C	1.902310	0.790956	0.666722
C85	C	0.998506	0.302711	0.000037
C86	C	1.331840	0.636045	0.333371
C87	C	1.665173	0.969378	0.666704
C88	C	1.007950	0.407934	0.000031
C89	C	1.341284	0.741268	0.333364
C90	C	1.674617	1.074601	0.666698
N91	N	0.991717	0.129411	0.217043
N92	N	1.325050	0.462744	0.550377
N93	N	1.658384	0.796078	0.883710
N94	N	0.991737	0.129411	-0.216946
N95	N	1.325070	0.462744	0.116387
N96	N	1.658403	0.796077	0.449720
C97	C	1.043479	0.064976	0.452057
C98	C	1.376812	0.398310	0.785390
C99	C	1.710145	0.731643	1.118724
C100	C	1.043481	0.064974	0.548038
C101	C	1.376814	0.398308	0.881372
C102	C	1.710148	0.731641	1.214705
C103	C	0.939969	0.193848	0.548033
C104	C	1.273303	0.527181	0.881367
C105	C	1.606636	0.860515	1.214700
C106	C	0.939963	0.193845	0.452054
C107	C	1.273297	0.527178	0.785387
C108	C	1.606630	0.860512	1.118720
C109	C	0.991723	0.129410	0.404068
C110	C	1.325056	0.462744	0.737401
C111	C	1.658390	0.796077	1.070735
C112	C	0.991731	0.129411	0.596029
C113	C	1.325064	0.462744	0.929362
C114	C	1.658398	0.796078	1.262696
C115	C	0.991733	0.129409	0.700096
C116	C	1.325066	0.462742	1.033429
C117	C	1.658400	0.796076	1.366763
C118	C	0.991720	0.129411	0.299994
C119	C	1.325053	0.462744	0.633328
C120	C	1.658387	0.796078	0.966661
H121	H	0.406580	0.284504	0.000045
H122	H	0.739914	0.617837	0.333378
H123	H	1.073247	0.951170	0.666712
H124	H	1.085624	0.012505	0.587108
H125	H	1.418958	0.345839	0.920441
H126	H	1.752291	0.679172	1.253775
H127	H	1.089769	-0.368264	-0.000012
H128	H	1.423103	-0.034931	0.333321
H129	H	1.756436	0.298403	0.666654
H130	H	0.419309	-0.028827	0.000067
H131	H	0.752643	0.304506	0.333401
H132	H	1.085976	0.637840	0.666734
H133	H	0.576877	-0.025686	0.000058
H134	H	0.910211	0.307647	0.333391
H135	H	1.243544	0.640981	0.666724
H136	H	0.897813	0.246315	0.412979
H137	H	1.231147	0.579649	0.746312
H138	H	1.564480	0.912982	1.079645
H139	H	1.085623	0.012509	0.412989
H140	H	1.418957	0.345842	0.746323
H141	H	1.752290	0.679175	1.079656
H142	H	0.893680	-0.372911	0.000038
H143	H	1.227013	-0.039577	0.333371
H144	H	1.560347	0.293756	0.666704
H145	H	0.897829	0.246311	0.587113
H146	H	1.231162	0.579644	0.920446
H147	H	1.564496	0.912977	1.253779
H148	H	0.564132	0.287658	0.000037
H149	H	0.897465	0.620991	0.333370
H150	H	1.230798	0.954325	0.666704
