data_functionalizedCrystal
_audit_creation_method	'MofGen! by Chris Wilmer'
_symmetry_space_group_name_H-M	'P1'
_symmetry_Int_Tables_number	1
_symmetry_cell_setting	triclinic
loop_
_symmetry_equiv_pos_as_xyz
  x,y,z
_cell_length_a	12.645331
_cell_length_b	19.120786
_cell_length_c	12.645323
_cell_angle_alpha	92.471912
_cell_angle_beta	90.022822
_cell_angle_gamma	92.465319
loop_
_atom_site_label
_atom_site_type_symbol
_atom_site_fract_x
_atom_site_fract_y
_atom_site_fract_z
Zn1	Zn	1.602669	-0.279621	0.581391
Zn2	Zn	2.102669	0.220379	1.081391
Zn3	Zn	1.594963	-0.397087	0.396544
Zn4	Zn	2.094963	0.102913	0.896544
Zn5	Zn	1.425382	-0.279647	0.404133
Zn6	Zn	1.925382	0.220353	0.904133
Zn7	Zn	1.417780	-0.397043	0.573762
Zn8	Zn	1.917780	0.102957	1.073762
O9	O	1.510198	-0.338350	0.488957
O10	O	2.010198	0.161650	0.988957
O11	O	1.749993	-0.295210	0.556887
O12	O	2.249993	0.204790	1.056887
O13	O	1.572424	-0.381537	0.249202
O14	O	2.072424	0.118463	0.749202
O15	O	1.455306	-0.181353	0.434015
O16	O	1.955306	0.318647	0.934015
O17	O	1.744332	-0.381512	0.421081
O18	O	2.244332	0.118488	0.921081
O19	O	1.585558	-0.181334	0.564246
O20	O	2.085558	0.318666	1.064246
O21	O	1.447833	-0.295255	0.254777
O22	O	1.947833	0.204745	0.754777
O23	O	1.276027	-0.295213	0.426618
O24	O	1.776027	0.204787	0.926618
O25	O	1.442350	-0.381438	0.723123
O26	O	1.942350	0.118562	1.223123
O27	O	1.270442	-0.381463	0.551244
O28	O	1.770442	0.118537	1.051244
O29	O	1.578187	-0.295168	0.728728
O30	O	2.078187	0.204832	1.228728
O31	O	1.565053	-0.495372	0.413684
O32	O	2.065053	0.004628	0.913684
O33	O	1.434878	-0.495340	0.543885
O34	O	1.934878	0.004660	1.043885
C35	C	1.234770	-0.338337	0.488927
C36	C	1.734770	0.161663	0.988927
C37	C	1.116939	-0.338348	0.488938
C38	C	1.616939	0.161652	0.988938
C39	C	1.075540	-0.284004	0.410675
C40	C	1.575540	0.215996	0.910675
C41	C	0.952993	-0.283803	0.410968
C42	C	1.452993	0.216197	0.910968
C43	C	0.950385	-0.318609	0.602120
C44	C	1.450385	0.181391	1.102120
C45	C	1.073009	-0.318203	0.601636
C46	C	1.573009	0.181797	1.101636
C47	C	1.066928	-0.412595	0.455064
C48	C	1.566928	0.087405	0.955064
C49	C	0.944345	-0.412207	0.452663
C50	C	1.444345	0.087793	0.952663
C51	C	1.498333	-0.520841	0.477156
C52	C	1.998333	-0.020841	0.977156
C53	C	1.493354	-0.598912	0.472143
C54	C	1.993354	-0.098912	0.972143
C55	C	1.558779	-0.635519	0.537647
C56	C	2.058779	-0.135519	1.037647
C57	C	1.554097	-0.708875	0.532938
C58	C	2.054097	-0.208875	1.032938
C59	C	1.483993	-0.745622	0.462720
C60	C	1.983993	-0.245622	0.962720
C61	C	1.418560	-0.709009	0.397213
C62	C	1.918560	-0.209009	0.897213
C63	C	1.423238	-0.635655	0.401928
C64	C	1.923238	-0.135655	0.901928
C65	C	1.466473	-0.967108	0.445095
C66	C	1.966473	-0.467108	0.945095
C67	C	1.461802	-1.040468	0.440383
C68	C	1.961802	-0.540468	0.940383
C69	C	1.597338	-1.040328	0.576110
C70	C	2.097338	-0.540328	1.076110
C71	C	1.602014	-0.966972	0.580814
C72	C	2.102014	-0.466972	1.080814
C73	C	1.536577	-0.930366	0.515311
C74	C	2.036577	-0.430366	1.015311
C75	C	1.479207	-0.820603	0.457903
C76	C	1.979207	-0.320603	0.957903
C77	C	1.541359	-0.855386	0.520134
C78	C	2.041359	-0.355386	1.020134
C79	C	1.786703	-0.338363	0.488989
C80	C	2.286703	0.161637	0.988989
C81	C	1.904532	-0.338369	0.489002
C82	C	2.404532	0.161631	0.989002
C83	C	1.510280	-0.338295	0.765466
C84	C	2.010280	0.161705	1.265466
C85	C	1.510315	-0.338272	0.883298
C86	C	2.010315	0.161728	1.383298
C87	C	1.522139	-0.155146	0.500828
C88	C	2.022139	0.344854	1.000828
C89	C	1.527228	-0.077075	0.505887
C90	C	2.027228	0.422925	1.005887
C91	C	1.510181	-0.338353	0.213528
C92	C	2.010181	0.161647	0.713528
C93	C	1.510365	-0.338178	0.095709
C94	C	2.010365	0.161822	0.595709
C95	C	1.424624	-0.392289	1.047353
C96	C	1.924624	0.107711	1.547353
C97	C	1.424821	-0.392556	0.924775
C98	C	1.924821	0.107444	1.424775
C99	C	1.620717	-0.358360	0.926521
C100	C	2.120717	0.141640	1.426521
C101	C	1.620244	-0.358699	1.049097
C102	C	2.120244	0.141301	1.549097
C103	C	1.486680	-0.263866	1.055301
C104	C	1.986680	0.236134	1.555301
C105	C	1.484159	-0.264312	0.932666
C106	C	1.984159	0.235688	1.432666
H107	H	0.918806	-0.356987	0.662262
H108	H	1.418806	0.143013	1.162262
H109	H	1.686037	-0.320998	1.081211
H110	H	2.186037	0.179002	1.581211
H111	H	0.922053	-0.296131	0.327256
H112	H	1.422053	0.203869	0.827256
Cl113	Cl	1.391073	-0.866806	0.369637
Cl114	Cl	1.891073	-0.366806	0.869637
H115	H	1.640880	-0.413023	1.074199
H116	H	2.140880	0.086977	1.574199
H117	H	0.914243	-0.427112	0.369389
H118	H	1.414243	0.072888	0.869389
Cl119	Cl	1.128584	-0.199543	0.445550
Cl120	Cl	1.628584	0.300457	0.945550
H121	H	0.910993	-0.454845	0.505093
H122	H	1.410993	0.045155	1.005093
H123	H	1.659098	-0.937054	0.637991
H124	H	2.159098	-0.437054	1.137991
H125	H	1.104156	-0.296190	0.326690
H126	H	1.604156	0.203810	0.826690
H127	H	0.927237	-0.228793	0.433832
H128	H	1.427237	0.271207	0.933832
Cl129	Cl	1.112775	-0.440449	0.329440
Cl130	Cl	1.612775	0.059551	0.829440
H131	H	1.686105	-0.320195	0.899851
H132	H	2.186105	0.179805	1.399851
H133	H	0.923171	-0.264948	0.630606
H134	H	1.423171	0.235052	1.130606
H135	H	1.093352	-0.453080	0.512009
H136	H	1.593352	0.046920	1.012009
H137	H	1.105132	-0.263940	0.629721
H138	H	1.605132	0.236060	1.129721
Cl139	Cl	1.115114	-0.376680	0.695181
Cl140	Cl	1.615114	0.123320	1.195181
H141	H	1.641803	-0.412115	0.892360
H142	H	2.141803	0.087885	1.392360
H143	H	1.615870	-0.605605	0.594822
H144	H	2.115870	-0.105605	1.094822
H145	H	1.404710	-1.070385	0.383201
H146	H	1.904710	-0.570385	0.883201
H147	H	1.342804	-0.379986	0.895485
H148	H	1.842804	0.120014	1.395485
Cl149	Cl	1.384199	-0.921099	0.362757
Cl150	Cl	1.884199	-0.421099	0.862757
H151	H	1.598433	-0.825465	0.577310
H152	H	2.098433	-0.325465	1.077310
Cl153	Cl	1.330419	-0.755206	0.308948
Cl154	Cl	1.830419	-0.255206	0.808948
H155	H	1.407829	-0.245555	1.087388
H156	H	1.907829	0.254445	1.587388
H157	H	1.402937	-0.249163	0.904545
H158	H	1.902937	0.250837	1.404545
H159	H	1.342353	-0.379839	1.077630
H160	H	1.842353	0.120161	1.577630
Cl161	Cl	1.447850	-0.476805	1.089552
Cl162	Cl	1.947850	0.023195	1.589552
H163	H	1.607381	-0.738677	0.586271
H164	H	2.107381	-0.238677	1.086271
H165	H	1.440067	-0.447647	0.891903
H166	H	1.940067	0.052353	1.391903
H167	H	1.650611	-1.070140	0.629439
H168	H	2.150611	-0.570140	1.129439
H169	H	1.369961	-0.605850	0.348589
H170	H	1.869961	-0.105850	0.848589
Cl171	Cl	1.574134	-0.198776	0.889640
Cl172	Cl	2.074134	0.301224	1.389640
H173	H	1.549188	-0.223552	1.086919
H174	H	2.049188	0.276448	1.586919
