data_functionalizedCrystal
_audit_creation_method	'MofGen! by Chris Wilmer'
_symmetry_space_group_name_H-M	'P1'
_symmetry_Int_Tables_number	1
_symmetry_cell_setting	triclinic
loop_
_symmetry_equiv_pos_as_xyz
  x,y,z
_cell_length_a	17.699077
_cell_length_b	19.188930
_cell_length_c	18.266242
_cell_angle_alpha	90.010255
_cell_angle_beta	90.008383
_cell_angle_gamma	83.212679
loop_
_atom_site_label
_atom_site_type_symbol
_atom_site_fract_x
_atom_site_fract_y
_atom_site_fract_z
O1	O	1.003967	0.088273	0.060879
O2	O	1.337301	0.421606	0.394213
O3	O	1.670634	0.754939	0.727546
O4	O	0.783573	0.099764	0.060884
O5	O	1.116906	0.433098	0.394218
O6	O	1.450240	0.766431	0.727551
O7	O	0.900130	-0.007630	0.060867
O8	O	1.233464	0.325703	0.394201
O9	O	1.566797	0.659037	0.727534
O10	O	0.887410	0.195667	0.060896
O11	O	1.220743	0.529001	0.394230
O12	O	1.554077	0.862334	0.727563
O13	O	0.900111	-0.007633	-0.060895
O14	O	1.233444	0.325700	0.272439
O15	O	1.566777	0.659034	0.605772
O16	O	0.783553	0.099761	-0.060878
O17	O	1.116887	0.433095	0.272456
O18	O	1.450220	0.766428	0.605789
O19	O	1.003948	0.088270	-0.060882
O20	O	1.337281	0.421603	0.272451
O21	O	1.670614	0.754936	0.605784
Zn22	Zn	0.893747	0.094015	-0.080212
Zn23	Zn	1.227081	0.427348	0.253121
Zn24	Zn	1.560414	0.760682	0.586454
Zn25	Zn	0.893773	0.094019	0.080214
Zn26	Zn	1.227107	0.427352	0.413548
Zn27	Zn	1.560440	0.760686	0.746881
O28	O	0.887390	0.195664	-0.060866
O29	O	1.220724	0.528998	0.272468
O30	O	1.554057	0.862331	0.605801
C31	C	0.755367	0.099352	0.000004
C32	C	1.088700	0.432685	0.333337
C33	C	1.422033	0.766018	0.666670
C34	C	0.671350	0.098119	0.000005
C35	C	1.004683	0.431452	0.333338
C36	C	1.338017	0.764785	0.666671
C37	C	0.631873	0.097536	-0.066369
C38	C	0.965206	0.430869	0.266965
C39	C	1.298539	0.764203	0.600298
C40	C	0.552932	0.096366	-0.066370
C41	C	0.886265	0.429699	0.266964
C42	C	1.219598	0.763033	0.600297
C43	C	0.513469	0.095784	0.000004
C44	C	0.846802	0.429117	0.333337
C45	C	1.180135	0.762451	0.666670
C46	C	0.552952	0.096365	0.066382
C47	C	0.886285	0.429698	0.399715
C48	C	1.219619	0.763031	0.733049
C49	C	0.631892	0.097529	0.066382
C50	C	0.965226	0.430863	0.399716
C51	C	1.298559	0.764196	0.733049
C52	C	0.234595	0.091666	0.066383
C53	C	0.567928	0.424999	0.399716
C54	C	0.901262	0.758333	0.733049
C55	C	0.155649	0.090503	0.066377
C56	C	0.488982	0.423837	0.399711
C57	C	0.822315	0.757170	0.733044
C58	C	0.155634	0.090503	-0.066369
C59	C	0.488968	0.423836	0.266964
C60	C	0.822301	0.757169	0.600298
C61	C	0.234574	0.091667	-0.066369
C62	C	0.567908	0.425001	0.266965
C63	C	0.901241	0.758334	0.600298
C64	C	0.274051	0.092244	0.000009
C65	C	0.607385	0.425578	0.333342
C66	C	0.940718	0.758911	0.666676
C67	C	0.359648	0.093512	0.000009
C68	C	0.692982	0.426845	0.333343
C69	C	1.026315	0.760178	0.666676
C70	C	0.427872	0.094522	0.000004
C71	C	0.761206	0.427855	0.333337
C72	C	1.094539	0.761188	0.666671
C73	C	0.899708	-0.033643	-0.000016
C74	C	1.233042	0.299690	0.333318
C75	C	1.566375	0.633024	0.666651
C76	C	0.898472	-0.111149	-0.000022
C77	C	1.231805	0.222184	0.333311
C78	C	1.565139	0.555518	0.666645
C79	C	0.966864	-0.155998	-0.000027
C80	C	1.300197	0.177336	0.333306
C81	C	1.633531	0.510669	0.666640
C82	C	0.965702	-0.228823	-0.000015
C83	C	1.299036	0.104511	0.333318
C84	C	1.632369	0.437844	0.666652
C85	C	0.896145	-0.256796	-0.000013
C86	C	1.229478	0.076537	0.333320
C87	C	1.562811	0.409871	0.666654
C88	C	0.827744	-0.211937	-0.000004
C89	C	1.161077	0.121396	0.333329
C90	C	1.494410	0.454729	0.666663
C91	C	0.828907	-0.139114	-0.000008
C92	C	1.162241	0.194219	0.333325
C93	C	1.495574	0.527553	0.666658
N94	N	0.842969	-0.364860	-0.041450
N95	N	1.176303	-0.031527	0.291883
N96	N	1.509636	0.301806	0.625217
N97	N	0.841869	-0.434040	-0.041447
N98	N	1.175202	-0.100707	0.291886
N99	N	1.508535	0.232626	0.625219
C100	C	0.892634	-0.476208	0.000002
C101	C	1.225968	-0.142875	0.333335
C102	C	1.559301	0.190458	0.666668
N103	N	0.944554	-0.446585	0.041439
N104	N	1.277887	-0.113251	0.374772
N105	N	1.611221	0.220082	0.708106
N106	N	0.945657	-0.377399	0.041433
N107	N	1.278990	-0.044065	0.374766
N108	N	1.612324	0.289268	0.708100
C109	C	0.894875	-0.335760	-0.000008
C110	C	1.228208	-0.002426	0.333325
C111	C	1.561542	0.330907	0.666659
C112	C	0.959771	-0.600023	0.000011
C113	C	1.293105	-0.266689	0.333344
C114	C	1.626438	0.066644	0.666677
C115	C	0.958607	-0.672849	0.000027
C116	C	1.291940	-0.339516	0.333360
C117	C	1.625274	-0.006182	0.666694
C118	C	0.820646	-0.655962	0.000031
C119	C	1.153980	-0.322629	0.333364
C120	C	1.487313	0.010705	0.666697
C121	C	0.821813	-0.583137	0.000022
C122	C	1.155146	-0.249804	0.333355
C123	C	1.488480	0.083529	0.666688
C124	C	0.891378	-0.555173	0.000008
C125	C	1.224711	-0.221839	0.333341
C126	C	1.558044	0.111494	0.666675
C127	C	1.032154	0.088682	-0.000000
C128	C	1.365487	0.422016	0.333333
C129	C	1.698821	0.755349	0.666666
C130	C	1.116171	0.089915	0.000003
C131	C	1.449504	0.423249	0.333337
C132	C	1.782837	0.756582	0.666670
C133	C	0.887812	0.221677	0.000019
C134	C	1.221145	0.555010	0.333352
C135	C	1.554479	0.888344	0.666686
C136	C	0.889049	0.299183	0.000030
C137	C	1.222382	0.632516	0.333363
C138	C	1.555715	0.965850	0.666697
N139	N	0.893735	0.094012	-0.189699
N140	N	1.227068	0.427345	0.143634
N141	N	1.560402	0.760679	0.476967
C142	C	0.939491	0.136308	-0.227997
C143	C	1.272824	0.469641	0.105337
C144	C	1.606157	0.802974	0.438670
C145	C	0.939503	0.136306	-0.304642
C146	C	1.272837	0.469639	0.028692
C147	C	1.606170	0.802972	0.362025
C148	C	0.893746	0.094016	-0.342986
C149	C	1.227079	0.427349	-0.009653
C150	C	1.560413	0.760683	0.323680
C151	C	0.847987	0.051712	-0.304680
C152	C	1.181321	0.385045	0.028654
C153	C	1.514654	0.718378	0.361987
C154	C	0.847982	0.051710	-0.228036
C155	C	1.181315	0.385043	0.105297
C156	C	1.514649	0.718376	0.438630
N157	N	0.827460	0.092223	-0.463338
N158	N	1.160794	0.425556	-0.130005
N159	N	1.494127	0.758890	0.203329
N160	N	0.827468	0.092229	-0.536146
N161	N	1.160801	0.425562	-0.202813
N162	N	1.494134	0.758896	0.130520
C163	C	0.893761	0.094019	-0.573909
C164	C	1.227094	0.427352	-0.240575
C165	C	1.560428	0.760685	0.092758
N166	N	0.960048	0.095816	-0.536113
N167	N	1.293381	0.429149	-0.202779
N168	N	1.626714	0.762482	0.130554
N169	N	0.960039	0.095813	-0.463298
N170	N	1.293373	0.429147	-0.129965
N171	N	1.626706	0.762480	0.203369
C172	C	0.893747	0.094013	-0.426093
C173	C	1.227081	0.427347	-0.092760
C174	C	1.560414	0.760680	0.240573
C175	C	0.939534	0.136315	-0.695313
C176	C	1.272868	0.469648	-0.361980
C177	C	1.606201	0.802981	-0.028647
C178	C	0.939548	0.136308	-0.771960
C179	C	1.272882	0.469641	-0.438626
C180	C	1.606215	0.802974	-0.105293
C181	C	0.848026	0.051718	-0.771996
C182	C	1.181359	0.385051	-0.438663
C183	C	1.514692	0.718384	-0.105329
C184	C	0.848018	0.051720	-0.695351
C185	C	1.181352	0.385054	-0.362018
C186	C	1.514685	0.718387	-0.028685
C187	C	0.893772	0.094023	-0.657014
C188	C	1.227105	0.427356	-0.323681
C189	C	1.560438	0.760689	0.009652
N190	N	0.893792	0.094017	0.189701
N191	N	1.227125	0.427350	0.523034
N192	N	1.560458	0.760683	0.856368
H193	H	0.123520	0.090029	0.120430
H194	H	0.456854	0.423362	0.453763
H195	H	0.790187	0.756695	0.787096
Cl196	Cl	0.790478	-0.001441	-0.647203
Cl197	Cl	1.123812	0.331893	-0.313870
Cl198	Cl	1.457145	0.665226	0.019464
H199	H	0.976763	0.170750	-0.335830
H200	H	1.310097	0.504083	-0.002496
H201	H	1.643430	0.837417	0.330837
H202	H	0.810770	0.017284	-0.803215
H203	H	1.144103	0.350617	-0.469882
H204	H	1.477437	0.683950	-0.136549
H205	H	0.771109	-0.234718	-0.000001
H206	H	1.104443	0.098616	0.333333
H207	H	1.437776	0.431949	0.666666
H208	H	0.266728	0.092134	0.120432
H209	H	0.600061	0.425467	0.453765
H210	H	0.933394	0.758800	0.787098
H211	H	0.976790	0.170759	-0.664098
H212	H	1.310123	0.504093	-0.330764
H213	H	1.643456	0.837426	0.002569
Cl214	Cl	0.790466	-0.001455	-0.352883
Cl215	Cl	1.123800	0.331878	-0.019550
Cl216	Cl	1.457133	0.665212	0.313784
H217	H	0.520816	0.095886	0.120424
H218	H	0.854149	0.429219	0.453758
H219	H	1.187482	0.762552	0.787091
H220	H	0.773213	-0.102597	-0.000005
H221	H	1.106546	0.230736	0.333329
H222	H	1.439879	0.564069	0.666662
H223	H	0.766121	-0.546620	0.000022
H224	H	1.099454	-0.213287	0.333355
H225	H	1.432787	0.120046	0.666688
Cl226	Cl	0.790451	-0.001462	-0.179888
Cl227	Cl	1.123784	0.331871	0.153445
Cl228	Cl	1.457117	0.665204	0.486778
H229	H	0.520794	0.095880	-0.120417
H230	H	0.854128	0.429213	0.212916
H231	H	1.187461	0.762547	0.546249
Cl232	Cl	0.996994	0.189501	-0.179806
Cl233	Cl	1.330327	0.522835	0.153527
Cl234	Cl	1.663661	0.856168	0.486861
Cl235	Cl	0.997079	0.189481	-0.820106
Cl236	Cl	1.330413	0.522815	-0.486772
Cl237	Cl	1.663746	0.856148	-0.153439
H238	H	0.664034	0.098005	0.120430
H239	H	0.997367	0.431339	0.453764
H240	H	1.330700	0.764672	0.787097
Cl241	Cl	1.047222	-0.564863	-0.000011
Cl242	Cl	1.380555	-0.231530	0.333323
Cl243	Cl	1.713889	0.101803	0.666656
Cl244	Cl	1.044594	-0.729232	0.000026
Cl245	Cl	1.377927	-0.395899	0.333359
Cl246	Cl	1.711260	-0.062565	0.666692
H247	H	0.123483	0.090030	-0.120417
H248	H	0.456816	0.423363	0.212916
H249	H	0.790150	0.756696	0.546249
H250	H	0.764011	-0.678737	0.000036
H251	H	1.097345	-0.345403	0.333369
H252	H	1.430678	-0.012070	0.666702
Cl253	Cl	1.051687	-0.285214	-0.000021
Cl254	Cl	1.385021	0.048119	0.333313
Cl255	Cl	1.718354	0.381452	0.666646
Cl256	Cl	1.054316	-0.120845	-0.000023
Cl257	Cl	1.387650	0.212488	0.333310
Cl258	Cl	1.720983	0.545821	0.666644
Cl259	Cl	0.681475	0.098272	-0.149814
Cl260	Cl	1.014808	0.431605	0.183519
Cl261	Cl	1.348141	0.764939	0.516852
H262	H	0.266701	0.092145	-0.120417
H263	H	0.600034	0.425478	0.212917
H264	H	0.933367	0.758812	0.546250
