data_functionalizedCrystal
_audit_creation_method	'MofGen! by Chris Wilmer'
_symmetry_space_group_name_H-M	'P1'
_symmetry_Int_Tables_number	1
_symmetry_cell_setting	triclinic
loop_
_symmetry_equiv_pos_as_xyz
  x,y,z
_cell_length_a	7.681481
_cell_length_b	16.109301
_cell_length_c	16.109304
_cell_angle_alpha	96.537941
_cell_angle_beta	84.262260
_cell_angle_gamma	84.275465
loop_
_atom_site_label
_atom_site_type_symbol
_atom_site_fract_x
_atom_site_fract_y
_atom_site_fract_z
O1	O	-0.146307	-1.095276	0.114734
O2	O	0.353693	-0.595276	0.614734
O3	O	-0.146334	-0.853213	0.128035
O4	O	0.353666	-0.353213	0.628035
O5	O	-0.146321	-0.980893	0.000353
O6	O	0.353679	-0.480893	0.500353
O7	O	-0.146320	-0.967596	0.242415
O8	O	0.353680	-0.467596	0.742415
O9	O	0.146539	-0.996608	-0.015398
O10	O	0.646539	-0.496608	0.484602
O11	O	0.146526	-0.868928	0.112284
O12	O	0.646526	-0.368928	0.612284
O13	O	0.146552	-1.110992	0.098983
O14	O	0.646552	-0.610992	0.598983
Zn15	Zn	0.193037	-0.992455	0.103132
Zn16	Zn	0.693037	-0.492455	0.603132
Zn17	Zn	-0.192818	-0.971750	0.123885
Zn18	Zn	0.307182	-0.471750	0.623885
O19	O	0.146539	-0.983312	0.226664
O20	O	0.646539	-0.483312	0.726664
C21	C	0.000092	-0.830096	0.119621
C22	C	0.500092	-0.330096	0.619621
C23	C	0.000082	-0.737800	0.118006
C24	C	0.500082	-0.237800	0.618006
N25	N	0.456372	-1.006592	0.088969
N26	N	0.956372	-0.506592	0.588969
N27	N	-0.456154	-0.957619	0.138042
N28	N	0.043846	-0.457619	0.638042
C29	C	0.000105	-0.988212	-0.038497
C30	C	0.500105	-0.488212	0.461503
C31	C	0.000093	-0.986595	-0.130791
C32	C	0.500093	-0.486595	0.369209
C33	C	0.000122	-1.134109	0.107397
C34	C	0.500122	-0.634109	0.607397
C35	C	0.000121	-1.226404	0.109012
C36	C	0.500121	-0.726404	0.609012
C37	C	0.000102	-0.515529	0.190013
C38	C	0.500102	-0.015529	0.690013
C39	C	0.000114	-0.428809	0.188488
C40	C	0.500114	0.071191	0.688488
C41	C	0.000106	-0.448682	0.037000
C42	C	0.500106	0.051318	0.537000
C43	C	0.000107	-0.535401	0.038525
C44	C	0.500107	-0.035401	0.538525
C45	C	0.000097	-0.568821	0.115034
C46	C	0.500097	-0.068821	0.615034
C47	C	0.000107	-0.395383	0.111984
C48	C	0.500107	0.104617	0.611984
C49	C	0.000119	-0.301357	0.110331
C50	C	0.500119	0.198643	0.610331
C51	C	0.000088	-0.662853	0.116688
C52	C	0.500088	-0.162853	0.616688
C53	C	-0.159539	-0.974295	-0.334543
C54	C	0.340461	-0.474295	0.165457
C55	C	-0.159537	-0.972769	-0.421263
C56	C	0.340463	-0.472769	0.078737
C57	C	0.159754	-0.989907	-0.438433
C58	C	0.659754	-0.489907	0.061567
C59	C	0.159751	-0.991427	-0.351713
C60	C	0.659751	-0.491427	0.148287
C61	C	0.000099	-0.983625	-0.299771
C62	C	0.500099	-0.483625	0.200229
C63	C	0.000104	-0.980579	-0.473211
C64	C	0.500104	-0.480579	0.026789
C65	C	0.000107	-0.978924	-0.567237
C66	C	0.500107	-0.478924	-0.067237
C67	C	0.000096	-0.985278	-0.205739
C68	C	0.500096	-0.485278	0.294261
C69	C	0.000110	-0.975993	0.265514
C70	C	0.500110	-0.475993	0.765514
C71	C	0.000110	-0.977609	0.357810
C72	C	0.500110	-0.477609	0.857810
H73	H	0.468644	-0.907627	0.188131
H74	H	0.968644	-0.407627	0.688131
H75	H	-0.289537	-0.967940	-0.292253
H76	H	0.210463	-0.467940	0.207747
F77	F	0.554673	-1.071948	0.023502
F78	F	1.054673	-0.571948	0.523502
F79	F	0.000098	-0.551095	0.271440
F80	F	0.500098	-0.051095	0.771440
H81	H	0.000122	-0.385422	0.249543
H82	H	0.500122	0.114578	0.749543
F83	F	0.000110	-0.413105	-0.044422
F84	F	0.500110	0.086895	0.455578
F85	F	0.000113	-0.592123	-0.041283
F86	F	0.500113	-0.092123	0.458717
H87	H	-0.289530	-0.965170	-0.449570
H88	H	0.210470	-0.465170	0.050430
F89	F	0.329657	-0.998210	-0.493720
F90	F	0.829657	-0.498210	0.006280
H91	H	0.289755	-0.999020	-0.323402
H92	H	0.789755	-0.499020	0.176598
