data_functionalizedCrystal
_audit_creation_method	'MofGen! by Chris Wilmer'
_symmetry_space_group_name_H-M	'P1'
_symmetry_Int_Tables_number	1
_symmetry_cell_setting	triclinic
loop_
_symmetry_equiv_pos_as_xyz
  x,y,z
_cell_length_a	12.645331
_cell_length_b	19.121063
_cell_length_c	12.645323
_cell_angle_alpha	87.591876
_cell_angle_beta	90.022676
_cell_angle_gamma	92.467980
loop_
_atom_site_label
_atom_site_type_symbol
_atom_site_fract_x
_atom_site_fract_y
_atom_site_fract_z
Zn1	Zn	1.602654	-0.279627	0.617388
Zn2	Zn	1.594942	-0.397086	0.447665
Zn3	Zn	1.425367	-0.279651	0.440134
Zn4	Zn	1.417760	-0.397040	0.624877
O5	O	1.510181	-0.338351	0.532516
O6	O	1.749978	-0.295217	0.594892
O7	O	1.572404	-0.381537	0.298321
O8	O	1.455295	-0.181363	0.457361
O9	O	1.744312	-0.381514	0.470197
O10	O	1.585547	-0.181346	0.587589
O11	O	1.447818	-0.295258	0.292788
O12	O	1.276011	-0.295213	0.464623
O13	O	1.442330	-0.381436	0.772230
O14	O	1.270422	-0.381459	0.600353
O15	O	1.578171	-0.295173	0.766727
O16	O	1.565027	-0.495364	0.477459
O17	O	1.434852	-0.495330	0.607656
C18	C	1.234752	-0.338334	0.532485
C19	C	1.116921	-0.338344	0.532497
C20	C	0.952854	-0.283838	0.447545
C21	C	1.075405	-0.283979	0.447195
C22	C	1.067618	-0.412331	0.506730
C23	C	0.945039	-0.412033	0.506155
C24	C	0.950986	-0.319567	0.643576
C25	C	1.073698	-0.317914	0.642847
C26	C	1.498306	-0.520831	0.544210
C27	C	1.493323	-0.598897	0.549248
C28	C	1.558810	-0.635567	0.483885
C29	C	1.554130	-0.708918	0.488629
C30	C	1.483957	-0.745598	0.558733
C31	C	1.418467	-0.708923	0.624104
C32	C	1.423154	-0.635573	0.619364
C33	C	1.466419	-0.967067	0.576438
C34	C	1.461736	-1.040422	0.581171
C35	C	1.597400	-1.040412	0.445697
C36	C	1.602076	-0.967061	0.440959
C37	C	1.536590	-0.930392	0.506334
C38	C	1.479169	-0.820575	0.563582
C39	C	1.541384	-0.855417	0.501489
C40	C	1.786685	-0.338368	0.532549
C41	C	1.904514	-0.338375	0.532563
C42	C	1.510262	-0.338296	0.809018
C43	C	1.510297	-0.338273	0.926847
C44	C	1.522130	-0.155158	0.520800
C45	C	1.527222	-0.077092	0.515807
C46	C	1.510164	-0.338354	0.257087
C47	C	1.510347	-0.338179	0.139246
C48	C	1.424603	-0.392285	1.097856
C49	C	1.424801	-0.392553	0.975313
C50	C	1.620698	-0.358362	0.972656
C51	C	1.620225	-0.358700	1.095276
C52	C	1.486666	-0.263871	1.089271
C53	C	1.484145	-0.264317	0.966693
H54	H	1.094090	-0.454052	0.566917
H55	H	1.402923	-0.249167	0.936622
O56	O	1.316174	-0.375880	0.934356
H57	H	1.263025	-0.367558	1.002099
O58	O	1.561334	-0.208090	0.922542
H59	H	1.619808	-0.232087	0.871286
H60	H	1.342333	-0.379835	1.126531
O61	O	1.444534	-0.464797	1.143371
H62	H	1.515250	-0.462470	1.195335
H63	H	0.912678	-0.454044	0.565636
O64	O	0.909189	-0.372178	0.727411
H65	H	0.942358	-0.358547	0.805546
H66	H	1.641782	-0.412113	0.945416
H67	H	1.097224	-0.428555	0.426612
H68	H	1.686088	-0.320200	0.941072
H69	H	1.440044	-0.447641	0.949534
H70	H	0.923516	-0.266557	0.667927
O71	O	1.116910	-0.245796	0.668714
H72	H	1.168960	-0.224586	0.603261
O73	O	1.403476	-0.860134	0.639190
H74	H	1.321183	-0.846105	0.620023
H75	H	1.607456	-0.738771	0.435402
O76	O	1.352523	-0.596017	0.689862
H77	H	1.300753	-0.562644	0.640207
H78	H	1.659216	-0.937197	0.383875
H79	H	0.915362	-0.427984	0.425139
O80	O	1.668060	-1.079959	0.375218
H81	H	1.653031	-1.137126	0.390303
O82	O	1.617083	-0.815855	0.425895
H83	H	1.571799	-0.782486	0.369761
H84	H	1.640858	-0.413021	1.127372
H85	H	1.404605	-1.070285	0.638276
O86	O	1.395759	-0.927521	0.646913
H87	H	1.346161	-0.965352	0.696435
H88	H	1.101976	-0.354739	0.709195
O89	O	1.707389	-0.308782	1.131400
H90	H	1.749697	-0.284511	1.061291
H91	H	1.549176	-0.223560	1.115698
H92	H	1.615948	-0.605707	0.426794
O93	O	1.342766	-0.748480	0.699706
H94	H	1.350495	-0.805646	0.692010
O95	O	1.382209	-0.239623	1.128629
H96	H	1.384964	-0.236550	1.216050
O97	O	1.119989	-0.211301	0.467831
H98	H	1.054010	-0.175737	0.478149
H99	H	0.926948	-0.228808	0.462935
H100	H	0.921211	-0.296131	0.365663
H101	H	1.103879	-0.296410	0.364833
