data_functionalizedCrystal
_audit_creation_method	'MofGen! by Chris Wilmer'
_symmetry_space_group_name_H-M	'P1'
_symmetry_Int_Tables_number	1
_symmetry_cell_setting	triclinic
loop_
_symmetry_equiv_pos_as_xyz
  x,y,z
_cell_length_a	12.759401
_cell_length_b	13.897448
_cell_length_c	12.759393
_cell_angle_alpha	89.967158
_cell_angle_beta	89.980718
_cell_angle_gamma	90.019217
loop_
_atom_site_label
_atom_site_type_symbol
_atom_site_fract_x
_atom_site_fract_y
_atom_site_fract_z
Zn1	Zn	1.606227	-0.383924	-0.594007
Zn2	Zn	1.606114	-0.545252	-0.418322
Zn3	Zn	1.430531	-0.383976	-0.418342
Zn4	Zn	1.430509	-0.545183	-0.593959
O5	O	1.518345	-0.464584	-0.506158
O6	O	1.753233	-0.405331	-0.570714
O7	O	1.582785	-0.523909	-0.271303
O8	O	1.453894	-0.248988	-0.441673
O9	O	1.753150	-0.523858	-0.441638
O10	O	1.582978	-0.248949	-0.570734
O11	O	1.453785	-0.405421	-0.271318
O12	O	1.283507	-0.405354	-0.441627
O13	O	1.453856	-0.523740	-0.740987
O14	O	1.283491	-0.523791	-0.570652
O15	O	1.582956	-0.405264	-0.741022
O16	O	1.582763	-0.680224	-0.441592
O17	O	1.453747	-0.680173	-0.570632
C18	C	1.245378	-0.464572	-0.506137
C19	C	1.128601	-0.464590	-0.506153
C20	C	1.073758	-0.526354	-0.573230
C21	C	0.964034	-0.526358	-0.573251
C22	C	0.964006	-0.402830	-0.439108
C23	C	1.073728	-0.402823	-0.439093
C24	C	0.814133	-0.560968	-0.697110
C25	C	0.759286	-0.622747	-0.764179
C26	C	0.794878	-0.716882	-0.780123
C27	C	0.885315	-0.749256	-0.728984
C28	C	0.940156	-0.687482	-0.661908
C29	C	0.904566	-0.593334	-0.645984
C30	C	1.223632	-0.368222	-0.315232
C31	C	1.278475	-0.306452	-0.248150
C32	C	1.242885	-0.212316	-0.232195
C33	C	1.152444	-0.179945	-0.283315
C34	C	1.097601	-0.241715	-0.350397
C35	C	1.133199	-0.335850	-0.366354
C36	C	1.518269	-0.715198	-0.506127
C37	C	1.518332	-0.822412	-0.506149
C38	C	1.518442	-1.018707	-0.506215
C39	C	1.518378	-0.909474	-0.506182
C40	C	1.792379	-0.464596	-0.506179
C41	C	1.909155	-0.464601	-0.506188
C42	C	1.518416	-0.464488	-0.780191
C43	C	1.518446	-0.464448	-0.896968
C44	C	1.518451	-0.212991	-0.506211
C45	C	1.518496	-0.105777	-0.506234
C46	C	1.451330	-0.402706	-1.061568
C47	C	1.451301	-0.402738	-0.951844
C48	C	1.585632	-0.526122	-0.951822
C49	C	1.585666	-0.526084	-1.061544
C50	C	1.413767	-0.289029	-0.801917
C51	C	1.346571	-0.227366	-0.747067
C52	C	1.244074	-0.212538	-0.782678
C53	C	1.208752	-0.259387	-0.873137
C54	C	1.275941	-0.321058	-0.927981
C55	C	1.378453	-0.335867	-0.892372
C56	C	1.623190	-0.639795	-1.211473
C57	C	1.690375	-0.701471	-1.266319
C58	C	1.792873	-0.716309	-1.230710
C59	C	1.828192	-0.669476	-1.140248
C60	C	1.761007	-0.607800	-1.085402
C61	C	1.658509	-0.592961	-1.121018
C62	C	1.518335	-0.464609	-0.233190
C63	C	1.518509	-0.464377	-0.116414
H64	H	1.123454	-0.103298	-0.270307
H65	H	1.247182	-0.359201	-1.001631
N66	N	0.666911	-0.589666	-0.816404
N67	N	0.635147	-0.505608	-0.802172
H68	H	0.569905	-0.482248	-0.839053
H69	H	1.789773	-0.569667	-1.011742
N70	N	1.932893	-0.684646	-1.103875
N71	N	1.992868	-0.739714	-1.152853
H72	H	2.066814	-0.750434	-1.127166
N73	N	1.298909	-0.149235	-0.163655
N74	N	1.379648	-0.178146	-0.118002
H75	H	1.419213	-0.133595	-0.069598
N76	N	0.907953	-0.339759	-0.370590
N77	N	0.920162	-0.346053	-0.273631
H78	H	0.880576	-0.301510	-0.225235
N79	N	1.370848	-0.339536	-0.195926
N80	N	1.402621	-0.423588	-0.210181
H81	H	1.467859	-0.446955	-0.173298
H82	H	0.750214	-0.767183	-0.834733
H83	H	1.125284	-0.247317	-0.902117
N84	N	0.777771	-0.464806	-0.680851
N85	N	0.697024	-0.435922	-0.726510
H86	H	0.671337	-0.368007	-0.715027
N87	N	1.005230	-0.208631	-0.402625
N88	N	0.973465	-0.124574	-0.388382
H89	H	0.908233	-0.101205	-0.425274
N90	N	1.260000	-0.464383	-0.331517
N91	N	1.340740	-0.493277	-0.285853
H92	H	1.366424	-0.561192	-0.297346
H93	H	1.396650	-0.352457	-1.106240
N94	N	1.518477	-0.304170	-0.765561
N95	N	1.594477	-0.283118	-0.823015
H96	H	1.668430	-0.293812	-0.797335
H97	H	1.189364	-0.162329	-0.738011
N98	N	1.382665	-0.179521	-0.654669
N99	N	1.474191	-0.192756	-0.622887
H100	H	1.499678	-0.158969	-0.557629
N101	N	1.654234	-0.589157	-0.895786
N102	N	1.751186	-0.582763	-0.908045
H103	H	1.799637	-0.627285	-0.868473
N104	N	1.861484	-0.779325	-1.286738
N105	N	1.829940	-0.821149	-1.367496
H106	H	1.878396	-0.865653	-1.407063
H107	H	1.539729	-0.627710	-1.240481
N108	N	1.129795	-0.589453	-0.641732
N109	N	1.080809	-0.644595	-0.701617
H110	H	1.120381	-0.689160	-0.750000
N111	N	1.032522	-0.720558	-0.609675
N112	N	1.064288	-0.804615	-0.623909
H113	H	1.129526	-0.827977	-0.587023
N114	N	1.654296	-0.749334	-1.358711
N115	N	1.577516	-0.805047	-1.353878
H116	H	1.552038	-0.838853	-1.419128
N117	N	0.921643	-0.845426	-0.745267
N118	N	0.872666	-0.900571	-0.805155
H119	H	0.898325	-0.968493	-0.816657
