data_functionalizedCrystal
_audit_creation_method	'MofGen! by Chris Wilmer'
_symmetry_space_group_name_H-M	'P1'
_symmetry_Int_Tables_number	1
_symmetry_cell_setting	triclinic
loop_
_symmetry_equiv_pos_as_xyz
  x,y,z
_cell_length_a	18.050591
_cell_length_b	18.050588
_cell_length_c	19.805399
_cell_angle_alpha	89.974760
_cell_angle_beta	89.985740
_cell_angle_gamma	90.028402
loop_
_atom_site_label
_atom_site_type_symbol
_atom_site_fract_x
_atom_site_fract_y
_atom_site_fract_z
Zn1	Zn	1.135313	-0.295700	-0.382635
Zn2	Zn	1.385313	-0.045700	-0.132635
Zn3	Zn	1.635313	0.204300	0.117365
Zn4	Zn	1.885313	0.454300	0.367365
Zn5	Zn	1.135213	-0.419892	-0.269451
Zn6	Zn	1.385213	-0.169892	-0.019451
Zn7	Zn	1.635213	0.080108	0.230549
Zn8	Zn	1.885213	0.330108	0.480549
Zn9	Zn	1.011124	-0.295718	-0.269470
Zn10	Zn	1.261124	-0.045718	-0.019470
Zn11	Zn	1.511124	0.204282	0.230530
Zn12	Zn	1.761124	0.454282	0.480530
Zn13	Zn	1.011077	-0.419850	-0.382608
Zn14	Zn	1.261077	-0.169850	-0.132608
Zn15	Zn	1.511077	0.080150	0.117392
Zn16	Zn	1.761077	0.330150	0.367392
O17	O	1.073182	-0.357790	-0.326041
O18	O	1.323182	-0.107790	-0.076041
O19	O	1.573182	0.142210	0.173959
O20	O	1.823182	0.392210	0.423959
O21	O	1.239224	-0.312184	-0.367624
O22	O	1.489224	-0.062184	-0.117624
O23	O	1.739224	0.187816	0.132376
O24	O	1.989224	0.437816	0.382376
O25	O	1.118730	-0.403445	-0.174737
O26	O	1.368730	-0.153445	0.075263
O27	O	1.618730	0.096555	0.325263
O28	O	1.868730	0.346555	0.575263
O29	O	1.027659	-0.191791	-0.284500
O30	O	1.277659	0.058209	-0.034500
O31	O	1.527659	0.308209	0.215500
O32	O	1.777659	0.558209	0.465500
O33	O	1.239150	-0.403428	-0.284468
O34	O	1.489150	-0.153428	-0.034468
O35	O	1.739150	0.096572	0.215532
O36	O	1.989150	0.346572	0.465532
O37	O	1.118900	-0.191777	-0.367642
O38	O	1.368900	0.058223	-0.117642
O39	O	1.618900	0.308223	0.132358
O40	O	1.868900	0.558223	0.382358
O41	O	1.027562	-0.312215	-0.174751
O42	O	1.277562	-0.062215	0.075249
O43	O	1.527562	0.187785	0.325249
O44	O	1.777562	0.437785	0.575249
O45	O	0.907193	-0.312174	-0.284475
O46	O	1.157193	-0.062174	-0.034475
O47	O	1.407193	0.187826	0.215525
O48	O	1.657193	0.437826	0.465525
O49	O	1.027580	-0.403356	-0.477328
O50	O	1.277580	-0.153356	-0.227328
O51	O	1.527580	0.096644	0.022672
O52	O	1.777580	0.346644	0.272672
O53	O	0.907159	-0.403373	-0.367597
O54	O	1.157159	-0.153373	-0.117597
O55	O	1.407159	0.096627	0.132403
O56	O	1.657159	0.346627	0.382403
O57	O	1.118855	-0.312143	-0.477348
O58	O	1.368855	-0.062143	-0.227348
O59	O	1.618855	0.187857	0.022652
O60	O	1.868855	0.437857	0.272652
O61	O	1.118684	-0.523811	-0.284443
O62	O	1.368684	-0.273811	-0.034443
O63	O	1.618684	-0.023811	0.215557
O64	O	1.868684	0.226189	0.465557
O65	O	1.027482	-0.523780	-0.367579
O66	O	1.277482	-0.273780	-0.117579
O67	O	1.527482	-0.023780	0.132421
O68	O	1.777482	0.226220	0.382421
C69	C	0.880229	-0.357772	-0.326035
C70	C	1.130229	-0.107772	-0.076035
C71	C	1.380229	0.142228	0.173965
C72	C	1.630229	0.392228	0.423965
C73	C	0.797684	-0.357782	-0.326049
C74	C	1.047684	-0.107782	-0.076049
C75	C	1.297684	0.142218	0.173951
C76	C	1.547684	0.392218	0.423951
C77	C	0.548861	-0.407479	-0.371189
C78	C	0.798861	-0.157479	-0.121189
C79	C	1.048861	0.092521	0.128811
C80	C	1.298861	0.342521	0.378811
C81	C	0.598226	-0.425554	-0.309410
C82	C	0.848226	-0.175554	-0.059410
C83	C	1.098226	0.074446	0.190590
C84	C	1.348226	0.324446	0.440590
C85	C	0.500563	-0.357805	-0.326048
C86	C	0.750563	-0.107805	-0.076048
C87	C	1.000563	0.142195	0.173952
C88	C	1.250563	0.392195	0.423952
C89	C	0.598280	-0.339753	-0.387824
C90	C	0.848280	-0.089753	-0.137824
C91	C	1.098280	0.160247	0.112176
C92	C	1.348280	0.410247	0.362176
C93	C	0.646548	-0.357795	-0.326052
C94	C	0.896548	-0.107795	-0.076052
C95	C	1.146548	0.142205	0.173948
C96	C	1.396548	0.392205	0.423948
C97	C	0.548841	-0.375916	-0.264236
C98	C	0.798841	-0.125916	-0.014236
C99	C	1.048841	0.124084	0.235764
C100	C	1.298841	0.374084	0.485764
C101	C	0.548891	-0.290083	-0.342692
C102	C	0.798891	-0.040083	-0.092692
C103	C	1.048891	0.209917	0.157308
C104	C	1.298891	0.459917	0.407308
C105	C	0.598233	-0.308133	-0.280870
C106	C	0.848233	-0.058133	-0.030870
C107	C	1.098233	0.191867	0.219130
C108	C	1.348233	0.441867	0.469130
C109	C	0.416465	-0.357813	-0.326047
C110	C	0.666465	-0.107813	-0.076047
C111	C	0.916465	0.142187	0.173953
C112	C	1.166465	0.392187	0.423953
C113	C	0.730645	-0.357788	-0.326046
C114	C	0.980645	-0.107788	-0.076046
C115	C	1.230645	0.142212	0.173954
C116	C	1.480645	0.392212	0.423954
C117	C	1.073087	-0.550742	-0.326021
C118	C	1.323087	-0.300742	-0.076021
C119	C	1.573087	-0.050742	0.173979
C120	C	1.823087	0.199258	0.423979
C121	C	1.073115	-0.633288	-0.326035
C122	C	1.323115	-0.383288	-0.076035
C123	C	1.573115	-0.133288	0.173965
C124	C	1.823115	0.116712	0.423965
C125	C	1.023598	-0.882123	-0.371244
C126	C	1.273598	-0.632123	-0.121244
C127	C	1.523598	-0.382123	0.128756
C128	C	1.773598	-0.132123	0.378756
C129	C	1.091315	-0.832655	-0.387849
C130	C	1.341315	-0.582655	-0.137849
C131	C	1.591315	-0.332655	0.112151
C132	C	1.841315	-0.082655	0.362151
C133	C	1.073269	-0.930408	-0.326072
C134	C	1.323269	-0.680408	-0.076072
C135	C	1.573269	-0.430408	0.173928
C136	C	1.823269	-0.180408	0.423928
C137	C	1.005479	-0.832795	-0.309481
C138	C	1.255479	-0.582795	-0.059481
C139	C	1.505479	-0.332795	0.190519
C140	C	1.755479	-0.082795	0.440519
C141	C	1.073190	-0.784423	-0.326055
C142	C	1.323190	-0.534423	-0.076055
C143	C	1.573190	-0.284423	0.173945
C144	C	1.823190	-0.034423	0.423945
C145	C	1.141023	-0.882027	-0.342709
C146	C	1.391023	-0.632027	-0.092709
C147	C	1.641023	-0.382027	0.157291
C148	C	1.891023	-0.132027	0.407291
C149	C	1.055142	-0.882171	-0.264312
C150	C	1.305142	-0.632171	-0.014312
C151	C	1.555142	-0.382171	0.235688
C152	C	1.805142	-0.132171	0.485688
C153	C	1.122906	-0.832725	-0.280893
C154	C	1.372906	-0.582725	-0.030893
C155	C	1.622906	-0.332725	0.219107
C156	C	1.872906	-0.082725	0.469107
C157	C	1.073314	-1.014506	-0.326084
C158	C	1.323314	-0.764506	-0.076084
C159	C	1.573314	-0.514506	0.173916
C160	C	1.823314	-0.264506	0.423916
C161	C	1.073153	-0.700326	-0.326044
C162	C	1.323153	-0.450326	-0.076044
C163	C	1.573153	-0.200326	0.173956
C164	C	1.823153	0.049674	0.423956
C165	C	1.266887	-0.357809	-0.326047
C166	C	1.516887	-0.107809	-0.076047
C167	C	1.766887	0.142191	0.173953
C168	C	2.016887	0.392191	0.423953
C169	C	1.349433	-0.357816	-0.326049
C170	C	1.599433	-0.107816	-0.076049
C171	C	1.849433	0.142184	0.173951
C172	C	2.099433	0.392184	0.423951
C173	C	1.073223	-0.357743	-0.502584
C174	C	1.323223	-0.107743	-0.252584
C175	C	1.573223	0.142257	-0.002584
C176	C	1.823223	0.392257	0.247416
C177	C	1.073241	-0.357723	-0.577816
C178	C	1.323241	-0.107723	-0.327816
C179	C	1.573241	0.142277	-0.077816
C180	C	1.823241	0.392277	0.172184
C181	C	1.073296	-0.164084	-0.326076
C182	C	1.323296	0.085916	-0.076076
C183	C	1.573296	0.335916	0.173924
C184	C	1.823296	0.585916	0.423924
C185	C	1.073345	-0.081538	-0.326091
C186	C	1.323345	0.168462	-0.076091
C187	C	1.573345	0.418462	0.173909
C188	C	1.823345	0.668462	0.423909
C189	C	1.120769	-0.310226	-0.613171
C190	C	1.370769	-0.060226	-0.363171
C191	C	1.620769	0.189774	-0.113171
C192	C	1.870769	0.439774	0.136829
C193	C	1.120777	-0.310205	-0.683860
C194	C	1.370777	-0.060205	-0.433860
C195	C	1.620777	0.189795	-0.183860
C196	C	1.870777	0.439795	0.066140
C197	C	1.073259	-0.357684	-0.719191
C198	C	1.323259	-0.107684	-0.469191
C199	C	1.573259	0.142316	-0.219191
C200	C	1.823259	0.392316	0.030809
C201	C	1.025726	-0.405183	-0.683831
C202	C	1.275726	-0.155183	-0.433831
C203	C	1.525726	0.094817	-0.183831
C204	C	1.775726	0.344817	0.066169
C205	C	1.025715	-0.405200	-0.613144
C206	C	1.275715	-0.155200	-0.363144
C207	C	1.525715	0.094800	-0.113144
C208	C	1.775715	0.344800	0.136856
C209	C	1.025768	-0.405114	-0.968905
C210	C	1.275768	-0.155114	-0.718905
C211	C	1.525768	0.094886	-0.468905
C212	C	1.775768	0.344886	-0.218905
C213	C	1.025784	-0.405095	-1.039597
C214	C	1.275784	-0.155095	-0.789597
C215	C	1.525784	0.094905	-0.539597
C216	C	1.775784	0.344905	-0.289597
C217	C	1.120830	-0.310118	-1.039620
C218	C	1.370830	-0.060118	-0.789620
C219	C	1.620830	0.189882	-0.539620
C220	C	1.870830	0.439882	-0.289620
C221	C	1.120819	-0.310136	-0.968933
C222	C	1.370819	-0.060136	-0.718933
C223	C	1.620819	0.189864	-0.468933
C224	C	1.870819	0.439864	-0.218933
C225	C	1.073283	-0.357631	-0.933579
C226	C	1.323283	-0.107631	-0.683579
C227	C	1.573283	0.142369	-0.433579
C228	C	1.823283	0.392369	-0.183579
C229	C	1.073274	-0.357653	-0.856930
C230	C	1.323274	-0.107653	-0.606930
C231	C	1.573274	0.142347	-0.356930
C232	C	1.823274	0.392347	-0.106930
C233	C	1.073271	-0.357667	-0.795839
C234	C	1.323271	-0.107667	-0.545839
C235	C	1.573271	0.142333	-0.295839
C236	C	1.823271	0.392333	-0.045839
C237	C	1.073183	-0.357783	-0.150185
C238	C	1.323183	-0.107783	0.099815
C239	C	1.573183	0.142217	0.349815
C240	C	1.823183	0.392217	0.599815
C241	C	1.073309	-0.357593	-0.074953
C242	C	1.323309	-0.107593	0.175047
C243	C	1.573309	0.142407	0.425047
C244	C	1.823309	0.392407	0.675047
H245	H	0.527203	-0.232832	-0.356790
H246	H	0.777203	0.017168	-0.106790
H247	H	1.027203	0.267168	0.143210
H248	H	1.277203	0.517168	0.393210
H249	H	1.198335	-0.903564	-0.356796
H250	H	1.448335	-0.653564	-0.106796
H251	H	1.698335	-0.403564	0.143204
H252	H	1.948335	-0.153564	0.393204
F253	F	0.626666	-0.319800	-0.456107
F254	F	0.876666	-0.069800	-0.206107
F255	F	1.126666	0.180200	0.043893
F256	F	1.376666	0.430200	0.293893
F257	F	1.111320	-0.804228	-0.456107
F258	F	1.361320	-0.554228	-0.206107
F259	F	1.611320	-0.304228	0.043893
F260	F	1.861320	-0.054228	0.293893
F261	F	1.177827	-0.804551	-0.230953
F262	F	1.427827	-0.554551	0.019047
F263	F	1.677827	-0.304551	0.269047
F264	F	1.927827	-0.054551	0.519047
H265	H	0.948184	-0.811165	-0.295455
H266	H	1.198184	-0.561165	-0.045455
H267	H	1.448184	-0.311165	0.204545
H268	H	1.698184	-0.061165	0.454545
H269	H	0.981677	-0.903811	-0.409481
H270	H	1.231677	-0.653811	-0.159481
H271	H	1.481677	-0.403811	0.090519
H272	H	1.731677	-0.153811	0.340519
H273	H	0.987034	-0.443839	-0.712604
H274	H	1.237034	-0.193839	-0.462604
H275	H	1.487034	0.056161	-0.212604
H276	H	1.737034	0.306161	0.037396
F277	F	1.035113	-0.910621	-0.196073
F278	F	1.285113	-0.660621	0.053927
F279	F	1.535113	-0.410621	0.303927
F280	F	1.785113	-0.160621	0.553927
H281	H	1.159466	-0.271565	-0.584409
H282	H	1.409466	-0.021565	-0.334409
H283	H	1.659466	0.228435	-0.084409
H284	H	1.909466	0.478435	0.165591
H285	H	1.159481	-0.271530	-0.712643
H286	H	1.409481	-0.021530	-0.462643
H287	H	1.659481	0.228470	-0.212643
H288	H	1.909481	0.478470	0.037357
F289	F	1.171396	-0.259604	-0.931334
F290	F	1.421396	-0.009604	-0.681334
F291	F	1.671396	0.240396	-0.431334
F292	F	1.921396	0.490396	-0.181334
F293	F	0.520524	-0.462430	-0.421022
F294	F	0.770524	-0.212430	-0.171022
F295	F	1.020524	0.037570	0.078978
F296	F	1.270524	0.287570	0.328978
F297	F	0.975206	-0.455631	-1.077198
F298	F	1.225206	-0.205631	-0.827198
F299	F	1.475206	0.044369	-0.577198
F300	F	1.725206	0.294369	-0.327198
H301	H	1.159533	-0.271442	-1.068414
H302	H	1.409533	-0.021442	-0.818414
H303	H	1.659533	0.228558	-0.568414
H304	H	1.909533	0.478558	-0.318414
F305	F	0.626556	-0.500405	-0.291006
F306	F	0.876556	-0.250405	-0.041006
F307	F	1.126556	-0.000405	0.208994
F308	F	1.376556	0.249595	0.458994
H309	H	0.987072	-0.443799	-0.940128
H310	H	1.237072	-0.193799	-0.690128
H311	H	1.487072	0.056201	-0.440128
H312	H	1.737072	0.306201	-0.190128
H313	H	0.527217	-0.391250	-0.211979
H314	H	0.777217	-0.141250	0.038021
H315	H	1.027217	0.108750	0.288021
H316	H	1.277217	0.358750	0.538021
F317	F	0.626385	-0.253215	-0.230920
F318	F	0.876385	-0.003215	0.019080
F319	F	1.126385	0.246785	0.269080
F320	F	1.376385	0.496785	0.519080
H321	H	0.987005	-0.443870	-0.584359
H322	H	1.237005	-0.193870	-0.334359
H323	H	1.487005	0.056130	-0.084359
H324	H	1.737005	0.306130	0.165641
