data_functionalizedCrystal
_audit_creation_method	'MofGen! by Chris Wilmer'
_symmetry_space_group_name_H-M	'P1'
_symmetry_Int_Tables_number	1
_symmetry_cell_setting	triclinic
loop_
_symmetry_equiv_pos_as_xyz
  x,y,z
_cell_length_a	14.971486
_cell_length_b	14.971486
_cell_length_c	14.048226
_cell_angle_alpha	89.998499
_cell_angle_beta	89.993360
_cell_angle_gamma	83.614129
loop_
_atom_site_label
_atom_site_type_symbol
_atom_site_fract_x
_atom_site_fract_y
_atom_site_fract_z
O1	O	0.116565	1.186947	-0.079052
O2	O	0.616565	1.686947	0.420948
O3	O	0.130523	0.926547	-0.079078
O4	O	0.630523	1.426547	0.420922
O5	O	-0.006656	1.063726	-0.079057
O6	O	0.493344	1.563726	0.420943
O7	O	0.253744	1.049768	-0.079072
O8	O	0.753744	1.549768	0.420928
O9	O	-0.006664	1.063710	0.079264
O10	O	0.493336	1.563710	0.579264
O11	O	0.130515	0.926530	0.079244
O12	O	0.630515	1.426530	0.579244
O13	O	0.116556	1.186930	0.079270
O14	O	0.616556	1.686930	0.579270
Zn15	Zn	0.123535	1.056728	0.104394
Zn16	Zn	0.623535	1.556728	0.604394
Zn17	Zn	0.123545	1.056750	-0.104202
Zn18	Zn	0.623545	1.556750	0.395798
O19	O	0.253736	1.049751	0.079249
O20	O	0.753736	1.549751	0.579249
C21	C	0.129895	0.893214	0.000080
C22	C	0.629895	1.393214	0.500080
C23	C	0.128024	0.793917	0.000070
C24	C	0.628024	1.293917	0.500070
C25	C	-0.039985	1.063094	0.000103
C26	C	0.460015	1.563094	0.500103
C27	C	-0.139282	1.061223	0.000102
C28	C	0.360718	1.561223	0.500102
C29	C	0.208614	0.736692	0.000067
C30	C	0.708614	1.236692	0.500067
C31	C	0.206850	0.643392	0.000081
C32	C	0.706850	1.143392	0.500081
C33	C	0.124497	0.607320	0.000092
C34	C	0.624497	1.107320	0.500092
C35	C	0.043902	0.664552	0.000098
C36	C	0.543902	1.164552	0.500098
C37	C	0.045666	0.757850	0.000090
C38	C	0.545666	1.257850	0.500090
C39	C	0.040231	0.470090	0.000111
C40	C	0.540231	0.970090	0.500111
C41	C	0.038466	0.376786	0.000117
C42	C	0.538466	0.876786	0.500117
C43	C	0.201415	0.355632	0.000102
C44	C	0.701415	0.855632	0.500102
C45	C	0.203179	0.448930	0.000094
C46	C	0.703179	0.948930	0.500094
C47	C	0.122584	0.506156	0.000099
C48	C	0.622584	1.006156	0.500099
C49	C	-0.196507	1.141812	0.000111
C50	C	0.303493	1.641812	0.500111
C51	C	-0.289807	1.140049	0.000101
C52	C	0.210193	1.640049	0.500101
C53	C	-0.325879	1.057696	0.000089
C54	C	0.174121	1.557696	0.500089
C55	C	-0.268646	0.977101	0.000078
C56	C	0.231354	1.477101	0.500078
C57	C	-0.175349	0.978865	0.000081
C58	C	0.324651	1.478865	0.500081
C59	C	-0.463109	0.973430	0.000074
C60	C	0.036891	1.473430	0.500074
C61	C	-0.556413	0.971665	0.000073
C62	C	-0.056413	1.471665	0.500073
C63	C	-0.577567	1.134614	0.000094
C64	C	-0.077567	1.634614	0.500094
C65	C	-0.484269	1.136378	0.000097
C66	C	0.015731	1.636378	0.500097
C67	C	-0.427043	1.055782	0.000088
C68	C	0.072957	1.555782	0.500088
C69	C	0.287065	1.050384	0.000087
C70	C	0.787065	1.550384	0.500087
C71	C	0.386362	1.052254	0.000082
C72	C	0.886362	1.552254	0.500082
C73	C	0.117185	1.220263	0.000110
C74	C	0.617185	1.720263	0.500110
C75	C	0.119056	1.319561	0.000114
C76	C	0.619056	1.819561	0.500114
N77	N	0.123527	1.056719	0.246754
N78	N	0.623527	1.556719	0.746754
N79	N	0.123546	1.056765	-0.246562
N80	N	0.623546	1.556765	0.253438
C81	C	0.062809	1.117482	0.296581
C82	C	0.562809	1.617482	0.796581
C83	C	0.062808	1.117488	0.396239
C84	C	0.562808	1.617488	0.896239
C85	C	0.123531	1.056735	0.446068
C86	C	0.623531	1.556735	0.946068
C87	C	0.184252	0.995966	0.396234
C88	C	0.684252	1.495966	0.896234
C89	C	0.184247	0.995957	0.296578
C90	C	0.684247	1.495957	0.796578
C91	C	0.184258	0.995992	0.603948
C92	C	0.684258	1.495992	1.103948
C93	C	0.184264	0.996003	0.703611
C94	C	0.684264	1.496003	1.203611
C95	C	0.062819	1.117523	0.703609
C96	C	0.562819	1.617523	1.203609
C97	C	0.062815	1.117514	0.603953
C98	C	0.562815	1.617514	1.103953
C99	C	0.123537	1.056746	0.554126
C100	C	0.623537	1.556746	1.054126
H101	H	0.275675	0.766054	0.000057
H102	H	0.775675	1.266054	0.500057
F103	F	-0.001815	1.182156	0.449269
F104	F	0.498185	1.682156	0.949269
F105	F	0.290829	0.487318	0.000073
F106	F	0.790829	0.987318	0.500073
F107	F	-0.402206	0.887650	0.000062
F108	F	0.097794	1.387650	0.500062
H109	H	0.013377	1.167002	0.744184
H110	H	0.513377	1.667002	1.244184
F111	F	-0.350707	1.225824	0.000112
F112	F	0.149293	1.725824	0.500112
H113	H	-0.028593	0.347419	0.000127
H114	H	0.471407	0.847419	0.500127
F115	F	-0.158125	1.229465	0.000133
F116	F	0.341875	1.729465	0.500133
F117	F	0.248869	0.931283	0.243550
F118	F	0.748869	1.431283	0.743550
F119	F	-0.445880	1.224028	0.000108
F120	F	0.054120	1.724028	0.500108
F121	F	-0.114445	0.893090	0.000069
F122	F	0.385555	1.393090	0.500069
H123	H	-0.019958	0.804443	0.000093
H124	H	0.480042	1.304443	0.500093
F125	F	0.292625	0.582492	0.000073
F126	F	0.792625	1.082492	0.500073
H127	H	0.013365	1.166957	0.256017
H128	H	0.513365	1.666957	0.756017
F129	F	0.248892	0.931340	0.756635
F130	F	0.748892	1.431340	1.256635
F131	F	0.248884	0.931312	0.550922
F132	F	0.748884	1.431312	1.050922
H133	H	0.267039	0.309033	0.000103
H134	H	0.767039	0.809033	0.500103
H135	H	-0.624165	1.200238	0.000099
H136	H	-0.124165	1.700238	0.500099
H137	H	-0.025399	0.516682	0.000116
H138	H	0.474601	1.016682	0.500116
F139	F	0.248874	0.931304	0.449266
F140	F	0.748874	1.431304	0.949266
F141	F	-0.001807	1.182177	0.550921
F142	F	0.498193	1.682177	1.050921
H143	H	-0.585780	0.904606	0.000079
H144	H	-0.085780	1.404606	0.500079
F145	F	-0.043745	0.626159	0.000116
F146	F	0.456255	1.126159	0.500116
F147	F	-0.307040	0.889454	0.000055
F148	F	0.192960	1.389454	0.500055
