data_functionalizedCrystal
_audit_creation_method	'MofGen! by Chris Wilmer'
_symmetry_space_group_name_H-M	'P1'
_symmetry_Int_Tables_number	1
_symmetry_cell_setting	triclinic
loop_
_symmetry_equiv_pos_as_xyz
  x,y,z
_cell_length_a	9.798715
_cell_length_b	16.109301
_cell_length_c	16.109301
_cell_angle_alpha	83.461481
_cell_angle_beta	89.995430
_cell_angle_gamma	89.999034
loop_
_atom_site_label
_atom_site_type_symbol
_atom_site_fract_x
_atom_site_fract_y
_atom_site_fract_z
O1	O	0.113409	-1.103131	-0.106865
O2	O	0.113431	-0.861069	-0.120165
O3	O	0.113406	-0.988750	0.007516
O4	O	0.113435	-0.975450	-0.234546
O5	O	-0.113577	-0.988740	0.007516
O6	O	-0.113551	-0.861060	-0.120164
O7	O	-0.113573	-1.103122	-0.106865
Zn8	Zn	-0.149600	-0.982089	-0.113515
Zn9	Zn	0.149458	-0.982102	-0.113515
O10	O	-0.113547	-0.975441	-0.234546
C11	C	-0.000057	-0.830090	-0.119626
C12	C	-0.000049	-0.737794	-0.118011
N13	N	-0.353700	-0.982087	-0.113514
C14	C	-0.000086	-0.988206	0.038491
C15	C	-0.000088	-0.986591	0.130786
C16	C	-0.421488	-1.035698	-0.059670
C17	C	-0.578650	-1.035712	-0.059667
N18	N	0.353558	-0.982111	-0.113509
C19	C	-0.000082	-1.134101	-0.107404
C20	C	-0.000081	-1.226397	-0.109019
C21	C	-0.000056	-0.515522	-0.190018
C22	C	-0.000065	-0.428801	-0.188494
C23	C	-0.000078	-0.448676	-0.037006
C24	C	-0.000078	-0.535394	-0.038530
C25	C	-0.000061	-0.568815	-0.115039
C26	C	-0.000069	-0.395376	-0.111990
C27	C	-0.000079	-0.301350	-0.110337
C28	C	-0.000054	-0.662847	-0.116693
C29	C	-0.000053	-0.975984	-0.265521
C30	C	-0.000042	-0.977600	-0.357816
C31	C	-0.000073	-1.058599	0.353059
C32	C	-0.000061	-1.057075	0.439779
C33	C	-0.000053	-0.905586	0.419905
C34	C	-0.000055	-0.907111	0.333186
C35	C	-0.000071	-0.983620	0.299766
C36	C	-0.000058	-0.980571	0.473205
C37	C	-0.000046	-0.978918	0.567231
C38	C	-0.000081	-0.985273	0.205734
H39	H	-0.636945	-1.081614	-0.013572
N40	N	-0.000069	-0.826240	0.275693
H41	H	0.084073	-0.823499	0.239266
H42	H	-0.000123	-0.777585	0.310077
N43	N	-0.000080	-1.141115	0.317010
H44	H	-0.084227	-1.145123	0.281482
H45	H	-0.000027	-1.188332	0.363980
H46	H	-0.000064	-0.385413	-0.249550
N47	N	-0.344234	-1.096466	0.001401
H48	H	-0.284921	-1.133327	-0.030295
H49	H	-0.411133	-1.132191	0.037330
H50	H	-0.588156	-0.936212	-0.159612
N51	N	-0.430936	-0.921294	-0.174570
H52	H	-0.490212	-0.953201	-0.211257
H53	H	-0.364020	-0.885528	-0.210446
N54	N	-0.000075	-1.137949	0.497254
H55	H	-0.084215	-1.140688	0.533683
H56	H	0.084126	-1.140652	0.533617
H57	H	-0.000052	-0.542730	-0.252317
H58	H	-0.000042	-0.843295	0.447127
N59	N	-0.000104	-0.412629	0.045511
H60	H	-0.000102	-0.349606	0.035102
H61	H	0.084035	-0.432127	0.078323
H62	H	-0.000086	-0.578788	0.022530
