data_functionalizedCrystal
_audit_creation_method	'MofGen! by Chris Wilmer'
_symmetry_space_group_name_H-M	'P1'
_symmetry_Int_Tables_number	1
_symmetry_cell_setting	triclinic
loop_
_symmetry_equiv_pos_as_xyz
  x,y,z
_cell_length_a	10.065875
_cell_length_b	19.288864
_cell_length_c	19.288865
_cell_angle_alpha	96.863755
_cell_angle_beta	81.246539
_cell_angle_gamma	81.270043
loop_
_atom_site_label
_atom_site_type_symbol
_atom_site_fract_x
_atom_site_fract_y
_atom_site_fract_z
O1	O	0.113949	-0.931584	0.076365
O2	O	0.113858	-0.729315	0.088062
O3	O	0.113879	-0.836292	-0.018915
O4	O	0.113928	-0.824607	0.183341
O5	O	-0.113113	-0.815893	0.001566
O6	O	-0.113134	-0.708916	0.108542
O7	O	-0.113043	-0.911185	0.096845
Zn8	Zn	-0.149129	-0.806812	0.105946
Zn9	Zn	0.149944	-0.833688	0.078962
O10	O	-0.113064	-0.804208	0.203822
C11	C	0.000350	-0.693238	0.097927
C12	C	0.000314	-0.616131	0.096801
N13	N	-0.353238	-0.788474	0.124361
C14	C	0.000379	-0.825716	-0.034551
C15	C	0.000366	-0.824586	-0.111653
C16	C	-0.421009	-0.827304	0.085365
C17	C	-0.578179	-0.813196	0.099543
N18	N	0.354053	-0.852032	0.060541
C19	C	0.000468	-0.947262	0.086980
C20	C	0.000513	-1.024370	0.088105
C21	C	0.000350	-0.571438	0.159566
C22	C	0.000365	-0.498992	0.158504
C23	C	0.000371	-0.471245	0.094671
C24	C	0.000327	-0.515948	0.031899
C25	C	0.000298	-0.588390	0.032964
C26	C	0.079930	-0.370133	0.037314
C27	C	0.079967	-0.297692	0.036251
C28	C	0.000453	-0.247807	0.091384
C29	C	-0.079081	-0.270372	0.147591
C30	C	-0.079110	-0.342815	0.148656
C31	C	0.000401	-0.392694	0.093509
C32	C	0.000503	-0.124559	0.153002
C33	C	0.000510	-0.052112	0.151938
C34	C	0.000485	-0.069070	0.025330
C35	C	0.000465	-0.141515	0.026397
C36	C	0.000481	-0.169255	0.090234
C37	C	0.000388	-0.887355	-0.156351
C38	C	0.000409	-0.886297	-0.228800
C39	C	0.000381	-0.822462	-0.256545
C40	C	0.000367	-0.759685	-0.211838
C41	C	0.000360	-0.760746	-0.139392
C42	C	-0.079152	-0.765135	-0.357657
C43	C	-0.079153	-0.764075	-0.430101
C44	C	0.000410	-0.819185	-0.479993
C45	C	0.079957	-0.875365	-0.457433
C46	C	0.079950	-0.876427	-0.384986
C47	C	0.000390	-0.821304	-0.335100
C48	C	0.000457	-0.880811	-0.603250
C49	C	0.000486	-0.879751	-0.675701
C50	C	0.000431	-0.753135	-0.658735
C51	C	0.000415	-0.754199	-0.586288
C52	C	0.000421	-0.818038	-0.558549
C53	C	0.000439	-0.814785	0.219458
C54	C	0.000461	-0.815915	0.296559
H55	H	-0.362676	-0.870990	0.041479
H56	H	-0.143873	-0.361184	0.194420
H57	H	-0.411573	-0.744783	0.168242
H58	H	0.000269	-0.624780	-0.018148
H59	H	0.000366	-0.594020	0.211547
H60	H	-0.143831	-0.229756	0.192486
C61	C	0.000507	-0.155077	0.223219
H62	H	0.000511	-0.118078	0.260451
H63	H	0.079657	-0.190113	0.219125
H64	H	-0.078668	-0.175854	0.233408
C65	C	0.000419	-0.957578	-0.125844
H66	H	0.000449	-0.994811	-0.162847
H67	H	-0.078734	-0.953514	-0.090799
H68	H	0.079591	-0.967737	-0.105075
C69	C	0.000405	-0.682917	-0.689243
H70	H	0.000396	-0.645685	-0.652243
H71	H	-0.078746	-0.672755	-0.710020
H72	H	0.079579	-0.686988	-0.724284
C73	C	-0.567168	-0.911054	0.001252
H74	H	-0.630070	-0.933582	-0.021378
H75	H	-0.511387	-0.944946	0.021069
H76	H	-0.511458	-0.891041	-0.032521
H77	H	-0.636509	-0.769502	0.143426
C78	C	0.000446	-0.190681	-0.042647
H79	H	0.000462	-0.163783	-0.080818
H80	H	-0.078720	-0.212165	-0.037723
H81	H	0.079604	-0.226423	-0.052003
C82	C	0.000412	-0.449819	0.227545
H83	H	0.000419	-0.402701	0.217767
H84	H	0.079574	-0.465339	0.246584
H85	H	-0.078751	-0.451073	0.260875
H86	H	0.144689	-0.410746	-0.007585
H87	H	0.000532	-0.015722	0.203051
C88	C	0.000368	-0.685149	-0.537115
H89	H	0.000342	-0.646978	-0.564012
H90	H	0.079518	-0.690043	-0.515633
H91	H	-0.078807	-0.675820	-0.501369
H92	H	-0.143950	-0.720255	-0.317038
C93	C	0.000499	-0.038558	-0.044886
H94	H	0.000531	0.010987	-0.036533
H95	H	-0.078663	-0.046782	-0.063583
H96	H	0.079661	-0.061046	-0.077859
C97	C	0.167455	-0.272873	-0.025569
H98	H	0.156101	-0.222585	-0.018302
H99	H	0.139479	-0.288377	-0.068826
H100	H	0.260776	-0.292338	-0.027707
H101	H	0.000350	-0.493353	-0.020076
C102	C	0.000332	-0.689468	-0.242354
H103	H	0.000325	-0.697824	-0.291901
H104	H	0.079477	-0.670744	-0.234133
H105	H	-0.078848	-0.656518	-0.219859
H106	H	0.000432	-0.937413	-0.265201
C107	C	-0.166642	-0.702281	-0.454916
H108	H	-0.155256	-0.709544	-0.505207
H109	H	-0.138690	-0.659014	-0.439408
H110	H	-0.259968	-0.700169	-0.435449
H111	H	0.144722	-0.922169	-0.366621
C112	C	0.000323	-0.691695	-0.090220
H113	H	0.000303	-0.653524	-0.117117
H114	H	0.079471	-0.696591	-0.068736
H115	H	-0.078854	-0.682365	-0.054476
H116	H	0.144746	-0.920241	-0.498055
H117	H	0.000468	-0.932793	-0.580665
H118	H	0.000511	-0.930868	-0.712095
