data_functionalizedCrystal
_audit_creation_method	'MofGen! by Chris Wilmer'
_symmetry_space_group_name_H-M	'P1'
_symmetry_Int_Tables_number	1
_symmetry_cell_setting	triclinic
loop_
_symmetry_equiv_pos_as_xyz
  x,y,z
_cell_length_a	6.817900
_cell_length_b	11.102183
_cell_length_c	12.200875
_cell_angle_alpha	92.492789
_cell_angle_beta	107.143593
_cell_angle_gamma	108.603876
loop_
_atom_site_label
_atom_site_type_symbol
_atom_site_fract_x
_atom_site_fract_y
_atom_site_fract_z
V1	V	-4.094459	-0.176127	-0.357659
O2	O	-4.053827	0.008167	-0.350853
O3	O	-4.071342	-0.348945	-0.355211
O4	O	-4.063799	-0.173548	-0.513647
O5	O	-4.061422	-0.168444	-0.191319
V6	V	-4.572512	-0.154068	-0.337764
O7	O	-4.367716	-0.224516	-0.401301
O8	O	-4.749452	-0.105680	-0.294122
O9	O	-4.372422	0.018750	-0.340212
O10	O	-4.730540	-0.338362	-0.344570
O11	O	-4.722945	-0.161751	-0.504103
O12	O	-4.379965	-0.156647	-0.181775
C13	C	-3.921919	-0.391070	-0.349568
C14	C	-3.984423	-0.532352	-0.348606
C15	C	-3.874090	-0.495905	-0.138500
C16	C	-3.848285	-0.544055	-0.032999
C17	C	-3.907021	-0.676802	-0.032102
C18	C	-3.991575	-0.761404	-0.136716
C19	C	-4.017381	-0.713254	-0.242217
C20	C	-3.958631	-0.580502	-0.243103
C21	C	-4.127728	-0.749702	-0.452321
C22	C	-4.068978	-0.616954	-0.453221
C23	C	-4.212282	-0.834304	-0.556936
C24	C	-4.238075	-0.786154	-0.662439
C25	C	-4.179330	-0.653398	-0.663332
C26	C	-4.094784	-0.568804	-0.558722
C27	C	-3.912296	-0.167333	-0.551668
C28	C	-3.968679	-0.166368	-0.679189
C29	C	-4.071869	-0.164603	-0.912664
C30	C	-4.014439	-0.165584	-0.782742
C31	C	-4.185187	0.060868	-0.345851
C32	C	-4.101922	0.202148	-0.346821
C33	C	-4.194809	-0.162867	-0.143749
C34	C	-4.117664	-0.163825	-0.016226
H35	H	-3.886012	-0.716004	0.053806
O36	O	-4.038076	-0.439889	-0.559747
C37	C	-4.223303	-0.411685	-0.623070
H38	H	-4.347568	-0.500877	-0.685707
H39	H	-4.171879	-0.330449	-0.674092
H40	H	-4.300240	-0.380921	-0.560618
O41	O	-4.269719	-0.963278	-0.556143
C42	C	-4.494160	-1.023787	-0.618924
H43	H	-4.581368	-0.951274	-0.621373
H44	H	-4.568266	-1.106820	-0.574892
H45	H	-4.514336	-1.062199	-0.711272
H46	H	-3.779441	-0.475158	0.052176
H47	H	-4.039422	-0.869494	-0.135977
H48	H	-4.200376	-0.614205	-0.749245
O49	O	-3.817013	-0.366922	-0.139166
C50	C	-3.736799	-0.302574	-0.024213
H51	H	-3.803208	-0.371002	0.033810
H52	H	-3.792012	-0.216106	-0.021469
H53	H	-3.550321	-0.268582	0.007975
O54	O	-4.320561	-0.868295	-0.764092
C55	C	-4.514302	-0.853063	-0.833663
H56	H	-4.587873	-0.810190	-0.776238
H57	H	-4.636567	-0.950694	-0.882544
H58	H	-4.475133	-0.785991	-0.898464
