data_functionalizedCrystal
_audit_creation_method	'MofGen! by Chris Wilmer'
_symmetry_space_group_name_H-M	'P1'
_symmetry_Int_Tables_number	1
_symmetry_cell_setting	triclinic
loop_
_symmetry_equiv_pos_as_xyz
  x,y,z
_cell_length_a	11.169417
_cell_length_b	17.640280
_cell_length_c	11.169409
_cell_angle_alpha	78.765642
_cell_angle_beta	89.980176
_cell_angle_gamma	78.801822
loop_
_atom_site_label
_atom_site_type_symbol
_atom_site_fract_x
_atom_site_fract_y
_atom_site_fract_z
Zn1	Zn	1.931511	-0.314589	-0.582049
Zn2	Zn	1.971974	-0.446792	-0.340816
Zn3	Zn	1.730812	-0.314638	-0.381369
Zn4	Zn	1.771358	-0.446728	-0.541481
O5	O	1.851414	-0.380687	-0.461429
O6	O	2.104830	-0.332133	-0.550056
O7	O	1.939948	-0.429309	-0.178231
O8	O	1.723532	-0.204024	-0.441939
O9	O	2.134558	-0.429262	-0.372823
O10	O	1.870985	-0.203988	-0.589378
O11	O	1.762767	-0.332215	-0.208025
O12	O	1.568238	-0.332153	-0.402602
O13	O	1.792638	-0.429152	-0.714827
O14	O	1.598028	-0.429199	-0.520235
O15	O	1.910301	-0.332071	-0.744632
O16	O	1.979264	-0.557391	-0.333485
O17	O	1.831873	-0.557344	-0.480912
C18	C	1.539585	-0.380675	-0.461417
C19	C	1.406189	-0.380689	-0.461435
C20	C	1.914392	-0.586047	-0.398422
C21	C	1.941444	-0.673901	-0.371508
C22	C	1.646394	-0.962856	-0.666331
C23	C	1.671816	-1.045408	-0.641003
C24	C	1.825390	-1.045391	-0.487642
C25	C	1.799985	-0.962838	-0.512961
C26	C	1.710485	-0.921576	-0.602306
C27	C	1.864076	-0.921558	-0.448937
C28	C	1.838668	-0.839012	-0.474250
C29	C	1.749170	-0.797745	-0.563589
C30	C	1.685077	-0.839030	-0.627620
C31	C	1.953570	-0.962821	-0.359586
C32	C	2.017661	-0.921542	-0.295561
C33	C	1.992259	-0.838994	-0.320881
C34	C	1.902761	-0.797727	-0.410219
C35	C	2.056352	-0.797709	-0.256849
C36	C	2.030944	-0.715162	-0.282163
C37	C	1.877353	-0.715180	-0.435532
C38	C	2.164460	-0.380699	-0.461441
C39	C	2.297861	-0.380705	-0.461446
C40	C	1.851479	-0.380599	-0.774498
C41	C	1.851507	-0.380562	-0.907910
C42	C	1.788222	-0.174525	-0.524708
C43	C	1.761294	-0.086671	-0.551674
C44	C	1.851400	-0.380717	-0.149595
C45	C	1.851537	-0.380532	-0.016252
H46	H	1.804482	-0.681583	-0.508295
H47	H	2.090528	-0.955148	-0.222813
H48	H	1.898258	-1.078998	-0.414894
C49	C	1.586626	-0.793630	-0.725900
C50	C	1.453707	-0.805048	-0.712486
C51	C	1.355259	-0.759647	-0.810757
C52	C	1.389731	-0.702828	-0.922442
C53	C	1.522657	-0.691408	-0.935861
C54	C	1.621105	-0.736809	-0.837590
H55	H	1.428183	-0.847111	-0.629805
H56	H	1.256858	-0.768101	-0.800822
H57	H	1.316854	-0.669219	-0.995188
H58	H	1.548180	-0.649345	-1.018542
H59	H	1.719505	-0.728355	-0.847525
C60	C	1.547943	-0.917456	-0.764611
C61	C	1.415023	-0.928874	-0.751197
C62	C	1.316576	-0.883473	-0.849468
C63	C	1.351047	-0.826654	-0.961153
C64	C	1.483974	-0.815234	-0.974572
C65	C	1.582421	-0.860635	-0.876301
H66	H	1.389500	-0.970937	-0.668516
H67	H	1.218175	-0.891927	-0.839533
H68	H	1.278170	-0.793045	-1.033899
H69	H	1.509497	-0.773171	-1.057253
H70	H	1.680822	-0.852181	-0.886236
C71	C	1.981489	-1.053624	-0.331785
C72	C	2.110739	-1.098968	-0.348906
C73	C	2.138643	-1.189770	-0.321129
C74	C	2.037297	-1.235228	-0.276230
C75	C	1.908038	-1.189884	-0.259107
C76	C	1.880134	-1.099082	-0.286884
H77	H	2.185770	-1.065317	-0.382145
H78	H	2.234329	-1.223336	-0.333805
H79	H	2.057952	-1.302445	-0.255668
H80	H	1.833008	-1.223535	-0.225868
H81	H	1.784448	-1.065516	-0.274208
C82	C	1.601315	-1.090812	-0.711450
C83	C	1.670720	-1.147493	-0.788344
C84	C	1.600220	-1.192896	-0.858790
C85	C	1.460316	-1.181618	-0.852343
C86	C	1.390904	-1.124935	-0.775446
C87	C	1.461403	-1.079532	-0.705000
H88	H	1.774292	-1.155843	-0.793119
H89	H	1.651605	-1.234856	-0.915714
H90	H	1.408128	-1.215228	-0.904492
H91	H	1.287331	-1.116585	-0.770671
H92	H	1.410019	-1.037572	-0.648075
C93	C	2.154792	-0.843104	-0.158568
C94	C	2.120310	-0.899913	-0.046876
C95	C	2.218750	-0.945307	0.051407
C96	C	2.351672	-0.933893	0.037998
C97	C	2.386160	-0.877081	-0.073699
C98	C	2.287720	-0.831686	-0.171982
H99	H	2.021908	-0.908365	-0.036946
H100	H	2.193219	-0.987363	0.134093
H101	H	2.424543	-0.967497	0.110753
H102	H	2.484562	-0.868629	-0.083629
H103	H	2.313251	-0.789630	-0.254667
C104	C	1.721304	-0.706942	-0.591443
C105	C	1.822704	-0.661540	-0.636377
C106	C	1.794881	-0.570738	-0.664233
C107	C	1.665658	-0.525338	-0.647155
C108	C	1.564249	-0.570740	-0.602218
C109	C	1.592072	-0.661542	-0.574362
H110	H	1.918371	-0.695147	-0.649021
H111	H	1.869951	-0.537128	-0.697499
H112	H	1.645061	-0.458121	-0.667776
H113	H	1.468582	-0.537133	-0.589574
H114	H	1.517002	-0.695152	-0.541097
H115	H	2.083133	-0.681552	-0.230026
