data_functionalizedCrystal
_audit_creation_method	'MofGen! by Chris Wilmer'
_symmetry_space_group_name_H-M	'P1'
_symmetry_Int_Tables_number	1
_symmetry_cell_setting	triclinic
loop_
_symmetry_equiv_pos_as_xyz
  x,y,z
_cell_length_a	27.440280
_cell_length_b	27.440279
_cell_length_c	27.440280
_cell_angle_alpha	60.011579
_cell_angle_beta	90.008003
_cell_angle_gamma	60.011417
loop_
_atom_site_label
_atom_site_type_symbol
_atom_site_fract_x
_atom_site_fract_y
_atom_site_fract_z
Zr1	Zr	0.469680	0.533217	-0.063774
O2	O	0.391894	0.634857	-0.141572
O3	O	0.493502	0.431576	-0.039940
O4	O	0.493535	0.533205	-0.141581
O5	O	0.391863	0.533238	0.040262
O6	O	0.573737	0.533195	-0.141571
O7	O	0.391861	0.533229	-0.039931
O8	O	0.573679	0.351400	0.040245
O9	O	0.391921	0.715033	-0.141554
O10	O	0.563545	0.473375	-0.029750
O11	O	0.503691	0.473389	0.030090
O12	O	0.503730	0.593044	-0.089578
O13	O	0.443876	0.593058	-0.029738
Zr14	Zr	0.597596	0.533217	0.064141
Zr15	Zr	0.597594	0.533202	-0.063758
Zr16	Zr	0.469682	0.533232	0.064125
Zr17	Zr	0.469723	0.661088	-0.063746
Zr18	Zr	0.597553	0.405346	0.064113
O19	O	0.573774	0.634857	0.040307
O20	O	0.573772	0.634836	-0.141549
O21	O	0.391897	0.634879	0.040285
O22	O	0.675382	0.431576	0.141939
O23	O	0.675379	0.431555	-0.039918
O24	O	0.493504	0.431597	0.141916
O25	O	0.675414	0.533195	-0.039895
O26	O	0.573741	0.533229	0.141948
O27	O	0.493539	0.533238	0.141938
O28	O	0.675415	0.533205	0.040298
O29	O	0.493596	0.715021	-0.141541
O30	O	0.573680	0.351412	0.141908
O31	O	0.675355	0.351400	0.141921
O32	O	0.675354	0.351388	0.040258
O33	O	0.391923	0.715045	-0.039891
O34	O	0.493597	0.715033	-0.039878
O35	O	0.563546	0.473389	0.089945
O36	O	0.623400	0.473375	0.030105
O37	O	0.563585	0.593044	-0.029723
O38	O	0.503731	0.593058	0.030117
C39	C	0.533584	0.373269	0.000148
C40	C	0.533566	0.318985	0.000137
C41	C	0.373637	0.533235	0.000163
C42	C	0.319334	0.533242	0.000157
C43	C	0.502387	0.084233	0.031423
C44	C	0.502376	0.135264	0.031415
O45	O	0.475817	0.161646	0.057992
N46	N	0.533610	0.160781	0.000172
C47	C	0.564864	0.135261	-0.031061
O48	O	0.591431	0.161651	-0.057636
C49	C	0.564879	0.084229	-0.031049
C50	C	0.533637	0.058718	0.000191
C51	C	0.471149	0.058723	0.062662
C52	C	0.471160	0.007697	0.062668
C53	C	0.502409	-0.017818	0.031437
C54	C	0.533648	0.007693	0.000198
C55	C	0.596135	0.058706	-0.062278
C56	C	0.596147	0.007669	-0.062263
C57	C	0.564906	-0.017841	-0.031023
C58	C	0.564908	-0.068848	-0.031027
N59	N	0.533674	-0.094366	0.000217
C60	C	0.502424	-0.068851	0.031448
C61	C	0.564831	0.242433	-0.031082
C62	C	0.564813	0.293468	-0.031098
C63	C	0.502326	0.293466	0.031379
C64	C	0.502341	0.242433	0.031391
C65	C	0.533596	0.216915	0.000161
C66	C	0.502449	-0.176008	0.031460
C67	C	0.502461	-0.227036	0.031462
C68	C	0.564950	-0.227032	-0.031012
C69	C	0.564936	-0.176006	-0.031017
C70	C	0.533684	-0.150497	0.000223
O71	O	0.591456	-0.095265	-0.057588
O72	O	0.475868	-0.095254	0.058026
C73	C	0.013859	0.470740	0.031430
C74	C	-0.037159	0.470736	0.031435
O75	O	-0.036994	0.417611	0.058013
N76	N	-0.093899	0.533201	0.000205
C77	C	-0.099619	0.595674	-0.031028
O78	O	-0.152565	0.648805	-0.057591
C79	C	-0.048601	0.595677	-0.031030
C80	C	0.008137	0.533208	0.000198
C81	C	0.070595	0.408275	0.062656
C82	C	0.121610	0.408280	0.062649
C83	C	0.115889	0.470748	0.031417
C84	C	0.059152	0.533212	0.000192
C85	C	-0.054322	0.658149	-0.062259
C86	C	-0.003298	0.658147	-0.062257
C87	C	0.053441	0.595678	-0.031030
C88	C	0.104446	0.595684	-0.031047
N89	N	0.161185	0.533219	0.000184
C90	C	0.166907	0.470751	0.031416
C91	C	-0.206758	0.595663	-0.031022
C92	C	-0.257775	0.595660	-0.031024
C93	C	-0.195312	0.470722	0.031440
C94	C	-0.144294	0.470725	0.031439
C95	C	-0.150018	0.533197	0.000209
C96	C	0.274039	0.470764	0.031400
C97	C	0.325056	0.470774	0.031389
C98	C	0.262588	0.595712	-0.031073
C99	C	0.211575	0.595702	-0.031065
C100	C	0.217305	0.533223	0.000176
O101	O	0.104326	0.648782	-0.057609
O102	O	0.219854	0.417629	0.057981
C103	C	0.693639	0.533198	0.000204
C104	C	0.747942	0.533192	0.000210
C105	C	0.533636	0.533198	-0.159799
C106	C	0.533635	0.533192	-0.214095
C107	C	0.533692	0.693164	0.000218
C108	C	0.533710	0.747449	0.000230
C109	C	0.502421	0.595694	-0.582060
C110	C	0.502422	0.595698	-0.633082
O111	O	0.475887	0.648822	-0.686030
N112	N	0.533644	0.533233	-0.627369
C113	C	0.564871	0.470760	-0.570630
O114	O	0.591428	0.417628	-0.570456
C115	C	0.564872	0.470756	-0.519609
C116	C	0.533644	0.533226	-0.525326
C117	C	0.471195	0.658158	-0.587774
C118	C	0.471193	0.658154	-0.536755
C119	C	0.502416	0.595686	-0.480022
C120	C	0.533641	0.533222	-0.474307
C121	C	0.596102	0.408284	-0.462870
C122	C	0.596101	0.408287	-0.411849
C123	C	0.564873	0.470756	-0.417566
C124	C	0.564862	0.470749	-0.366555
N125	N	0.533640	0.533214	-0.372267
C126	C	0.502417	0.595683	-0.429001
C127	C	0.564866	0.470771	-0.677780
C128	C	0.564862	0.470773	-0.728799
C129	C	0.502414	0.595712	-0.791248
C130	C	0.502415	0.595708	-0.740227
C131	C	0.533645	0.533236	-0.683492
C132	C	0.502414	0.595669	-0.321855
C133	C	0.502412	0.595660	-0.270829
C134	C	0.564862	0.470722	-0.208385
C135	C	0.564861	0.470731	-0.259406
C136	C	0.533636	0.533210	-0.316143
O137	O	0.591386	0.417652	-0.313588
O138	O	0.475871	0.648805	-0.429164
C139	C	0.533640	0.533235	0.160166
C140	C	0.533641	0.533242	0.214462
C141	C	0.693585	0.373251	0.000169
C142	C	0.747870	0.318960	0.000163
C143	C	0.533587	0.373288	0.160131
C144	C	0.533569	0.319010	0.214416
C145	C	0.693588	0.373269	0.160151
C146	C	0.747873	0.318985	0.214442
C147	C	0.373688	0.693164	-0.159784
C148	C	0.319403	0.747449	-0.214075
C149	C	0.373691	0.693183	0.000198
C150	C	0.319406	0.747474	0.000204
C151	C	0.533690	0.693145	-0.159764
C152	C	0.533707	0.747424	-0.214049
C153	C	0.742119	0.293464	-0.031088
C154	C	0.793120	0.242459	-0.031105
C155	C	0.849872	0.216947	0.000134
C156	C	0.855622	0.242447	0.031386
C157	C	0.804621	0.293455	0.031399
C158	C	0.564805	0.293520	0.271157
C159	C	0.564786	0.242527	0.322168
C160	C	0.533535	0.217021	0.316437
C161	C	0.502295	0.242516	0.259689
C162	C	0.502311	0.293511	0.208679
C163	C	0.804614	0.293485	0.208702
C164	C	0.855626	0.242486	0.259710
C165	C	0.849895	0.216984	0.316457
C166	C	0.793148	0.242489	0.322196
C167	C	0.742138	0.293491	0.271189
C168	C	0.262662	0.772955	-0.208335
C169	C	0.211650	0.823970	-0.259343
C170	C	0.217381	0.849474	-0.316090
C171	C	0.274128	0.823966	-0.321829
C172	C	0.325139	0.772955	-0.270822
C173	C	0.325157	0.772975	0.031450
C174	C	0.274156	0.823994	0.031452
C175	C	0.217404	0.849508	0.000212
C176	C	0.211654	0.824005	-0.031038
C177	C	0.262655	0.772990	-0.031044
C178	C	0.564964	0.772913	-0.208298
C179	C	0.564992	0.823907	-0.259299
C180	C	0.533759	0.849413	-0.316051
C181	C	0.502501	0.823918	-0.321801
C182	C	0.502477	0.772922	-0.270800
H183	H	0.477018	-0.247803	0.056902
H184	H	0.476901	0.221666	0.056830
O185	O	0.437453	-0.019796	0.096364
H186	H	0.468976	-0.076056	0.130901
O187	O	0.629852	-0.019847	-0.095955
H188	H	0.677859	-0.043060	-0.077909
O189	O	0.437513	0.725544	-0.648962
H190	H	0.469051	0.728544	-0.673698
H191	H	0.788491	0.221718	0.368406
O192	O	0.468736	0.663054	-0.383047
H193	H	0.420725	0.693005	-0.388233
H194	H	0.533784	0.890938	-0.357574
O195	O	0.598705	0.851401	-0.253087
H196	H	0.633246	0.841593	-0.274818
H197	H	0.445766	0.709023	-0.541418
O198	O	-0.083098	0.403349	0.065120
H199	H	-0.077912	0.373400	0.113131
H200	H	0.476986	0.646576	-0.744888
O201	O	0.810803	0.320993	0.147500
H202	H	0.858832	0.294694	0.152087
H203	H	0.257984	0.752192	-0.162134
O204	O	-0.318970	0.663038	-0.064717
H205	H	-0.343708	0.666033	-0.033179
H206	H	0.167806	0.357411	0.088076
H207	H	0.695938	0.314246	0.275871
H208	H	0.590253	0.314281	0.275836
H209	H	0.621533	0.357415	-0.458203
O210	O	0.468745	0.663092	-0.852445
H211	H	0.474000	0.652594	-0.886959
O212	O	0.468827	0.851409	-0.383009
H213	H	0.420813	0.874650	-0.388210
H214	H	0.533527	0.175497	0.357977
O215	O	0.468637	0.320971	0.065085
H216	H	0.473889	0.360732	0.059836
H217	H	0.590227	0.221775	0.368370
H218	H	0.476877	0.314258	0.162479
H219	H	0.901828	0.221725	0.255027
H220	H	0.621533	0.357413	-0.365653
H221	H	0.165449	0.844730	-0.254659
H222	H	0.590398	0.752154	-0.162092
H223	H	0.175840	0.891010	-0.357619
O224	O	0.598628	-0.148487	-0.064719
H225	H	0.567091	-0.092227	-0.099251
O226	O	0.468609	0.214984	0.253510
H227	H	0.473862	0.175231	0.298516
O228	O	0.386363	0.745467	0.065146
H229	H	0.420868	0.705704	0.059902
O230	O	0.598502	0.320987	-0.064799
H231	H	0.620235	0.294664	-0.086511
H232	H	0.477021	0.752174	-0.275491
O233	O	-0.212934	0.663047	-0.064719
H234	H	-0.260961	0.706478	-0.086438
O235	O	0.280366	0.851484	0.065170
H236	H	0.305163	0.874700	0.047136
O237	O	0.468737	-0.148492	0.065148
H238	H	0.447014	-0.174805	0.086863
H239	H	0.590284	0.419904	-0.724137
H240	H	0.445702	0.079490	0.088097
O241	O	0.904916	0.161967	0.371471
H242	H	0.945333	0.148517	0.357940
O243	O	0.386331	0.745466	-0.277033
H244	H	0.411075	0.755263	-0.255290
O245	O	0.598541	0.403357	-0.253247
H246	H	0.620253	0.359918	-0.205222
O247	O	0.280306	0.851472	-0.383036
H248	H	0.235299	0.891220	-0.417535
H249	H	0.590281	0.419862	-0.162184
O250	O	0.162404	0.904514	0.000243
H251	H	0.162457	0.950984	-0.019282
O252	O	0.150442	0.851526	-0.064732
H253	H	0.115949	0.891278	-0.059470
H254	H	0.257964	0.752228	-0.056486
H255	H	0.590281	0.221662	-0.056519
H256	H	0.621575	0.079469	-0.087716
O257	O	0.916837	0.214925	0.065077
H258	H	0.912275	0.241223	0.086810
O259	O	0.256463	0.663063	-0.064767
H260	H	0.231710	0.693053	-0.046731
O261	O	0.598651	-0.254552	-0.064702
H262	H	0.593410	-0.294324	-0.059441
H263	H	0.371255	0.419901	0.056820
H264	H	0.075265	0.357404	0.088092
O265	O	0.280224	0.403376	0.065086
H266	H	0.305004	0.373419	0.113094
O267	O	-0.189142	0.403341	0.065134
H268	H	-0.234153	0.413840	0.059892
O269	O	0.598541	0.403386	-0.616585
H270	H	0.620243	0.359956	-0.621191
H271	H	-0.007966	0.709021	-0.087681
O272	O	-0.115513	0.725527	-0.095937
H273	H	-0.110909	0.768958	-0.117645
H274	H	0.165375	0.646570	-0.056501
H275	H	0.476979	0.646532	-0.275491
O276	O	0.904875	0.161928	0.000117
H277	H	0.931822	0.181498	-0.019431
H278	H	0.788427	0.221702	-0.056554
O279	O	0.680911	0.320982	-0.064790
H280	H	0.685490	0.294685	-0.086528
O281	O	0.810827	0.320943	0.065118
H282	H	0.858860	0.294623	0.086842
