data_functionalizedCrystal
_audit_creation_method	'MofGen! by Chris Wilmer'
_symmetry_space_group_name_H-M	'P1'
_symmetry_Int_Tables_number	1
_symmetry_cell_setting	triclinic
loop_
_symmetry_equiv_pos_as_xyz
  x,y,z
_cell_length_a	13.897448
_cell_length_b	19.805407
_cell_length_c	19.805399
_cell_angle_alpha	90.019197
_cell_angle_beta	89.974981
_cell_angle_gamma	89.986158
loop_
_atom_site_label
_atom_site_type_symbol
_atom_site_fract_x
_atom_site_fract_y
_atom_site_fract_z
Zn1	Zn	-0.384136	-1.034777	-0.382725
Zn2	Zn	-0.545442	-1.034709	-0.269542
Zn3	Zn	-0.384152	-0.921591	-0.269550
Zn4	Zn	-0.545380	-0.921572	-0.382689
O5	O	-0.464778	-0.978162	-0.326127
O6	O	-0.405553	-1.129484	-0.367722
O7	O	-0.524079	-1.019683	-0.174826
O8	O	-0.249168	-0.936642	-0.284582
O9	O	-0.524064	-1.129434	-0.284567
O10	O	-0.249157	-1.019799	-0.367731
O11	O	-0.405580	-0.936576	-0.174832
O12	O	-0.405520	-0.826872	-0.284547
O13	O	-0.523958	-0.936609	-0.477411
O14	O	-0.523974	-0.826858	-0.367670
O15	O	-0.405493	-1.019780	-0.477437
O16	O	-0.680416	-1.019664	-0.284532
O17	O	-0.680370	-0.936543	-0.367661
C18	C	-0.464742	-0.802306	-0.326106
C19	C	-0.464751	-0.727074	-0.326113
C20	C	-0.403150	-0.691757	-0.369477
C21	C	-0.403153	-0.621068	-0.369478
C22	C	-0.464762	-0.585699	-0.326118
C23	C	-0.526365	-0.621021	-0.282749
C24	C	-0.526357	-0.691708	-0.282745
C25	C	-0.526400	-0.335948	-0.282763
C26	C	-0.526406	-0.265256	-0.282771
C27	C	-0.403197	-0.265308	-0.369495
C28	C	-0.403188	-0.335995	-0.369492
C29	C	-0.464787	-0.371311	-0.326121
C30	C	-0.464782	-0.447960	-0.326119
C31	C	-0.464773	-0.509051	-0.326122
C32	C	-0.715392	-0.978113	-0.326107
C33	C	-0.822606	-0.978154	-0.326121
C34	C	-1.018901	-0.978225	-0.326164
C35	C	-0.909669	-0.978183	-0.326142
C36	C	-0.213185	-0.978230	-0.326161
C37	C	-0.105971	-0.978259	-0.326176
C38	C	-0.464717	-0.978200	-0.502669
C39	C	-0.464691	-0.978216	-0.577901
C40	C	-0.464807	-0.154705	-0.326142
C41	C	-0.464800	-0.229937	-0.326132
C42	C	-0.403003	-1.021524	-0.613260
C43	C	-0.402975	-1.021531	-0.683949
C44	C	-0.464641	-0.978233	-0.719277
C45	C	-0.526331	-0.934920	-0.683913
C46	C	-0.526354	-0.934910	-0.613226
C47	C	-0.526241	-0.934958	-0.968987
C48	C	-0.526216	-0.934973	-1.039679
C49	C	-0.402863	-1.021579	-1.039709
C50	C	-0.402885	-1.021570	-0.969022
C51	C	-0.464572	-0.978254	-0.933664
C52	C	-0.464600	-0.978247	-0.857016
C53	C	-0.464618	-0.978244	-0.795924
C54	C	-0.464769	-0.978163	-0.150271
C55	C	-0.464523	-0.978278	-0.075039
H56	H	-0.576559	-0.364694	-0.247448
O57	O	-0.336736	-0.374140	-0.416260
H58	H	-0.347085	-0.429227	-0.408976
O59	O	-0.336708	-0.582978	-0.416249
H60	H	-0.379946	-0.550775	-0.450629
H61	H	-0.352791	-1.056785	-0.584501
O62	O	-0.592836	-0.888213	-0.722014
H63	H	-0.641916	-0.918495	-0.754215
H64	H	-0.353036	-0.236545	-0.404808
H65	H	-0.352674	-1.056830	-0.940261
H66	H	-0.576485	-0.899699	-0.940207
H67	H	-0.352745	-1.056799	-0.712735
H68	H	-0.576518	-0.720463	-0.247433
O69	O	-0.592852	-0.227109	-0.235993
H70	H	-0.641999	-0.194915	-0.266225
H71	H	-0.576524	-0.592217	-0.247441
O72	O	-0.592719	-0.888264	-1.077787
H73	H	-0.635609	-0.858135	-1.041326
O74	O	-0.336297	-1.068282	-1.077844
H75	H	-0.346622	-1.061007	-1.132932
H76	H	-0.576577	-0.899638	-0.584438
H77	H	-0.352983	-0.720550	-0.404788
