data_functionalizedCrystal
_audit_creation_method	'MofGen! by Chris Wilmer'
_symmetry_space_group_name_H-M	'P1'
_symmetry_Int_Tables_number	1
_symmetry_cell_setting	triclinic
loop_
_symmetry_equiv_pos_as_xyz
  x,y,z
_cell_length_a	16.109301
_cell_length_b	16.109301
_cell_length_c	15.186229
_cell_angle_alpha	90.000638
_cell_angle_beta	89.996245
_cell_angle_gamma	96.538468
loop_
_atom_site_label
_atom_site_type_symbol
_atom_site_fract_x
_atom_site_fract_y
_atom_site_fract_z
O1	O	0.106866	-1.103131	-0.073173
O2	O	0.440199	-0.769797	0.260160
O3	O	0.773533	-0.436464	0.593494
O4	O	0.120165	-0.861069	-0.073187
O5	O	0.453499	-0.527735	0.260146
O6	O	0.786832	-0.194402	0.593480
O7	O	-0.007515	-0.988749	-0.073174
O8	O	0.325818	-0.655416	0.260160
O9	O	0.659151	-0.322083	0.593493
O10	O	0.234547	-0.975450	-0.073186
O11	O	0.567880	-0.642117	0.260147
O12	O	0.901213	-0.308784	0.593481
O13	O	-0.007517	-0.988741	0.073284
O14	O	0.325816	-0.655407	0.406617
O15	O	0.659150	-0.322074	0.739950
O16	O	0.120164	-0.861060	0.073270
O17	O	0.453497	-0.527727	0.406604
O18	O	0.786830	-0.194394	0.739937
O19	O	0.106864	-1.103122	0.073284
O20	O	0.440198	-0.769789	0.406618
O21	O	0.773531	-0.436456	0.739951
Zn22	Zn	0.113514	-0.982090	0.096531
Zn23	Zn	0.446847	-0.648757	0.429864
Zn24	Zn	0.780180	-0.315423	0.763197
Zn25	Zn	0.113516	-0.982101	-0.096433
Zn26	Zn	0.446849	-0.648768	0.236900
Zn27	Zn	0.780183	-0.315434	0.570233
O28	O	0.234545	-0.975442	0.073271
O29	O	0.567878	-0.642108	0.406604
O30	O	0.901212	-0.308775	0.739938
C31	C	0.119626	-0.830090	0.000040
C32	C	0.452959	-0.496756	0.333373
C33	C	0.786292	-0.163423	0.666707
C34	C	0.118011	-0.737794	0.000035
C35	C	0.451344	-0.404461	0.333368
C36	C	0.784677	-0.071128	0.666701
C37	C	-0.038491	-0.988206	0.000055
C38	C	0.294842	-0.654873	0.333388
C39	C	0.628176	-0.321540	0.666721
C40	C	-0.130786	-0.986591	0.000053
C41	C	0.202547	-0.653258	0.333387
C42	C	0.535880	-0.319924	0.666720
N43	N	0.113511	-0.982088	0.228223
N44	N	0.446845	-0.648755	0.561557
N45	N	0.780178	-0.315422	0.894890
C46	C	-0.439785	-1.057074	0.000042
C47	C	-0.106451	-0.723741	0.333375
C48	C	0.226882	-0.390408	0.666709
C49	C	-0.353064	-1.058600	0.000047
C50	C	-0.019731	-0.725266	0.333381
C51	C	0.313602	-0.391933	0.666714
C52	C	-0.333191	-0.907111	0.000050
C53	C	0.000142	-0.573777	0.333384
C54	C	0.333476	-0.240444	0.666717
C55	C	-0.419910	-0.905586	0.000051
C56	C	-0.086577	-0.572253	0.333385
C57	C	0.246757	-0.238920	0.666718
C58	C	-0.473205	-0.980571	0.000043
C59	C	-0.139871	-0.647237	0.333376
C60	C	0.193462	-0.313904	0.666709
C61	C	-0.299766	-0.983620	0.000047
C62	C	0.033568	-0.650287	0.333380
C63	C	0.366901	-0.316954	0.666714
C64	C	-0.205740	-0.985274	0.000052
C65	C	0.127594	-0.651940	0.333386
C66	C	0.460927	-0.318607	0.666719
C67	C	-0.567237	-0.978917	0.000039
C68	C	-0.233903	-0.645584	0.333372
C69	C	0.099430	-0.312251	0.666706
C70	C	0.265521	-0.975985	0.000041
C71	C	0.598854	-0.642651	0.333374
C72	C	0.932187	-0.309318	0.666708
C73	C	0.357816	-0.977600	0.000036
C74	C	0.691149	-0.644267	0.333370
C75	C	1.024483	-0.310933	0.666703
C76	C	0.107404	-1.134101	0.000056
C77	C	0.440737	-0.800768	0.333389
C78	C	0.774070	-0.467435	0.666722
C79	C	0.109019	-1.226397	0.000055
C80	C	0.442352	-0.893063	0.333388
C81	C	0.775686	-0.559730	0.666722
C82	C	0.190018	-0.515522	0.000041
C83	C	0.523352	-0.182189	0.333375
C84	C	0.856685	0.151145	0.666708
C85	C	0.188494	-0.428802	0.000047
C86	C	0.521828	-0.095468	0.333380
C87	C	0.855161	0.237865	0.666714
C88	C	0.037006	-0.448676	0.000051
C89	C	0.370339	-0.115342	0.333384
C90	C	0.703672	0.217991	0.666718
C91	C	0.038530	-0.535395	0.000052
C92	C	0.371864	-0.202061	0.333385
C93	C	0.705197	0.131272	0.666718
C94	C	0.115039	-0.568815	0.000042
C95	C	0.448373	-0.235482	0.333376
C96	C	0.781706	0.097852	0.666709
C97	C	0.111990	-0.395376	0.000047
C98	C	0.445324	-0.062043	0.333381
C99	C	0.778657	0.271291	0.666714
C100	C	0.110337	-0.301350	0.000054
C101	C	0.443671	0.031983	0.333387
C102	C	0.777004	0.365317	0.666720
C103	C	0.116693	-0.662847	0.000038
C104	C	0.450026	-0.329514	0.333371
C105	C	0.783359	0.003820	0.666704
N106	N	0.113512	-0.982109	-0.228126
N107	N	0.446845	-0.648776	0.105208
N108	N	0.780178	-0.315443	0.438541
C109	C	0.056994	-1.038644	0.453952
C110	C	0.390327	-0.705311	0.787285
C111	C	0.723660	-0.371978	1.120619
C112	C	0.056992	-1.038647	0.546142
C113	C	0.390325	-0.705314	0.879475
C114	C	0.723658	-0.371980	1.212808
C115	C	0.170032	-0.925547	0.546139
C116	C	0.503366	-0.592214	0.879472
C117	C	0.836699	-0.258880	1.212806
C118	C	0.170030	-0.925541	0.453951
C119	C	0.503363	-0.592208	0.787284
C120	C	0.836696	-0.258874	1.120618
C121	C	0.113511	-0.982094	0.407860
C122	C	0.446844	-0.648761	0.741193
C123	C	0.780178	-0.315428	1.074527
C124	C	0.113512	-0.982103	0.592238
C125	C	0.446845	-0.648770	0.925571
C126	C	0.780179	-0.315436	1.258904
C127	C	0.113510	-0.982105	0.692194
C128	C	0.446843	-0.648772	1.025527
C129	C	0.780177	-0.315439	1.358860
C130	C	0.113512	-0.982091	0.307897
C131	C	0.446845	-0.648758	0.641231
C132	C	0.780178	-0.315425	0.974564
H133	H	-0.483175	-1.118131	0.000035
H134	H	-0.149842	-0.784798	0.333368
H135	H	0.183491	-0.451465	0.666702
C136	C	0.038923	-1.151758	0.350224
C137	C	0.372256	-0.818424	0.683558
C138	C	0.705590	-0.485091	1.016891
C139	C	-0.005156	-1.100762	0.403265
C140	C	0.328177	-0.767429	0.736598
C141	C	0.661510	-0.434095	1.069931
H142	H	0.000544	-1.190097	0.318932
H143	H	0.333878	-0.856764	0.652265
H144	H	0.667211	-0.523431	0.985599
H145	H	0.072595	-1.118078	0.309599
H146	H	0.405928	-0.784744	0.642932
H147	H	0.739262	-0.451411	0.976266
H148	H	0.073514	-1.181694	0.386175
H149	H	0.406848	-0.848361	0.719508
H150	H	0.740181	-0.515027	1.052841
H151	H	-0.039743	-1.070821	0.367313
H152	H	0.293590	-0.737488	0.700647
H153	H	0.626923	-0.404154	1.033980
H154	H	-0.038842	-1.134446	0.443895
H155	H	0.294491	-0.801113	0.777228
H156	H	0.627824	-0.467780	1.110561
C157	C	-0.026395	-0.677155	0.000057
C158	C	0.306939	-0.343822	0.333390
C159	C	0.640272	-0.010489	0.666724
C160	C	-0.043892	-0.593983	0.000052
C161	C	0.289441	-0.260650	0.333385
C162	C	0.622774	0.072684	0.666719
H163	H	-0.077277	-0.713323	0.000065
H164	H	0.256056	-0.379990	0.333398
H165	H	0.589389	-0.046657	0.666731
H166	H	0.004973	-0.687279	-0.051013
H167	H	0.338307	-0.353946	0.282320
H168	H	0.671640	-0.020613	0.615653
H169	H	0.004976	-0.687272	0.051133
H170	H	0.338310	-0.353938	0.384466
H171	H	0.671643	-0.020605	0.717800
H172	H	-0.075258	-0.583865	-0.051028
H173	H	0.258075	-0.250531	0.282306
H174	H	0.591408	0.082802	0.615639
H175	H	-0.075274	-0.583855	0.051128
H176	H	0.258060	-0.250521	0.384461
H177	H	0.591393	0.082812	0.717794
C178	C	-0.092590	-0.438909	0.075340
C179	C	0.240744	-0.105576	0.408674
C180	C	0.574077	0.227758	0.742007
C181	C	-0.047090	-0.411937	0.000051
C182	C	0.286243	-0.078604	0.333385
C183	C	0.619576	0.254730	0.666718
H184	H	-0.144506	-0.416225	0.075339
H185	H	0.188827	-0.082891	0.408672
H186	H	0.522161	0.250442	0.742005
H187	H	-0.102410	-0.498175	0.075337
H188	H	0.230924	-0.164842	0.408670
H189	H	0.564257	0.168491	0.742003
H190	H	-0.061714	-0.420605	0.126407
H191	H	0.271619	-0.087272	0.459740
H192	H	0.604953	0.246061	0.793074
H193	H	-0.077964	-0.430246	-0.051016
H194	H	0.255370	-0.096913	0.282318
H195	H	0.588703	0.236421	0.615651
H196	H	-0.037273	-0.352658	0.000047
H197	H	0.296060	-0.019325	0.333380
H198	H	0.629394	0.314009	0.666714
C199	C	-0.381424	-1.208184	0.000031
C200	C	-0.048091	-0.874851	0.333364
C201	C	0.285242	-0.541517	0.666697
C202	C	-0.316329	-1.142695	0.000040
C203	C	0.017004	-0.809362	0.333373
C204	C	0.350337	-0.476028	0.666707
H205	H	-0.358744	-1.260102	0.000021
H206	H	-0.025411	-0.926769	0.333355
H207	H	0.307922	-0.593435	0.666688
H208	H	-0.414836	-1.204442	0.051100
H209	H	-0.081503	-0.871108	0.384433
H210	H	0.251830	-0.537775	0.717767
H211	H	-0.414831	-1.204428	-0.051046
H212	H	-0.081497	-0.871094	0.282287
H213	H	0.251836	-0.537761	0.615620
H214	H	-0.282926	-1.146448	0.051120
H215	H	0.050407	-0.813114	0.384454
H216	H	0.383740	-0.479781	0.717787
H217	H	-0.282903	-1.146439	-0.051035
H218	H	0.050430	-0.813106	0.282299
H219	H	0.383763	-0.479772	0.615632
H220	H	-0.447120	-0.843284	0.000056
H221	H	-0.113786	-0.509951	0.333389
H222	H	0.219547	-0.176618	0.666723
H223	H	0.216053	-0.879487	0.416420
H224	H	0.549387	-0.546154	0.749754
H225	H	0.882720	-0.212821	1.083087
C226	C	0.339604	-0.487164	0.000048
C227	C	0.672937	-0.153830	0.333382
C228	C	1.006271	0.179503	0.666715
C229	C	0.274115	-0.552259	0.000043
C230	C	0.607449	-0.218925	0.333376
C231	C	0.940782	0.114408	0.666710
H232	H	0.391522	-0.509844	0.000057
H233	H	0.724856	-0.176510	0.333390
H234	H	1.058189	0.156823	0.666724
H235	H	0.335863	-0.453757	-0.051022
H236	H	0.669197	-0.120423	0.282311
H237	H	1.002530	0.212910	0.615645
H238	H	0.335846	-0.453752	0.051124
H239	H	0.669179	-0.120419	0.384458
H240	H	1.002513	0.212914	0.717791
H241	H	0.277870	-0.585667	-0.051037
H242	H	0.611203	-0.252333	0.282297
H243	H	0.944537	0.081000	0.615630
H244	H	0.277858	-0.585680	0.051119
H245	H	0.611191	-0.252347	0.384452
H246	H	0.944524	0.080987	0.717785
C247	C	0.274661	-0.319749	-0.075245
C248	C	0.607994	0.013584	0.258088
C249	C	0.941327	0.346917	0.591422
C250	C	0.270913	-0.370220	0.000040
C251	C	0.604246	-0.036887	0.333374
C252	C	0.937580	0.296446	0.666707
H253	H	0.325543	-0.283581	-0.075244
H254	H	0.658877	0.049752	0.258089
H255	H	0.992210	0.383085	0.591422
H256	H	0.272109	-0.353992	-0.126309
H257	H	0.605442	-0.020659	0.207024
H258	H	0.938776	0.312675	0.540358
H259	H	0.228876	-0.287435	-0.075230
H260	H	0.562210	0.045898	0.258103
H261	H	0.895543	0.379231	0.591436
H262	H	0.316694	-0.402539	0.000022
H263	H	0.650027	-0.069206	0.333356
H264	H	0.983361	0.264128	0.666689
H265	H	0.273473	-0.335973	0.051117
H266	H	0.606806	-0.002640	0.384451
H267	H	0.940140	0.330693	0.717784
C268	C	-0.191432	-0.842183	0.000040
C269	C	0.141901	-0.508849	0.333374
C270	C	0.475234	-0.175516	0.666707
C271	C	-0.274607	-0.824691	0.000048
C272	C	0.058727	-0.491358	0.333381
C273	C	0.392060	-0.158024	0.666715
H274	H	-0.155268	-0.791298	0.000032
H275	H	0.178066	-0.457965	0.333365
H276	H	0.511399	-0.124631	0.666698
H277	H	-0.181308	-0.873546	0.051110
H278	H	0.152026	-0.540213	0.384444
H279	H	0.485359	-0.206880	0.717777
H280	H	-0.181312	-0.873556	-0.051036
H281	H	0.152022	-0.540223	0.282297
H282	H	0.485355	-0.206889	0.615631
H283	H	-0.284729	-0.793323	0.051128
H284	H	0.048604	-0.459990	0.384461
H285	H	0.381938	-0.126656	0.717795
H286	H	-0.284735	-0.793314	-0.051027
H287	H	0.048598	-0.459981	0.282306
H288	H	0.381931	-0.126648	0.615639
C289	C	-0.054735	-1.150447	0.536878
C290	C	0.278599	-0.817114	0.870211
C291	C	0.611932	-0.483780	1.203545
C292	C	-0.005131	-1.100812	0.596806
C293	C	0.328202	-0.767479	0.930139
C294	C	0.661536	-0.434146	1.263473
H295	H	-0.093085	-1.188829	0.568158
H296	H	0.240249	-0.855496	0.901491
H297	H	0.573582	-0.522162	1.234825
H298	H	-0.084651	-1.115849	0.500928
H299	H	0.248682	-0.782516	0.834262
H300	H	0.582015	-0.449183	1.167595
H301	H	-0.020106	-1.180335	0.500915
H302	H	0.313227	-0.847002	0.834248
H303	H	0.646560	-0.513668	1.167582
H304	H	-0.039759	-1.070919	0.632765
H305	H	0.293574	-0.737586	0.966098
H306	H	0.626908	-0.404253	1.299432
H307	H	0.024788	-1.135414	0.632771
H308	H	0.358121	-0.802081	0.966104
H309	H	0.691454	-0.468748	1.299437
H310	H	0.216049	-0.879504	0.583676
H311	H	0.549383	-0.546170	0.917009
H312	H	0.882716	-0.212837	1.250342
