data_functionalizedCrystal
_audit_creation_method	'MofGen! by Chris Wilmer'
_symmetry_space_group_name_H-M	'P1'
_symmetry_Int_Tables_number	1
_symmetry_cell_setting	triclinic
loop_
_symmetry_equiv_pos_as_xyz
  x,y,z
_cell_length_a	16.120530
_cell_length_b	12.827893
_cell_length_c	12.827885
_cell_angle_alpha	90.025051
_cell_angle_beta	92.918515
_cell_angle_gamma	87.099477
loop_
_atom_site_label
_atom_site_type_symbol
_atom_site_fract_x
_atom_site_fract_y
_atom_site_fract_z
Zn1	Zn	1.274699	-0.497104	0.671871
Zn2	Zn	1.524699	-0.247104	0.921871
Zn3	Zn	1.774699	0.002896	1.171871
Zn4	Zn	2.024699	0.252896	1.421871
Zn5	Zn	1.274644	-0.671877	0.497143
Zn6	Zn	1.524644	-0.421877	0.747143
Zn7	Zn	1.774644	-0.171877	0.997143
Zn8	Zn	2.024644	0.078123	1.247143
Zn9	Zn	1.135276	-0.488282	0.488287
Zn10	Zn	1.385276	-0.238282	0.738287
Zn11	Zn	1.635276	0.011718	0.988287
Zn12	Zn	1.885276	0.261718	1.238287
Zn13	Zn	1.135293	-0.662932	0.662989
Zn14	Zn	1.385293	-0.412932	0.912989
Zn15	Zn	1.635293	-0.162932	1.162989
Zn16	Zn	1.885293	0.087068	1.412989
O17	O	1.204978	-0.580049	0.580072
O18	O	1.454978	-0.330049	0.830072
O19	O	1.704978	-0.080049	1.080072
O20	O	1.954978	0.169951	1.330072
O21	O	1.391360	-0.527724	0.656117
O22	O	1.641360	-0.277724	0.906117
O23	O	1.891360	-0.027724	1.156117
O24	O	2.141360	0.222276	1.406117
O25	O	1.256126	-0.647575	0.349730
O26	O	1.506126	-0.397575	0.599730
O27	O	1.756126	-0.147575	0.849730
O28	O	2.006126	0.102425	1.099730
O29	O	1.153787	-0.343217	0.512651
O30	O	1.403787	-0.093217	0.762651
O31	O	1.653787	0.156783	1.012651
O32	O	1.903787	0.406783	1.262651
O33	O	1.391319	-0.656129	0.527744
O34	O	1.641319	-0.406129	0.777744
O35	O	1.891319	-0.156129	1.027744
O36	O	2.141319	0.093871	1.277744
O37	O	1.256221	-0.349698	0.647530
O38	O	1.506221	-0.099698	0.897530
O39	O	1.756221	0.150302	1.147530
O40	O	2.006221	0.400302	1.397530
O41	O	1.153733	-0.512688	0.343223
O42	O	1.403733	-0.262688	0.593223
O43	O	1.653733	-0.012688	0.843223
O44	O	1.903733	0.237312	1.093223
O45	O	1.018610	-0.504014	0.504038
O46	O	1.268610	-0.254014	0.754038
O47	O	1.518610	-0.004014	1.004038
O48	O	1.768610	0.245986	1.254038
O49	O	1.153816	-0.640882	0.810405
O50	O	1.403816	-0.390882	1.060405
O51	O	1.653816	-0.140882	1.310405
O52	O	1.903816	0.109118	1.560405
O53	O	1.018623	-0.632328	0.632391
O54	O	1.268623	-0.382328	0.882391
O55	O	1.518623	-0.132328	1.132391
O56	O	1.768623	0.117672	1.382391
O57	O	1.256237	-0.519049	0.816931
O58	O	1.506237	-0.269049	1.066931
O59	O	1.756237	-0.019049	1.316931
O60	O	2.006237	0.230951	1.566931
O61	O	1.256143	-0.816926	0.519131
O62	O	1.506143	-0.566926	0.769131
O63	O	1.756143	-0.316926	1.019131
O64	O	2.006143	-0.066926	1.269131
O65	O	1.153762	-0.810353	0.640978
O66	O	1.403762	-0.560353	0.890978
O67	O	1.653762	-0.310353	1.140978
O68	O	1.903762	-0.060353	1.390978
C69	C	0.988366	-0.566243	0.566290
C70	C	1.238366	-0.316243	0.816290
C71	C	1.488366	-0.066243	1.066290
C72	C	1.738366	0.183757	1.316290
C73	C	0.895698	-0.560363	0.560419
C74	C	1.145698	-0.310363	0.810419
C75	C	1.395698	-0.060363	1.060419
C76	C	1.645698	0.189637	1.310419
C77	C	1.204971	-0.851558	0.580076
C78	C	1.454971	-0.601558	0.830076
C79	C	1.704971	-0.351558	1.080076
C80	C	1.954971	-0.101558	1.330076
C81	C	1.205044	-0.967716	0.580117
C82	C	1.455044	-0.717716	0.830117
C83	C	1.705044	-0.467716	1.080117
C84	C	1.955044	-0.217716	1.330117
C85	C	1.205035	-0.579952	0.852646
C86	C	1.455035	-0.329952	1.102646
C87	C	1.705035	-0.079952	1.352646
C88	C	1.955035	0.170048	1.602646
C89	C	1.205059	-0.579911	0.968801
C90	C	1.455059	-0.329911	1.218801
C91	C	1.705059	-0.079911	1.468801
C92	C	1.955059	0.170089	1.718801
C93	C	0.726033	-0.549602	0.549708
C94	C	0.976033	-0.299602	0.799708
C95	C	1.226033	-0.049602	1.049708
C96	C	1.476033	0.200398	1.299708
C97	C	0.684763	-0.610572	0.610513
C98	C	0.934763	-0.360572	0.860513
C99	C	1.184763	-0.110572	1.110513
C100	C	1.434763	0.139428	1.360513
C101	C	0.590356	-0.604585	0.604554
C102	C	0.840356	-0.354585	0.854554
C103	C	1.090356	-0.104585	1.104554
C104	C	1.340356	0.145415	1.354554
C105	C	0.820449	-0.555588	0.555666
C106	C	1.070449	-0.305588	0.805666
C107	C	1.320449	-0.055588	1.055666
C108	C	1.570449	0.194412	1.305666
C109	C	1.422436	-0.593908	0.593909
C110	C	1.672436	-0.343908	0.843909
C111	C	1.922436	-0.093908	1.093909
C112	C	2.172436	0.156092	1.343909
C113	C	1.515104	-0.599815	0.599806
C114	C	1.765104	-0.349815	0.849806
C115	C	2.015104	-0.099815	1.099806
C116	C	2.265104	0.150185	1.349806
C117	C	1.205008	-0.307480	0.580093
C118	C	1.455008	-0.057480	0.830093
C119	C	1.705008	0.192520	1.080093
C120	C	1.955008	0.442520	1.330093
C121	C	1.205021	-0.191328	0.580102
C122	C	1.455021	0.058672	0.830102
C123	C	1.705021	0.308672	1.080102
C124	C	1.955021	0.558672	1.330102
C125	C	1.154344	-0.136337	0.513371
C126	C	1.404344	0.113663	0.763371
C127	C	1.654344	0.363663	1.013371
C128	C	1.904344	0.613663	1.263371
C129	C	1.154356	-0.016287	0.513378
C130	C	1.404356	0.233713	0.763378
C131	C	1.654356	0.483713	1.013378
C132	C	1.904356	0.733713	1.263378
C133	C	1.204969	-0.580073	0.308562
C134	C	1.454969	-0.330073	0.558562
C135	C	1.704969	-0.080073	0.808562
C136	C	1.954969	0.169927	1.058562
C137	C	1.205107	-0.579830	0.192418
C138	C	1.455107	-0.329830	0.442418
C139	C	1.705107	-0.079830	0.692418
C140	C	1.955107	0.170170	0.942418
C141	C	1.255746	-0.519612	1.023815
C142	C	1.505746	-0.269612	1.273815
C143	C	1.755746	-0.019612	1.523815
C144	C	2.005746	0.230388	1.773815
C145	C	1.255772	-0.519568	1.143867
C146	C	1.505772	-0.269568	1.393867
C147	C	1.755772	-0.019568	1.643867
C148	C	2.005772	0.230432	1.893867
H149	H	0.720333	-0.667266	0.667047
H150	H	0.970333	-0.417266	0.917047
H151	H	1.220333	-0.167266	1.167047
H152	H	1.470333	0.082734	1.417047
H153	H	0.690465	-0.492912	0.493179
H154	H	0.940465	-0.242912	0.743179
H155	H	1.190465	0.007088	0.993179
H156	H	1.440465	0.257088	1.243179
F157	F	1.097614	-0.190961	0.438695
F158	F	1.347614	0.059039	0.688695
F159	F	1.597614	0.309039	0.938695
F160	F	1.847614	0.559039	1.188695
F161	F	1.097650	0.045506	0.438696
F162	F	1.347650	0.295506	0.688696
F163	F	1.597650	0.545506	0.938696
F164	F	1.847650	0.795506	1.188696
F165	F	1.261761	-0.029503	0.654793
F166	F	1.511761	0.220497	0.904793
F167	F	1.761761	0.470497	1.154793
F168	F	2.011761	0.720497	1.404793
H169	H	1.248413	-0.149533	0.637243
H170	H	1.498413	0.100467	0.887243
H171	H	1.748413	0.350467	1.137243
H172	H	1.998413	0.600467	1.387243
F173	F	1.148358	-0.647342	1.023402
F174	F	1.398358	-0.397342	1.273402
F175	F	1.648358	-0.147342	1.523402
F176	F	1.898358	0.102658	1.773402
F177	F	1.312426	-0.452153	0.969213
F178	F	1.562426	-0.202153	1.219213
F179	F	1.812426	0.047847	1.469213
F180	F	2.062426	0.297847	1.719213
F181	F	1.312498	-0.452094	1.205687
F182	F	1.562498	-0.202094	1.455687
F183	F	1.812498	0.047906	1.705687
F184	F	2.062498	0.297906	1.955687
F185	F	1.148386	-0.647317	1.130606
F186	F	1.398386	-0.397317	1.380606
F187	F	1.648386	-0.147317	1.630606
F188	F	1.898386	0.102683	1.880606
