data_functionalizedCrystal
_audit_creation_method	'MofGen! by Chris Wilmer'
_symmetry_space_group_name_H-M	'P1'
_symmetry_Int_Tables_number	1
_symmetry_cell_setting	triclinic
loop_
_symmetry_equiv_pos_as_xyz
  x,y,z
_cell_length_a	18.215407
_cell_length_b	19.805405
_cell_length_c	18.215399
_cell_angle_alpha	89.966980
_cell_angle_beta	89.983176
_cell_angle_gamma	90.026858
loop_
_atom_site_label
_atom_site_type_symbol
_atom_site_fract_x
_atom_site_fract_y
_atom_site_fract_z
Zn1	Zn	1.125042	-0.269446	-0.416102
Zn2	Zn	1.625042	0.230554	0.083898
Zn3	Zn	1.124954	-0.382642	-0.293030
Zn4	Zn	1.624954	0.117358	0.206970
Zn5	Zn	1.001981	-0.269473	-0.293050
Zn6	Zn	1.501981	0.230527	0.206950
Zn7	Zn	1.001937	-0.382599	-0.416055
Zn8	Zn	1.501937	0.117401	0.083945
O9	O	1.063479	-0.326040	-0.354559
O10	O	1.563479	0.173960	0.145441
O11	O	1.228015	-0.284468	-0.399788
O12	O	1.728015	0.215532	0.100212
O13	O	1.108623	-0.367659	-0.190049
O14	O	1.608623	0.132341	0.309951
O15	O	1.018361	-0.174753	-0.309401
O16	O	1.518361	0.325247	0.190599
O17	O	1.227950	-0.367633	-0.309368
O18	O	1.727950	0.132367	0.190632
O19	O	1.108773	-0.174733	-0.399807
O20	O	1.608773	0.325267	0.100193
O21	O	1.018275	-0.284514	-0.190063
O22	O	1.518275	0.215486	0.309937
O23	O	0.898991	-0.284473	-0.309355
O24	O	1.398991	0.215527	0.190645
O25	O	1.018286	-0.367560	-0.519046
O26	O	1.518286	0.132440	-0.019046
O27	O	0.898959	-0.367586	-0.399727
O28	O	1.398959	0.132414	0.100273
O29	O	1.108731	-0.284427	-0.519080
O30	O	1.608731	0.215573	-0.019080
O31	O	1.108580	-0.477353	-0.309322
O32	O	1.608580	0.022647	0.190678
O33	O	1.018201	-0.477321	-0.399708
O34	O	1.518201	0.022679	0.100292
C35	C	0.872272	-0.326028	-0.354538
C36	C	1.372272	0.173972	0.145462
C37	C	0.790474	-0.326040	-0.354547
C38	C	1.290474	0.173960	0.145453
C39	C	0.602282	-0.369385	-0.401544
C40	C	1.102282	0.130615	0.098456
C41	C	0.525423	-0.369387	-0.401553
C42	C	1.025423	0.130613	0.098447
C43	C	0.525427	-0.282707	-0.307591
C44	C	1.025427	0.217293	0.192409
C45	C	0.602285	-0.282702	-0.307586
C46	C	1.102285	0.217298	0.192414
C47	C	0.640710	-0.326045	-0.354561
C48	C	1.140710	0.173955	0.145439
C49	C	0.486994	-0.326052	-0.354575
C50	C	0.986994	0.173948	0.145425
C51	C	0.403660	-0.326054	-0.354585
C52	C	0.903660	0.173946	0.145415
C53	C	0.724049	-0.326042	-0.354553
C54	C	1.224049	0.173958	0.145447
C55	C	1.063396	-0.501896	-0.354524
C56	C	1.563396	-0.001896	0.145476
C57	C	1.063428	-0.577128	-0.354533
C58	C	1.563428	-0.077128	0.145467
C59	C	1.110534	-0.612466	-0.307518
C60	C	1.610534	-0.112466	0.192482
C61	C	1.110565	-0.683154	-0.307535
C62	C	1.610565	-0.183154	0.192465
C63	C	1.063486	-0.718504	-0.354562
C64	C	1.563486	-0.218504	0.145438
C65	C	1.016378	-0.683161	-0.401582
C66	C	1.516378	-0.183161	0.098418
C67	C	1.016351	-0.612474	-0.401569
C68	C	1.516351	-0.112474	0.098431
C69	C	1.016486	-0.968234	-0.401637
C70	C	1.516486	-0.468234	0.098363
C71	C	1.016515	-1.038926	-0.401645
C72	C	1.516515	-0.538926	0.098355
C73	C	1.110701	-1.038915	-0.307602
C74	C	1.610701	-0.538915	0.192398
C75	C	1.110674	-0.968228	-0.307589
C76	C	1.610674	-0.468228	0.192411
C77	C	1.063569	-0.932891	-0.354611
C78	C	1.563569	-0.432891	0.145389
C79	C	1.063536	-0.856242	-0.354594
C80	C	1.563536	-0.356242	0.145406
C81	C	1.063514	-0.795151	-0.354577
C82	C	1.563514	-0.295151	0.145423
C83	C	1.255432	-0.326052	-0.354581
C84	C	1.755432	0.173948	0.145419
C85	C	1.337231	-0.326057	-0.354590
C86	C	1.837231	0.173943	0.145410
C87	C	1.063514	-0.325986	-0.546512
C88	C	1.563514	0.174014	-0.046512
C89	C	1.063528	-0.325963	-0.628311
C90	C	1.563528	0.174037	-0.128311
C91	C	1.063582	-0.149497	-0.354611
C92	C	1.563582	0.350503	0.145389
C93	C	1.063626	-0.074265	-0.354633
C94	C	1.563626	0.425735	0.145367
C95	C	1.016524	-0.282640	-0.816514
C96	C	1.516524	0.217360	-0.316514
C97	C	1.016537	-0.282627	-0.893372
C98	C	1.516537	0.217373	-0.393372
C99	C	1.110620	-0.369205	-0.893347
C100	C	1.610620	0.130795	-0.393347
C101	C	1.110603	-0.369221	-0.816489
C102	C	1.610603	0.130779	-0.316489
C103	C	1.063556	-0.325935	-0.778075
C104	C	1.563556	0.174065	-0.278075
C105	C	1.063586	-0.325905	-0.931791
C106	C	1.563586	0.174095	-0.431791
C107	C	1.063600	-0.325891	-1.015125
C108	C	1.563600	0.174109	-0.515125
C109	C	1.063541	-0.325950	-0.694736
C110	C	1.563541	0.174050	-0.194736
C111	C	1.063486	-0.326045	-0.163353
C112	C	1.563486	0.173955	0.336647
C113	C	1.063614	-0.325877	-0.081555
C114	C	1.563614	0.174123	0.418445
H115	H	0.633574	-0.247405	-0.269327
H116	H	1.133574	0.252595	0.230673
H117	H	0.494132	-0.247420	-0.269344
H118	H	0.994132	0.252580	0.230656
Cl119	Cl	0.957398	-0.228205	-0.941692
Cl120	Cl	1.457398	0.271795	-0.441692
H121	H	0.633566	-0.404676	-0.439797
H122	H	1.133566	0.095324	0.060203
H123	H	1.148904	-0.404480	-0.785192
H124	H	1.648904	0.095520	-0.285192
H125	H	1.149059	-1.067694	-0.269317
H126	H	1.649059	-0.567694	0.230683
Cl127	Cl	0.957196	-0.727600	-0.460708
Cl128	Cl	1.457196	-0.227600	0.039292
H129	H	1.148868	-0.583689	-0.269220
H130	H	1.648868	-0.083689	0.230780
Cl131	Cl	1.169790	-0.727576	-0.248430
Cl132	Cl	1.669790	-0.227576	0.251570
H133	H	0.978178	-1.067705	-0.439946
H134	H	1.478178	-0.567705	0.060054
Cl135	Cl	0.477117	-0.423873	-0.460622
Cl136	Cl	0.977117	0.076127	0.039378
Cl137	Cl	1.169862	-0.923792	-0.248467
Cl138	Cl	1.669862	-0.423792	0.251533
H139	H	0.978215	-0.247394	-0.785239
H140	H	1.478215	0.252606	-0.285239
Cl141	Cl	0.957266	-0.923820	-0.460749
Cl142	Cl	1.457266	-0.423820	0.039251
H143	H	0.977993	-0.583702	-0.439854
H144	H	1.477993	-0.083702	0.060146
Cl145	Cl	1.169764	-0.423617	-0.941645
Cl146	Cl	1.669764	0.076383	-0.441645
