data_functionalizedCrystal
_audit_creation_method	'MofGen! by Chris Wilmer'
_symmetry_space_group_name_H-M	'P1'
_symmetry_Int_Tables_number	1
_symmetry_cell_setting	triclinic
loop_
_symmetry_equiv_pos_as_xyz
  x,y,z
_cell_length_a	10.654550
_cell_length_b	17.699083
_cell_length_c	9.730223
_cell_angle_alpha	89.994713
_cell_angle_beta	89.999957
_cell_angle_gamma	83.883973
loop_
_atom_site_label
_atom_site_type_symbol
_atom_site_fract_x
_atom_site_fract_y
_atom_site_fract_z
O1	O	1.665978	0.106302	-0.114190
O2	O	1.300323	0.116430	-0.114216
O3	O	1.493481	0.001243	-0.114190
O4	O	1.472820	0.221490	-0.114216
O5	O	1.493469	0.001240	0.114390
O6	O	1.300310	0.116427	0.114364
O7	O	1.665966	0.106299	0.114390
Zn8	Zn	1.483136	0.111363	0.150669
Zn9	Zn	1.483152	0.111367	-0.150495
O10	O	1.472807	0.221487	0.114364
C11	C	1.253531	0.115685	0.000071
C12	C	1.114127	0.113460	0.000061
C13	C	1.033454	0.181281	0.000058
C14	C	0.902470	0.179186	0.000082
C15	C	0.932844	0.041444	0.000108
C16	C	1.063826	0.043539	0.000094
C17	C	1.492735	-0.026960	0.000100
C18	C	1.490514	-0.110993	0.000100
C19	C	1.603894	-0.158893	0.000110
C20	C	1.601799	-0.237849	0.000098
C21	C	1.486323	-0.268904	0.000085
C22	C	1.372935	-0.220998	0.000071
C23	C	1.375030	-0.142043	0.000074
C24	C	1.364481	-0.539415	0.000060
C25	C	1.362394	-0.618376	0.000061
C26	C	1.591249	-0.635221	0.000083
C27	C	1.593345	-0.556266	0.000086
C28	C	1.479957	-0.508367	0.000065
C29	C	1.482229	-0.422753	0.000075
C30	C	1.484050	-0.354516	0.000085
C31	C	1.712757	0.107045	0.000100
C32	C	1.852161	0.109269	0.000100
C33	C	1.473554	0.249690	0.000071
C34	C	1.475775	0.333722	0.000061
N35	N	1.483134	0.111359	0.356205
N36	N	1.483164	0.111364	-0.356032
C37	C	1.568694	0.060376	0.428142
C38	C	1.568706	0.060376	0.572025
C39	C	1.397596	0.162350	0.572021
C40	C	1.397578	0.162345	0.428141
H41	H	0.891873	-0.015484	0.000143
H42	H	1.638357	0.018859	0.369576
C43	C	1.725035	-0.289729	0.000189
C44	C	1.826611	-0.245633	0.000249
C45	C	1.940159	-0.293398	0.000352
H46	H	1.729169	-0.320891	-0.079500
H47	H	1.729031	-0.320873	0.079932
H48	H	1.822617	-0.214503	-0.079485
H49	H	1.822519	-0.214472	0.079933
H50	H	1.944156	-0.324542	0.080095
H51	H	1.944280	-0.324558	-0.079339
H52	H	2.009092	-0.263486	0.000406
H53	H	1.129514	-0.011692	0.000101
C54	C	1.718758	-0.522593	-0.000187
C55	C	1.787274	-0.546860	-0.117802
C56	C	1.902804	-0.515850	-0.118116
H57	H	1.765583	-0.538977	0.079432
H58	H	1.703821	-0.468707	-0.000261
H59	H	1.802214	-0.600735	-0.117716
H60	H	1.740487	-0.530478	-0.197440
H61	H	1.887867	-0.461963	-0.118190
H62	H	1.949618	-0.532235	-0.038492
H63	H	1.949301	-0.532304	-0.197921
C64	C	1.087894	0.257247	-0.000178
C65	C	1.046829	0.298295	-0.117760
C66	C	1.096934	0.368284	-0.118010
H67	H	1.177452	0.248893	-0.000259
H68	H	1.060158	0.285239	0.079492
H69	H	1.074573	0.270309	-0.197409
H70	H	0.957278	0.306669	-0.117704
H71	H	1.069198	0.396277	-0.038341
H72	H	1.186490	0.359924	-0.118088
H73	H	1.069070	0.396148	-0.197781
C74	C	1.714401	-0.687191	0.000371
C75	C	1.783922	-0.673089	0.117997
C76	C	1.897364	-0.720954	0.118322
H77	H	1.761918	-0.677749	-0.079240
H78	H	1.696675	-0.738674	0.000436
H79	H	1.801652	-0.621619	0.117920
H80	H	1.736443	-0.682536	0.197627
H81	H	1.879637	-0.772436	0.118387
H82	H	1.944869	-0.711507	0.038706
H83	H	1.944542	-0.711397	0.198136
C84	C	1.251795	-0.090160	0.000132
C85	C	1.150216	-0.134254	0.000157
C86	C	1.036670	-0.086487	0.000220
H87	H	1.247685	-0.058991	-0.079559
H88	H	1.247778	-0.059023	0.079873
H89	H	1.154231	-0.165378	-0.079576
H90	H	1.154284	-0.165422	0.079842
H91	H	1.032653	-0.055350	0.079961
H92	H	1.032573	-0.055320	-0.079472
H93	H	0.967735	-0.116397	0.000249
C94	C	1.241278	-0.487510	-0.000159
C95	C	1.171721	-0.501646	-0.117741
C96	C	1.058206	-0.453850	-0.117977
H97	H	1.258870	-0.436012	-0.000230
H98	H	1.193851	-0.497008	0.079510
H99	H	1.219138	-0.492142	-0.197390
H100	H	1.154095	-0.553134	-0.117696
H101	H	1.010779	-0.463348	-0.038307
H102	H	1.075811	-0.402356	-0.118043
H103	H	1.010993	-0.463440	-0.197747
C104	C	1.247650	-0.254817	-0.000157
C105	C	1.239784	-0.299665	-0.117737
C106	C	1.124396	-0.330837	-0.117980
H107	H	1.180315	-0.215059	-0.000235
H108	H	1.242061	-0.285313	0.079514
H109	H	1.245361	-0.269170	-0.197387
H110	H	1.307092	-0.339434	-0.117683
H111	H	1.118806	-0.361333	-0.038309
H112	H	1.057069	-0.291075	-0.118054
H113	H	1.119048	-0.361275	-0.197749
C114	C	1.304573	0.217739	0.649878
C115	C	1.229613	0.262371	0.556077
C116	C	1.143894	0.313398	0.627744
H117	H	1.349499	0.249574	0.705996
H118	H	1.252326	0.190236	0.705991
H119	H	1.281853	0.289872	0.499988
H120	H	1.184659	0.230557	0.499956
H121	H	1.091648	0.285895	0.683857
H122	H	1.188831	0.345227	0.683860
H123	H	1.093016	0.343682	0.564112
C124	C	1.661744	0.004991	0.649880
C125	C	1.736681	-0.039646	0.556080
C126	C	1.822415	-0.090671	0.627749
H127	H	1.616829	-0.026842	0.706026
H128	H	1.714004	0.032494	0.705965
H129	H	1.684428	-0.067147	0.500019
H130	H	1.781624	-0.007834	0.499932
H131	H	1.874675	-0.063167	0.683834
H132	H	1.777489	-0.122498	0.683892
H133	H	1.873277	-0.120958	0.564117
C134	C	1.304883	0.217744	0.349853
C135	C	1.371620	0.264434	0.267201
C136	C	1.286274	0.315465	0.195050
H137	H	1.253903	0.248187	0.413144
H138	H	1.252708	0.190242	0.293662
H139	H	1.423773	0.291933	0.323387
H140	H	1.422595	0.234012	0.203885
H141	H	1.234099	0.287963	0.138859
H142	H	1.235299	0.345902	0.258350
H143	H	1.331543	0.347145	0.138953
H144	H	0.836791	0.234412	0.000081
H145	H	1.268354	-0.643657	0.000054
H146	H	1.697927	-0.133614	0.000128
