data_functionalizedCrystal
_audit_creation_method	'MofGen! by Chris Wilmer'
_symmetry_space_group_name_H-M	'P1'
_symmetry_Int_Tables_number	1
_symmetry_cell_setting	triclinic
loop_
_symmetry_equiv_pos_as_xyz
  x,y,z
_cell_length_a	8.497374
_cell_length_b	8.497374
_cell_length_c	19.121102
_cell_angle_alpha	92.441575
_cell_angle_beta	92.443878
_cell_angle_gamma	90.005237
loop_
_atom_site_label
_atom_site_type_symbol
_atom_site_fract_x
_atom_site_fract_y
_atom_site_fract_z
Zn1	Zn	0.731412	0.994973	1.073738
Zn2	Zn	0.995157	0.731238	1.073733
Zn3	Zn	0.720113	0.719952	0.956320
Zn4	Zn	0.983870	0.983720	0.956303
O5	O	0.857638	0.857471	1.015023
O6	O	0.775851	0.969421	1.172022
O7	O	0.958667	0.508979	1.058162
O8	O	0.500850	0.756420	0.971905
O9	O	0.969623	0.775657	1.172018
O10	O	0.509152	0.958477	1.058172
O11	O	0.756593	0.500687	0.971899
O12	O	0.745648	0.745508	0.858032
O13	O	0.950386	1.205974	0.971876
O14	O	0.939429	0.939297	0.858020
O15	O	0.764906	1.214242	1.058155
O16	O	1.214421	0.764745	1.058146
O17	O	1.206129	0.950241	0.971871
C18	C	0.840089	0.839957	0.832542
C19	C	0.832619	0.832503	0.754476
C20	C	1.267517	0.857493	1.015014
C21	C	1.446163	0.857469	1.015033
C22	C	0.857640	1.268951	1.015018
C23	C	0.857657	1.447595	1.015020
C24	C	0.930154	0.929738	0.717812
C25	C	0.923115	0.922740	0.644460
C26	C	0.818548	0.818499	0.607774
C27	C	0.721003	0.721261	0.644443
C28	C	0.728035	0.728267	0.717793
C29	C	0.792252	0.792313	0.386303
C30	C	0.785230	0.785311	0.312947
C31	C	0.987341	0.986794	0.312970
C32	C	0.994371	0.993784	0.386322
C33	C	0.896820	0.896551	0.422984
C34	C	0.811354	0.811341	0.532797
C35	C	0.904007	0.903718	0.497960
C36	C	0.875257	0.875053	1.198217
C37	C	0.882765	0.882546	1.276284
H38	H	1.015309	1.014617	0.747677
H39	H	1.002539	1.001918	0.614612
H40	H	1.079524	1.078665	0.416187
C41	C	0.781184	0.591316	0.450275
C42	C	0.696412	0.696771	0.492463
H43	H	0.710216	0.520590	0.425376
H44	H	0.838262	0.648239	0.417953
H45	H	0.852549	0.533583	0.478890
H46	H	0.625055	0.754512	0.463847
H47	H	0.639307	0.639842	0.524789
C48	C	1.066296	1.065532	0.200540
C49	C	1.094549	1.093683	0.272669
H50	H	1.132476	1.131537	0.175661
H51	H	1.088074	0.958368	0.188514
H52	H	0.959178	1.087628	0.188526
H53	H	1.201664	1.071576	0.284683
H54	H	1.072782	1.200872	0.284699
H55	H	0.635856	0.636392	0.614567
C56	C	0.527578	0.528383	0.710408
C57	C	0.620837	0.621369	0.758097
H58	H	0.461403	0.462382	0.735290
H59	H	0.464596	0.594471	0.681805
H60	H	0.593494	0.465213	0.681793
H61	H	0.554921	0.684548	0.786708
H62	H	0.683824	0.555273	0.786711
H63	H	0.700061	0.700435	0.283079
C64	C	0.934167	1.123756	0.580467
C65	C	1.018946	1.018296	0.538285
H66	H	1.005132	1.194480	0.605370
H67	H	0.862813	1.181478	0.551854
H68	H	0.877080	1.066828	0.612794
H69	H	1.076024	1.075224	0.505955
H70	H	1.090327	0.960569	0.566901
H71	H	0.712831	0.713127	0.416144
