data_functionalizedCrystal
_audit_creation_method	'MofGen! by Chris Wilmer'
_symmetry_space_group_name_H-M	'P1'
_symmetry_Int_Tables_number	1
_symmetry_cell_setting	triclinic
loop_
_symmetry_equiv_pos_as_xyz
  x,y,z
_cell_length_a	15.995292
_cell_length_b	15.995292
_cell_length_c	15.186229
_cell_angle_alpha	90.002910
_cell_angle_beta	89.993216
_cell_angle_gamma	83.468616
loop_
_atom_site_label
_atom_site_type_symbol
_atom_site_fract_x
_atom_site_fract_y
_atom_site_fract_z
O1	O	1.110995	0.107692	-0.073246
O2	O	1.610995	0.607692	0.426754
O3	O	0.867211	0.121071	-0.073242
O4	O	1.367211	0.621071	0.426758
O5	O	0.995792	-0.007511	-0.073245
O6	O	1.495792	0.492489	0.426755
O7	O	0.982414	0.236274	-0.073243
O8	O	1.482414	0.736274	0.426757
O9	O	0.995777	-0.007504	0.073212
O10	O	1.495777	0.492496	0.573212
O11	O	0.867196	0.121078	0.073215
O12	O	1.367196	0.621078	0.573215
O13	O	1.110980	0.107699	0.073211
O14	O	1.610980	0.607699	0.573211
Zn15	Zn	0.989086	0.114390	0.096467
Zn16	Zn	1.489086	0.614390	0.596467
Zn17	Zn	0.989105	0.114380	-0.096497
Zn18	Zn	1.489105	0.614380	0.403503
O19	O	0.982399	0.236281	0.073215
O20	O	1.482399	0.736281	0.573215
C21	C	0.836008	0.120530	-0.000013
C22	C	1.336008	0.620530	0.499987
C23	C	0.743055	0.118898	-0.000011
C24	C	1.243055	0.618898	0.499989
C25	C	0.405318	0.112896	-0.000021
C26	C	0.905318	0.612896	0.499979
C27	C	0.428611	0.205703	-0.000347
C28	C	0.928611	0.705703	0.499653
C29	C	0.525286	0.207467	-0.000013
C30	C	1.025286	0.707467	0.499987
C31	C	0.572873	0.115874	-0.000017
C32	C	1.072873	0.615874	0.499983
C33	C	0.543772	0.069479	0.083614
C34	C	1.043772	0.569479	0.583614
C35	C	0.446982	0.068362	0.083680
C36	C	0.946982	0.568362	0.583680
C37	C	0.447144	0.066458	-0.082869
C38	C	0.947144	0.566458	0.417131
C39	C	0.543636	0.069898	-0.083971
C40	C	1.043636	0.569898	0.416029
C41	C	0.667569	0.117552	-0.000011
C42	C	1.167569	0.617552	0.499989
C43	C	0.310622	0.111215	-0.000021
C44	C	0.810622	0.611215	0.499979
C45	C	0.995240	-0.038703	-0.000019
C46	C	1.495240	0.461297	0.499981
C47	C	0.993608	-0.131655	-0.000026
C48	C	1.493608	0.368345	0.499974
C49	C	0.987607	-0.469393	-0.000017
C50	C	1.487607	0.030607	0.499983
C51	C	1.080413	-0.446100	0.000308
C52	C	1.580413	0.053900	0.500308
C53	C	1.082177	-0.349424	-0.000025
C54	C	1.582177	0.150576	0.499975
C55	C	0.990584	-0.301837	-0.000021
C56	C	1.490584	0.198163	0.499979
C57	C	0.944194	-0.330933	-0.083652
C58	C	1.444194	0.169067	0.416348
C59	C	0.943077	-0.427723	-0.083719
C60	C	1.443077	0.072277	0.416281
C61	C	0.941164	-0.427571	0.082831
C62	C	1.441164	0.072429	0.582831
C63	C	0.944604	-0.331080	0.083933
C64	C	1.444604	0.168920	0.583933
C65	C	0.992263	-0.207141	-0.000026
C66	C	1.492263	0.292859	0.499974
C67	C	0.985926	-0.564088	-0.000018
C68	C	1.485926	-0.064088	0.499982
C69	C	1.142183	0.108240	-0.000020
C70	C	1.642183	0.608240	0.499980
C71	C	1.235136	0.109873	-0.000027
C72	C	1.735136	0.609873	0.499973
C73	C	0.982951	0.267473	-0.000014
C74	C	1.482951	0.767473	0.499986
C75	C	0.984583	0.360426	-0.000013
C76	C	1.484583	0.860426	0.499987
N77	N	0.989078	0.114396	0.228159
N78	N	1.489078	0.614396	0.728159
N79	N	0.989120	0.114368	-0.228190
N80	N	1.489120	0.614368	0.271810
C81	C	1.039864	0.165186	0.453882
C82	C	1.539864	0.665186	0.953882
C83	C	1.039873	0.165180	0.546071
C84	C	1.539873	0.665180	1.046071
C85	C	0.938331	0.063571	0.546081
C86	C	1.438331	0.563571	1.046081
C87	C	0.938327	0.063573	0.453893
C88	C	1.438327	0.563573	0.953893
C89	C	0.989092	0.114386	0.407796
C90	C	1.489092	0.614386	0.907796
C91	C	0.989105	0.114378	0.592173
C92	C	1.489105	0.614378	1.092173
C93	C	0.989115	0.114371	0.692130
C94	C	1.489115	0.614371	1.192130
C95	C	0.989084	0.114392	0.307833
C96	C	1.489084	0.614392	0.807833
H97	H	0.432446	0.000316	0.087477
H98	H	0.932446	0.500316	0.587477
N99	N	0.883580	0.008774	0.595808
N100	N	1.383580	0.508774	1.095808
H101	H	0.842592	0.045216	0.634064
H102	H	1.342592	0.545216	1.134064
H103	H	0.851472	-0.023403	0.552568
H104	H	1.351472	0.476597	1.052568
N105	N	0.883560	0.008777	0.404186
N106	N	1.383560	0.508777	0.904186
H107	H	0.842570	0.045218	0.365944
H108	H	1.342570	0.545218	0.865944
H109	H	0.920084	-0.032186	0.365981
H110	H	1.420084	0.467814	0.865981
H111	H	0.420152	0.100499	0.146198
H112	H	0.920152	0.600499	0.646198
H113	H	0.418818	0.095463	-0.146257
H114	H	0.918818	0.595463	0.353743
N115	N	0.550496	0.255588	-0.079424
N116	N	1.050496	0.755588	0.420576
H117	H	0.498763	0.275845	-0.114961
H118	H	0.998763	0.775845	0.385039
H119	H	0.578938	0.305515	-0.059383
H120	H	1.078938	0.805515	0.440617
N121	N	0.586009	-0.019796	0.087741
N122	N	1.086009	0.480204	0.587741
H123	H	0.619981	-0.027980	0.143761
H124	H	1.119981	0.472020	0.643761
H125	H	0.541794	-0.060114	0.086878
H126	H	1.041794	0.439886	0.586878
H127	H	0.399579	0.241279	0.059292
H128	H	0.899579	0.741279	0.559292
N129	N	1.094627	0.219969	0.595792
N130	N	1.594627	0.719969	1.095792
H131	H	1.135617	0.183519	0.634027
H132	H	1.635617	0.683519	1.134027
H133	H	1.126734	0.252153	0.552554
H134	H	1.626734	0.752153	1.052554
N135	N	0.391528	0.253092	-0.079788
N136	N	0.891528	0.753092	0.420212
H137	H	0.359265	0.214865	-0.116339
H138	H	0.859265	0.714865	0.383661
H139	H	0.352257	0.303420	-0.059761
H140	H	0.852257	0.803420	0.440239
H141	H	0.543676	0.244027	0.060039
H142	H	1.043676	0.744027	0.560039
N143	N	0.986878	-0.304388	-0.166104
N144	N	1.486878	0.195612	0.333896
H145	H	0.985386	-0.241099	-0.167060
H146	H	1.485386	0.258901	0.332940
H147	H	1.047261	-0.330937	-0.166884
H148	H	1.547261	0.169063	0.333116
H149	H	1.118510	-0.330404	0.059923
H150	H	1.618510	0.169596	0.559923
N151	N	0.852946	-0.446982	-0.088758
N152	N	1.352946	0.053018	0.411242
H153	H	0.844947	-0.480931	-0.143578
H154	H	1.344947	0.019069	0.356422
H155	H	0.839449	-0.480271	-0.035110
H156	H	1.339449	0.019729	0.464890
H157	H	0.562205	0.103678	-0.145840
H158	H	1.062205	0.603678	0.354160
N159	N	0.570321	0.112157	0.166063
N160	N	1.070321	0.612157	0.666063
H161	H	0.601191	0.161534	0.149433
H162	H	1.101191	0.661534	0.649433
H163	H	0.518851	0.132663	0.201901
H164	H	1.018851	0.632663	0.701901
N165	N	0.587322	-0.018660	-0.090673
N166	N	1.087322	0.481340	0.409327
H167	H	0.626858	-0.030284	-0.039150
H168	H	1.126858	0.469716	0.460850
H169	H	0.543955	-0.059879	-0.089959
H170	H	1.043955	0.440121	0.410041
H171	H	0.433165	-0.001854	-0.083437
H172	H	0.933165	0.498146	0.416563
H173	H	1.116179	-0.474101	0.060283
H174	H	1.616179	0.025899	0.560283
H175	H	1.115993	-0.475128	-0.059332
H176	H	1.615993	0.024872	0.440668
H177	H	1.118736	-0.331030	-0.060081
H178	H	1.618736	0.168970	0.439919
H179	H	0.975217	-0.454549	-0.146237
H180	H	1.475217	0.045451	0.353763
H181	H	0.876794	-0.299051	-0.086758
H182	H	1.376794	0.200949	0.413242
N183	N	0.979658	-0.465003	0.166800
N184	N	1.479658	0.034997	0.666800
H185	H	1.027597	-0.509456	0.151983
H186	H	1.527597	-0.009456	0.651983
H187	H	1.001538	-0.419251	0.203089
H188	H	1.501538	0.080749	0.703089
H189	H	0.877749	-0.298096	0.088987
H190	H	1.377749	0.201904	0.588987
N191	N	0.989337	-0.306491	0.165891
N192	N	1.489337	0.193509	0.665891
H193	H	1.039180	-0.276532	0.148720
H194	H	1.539180	0.223468	0.648720
H195	H	0.949275	-0.267845	0.202996
H196	H	1.449275	0.232155	0.702996
N197	N	0.850677	-0.446081	0.083598
N198	N	1.350677	0.053919	0.583598
H199	H	0.821492	-0.422655	0.028448
H200	H	1.321492	0.077345	0.528448
H201	H	0.848827	-0.508946	0.085919
H202	H	1.348827	-0.008946	0.585919
H203	H	1.081200	0.206561	0.416352
H204	H	1.581200	0.706561	0.916352
