data_functionalizedCrystal
_audit_creation_method	'MofGen! by Chris Wilmer'
_symmetry_space_group_name_H-M	'P1'
_symmetry_Int_Tables_number	1
_symmetry_cell_setting	triclinic
loop_
_symmetry_equiv_pos_as_xyz
  x,y,z
_cell_length_a	19.121112
_cell_length_b	21.295417
_cell_length_c	19.120904
_cell_angle_alpha	92.409419
_cell_angle_beta	90.088845
_cell_angle_gamma	87.583854
loop_
_atom_site_label
_atom_site_type_symbol
_atom_site_fract_x
_atom_site_fract_y
_atom_site_fract_z
Zn1	Zn	1.054818	-0.307921	-0.442026
Zn2	Zn	1.554818	0.192079	0.057974
Zn3	Zn	1.059729	-0.408895	-0.324781
Zn4	Zn	1.559729	0.091105	0.175219
Zn5	Zn	0.942588	-0.298967	-0.319812
Zn6	Zn	1.442588	0.201033	0.180188
Zn7	Zn	0.937541	-0.408472	-0.436985
Zn8	Zn	1.437541	0.091528	0.063015
O9	O	0.998669	-0.356064	-0.380901
O10	O	1.498669	0.143936	0.119099
O11	O	1.153575	-0.325239	-0.430662
O12	O	1.653575	0.174761	0.069338
O13	O	1.048358	-0.390743	-0.226017
O14	O	1.548358	0.109257	0.273983
O15	O	0.957533	-0.212069	-0.336053
O16	O	1.457533	0.287931	0.163947
O17	O	1.157183	-0.399425	-0.344523
O18	O	1.657183	0.100575	0.155477
O19	O	1.039988	-0.218647	-0.425844
O20	O	1.539988	0.281353	0.074156
O21	O	0.962295	-0.309980	-0.222366
O22	O	1.462295	0.190020	0.277634
O23	O	0.843813	-0.309569	-0.331165
O24	O	1.343813	0.190431	0.168835
O25	O	0.948930	-0.398704	-0.535758
O26	O	1.448930	0.101296	-0.035758
O27	O	0.840105	-0.390022	-0.417252
O28	O	1.340105	0.109978	0.082748
O29	O	1.035094	-0.324829	-0.539462
O30	O	1.535094	0.175171	-0.039462
O31	O	1.043463	-0.496925	-0.339635
O32	O	1.543463	0.003075	0.160365
O33	O	0.953692	-0.496614	-0.422071
O34	O	1.453692	0.003386	0.077929
C35	C	0.816522	-0.348779	-0.373123
C36	C	1.316522	0.151221	0.126877
C37	C	0.738598	-0.345678	-0.369812
C38	C	1.238598	0.154322	0.130188
C39	C	0.297970	-0.326006	-0.348843
C40	C	0.797970	0.173994	0.151157
C41	C	0.371188	-0.328923	-0.351958
C42	C	0.871188	0.171077	0.148042
C43	C	0.405885	-0.372333	-0.398263
C44	C	0.905885	0.127667	0.101737
C45	C	0.367361	-0.412823	-0.441461
C46	C	0.867361	0.087177	0.058539
C47	C	0.294144	-0.409903	-0.438350
C48	C	0.794144	0.090097	0.061650
C49	C	0.626856	-0.383247	-0.409899
C50	C	1.126856	0.116753	0.090101
C51	C	0.700078	-0.386166	-0.413006
C52	C	1.200078	0.113834	0.086994
C53	C	0.703901	-0.302265	-0.323503
C54	C	1.203901	0.197735	0.176497
C55	C	0.630683	-0.299351	-0.320393
C56	C	1.130683	0.200649	0.179607
C57	C	0.592164	-0.339839	-0.363594
C58	C	1.092164	0.160161	0.136406
C59	C	0.480726	-0.375317	-0.401446
C60	C	0.980726	0.124683	0.098554
C61	C	0.517325	-0.336851	-0.360414
C62	C	1.017325	0.163149	0.139586
C63	C	0.998581	-0.519611	-0.380861
C64	C	1.498581	-0.019611	0.119139
C65	C	0.998607	-0.589580	-0.380871
C66	C	1.498607	-0.089580	0.119129
C67	C	1.041514	-0.625815	-0.427656
C68	C	1.541514	-0.125815	0.072344
C69	C	1.041538	-0.691559	-0.427674
C70	C	1.541538	-0.191559	0.072326
C71	C	0.998663	-0.721066	-0.380895
C72	C	1.498663	-0.221066	0.119105
C73	C	0.955747	-0.684822	-0.334107
C74	C	1.455747	-0.184822	0.165893
C75	C	0.955719	-0.619080	-0.334095
C76	C	1.455719	-0.119080	0.165905
N77	N	0.995988	-0.821870	-0.319316
N78	N	1.495988	-0.321870	0.180684
N79	N	0.996018	-0.884323	-0.319330
N80	N	1.496018	-0.384323	0.180670
C81	C	0.998743	-0.919145	-0.380930
C82	C	1.498743	-0.419145	0.119070
N83	N	1.001450	-0.889154	-0.442519
N84	N	1.501450	-0.389154	0.057481
N85	N	1.001423	-0.826696	-0.442504
N86	N	1.501423	-0.326696	0.057496
C87	C	0.998688	-0.792352	-0.380904
C88	C	1.498688	-0.292352	0.119096
C89	C	1.041679	-1.026667	-0.427739
C90	C	1.541679	-0.526667	0.072261
C91	C	1.041698	-1.092412	-0.427758
C92	C	1.541698	-0.592412	0.072242
C93	C	0.955910	-1.085674	-0.334185
C94	C	1.455910	-0.585674	0.165815
C95	C	0.955887	-1.019930	-0.334172
C96	C	1.455887	-0.519930	0.165828
C97	C	0.998775	-0.990431	-0.380948
C98	C	1.498775	-0.490431	0.119052
C99	C	1.181527	-0.363378	-0.388709
C100	C	1.681527	0.136622	0.111291
C101	C	1.259451	-0.366495	-0.392037
C102	C	1.759451	0.133505	0.107963
C103	C	0.990901	-0.362718	-0.563759
C104	C	1.490901	0.137282	-0.063759
C105	C	0.987591	-0.365553	-0.641682
C106	C	1.487591	0.134447	-0.141682
C107	C	0.998776	-0.191880	-0.380956
C108	C	1.498776	0.308120	0.119044
C109	C	0.998821	-0.121914	-0.380980
C110	C	1.498821	0.378086	0.119020
C111	C	1.030894	-0.328425	-0.680219
C112	C	1.530894	0.171575	-0.180219
C113	C	1.027775	-0.331086	-0.753436
C114	C	1.527775	0.168914	-0.253436
C115	C	0.981356	-0.370880	-0.788114
C116	C	1.481356	0.129120	-0.288114
C117	C	0.938048	-0.408010	-0.749571
C118	C	1.438048	0.091990	-0.249571
C119	C	0.941164	-0.405345	-0.676355
C120	C	1.441164	0.094655	-0.176355
C121	C	0.969701	-0.380849	-1.009081
C122	C	1.469701	0.119151	-0.509081
C123	C	0.966590	-0.383513	-1.082301
C124	C	1.466590	0.116487	-0.582301
C125	C	1.056316	-0.306588	-1.086162
C126	C	1.556316	0.193412	-0.586162
C127	C	1.059431	-0.303929	-1.012945
C128	C	1.559431	0.196071	-0.512945
C129	C	1.016120	-0.341056	-0.974408
C130	C	1.516120	0.158944	-0.474408
C131	C	0.978169	-0.373603	-0.862953
C132	C	1.478169	0.126397	-0.362953
C133	C	1.019305	-0.338330	-0.899570
C134	C	1.519305	0.161670	-0.399570
C135	C	1.006447	-0.349392	-0.198756
C136	C	1.506447	0.150608	0.301244
C137	C	1.009893	-0.346384	-0.120839
C138	C	1.509893	0.153616	0.379161
H139	H	0.735270	-0.269301	-0.288332
H140	H	1.235270	0.230699	0.211668
H141	H	1.091576	-0.276360	-1.117546
H142	H	1.591576	0.223640	-0.617546
Br143	Br	0.241866	-0.464849	-0.496977
Br144	Br	0.741866	0.035151	0.003023
H145	H	0.508984	-0.410663	-0.439146
H146	H	1.008984	0.089337	0.060854
Br147	Br	1.099923	-1.141590	-0.491268
Br148	Br	1.599923	-0.641590	0.008732
Br149	Br	0.910921	-0.431235	-0.956790
Br150	Br	1.410921	0.068765	-0.456790
Br151	Br	0.875046	-0.462013	-0.796633
Br152	Br	1.375046	0.037987	-0.296633
Br153	Br	0.897551	-0.724865	-0.270628
Br154	Br	1.397551	-0.224865	0.229372
Br155	Br	0.897717	-1.125712	-0.270703
Br156	Br	1.397717	-0.625712	0.229297
Br157	Br	1.099880	-0.986628	-0.491220
Br158	Br	1.599880	-0.486628	0.008780
Br159	Br	0.470235	-0.277936	-0.297577
Br160	Br	0.970235	0.222064	0.202423
H161	H	1.076434	-0.601798	-0.465745
H162	H	1.576434	-0.101798	0.034255
H163	H	0.920778	-0.589576	-0.295996
H164	H	1.420778	-0.089576	0.204004
Br165	Br	1.122433	-0.249923	-0.965887
Br166	Br	1.622433	0.250077	-0.465887
H167	H	1.076472	-0.721067	-0.465779
H168	H	1.576472	-0.221067	0.034221
Br169	Br	0.574591	-0.438198	-0.468527
Br170	Br	1.074591	0.061802	0.031473
Br171	Br	0.897651	-0.970751	-0.270677
Br172	Br	1.397651	-0.470751	0.229323
H173	H	0.928788	-0.415919	-1.110534
H174	H	1.428788	0.084081	-0.610534
H175	H	0.905895	-0.435572	-0.644978
H176	H	1.405895	0.064428	-0.144978
H177	H	1.068696	-0.296022	-0.651990
H178	H	1.568696	0.203978	-0.151990
H179	H	1.063039	-0.300854	-0.784810
H180	H	1.563039	0.199146	-0.284810
Br181	Br	1.082291	-0.284317	-0.852506
Br182	Br	1.582291	0.215683	-0.352506
H183	H	0.402548	-0.295956	-0.316781
H184	H	0.902548	0.204044	0.183219
H185	H	0.728326	-0.421516	-0.450717
H186	H	1.228326	0.078484	0.049283
H187	H	0.269725	-0.290658	-0.311136
H188	H	0.769725	0.209342	0.188864
H189	H	0.940377	-0.406007	-0.891196
H190	H	1.440377	0.093993	-0.391196
Br191	Br	0.583598	-0.240433	-0.257551
Br192	Br	1.083598	0.259567	0.242449
H193	H	0.395617	-0.448166	-0.479167
H194	H	0.895617	0.051834	0.020833
