data_functionalizedCrystal
_audit_creation_method	'MofGen! by Chris Wilmer'
_symmetry_space_group_name_H-M	'P1'
_symmetry_Int_Tables_number	1
_symmetry_cell_setting	triclinic
loop_
_symmetry_equiv_pos_as_xyz
  x,y,z
_cell_length_a	22.010155
_cell_length_b	23.532407
_cell_length_c	23.532407
_cell_angle_alpha	97.151284
_cell_angle_beta	89.999994
_cell_angle_gamma	90.005103
loop_
_atom_site_label
_atom_site_type_symbol
_atom_site_fract_x
_atom_site_fract_y
_atom_site_fract_z
O1	O	-0.050484	-0.755264	0.069127
O2	O	0.449516	-0.255264	0.569127
O3	O	-0.050496	-0.589400	0.079130
O4	O	0.449504	-0.089400	0.579130
O5	O	-0.050479	-0.677334	-0.008803
O6	O	0.449521	-0.177334	0.491197
O7	O	-0.050502	-0.667330	0.157060
O8	O	0.449498	-0.167330	0.657060
O9	O	0.050572	-0.677318	-0.008789
O10	O	0.550572	-0.177318	0.491211
O11	O	0.050554	-0.589384	0.079144
O12	O	0.550554	-0.089384	0.579144
O13	O	0.050566	-0.755248	0.069141
O14	O	0.550566	-0.255248	0.569141
Cu15	Cu	0.059787	-0.672314	0.074144
Cu16	Cu	0.559787	-0.172314	0.574144
Cu17	Cu	-0.059717	-0.672333	0.074127
Cu18	Cu	0.440283	-0.172333	0.574127
O19	O	0.050549	-0.667314	0.157074
O20	O	0.550549	-0.167314	0.657074
C21	C	0.000027	-0.568176	0.078882
C22	C	0.500027	-0.068176	0.578882
C23	C	0.000023	-0.504959	0.078116
C24	C	0.500023	-0.004959	0.578116
N25	N	0.143839	-0.672305	0.074155
N26	N	0.643839	-0.172305	0.574155
C27	C	0.000044	-0.238792	0.022921
C28	C	0.500044	0.261208	0.522921
C29	C	0.000045	-0.298192	0.023632
C30	C	0.500045	0.201808	0.523632
O31	O	0.000072	-0.334937	-0.020153
O32	O	0.500072	0.165063	0.479847
N33	N	0.000033	-0.320818	0.075909
N34	N	0.500033	0.179182	0.575909
C35	C	0.000028	-0.284041	0.127477
C36	C	0.500028	0.215959	0.627477
O37	O	0.000019	-0.308740	0.172007
O38	O	0.500019	0.191260	0.672007
C39	C	0.000032	-0.224642	0.126765
C40	C	0.500032	0.275358	0.626765
C41	C	0.000037	-0.202019	0.074485
C42	C	0.500037	0.297981	0.574485
C43	C	0.000050	-0.216168	-0.029354
C44	C	0.500050	0.283832	0.470646
C45	C	0.000048	-0.156772	-0.030066
C46	C	0.500048	0.343228	0.469934
C47	C	0.000041	-0.119999	0.021499
C48	C	0.500041	0.380001	0.521499
C49	C	0.000035	-0.142623	0.073774
C50	C	0.500035	0.357377	0.573774
C51	C	0.000031	-0.187865	0.178333
C52	C	0.500031	0.312135	0.678333
C53	C	0.000035	-0.128463	0.177616
C54	C	0.500035	0.371537	0.677616
C55	C	0.000040	-0.105840	0.125336
C56	C	0.500040	0.394160	0.625336
C57	C	0.000027	-0.046454	0.124627
C58	C	0.500027	0.453546	0.624627
N59	N	0.000038	-0.023828	0.072351
N60	N	0.500038	0.476172	0.572351
C61	C	0.000045	-0.060600	0.020787
C62	C	0.500045	0.439400	0.520787
C63	C	0.000021	-0.408783	0.128968
C64	C	0.500021	0.091217	0.628968
C65	C	0.000013	-0.468181	0.129681
C66	C	0.500013	0.031819	0.629681
C67	C	0.000030	-0.482328	0.025836
C68	C	0.500030	0.017672	0.525836
C69	C	0.000034	-0.422929	0.025124
C70	C	0.500034	0.077071	0.525124
C71	C	0.000032	-0.386157	0.076692
C72	C	0.500032	0.113843	0.576692
C73	C	0.000041	0.064136	0.019297
C74	C	0.500041	0.564136	0.519297
C75	C	0.000037	0.123538	0.018590
C76	C	0.500037	0.623538	0.518590
C77	C	0.000023	0.137680	0.122435
C78	C	0.500023	0.637680	0.622435
C79	C	0.000023	0.078284	0.123142
C80	C	0.500023	0.578284	0.623142
C81	C	0.000035	0.041512	0.071568
C82	C	0.500035	0.541512	0.571568
O83	O	0.000002	-0.009675	0.168390
O84	O	0.500002	0.490325	0.668390
O85	O	0.000062	-0.035892	-0.023737
O86	O	0.500062	0.464108	0.476263
C87	C	0.563627	-0.711272	0.035200
C88	C	1.063627	-0.211272	0.535200
C89	C	0.627234	-0.711274	0.035197
C90	C	1.127234	-0.211274	0.535197
O91	O	0.660132	-0.744383	0.002081
O92	O	1.160132	-0.244383	0.502081
N93	N	0.659047	-0.672332	0.074120
N94	N	1.159047	-0.172332	0.574120
C95	C	0.627248	-0.633381	0.113046
C96	C	1.127248	-0.133381	0.613046
O97	O	0.660147	-0.600258	0.146153
O98	O	1.160147	-0.100258	0.646153
C99	C	0.563641	-0.633377	0.113046
C100	C	1.063641	-0.133377	0.613046
C101	C	0.531832	-0.672325	0.074124
C102	C	1.031832	-0.172325	0.574124
C103	C	0.531818	-0.750217	-0.003719
C104	C	1.031818	-0.250217	0.496281
C105	C	0.468214	-0.750215	-0.003715
C106	C	0.968214	-0.250215	0.496285
C107	C	0.436420	-0.711268	0.035209
C108	C	0.936420	-0.211268	0.535209
C109	C	0.468229	-0.672323	0.074129
C110	C	0.968229	-0.172323	0.574129
C111	C	0.531844	-0.594423	0.151969
C112	C	1.031844	-0.094423	0.651969
C113	C	0.468233	-0.594421	0.151966
C114	C	0.968233	-0.094421	0.651966
C115	C	0.436424	-0.633370	0.113043
C116	C	0.936424	-0.133370	0.613043
C117	C	0.372832	-0.633374	0.113057
C118	C	0.872832	-0.133374	0.613057
N119	N	0.341020	-0.672316	0.074133
N120	N	0.841020	-0.172316	0.574133
C121	C	0.372814	-0.711263	0.035209
C122	C	0.872814	-0.211263	0.535209
C123	C	0.760826	-0.633394	0.113042
C124	C	1.260826	-0.133394	0.613042
C125	C	0.824431	-0.633401	0.113045
C126	C	1.324431	-0.133401	0.613045
C127	C	0.824413	-0.711293	0.035195
C128	C	1.324413	-0.211293	0.535195
C129	C	0.760807	-0.711289	0.035195
C130	C	1.260807	-0.211289	0.535195
C131	C	0.729013	-0.672336	0.074118
C132	C	1.229013	-0.172336	0.574118
C133	C	0.239242	-0.711256	0.035222
C134	C	0.739242	-0.211256	0.535222
C135	C	0.175634	-0.711252	0.035231
C136	C	0.675634	-0.211252	0.535231
C137	C	0.175657	-0.633358	0.113079
C138	C	0.675657	-0.133358	0.613079
C139	C	0.239260	-0.633364	0.113072
C140	C	0.739260	-0.133364	0.613072
C141	C	0.271052	-0.672315	0.074138
C142	C	0.771052	-0.172315	0.574138
O143	O	0.339893	-0.600281	0.146154
O144	O	0.839893	-0.100281	0.646154
O145	O	0.339907	-0.744376	0.002103
O146	O	0.839907	-0.244376	0.502103
N147	N	0.856231	-0.672346	0.074119
N148	N	1.356231	-0.172346	0.574119
C149	C	0.000048	-0.677071	-0.030012
C150	C	0.500048	-0.177071	0.469988
C151	C	0.000053	-0.676305	-0.093229
C152	C	0.500053	-0.176305	0.406771
C153	C	0.000038	0.223528	0.069389
C154	C	0.500038	0.723528	0.569389
C155	C	0.000030	0.160311	0.070155
C156	C	0.500030	0.660311	0.570155
C157	C	0.000023	-0.723538	-0.492332
C158	C	0.500023	-0.223538	0.007668
C159	C	0.000018	-0.722827	-0.551733
C160	C	0.500018	-0.222827	-0.051733
O161	O	-0.000001	-0.766613	-0.588477
O162	O	0.499999	-0.266613	-0.088477
N163	N	0.000015	-0.670551	-0.574359
N164	N	0.500015	-0.170551	-0.074359
C165	C	0.000010	-0.618982	-0.537581
C166	C	0.500010	-0.118982	-0.037581
O167	O	0.000006	-0.574452	-0.562281
O168	O	0.500006	-0.074452	-0.062281
C169	C	0.000010	-0.619695	-0.478182
C170	C	0.500010	-0.119695	0.021818
C171	C	0.000020	-0.671974	-0.455559
C172	C	0.500020	-0.171974	0.044441
C173	C	0.000032	-0.775814	-0.469709
C174	C	0.500032	-0.275814	0.030291
C175	C	0.000038	-0.776525	-0.410313
C176	C	0.500038	-0.276525	0.089687
C177	C	0.000035	-0.724961	-0.373540
C178	C	0.500035	-0.224961	0.126460
C179	C	0.000026	-0.672685	-0.396163
C180	C	0.500026	-0.172685	0.103837
C181	C	0.000001	-0.568127	-0.441406
C182	C	0.500001	-0.068127	0.058594
C183	C	0.000001	-0.568843	-0.382003
C184	C	0.500001	-0.068843	0.117997
C185	C	0.000010	-0.621123	-0.359381
C186	C	0.500010	-0.121123	0.140619
C187	C	0.000028	-0.621832	-0.299994
C188	C	0.500028	-0.121832	0.200006
N189	N	0.000032	-0.674109	-0.277368
N190	N	0.500032	-0.174109	0.222632
C191	C	0.000035	-0.725673	-0.314141
C192	C	0.500035	-0.225673	0.185859
C193	C	0.000008	-0.617491	-0.662324
C194	C	0.500008	-0.117491	-0.162324
C195	C	0.000012	-0.616778	-0.721722
C196	C	0.500012	-0.116778	-0.221722
C197	C	0.000019	-0.720623	-0.735869
C198	C	0.500019	-0.220623	-0.235869
C199	C	0.000020	-0.721335	-0.676470
C200	C	0.500020	-0.221335	-0.176470
C201	C	0.000012	-0.669767	-0.639698
C202	C	0.500012	-0.169767	-0.139698
C203	C	0.000048	-0.727163	-0.189404
C204	C	0.500048	-0.227163	0.310596
C205	C	0.000056	-0.727869	-0.130002
C206	C	0.500056	-0.227869	0.369998
C207	C	0.000045	-0.624025	-0.115860
C208	C	0.500045	-0.124025	0.384140
C209	C	0.000040	-0.623318	-0.175257
C210	C	0.500040	-0.123318	0.324743
C211	C	0.000039	-0.674891	-0.212028
C212	C	0.500039	-0.174891	0.287972
O213	O	0.000045	-0.578069	-0.263215
O214	O	0.500045	-0.078069	0.236785
O215	O	0.000031	-0.770196	-0.289433
O216	O	0.500031	-0.270196	0.210567
C217	C	0.000021	-0.667577	0.178283
C218	C	0.500021	-0.167577	0.678283
C219	C	0.000012	-0.668343	0.241500
C220	C	0.500012	-0.168343	0.741500
H221	H	0.000039	0.141954	-0.023984
H222	H	0.500039	0.641954	0.476016
H223	H	0.000065	-0.770443	-0.111586
H224	H	0.500065	-0.270443	0.388414
H225	H	0.734943	-0.601675	0.144743
H226	H	1.234943	-0.101675	0.644743
O227	O	0.000090	-0.567432	-0.626547
O228	O	0.500090	-0.067432	-0.126547
C229	C	0.052459	-0.507937	-0.551303
C230	C	0.552459	-0.007937	-0.051303
C231	C	0.052437	-0.564654	-0.591774
C232	C	0.552437	-0.064654	-0.091774
H233	H	0.094784	-0.505667	-0.523187
H234	H	0.594784	-0.005667	-0.023187
H235	H	0.010199	-0.505666	-0.523100
H236	H	0.510199	-0.005666	-0.023100
H237	H	0.052428	-0.470465	-0.577695
H238	H	0.552428	0.029535	-0.077695
H239	H	0.052490	-0.602158	-0.565428
H240	H	0.552490	-0.102158	-0.065428
H241	H	0.094693	-0.566874	-0.619979
H242	H	0.594693	-0.066874	-0.119979
O243	O	-0.000038	-0.517292	-0.463277
O244	O	0.499962	-0.017292	0.036723
C245	C	-0.000023	-0.414369	-0.442950
C246	C	0.499977	0.085631	0.057050
C247	C	0.000008	-0.471903	-0.418107
C248	C	0.500008	0.028097	0.081893
H249	H	0.000027	-0.377657	-0.406442
H250	H	0.500027	0.122343	0.093558
H251	H	-0.042326	-0.411406	-0.470381
H252	H	0.457674	0.088594	0.029619
H253	H	0.042253	-0.411453	-0.470425
H254	H	0.542253	0.088547	0.029575
H255	H	-0.042240	-0.474857	-0.390606
H256	H	0.457760	0.025143	0.109394
H257	H	0.042338	-0.474841	-0.390708
H258	H	0.542338	0.025159	0.109292
O259	O	-0.000081	-0.490083	0.180503
O260	O	0.499919	0.009917	0.680503
C261	C	-0.052469	-0.496179	0.269454
C262	C	0.447531	0.003821	0.769454
C263	C	-0.052434	-0.471331	0.211923
C264	C	0.447566	0.028669	0.711923
H265	H	-0.094798	-0.481037	0.294869
H266	H	0.405202	0.018963	0.794869
H267	H	-0.010213	-0.480985	0.294964
H268	H	0.489787	0.019015	0.794964
H269	H	-0.052438	-0.544949	0.261102
H270	H	0.447562	-0.044949	0.761102
H271	H	-0.052486	-0.422560	0.220223
H272	H	0.447514	0.077440	0.720223
H273	H	-0.094686	-0.486570	0.186432
H274	H	0.405314	0.013430	0.686432
H275	H	0.850311	-0.743005	0.003500
H276	H	1.350311	-0.243005	0.503500
O277	O	0.562639	-0.556532	0.189799
O278	O	1.062639	-0.056532	0.689799
C279	C	0.555916	-0.479289	0.267030
C280	C	1.055916	0.020711	0.767030
C281	C	0.520967	-0.522164	0.224207
C282	C	1.020967	-0.022164	0.724207
H283	H	0.522239	-0.451500	0.294868
H284	H	1.022239	0.048500	0.794868
H285	H	0.585680	-0.450940	0.242615
H286	H	1.085680	0.049060	0.742615
H287	H	0.585709	-0.503718	0.295337
H288	H	1.085709	-0.003718	0.795337
H289	H	0.491141	-0.497782	0.195889
H290	H	0.991141	0.002218	0.695889
H291	H	0.491241	-0.550513	0.248658
H292	H	0.991241	-0.050513	0.748658
H293	H	0.000050	0.034204	-0.022699
H294	H	0.500050	0.534204	0.477301
H295	H	0.000045	-0.582043	-0.085909
H296	H	0.500045	-0.082043	0.414091
O297	O	0.270184	-0.749118	-0.002519
O298	O	0.770184	-0.249118	0.497481
C299	C	0.341943	-0.827001	-0.015047
C300	C	0.841943	-0.327001	0.484953
C301	C	0.306952	-0.784143	0.027753
C302	C	0.806952	-0.284143	0.527753
H303	H	0.371669	-0.855337	0.009411
H304	H	0.871669	-0.355337	0.509411
H305	H	0.371765	-0.802615	-0.043374
H306	H	0.871765	-0.302615	0.456626
H307	H	0.308260	-0.854805	-0.042869
H308	H	0.808260	-0.354805	0.457131
H309	H	0.340591	-0.756327	0.055613
H310	H	0.840591	-0.256327	0.555613
H311	H	0.277122	-0.808564	0.056041
H312	H	0.777122	-0.308564	0.556041
H313	H	0.149737	-0.742971	0.003536
H314	H	0.649737	-0.242971	0.503536
O315	O	-0.000073	-0.373007	0.179028
O316	O	0.499927	0.126993	0.679028
C317	C	-0.052457	-0.297769	0.238506
C318	C	0.447543	0.202231	0.738506
C319	C	-0.052420	-0.338239	0.181788
C320	C	0.447580	0.161761	0.681788
H321	H	-0.094781	-0.269657	0.240761
H322	H	0.405219	0.230343	0.740761
H323	H	-0.010197	-0.269562	0.240791
H324	H	0.489803	0.230438	0.740791
H325	H	-0.052438	-0.324162	0.275977
H326	H	0.447562	0.175838	0.775977
H327	H	-0.052460	-0.311892	0.144285
H328	H	0.447540	0.188108	0.644285
H329	H	-0.094676	-0.366448	0.179552
H330	H	0.405324	0.133552	0.679552
O331	O	-0.000050	-0.092685	0.227674
O332	O	0.499950	0.407315	0.727674
C333	C	-0.052429	-0.017443	0.287152
C334	C	0.447571	0.482557	0.787152
C335	C	-0.052398	-0.057918	0.230436
C336	C	0.447602	0.442082	0.730436
H337	H	-0.094753	0.010668	0.289409
H338	H	0.405247	0.510668	0.789409
H339	H	-0.010169	0.010764	0.289429
H340	H	0.489831	0.510764	0.789429
H341	H	-0.052403	-0.043832	0.324626
H342	H	0.447597	0.456168	0.824626
H343	H	-0.052445	-0.031574	0.192930
H344	H	0.447555	0.468426	0.692930
H345	H	-0.094654	-0.086127	0.228209
H346	H	0.405346	0.413873	0.728209
H347	H	0.265160	-0.601654	0.144771
H348	H	0.765160	-0.101654	0.644771
O349	O	0.000088	-0.134896	-0.080901
O350	O	0.500088	0.365104	0.419099
C351	C	0.000079	-0.155219	-0.183824
C352	C	0.500079	0.344781	0.316176
C353	C	0.000044	-0.180065	-0.126291
C354	C	0.500044	0.319935	0.373709
H355	H	0.000031	-0.191726	-0.220536
H356	H	0.500031	0.308274	0.279464
H357	H	0.042382	-0.127785	-0.186786
H358	H	0.542382	0.372215	0.313214
H359	H	-0.042197	-0.127747	-0.186737
H360	H	0.457803	0.372253	0.313263
H361	H	0.042292	-0.207563	-0.123338
H362	H	0.542292	0.292437	0.376662
H363	H	-0.042286	-0.207467	-0.123352
H364	H	0.457714	0.292533	0.376648
H365	H	-0.000007	-0.526850	-0.352065
H366	H	0.499993	-0.026850	0.147935
H367	H	0.734911	-0.743003	0.003501
H368	H	1.234911	-0.243003	0.503501
O369	O	-0.000004	-0.772169	-0.654591
O370	O	0.499996	-0.272169	-0.154591
C371	C	0.000038	-0.875093	-0.674909
C372	C	0.500038	-0.375093	-0.174909
C373	C	0.000054	-0.817561	-0.699758
C374	C	0.500054	-0.317561	-0.199758
H375	H	0.000098	-0.911807	-0.711414
H376	H	0.500098	-0.411807	-0.211414
H377	H	-0.042263	-0.878070	-0.647479
H378	H	0.457737	-0.378070	-0.147479
H379	H	0.042316	-0.877989	-0.647432
H380	H	0.542316	-0.377989	-0.147432
H381	H	-0.042196	-0.814627	-0.727261
H382	H	0.457804	-0.314627	-0.227261
H383	H	0.042383	-0.814609	-0.727156
H384	H	0.542383	-0.314609	-0.227156
H385	H	0.000057	-0.246104	-0.071347
H386	H	0.500057	0.253896	0.428653
O387	O	0.000069	-0.401051	-0.025710
O388	O	0.500069	0.098949	0.474290
C389	C	0.000046	-0.421369	-0.128633
C390	C	0.500046	0.078631	0.371367
C391	C	0.000019	-0.446217	-0.071102
C392	C	0.500019	0.053783	0.428898
H393	H	-0.000008	-0.457873	-0.165348
H394	H	0.499992	0.042127	0.334652
H395	H	0.042348	-0.393934	-0.131600
H396	H	0.542348	0.106066	0.368400
H397	H	-0.042231	-0.393895	-0.131540
H398	H	0.457769	0.106105	0.368460
H399	H	0.042266	-0.473717	-0.068157
H400	H	0.542266	0.026283	0.431843
H401	H	-0.042312	-0.473619	-0.068160
H402	H	0.457688	0.026381	0.431840
O403	O	0.000117	-0.825870	-0.505484
O404	O	0.500117	-0.325870	-0.005484
C405	C	0.052498	-0.885351	-0.580722
C406	C	0.552498	-0.385351	-0.080722
C407	C	0.052465	-0.828632	-0.540254
C408	C	0.552465	-0.328632	-0.040254
H409	H	0.094823	-0.887608	-0.608836
H410	H	0.594823	-0.387608	-0.108836
H411	H	0.010238	-0.887637	-0.608927
H412	H	0.510238	-0.387637	-0.108927
H413	H	0.052474	-0.922821	-0.554328
H414	H	0.552474	-0.422821	-0.054328
H415	H	0.052510	-0.791130	-0.566603
H416	H	0.552510	-0.291130	-0.066603
H417	H	0.094720	-0.826396	-0.512048
H418	H	0.594720	-0.326396	-0.012048
O419	O	0.000058	-0.209736	0.229168
O420	O	0.500058	0.290264	0.729168
C421	C	0.000023	-0.189409	0.332091
C422	C	0.500023	0.310591	0.832091
C423	C	0.000004	-0.164566	0.274556
C424	C	0.500004	0.335434	0.774556
H425	H	-0.000033	-0.152902	0.368802
H426	H	0.499967	0.347098	0.868802
H427	H	0.042324	-0.216838	0.335065
H428	H	0.542324	0.283162	0.835065
H429	H	-0.042255	-0.216888	0.334995
H430	H	0.457745	0.283112	0.834995
H431	H	0.042254	-0.137062	0.271613
H432	H	0.542254	0.362938	0.771613
H433	H	-0.042324	-0.137171	0.271607
H434	H	0.457676	0.362829	0.771607
O435	O	0.437414	-0.788067	-0.041584
O436	O	0.937414	-0.288067	0.458416
C437	C	0.444133	-0.865342	-0.118782
C438	C	0.944133	-0.365342	0.381218
C439	C	0.479084	-0.822497	-0.075931
C440	C	0.979084	-0.322497	0.424069
H441	H	0.477808	-0.893199	-0.146555
H442	H	0.977808	-0.393199	0.353445
H443	H	0.414376	-0.840946	-0.147150
H444	H	0.914376	-0.340946	0.352850
H445	H	0.414332	-0.893629	-0.094333
H446	H	0.914332	-0.393629	0.405667
H447	H	0.508918	-0.794199	-0.100334
H448	H	1.008918	-0.294199	0.399666
H449	H	0.508802	-0.846929	-0.047564
H450	H	1.008802	-0.346929	0.452436
H451	H	0.000043	-0.819097	-0.391899
H452	H	0.500043	-0.319097	0.108101
H453	H	0.000044	-0.769159	-0.219337
H454	H	0.500044	-0.269159	0.280663
O455	O	-0.000045	-0.572571	-0.197305
O456	O	0.499955	-0.072571	0.302695
C457	C	-0.052433	-0.511496	-0.256122
C458	C	0.447567	-0.011496	0.243878
C459	C	-0.052398	-0.568992	-0.231205
C460	C	0.447602	-0.068992	0.268795
H461	H	-0.094763	-0.508578	-0.283525
H462	H	0.405237	-0.008578	0.216475
H463	H	-0.010178	-0.508551	-0.283620
H464	H	0.489822	-0.008551	0.216380
H465	H	-0.052402	-0.474773	-0.219625
H466	H	0.447598	0.025227	0.280375
H467	H	-0.052451	-0.605748	-0.267665
H468	H	0.447549	-0.105748	0.232335
H469	H	-0.094649	-0.571887	-0.203691
H470	H	0.405351	-0.071887	0.296309
O471	O	0.562724	-0.787976	-0.041588
O472	O	1.062724	-0.287976	0.458412
C473	C	0.634551	-0.800572	-0.119417
C474	C	1.134551	-0.300572	0.380583
C475	C	0.599584	-0.757739	-0.076573
C476	C	1.099584	-0.257739	0.423427
H477	H	0.664370	-0.776142	-0.147706
H478	H	1.164370	-0.276142	0.352294
H479	H	0.600907	-0.828394	-0.147271
H480	H	1.100907	-0.328394	0.352729
H481	H	0.664295	-0.828896	-0.094961
H482	H	1.164295	-0.328896	0.405039
H483	H	0.569839	-0.729378	-0.100982
H484	H	1.069839	-0.229378	0.399018
H485	H	0.633260	-0.729957	-0.048720
H486	H	1.133260	-0.229957	0.451280
O487	O	-0.000089	0.056274	0.173909
O488	O	0.499911	0.556274	0.673909
C489	C	-0.052408	-0.002622	0.234960
C490	C	0.447592	0.497378	0.734960
C491	C	-0.052375	0.022272	0.177453
C492	C	0.447625	0.522272	0.677453
H493	H	-0.094671	-0.030128	0.237839
H494	H	0.405329	0.469872	0.737839
H495	H	-0.052453	0.033841	0.271717
H496	H	0.447547	0.533841	0.771717
H497	H	-0.010094	-0.030043	0.237880
H498	H	0.489906	0.469957	0.737880
H499	H	-0.094682	0.049686	0.174477
H500	H	0.405318	0.549686	0.674477
H501	H	-0.052299	-0.014218	0.140723
H502	H	0.447701	0.485782	0.640723
H503	H	0.000036	-0.512280	-0.016150
H504	H	0.500036	-0.012280	0.483850
H505	H	0.850325	-0.601691	0.144745
H506	H	1.350325	-0.101691	0.644745
O507	O	0.437283	-0.556661	0.189802
O508	O	0.937283	-0.056661	0.689802
C509	C	0.365510	-0.544085	0.267676
C510	C	0.865510	-0.044085	0.767676
C511	C	0.400510	-0.586908	0.224849
C512	C	0.900510	-0.086908	0.724849
H513	H	0.335780	-0.568523	0.296031
H514	H	0.835780	-0.068523	0.796031
H515	H	0.335692	-0.515782	0.243264
H516	H	0.835692	-0.015782	0.743264
H517	H	0.399187	-0.516241	0.295466
H518	H	0.899187	-0.016241	0.795466
H519	H	0.366877	-0.614790	0.197049
H520	H	0.866877	-0.114790	0.697049
H521	H	0.430337	-0.615171	0.249296
H522	H	0.930337	-0.115171	0.749296
H523	H	0.000014	0.167631	0.164417
H524	H	0.500014	0.667631	0.664417
H525	H	0.000020	-0.762610	-0.765821
H526	H	0.500020	-0.262610	-0.265821
O527	O	0.144834	-0.595448	0.150864
O528	O	0.644834	-0.095448	0.650864
C529	C	0.125351	-0.496232	0.184704
C530	C	0.625351	0.003768	0.684704
C531	C	0.160308	-0.539106	0.141893
C532	C	0.660308	-0.039106	0.641893
H533	H	0.137839	-0.450670	0.177458
H534	H	0.637839	0.049330	0.677458
H535	H	0.137865	-0.503339	0.230298
H536	H	0.637865	-0.003339	0.730298
H537	H	0.074429	-0.502951	0.178024
H538	H	0.574429	-0.002951	0.678024
H539	H	0.211237	-0.532413	0.148521
H540	H	0.711237	-0.032413	0.648521
H541	H	0.147743	-0.531988	0.096315
H542	H	0.647743	-0.031988	0.596315
H543	H	0.000015	-0.574207	-0.740135
H544	H	0.500015	-0.074207	-0.240135
