data_functionalizedCrystal
_audit_creation_method	'MofGen! by Chris Wilmer'
_symmetry_space_group_name_H-M	'P1'
_symmetry_Int_Tables_number	1
_symmetry_cell_setting	triclinic
loop_
_symmetry_equiv_pos_as_xyz
  x,y,z
_cell_length_a	13.033808
_cell_length_b	13.032868
_cell_length_c	13.033109
_cell_angle_alpha	74.858449
_cell_angle_beta	89.075520
_cell_angle_gamma	76.630192
loop_
_atom_site_label
_atom_site_type_symbol
_atom_site_fract_x
_atom_site_fract_y
_atom_site_fract_z
Zn1	Zn	1.617282	0.263553	-0.419200
Zn2	Zn	1.577753	0.424390	-0.269880
Zn3	Zn	1.422832	0.269364	-0.269870
Zn4	Zn	1.422767	0.469440	-0.469946
O5	O	1.510158	0.356687	-0.357224
O6	O	1.758279	0.263603	-0.378159
O7	O	1.540686	0.387404	-0.123655
O8	O	1.465196	0.117550	-0.268437
O9	O	1.729236	0.381770	-0.268454
O10	O	1.608058	0.113281	-0.378149
O11	O	1.426866	0.273507	-0.123648
O12	O	1.276583	0.317190	-0.317644
O13	O	1.465087	0.458550	-0.609437
O14	O	1.276536	0.464185	-0.464638
O15	O	1.607996	0.307286	-0.572154
O16	O	1.540623	0.581410	-0.317661
O17	O	1.426756	0.614507	-0.464648
C18	C	1.238641	0.396207	-0.396647
C19	C	1.122485	0.413143	-0.413541
C20	C	0.950663	0.365372	-0.365889
C21	C	1.070717	0.347868	-0.348425
C22	C	1.479424	0.637121	-0.396681
C23	C	1.466375	0.757082	-0.413582
C24	C	1.516958	0.794150	-0.348429
C25	C	1.503473	0.918136	-0.365896
C26	C	1.782736	0.317013	-0.317647
C27	C	1.898892	0.300107	-0.300782
C28	C	1.541008	1.075160	-0.317625
C29	C	1.554063	0.955200	-0.300734
C30	C	1.540943	0.387295	-0.629770
C31	C	1.554062	0.400339	-0.745913
C32	C	1.503595	0.349800	-0.797690
C33	C	1.517153	0.363280	-0.917730
C34	C	1.479562	0.326111	-0.085718
C35	C	1.466679	0.312734	0.030497
H36	H	1.077934	0.481984	-0.482215
C37	C	1.431543	0.819273	-0.602771
C38	C	1.394437	0.838143	-0.506344
H39	H	1.387133	0.869321	-0.660039
H40	H	1.431159	0.746596	-0.603197
H41	H	1.501500	0.829122	-0.610479
H42	H	1.324482	0.828286	-0.498631
H43	H	1.394810	0.910838	-0.505917
H44	H	1.607305	0.453588	-0.790455
H45	H	1.115267	0.279033	-0.279747
H46	H	0.943447	0.231276	-0.232109
H47	H	1.450185	0.978187	-0.434614
C48	C	1.529411	0.649405	-0.188018
C49	C	1.588898	0.713089	-0.255667
H50	H	1.573825	0.599368	-0.130747
H51	H	1.499434	0.610088	-0.226633
H52	H	1.474640	0.695571	-0.160782
H53	H	1.643664	0.666923	-0.282910
H54	H	1.618891	0.752409	-0.217047
C55	C	1.468938	0.170674	-0.745575
C56	C	1.431709	0.277918	-0.737579
H57	H	1.424551	0.126300	-0.708473
H58	H	1.538873	0.142674	-0.715316
H59	H	1.468620	0.170316	-0.818362
H60	H	1.432035	0.278276	-0.664792
H61	H	1.361755	0.305924	-0.767834
C62	C	1.566524	0.810463	-0.140311
C63	C	1.626008	0.874148	-0.207965
H64	H	1.610939	0.760431	-0.083038
H65	H	1.536551	0.771140	-0.178922
H66	H	1.511750	0.856630	-0.113079
H67	H	1.680777	0.827981	-0.235204
H68	H	1.655998	0.913474	-0.169349
C69	C	1.669868	0.371508	-1.022279
C70	C	1.589044	0.435164	-0.977837
H71	H	1.714253	0.415885	-1.059380
H72	H	1.639959	0.341563	-1.070318
H73	H	1.710216	0.313915	-0.967274
H74	H	1.548691	0.492752	-1.032844
H75	H	1.618955	0.465127	-0.929795
C76	C	1.291694	0.282142	-0.954000
C77	C	1.394793	0.240846	-0.909392
H78	H	1.247316	0.237764	-0.916884
H79	H	1.291385	0.281764	-1.026771
H80	H	1.266455	0.354901	-0.948578
H81	H	1.420035	0.168089	-0.914822
H82	H	1.395106	0.241212	-0.836602
H83	H	0.906107	0.434210	-0.434556
