data_functionalizedCrystal
_audit_creation_method	'MofGen! by Chris Wilmer'
_symmetry_space_group_name_H-M	'P1'
_symmetry_Int_Tables_number	1
_symmetry_cell_setting	triclinic
loop_
_symmetry_equiv_pos_as_xyz
  x,y,z
_cell_length_a	18.101398
_cell_length_b	18.101397
_cell_length_c	13.033352
_cell_angle_alpha	82.834536
_cell_angle_beta	82.828271
_cell_angle_gamma	90.018196
loop_
_atom_site_label
_atom_site_type_symbol
_atom_site_fract_x
_atom_site_fract_y
_atom_site_fract_z
Zn1	Zn	1.078855	-0.348200	0.590978
Zn2	Zn	1.094540	-0.456280	0.416229
Zn3	Zn	0.970779	-0.332453	0.416239
Zn4	Zn	0.954995	-0.471991	0.590893
O5	O	1.024792	-0.402231	0.503585
O6	O	1.184566	-0.362551	0.567828
O7	O	1.091294	-0.426689	0.270003
O8	O	0.985157	-0.230913	0.439458
O9	O	1.196090	-0.441958	0.439440
O10	O	1.064560	-0.242481	0.567838
O11	O	1.000367	-0.335714	0.270011
O12	O	0.865056	-0.350948	0.439376
O13	O	0.958255	-0.468735	0.737131
O14	O	0.853459	-0.453466	0.567694
O15	O	1.049254	-0.377786	0.737193
O16	O	1.075988	-0.561994	0.439359
O17	O	0.973465	-0.573536	0.567684
C18	C	0.832387	-0.402204	0.503528
C19	C	0.750073	-0.402213	0.503528
C20	C	0.599360	-0.402232	0.503575
C21	C	0.575266	-0.337661	0.422976
C22	C	0.489624	-0.337469	0.423240
C23	C	0.450974	-0.402251	0.503620
C24	C	0.472162	-0.391366	0.613870
C25	C	0.557851	-0.390897	0.613379
C26	C	0.570358	-0.477925	0.474897
C27	C	0.484924	-0.477296	0.472494
C28	C	0.367111	-0.402264	0.503652
C29	C	0.683222	-0.402218	0.503551
C30	C	1.024734	-0.594637	0.503534
C31	C	1.024773	-0.676952	0.503547
C32	C	1.024859	-0.976052	0.503643
C33	C	1.089224	-0.937414	0.422687
C34	C	1.089403	-0.851814	0.422897
C35	C	1.024816	-0.827665	0.503594
C36	C	1.036034	-0.868610	0.613741
C37	C	1.036516	-0.954216	0.613301
C38	C	0.949038	-0.942010	0.475404
C39	C	0.949647	-0.856139	0.472946
C40	C	1.024790	-0.743804	0.503574
C41	C	1.024886	-1.059914	0.503671
C42	C	1.217949	-0.402259	0.503642
C43	C	1.300261	-0.402270	0.503667
C44	C	1.000244	-0.426769	0.776137
C45	C	0.989783	-0.437226	0.892283
C46	C	1.024869	-0.209076	0.503658
C47	C	1.024902	-0.126764	0.503690
C48	C	1.030144	-0.396888	0.944095
C49	C	1.019333	-0.407695	1.064137
C50	C	1.049239	-0.377806	1.232092
C51	C	1.059699	-0.367352	1.115947
H52	H	0.448506	-0.337013	0.638538
H53	H	0.990156	-0.853838	0.675682
C54	C	0.602064	-0.262034	0.448364
H55	H	0.627870	-0.269640	0.507872
H56	H	0.634499	-0.238452	0.390639
H57	H	0.560350	-0.231358	0.462264
H58	H	0.599055	-0.489817	0.395844
H59	H	1.102256	-0.324809	1.071439
C60	C	0.467315	-0.488643	0.362887
H61	H	0.439386	-0.447823	0.336200
H62	H	0.512501	-0.491662	0.318032
H63	H	0.439176	-0.533441	0.366816
H64	H	0.467433	-0.281186	0.442281
H65	H	1.090482	-0.849300	0.638064
H66	H	0.446261	-0.437397	0.675586
H67	H	0.991146	-0.980570	0.675698
C68	C	0.449428	-0.544656	0.545974
H69	H	0.413281	-0.527819	0.596829
H70	H	0.426193	-0.576734	0.506788
H71	H	0.486916	-0.570966	0.579662
C72	C	1.087638	-0.339427	0.883972
H73	H	1.087366	-0.339706	0.811177
H74	H	1.075229	-0.291263	0.901822
H75	H	1.135799	-0.351874	0.901817
H76	H	0.572999	-0.436440	0.675511
C77	C	0.961840	-0.465164	1.124256
H78	H	0.962120	-0.464893	1.197051
H79	H	0.913681	-0.452731	1.106413
H80	H	0.974262	-0.513329	1.106405
C81	C	0.932293	-0.494692	0.952406
H82	H	0.932574	-0.494421	1.025201
H83	H	0.884134	-0.482259	0.934562
H84	H	0.944715	-0.542858	0.934554
H85	H	0.575658	-0.335873	0.637618
H86	H	0.475944	-0.343092	0.341505
C87	C	0.590611	-0.542751	0.554183
H88	H	0.572936	-0.588338	0.536452
H89	H	0.643161	-0.544358	0.552990
H90	H	0.568217	-0.535551	0.622029
C91	C	0.613036	-0.345001	0.312195
H92	H	0.643843	-0.387507	0.314102
H93	H	0.576040	-0.350329	0.267848
H94	H	0.642546	-0.301694	0.286297
C95	C	1.081474	-0.813535	0.312571
H96	H	1.081569	-0.761049	0.312553
H97	H	1.121958	-0.826823	0.265054
H98	H	1.035992	-0.829111	0.292048
C99	C	1.081621	-0.955417	0.312049
H100	H	1.039122	-0.986652	0.314231
H101	H	1.076165	-0.910517	0.267635
H102	H	1.124905	-0.980235	0.286038
H103	H	1.145291	-0.960551	0.441157
H104	H	1.145768	-0.832959	0.441582
C105	C	1.110987	-0.984046	0.645598
H106	H	1.140664	-0.943834	0.658859
H107	H	1.101693	-1.018773	0.706871
H108	H	1.136559	-1.007919	0.590971
H109	H	0.901204	-0.967594	0.534367
H110	H	0.936913	-0.956549	0.396477
H111	H	0.941008	-0.828567	0.391886
H112	H	0.899915	-0.839682	0.527590
