data_functionalizedCrystal
_audit_creation_method	'MofGen! by Chris Wilmer'
_symmetry_space_group_name_H-M	'P1'
_symmetry_Int_Tables_number	1
_symmetry_cell_setting	triclinic
loop_
_symmetry_equiv_pos_as_xyz
  x,y,z
_cell_length_a	29.839134
_cell_length_b	25.639239
_cell_length_c	25.639234
_cell_angle_alpha	89.975416
_cell_angle_beta	90.027955
_cell_angle_gamma	89.966453
loop_
_atom_site_label
_atom_site_type_symbol
_atom_site_fract_x
_atom_site_fract_y
_atom_site_fract_z
Zn1	Zn	0.686755	0.208256	0.295756
Zn2	Zn	0.686683	0.295684	0.208320
Zn3	Zn	0.611630	0.208256	0.208318
Zn4	Zn	0.611589	0.295654	0.295708
O5	O	0.649164	0.251963	0.252026
O6	O	0.749612	0.219866	0.284178
O7	O	0.676714	0.284099	0.135155
O8	O	0.621642	0.135091	0.219936
O9	O	0.749559	0.284098	0.219939
O10	O	0.676836	0.135091	0.284176
O11	O	0.621572	0.219866	0.135153
O12	O	0.548757	0.219838	0.219890
O13	O	0.621573	0.284048	0.368880
O14	O	0.548727	0.284049	0.284095
O15	O	0.676797	0.219837	0.368915
O16	O	0.676674	0.368845	0.219893
O17	O	0.621503	0.368823	0.284097
C18	C	0.649088	0.387805	0.252002
C19	C	0.649097	0.445919	0.252009
C20	C	0.532441	0.251940	0.251988
C21	C	0.482507	0.251943	0.251984
C22	C	0.649188	0.251939	0.388399
C23	C	0.649199	0.251930	0.446513
C24	C	0.172857	0.285447	0.285416
C25	C	-0.014816	0.285461	0.285439
O26	O	-0.039086	0.313922	0.313842
N27	N	-0.038278	0.251982	0.252065
C28	C	-0.014820	0.218494	0.218685
O29	O	-0.039082	0.190014	0.190302
C30	C	0.172853	0.218477	0.218664
C31	C	0.196313	0.251962	0.252037
C32	C	0.196317	0.318929	0.318787
C33	C	0.243233	0.318927	0.318779
C34	C	0.266688	0.285443	0.285400
C35	C	0.243228	0.251960	0.252029
C36	C	0.196310	0.184986	0.185287
C37	C	0.243232	0.184984	0.185286
C38	C	0.266692	0.218470	0.218659
C39	C	0.313599	0.218474	0.218642
N40	N	0.337061	0.251953	0.252017
C41	C	0.313606	0.285438	0.285396
C42	C	-0.113350	0.218506	0.218697
C43	C	-0.160268	0.218510	0.218701
C44	C	-0.160261	0.285478	0.285457
C45	C	-0.113342	0.285475	0.285450
C46	C	-0.089888	0.251985	0.252071
C47	C	0.412132	0.285431	0.285376
C48	C	0.459052	0.285428	0.285363
C49	C	0.459040	0.218459	0.218609
C50	C	0.412125	0.218464	0.218620
C51	C	0.388672	0.251952	0.252007
O52	O	0.337898	0.190023	0.190258
O53	O	0.337877	0.313905	0.313782
C54	C	0.125942	0.285449	0.285424
C55	C	0.102482	0.251966	0.252054
C56	C	0.125937	0.218482	0.218675
C57	C	0.055564	0.251971	0.252058
C58	C	0.032109	0.285455	0.285437
C59	C	0.055571	0.318935	0.318811
C60	C	0.102487	0.318933	0.318803
C61	C	0.102475	0.185002	0.185300
C62	C	0.055559	0.185007	0.185311
C63	C	0.032104	0.218492	0.218690
C64	C	0.766342	0.251985	0.252064
C65	C	0.816277	0.251995	0.252080
C66	C	0.649252	0.115589	0.252061
C67	C	0.649290	0.057475	0.252076
C68	C	0.677966	0.806281	0.218652
C69	C	0.677984	0.860885	0.218659
O70	O	0.702451	0.889121	0.190271
N71	N	0.649243	0.888202	0.252060
C72	C	0.620486	0.860911	0.285461
O73	O	0.596041	0.889160	0.313873
C74	C	0.620471	0.806308	0.285456
C75	C	0.649211	0.778994	0.252048
C76	C	0.706704	0.778967	0.185247
C77	C	0.706686	0.724367	0.185240
C78	C	0.677930	0.697080	0.218636
C79	C	0.649193	0.724393	0.252041
C80	C	0.591717	0.779018	0.318859
C81	C	0.591704	0.724411	0.318852
C82	C	0.620444	0.697097	0.285444
C83	C	0.620419	0.642506	0.285430
N84	N	0.649160	0.615190	0.252029
C85	C	0.677915	0.642476	0.218632
C86	C	0.620520	0.975581	0.285469
C87	C	0.620532	1.030184	0.285471
C88	C	0.678031	1.030154	0.218670
C89	C	0.678016	0.975551	0.218665
C90	C	0.649261	0.948265	0.252067
C91	C	0.677875	0.527811	0.218618
C92	C	0.677853	0.473206	0.218612
C93	C	0.620356	0.473240	0.285415
C94	C	0.620376	0.527841	0.285420
C95	C	0.649139	0.555125	0.252019
O96	O	0.595965	0.614236	0.313805
O97	O	0.702360	0.614221	0.190230
C98	C	0.649165	0.251948	0.116183
C99	C	0.649242	0.251810	0.058069
C100	C	0.677922	0.285333	0.697699
C101	C	0.677918	0.285343	0.643095
O102	O	0.702319	0.313802	0.614852
N103	N	0.649208	0.251904	0.615787
C104	C	0.620499	0.218456	0.643085
O105	O	0.596079	0.190014	0.614844
C106	C	0.620502	0.218448	0.697689
C107	C	0.649216	0.251885	0.724994
C108	C	0.706634	0.318768	0.725005
C109	C	0.706639	0.318756	0.779605
C110	C	0.677933	0.285309	0.806900
C111	C	0.649221	0.251874	0.779595
C112	C	0.591790	0.185002	0.724987
C113	C	0.591795	0.184997	0.779594
C114	C	0.620509	0.218435	0.806899
C115	C	0.620520	0.218415	0.861490
N116	N	0.649229	0.251854	0.888799
C117	C	0.677936	0.285301	0.861504
C118	C	0.620495	0.218475	0.528415
C119	C	0.620494	0.218480	0.473812
C120	C	0.677912	0.285369	0.473826
C121	C	0.677915	0.285361	0.528429
C122	C	0.649204	0.251915	0.555723
C123	C	0.677945	0.285274	0.976169
C124	C	0.677949	0.285257	1.030774
C125	C	0.620529	0.218371	1.030756
C126	C	0.620526	0.218385	0.976156
C127	C	0.649236	0.251841	0.948863
O128	O	0.596130	0.189973	0.889768
O129	O	0.702348	0.313743	0.889752
H130	H	0.478151	0.312698	0.312540
C131	C	0.534876	0.729929	0.384890
C132	C	0.560095	0.694419	0.355570
H133	H	0.515361	0.711413	0.407556
H134	H	0.554448	0.751193	0.404912
H135	H	0.517710	0.751258	0.362086
H136	H	0.577264	0.673092	0.378374
H137	H	0.540520	0.673146	0.335546
C138	C	0.732158	0.348439	0.863309
C139	C	0.738207	0.355508	0.809616
H140	H	0.751652	0.371126	0.881832
H141	H	0.701976	0.356092	0.872245
H142	H	0.738754	0.313307	0.872264
H143	H	0.731609	0.390639	0.800660
H144	H	0.768397	0.347859	0.800676
H145	H	0.730090	0.702131	0.158038
H146	H	0.597117	0.191246	0.451585
H147	H	0.568407	0.157775	0.702764
H148	H	0.597158	0.191138	1.052990
C149	C	0.238508	0.118790	0.119299
C150	C	0.269012	0.148175	0.148589
H151	H	0.254424	0.096071	0.096642
H152	H	0.220233	0.098823	0.142119
H153	H	0.220185	0.141551	0.099266
H154	H	0.287333	0.125415	0.168626
H155	H	0.287295	0.168143	0.125767
H156	H	0.177225	0.346196	0.345971
H157	H	0.701297	0.312589	0.550658
C158	C	0.416833	0.152270	0.152634
C159	C	0.386335	0.181659	0.181934
H160	H	0.400913	0.129543	0.129991
H161	H	0.435107	0.175023	0.132590
H162	H	0.435158	0.132305	0.175452
H163	H	0.368012	0.201627	0.159116
H164	H	0.368053	0.158903	0.201980
C165	C	0.563744	0.152353	0.522908
C166	C	0.588939	0.181700	0.558414
H167	H	0.544265	0.129648	0.541428
H168	H	0.546544	0.175134	0.501599
H169	H	0.583337	0.132367	0.501624
H170	H	0.569345	0.201689	0.579696
H171	H	0.606140	0.158917	0.579732
H172	H	0.701326	0.312513	0.953954
C173	C	-0.060551	0.292833	0.355764
C174	C	-0.087556	0.322279	0.322137
H175	H	-0.044632	0.315555	0.378412
H176	H	-0.078836	0.270087	0.375802
H177	H	-0.039866	0.272893	0.335881
H178	H	-0.108244	0.342216	0.342020
H179	H	-0.069269	0.345034	0.302096
C180	C	0.416865	0.351627	0.351359
C181	C	0.386357	0.322242	0.322074
H182	H	0.400951	0.374355	0.374011
H183	H	0.435184	0.328872	0.371393
H184	H	0.435143	0.371590	0.328531
H185	H	0.368081	0.302276	0.344902
H186	H	0.368030	0.345001	0.302039
C187	C	0.763529	0.773439	0.119212
C188	C	0.738314	0.808955	0.148530
H189	H	0.783041	0.791950	0.096539
H190	H	0.780696	0.752116	0.142014
H191	H	0.743951	0.752170	0.099195
H192	H	0.757892	0.830221	0.168550
H193	H	0.721146	0.830287	0.125725
H194	H	0.701256	0.450969	0.191406
C195	C	0.684095	0.355713	0.412404
C196	C	0.709464	0.322141	0.443817
H197	H	0.703573	0.378414	0.393881
H198	H	0.666999	0.335796	0.388332
H199	H	0.664512	0.375701	0.433699
H200	H	0.729045	0.302149	0.422522
H201	H	0.726567	0.342059	0.467892
C202	C	0.563542	0.522383	0.351453
C203	C	0.588786	0.557867	0.322141
H204	H	0.544044	0.540918	0.374128
H205	H	0.546360	0.501123	0.328647
H206	H	0.583104	0.501047	0.371468
H207	H	0.569224	0.579201	0.302123
H208	H	0.605969	0.579136	0.344950
H209	H	0.036462	0.157740	0.158130
H210	H	-0.179366	0.312742	0.312635
H211	H	0.730011	0.346007	0.702787
H212	H	0.568414	0.157761	0.801814
H213	H	0.597100	0.953368	0.312667
C214	C	0.614319	0.148061	0.914761
C215	C	0.588966	0.181626	0.946141
H216	H	0.594832	0.125368	0.896238
H217	H	0.631408	0.167983	0.890689
H218	H	0.633909	0.128063	0.936078
H219	H	0.569378	0.201627	0.924823
H220	H	0.571870	0.161702	0.970216
C221	C	0.754010	0.310743	1.047603
C222	C	0.709514	0.322017	1.060785
H223	H	0.773495	0.333439	1.066126
H224	H	0.760606	0.275618	1.056567
H225	H	0.758105	0.315534	1.011174
H226	H	0.705417	0.317221	1.097213
H227	H	0.702916	0.357150	1.051824
C228	C	0.155277	0.326294	0.389118
C229	C	0.128271	0.355738	0.355492
H230	H	0.171194	0.349017	0.411767
H231	H	0.136994	0.303544	0.409155
H232	H	0.175965	0.306357	0.369234
H233	H	0.107581	0.375672	0.375375
H234	H	0.146556	0.378496	0.335453
C235	C	0.734850	0.981019	0.152635
C236	C	0.709610	0.945531	0.181946
H237	H	0.754358	0.962487	0.129969
H238	H	0.715290	1.002344	0.132615
H239	H	0.752026	1.002289	0.175446
H240	H	0.692432	0.924263	0.159136
H241	H	0.729172	0.924196	0.201967
H242	H	0.262330	0.346193	0.345956
C243	C	0.594811	0.389545	0.315065
C244	C	0.588751	0.443239	0.322127
H245	H	0.575302	0.371024	0.337734
H246	H	0.588247	0.380628	0.279930
H247	H	0.624992	0.380569	0.322749
H248	H	0.558570	0.452216	0.314438
H249	H	0.595311	0.452161	0.357269
C250	C	0.155261	0.114654	0.178144
C251	C	0.128253	0.148195	0.148605
H252	H	0.171172	0.091929	0.155486
H253	H	0.175950	0.134591	0.198011
H254	H	0.136976	0.094688	0.200962
H255	H	0.146538	0.168164	0.125789
H256	H	0.107561	0.128256	0.128729
H257	H	0.701298	0.550020	0.191421
C258	C	0.703640	1.113849	0.189090
C259	C	0.709680	1.060155	0.182005
H260	H	0.723191	1.132370	0.166470
H261	H	0.673478	1.122852	0.181357
H262	H	0.710162	1.122740	0.224246
H263	H	0.703155	1.051264	0.146849
H264	H	0.739850	1.051148	0.189734
H265	H	-0.179365	0.191248	0.191520
H266	H	-0.094258	0.191233	0.191514
C267	C	0.614268	1.091553	0.355802
C268	C	0.588938	1.060204	0.322190
H269	H	0.594763	1.110087	0.378471
H270	H	0.633821	1.070218	0.375820
H271	H	0.631393	1.115621	0.335910
H272	H	0.571815	1.036134	0.342082
H273	H	0.569376	1.081541	0.302170
H274	H	0.177217	0.157720	0.158110
H275	H	0.478146	0.191198	0.191432
C276	C	0.041154	0.344522	0.407302
C277	C	0.029783	0.355740	0.355505
H278	H	0.025234	0.367243	0.429955
H279	H	0.033488	0.309406	0.415010
H280	H	0.072454	0.349320	0.412071
H281	H	-0.001517	0.350939	0.350735
H282	H	0.037447	0.390864	0.347795
H283	H	0.568311	0.801247	0.346061
