data_functionalizedCrystal
_audit_creation_method	'MofGen! by Chris Wilmer'
_symmetry_space_group_name_H-M	'P1'
_symmetry_Int_Tables_number	1
_symmetry_cell_setting	triclinic
loop_
_symmetry_equiv_pos_as_xyz
  x,y,z
_cell_length_a	15.995300
_cell_length_b	15.995292
_cell_length_c	12.503572
_cell_angle_alpha	93.525692
_cell_angle_beta	86.480794
_cell_angle_gamma	83.470212
loop_
_atom_site_label
_atom_site_type_symbol
_atom_site_fract_x
_atom_site_fract_y
_atom_site_fract_z
O1	O	1.115821	0.102882	-0.089353
O2	O	0.872036	0.116255	-0.089345
O3	O	1.000618	-0.012324	-0.089351
O4	O	0.987239	0.231461	-0.089347
O5	O	0.990948	-0.002638	0.089291
O6	O	0.862366	0.125940	0.089297
O7	O	1.106150	0.112568	0.089290
Cu8	Cu	0.983375	0.120139	0.105605
Cu9	Cu	0.994811	0.108684	-0.105661
O10	O	0.977569	0.241147	0.089295
C11	C	0.836006	0.120552	-0.000023
C12	C	0.743053	0.118917	-0.000021
C13	C	0.572871	0.115897	-0.000029
C14	C	0.525386	0.207448	-0.000025
C15	C	0.428721	0.205755	-0.000434
C16	C	0.405316	0.112925	-0.000036
C17	C	0.451969	0.061983	-0.101849
C18	C	0.548607	0.064295	-0.101932
C19	C	0.537889	0.073955	0.101225
C20	C	0.440872	0.074036	0.102560
C21	C	0.310621	0.111240	-0.000044
C22	C	0.667567	0.117579	-0.000029
C23	C	0.995238	-0.038677	-0.000032
C24	C	0.993606	-0.131630	-0.000040
C25	C	0.987605	-0.469367	-0.000030
C26	C	1.080390	-0.446049	0.000366
C27	C	1.082176	-0.349396	-0.000041
C28	C	0.990583	-0.301811	-0.000035
C29	C	0.949706	-0.336435	-0.102044
C30	C	0.948593	-0.433230	-0.102125
C31	C	0.935701	-0.422072	0.101025
C32	C	0.939067	-0.325507	0.102369
C33	C	0.992261	-0.207116	-0.000041
C34	C	0.985924	-0.564062	-0.000032
C35	C	1.142181	0.108270	-0.000035
C36	C	1.235134	0.109905	-0.000044
C37	C	0.982948	0.267499	-0.000026
C38	C	0.984581	0.360452	-0.000025
N39	N	0.975338	0.128195	0.254197
N40	N	1.002855	0.100621	-0.254253
C41	C	0.963515	0.140053	0.473313
C42	C	1.014676	0.088766	0.526638
C43	C	1.008097	0.095364	0.648562
C44	C	0.970092	0.133456	0.351379
H45	H	0.554204	0.108281	0.178418
H46	H	0.581129	-0.003167	-0.106283
C47	C	1.125928	-0.318345	0.098730
H48	H	1.142771	-0.364825	0.139463
H49	H	1.087865	-0.278204	0.141896
H50	H	1.174160	-0.292866	0.075757
H51	H	0.914777	0.188913	0.519223
C52	C	0.578935	0.102928	-0.205125
H53	H	0.532195	0.117068	-0.246599
H54	H	0.619141	0.063216	-0.245747
H55	H	0.604164	0.152351	-0.186688
C56	C	0.384919	0.259316	0.098133
H57	H	0.426178	0.282311	0.138783
H58	H	0.354289	0.224876	0.141450
H59	H	0.347277	0.303824	0.074968
C60	C	0.545021	0.262504	0.098582
H61	H	0.582358	0.230155	0.140632
H62	H	0.494149	0.281718	0.140512
H63	H	0.570691	0.309603	0.075432
C64	C	1.136914	-0.329897	-0.098993
H65	H	1.138203	-0.270692	-0.099572
H66	H	1.113680	-0.349928	-0.162452
H67	H	1.192642	-0.357034	-0.095989
H68	H	0.867351	-0.436012	0.101716
C69	C	0.997539	-0.475050	-0.205167
H70	H	1.017923	-0.432841	-0.246577
H71	H	0.961137	-0.505266	-0.245917
H72	H	1.043757	-0.512834	-0.186582
H73	H	1.063418	0.039904	0.480723
C74	C	1.123367	-0.478512	0.099195
H75	H	1.085115	-0.506584	0.141098
H76	H	1.139557	-0.432269	0.141189
H77	H	1.171939	-0.516726	0.076268
H78	H	0.880796	-0.448018	-0.106743
H79	H	0.548934	0.239739	-0.072925
H80	H	0.404839	0.237312	-0.073842
C81	C	0.433195	-0.030438	-0.106592
H82	H	0.396646	-0.038796	-0.046380
H83	H	0.484441	-0.066674	-0.105484
H84	H	0.406896	-0.042854	-0.170835
C85	C	0.858935	-0.293643	-0.107175
H86	H	0.845130	-0.254183	-0.047010
H87	H	0.820936	-0.335156	-0.106226
H88	H	0.854747	-0.265172	-0.171453
C89	C	0.419219	0.098509	-0.204593
H90	H	0.377137	0.144785	-0.185662
H91	H	0.395745	0.056175	-0.245698
H92	H	0.464575	0.117122	-0.245798
C93	C	0.998709	-0.314804	-0.204605
H94	H	1.044093	-0.284706	-0.185478
H95	H	0.961970	-0.280963	-0.245775
H96	H	1.020291	-0.365374	-0.245828
C97	C	0.969320	-0.454584	0.205477
H98	H	1.015331	-0.497310	0.188429
H99	H	0.925699	-0.477179	0.245312
H100	H	0.987693	-0.409319	0.247119
H101	H	0.425199	0.006690	0.109008
C102	C	0.398426	0.124359	0.204318
H103	H	0.359194	0.168881	0.184372
H104	H	0.440140	0.147205	0.244283
H105	H	0.369741	0.088036	0.247067
H106	H	0.569631	0.006509	0.102203
H107	H	0.968768	-0.302856	0.177834
C108	C	1.133767	-0.490576	-0.097911
H109	H	1.099752	-0.523312	-0.139185
H110	H	1.179611	-0.526327	-0.074457
H111	H	1.154857	-0.449551	-0.140736
H112	H	0.871880	-0.292191	0.108534
