data_functionalizedCrystal
_audit_creation_method	'MofGen! by Chris Wilmer'
_symmetry_space_group_name_H-M	'P1'
_symmetry_Int_Tables_number	1
_symmetry_cell_setting	triclinic
loop_
_symmetry_equiv_pos_as_xyz
  x,y,z
_cell_length_a	9.065215
_cell_length_b	15.072220
_cell_length_c	15.995350
_cell_angle_alpha	89.998899
_cell_angle_beta	95.746431
_cell_angle_gamma	89.988198
loop_
_atom_site_label
_atom_site_type_symbol
_atom_site_fract_x
_atom_site_fract_y
_atom_site_fract_z
O1	O	-1.957531	0.073763	0.122755
O2	O	-1.528009	0.073768	0.132828
O3	O	-1.754511	0.073764	0.005993
O4	O	-1.731029	0.073766	0.249590
O5	O	-1.754455	-0.073801	0.005999
O6	O	-1.527953	-0.073798	0.132834
O7	O	-1.957475	-0.073802	0.122762
Zn8	Zn	-1.742705	-0.097229	0.127799
Zn9	Zn	-1.742779	0.097194	0.127790
O10	O	-1.730973	-0.073799	0.249597
C11	C	-1.473017	-0.000014	0.131864
C12	C	-1.309242	-0.000013	0.128971
N13	N	-1.742666	-0.229918	0.127805
C14	C	-1.742776	-0.589119	0.127787
C15	C	-1.621172	-0.551511	0.195420
C16	C	-1.621451	-0.448685	0.195673
C17	C	-1.742720	-0.410915	0.127796
C18	C	-1.896653	-0.448208	0.148044
C19	C	-1.895972	-0.551066	0.148526
C20	C	-1.711819	-0.551220	0.039713
C21	C	-1.708287	-0.448356	0.040272
C22	C	-1.742698	-0.310202	0.127799
C23	C	-1.742808	-0.689833	0.127786
C24	C	-1.012467	-0.000018	0.123726
C25	C	-1.176242	-0.000012	0.126619
C26	C	-1.753513	-0.000017	-0.025206
C27	C	-1.750602	-0.000012	-0.118178
N28	N	-1.742830	0.229883	0.127778
C29	C	-1.740150	-0.000014	-0.456005
C30	C	-1.578839	0.000318	-0.409794
C31	C	-1.581750	-0.000014	-0.313081
C32	C	-1.745334	-0.000012	-0.288405
C33	C	-1.824867	-0.084279	-0.328876
C34	C	-1.820814	-0.084349	-0.425542
C35	C	-1.824210	0.083460	-0.425883
C36	C	-1.824172	0.084574	-0.328938
C37	C	-1.748273	-0.000014	-0.193686
C38	C	-1.737216	-0.000018	-0.550725
C39	C	-1.731972	-0.000016	0.280796
C40	C	-1.734882	-0.000015	0.373768
H41	H	-1.507029	-0.423473	0.183437
O42	O	-1.743927	-0.167782	-0.450376
H43	H	-1.629244	-0.169255	-0.418742
O44	O	-1.498933	0.079994	-0.276052
H45	H	-1.404626	0.057774	-0.231339
H46	H	-1.518764	-0.060521	-0.285691
H47	H	-1.514387	0.060747	-0.428817
O48	O	-1.933649	-0.414090	0.232219
H49	H	-1.938524	-0.340517	0.230700
O50	O	-1.493775	-0.079284	-0.436370
H51	H	-1.565889	-0.119085	-0.482347
H52	H	-1.945047	-0.087411	-0.313839
H53	H	-1.506380	-0.576271	0.183368
H54	H	-1.641219	-0.424071	0.261007
H55	H	-1.939245	-0.088171	-0.456893
O56	O	-1.981749	0.084210	-0.466761
H57	H	-2.059531	0.082038	-0.417442
O58	O	-1.751652	-0.167351	-0.291838
H59	H	-1.658632	-0.148835	-0.244619
H60	H	-1.640667	-0.577349	0.260385
H61	H	-1.989304	-0.423740	0.100143
O62	O	-1.754385	0.168067	-0.453612
H63	H	-1.658977	0.151562	-0.489176
O64	O	-1.829193	-0.583472	-0.027007
H65	H	-1.888408	-0.525657	-0.057443
H66	H	-1.943467	0.089663	-0.312672
O67	O	-1.932105	-0.582844	0.233652
H68	H	-1.949891	-0.524746	0.274089
O69	O	-2.019438	-0.584029	0.085847
H70	H	-2.079376	-0.526501	0.055331
O71	O	-1.747270	0.167157	-0.293365
H72	H	-1.653293	0.148049	-0.247006
H73	H	-1.595052	-0.423983	0.024933
O74	O	-1.566331	-0.585606	0.014316
H75	H	-1.514459	-0.630097	0.064191
O76	O	-1.818004	-0.414330	-0.029644
H77	H	-1.899155	-0.370007	-0.002983
