data_functionalizedCrystal
_audit_creation_method	'MofGen! by Chris Wilmer'
_symmetry_space_group_name_H-M	'P1'
_symmetry_Int_Tables_number	1
_symmetry_cell_setting	triclinic
loop_
_symmetry_equiv_pos_as_xyz
  x,y,z
_cell_length_a	10.654546
_cell_length_b	17.666332
_cell_length_c	10.654550
_cell_angle_alpha	90.003997
_cell_angle_beta	84.484193
_cell_angle_gamma	90.010172
loop_
_atom_site_label
_atom_site_type_symbol
_atom_site_fract_x
_atom_site_fract_y
_atom_site_fract_z
O1	O	1.667852	0.062963	0.176378
O2	O	1.302373	0.062961	0.193189
O3	O	1.493516	0.062959	0.002044
O4	O	1.476710	0.062964	0.367523
O5	O	1.493482	-0.062938	0.002038
O6	O	1.302339	-0.062936	0.193183
O7	O	1.667818	-0.062934	0.176372
Cu8	Cu	1.485076	-0.074430	0.184777
Cu9	Cu	1.485116	0.074457	0.184784
O10	O	1.476676	-0.062932	0.367517
C11	C	1.255558	0.000012	0.191952
C12	C	1.116115	0.000011	0.188262
C13	C	1.050639	0.068641	0.186519
C14	C	0.919618	0.068647	0.183042
C15	C	0.919562	-0.068613	0.183045
C16	C	1.050579	-0.068618	0.186532
C17	C	1.116174	0.137270	0.188249
C18	C	1.050698	0.205905	0.186505
C19	C	0.919678	0.205911	0.183028
C20	C	0.854133	0.137282	0.181295
N21	N	1.485057	-0.179150	0.184771
C22	C	1.561878	-0.218752	0.261656
C23	C	1.561898	-0.297999	0.261653
C24	C	1.485074	-0.337642	0.184778
C25	C	1.408247	-0.298031	0.107878
C26	C	1.408238	-0.218785	0.107874
N27	N	1.375040	-0.462082	0.180392
N28	N	1.375051	-0.537363	0.180402
C29	C	1.485096	-0.576406	0.184783
N30	N	1.595131	-0.537325	0.189177
N31	N	1.595118	-0.462038	0.189173
C32	C	1.485075	-0.423571	0.184773
C33	C	1.561946	-0.701937	0.261669
C34	C	1.561969	-0.781186	0.261656
C35	C	1.408306	-0.781216	0.107888
C36	C	1.408295	-0.701969	0.107893
C37	C	1.485113	-0.662334	0.184791
C38	C	1.714633	0.000016	0.177608
C39	C	1.854077	0.000022	0.181298
C40	C	1.492265	0.000011	-0.044757
C41	C	1.488573	0.000014	-0.184200
N42	N	1.485145	0.179177	0.184780
C43	C	1.601115	0.000013	-0.263687
C44	C	1.597638	0.000018	-0.394708
C45	C	1.369068	0.000023	-0.366742
C46	C	1.372546	0.000023	-0.235724
C47	C	1.717142	0.000003	-0.212164
C48	C	1.829693	0.000001	-0.291652
C49	C	1.826216	0.000006	-0.422673
C50	C	1.710188	0.000014	-0.474206
C51	C	1.477927	0.000017	0.414317
C52	C	1.481619	0.000019	0.553761
H53	H	0.866369	0.261797	0.181620
H54	H	1.280905	0.000023	-0.171003
N55	N	1.243934	0.000014	-0.422322
H56	H	1.173165	0.000014	-0.352085
H57	H	1.237521	0.046683	-0.476074
N58	N	1.325368	-0.176072	0.024946
H59	H	1.264366	-0.143200	0.079056
H60	H	1.379599	-0.143230	-0.036006
H61	H	1.103890	-0.124502	0.187958
N62	N	1.257490	0.137263	0.191977
H63	H	1.289075	0.191151	0.192803
H64	H	1.279444	0.110287	0.270530
H65	H	0.866185	-0.124487	0.181633
N66	N	1.706425	0.000015	-0.615519
H67	H	1.660729	0.046684	-0.641583
H68	H	1.795359	-0.000015	-0.657968
N69	N	1.947607	0.000003	-0.508400
H70	H	1.951239	-0.046666	-0.563389
H71	H	1.951212	0.046705	-0.563296
H72	H	1.624497	-0.669665	0.324282
H73	H	1.104072	0.261780	0.187927
H74	H	1.345697	-0.330313	0.045284
H75	H	1.624456	-0.330249	0.324266
N76	N	1.644877	-0.823904	0.344541
H77	H	1.693547	-0.786767	0.393239
H78	H	1.590689	-0.856803	0.405436
N79	N	0.712816	0.137286	0.177562
H80	H	0.681278	0.191177	0.176727
H81	H	0.690850	0.110306	0.099007
N82	N	1.644743	-0.176003	0.344577
H83	H	1.693417	-0.213120	0.393279
H84	H	1.705659	-0.143122	0.290376
H85	H	1.345755	-0.813493	0.045294
N86	N	1.325434	-0.659249	0.024969
H87	H	1.276767	-0.696385	-0.023733
H88	H	1.264510	-0.626375	0.079157
N89	N	1.720885	0.000002	-0.070850
H90	H	1.766572	-0.046671	-0.044784
H91	H	1.766583	0.046700	-0.044872
H92	H	1.924158	0.000014	-0.249686
