data_functionalizedCrystal
_audit_creation_method	'MofGen! by Chris Wilmer'
_symmetry_space_group_name_H-M	'P1'
_symmetry_Int_Tables_number	1
_symmetry_cell_setting	triclinic
loop_
_symmetry_equiv_pos_as_xyz
  x,y,z
_cell_length_a	17.699083
_cell_length_b	17.038272
_cell_length_c	16.776229
_cell_angle_alpha	89.993292
_cell_angle_beta	89.998886
_cell_angle_gamma	87.197286
loop_
_atom_site_label
_atom_site_type_symbol
_atom_site_fract_x
_atom_site_fract_y
_atom_site_fract_z
O1	O	1.010620	0.098861	-0.066177
O2	O	1.510620	0.598861	0.433823
O3	O	0.791093	0.111723	-0.066203
O4	O	1.291093	0.611723	0.433797
O5	O	0.899552	-0.008521	-0.066184
O6	O	1.399552	0.491479	0.433816
O7	O	0.902161	0.219105	-0.066196
O8	O	1.402161	0.719105	0.433804
O9	O	0.899536	-0.008529	0.066393
O10	O	1.399536	0.491471	0.566393
O11	O	0.791077	0.111716	0.066374
O12	O	1.291077	0.611716	0.566374
O13	O	1.010604	0.098854	0.066400
O14	O	1.510604	0.598854	0.566400
Zn15	Zn	0.900838	0.105283	0.087436
Zn16	Zn	1.400838	0.605283	0.587436
Zn17	Zn	0.900859	0.105293	-0.087239
Zn18	Zn	1.400859	0.605293	0.412761
O19	O	0.902145	0.219098	0.066381
O20	O	1.402145	0.719098	0.566381
C21	C	0.762857	0.111258	0.000082
C22	C	1.262857	0.611258	0.500082
C23	C	0.678748	0.109876	0.000072
C24	C	1.178748	0.609876	0.500072
C25	C	0.634797	0.180457	0.000069
C26	C	1.134797	0.680457	0.500069
C27	C	0.555767	0.179153	0.000079
C28	C	1.055767	0.679153	0.500079
C29	C	0.520690	0.107267	0.000087
C30	C	1.020690	0.607267	0.500087
C31	C	0.564647	0.036681	0.000093
C32	C	1.064647	0.536681	0.500093
C33	C	0.643675	0.037986	0.000089
C34	C	1.143675	0.537986	0.500089
C35	C	0.245935	0.031418	0.000113
C36	C	0.745935	0.531418	0.500113
C37	C	0.166901	0.030119	0.000116
C38	C	0.666901	0.530119	0.500116
C39	C	0.158028	0.172585	0.000104
C40	C	0.658028	0.672585	0.500104
C41	C	0.237056	0.173890	0.000099
C42	C	0.737056	0.673890	0.500099
C43	C	0.281006	0.103304	0.000109
C44	C	0.781006	0.603304	0.500109
C45	C	0.366699	0.104719	0.000100
C46	C	0.866699	0.604719	0.500100
C47	C	0.434999	0.105852	0.000091
C48	C	0.934999	0.605852	0.500091
C49	C	0.897170	-0.037649	0.000104
C50	C	1.397170	0.462351	0.500104
C51	C	0.890090	-0.124431	0.000103
C52	C	1.390090	0.375569	0.500103
C53	C	0.955100	-0.174651	0.000112
C54	C	1.455100	0.325349	0.500112
C55	C	0.948442	-0.256191	0.000103
C56	C	1.448442	0.243809	0.500103
C57	C	0.876773	-0.287509	0.000092
C58	C	1.376773	0.212491	0.500092
C59	C	0.811758	-0.237282	0.000081
C60	C	1.311758	0.262718	0.500081
C61	C	0.818417	-0.155744	0.000084
C62	C	1.318417	0.344256	0.500084
C63	C	0.853251	-0.533228	0.000079
C64	C	1.353251	-0.033228	0.500079
C65	C	0.846597	-0.614773	0.000078
C66	C	1.346597	-0.114773	0.500078
C67	C	0.983282	-0.633676	0.000099
C68	C	1.483282	-0.133676	0.500099
C69	C	0.989934	-0.552135	0.000106
C70	C	1.489934	-0.052135	0.500106
C71	C	0.924919	-0.501916	0.000091
C72	C	1.424919	-0.001916	0.500091
C73	C	0.869967	-0.370855	0.000086
C74	C	1.369967	0.129145	0.500086
C75	C	0.931726	-0.418571	0.000092
C76	C	1.431726	0.081429	0.500092
C77	C	1.038840	0.099318	0.000113
C78	C	1.538840	0.599318	0.500113
C79	C	1.122949	0.100701	0.000118
C80	C	1.622949	0.600701	0.500118
C81	C	0.904526	0.248226	0.000091
C82	C	1.404526	0.748226	0.500091
C83	C	0.911607	0.335007	0.000087
C84	C	1.411607	0.835007	0.500087
N85	N	0.900829	0.105276	0.206647
N86	N	1.400829	0.605276	0.706647
N87	N	0.900873	0.105294	-0.206450
N88	N	1.400873	0.605294	0.293550
C89	C	0.948872	0.052054	0.248373
C90	C	1.448872	0.552054	0.748373
C91	C	0.948876	0.052053	0.331825
C92	C	1.448876	0.552053	0.831825
C93	C	0.900841	0.105279	0.373550
C94	C	1.400841	0.605279	0.873550
C95	C	0.852793	0.158504	0.331819
C96	C	1.352793	0.658504	0.831819
C97	C	0.852785	0.158501	0.248368
C98	C	1.352785	0.658501	0.748368
C99	C	0.852821	0.158520	0.668366
C100	C	1.352821	0.658520	1.168366
C101	C	0.852834	0.158521	0.751823
C102	C	1.352834	0.658521	1.251823
C103	C	0.948912	0.052072	0.751823
C104	C	1.448912	0.552072	1.251823
C105	C	0.948904	0.052069	0.668372
C106	C	1.448904	0.552069	1.168372
C107	C	0.900854	0.105290	0.626648
C108	C	1.400854	0.605290	1.126648
C109	C	0.900849	0.105289	0.536160
C110	C	1.400849	0.605289	1.036160
C111	C	0.900849	0.105285	0.464037
C112	C	1.400849	0.605285	0.964037
H113	H	0.679459	-0.019489	0.000091
H114	H	1.179459	0.480511	0.500091
N115	N	1.009025	-0.384798	0.000111
N116	N	1.509025	0.115202	0.500111
H117	H	1.014844	-0.351380	-0.049031
H118	H	1.514844	0.148620	0.450969
H119	H	1.014766	-0.351435	0.049293
H120	H	1.514766	0.148565	0.549293
H121	H	0.988022	0.008730	0.634402
H122	H	1.488022	0.508730	1.134402
H123	H	0.281710	-0.026057	0.000122
H124	H	0.781710	0.473943	0.500122
H125	H	0.800310	-0.492349	0.000066
H126	H	1.300310	0.007651	0.500066
H127	H	0.811613	-0.396363	0.000079
H128	H	1.311613	0.103637	0.500079
H129	H	0.813663	0.201839	0.214396
H130	H	1.313663	0.701839	0.714396
H131	H	0.813698	0.201856	0.634401
H132	H	1.313698	0.701856	1.134401
N133	N	1.000721	-0.005324	0.376830
N134	N	1.500721	0.494676	0.876830
H135	H	1.031163	-0.039030	0.337735
H136	H	1.531163	0.460970	0.837735
H137	H	1.036092	0.024597	0.411430
H138	H	1.536092	0.524597	0.911430
N139	N	1.000677	-0.005352	0.203362
N140	N	1.500677	0.494648	0.703362
H141	H	1.054969	0.003578	0.217873
H142	H	1.554969	0.503578	0.717873
H143	H	0.988327	-0.060800	0.217911
H144	H	1.488327	0.439200	0.717911
N145	N	0.801011	0.215923	0.796826
N146	N	1.301011	0.715923	1.296826
H147	H	0.808311	0.207848	0.856023
H148	H	1.308311	0.707848	1.356023
H149	H	0.813311	0.271374	0.782230
H150	H	1.313311	0.771374	1.282230
N151	N	1.000739	-0.005335	0.796825
N152	N	1.500739	0.494665	1.296825
H153	H	0.993456	0.002739	0.856022
H154	H	1.493456	0.502739	1.356022
H155	H	0.988432	-0.060784	0.782247
H156	H	1.488432	0.439216	1.282247
H157	H	0.813678	0.201839	0.365796
H158	H	1.313678	0.701839	0.865796
H159	H	1.001381	-0.297077	0.000112
H160	H	1.501381	0.202923	0.500112
N161	N	0.672628	0.257991	0.000050
N162	N	1.172628	0.757991	0.500050
H163	H	0.632790	0.302505	0.000050
H164	H	1.132790	0.802505	0.500050
H165	H	0.705227	0.261636	0.049195
H166	H	1.205227	0.761636	0.549195
H167	H	1.013460	-0.149159	0.000126
H168	H	1.513460	0.350841	0.500126
N169	N	0.734455	-0.271052	0.000069
N170	N	1.234455	0.228948	0.500069
H171	H	0.728651	-0.304457	-0.049077
H172	H	1.228651	0.195543	0.450923
H173	H	0.728687	-0.304425	0.049248
H174	H	1.228687	0.195575	0.549248
N175	N	0.508398	0.255302	0.000141
N176	N	1.008398	0.755302	0.500141
H177	H	0.520199	0.286706	-0.048989
H178	H	1.020199	0.786706	0.451011
H179	H	0.453020	0.243544	0.000202
H180	H	0.953020	0.743544	0.500202
N181	N	0.274890	0.251423	0.000079
N182	N	0.774890	0.751423	0.500079
H183	H	0.235055	0.295939	0.000078
H184	H	0.735055	0.795939	0.500078
H185	H	0.307490	0.255067	0.049223
H186	H	0.807490	0.755067	0.549223
N187	N	0.526808	-0.040849	0.000101
N188	N	1.026808	0.459151	0.500101
H189	H	0.542501	-0.071764	-0.049042
H190	H	1.042501	0.428236	0.450958
H191	H	0.542512	-0.071705	0.049282
H192	H	1.042512	0.428295	0.549282
N193	N	0.110625	0.248721	0.000095
N194	N	0.610625	0.748721	0.500095
H195	H	0.055238	0.236991	0.000102
H196	H	0.555238	0.736991	0.500102
H197	H	0.122505	0.280056	0.049237
H198	H	0.622505	0.780056	0.549237
H199	H	0.138344	-0.028422	0.000123
H200	H	0.638344	0.471578	0.500123
H201	H	1.036213	-0.674572	0.000110
H202	H	1.536213	-0.174572	0.500110
N203	N	1.067234	-0.518358	0.000123
N204	N	1.567234	-0.018358	0.500123
H205	H	1.107409	-0.562546	0.000128
H206	H	1.607409	-0.062546	0.500128
H207	H	1.072981	-0.484931	-0.049022
H208	H	1.572981	0.015069	0.450978
H209	H	0.788233	-0.640268	0.000082
H210	H	1.288233	-0.140268	0.500082
H211	H	0.765478	-0.114855	0.000077
H212	H	1.265478	0.385145	0.500077
