data_functionalizedCrystal
_audit_creation_method	'MofGen! by Chris Wilmer'
_symmetry_space_group_name_H-M	'P1'
_symmetry_Int_Tables_number	1
_symmetry_cell_setting	triclinic
loop_
_symmetry_equiv_pos_as_xyz
  x,y,z
_cell_length_a	12.759401
_cell_length_b	21.295417
_cell_length_c	12.759393
_cell_angle_alpha	89.961673
_cell_angle_beta	89.981503
_cell_angle_gamma	90.029933
loop_
_atom_site_label
_atom_site_type_symbol
_atom_site_fract_x
_atom_site_fract_y
_atom_site_fract_z
Zn1	Zn	1.606134	-0.250567	-0.593965
Zn2	Zn	2.106134	0.249433	-0.093965
Zn3	Zn	1.605986	-0.355851	-0.418265
Zn4	Zn	2.105986	0.144149	0.081735
Zn5	Zn	1.430440	-0.250600	-0.418301
Zn6	Zn	1.930440	0.249400	0.081699
Zn7	Zn	1.430379	-0.355803	-0.593903
Zn8	Zn	1.930379	0.144197	-0.093903
O9	O	1.518235	-0.303205	-0.506108
O10	O	2.018235	0.196795	-0.006108
O11	O	1.753136	-0.264540	-0.570669
O12	O	2.253136	0.235460	-0.070669
O13	O	1.582663	-0.341924	-0.271248
O14	O	2.082663	0.158076	0.228752
O15	O	1.453833	-0.162507	-0.441644
O16	O	1.953833	0.337493	0.058356
O17	O	1.753027	-0.341892	-0.441583
O18	O	2.253027	0.158108	0.058417
O19	O	1.582916	-0.162482	-0.570704
O20	O	2.082916	0.337518	-0.070704
O21	O	1.453690	-0.264597	-0.271275
O22	O	1.953690	0.235403	0.228725
O23	O	1.283411	-0.264549	-0.441584
O24	O	1.783411	0.235451	0.058416
O25	O	1.453730	-0.341809	-0.740932
O26	O	1.953730	0.158191	-0.240932
O27	O	1.283366	-0.341841	-0.570598
O28	O	1.783366	0.158159	-0.070598
O29	O	1.582857	-0.264492	-0.740978
O30	O	2.082857	0.235508	-0.240978
O31	O	1.582604	-0.443934	-0.441523
O32	O	2.082604	0.056066	0.058477
O33	O	1.453586	-0.443899	-0.570563
O34	O	1.953586	0.056101	-0.070563
C35	C	1.245267	-0.303194	-0.506089
C36	C	1.745267	0.196806	-0.006089
C37	C	1.128491	-0.303204	-0.506105
C38	C	1.628491	0.196796	-0.006105
C39	C	1.518101	-0.466757	-0.506055
C40	C	2.018101	0.033243	-0.006055
C41	C	1.518140	-0.536725	-0.506067
C42	C	2.018140	-0.036725	-0.006067
C43	C	1.073576	-0.343417	-0.438798
C44	C	1.573576	0.156583	0.061202
C45	C	0.963852	-0.343428	-0.438817
C46	C	1.463852	0.156572	0.061183
C47	C	0.963967	-0.263008	-0.573451
C48	C	1.463967	0.236992	-0.073451
C49	C	1.073689	-0.263001	-0.573438
C50	C	1.573689	0.236999	-0.073438
C51	C	1.073508	-0.389845	-0.361065
C52	C	1.573508	0.110155	0.138935
C53	C	0.963784	-0.389856	-0.361083
C54	C	1.463784	0.110144	0.138917
C55	C	1.585314	-0.569522	-0.573317
C56	C	2.085314	-0.069522	-0.073317
C57	C	1.585351	-0.635264	-0.573343
C58	C	2.085351	-0.135264	-0.073343
C59	C	1.518225	-0.668208	-0.506101
C60	C	2.018225	-0.168208	-0.006101
C61	C	1.451037	-0.635403	-0.438846
C62	C	1.951037	-0.135403	0.061154
C63	C	1.450995	-0.569662	-0.438830
C64	C	1.950995	-0.069662	0.061170
N65	N	1.510288	-0.771477	-0.414154
N66	N	2.010288	-0.271477	0.085846
N67	N	1.510334	-0.833928	-0.414173
N68	N	2.010334	-0.333928	0.085827
C69	C	1.518348	-0.866282	-0.506148
C70	C	2.018348	-0.366282	-0.006148
N71	N	1.526333	-0.833825	-0.598106
N72	N	2.026333	-0.333825	-0.098106
N73	N	1.526292	-0.771368	-0.598086
N74	N	2.026292	-0.271368	-0.098086
C75	C	1.518263	-0.739493	-0.506111
C76	C	2.018263	-0.239493	-0.006111
C77	C	1.585566	-0.970364	-0.573431
C78	C	2.085566	-0.470364	-0.073431
C79	C	1.585596	-1.036108	-0.573459
C80	C	2.085596	-0.536108	-0.073459
C81	C	1.451287	-1.036246	-0.438953
C82	C	1.951287	-0.536246	0.061047
C83	C	1.451252	-0.970503	-0.438935
C84	C	1.951252	-0.470503	0.061065
C85	C	1.518397	-0.937566	-0.506172
C86	C	2.018397	-0.437566	-0.006172
C87	C	1.792268	-0.303217	-0.506129
C88	C	2.292268	0.196783	-0.006129
C89	C	1.909045	-0.303222	-0.506137
C90	C	2.409045	0.196778	-0.006137
C91	C	1.518303	-0.303141	-0.780142
C92	C	2.018303	0.196859	-0.280142
C93	C	1.518332	-0.303114	-0.896918
C94	C	2.018332	0.196886	-0.396918
C95	C	1.518398	-0.139015	-0.506185
C96	C	2.018398	0.360985	-0.006185
C97	C	1.518467	-0.069047	-0.506217
C98	C	2.018467	0.430953	-0.006217
C99	C	1.451204	-0.262842	-0.951800
C100	C	1.951204	0.237158	-0.451800
C101	C	1.451236	-0.262823	-1.061524
C102	C	1.951236	0.237177	-0.561524
C103	C	1.585533	-0.343350	-1.061475
C104	C	2.085533	0.156650	-0.561475
C105	C	1.585495	-0.343371	-0.951753
C106	C	2.085495	0.156629	-0.451753
C107	C	1.373672	-0.216349	-0.951830
C108	C	1.873672	0.283651	-0.451830
C109	C	1.373704	-0.216330	-1.061554
C110	C	1.873704	0.283670	-0.561554
C111	C	1.518227	-0.303224	-0.233141
C112	C	2.018227	0.196776	0.266859
C113	C	1.518402	-0.303074	-0.116365
C114	C	2.018402	0.196926	0.383635
H115	H	1.118397	-0.230262	-0.628256
H116	H	1.618397	0.269738	-0.128256
N117	N	1.657962	-0.934836	-0.645969
N118	N	2.157962	-0.434836	-0.145969
H119	H	1.647746	-0.888212	-0.635752
H120	H	2.147746	-0.388212	-0.135752
H121	H	1.733015	-0.946295	-0.629697
H122	H	2.233015	-0.446295	-0.129697
N123	N	1.112923	-0.454441	-0.389722
N124	N	1.612923	0.045559	0.110278
H125	H	1.086589	-0.466096	-0.461773
H126	H	1.586589	0.033904	0.038227
H127	H	1.192077	-0.454418	-0.389657
H128	H	1.692077	0.045582	0.110343
H129	H	0.929736	-0.436193	-0.390086
H130	H	1.429736	0.063807	0.109914
N131	N	1.657888	-0.386807	-0.892548
N132	N	2.157888	0.113193	-0.392548
H133	H	1.615136	-0.415981	-0.847010
H134	H	2.115136	0.084019	-0.347010
H135	H	1.700430	-0.412265	-0.943996
H136	H	2.200430	0.087735	-0.443996
N137	N	1.402651	-0.151748	-1.101050
N138	N	1.902651	0.348252	-0.601050
H139	H	1.415553	-0.122943	-1.039533
H140	H	1.915553	0.377057	-0.539533
H141	H	1.468283	-0.154597	-1.145055
H142	H	1.968283	0.345403	-0.645055
N143	N	1.378542	-0.534283	-0.366292
N144	N	1.878542	-0.034283	0.133708
H145	H	1.336019	-0.565126	-0.323697
H146	H	1.836019	-0.065126	0.176303
H147	H	1.421322	-0.507010	-0.317702
H148	H	1.921322	-0.007010	0.182298
H149	H	1.396625	-1.063067	-0.384210
H150	H	1.896625	-0.563067	0.115790
H151	H	1.296399	-0.233781	-1.095575
H152	H	1.796399	0.266219	-0.595575
N153	N	1.658012	-1.071485	-0.646035
N154	N	2.158012	-0.571485	-0.146035
H155	H	1.700528	-1.040642	-0.688634
H156	H	2.200528	-0.540642	-0.188634
H157	H	1.706681	-1.098770	-0.603351
H158	H	2.206681	-0.598770	-0.103351
N159	N	1.657720	-0.533996	-0.645843
N160	N	2.157720	-0.033996	-0.145843
H161	H	1.732804	-0.545403	-0.629598
H162	H	2.232804	-0.045403	-0.129598
H163	H	1.641275	-0.545425	-0.720867
H164	H	2.141275	-0.045425	-0.220867
N165	N	0.904860	-0.219648	-0.646073
N166	N	1.404860	0.280352	-0.146073
H167	H	0.827018	-0.225755	-0.635872
H168	H	1.327018	0.274245	-0.135872
H169	H	0.924059	-0.174677	-0.629858
H170	H	1.424059	0.325323	-0.129858
N171	N	1.378807	-0.935124	-0.366393
N172	N	1.878807	-0.435124	0.133607
H173	H	1.336289	-0.965968	-0.323796
H174	H	1.836289	-0.465968	0.176204
H175	H	1.421588	-0.907850	-0.317805
H176	H	1.921588	-0.407850	0.182195
H177	H	1.640215	-0.376126	-1.106135
H178	H	2.140215	0.123874	-0.606135
H179	H	1.107518	-0.372324	-0.283822
H180	H	1.607518	0.127676	0.216178
H181	H	0.933977	-0.376741	-0.279757
H182	H	1.433977	0.123259	0.220243
N183	N	1.657811	-0.670644	-0.645879
N184	N	2.157811	-0.170644	-0.145879
H185	H	1.732877	-0.659171	-0.629616
H186	H	2.232877	-0.159171	-0.129616
H187	H	1.647561	-0.717278	-0.635652
H188	H	2.147561	-0.217278	-0.135652
H189	H	1.292277	-0.229404	-0.922048
H190	H	1.792277	0.270596	-0.422048
N191	N	1.378636	-0.670930	-0.366319
N192	N	1.878636	-0.170930	0.133681
H193	H	1.388860	-0.717554	-0.376529
H194	H	1.888860	-0.217554	0.123471
H195	H	1.395026	-0.659463	-0.291298
H196	H	1.895026	-0.159463	0.208702
H197	H	1.402857	-0.170046	-0.917823
H198	H	1.902857	0.329954	-0.417823
