data_functionalizedCrystal
_audit_creation_method	'MofGen! by Chris Wilmer'
_symmetry_space_group_name_H-M	'P1'
_symmetry_Int_Tables_number	1
_symmetry_cell_setting	triclinic
loop_
_symmetry_equiv_pos_as_xyz
  x,y,z
_cell_length_a	14.044220
_cell_length_b	14.044190
_cell_length_c	13.101018
_cell_angle_alpha	86.339369
_cell_angle_beta	93.664297
_cell_angle_gamma	93.190328
loop_
_atom_site_label
_atom_site_type_symbol
_atom_site_fract_x
_atom_site_fract_y
_atom_site_fract_z
O1	O	1.281981	0.225353	0.085126
O2	O	1.615315	0.558686	0.418459
O3	O	1.948648	0.892019	0.751792
O4	O	1.005311	0.217046	0.085151
O5	O	1.338645	0.550379	0.418484
O6	O	1.671978	0.883712	0.751818
O7	O	1.139489	0.082864	0.085119
O8	O	1.472822	0.416197	0.418452
O9	O	1.806156	0.749531	0.751785
O10	O	1.147804	0.359534	0.085158
O11	O	1.481137	0.692868	0.418491
O12	O	1.814470	1.026201	0.751825
O13	O	1.129850	0.092500	-0.085309
O14	O	1.463184	0.425833	0.248024
O15	O	1.796517	0.759166	0.581357
O16	O	0.995673	0.226681	-0.085277
O17	O	1.329006	0.560015	0.248056
O18	O	1.662339	0.893348	0.581390
O19	O	1.272343	0.234988	-0.085302
O20	O	1.605676	0.568322	0.248031
O21	O	1.939010	0.901655	0.581364
Zn22	Zn	1.132478	0.232365	-0.112349
Zn23	Zn	1.465811	0.565698	0.220985
Zn24	Zn	1.799144	0.899031	0.554318
Zn25	Zn	1.145177	0.219669	0.112197
Zn26	Zn	1.478510	0.553003	0.445531
Zn27	Zn	1.811843	0.886336	0.778864
O28	O	1.138165	0.369170	-0.085270
O29	O	1.471499	0.702503	0.248063
O30	O	1.804832	1.035837	0.581397
C31	C	0.964870	0.218228	-0.000060
C32	C	1.298204	0.551561	0.333273
C33	C	1.631537	0.884894	0.666607
C34	C	0.858728	0.207382	-0.000051
C35	C	1.192061	0.540716	0.333282
C36	C	1.525394	0.874049	0.666615
C37	C	0.664388	0.187557	-0.000075
C38	C	0.997722	0.520891	0.333259
C39	C	1.331055	0.854224	0.666592
C40	C	0.613261	0.264472	-0.000068
C41	C	0.946594	0.597805	0.333265
C42	C	1.279927	0.931138	0.666599
C43	C	0.505123	0.253441	-0.000081
C44	C	0.838457	0.586774	0.333253
C45	C	1.171790	0.920107	0.666586
C46	C	0.772535	0.198587	-0.000062
C47	C	1.105869	0.531920	0.333272
C48	C	1.439202	0.865254	0.666605
C49	C	1.131033	0.052060	-0.000098
C50	C	1.464366	0.385393	0.333235
C51	C	1.797700	0.718727	0.666569
C52	C	1.120185	-0.054083	-0.000106
C53	C	1.453519	0.279251	0.333227
C54	C	1.786852	0.612584	0.666561
C55	C	1.177288	-0.299543	-0.000071
C56	C	1.510621	0.033790	0.333262
C57	C	1.843954	0.367124	0.666596
C58	C	1.100371	-0.248418	-0.000071
C59	C	1.433705	0.084916	0.333262
C60	C	1.767038	0.418249	0.666595
C61	C	1.111398	-0.140280	-0.000091
C62	C	1.444732	0.193054	0.333243
C63	C	1.778065	0.526387	0.666576
C64	C	1.166262	-0.407691	-0.000052
C65	C	1.499595	-0.074358	0.333282
C66	C	1.832929	0.258976	0.666615
C67	C	1.312784	0.233806	-0.000089
C68	C	1.646118	0.567140	0.333244
C69	C	1.979451	0.900473	0.666578
C70	C	1.418927	0.244651	-0.000091
C71	C	1.752260	0.577984	0.333242
C72	C	2.085594	0.911318	0.666576
C73	C	1.146621	0.399974	-0.000051
C74	C	1.479955	0.733307	0.333282
C75	C	1.813288	1.066640	0.666616
C76	C	1.157470	0.506116	-0.000036
C77	C	1.490803	0.839449	0.333297
C78	C	1.824136	1.172783	0.666630
N79	N	1.123818	0.241029	-0.265596
N80	N	1.457151	0.574362	0.067738
N81	N	1.790484	0.907695	0.401071
C82	C	1.165620	0.199206	-0.525515
C83	C	1.498954	0.532539	-0.192182
C84	C	1.832287	0.865873	0.141151
C85	C	1.112044	0.252818	-0.474630
C86	C	1.445377	0.586151	-0.141296
C87	C	1.778711	0.919485	0.192037
C88	C	1.118597	0.246257	-0.358312
C89	C	1.451930	0.579590	-0.024979
C90	C	1.785263	0.912923	0.308354
C91	C	1.159069	0.205766	-0.641843
C92	C	1.492402	0.539100	-0.308510
C93	C	1.825735	0.872433	0.024824
N94	N	1.153843	0.210998	0.265444
N95	N	1.487177	0.544332	0.598778
N96	N	1.820510	0.877665	0.932111
H97	H	0.650703	0.338605	-0.000052
H98	H	0.984036	0.671938	0.333281
H99	H	1.317369	1.005271	0.666614
C100	C	1.000221	-0.299001	-0.000061
C101	C	1.333555	0.034333	0.333273
C102	C	1.666888	0.367666	0.666606
N103	N	0.924791	-0.337104	-0.000058
N104	N	1.258125	-0.003770	0.333275
N105	N	1.591458	0.329563	0.666609
H106	H	1.061255	0.303645	-0.518422
H107	H	1.394589	0.636978	-0.185089
H108	H	1.727922	0.970311	0.148244
C109	C	1.234222	0.130538	-0.466356
C110	C	1.567555	0.463872	-0.133023
C111	C	1.900889	0.797205	0.200310
N112	N	1.285891	0.078817	-0.421786
N113	N	1.619224	0.412150	-0.088452
N114	N	1.952557	0.745483	0.244881
H115	H	1.251413	-0.262101	-0.000088
H116	H	1.584747	0.071232	0.333245
H117	H	1.918080	0.404566	0.666578
C118	C	0.613808	0.087413	-0.000086
C119	C	0.947142	0.420746	0.333247
C120	C	1.280475	0.754080	0.666580
N121	N	0.575701	0.011985	-0.000090
N122	N	0.909034	0.345318	0.333243
N123	N	1.242368	0.678651	0.666576
