data_functionalizedCrystal
_audit_creation_method	'MofGen! by Chris Wilmer'
_symmetry_space_group_name_H-M	'P1'
_symmetry_Int_Tables_number	1
_symmetry_cell_setting	triclinic
loop_
_symmetry_equiv_pos_as_xyz
  x,y,z
_cell_length_a	19.077105
_cell_length_b	18.050589
_cell_length_c	19.076919
_cell_angle_alpha	92.275255
_cell_angle_beta	90.076224
_cell_angle_gamma	87.724731
loop_
_atom_site_label
_atom_site_type_symbol
_atom_site_fract_x
_atom_site_fract_y
_atom_site_fract_z
Zn1	Zn	1.058247	-0.359281	-0.440438
Zn2	Zn	1.062879	-0.478689	-0.322938
Zn3	Zn	0.945466	-0.349333	-0.318231
Zn4	Zn	0.940701	-0.478241	-0.435691
O5	O	1.001823	-0.416386	-0.379325
O6	O	1.157193	-0.379472	-0.428809
O7	O	1.051237	-0.457554	-0.223983
O8	O	0.960482	-0.246731	-0.334459
O9	O	1.160596	-0.467201	-0.342482
O10	O	1.043342	-0.254040	-0.424244
O11	O	0.964973	-0.362516	-0.220524
O12	O	0.846502	-0.362082	-0.329856
O13	O	0.952361	-0.466437	-0.534652
O14	O	0.843002	-0.456790	-0.416153
O15	O	1.038722	-0.379038	-0.538140
O16	O	1.046617	-0.582551	-0.337879
O17	O	0.956853	-0.582222	-0.420717
C18	C	0.819256	-0.408308	-0.371979
C19	C	0.741152	-0.404871	-0.368853
C20	C	0.702657	-0.452635	-0.412244
C21	C	0.629270	-0.449396	-0.409310
C22	C	0.594379	-0.398396	-0.362981
C23	C	0.632879	-0.350627	-0.319588
C24	C	0.706264	-0.353863	-0.322526
C25	C	0.375093	-0.383419	-0.349388
C26	C	0.301702	-0.380188	-0.346452
C27	C	0.298098	-0.478956	-0.436175
C28	C	0.371485	-0.482191	-0.439105
C29	C	0.409979	-0.434419	-0.395715
N30	N	0.519366	-0.395085	-0.359980
N31	N	0.484990	-0.437727	-0.398721
C32	C	1.001739	-0.609334	-0.379310
C33	C	1.001766	-0.691882	-0.379329
C34	C	0.952999	-0.891182	-0.424363
C35	C	0.938449	-0.937256	-0.359556
C36	C	1.001835	-0.843016	-0.379341
C37	C	1.016419	-0.944025	-0.444157
C38	C	1.001900	-0.989004	-0.379358
C39	C	0.987253	-0.887999	-0.314499
C40	C	1.065250	-0.894768	-0.399145
C41	C	1.050726	-0.940818	-0.334295
C42	C	1.001796	-0.758915	-0.379332
C43	C	1.001939	-1.073102	-0.379360
C44	C	1.185104	-0.424496	-0.386700
C45	C	1.263207	-0.427952	-0.389843
C46	C	0.994493	-0.423797	-0.562605
C47	C	0.991370	-0.426955	-0.640709
C48	C	1.001926	-0.222686	-0.379356
C49	C	1.001970	-0.140143	-0.379369
C50	C	1.034863	-0.382937	-0.679219
C51	C	1.031920	-0.385901	-0.752605
C52	C	0.985486	-0.432888	-0.787479
C53	C	0.941988	-0.476908	-0.748964
C54	C	0.944928	-0.473940	-0.675579
C55	C	0.971867	-0.446642	-1.006761
C56	C	0.968931	-0.449609	-1.080151
C57	C	1.058863	-0.358601	-1.083787
C58	C	1.061802	-0.355639	-1.010401
C59	C	1.018301	-0.399657	-0.971892
N60	N	0.982478	-0.435921	-0.862492
N61	N	1.021307	-0.396619	-0.896881
C62	C	1.009165	-0.408952	-0.196759
C63	C	1.012425	-0.405591	-0.118661
H64	H	0.406425	-0.344525	-0.314051
C65	C	0.594504	-0.294521	-0.268628
C66	C	0.607774	-0.297655	-0.189140
C67	C	0.569403	-0.241546	-0.138178
C68	C	0.517762	-0.182303	-0.166705
C69	C	0.504489	-0.179167	-0.246197
C70	C	0.542861	-0.235275	-0.297159
H71	H	0.646004	-0.341512	-0.168019
H72	H	0.579228	-0.243869	-0.079332
H73	H	0.489357	-0.140768	-0.128980
H74	H	0.466259	-0.135309	-0.267318
H75	H	0.533035	-0.232953	-0.356004
H76	H	0.737606	-0.314965	-0.287196
H77	H	0.911645	-0.869387	-0.462377
C78	C	0.970543	-0.855029	-0.240432
C79	C	0.967395	-0.770310	-0.226742
C80	C	0.950688	-0.737337	-0.152676
C81	C	0.937128	-0.789084	-0.092300
C82	C	0.940276	-0.873808	-0.105988
C83	C	0.956984	-0.906780	-0.180054
H84	H	0.977433	-0.731999	-0.271437
H85	H	0.948357	-0.674619	-0.142543
H86	H	0.924760	-0.764676	-0.037472
H87	H	0.930238	-0.912119	-0.061293
H88	H	0.959314	-0.969499	-0.190187
C89	C	0.890920	-0.528607	-0.787324
C90	C	0.843084	-0.577035	-0.744962
C91	C	0.792022	-0.628743	-0.783321
C92	C	0.788796	-0.632023	-0.864041
C93	C	0.836633	-0.583594	-0.906408
C94	C	0.887695	-0.531886	-0.868049
H95	H	0.845471	-0.574608	-0.685204
H96	H	0.756610	-0.664593	-0.751958
H97	H	0.750997	-0.670301	-0.892437
H98	H	0.834247	-0.586021	-0.966166
H99	H	0.923108	-0.496036	-0.899413
H100	H	1.092055	-0.962470	-0.296183
C101	C	0.897088	-0.522362	-0.633213
C102	C	0.816805	-0.513177	-0.640081
C103	C	0.768963	-0.561599	-0.597714
C104	C	0.801403	-0.619205	-0.548478
C105	C	0.881690	-0.628393	-0.541607
C106	C	0.929533	-0.579971	-0.583974
H107	H	0.792787	-0.470531	-0.676531
H108	H	0.709528	-0.554797	-0.602801
H109	H	0.765987	-0.655049	-0.517115
H110	H	0.905708	-0.671039	-0.505157
H111	H	0.988967	-0.586773	-0.578888
H112	H	0.731060	-0.494167	-0.449968
H113	H	0.884851	-0.956052	-0.342820
C114	C	1.033055	-0.977120	-0.518196
C115	C	1.098224	-1.029122	-0.530358
C116	C	1.114854	-1.062213	-0.604398
C117	C	1.066314	-1.043302	-0.666275
C118	C	1.001141	-0.991298	-0.654115
C119	C	0.984511	-0.958207	-0.580075
H120	H	1.134160	-1.043123	-0.484551
H121	H	1.163100	-1.100710	-0.613400
H122	H	1.078624	-1.067798	-0.721084
H123	H	0.965205	-0.977297	-0.699922
H124	H	0.936265	-0.919710	-0.571073
C125	C	1.137638	-0.869370	-0.421792
C126	C	1.166965	-0.893089	-0.494791
C127	C	1.239352	-0.867690	-0.517448
C128	C	1.282413	-0.818571	-0.467105
C129	C	1.253086	-0.794849	-0.394100
C130	C	1.180699	-0.820248	-0.371444
H131	H	1.135088	-0.929452	-0.532063
H132	H	1.261061	-0.885251	-0.571491
H133	H	1.335998	-0.799769	-0.483876
H134	H	1.284963	-0.758486	-0.356829
H135	H	1.158990	-0.802688	-0.317401
H136	H	1.072677	-0.344677	-0.650829
H137	H	1.067339	-0.350058	-0.783957
H138	H	0.936456	-0.482496	-0.975416
C139	C	0.917872	-0.501322	-1.118516
C140	C	0.870039	-0.549759	-1.076161
C141	C	0.818997	-0.601483	-1.114526
C142	C	0.815787	-0.604771	-1.195248
C143	C	0.863622	-0.556333	-1.237608
C144	C	0.914665	-0.504608	-1.199242
H145	H	0.872414	-0.547327	-1.016402
H146	H	0.783586	-0.637340	-1.083168
H147	H	0.778002	-0.643060	-1.223648
H148	H	0.861248	-0.558765	-1.297367
H149	H	0.950075	-0.468751	-1.230600
H150	H	1.099616	-0.317380	-0.982011
C151	C	1.106706	-0.310177	-1.126148
C152	C	1.103474	-0.313435	-1.206868
C153	C	1.151317	-0.265007	-1.249228
C154	C	1.202391	-0.213321	-1.210867
C155	C	1.205625	-0.210061	-1.130143
C156	C	1.157782	-0.258489	-1.087783
H157	H	1.065664	-0.351698	-1.235269
H158	H	1.148923	-0.267421	-1.308986
H159	H	1.237807	-0.177471	-1.242225
H160	H	1.243435	-0.171798	-1.101742
H161	H	1.160176	-0.256076	-1.028024
H162	H	0.399888	-0.523722	-0.476830
C163	C	0.586929	-0.501941	-0.457041
C164	C	0.597219	-0.586562	-0.451566
C165	C	0.554880	-0.639109	-0.499301
C166	C	0.502250	-0.607035	-0.552510
C167	C	0.491958	-0.522409	-0.557987
C168	C	0.534297	-0.469862	-0.510252
H169	H	0.636180	-0.610309	-0.412176
H170	H	0.562499	-0.701755	-0.495246
H171	H	0.470908	-0.645933	-0.587846
H172	H	0.452996	-0.498662	-0.597377
H173	H	0.526678	-0.407216	-0.514306
H174	H	0.266749	-0.517848	-0.471502
H175	H	0.273296	-0.338649	-0.308729
