data_functionalizedCrystal
_audit_creation_method	'MofGen! by Chris Wilmer'
_symmetry_space_group_name_H-M	'P1'
_symmetry_Int_Tables_number	1
_symmetry_cell_setting	triclinic
loop_
_symmetry_equiv_pos_as_xyz
  x,y,z
_cell_length_a	10.654562
_cell_length_b	9.130313
_cell_length_c	10.654551
_cell_angle_alpha	89.998448
_cell_angle_beta	84.487733
_cell_angle_gamma	90.003070
loop_
_atom_site_label
_atom_site_type_symbol
_atom_site_fract_x
_atom_site_fract_y
_atom_site_fract_z
O1	O	1.667825	0.121886	0.176469
O2	O	1.302349	0.121867	0.193258
O3	O	1.493490	0.121877	0.002125
O4	O	1.476685	0.121875	0.367602
O5	O	1.493487	-0.121721	0.002130
O6	O	1.302347	-0.121732	0.193264
O7	O	1.667823	-0.121713	0.176474
Cu8	Cu	1.485085	-0.143965	0.184869
Cu9	Cu	1.485087	0.144119	0.184863
O10	O	1.476683	-0.121724	0.367608
C11	C	1.255550	0.000065	0.192025
C12	C	1.116108	0.000058	0.188327
N13	N	1.485092	-0.346588	0.184873
C14	C	1.050576	-0.132716	0.186604
C15	C	0.919553	-0.132692	0.183140
C16	C	0.919606	0.132893	0.183125
C17	C	1.050627	0.132867	0.186580
C18	C	1.116056	-0.265525	0.188351
C19	C	1.050524	-0.398310	0.186630
C20	C	0.919502	-0.398286	0.183165
C21	C	0.854012	-0.265476	0.181421
C22	C	1.569751	-0.423235	0.100268
C23	C	1.569747	-0.576572	0.100253
C24	C	1.400422	-0.576601	0.269459
C25	C	1.400420	-0.423267	0.269467
C26	C	1.654422	-0.346556	0.015674
C27	C	1.739089	-0.423203	-0.068937
C28	C	1.739086	-0.576540	-0.068952
C29	C	1.654415	-0.653230	0.015644
C30	C	1.714622	0.000092	0.177708
C31	C	1.854064	0.000108	0.181406
C32	C	1.492254	0.000081	-0.044670
C33	C	1.488562	0.000091	-0.184114
N34	N	1.485090	0.346741	0.184850
C35	C	1.486831	0.132874	-0.249629
C36	C	1.483351	0.132867	-0.380649
C37	C	1.483338	-0.132718	-0.380629
C38	C	1.486809	-0.132709	-0.249610
C39	C	1.486844	0.286207	-0.249642
C40	C	1.483364	0.286201	-0.380663
C41	C	1.477918	0.000076	0.414403
C42	C	1.481610	0.000075	0.553846
H43	H	1.222741	-0.265560	0.191176
C44	C	1.830860	-0.660025	-0.160759
C45	C	1.812720	-0.810722	-0.142692
C46	C	1.897235	-0.887669	-0.227252
H47	H	1.914848	-0.635071	-0.146411
H48	H	1.816490	-0.634967	-0.244734
H49	H	1.827100	-0.835769	-0.058737
H50	H	1.728750	-0.835719	-0.157050
H51	H	1.882865	-0.862611	-0.311227
H52	H	1.981217	-0.862704	-0.212897
H53	H	1.884930	-0.989924	-0.215013
H54	H	1.331488	-0.639051	0.338334
C55	C	1.481641	-0.277002	-0.451609
C56	C	1.590325	-0.357132	-0.432900
C57	C	1.588798	-0.490064	-0.498251
H58	H	1.479386	-0.258197	-0.539049
H59	H	1.409138	-0.331640	-0.421170
H60	H	1.662809	-0.302505	-0.463345
H61	H	1.592603	-0.375976	-0.345474
H62	H	1.516294	-0.544702	-0.467812
H63	H	1.586539	-0.471244	-0.585687
H64	H	1.662532	-0.544454	-0.485556
H65	H	1.654411	-0.778087	0.015616
C66	C	1.121878	0.276979	0.188199
C67	C	1.210248	0.284739	0.082307
C68	C	1.275895	0.417485	0.083742
H69	H	1.164176	0.282632	0.262573
H70	H	1.064160	0.356118	0.186607
H71	H	1.267958	0.205622	0.083911
H72	H	1.167984	0.279111	0.007917
H73	H	1.218177	0.496624	0.082150
H74	H	1.318185	0.423126	0.158120
H75	H	1.335853	0.422774	0.011891
H76	H	0.866150	-0.506406	0.181754
C77	C	1.371009	0.364686	-0.188158
C78	C	1.296682	0.412684	-0.281534
C79	C	1.189961	0.484963	-0.224942
H80	H	1.396526	0.446517	-0.141764
H81	H	1.323500	0.299309	-0.132834
H82	H	1.344182	0.478058	-0.336836
H83	H	1.271132	0.330883	-0.327935
H84	H	1.142452	0.419586	-0.169618
H85	H	1.215490	0.566787	-0.178549
H86	H	1.139511	0.517527	-0.288288
H87	H	1.103856	-0.506439	0.188041
C88	C	0.848405	0.277032	0.181504
C89	C	0.760041	0.284813	0.287399
C90	C	0.694440	0.417582	0.285962
H91	H	0.806106	0.282705	0.107132
H92	H	0.906150	0.356151	0.183092
H93	H	0.702304	0.205716	0.285799
H94	H	0.802306	0.279166	0.361787
H95	H	0.752185	0.496701	0.287551
H96	H	0.652149	0.423243	0.211586
H97	H	0.634486	0.422885	0.357816
H98	H	1.578443	0.333787	-0.220073
H99	H	1.654435	-0.221702	0.015681
C100	C	1.830781	-0.339794	-0.160897
C101	C	1.763185	-0.251765	-0.238373
C102	C	1.847598	-0.174913	-0.323117
H103	H	1.881206	-0.407266	-0.211409
H104	H	1.883462	-0.279877	-0.115308
H105	H	1.710526	-0.311677	-0.283959
H106	H	1.712764	-0.184266	-0.187897
H107	H	1.900278	-0.114996	-0.277528
H108	H	1.898018	-0.242396	-0.373620
H109	H	1.801746	-0.115166	-0.375687
C110	C	1.308456	-0.340303	0.361468
C111	C	1.234336	-0.440270	0.435581
C112	C	1.149612	-0.363897	0.520355
H113	H	1.255671	-0.280480	0.315946
H114	H	1.354056	-0.280521	0.414242
H115	H	1.188739	-0.500026	0.382813
H116	H	1.287086	-0.500096	0.481130
H117	H	1.195211	-0.304116	0.573130
H118	H	1.096836	-0.304077	0.474823
H119	H	1.099319	-0.431713	0.570659
H120	H	0.747325	-0.265467	0.178597
H121	H	1.488211	-0.240834	-0.196272
H122	H	1.391768	0.333787	-0.410235
H123	H	1.570155	0.345078	-0.426951
