data_functionalizedCrystal
_audit_creation_method	'MofGen! by Chris Wilmer'
_symmetry_space_group_name_H-M	'P1'
_symmetry_Int_Tables_number	1
_symmetry_cell_setting	triclinic
loop_
_symmetry_equiv_pos_as_xyz
  x,y,z
_cell_length_a	14.908571
_cell_length_b	21.295417
_cell_length_c	14.909241
_cell_angle_alpha	86.669119
_cell_angle_beta	83.210755
_cell_angle_gamma	86.726349
loop_
_atom_site_label
_atom_site_type_symbol
_atom_site_fract_x
_atom_site_fract_y
_atom_site_fract_z
Zn1	Zn	1.413288	-0.283768	-0.591477
Zn2	Zn	1.746621	0.049565	-0.258143
Zn3	Zn	2.079955	0.382898	0.075190
Zn4	Zn	1.404421	-0.394784	-0.440090
Zn5	Zn	1.737755	-0.061451	-0.106757
Zn6	Zn	2.071088	0.271883	0.226576
Zn7	Zn	1.253184	-0.283784	-0.431408
Zn8	Zn	1.586517	0.049550	-0.098075
Zn9	Zn	1.919851	0.382883	0.235259
Zn10	Zn	1.261861	-0.383251	-0.582694
Zn11	Zn	1.595195	-0.049918	-0.249361
Zn12	Zn	1.928528	0.283416	0.083973
O13	O	1.333189	-0.336397	-0.511417
O14	O	1.666522	-0.003063	-0.178084
O15	O	1.999855	0.330270	0.155249
O16	O	1.538778	-0.303315	-0.578704
O17	O	1.872111	0.030018	-0.245371
O18	O	2.205444	0.363352	0.087963
O19	O	1.377017	-0.384893	-0.312269
O20	O	1.710350	-0.051559	0.021064
O21	O	2.043684	0.281774	0.354398
O22	O	1.274502	-0.195694	-0.452683
O23	O	1.607835	0.137640	-0.119350
O24	O	1.941168	0.470973	0.213983
O25	O	1.532263	-0.384878	-0.467481
O26	O	1.865597	-0.051544	-0.134148
O27	O	2.198930	0.281789	0.199186
O28	O	1.392129	-0.195682	-0.570285
O29	O	1.725463	0.137651	-0.236952
O30	O	2.058796	0.470984	0.096381
O31	O	1.265904	-0.303341	-0.305890
O32	O	1.599237	0.029992	0.027443
O33	O	1.932571	0.363326	0.360776
O34	O	1.127669	-0.292158	-0.444167
O35	O	1.461003	0.041175	-0.110834
O36	O	1.794336	0.374509	0.222499
O37	O	1.289291	-0.365221	-0.710528
O38	O	1.622624	-0.031888	-0.377195
O39	O	1.955957	0.301445	-0.043862
O40	O	1.134044	-0.365236	-0.555316
O41	O	1.467378	-0.031903	-0.221983
O42	O	1.800711	0.301430	0.111350
O43	O	1.400543	-0.292132	-0.716981
O44	O	1.733876	0.041201	-0.383648
O45	O	2.067210	0.374535	-0.050314
O46	O	1.385431	-0.481342	-0.458965
O47	O	1.718764	-0.148009	-0.125631
O48	O	2.052098	0.185325	0.207702
O49	O	1.280693	-0.472869	-0.563735
O50	O	1.614026	-0.139535	-0.230402
O51	O	1.947360	0.193798	0.102932
C52	C	1.098014	-0.327448	-0.497847
C53	C	1.431347	0.005886	-0.164514
C54	C	1.764680	0.339219	0.168820
C55	C	0.997406	-0.323634	-0.492063
C56	C	1.330739	0.009700	-0.158730
C57	C	1.664073	0.343033	0.174603
C58	C	0.815031	-0.392694	-0.596779
C59	C	1.148365	-0.059360	-0.263445
C60	C	1.481698	0.273973	0.069888
C61	C	0.720502	-0.389112	-0.591347
C62	C	1.053835	-0.055779	-0.258014
C63	C	1.387169	0.277555	0.075319
C64	C	0.713816	-0.312885	-0.475774
C65	C	1.047149	0.020448	-0.142441
C66	C	1.380482	0.353781	0.190892
C67	C	0.808345	-0.316467	-0.481206
C68	C	1.141679	0.016866	-0.147872
C69	C	1.475012	0.350200	0.185461
C70	C	0.858950	-0.356373	-0.541709
C71	C	1.192283	-0.023040	-0.208376
C72	C	1.525617	0.310293	0.124958
C73	C	0.953481	-0.359958	-0.547135
C74	C	1.286814	-0.026625	-0.213802
C75	C	1.620148	0.306708	0.119532
C76	C	0.946794	-0.283728	-0.431567
C77	C	1.280127	0.049605	-0.098234
C78	C	1.613460	0.382938	0.235099
C79	C	0.852264	-0.280147	-0.426136
C80	C	1.185597	0.053187	-0.092803
C81	C	1.518931	0.386520	0.240531
C82	C	1.333067	-0.499946	-0.511360
C83	C	1.666400	-0.166612	-0.178027
C84	C	1.999734	0.166721	0.155306
C85	C	1.333100	-0.569915	-0.511371
C86	C	1.666433	-0.236581	-0.178038
C87	C	1.999766	0.096752	0.155296
C88	C	1.387692	-0.607172	-0.456879
C89	C	1.721025	-0.273839	-0.123546
C90	C	2.054358	0.059494	0.209787
C91	C	1.387735	-0.672916	-0.456902
C92	C	1.721069	-0.339582	-0.123569
C93	C	2.054402	-0.006249	0.209765
C94	C	1.333170	-0.701399	-0.511406
C95	C	1.666503	-0.368065	-0.178073
C96	C	1.999837	-0.034732	0.155261
C97	C	1.278575	-0.664133	-0.565909
C98	C	1.611908	-0.330799	-0.232575
C99	C	1.945241	0.002534	0.100758
C100	C	1.278539	-0.598391	-0.565891
C101	C	1.611873	-0.265057	-0.232558
C102	C	1.945206	0.068276	0.100776
N103	N	1.254386	-0.801393	-0.513738
N104	N	1.587719	-0.468060	-0.180404
N105	N	1.921052	-0.134727	0.152929
N106	N	1.254421	-0.863846	-0.513749
N107	N	1.587755	-0.530512	-0.180416
N108	N	1.921088	-0.197179	0.152917
C109	C	1.333275	-0.899475	-0.511464
C110	C	1.666608	-0.566142	-0.178130
C111	C	1.999941	-0.232809	0.155203
N112	N	1.412091	-0.870294	-0.509149
N113	N	1.745425	-0.536960	-0.175815
N114	N	2.078758	-0.203627	0.157518
N115	N	1.412054	-0.807836	-0.509132
N116	N	1.745388	-0.474502	-0.175799
N117	N	2.078721	-0.141169	0.157534
C118	C	1.333203	-0.772684	-0.511432
C119	C	1.666536	-0.439351	-0.178098
C120	C	1.999869	-0.106018	0.155235
C121	C	1.387919	-1.008019	-0.456994
C122	C	1.721252	-0.674686	-0.123661
C123	C	2.054585	-0.341353	0.209673
C124	C	1.387964	-1.073764	-0.457023
C125	C	1.721297	-0.740430	-0.123690
C126	C	2.054631	-0.407097	0.209643
C127	C	1.278795	-1.064980	-0.566025
C128	C	1.612128	-0.731646	-0.232691
C129	C	1.945462	-0.398313	0.100642
C130	C	1.278758	-0.999237	-0.566001
C131	C	1.612091	-0.665903	-0.232667
C132	C	1.945425	-0.332570	0.100666
C133	C	1.333318	-0.970761	-0.511480
C134	C	1.666652	-0.637427	-0.178147
C135	C	1.999985	-0.304094	0.155186
C136	C	1.569282	-0.345381	-0.525041
C137	C	1.902615	-0.012048	-0.191707
C138	C	2.235949	0.321286	0.141626
C139	C	1.669891	-0.349210	-0.530846
C140	C	2.003224	-0.015876	-0.197513
C141	C	2.336557	0.317457	0.135820
C142	C	1.346874	-0.327388	-0.747517
C143	C	1.680207	0.005945	-0.414184
C144	C	2.013540	0.339278	-0.080850
C145	C	1.352706	-0.323550	-0.848129
C146	C	1.686039	0.009784	-0.514795
C147	C	2.019372	0.343117	-0.181462
C148	C	1.333336	-0.172209	-0.511496
C149	C	1.666670	0.161124	-0.178162
C150	C	2.000003	0.494457	0.155171
C151	C	1.333399	-0.102242	-0.511529
C152	C	1.666733	0.231091	-0.178196
C153	C	2.000066	0.564424	0.155138
C154	C	1.247819	-0.392459	-1.030471
C155	C	1.581152	-0.059126	-0.697138
C156	C	1.914486	0.274208	-0.363805
C157	C	1.253296	-0.388854	-1.125005
C158	C	1.586629	-0.055521	-0.791672
C159	C	1.919962	0.277813	-0.458338
C160	C	1.369139	-0.312739	-1.131731
C161	C	1.702472	0.020595	-0.798398
C162	C	2.035806	0.353928	-0.465064
C163	C	1.363663	-0.316344	-1.037198
C164	C	1.696996	0.016990	-0.703864
C165	C	2.030329	0.350323	-0.370531
C166	C	1.303000	-0.356204	-0.986571
C167	C	1.636333	-0.022871	-0.653238
C168	C	1.969666	0.310462	-0.319904
C169	C	1.297519	-0.359806	-0.892035
C170	C	1.630852	-0.026472	-0.558702
C171	C	1.964186	0.306861	-0.225369
C172	C	1.413366	-0.283694	-0.898764
C173	C	1.746700	0.049639	-0.565430
C174	C	2.080033	0.382973	-0.232097
C175	C	1.418843	-0.280089	-0.993297
C176	C	1.752176	0.053244	-0.659964
C177	C	2.085510	0.386578	-0.326630
C178	C	1.319609	-0.345326	-0.276239
C179	C	1.652942	-0.011993	0.057094
C180	C	1.986276	0.321340	0.390428
C181	C	1.313953	-0.348995	-0.175638
C182	C	1.647286	-0.015661	0.157695
C183	C	1.980619	0.317672	0.491029
H184	H	0.856234	-0.425191	-0.646038
H185	H	1.189568	-0.091857	-0.312705
H186	H	1.522901	0.241476	0.020629
H187	H	1.432425	-1.104098	-0.412652
H188	H	1.765759	-0.770765	-0.079318
H189	H	2.099092	-0.437432	0.254015
F190	F	0.673764	-0.427768	-0.649962
F191	F	1.007097	-0.094434	-0.316629
F192	F	1.340431	0.238899	0.016705
F193	F	0.993541	-0.245076	-0.372948
F194	F	1.326874	0.088258	-0.039615
F195	F	1.660208	0.421591	0.293719
H196	H	1.458294	-0.254169	-0.863010
H197	H	1.791627	0.079164	-0.529676
H198	H	2.124961	0.412497	-0.196343
F199	F	1.007337	-0.402431	-0.611525
F200	F	1.340670	-0.069098	-0.278191
F201	F	1.674004	0.264235	0.055142
F202	F	1.445841	-0.712575	-0.398901
F203	F	1.779174	-0.379242	-0.065568
F204	F	2.112508	-0.045909	0.267765
F205	F	1.232955	-0.402227	-0.838156
F206	F	1.566288	-0.068893	-0.504823
F207	F	1.899622	0.264440	-0.171489
H208	H	0.811049	-0.247654	-0.376879
H209	H	1.144382	0.085679	-0.043545
H210	H	1.477716	0.419012	0.289788
H211	H	1.234300	-0.968899	-0.610369
H212	H	1.567633	-0.635566	-0.277036
H213	H	1.900967	-0.302233	0.056298
H214	H	1.418535	-0.280292	-1.172968
H215	H	1.751868	0.053042	-0.839634
H216	H	2.085202	0.386375	-0.506301
F217	F	1.445770	-0.576870	-0.398864
F218	F	1.779104	-0.243536	-0.065531
F219	F	2.112437	0.089797	0.267802
H220	H	1.234149	-0.687328	-0.610288
H221	H	1.567482	-0.353994	-0.276955
H222	H	1.900816	-0.020661	0.056379
F223	F	0.659945	-0.270409	-0.411400
F224	F	0.993278	0.062924	-0.078067
F225	F	1.326611	0.396258	0.255267
H226	H	1.234083	-0.568055	-0.610266
H227	H	1.567417	-0.234721	-0.276932
H228	H	1.900750	0.098612	0.056401
H229	H	1.468235	-0.247638	-1.034530
H230	H	1.801569	0.085696	-0.701197
H231	H	2.134902	0.419029	-0.367864
H232	H	1.432348	-0.984833	-0.412603
H233	H	1.765681	-0.651500	-0.079270
H234	H	2.099015	-0.318167	0.254063
H235	H	1.234371	-1.088170	-0.610407
H236	H	1.567705	-0.754836	-0.277074
H237	H	1.901038	-0.421503	0.056259
F238	F	1.183251	-0.434875	-0.976588
F239	F	1.516584	-0.101542	-0.643255
F240	F	1.849917	0.231791	-0.309922
F241	F	1.194567	-0.427443	-1.171724
F242	F	1.527900	-0.094109	-0.838391
F243	F	1.861234	0.239224	-0.505057
