data_functionalizedCrystal
_audit_creation_method	'MofGen! by Chris Wilmer'
_symmetry_space_group_name_H-M	'P1'
_symmetry_Int_Tables_number	1
_symmetry_cell_setting	triclinic
loop_
_symmetry_equiv_pos_as_xyz
  x,y,z
_cell_length_a	8.559649
_cell_length_b	11.792241
_cell_length_c	7.681481
_cell_angle_alpha	84.218353
_cell_angle_beta	94.913240
_cell_angle_gamma	76.986040
loop_
_atom_site_label
_atom_site_type_symbol
_atom_site_fract_x
_atom_site_fract_y
_atom_site_fract_z
O1	O	2.104794	-0.026424	-0.146400
O2	O	1.640097	0.032148	-0.146410
O3	O	1.883724	-0.163342	-0.146392
O4	O	1.861167	0.169066	-0.146418
O5	O	1.913710	-0.187452	0.146467
O6	O	1.670083	0.008038	0.146450
O7	O	2.134780	-0.050534	0.146460
Zn8	Zn	1.907192	-0.025076	0.192953
Zn9	Zn	1.867684	0.006690	-0.192903
O10	O	1.891153	0.144956	0.146442
C11	C	1.595598	0.024531	0.000018
C12	C	1.418332	0.037744	0.000015
C13	C	1.897300	-0.217558	0.000037
C14	C	1.893059	-0.343183	0.000035
C15	C	1.885259	-0.573179	0.000005
C16	C	1.889593	-0.445192	0.000022
C17	C	2.179278	-0.042917	0.000027
C18	C	2.356543	-0.056128	0.000019
C19	C	1.877577	0.199172	0.000009
C20	C	1.881816	0.324799	-0.000001
N21	N	1.934167	-0.046757	0.456289
N22	N	1.840722	0.028361	-0.456239
H23	H	1.439256	-0.146604	0.000018
H24	H	1.335608	0.128227	-0.000001
C25	C	1.711846	0.131942	0.442176
C26	C	1.691601	0.148738	0.239409
C27	C	1.562722	0.252320	0.137811
C28	C	1.454088	0.339107	0.238981
C29	C	1.474330	0.322314	0.441760
C30	C	1.603209	0.218731	0.543358
H31	H	1.772021	0.084491	0.164506
H32	H	1.547739	0.264751	-0.012300
H33	H	1.358685	0.415785	0.163773
H34	H	1.393910	0.386561	0.516663
H35	H	1.618192	0.206300	0.693469
C36	C	2.063050	-0.150343	0.557881
C37	C	2.083682	-0.166906	0.760649
C38	C	2.212563	-0.270490	0.862241
C39	C	2.320811	-0.357511	0.761064
C40	C	2.300182	-0.340951	0.558285
C41	C	2.171302	-0.237367	0.456693
H42	H	2.003547	-0.102485	0.835557
H43	H	2.227833	-0.282748	1.012353
H44	H	2.416216	-0.434190	0.836269
H45	H	2.380317	-0.405372	0.483378
H46	H	2.156032	-0.225109	0.306582
