data_functionalizedCrystal
_audit_creation_method	'MofGen! by Chris Wilmer'
_symmetry_space_group_name_H-M	'P1'
_symmetry_Int_Tables_number	1
_symmetry_cell_setting	triclinic
loop_
_symmetry_equiv_pos_as_xyz
  x,y,z
_cell_length_a	8.497374
_cell_length_b	10.686285
_cell_length_c	10.686220
_cell_angle_alpha	89.654569
_cell_angle_beta	94.365928
_cell_angle_gamma	94.373140
loop_
_atom_site_label
_atom_site_type_symbol
_atom_site_fract_x
_atom_site_fract_y
_atom_site_fract_z
Zn1	Zn	0.670936	-0.352260	-1.956019
Zn2	Zn	0.385530	-0.561976	-1.972080
Zn3	Zn	0.425706	-0.368352	-1.746303
Zn4	Zn	0.667804	-0.578080	-1.762345
O5	O	0.537494	-0.465167	-1.859187
O6	O	0.617574	-0.366604	-2.133691
O7	O	0.170096	-0.536286	-1.942138
O8	O	0.476361	-0.190679	-1.760688
O9	O	0.407887	-0.520682	-2.145490
O10	O	0.656531	-0.178855	-1.914765
O11	O	0.199614	-0.394032	-1.776261
O12	O	0.473323	-0.409648	-1.572890
O13	O	0.888982	-0.548130	-1.788028
O14	O	0.651192	-0.563734	-1.584676
O15	O	0.891283	-0.382220	-1.930319
O16	O	0.404849	-0.739651	-1.957693
O17	O	0.612235	-0.751483	-1.803601
C18	C	0.566278	-0.490185	-1.533267
C19	C	0.578626	-0.500919	-1.393839
C20	C	0.503874	-0.791080	-1.884165
C21	C	0.489534	-0.930498	-1.894965
C22	C	0.948975	-0.465170	-1.859177
C23	C	1.127617	-0.465183	-1.859181
C24	C	0.508598	-0.440052	-2.186379
C25	C	0.496284	-0.429349	-2.325809
C26	C	0.571276	-0.137979	-1.834145
C27	C	0.585673	0.001449	-1.823474
H28	H	0.678954	-0.950157	-1.754006
O29	O	0.400805	-0.346612	-1.383719
C30	C	0.284757	-0.412139	-1.464948
H31	H	0.328680	-0.505786	-1.491758
H32	H	0.260928	-0.354005	-1.553212
H33	H	0.170825	-0.429611	-1.415560
O34	O	0.673981	-0.583723	-1.335874
C35	C	0.665476	-0.576391	-1.204898
H36	H	0.625555	-0.480875	-1.179680
H37	H	0.787096	-0.588843	-1.155693
H38	H	0.576902	-0.653523	-1.173411
H39	H	0.396237	-0.978900	-1.964429
