data_functionalizedCrystal
_audit_creation_method	'MofGen! by Chris Wilmer'
_symmetry_space_group_name_H-M	'P1'
_symmetry_Int_Tables_number	1
_symmetry_cell_setting	triclinic
loop_
_symmetry_equiv_pos_as_xyz
  x,y,z
_cell_length_a	19.805407
_cell_length_b	19.077068
_cell_length_c	19.805399
_cell_angle_alpha	87.730571
_cell_angle_beta	90.019573
_cell_angle_gamma	92.327086
loop_
_atom_site_label
_atom_site_type_symbol
_atom_site_fract_x
_atom_site_fract_y
_atom_site_fract_z
Zn1	Zn	1.023904	-0.280218	0.393534
Zn2	Zn	1.273904	-0.030218	0.643534
Zn3	Zn	1.523904	0.219782	0.893534
Zn4	Zn	1.773904	0.469782	1.143534
Zn5	Zn	1.019269	-0.397917	0.284888
Zn6	Zn	1.269269	-0.147917	0.534888
Zn7	Zn	1.519269	0.102083	0.784888
Zn8	Zn	1.769269	0.352083	1.034888
Zn9	Zn	0.910718	-0.280237	0.280359
Zn10	Zn	1.160718	-0.030237	0.530359
Zn11	Zn	1.410718	0.219763	0.780359
Zn12	Zn	1.660718	0.469763	1.030359
Zn13	Zn	0.906134	-0.397880	0.398033
Zn14	Zn	1.156134	-0.147880	0.648033
Zn15	Zn	1.406134	0.102120	0.898033
Zn16	Zn	1.656134	0.352120	1.148033
O17	O	0.965006	-0.339063	0.339204
O18	O	1.215006	-0.089063	0.589204
O19	O	1.465006	0.160937	0.839204
O20	O	1.715006	0.410937	1.089204
O21	O	1.118005	-0.295839	0.379134
O22	O	1.368005	-0.045839	0.629134
O23	O	1.618005	0.204161	0.879134
O24	O	1.868005	0.454161	1.129134
O25	O	1.004848	-0.382330	0.189571
O26	O	1.254848	-0.132330	0.439571
O27	O	1.504848	0.117670	0.689571
O28	O	1.754848	0.367670	0.939571
O29	O	0.929590	-0.181744	0.291594
O30	O	1.179590	0.068256	0.541594
O31	O	1.429590	0.318256	0.791594
O32	O	1.679590	0.568256	1.041594
O33	O	1.114600	-0.382312	0.299312
O34	O	1.364600	-0.132312	0.549312
O35	O	1.614600	0.117688	0.799312
O36	O	1.864600	0.367688	1.049312
O37	O	1.012748	-0.181729	0.374743
O38	O	1.262748	0.068271	0.624743
O39	O	1.512748	0.318271	0.874743
O40	O	1.762748	0.568271	1.124743
O41	O	0.925096	-0.295872	0.186244
O42	O	1.175096	-0.045872	0.436244
O43	O	1.425096	0.204128	0.686244
O44	O	1.675096	0.454128	0.936244
O45	O	0.815394	-0.295835	0.295957
O46	O	1.065394	-0.045835	0.545957
O47	O	1.315394	0.204165	0.795957
O48	O	1.565394	0.454165	1.045957
O49	O	0.921778	-0.382248	0.492152
O50	O	1.171778	-0.132248	0.742152
O51	O	1.421778	0.117752	0.992152
O52	O	1.671778	0.367752	1.242152
O53	O	0.812026	-0.382267	0.382411
O54	O	1.062026	-0.132267	0.632411
O55	O	1.312026	0.117733	0.882411
O56	O	1.562026	0.367733	1.132411
O57	O	1.008303	-0.295802	0.488846
O58	O	1.258303	-0.045802	0.738846
O59	O	1.508303	0.204198	0.988846
O60	O	1.758303	0.454198	1.238846
O61	O	1.000404	-0.496403	0.303675
O62	O	1.250404	-0.246403	0.553675
O63	O	1.500404	0.003597	0.803675
O64	O	1.750404	0.253597	1.053675
O65	O	0.917284	-0.496376	0.386802
O66	O	1.167284	-0.246376	0.636802
O67	O	1.417284	0.003624	0.886802
O68	O	1.667284	0.253624	1.136802
C69	C	0.789151	-0.339050	0.339181
C70	C	1.039151	-0.089050	0.589181
C71	C	1.289151	0.160950	0.839181
C72	C	1.539151	0.410950	1.089181
C73	C	0.713918	-0.339061	0.339188
C74	C	0.963918	-0.089061	0.589188
C75	C	1.213918	0.160939	0.839188
C76	C	1.463918	0.410939	1.089188
C77	C	0.676836	-0.384133	0.384138
C78	C	0.926836	-0.134133	0.634138
C79	C	1.176836	0.115867	0.884138
C80	C	1.426836	0.365867	1.134138
C81	C	0.606147	-0.384135	0.384147
C82	C	0.856147	-0.134135	0.634147
C83	C	1.106147	0.115865	0.884147
C84	C	1.356147	0.365865	1.134147
C85	C	0.572543	-0.339066	0.339204
C86	C	0.822543	-0.089066	0.589204
C87	C	1.072543	0.160934	0.839204
C88	C	1.322543	0.410934	1.089204
C89	C	0.609630	-0.293989	0.294252
C90	C	0.859630	-0.043989	0.544252
C91	C	1.109630	0.206011	0.794252
C92	C	1.359630	0.456011	1.044252
C93	C	0.680318	-0.293985	0.294246
C94	C	0.930318	-0.043985	0.544246
C95	C	1.180318	0.206015	0.794246
C96	C	1.430318	0.456015	1.044246
C97	C	0.324556	-0.294004	0.294275
C98	C	0.574556	-0.044004	0.544275
C99	C	0.824556	0.205996	0.794275
C100	C	1.074556	0.455996	1.044275
C101	C	0.253864	-0.294014	0.294283
C102	C	0.503864	-0.044014	0.544283
C103	C	0.753864	0.205986	0.794283
C104	C	1.003864	0.455986	1.044283
C105	C	0.250386	-0.384154	0.384176
C106	C	0.500386	-0.134154	0.634176
C107	C	0.750386	0.115846	0.884176
C108	C	1.000386	0.365846	1.134176
C109	C	0.321073	-0.384150	0.384170
C110	C	0.571073	-0.134150	0.634170
C111	C	0.821073	0.115850	0.884170
C112	C	1.071073	0.365850	1.134170
C113	C	0.358155	-0.339070	0.339221
C114	C	0.608155	-0.089070	0.589221
C115	C	0.858155	0.160930	0.839221
C116	C	1.108155	0.410930	1.089221
C117	C	0.434804	-0.339069	0.339212
C118	C	0.684804	-0.089069	0.589212
C119	C	0.934804	0.160931	0.839212
C120	C	1.184804	0.410931	1.089212
C121	C	0.495895	-0.339071	0.339209
C122	C	0.745895	-0.089071	0.589209
C123	C	0.995895	0.160929	0.839209
C124	C	1.245895	0.410929	1.089209
C125	C	0.957862	-0.521927	0.346233
C126	C	1.207862	-0.271927	0.596233
C127	C	1.457862	-0.021927	0.846233
C128	C	1.707862	0.228073	1.096233
C129	C	0.954867	-0.600157	0.349263
C130	C	1.204867	-0.350157	0.599263
C131	C	1.454867	-0.100157	0.849263
C132	C	1.704867	0.149843	1.099263
C133	C	0.996770	-0.636901	0.307443
C134	C	1.246770	-0.386901	0.557443
C135	C	1.496770	-0.136901	0.807443
C136	C	1.746770	0.113099	1.057443
C137	C	0.993957	-0.710406	0.310296
C138	C	1.243957	-0.460406	0.560296
C139	C	1.493957	-0.210406	0.810296
C140	C	1.743957	0.039594	1.060296
C141	C	0.949238	-0.747167	0.354968
C142	C	1.199238	-0.497167	0.604968
C143	C	1.449238	-0.247167	0.854968
C144	C	1.699238	0.002833	1.104968
C145	C	0.907333	-0.710418	0.396793
C146	C	1.157333	-0.460418	0.646793
C147	C	1.407333	-0.210418	0.896793
C148	C	1.657333	0.039582	1.146793
C149	C	0.910150	-0.636914	0.393942
C150	C	1.160150	-0.386914	0.643942
C151	C	1.410150	-0.136914	0.893942
C152	C	1.660150	0.113086	1.143942
C153	C	0.936174	-0.967002	0.368135
C154	C	1.186174	-0.717002	0.618135
C155	C	1.436174	-0.467002	0.868135
C156	C	1.686174	-0.217002	1.118135
C157	C	0.933359	-1.040511	0.370981
C158	C	1.183359	-0.790511	0.620981
C159	C	1.433359	-0.540511	0.870981
C160	C	1.683359	-0.290511	1.120981
C161	C	1.019984	-1.040494	0.284485
C162	C	1.269984	-0.790494	0.534485
C163	C	1.519984	-0.540494	0.784485
C164	C	1.769984	-0.290494	1.034485
C165	C	1.022794	-0.966989	0.281635
C166	C	1.272794	-0.716989	0.531635
C167	C	1.522794	-0.466989	0.781635
C168	C	1.772794	-0.216989	1.031635
C169	C	0.980892	-0.930246	0.323463
C170	C	1.230892	-0.680246	0.573463
C171	C	1.480892	-0.430246	0.823463
C172	C	1.730892	-0.180246	1.073463
N173	N	0.946361	-0.822301	0.357884
N174	N	1.196361	-0.572301	0.607884
N175	N	1.446361	-0.322301	0.857884
N176	N	1.696361	-0.072301	1.107884
N177	N	0.983773	-0.855113	0.320549
N178	N	1.233773	-0.605113	0.570549
N179	N	1.483773	-0.355113	0.820549
N180	N	1.733773	-0.105113	1.070549
C181	C	1.141548	-0.339077	0.339226
C182	C	1.391548	-0.089077	0.589226
C183	C	1.641548	0.160923	0.839226
C184	C	1.891548	0.410923	1.089226
C185	C	1.216780	-0.339083	0.339236
C186	C	1.466780	-0.089083	0.589236
C187	C	1.716780	0.160917	0.839236
C188	C	1.966780	0.410917	1.089236
C189	C	0.965046	-0.339019	0.515745
C190	C	1.215046	-0.089019	0.765745
C191	C	1.465046	0.160981	1.015745
C192	C	1.715046	0.410981	1.265745
C193	C	0.965063	-0.339000	0.590976
C194	C	1.215063	-0.089000	0.840976
C195	C	1.465063	0.161000	1.090976
C196	C	1.715063	0.411000	1.340976
C197	C	0.972197	-0.155485	0.332161
C198	C	1.222197	0.094515	0.582161
C199	C	1.472197	0.344515	0.832161
C200	C	1.722197	0.594515	1.082161
C201	C	0.975262	-0.077255	0.329160
C202	C	1.225262	0.172745	0.579160
C203	C	1.475262	0.422745	0.829160
C204	C	1.725262	0.672745	1.079160
C205	C	0.965008	-0.339056	0.163347
C206	C	1.215008	-0.089056	0.413347
C207	C	1.465008	0.160944	0.663347
C208	C	1.715008	0.410944	0.913347
C209	C	0.965130	-0.338877	0.088109
C210	C	1.215130	-0.088877	0.338109
C211	C	1.465130	0.161123	0.588109
C212	C	1.715130	0.411123	0.838109
C213	C	1.010118	-0.293985	0.624600
C214	C	1.260118	-0.043985	0.874600
C215	C	1.510118	0.206015	1.124600
C216	C	1.760118	0.456015	1.374600
C217	C	1.010125	-0.293965	0.695288
C218	C	1.260125	-0.043965	0.945288
C219	C	1.510125	0.206035	1.195288
C220	C	1.760125	0.456035	1.445288
C221	C	0.965081	-0.338963	0.732350
C222	C	1.215081	-0.088963	0.982350
C223	C	1.465081	0.161037	1.232350
C224	C	1.715081	0.411037	1.482350
C225	C	0.920022	-0.383980	0.698721
C226	C	1.170022	-0.133980	0.948721
C227	C	1.420022	0.116020	1.198721
C228	C	1.670022	0.366020	1.448721
C229	C	0.920011	-0.383996	0.628035
C230	C	1.170011	-0.133996	0.878035
C231	C	1.420011	0.116004	1.128035
C232	C	1.670011	0.366004	1.378035
C233	C	0.920062	-0.383914	0.983792
C234	C	1.170062	-0.133914	1.233792
C235	C	1.420062	0.116086	1.483792
C236	C	1.670062	0.366086	1.733792
C237	C	0.920078	-0.383896	1.054484
C238	C	1.170078	-0.133896	1.304484
C239	C	1.420078	0.116104	1.554484
C240	C	1.670078	0.366104	1.804484
C241	C	1.010177	-0.293883	1.051045
C242	C	1.260177	-0.043883	1.301045
C243	C	1.510177	0.206117	1.551045
C244	C	1.760177	0.456117	1.801045
C245	C	1.010166	-0.293899	0.980358
C246	C	1.260166	-0.043899	1.230358
C247	C	1.510166	0.206101	1.480358
C248	C	1.760166	0.456101	1.730358
C249	C	0.965104	-0.338913	0.946736
C250	C	1.215104	-0.088913	1.196736
C251	C	1.465104	0.161087	1.446736
C252	C	1.715104	0.411087	1.696736
C253	C	0.965096	-0.338934	0.870088
C254	C	1.215096	-0.088934	1.120088
C255	C	1.465096	0.161066	1.370088
C256	C	1.715096	0.411066	1.620088
C257	C	0.965093	-0.338947	0.808997
C258	C	1.215093	-0.088947	1.058997
C259	C	1.465093	0.161053	1.308997
C260	C	1.715093	0.411053	1.558997
H261	H	0.348430	-0.420852	0.420766
H262	H	0.598430	-0.170852	0.670766
H263	H	0.848430	0.079148	0.920766
H264	H	1.098430	0.329148	1.170766
H265	H	1.046815	-0.257311	0.722661
H266	H	1.296815	-0.007311	0.972661
H267	H	1.546815	0.242689	1.222661
H268	H	1.796815	0.492689	1.472661
H269	H	0.575957	-0.420838	0.420749
H270	H	0.825957	-0.170838	0.670749
H271	H	1.075957	0.079162	0.920749
H272	H	1.325957	0.329162	1.170749
H273	H	0.902054	-0.937092	0.402191
H274	H	1.152054	-0.687092	0.652191
H275	H	1.402054	-0.437092	0.902191
H276	H	1.652054	-0.187092	1.152191
C277	C	0.209595	-0.433735	0.433626
C278	C	0.459595	-0.183735	0.683626
C279	C	0.709595	0.066265	0.933626
C280	C	0.959595	0.316265	1.183626
H281	H	0.162683	-0.427280	0.427201
H282	H	0.412683	-0.177280	0.677201
H283	H	0.662683	0.072720	0.927201
H284	H	0.912683	0.322720	1.177201
H285	H	0.219329	-0.481010	0.425462
H286	H	0.469329	-0.231010	0.675462
H287	H	0.719329	0.018990	0.925462
H288	H	0.969329	0.268990	1.175462
H289	H	0.221602	-0.423492	0.478727
H290	H	0.471602	-0.173492	0.728727
H291	H	0.721602	0.076508	0.978727
H292	H	0.971602	0.326508	1.228727
C293	C	1.059666	-0.244489	0.583834
C294	C	1.309666	0.005511	0.833834
C295	C	1.559666	0.255511	1.083834
C296	C	1.809666	0.505511	1.333834
H297	H	1.053213	-0.250948	0.536920
H298	H	1.303213	-0.000948	0.786920
H299	H	1.553213	0.249052	1.036920
H300	H	1.803213	0.499052	1.286920
H301	H	1.051616	-0.197196	0.593603
H302	H	1.301616	0.052804	0.843603
H303	H	1.551616	0.302804	1.093603
H304	H	1.801616	0.552804	1.343603
H305	H	1.104743	-0.254795	0.595824
H306	H	1.354743	-0.004795	0.845824
H307	H	1.604743	0.245205	1.095824
H308	H	1.854743	0.495205	1.345824
C309	C	0.365341	-0.244423	0.244832
C310	C	0.615341	0.005577	0.494832
C311	C	0.865341	0.255577	0.744832
C312	C	1.115341	0.505577	0.994832
H313	H	0.412253	-0.250866	0.251268
H314	H	0.662253	-0.000866	0.501268
H315	H	0.912253	0.249134	0.751268
H316	H	1.162253	0.499134	1.001268
H317	H	0.353337	-0.254661	0.199733
H318	H	0.603337	-0.004661	0.449733
H319	H	0.853337	0.245339	0.699733
H320	H	1.103337	0.495339	0.949733
H321	H	0.355602	-0.197147	0.253002
H322	H	0.605602	0.052853	0.503002
H323	H	0.855602	0.302853	0.753002
H324	H	1.105602	0.552853	1.003002
C325	C	1.059740	-0.244363	1.088032
C326	C	1.309740	0.005637	1.338032
C327	C	1.559740	0.255637	1.588032
C328	C	1.809740	0.505637	1.838032
H329	H	1.053293	-0.250791	1.135438
H330	H	1.303293	-0.000791	1.385438
H331	H	1.553293	0.249209	1.635438
H332	H	1.803293	0.499209	1.885438
H333	H	1.104810	-0.254673	1.076851
H334	H	1.354810	-0.004673	1.326851
H335	H	1.604810	0.245327	1.576851
H336	H	1.854810	0.495327	1.826851
H337	H	1.051683	-0.197073	1.074629
H338	H	1.301683	0.052927	1.324629
H339	H	1.551683	0.302927	1.574629
H340	H	1.801683	0.552927	1.824629
H341	H	0.883380	-0.420577	0.956426
H342	H	1.133380	-0.170577	1.206426
H343	H	1.383380	0.079423	1.456426
H344	H	1.633380	0.329423	1.706426
H345	H	0.883316	-0.420644	0.600659
H346	H	1.133316	-0.170644	0.850659
H347	H	1.383316	0.079356	1.100659
H348	H	1.633316	0.329356	1.350659
H349	H	0.704191	-0.420836	0.420734
H350	H	0.954191	-0.170836	0.670734
H351	H	1.204191	0.079164	0.920734
H352	H	1.454191	0.329164	1.170734
C353	C	1.040047	-0.750822	0.264290
C354	C	1.290047	-0.500822	0.514290
C355	C	1.540047	-0.250822	0.764290
C356	C	1.790047	-0.000822	1.014290
H357	H	1.067077	-0.718401	0.237271
H358	H	1.317077	-0.468401	0.487271
H359	H	1.567077	-0.218401	0.737271
H360	H	1.817077	0.031599	0.987271
H361	H	1.068429	-0.779452	0.291316
H362	H	1.318429	-0.529452	0.541316
H363	H	1.568429	-0.279452	0.791316
H364	H	1.818429	-0.029452	1.041316
H365	H	1.013066	-0.779538	0.235888
H366	H	1.263066	-0.529538	0.485888
H367	H	1.513066	-0.279538	0.735888
H368	H	1.763066	-0.029538	0.985888
C369	C	1.059712	-0.244402	0.939590
C370	C	1.309712	0.005598	1.189590
C371	C	1.559712	0.255598	1.439590
C372	C	1.809712	0.505598	1.689590
H373	H	1.053256	-0.250863	0.892676
H374	H	1.303256	-0.000863	1.142676
H375	H	1.553256	0.249137	1.392676
H376	H	1.803256	0.499137	1.642676
H377	H	1.051660	-0.197109	0.949359
H378	H	1.301660	0.052891	1.199359
H379	H	1.551660	0.302891	1.449359
H380	H	1.801660	0.552891	1.699359
H381	H	1.104790	-0.254707	0.951577
H382	H	1.354790	-0.004707	1.201577
H383	H	1.604790	0.245293	1.451577
H384	H	1.854790	0.495293	1.701577
C385	C	0.216900	-0.244431	0.244848
C386	C	0.466900	0.005569	0.494848
C387	C	0.716900	0.255569	0.744848
C388	C	0.966900	0.505569	0.994848
H389	H	0.249108	-0.217576	0.218082
H390	H	0.499108	0.032424	0.468082
H391	H	0.749108	0.282424	0.718082
H392	H	0.999108	0.532424	0.968082
H393	H	0.188263	-0.271312	0.216348
H394	H	0.438263	-0.021312	0.466348
H395	H	0.688263	0.228688	0.716348
H396	H	0.938263	0.478688	0.966348
H397	H	0.190532	-0.213804	0.269623
H398	H	0.440532	0.036196	0.519623
H399	H	0.690532	0.286196	0.769623
H400	H	0.940532	0.536196	1.019623
C401	C	0.870522	-0.433391	1.095252
C402	C	1.120522	-0.183391	1.345252
C403	C	1.370522	0.066609	1.595252
C404	C	1.620522	0.316609	1.845252
H405	H	0.843678	-0.460197	1.065104
H406	H	1.093678	-0.210197	1.315104
H407	H	1.343678	0.039803	1.565104
H408	H	1.593678	0.289803	1.815104
H409	H	0.895214	-0.464055	1.124008
H410	H	1.145214	-0.214055	1.374008
H411	H	1.395214	0.035945	1.624008
H412	H	1.645214	0.285945	1.874008
H413	H	0.842093	-0.406448	1.121787
H414	H	1.092093	-0.156448	1.371787
H415	H	1.342093	0.093552	1.621787
H416	H	1.592093	0.343552	1.871787
H417	H	0.582264	-0.257290	0.257661
H418	H	0.832264	-0.007290	0.507661
H419	H	1.082264	0.242710	0.757661
H420	H	1.332264	0.492710	1.007661
C421	C	0.884165	-1.080950	0.420119
C422	C	1.134165	-0.830950	0.670119
C423	C	1.384165	-0.580950	0.920119
C424	C	1.634165	-0.330950	1.170119
H425	H	0.888484	-1.129988	0.415818
H426	H	1.138484	-0.879988	0.665818
H427	H	1.388484	-0.629988	0.915818
H428	H	1.638484	-0.379988	1.165818
H429	H	0.894505	-1.068870	0.465139
H430	H	1.144505	-0.818870	0.715139
H431	H	1.394505	-0.568870	0.965139
H432	H	1.644505	-0.318870	1.215139
H433	H	0.839152	-1.068947	0.409701
H434	H	1.089152	-0.818947	0.659701
H435	H	1.339152	-0.568947	0.909701
H436	H	1.589152	-0.318947	1.159701
H437	H	0.883343	-0.420615	0.728903
H438	H	1.133343	-0.170615	0.978903
H439	H	1.383343	0.079385	1.228903
H440	H	1.633343	0.329385	1.478903
C441	C	0.721109	-0.244404	0.244803
C442	C	0.971109	0.005596	0.494803
C443	C	1.221109	0.255596	0.744803
C444	C	1.471109	0.505596	0.994803
H445	H	0.690972	-0.217566	0.218034
H446	H	0.940972	0.032434	0.468034
H447	H	1.190972	0.282434	0.718034
H448	H	1.440972	0.532434	0.968034
H449	H	0.749889	-0.213773	0.269566
H450	H	0.999889	0.036227	0.519566
H451	H	1.249889	0.286227	0.769566
H452	H	1.499889	0.536227	1.019566
H453	H	0.747623	-0.271286	0.216297
H454	H	0.997623	-0.021286	0.466297
H455	H	1.247623	0.228714	0.716297
H456	H	1.497623	0.478714	0.966297
H457	H	1.059207	-0.937060	0.245260
H458	H	1.309207	-0.687060	0.495260
H459	H	1.559207	-0.437060	0.745260
H460	H	1.809207	-0.187060	0.995260
C461	C	1.045963	-0.596471	0.258305
C462	C	1.295963	-0.346471	0.508305
C463	C	1.545963	-0.096471	0.758305
C464	C	1.795963	0.153529	1.008305
H465	H	1.070520	-0.628884	0.233812
H466	H	1.320520	-0.378884	0.483812
H467	H	1.570520	-0.128884	0.733812
H468	H	1.820520	0.121116	0.983812
H469	H	1.021189	-0.567838	0.227677
H470	H	1.271189	-0.317838	0.477677
H471	H	1.521189	-0.067838	0.727677
H472	H	1.771189	0.182162	0.977677
H473	H	1.076541	-0.567755	0.283116
H474	H	1.326541	-0.317755	0.533116
H475	H	1.576541	-0.067755	0.783116
H476	H	1.826541	0.182245	1.033116
H477	H	0.870925	-0.740354	0.433168
H478	H	1.120925	-0.490354	0.683168
H479	H	1.370925	-0.240354	0.933168
H480	H	1.620925	0.009646	1.183168
C481	C	1.066077	-1.080912	0.238484
C482	C	1.316077	-0.830912	0.488484
C483	C	1.566077	-0.580912	0.738484
C484	C	1.816077	-0.330912	0.988484
H485	H	1.058000	-1.129953	0.246582
H486	H	1.308000	-0.879953	0.496582
H487	H	1.558000	-0.629953	0.746582
H488	H	1.808000	-0.379953	0.996582
H489	H	1.056661	-1.068906	0.192532
H490	H	1.306661	-0.818906	0.442532
H491	H	1.556661	-0.568906	0.692532
H492	H	1.806661	-0.318906	0.942532
H493	H	1.112013	-1.068819	0.247970
H494	H	1.362013	-0.818819	0.497970
H495	H	1.612013	-0.568819	0.747970
H496	H	1.862013	-0.318819	0.997970
H497	H	0.876029	-0.606998	0.427998
H498	H	1.126029	-0.356998	0.677998
H499	H	1.376029	-0.106998	0.927998
H500	H	1.626029	0.143002	1.177998
