data_functionalizedCrystal
_audit_creation_method	'MofGen! by Chris Wilmer'
_symmetry_space_group_name_H-M	'P1'
_symmetry_Int_Tables_number	1
_symmetry_cell_setting	triclinic
loop_
_symmetry_equiv_pos_as_xyz
  x,y,z
_cell_length_a	14.971486
_cell_length_b	11.026607
_cell_length_c	13.448316
_cell_angle_alpha	89.996104
_cell_angle_beta	89.998199
_cell_angle_gamma	96.100073
loop_
_atom_site_label
_atom_site_type_symbol
_atom_site_fract_x
_atom_site_fract_y
_atom_site_fract_z
O1	O	1.212292	0.158181	-0.082572
O2	O	0.954927	0.177123	-0.082599
O3	O	1.062279	-0.009032	-0.082584
O4	O	1.104940	0.344336	-0.082587
O5	O	1.062260	-0.009044	0.082800
O6	O	0.954908	0.177112	0.082785
O7	O	1.212273	0.158169	0.082812
Cu8	Cu	1.083589	0.167639	0.097899
Cu9	Cu	1.083611	0.167653	-0.097686
O10	O	1.104921	0.344324	0.082797
C11	C	0.921457	0.176270	0.000090
C12	C	0.821753	0.173732	0.000079
C13	C	0.782051	0.283093	0.000080
C14	C	0.688368	0.280700	0.000095
C15	C	0.634389	0.168945	0.000102
C16	C	0.674098	0.059576	0.000105
C17	C	0.767779	0.061969	0.000097
C18	C	0.478837	0.054594	0.000118
C19	C	0.385150	0.052200	0.000124
C20	C	0.399426	0.273325	0.000116
C21	C	0.493107	0.275718	0.000109
C22	C	0.532809	0.166348	0.000109
C23	C	1.054400	-0.054260	0.000106
C24	C	1.030939	-0.189008	0.000100
C25	C	1.095719	-0.262720	0.000105
C26	C	1.071472	-0.401989	0.000099
C27	C	1.245743	0.159022	0.000121
C28	C	1.345447	0.161561	0.000125
C29	C	1.112800	0.389552	0.000105
C30	C	1.136261	0.524300	0.000104
N31	N	1.083579	0.167629	0.235463
N32	N	1.083626	0.167654	-0.235251
C33	C	1.131139	0.085233	0.287510
C34	C	1.131145	0.085232	0.391614
C35	C	1.083595	0.167634	0.443668
C36	C	1.036029	0.250033	0.391614
C37	C	1.036019	0.250028	0.287513
C38	C	1.036055	0.250042	0.608594
C39	C	1.036066	0.250049	0.712703
C40	C	1.131181	0.085246	0.712695
C41	C	1.131171	0.085241	0.608594
C42	C	1.083606	0.167642	0.556547
H43	H	0.537055	0.366719	0.000093
H44	H	1.169864	0.018138	0.245134
O45	O	0.645547	0.398657	0.000090
H46	H	0.603219	0.402861	0.067508
H47	H	0.825994	0.374096	0.000073
O48	O	1.182457	-0.003634	0.552448
H49	H	1.135288	-0.062705	0.505028
H50	H	1.169871	0.018139	0.433990
H51	H	1.169909	0.018152	0.755078
H52	H	0.998057	-0.441982	0.000085
O53	O	0.356613	0.391294	0.000127
H54	H	0.282403	0.370859	0.000148
O55	O	0.984760	0.338897	0.768854
H56	H	0.951666	0.396176	0.715175
O57	O	0.326924	-0.068332	0.000145
H58	H	0.370268	-0.143982	0.000161
H59	H	0.997319	0.317138	0.566221
H60	H	0.630141	-0.031417	0.000125
H61	H	0.997308	0.317122	0.434003
H62	H	0.997290	0.317121	0.245137
H63	H	0.511159	-0.034467	0.000120
H64	H	0.957528	-0.229006	0.000086
H65	H	0.800103	-0.027084	0.000096
O66	O	1.192964	-0.209758	0.000116
H67	H	1.196748	-0.108681	0.000125
O68	O	1.233512	-0.422746	0.000120
H69	H	1.237298	-0.321669	0.000130
