data_functionalizedCrystal
_audit_creation_method	'MofGen! by Chris Wilmer'
_symmetry_space_group_name_H-M	'P1'
_symmetry_Int_Tables_number	1
_symmetry_cell_setting	triclinic
loop_
_symmetry_equiv_pos_as_xyz
  x,y,z
_cell_length_a	11.792241
_cell_length_b	10.268362
_cell_length_c	11.792254
_cell_angle_alpha	89.994545
_cell_angle_beta	95.803993
_cell_angle_gamma	89.999728
loop_
_atom_site_label
_atom_site_type_symbol
_atom_site_fract_x
_atom_site_fract_y
_atom_site_fract_z
O1	O	-1.506916	-0.108155	0.155568
O2	O	-1.176576	-0.108190	0.171601
O3	O	-1.349755	-0.108162	-0.001585
O4	O	-1.333737	-0.108182	0.328754
O5	O	-1.349739	0.108438	-0.001593
O6	O	-1.176560	0.108411	0.171593
O7	O	-1.506901	0.108446	0.155561
Cu8	Cu	-1.341729	0.128206	0.163576
Cu9	Cu	-1.341747	-0.127950	0.163585
O10	O	-1.333722	0.108418	0.328747
C11	C	-1.134277	0.000106	0.170590
C12	C	-1.008263	0.000093	0.167576
N13	N	-1.341725	0.308372	0.163570
C14	C	-0.777551	0.000128	0.162033
C15	C	-0.905936	0.000109	0.165112
C16	C	-1.348738	0.000138	-0.043880
C17	C	-1.345718	0.000136	-0.169893
C18	C	-0.549199	0.000144	0.156571
C19	C	-0.675213	0.000138	0.159586
N20	N	-1.341760	-0.308115	0.163583
C21	C	-1.341741	0.574042	0.163583
C22	C	-1.341728	0.426204	0.163579
C23	C	-1.343264	0.000131	-0.272229
C24	C	-1.340196	0.000119	-0.400616
C25	C	-1.334738	0.000116	0.371041
C26	C	-1.337758	0.000109	0.497054
