data_functionalizedCrystal
_audit_creation_method	'MofGen! by Chris Wilmer'
_symmetry_space_group_name_H-M	'P1'
_symmetry_Int_Tables_number	1
_symmetry_cell_setting	triclinic
loop_
_symmetry_equiv_pos_as_xyz
  x,y,z
_cell_length_a	18.050590
_cell_length_b	13.032721
_cell_length_c	13.032268
_cell_angle_alpha	103.289627
_cell_angle_beta	97.179226
_cell_angle_gamma	97.191822
loop_
_atom_site_label
_atom_site_type_symbol
_atom_site_fract_x
_atom_site_fract_y
_atom_site_fract_z
Zn1	Zn	1.031259	-0.499313	-0.653851
Zn2	Zn	1.031178	-0.654397	-0.498799
Zn3	Zn	0.925132	-0.476784	-0.476307
Zn4	Zn	0.888983	-0.676839	-0.676389
O5	O	0.969138	-0.576833	-0.576336
O6	O	1.135171	-0.519922	-0.633264
O7	O	1.032205	-0.612016	-0.347190
O8	O	0.954373	-0.331145	-0.481013
O9	O	1.135111	-0.633861	-0.519348
O10	O	1.032343	-0.347697	-0.611454
O11	O	0.954294	-0.481524	-0.330665
O12	O	0.816414	-0.503285	-0.502867
O13	O	0.892762	-0.672110	-0.822024
O14	O	0.789856	-0.650265	-0.649867
O15	O	0.997291	-0.541683	-0.805466
O16	O	0.997153	-0.806001	-0.541202
O17	O	0.892683	-0.822489	-0.671677
C18	C	0.776189	-0.576767	-0.576373
C19	C	0.693639	-0.576767	-0.576417
C20	C	0.941005	-0.852786	-0.611349
C21	C	0.929033	-0.970844	-0.626363
C22	C	0.975421	-1.015291	-0.568548
C23	C	0.963049	-1.137310	-0.584065
C24	C	0.479764	-0.656876	-0.656213
C25	C	0.437556	-0.563345	-0.670048
C26	C	0.542508	-0.576820	-0.576373
C27	C	0.437628	-0.670406	-0.562543
C28	C	0.396521	-0.576879	-0.576333
C29	C	0.501388	-0.483244	-0.590252
C30	C	0.501462	-0.590364	-0.482710
C31	C	0.459287	-0.496761	-0.496501
C32	C	0.626607	-0.576787	-0.576399
C33	C	0.312425	-0.576901	-0.576306
C34	C	1.162841	-0.576901	-0.576301
C35	C	1.245385	-0.576930	-0.576285
C36	C	0.941003	-0.611913	-0.853359
C37	C	0.929014	-0.626862	-0.971410
C38	C	0.997399	-0.299806	-0.541211
C39	C	1.009442	-0.181754	-0.526242
C40	C	0.975388	-0.568993	-1.015848
C41	C	0.962997	-0.584442	-1.137859
C42	C	0.997214	-0.541814	-0.300381
C43	C	1.009377	-0.526566	-0.182293
H44	H	0.914175	-1.189588	-0.645057
H45	H	0.489231	-0.724480	-0.723785
O46	O	1.074128	-0.445789	-1.113052
H47	H	1.067756	-0.365093	-1.123705
H48	H	0.880135	-0.687835	-1.023693
O49	O	0.400564	-0.548291	-0.774917
H50	H	0.408299	-0.614854	-0.841077
O51	O	1.074192	-1.112522	-0.445459
H52	H	1.051562	-1.055192	-0.385010
O53	O	0.400840	-0.775197	-0.547047
H54	H	0.427387	-0.786971	-0.469937
H55	H	0.880163	-1.023125	-0.687351
O56	O	1.040176	-0.946057	-0.487785
H57	H	1.039735	-0.861084	-0.488279
O58	O	0.538033	-0.378426	-0.605859
H59	H	0.599453	-0.379241	-0.605797
H60	H	1.024261	-0.508009	-0.963564
O61	O	0.898247	-0.665224	-1.207096
H62	H	0.898678	-0.664685	-1.292064
H63	H	0.449968	-0.429016	-0.428957
H64	H	0.529302	-0.601834	-0.403548
