data_functionalizedCrystal
_audit_creation_method	'MofGen! by Chris Wilmer'
_symmetry_space_group_name_H-M	'P1'
_symmetry_Int_Tables_number	1
_symmetry_cell_setting	triclinic
loop_
_symmetry_equiv_pos_as_xyz
  x,y,z
_cell_length_a	17.019282
_cell_length_b	17.038272
_cell_length_c	16.098538
_cell_angle_alpha	87.079695
_cell_angle_beta	91.140572
_cell_angle_gamma	92.758613
loop_
_atom_site_label
_atom_site_type_symbol
_atom_site_fract_x
_atom_site_fract_y
_atom_site_fract_z
O1	O	1.053062	-0.099864	0.006294
O2	O	1.553062	0.400136	0.506294
O3	O	0.825028	-0.111750	-0.010068
O4	O	1.325028	0.388250	0.489932
O5	O	0.937689	0.008012	-0.001978
O6	O	1.437689	0.508012	0.498022
O7	O	0.940401	-0.219626	-0.001797
O8	O	1.440401	0.280374	0.498203
O9	O	0.931106	0.001043	0.136062
O10	O	1.431106	0.501043	0.636062
O11	O	0.818445	-0.118718	0.127972
O12	O	1.318445	0.381282	0.627972
O13	O	1.046479	-0.106832	0.144334
O14	O	1.546479	0.393168	0.644334
Zn15	Zn	0.931417	-0.113882	0.158070
Zn16	Zn	1.431417	0.386118	0.658070
Zn17	Zn	0.940090	-0.104700	-0.023804
Zn18	Zn	1.440090	0.395300	0.476196
O19	O	0.933818	-0.226594	0.136243
O20	O	1.433818	0.273406	0.636243
C21	C	0.792416	-0.114648	0.056848
C22	C	1.292416	0.385352	0.556848
C23	C	0.705047	-0.112892	0.050579
C24	C	1.205047	0.387108	0.550579
C25	C	0.660417	-0.115863	0.122882
C26	C	1.160417	0.384137	0.622882
C27	C	0.578326	-0.114200	0.116994
C28	C	1.078326	0.385800	0.616994
C29	C	0.540866	-0.109572	0.038803
C30	C	1.040866	0.390428	0.538803
C31	C	0.585502	-0.106598	-0.033505
C32	C	1.085502	0.393402	0.466495
C33	C	0.667592	-0.108255	-0.027616
C34	C	1.167592	0.391745	0.472384
C35	C	0.293186	-0.104373	0.017259
C36	C	0.793186	0.395627	0.517259
C37	C	0.211090	-0.102719	0.011376
C38	C	0.711090	0.397281	0.511376
C39	C	0.203920	-0.110320	0.161876
C40	C	0.703920	0.389680	0.661876
C41	C	0.286012	-0.111981	0.167758
C42	C	0.786012	0.388019	0.667758
C43	C	0.330641	-0.109003	0.095450
C44	C	0.830641	0.390997	0.595450
C45	C	0.456955	-0.107875	0.032783
C46	C	0.956955	0.392125	0.532783
C47	C	0.414550	-0.110695	0.101470
C48	C	0.914550	0.389305	0.601470
C49	C	0.931933	0.033663	0.066865
C50	C	1.431933	0.533663	0.566865
C51	C	0.924577	0.120475	0.066337
C52	C	1.424577	0.620475	0.566337
C53	C	1.079091	-0.103934	0.077416
C54	C	1.579091	0.396066	0.577416
C55	C	1.166460	-0.105690	0.083679
C56	C	1.666460	0.394310	0.583679
C57	C	0.939574	-0.252245	0.067399
C58	C	1.439574	0.247755	0.567399
C59	C	0.946930	-0.339057	0.067921
C60	C	1.446930	0.160943	0.567921
N61	N	0.925503	-0.120147	0.282194
N62	N	1.425503	0.379853	0.782194
C63	C	0.992107	0.170407	0.071183
C64	C	1.492107	0.670407	0.571183
C65	C	0.985191	0.251976	0.070679
C66	C	1.485191	0.751976	0.570679
C67	C	0.910746	0.283613	0.065335
C68	C	1.410746	0.783613	0.565335
C69	C	0.843212	0.233676	0.060486
C70	C	1.343212	0.733676	0.560486
C71	C	0.850128	0.152108	0.060984
C72	C	1.350128	0.652108	0.560984
C73	C	0.886312	0.529438	0.063570
C74	C	1.386312	1.029438	0.563570
C75	C	0.879401	0.611012	0.063075
C76	C	1.379401	1.111012	0.563075
C77	C	1.021381	0.629307	0.073267
C78	C	1.521381	1.129307	0.573267
C79	C	1.028291	0.547736	0.073770
C80	C	1.528291	1.047736	0.573770
C81	C	0.960757	0.497806	0.068916
C82	C	1.460757	0.997806	0.568916
C83	C	0.903675	0.366990	0.064822
C84	C	1.403675	0.866990	0.564822
C85	C	0.967828	0.414431	0.069423
C86	C	1.467828	0.914431	0.569423
N87	N	0.946010	-0.098429	-0.147928
N88	N	1.446010	0.401571	0.352072
C89	C	0.973341	-0.069333	0.329215
C90	C	1.473341	0.430667	0.829215
C91	C	0.969212	-0.073724	0.416107
C92	C	1.469212	0.426276	0.916107
C93	C	0.917249	-0.128932	0.455978
C94	C	1.417249	0.371068	0.955978
C95	C	0.869406	-0.179748	0.408951
C96	C	1.369406	0.320252	0.908951
C97	C	0.873531	-0.175353	0.322060
C98	C	1.373531	0.324647	0.822060
C99	C	0.902292	-0.144850	0.718154
C100	C	1.402292	0.355150	1.218154
C101	C	0.898172	-0.149242	0.805051
C102	C	1.398172	0.350758	1.305051
C103	C	0.997978	-0.043217	0.812201
C104	C	1.497978	0.456783	1.312201
C105	C	1.002102	-0.038830	0.725308
C106	C	1.502102	0.461170	1.225308
C107	C	0.954256	-0.089643	0.678289
C108	C	1.454256	0.410357	1.178289
C109	C	0.913029	-0.133423	0.544796
C110	C	1.413029	0.366577	1.044796
C111	C	0.958472	-0.085148	0.589472
C112	C	1.458472	0.414852	1.089472
H113	H	0.690911	-0.119639	0.186554
H114	H	1.190911	0.380361	0.686554
H115	H	0.541993	-0.116607	0.175871
H116	H	1.041993	0.383393	0.675871
H117	H	0.843061	0.392758	0.060472
H118	H	1.343061	0.892758	0.560472
H119	H	0.827092	-0.224697	0.441418
H120	H	1.327092	0.275303	0.941418
H121	H	0.426446	-0.104106	-0.030880
H122	H	0.926446	0.395894	0.469120
C123	C	1.167938	0.574017	0.083793
C124	C	1.667938	1.074017	0.583793
C125	C	1.110124	0.512964	0.079646
C126	C	1.610124	1.012964	0.579646
H127	H	1.218458	0.552548	0.087420
H128	H	1.718458	1.052548	0.587420
H129	H	1.159989	0.603025	0.131519
H130	H	1.659989	1.103025	0.631519
H131	H	1.164583	0.607877	0.035243
H132	H	1.664583	1.107877	0.535243
H133	H	1.113475	0.479107	0.128198
H134	H	1.613475	0.979107	0.628198
H135	H	1.118076	0.483944	0.031915
H136	H	1.618076	0.983944	0.531915
C137	C	1.131752	0.196693	0.081193
C138	C	1.631752	0.696693	0.581193
C139	C	1.073941	0.135636	0.077052
C140	C	1.573941	0.635636	0.577052
H141	H	1.182274	0.175227	0.084808
H142	H	1.682274	0.675227	0.584808
H143	H	1.123810	0.225697	0.128923
H144	H	1.623810	0.725697	0.628923
H145	H	1.128387	0.230555	0.032646
H146	H	1.628387	0.730555	0.532646
H147	H	1.077303	0.101777	0.125602
H148	H	1.577303	0.601777	0.625602
H149	H	1.081886	0.106619	0.029317
H150	H	1.581886	0.606619	0.529317
C151	C	1.063176	0.357885	0.005062
C152	C	1.563176	0.857885	0.505062
C153	C	1.059425	0.306857	0.076004
C154	C	1.559425	0.806857	0.576004
H155	H	1.109011	0.391761	0.008347
H156	H	1.609011	0.891761	0.508347
H157	H	1.017859	0.388401	0.001813
H158	H	1.517859	0.888401	0.501813
H159	H	1.065215	0.328098	-0.043084
H160	H	1.565215	0.828098	0.456916
H161	H	1.057380	0.336644	0.124150
H162	H	1.557380	0.836644	0.624150
H163	H	1.104755	0.276337	0.079262
H164	H	1.604755	0.776337	0.579262
H165	H	1.015658	-0.024380	0.296758
H166	H	1.515658	0.475620	0.796758
H167	H	1.008165	-0.032347	0.454391
H168	H	1.508165	0.467653	0.954391
C169	C	0.462848	-0.100691	-0.109357
C170	C	0.962848	0.399309	0.390643
C171	C	0.544327	-0.101512	-0.119455
C172	C	1.044327	0.398488	0.380545
H173	H	0.437431	-0.097557	-0.162421
H174	H	0.937431	0.402443	0.337579
H175	H	0.450874	-0.056425	-0.079196
H176	H	0.950874	0.443575	0.420804
H177	H	0.444980	-0.147541	-0.079616
H178	H	0.944980	0.352459	0.420384
H179	H	0.562196	-0.054659	-0.149191
H180	H	1.062196	0.445341	0.350809
H181	H	0.556306	-0.145781	-0.149629
H182	H	1.056306	0.354219	0.350371
H183	H	0.870720	-0.178376	0.577266
H184	H	1.370720	0.321624	1.077266
C185	C	1.073825	0.762469	0.077020
C186	C	1.573825	1.262469	0.577020
C187	C	1.095612	0.684192	0.078590
C188	C	1.595612	1.184192	0.578590
H189	H	1.119656	0.796351	0.080299
H190	H	1.619656	1.296351	0.580299
H191	H	1.041237	0.769649	0.122983
H192	H	1.541237	1.269649	0.622983
H193	H	1.045817	0.774494	0.026706
H194	H	1.545817	1.274494	0.526706
H195	H	1.123615	0.672164	0.128907
H196	H	1.623615	1.172164	0.628907
H197	H	1.128213	0.677008	0.032623
H198	H	1.628213	1.177008	0.532623
H199	H	1.044415	0.006125	0.692848
H200	H	1.544415	0.506125	1.192848
C201	C	1.129722	0.000949	0.848472
C202	C	1.629722	0.500949	1.348472
C203	C	1.050559	0.012644	0.863884
C204	C	1.550559	0.512644	1.363884
H205	H	1.162182	0.035438	0.880382
H206	H	1.662182	0.535438	1.380382
H207	H	1.139608	0.011465	0.791023
H208	H	1.639608	0.511465	1.291023
H209	H	1.141066	-0.051986	0.863572
H210	H	1.641066	0.448014	1.363572
H211	H	1.039214	0.065579	0.848777
H212	H	1.539214	0.565579	1.348777
H213	H	1.040669	0.002134	0.921346
H214	H	1.540669	0.502134	1.421346
H215	H	0.818775	0.636766	0.058736
H216	H	1.318775	1.136766	0.558736
H217	H	0.831321	0.488794	0.059618
H218	H	1.331321	0.988794	0.559618
H219	H	0.855855	-0.194203	0.837510
H220	H	1.355855	0.305797	1.337510
H221	H	0.782597	0.259441	0.056129
H222	H	1.282597	0.759441	0.556129
H223	H	0.863335	-0.186226	0.679877
H224	H	1.363335	0.313774	1.179877
C225	C	0.709093	0.142211	0.050866
C226	C	1.209093	0.642211	0.550866
C227	C	0.775898	0.097220	0.055659
C228	C	1.275898	0.597220	0.555659
H229	H	0.663266	0.108324	0.047580
H230	H	1.163266	0.608324	0.547580
H231	H	0.711645	0.176832	0.002750
H232	H	1.211645	0.676832	0.502750
H233	H	0.707056	0.171980	0.099026
H234	H	1.207056	0.671980	0.599026
H235	H	0.777938	0.067455	0.007496
H236	H	1.277938	0.567455	0.507496
H237	H	0.773345	0.062585	0.103780
H238	H	1.273345	0.562585	0.603780
H239	H	0.316506	-0.115747	0.231429
H240	H	0.816506	0.384253	0.731429
C241	C	0.074899	-0.111146	0.219678
C242	C	0.574899	0.388854	0.719678
C243	C	0.154863	-0.113582	0.241353
C244	C	0.654863	0.386418	0.741353
H245	H	0.044616	-0.113153	0.268748
H246	H	0.544616	0.386847	0.768748
H247	H	0.059971	-0.154871	0.187591
H248	H	0.559971	0.345129	0.687591
H249	H	0.065879	-0.063755	0.188006
H250	H	0.565879	0.436245	0.688006
H251	H	0.163884	-0.160976	0.273020
H252	H	0.663884	0.339024	0.773020
H253	H	0.169796	-0.069854	0.273454
H254	H	0.669796	0.430146	0.773454
H255	H	1.028442	0.388670	0.073756
H256	H	1.528442	0.888670	0.573756
C257	C	0.666438	-0.100591	-0.176969
C258	C	1.166438	0.399409	0.323031
C259	C	0.716651	-0.104997	-0.107094
C260	C	1.216651	0.395003	0.392906
H261	H	0.696726	-0.098583	-0.226035
H262	H	1.196726	0.401417	0.273965
H263	H	0.637224	-0.054547	-0.175924
H264	H	1.137224	0.445453	0.324076
H265	H	0.631316	-0.145662	-0.176342
H266	H	1.131316	0.354338	0.323658
H267	H	0.751769	-0.059922	-0.107718
H268	H	1.251769	0.440078	0.392282
H269	H	0.745878	-0.151046	-0.108139
H270	H	1.245878	0.348954	0.391861
H271	H	0.834575	-0.216730	0.283776
H272	H	1.334575	0.283270	0.783776
C273	C	1.056714	0.019214	0.605266
C274	C	1.556714	0.519214	1.105266
C275	C	1.015590	-0.024463	0.545650
C276	C	1.515590	0.475537	1.045650
H277	H	1.091973	0.056680	0.578204
H278	H	1.591973	0.556680	1.078204
H279	H	1.085555	-0.015136	0.641326
H280	H	1.585555	0.484864	1.141326
H281	H	1.020501	0.045731	0.636690
H282	H	1.520501	0.545731	1.136690
H283	H	1.051803	-0.050984	0.514229
H284	H	1.551803	0.449016	1.014229
H285	H	0.986747	0.009892	0.509576
H286	H	1.486747	0.509892	1.009576
C287	C	0.292016	-0.096696	-0.132092
C288	C	0.792016	0.403304	0.367908
C289	C	0.342235	-0.101103	-0.062221
C290	C	0.842235	0.398897	0.437779
H291	H	0.322300	-0.094681	-0.181161
H292	H	0.822300	0.405319	0.318839
H293	H	0.262798	-0.050655	-0.131040
H294	H	0.762798	0.449345	0.368960
H295	H	0.256898	-0.141770	-0.131466
H296	H	0.756898	0.358230	0.368534
H297	H	0.377349	-0.056025	-0.062844
H298	H	0.877349	0.443975	0.437156
H299	H	0.371466	-0.147149	-0.063274
H300	H	0.871466	0.352851	0.436726
H301	H	0.445054	-0.114460	0.165133
H302	H	0.945054	0.385540	0.665133
H303	H	0.180592	-0.098952	-0.052300
H304	H	0.680592	0.401048	0.447700
