data_functionalizedCrystal
_audit_creation_method	'MofGen! by Chris Wilmer'
_symmetry_space_group_name_H-M	'P1'
_symmetry_Int_Tables_number	1
_symmetry_cell_setting	triclinic
loop_
_symmetry_equiv_pos_as_xyz
  x,y,z
_cell_length_a	18.050591
_cell_length_b	18.050590
_cell_length_c	18.050582
_cell_angle_alpha	89.976663
_cell_angle_beta	89.979078
_cell_angle_gamma	90.014558
loop_
_atom_site_label
_atom_site_type_symbol
_atom_site_fract_x
_atom_site_fract_y
_atom_site_fract_z
Zn1	Zn	1.135342	-0.295786	-0.420027
Zn2	Zn	1.635342	0.204214	0.079973
Zn3	Zn	1.135274	-0.419969	-0.295836
Zn4	Zn	1.635274	0.080031	0.204164
Zn5	Zn	1.011162	-0.295789	-0.295839
Zn6	Zn	1.511162	0.204211	0.204161
Zn7	Zn	1.011131	-0.419930	-0.419971
Zn8	Zn	1.511131	0.080070	0.080029
O9	O	1.073227	-0.357868	-0.357918
O10	O	1.573227	0.142132	0.142082
O11	O	1.239258	-0.312274	-0.403576
O12	O	1.739258	0.187726	0.096424
O13	O	1.118795	-0.403514	-0.191912
O14	O	1.618795	0.096486	0.308088
O15	O	1.027676	-0.191864	-0.312337
O16	O	1.527676	0.308136	0.187663
O17	O	1.239208	-0.403511	-0.312332
O18	O	1.739208	0.096489	0.187668
O19	O	1.118911	-0.191862	-0.403578
O20	O	1.618911	0.308138	0.096422
O21	O	1.027610	-0.312279	-0.191914
O22	O	1.527610	0.187721	0.308086
O23	O	0.907233	-0.312241	-0.312283
O24	O	1.407233	0.187759	0.187717
O25	O	1.027623	-0.403444	-0.523903
O26	O	1.527623	0.096556	-0.023903
O27	O	0.907210	-0.403447	-0.403482
O28	O	1.407210	0.096553	0.096518
O29	O	1.118881	-0.312236	-0.523945
O30	O	1.618881	0.187764	-0.023945
O31	O	1.118765	-0.523888	-0.312278
O32	O	1.618765	-0.023888	0.187722
O33	O	1.027557	-0.523860	-0.403480
O34	O	1.527557	-0.023860	0.096520
C35	C	0.880275	-0.357841	-0.357877
C36	C	1.380275	0.142159	0.142123
C37	C	0.797729	-0.357847	-0.357877
C38	C	1.297729	0.142153	0.142123
C39	C	0.598269	-0.308191	-0.308397
C40	C	1.098269	0.191809	0.191603
C41	C	0.548861	-0.375927	-0.290120
C42	C	1.048861	0.124073	0.209880
C43	C	0.646599	-0.357869	-0.357911
C44	C	1.146599	0.142131	0.142089
C45	C	0.548925	-0.290157	-0.376186
C46	C	1.048925	0.209843	0.123814
C47	C	0.500614	-0.357885	-0.357942
C48	C	1.000614	0.142115	0.142058
C49	C	0.598278	-0.425641	-0.339598
C50	C	1.098278	0.074359	0.160402
C51	C	0.598346	-0.339825	-0.425696
C52	C	1.098346	0.160175	0.074304
C53	C	0.548961	-0.407607	-0.407445
C54	C	1.048961	0.092393	0.092555
C55	C	0.730697	-0.357859	-0.357891
C56	C	1.230697	0.142141	0.142109
C57	C	0.416517	-0.357903	-0.357962
C58	C	0.916517	0.142097	0.142038
C59	C	1.073170	-0.550820	-0.357889
C60	C	1.573170	-0.050820	0.142111
C61	C	1.073214	-0.633366	-0.357901
C62	C	1.573214	-0.133366	0.142099
C63	C	1.122916	-0.832806	-0.308375
C64	C	1.622916	-0.332806	0.191625
C65	C	1.141051	-0.882145	-0.376157
C66	C	1.641051	-0.382145	0.123843
C67	C	1.073256	-0.784497	-0.357930
C68	C	1.573256	-0.284497	0.142070
C69	C	1.055196	-0.882238	-0.290179
C70	C	1.555196	-0.382238	0.209821
C71	C	1.073298	-0.930482	-0.357953
C72	C	1.573298	-0.430482	0.142047
C73	C	1.091426	-0.832749	-0.425748
C74	C	1.591426	-0.332749	0.074252
C75	C	1.005539	-0.832838	-0.339725
C76	C	1.505539	-0.332838	0.160275
C77	C	1.023649	-0.882155	-0.407554
C78	C	1.523649	-0.382155	0.092446
C79	C	1.073233	-0.700398	-0.357916
C80	C	1.573233	-0.200398	0.142084
C81	C	1.073320	-1.014578	-0.357975
C82	C	1.573320	-0.514578	0.142025
C83	C	1.266933	-0.357897	-0.357960
C84	C	1.766933	0.142103	0.142040
C85	C	1.349479	-0.357909	-0.357978
C86	C	1.849479	0.142091	0.142022
C87	C	1.073256	-0.357835	-0.551624
C88	C	1.573256	0.142165	-0.051624
C89	C	1.073269	-0.357821	-0.634170
C90	C	1.573269	0.142179	-0.134170
C91	C	1.073305	-0.164163	-0.357964
C92	C	1.573305	0.335837	0.142036
C93	C	1.073338	-0.081617	-0.357984
C94	C	1.573338	0.418383	0.142016
C95	C	1.023681	-0.407353	-0.833598
C96	C	1.523681	0.092647	-0.333598
C97	C	1.091439	-0.425511	-0.882996
C98	C	1.591439	0.074489	-0.382996
C99	C	1.073305	-0.357765	-0.785300
C100	C	1.573305	0.142235	-0.285300
C101	C	1.005584	-0.339586	-0.882984
C102	C	1.505584	0.160414	-0.382984
C103	C	1.073335	-0.357711	-0.931285
C104	C	1.573335	0.142289	-0.431285
C105	C	1.141099	-0.375958	-0.833611
C106	C	1.641099	0.124042	-0.333611
C107	C	1.055199	-0.290002	-0.833594
C108	C	1.555199	0.209998	-0.333594
C109	C	1.123004	-0.308134	-0.882970
C110	C	1.623004	0.191866	-0.382970
C111	C	1.073287	-0.357797	-0.701202
C112	C	1.573287	0.142203	-0.201202
C113	C	1.073360	-0.357679	-1.015382
C114	C	1.573360	0.142321	-0.515382
C115	C	1.073241	-0.357848	-0.164966
C116	C	1.573241	0.142152	0.335034
C117	C	1.073372	-0.357652	-0.082421
C118	C	1.573372	0.142348	0.417579
H119	H	0.619866	-0.482928	-0.324091
H120	H	1.119866	0.017072	0.175909
N121	N	1.111769	-0.804086	-0.501681
N122	N	1.611769	-0.304086	-0.001681
H123	H	1.111649	-0.748135	-0.501199
H124	H	1.611649	-0.248135	-0.001199
H125	H	1.162757	-0.822511	-0.515509
H126	H	1.662757	-0.322511	-0.015509
N127	N	0.627161	-0.319573	-0.501591
N128	N	1.127161	0.180427	-0.001591
H129	H	0.609241	-0.268382	-0.515341
H130	H	1.109241	0.231618	-0.015341
H131	H	0.683105	-0.320240	-0.501077
H132	H	1.183105	0.179760	-0.001077
H133	H	0.981672	-0.903687	-0.449520
H134	H	1.481672	-0.403687	0.050480
N135	N	1.034861	-0.214152	-0.804815
N136	N	1.534861	0.285848	-0.304815
H137	H	1.076978	-0.193939	-0.774035
H138	H	1.576978	0.306061	-0.274035
H139	H	1.025140	-0.179852	-0.847946
H140	H	1.525140	0.320148	-0.347946
N141	N	0.520209	-0.214300	-0.396653
N142	N	1.020209	0.285700	0.103347
H143	H	0.464260	-0.214986	-0.396983
H144	H	0.964260	0.285014	0.103017
H145	H	0.538197	-0.176855	-0.359188
H146	H	1.038197	0.323145	0.140812
N147	N	1.178555	-0.804097	-0.252917
N148	N	1.678555	-0.304097	0.247083
H149	H	1.229710	-0.822032	-0.266779
H150	H	1.729710	-0.322032	0.233221
H151	H	1.177747	-0.748151	-0.252990
H152	H	1.677747	-0.248151	0.247010
H153	H	0.948301	-0.324232	-0.904672
H154	H	1.448301	0.175768	-0.404672
H155	H	0.527446	-0.449673	-0.449330
H156	H	1.027446	0.050327	0.050670
H157	H	1.198399	-0.391377	-0.812015
H158	H	1.698399	0.108623	-0.312015
N159	N	1.216926	-0.910843	-0.396578
N160	N	1.716926	-0.410843	0.103422
H161	H	1.254389	-0.892897	-0.359107
H162	H	1.754389	-0.392897	0.140893
H163	H	1.216186	-0.966788	-0.396918
H164	H	1.716186	-0.466788	0.103082
N165	N	1.178672	-0.252565	-0.911519
N166	N	1.678672	0.247435	-0.411519
H167	H	1.165451	-0.201545	-0.892755
H168	H	1.665451	0.298455	-0.392755
H169	H	1.229768	-0.266442	-0.893454
H170	H	1.729768	0.233558	-0.393454
N171	N	0.929681	-0.804120	-0.319288
N172	N	1.429681	-0.304120	0.180712
H173	H	0.916066	-0.822091	-0.268064
H174	H	1.416066	-0.322091	0.231936
H175	H	0.930168	-0.748174	-0.319954
H176	H	1.430168	-0.248174	0.180046
N177	N	1.034934	-0.911037	-0.214275
N178	N	1.534934	-0.411037	0.285725
H179	H	1.072468	-0.893085	-0.176878
H180	H	1.572468	-0.393085	0.323122
H181	H	0.984121	-0.892324	-0.200194
H182	H	1.484121	-0.392324	0.299806
H183	H	0.619920	-0.266226	-0.266480
H184	H	1.119920	0.233774	0.233520
N185	N	0.968144	-0.462966	-0.804875
N186	N	1.468144	0.037034	-0.304875
H187	H	0.981934	-0.514120	-0.822845
H188	H	1.481934	-0.014120	-0.322845
H189	H	0.968217	-0.462194	-0.748929
H190	H	1.468217	0.037806	-0.248929
H191	H	0.527126	-0.391201	-0.232809
H192	H	1.027126	0.108799	0.267191
H193	H	1.106771	-0.482794	-0.904696
H194	H	1.606771	0.017206	-0.404696
