data_functionalizedCrystal
_audit_creation_method	'MofGen! by Chris Wilmer'
_symmetry_space_group_name_H-M	'P1'
_symmetry_Int_Tables_number	1
_symmetry_cell_setting	triclinic
loop_
_symmetry_equiv_pos_as_xyz
  x,y,z
_cell_length_a	8.597340
_cell_length_b	14.044190
_cell_length_c	7.088929
_cell_angle_alpha	83.202929
_cell_angle_beta	103.954719
_cell_angle_gamma	89.225172
loop_
_atom_site_label
_atom_site_type_symbol
_atom_site_fract_x
_atom_site_fract_y
_atom_site_fract_z
O1	O	2.119902	0.130165	0.190201
O2	O	2.619902	0.630165	0.690201
O3	O	1.657422	0.145637	0.114010
O4	O	2.157422	0.645637	0.614010
O5	O	1.881718	-0.000080	0.150999
O6	O	2.381718	0.499920	0.650999
O7	O	1.895606	0.275882	0.153212
O8	O	2.395606	0.775882	0.653212
O9	O	1.911686	-0.019598	0.473916
O10	O	2.411686	0.480402	0.973916
O11	O	1.687391	0.126119	0.436927
O12	O	2.187391	0.626119	0.936927
O13	O	2.149870	0.110647	0.513118
O14	O	2.649870	0.610647	1.013118
Cu15	Cu	1.921367	0.116601	0.504508
Cu16	Cu	2.421367	0.616601	1.004508
Cu17	Cu	1.885926	0.139683	0.122620
Cu18	Cu	2.385926	0.639683	0.622620
O19	O	1.925575	0.256365	0.476129
O20	O	2.425575	0.756365	0.976129
C21	C	1.612861	0.135304	0.265659
C22	C	2.112861	0.635304	0.765659
C23	C	1.435435	0.133581	0.236431
C24	C	1.935435	0.633581	0.736431
C25	C	1.890624	-0.045149	0.311462
C26	C	2.390624	0.454851	0.811462
C27	C	1.872493	-0.150361	0.308492
C28	C	2.372493	0.349639	0.808492
C29	C	1.967934	-0.400722	0.324140
C30	C	2.467934	0.099278	0.824140
C31	C	1.839364	-0.342987	0.302972
C32	C	2.339364	0.157013	0.802972
C33	C	1.857801	-0.235800	0.306044
C34	C	2.357801	0.264200	0.806044
C35	C	1.949499	-0.507919	0.321069
C36	C	2.449499	-0.007919	0.821069
C37	C	2.194431	0.120981	0.361464
C38	C	2.694431	0.620981	0.861464
C39	C	2.371856	0.122704	0.390680
C40	C	2.871856	0.622704	0.890680
C41	C	1.916668	0.301434	0.315662
C42	C	2.416668	0.801434	0.815662
C43	C	1.934798	0.406646	0.318619
C44	C	2.434798	0.906646	0.818619
N45	N	1.946306	0.100366	0.773108
N46	N	2.446306	0.600366	1.273108
N47	N	1.860998	0.155911	-0.145979
N48	N	2.360998	0.655911	0.354021
H49	H	1.354121	0.141577	0.081993
H50	H	1.854121	0.641577	0.581993
H51	H	2.091845	-0.369653	0.344573
H52	H	2.591845	0.130347	0.844573
H53	H	1.772586	0.213471	0.757795
H54	H	2.272586	0.713471	1.257795
Cl55	Cl	2.082837	0.011501	0.921684
Cl56	Cl	2.582837	0.511501	1.421684
H57	H	1.453162	0.114702	0.545108
H58	H	1.953162	0.614702	1.045108
H59	H	1.715444	-0.374059	0.282546
H60	H	2.215444	0.125941	0.782546
