data_functionalizedCrystal
_audit_creation_method	'MofGen! by Chris Wilmer'
_symmetry_space_group_name_H-M	'P1'
_symmetry_Int_Tables_number	1
_symmetry_cell_setting	triclinic
loop_
_symmetry_equiv_pos_as_xyz
  x,y,z
_cell_length_a	10.967819
_cell_length_b	17.666332
_cell_length_c	11.026607
_cell_angle_alpha	90.001957
_cell_angle_beta	96.381100
_cell_angle_gamma	102.138563
loop_
_atom_site_label
_atom_site_type_symbol
_atom_site_fract_x
_atom_site_fract_y
_atom_site_fract_z
O1	O	1.694073	0.283936	0.170554
O2	O	1.334429	0.237022	0.186869
O3	O	1.484444	0.256588	0.001809
O4	O	1.544058	0.264370	0.355613
O5	O	1.484409	0.130686	0.001804
O6	O	1.334394	0.111120	0.186863
O7	O	1.694038	0.158034	0.170548
Cu8	Cu	1.514213	0.123082	0.178705
Cu9	Cu	1.514254	0.271975	0.178712
O10	O	1.544023	0.138468	0.355607
C11	C	1.287653	0.167972	0.185677
C12	C	1.148326	0.149797	0.182121
C13	C	0.942235	0.188146	0.176875
C14	C	1.086236	0.206925	0.180542
N15	N	1.514193	0.018360	0.178699
C16	C	1.606580	-0.009191	0.253120
C17	C	1.606599	-0.088436	0.253116
C18	C	1.514211	-0.140130	0.178707
C19	C	1.421816	-0.112571	0.104271
C20	C	1.421807	-0.033326	0.104268
N21	N	1.403961	-0.278951	0.174473
N22	N	1.403975	-0.354230	0.174483
C23	C	1.514235	-0.378891	0.178711
N24	N	1.624487	-0.325429	0.182952
N25	N	1.624473	-0.250143	0.182948
C26	C	1.514211	-0.226059	0.178702
C27	C	1.606650	-0.492368	0.253132
C28	C	1.606670	-0.571614	0.253120
C29	C	1.421877	-0.595748	0.104282
C30	C	1.421867	-0.516502	0.104287
C31	C	1.514253	-0.464817	0.178718
C32	C	1.740814	0.227086	0.171740
C33	C	1.880141	0.245265	0.175296
C34	C	1.473429	0.192203	-0.043496
C35	C	1.440644	0.187930	-0.178484
N36	N	1.514282	0.376698	0.178708
C37	C	1.531168	0.199739	-0.251534
C38	C	1.497286	0.195322	-0.391051
C39	C	1.555038	0.202854	0.400913
C40	C	1.587823	0.207133	0.535900
H41	H	0.933589	0.308071	0.176667
O42	O	1.157024	0.290123	0.182341
H43	H	1.139458	0.320763	0.264428
H44	H	1.346631	-0.494072	0.043691
O45	O	1.322177	-0.168315	0.023992
H46	H	1.228177	-0.165374	0.049532
O47	O	1.304756	0.170200	-0.232451
H48	H	1.257579	0.215361	-0.201682
O49	O	1.706226	0.046552	0.333397
H50	H	1.760331	0.089724	0.275715
O51	O	1.706239	-0.118168	0.333397
H52	H	1.770472	-0.068915	0.385158
H53	H	1.346571	-0.010896	0.043664
O54	O	1.667060	0.217465	-0.197579
H55	H	1.672347	0.218148	-0.096464
H56	H	1.681877	-0.450283	0.313737
O57	O	1.706320	-0.601335	0.333391
H58	H	1.770548	-0.552080	0.385151
O59	O	1.322223	-0.651492	0.024024
H60	H	1.337744	-0.711226	0.036533
O61	O	1.361387	0.177590	-0.445000
H62	H	1.356100	0.176895	-0.546116
H63	H	0.888788	0.125340	0.175518
H64	H	1.690415	0.220573	-0.423360
H65	H	1.094886	0.086987	0.180765
