data_functionalizedCrystal
_audit_creation_method	'MofGen! by Chris Wilmer'
_symmetry_space_group_name_H-M	'P1'
_symmetry_Int_Tables_number	1
_symmetry_cell_setting	triclinic
loop_
_symmetry_equiv_pos_as_xyz
  x,y,z
_cell_length_a	7.681481
_cell_length_b	10.654550
_cell_length_c	10.654550
_cell_angle_alpha	84.484931
_cell_angle_beta	84.202374
_cell_angle_gamma	95.782450
loop_
_atom_site_label
_atom_site_type_symbol
_atom_site_fract_x
_atom_site_fract_y
_atom_site_fract_z
O1	O	0.146299	-1.656080	-0.188176
O2	O	0.146331	-1.290599	-0.204984
O3	O	0.146303	-1.481744	-0.013840
O4	O	0.146327	-1.464936	-0.379320
O5	O	-0.146558	-1.505270	0.009741
O6	O	-0.146530	-1.314126	-0.181404
O7	O	-0.146563	-1.679607	-0.164595
Zn8	Zn	-0.193044	-1.500601	-0.169256
Zn9	Zn	0.192813	-1.469604	-0.200324
O10	O	-0.146535	-1.488462	-0.355740
C11	C	-0.000096	-1.255564	-0.191960
C12	C	-0.000084	-1.116120	-0.188269
N13	N	-0.456382	-1.521765	-0.148052
C14	C	-0.000127	-1.492273	0.044748
C15	C	-0.000124	-1.488581	0.184191
N16	N	0.456150	-1.448451	-0.221518
C17	C	-0.000132	-1.714641	-0.177619
C18	C	-0.000133	-1.854085	-0.181311
C19	C	-0.000081	-1.036634	-0.300811
C20	C	-0.000112	-0.905616	-0.297332
C21	C	-0.000140	-0.933581	-0.068760
C22	C	-0.000122	-1.064598	-0.072240
C23	C	-0.000101	-1.477933	-0.414328
C24	C	-0.000093	-1.481624	-0.553772
C25	C	-0.000133	-1.601123	0.263678
C26	C	-0.000111	-1.597645	0.394697
C27	C	-0.000078	-1.369073	0.366731
C28	C	-0.000087	-1.372551	0.235713
H29	H	-0.468642	-1.373611	-0.296505
H30	H	-0.531599	-1.596618	-0.073069
H31	H	-0.000063	-1.078580	-0.395289
H32	H	-0.000182	-0.891616	0.025708
H33	H	-0.000114	-0.840903	-0.388975
H34	H	-0.000052	-1.274605	0.408697
H35	H	-0.000129	-1.129320	0.019412
H36	H	-0.000159	-1.695601	0.221733
H37	H	-0.000115	-1.689288	0.459410
H38	H	-0.000075	-1.280899	0.170991
