data_functionalizedCrystal
_audit_creation_method	'MofGen! by Chris Wilmer'
_symmetry_space_group_name_H-M	'P1'
_symmetry_Int_Tables_number	1
_symmetry_cell_setting	triclinic
loop_
_symmetry_equiv_pos_as_xyz
  x,y,z
_cell_length_a	16.109301
_cell_length_b	15.186229
_cell_length_c	16.109304
_cell_angle_alpha	89.999066
_cell_angle_beta	83.462111
_cell_angle_gamma	89.999006
loop_
_atom_site_label
_atom_site_type_symbol
_atom_site_fract_x
_atom_site_fract_y
_atom_site_fract_z
O1	O	1.103132	-0.073175	0.106867
O2	O	0.861070	-0.073186	0.120166
O3	O	0.988749	-0.073181	-0.007514
O4	O	0.975452	-0.073180	0.234547
O5	O	0.988741	0.073277	-0.007516
O6	O	0.861061	0.073271	0.120164
O7	O	1.103123	0.073283	0.106865
Zn8	Zn	0.982091	0.096530	0.113514
Zn9	Zn	0.982102	-0.096434	0.113517
O10	O	0.975444	0.073277	0.234545
C11	C	0.830091	0.000041	0.119626
C12	C	0.737795	0.000036	0.118011
C13	C	0.428798	0.000052	0.188494
C14	C	0.515518	0.000046	0.190020
C15	C	0.535390	0.000034	0.038531
C16	C	0.448671	0.000033	0.037007
C17	C	0.395377	0.000046	0.111991
C18	C	0.568816	0.000042	0.115040
C19	C	0.662842	0.000037	0.116694
C20	C	0.301345	0.000050	0.110338
C21	C	0.988206	0.000046	-0.038490
C22	C	0.986590	0.000040	-0.130785
C23	C	1.134102	0.000054	0.107405
C24	C	1.226398	0.000053	0.109020
N25	N	0.982089	0.228223	0.113512
N26	N	0.982110	-0.228126	0.113512
C27	C	1.038645	0.453948	0.056994
C28	C	1.038647	0.546138	0.056992
C29	C	0.925549	0.546142	0.170033
C30	C	0.925543	0.453954	0.170030
C31	C	0.982095	0.407859	0.113512
C32	C	0.982104	0.592237	0.113513
C33	C	0.982106	0.692193	0.113511
C34	C	0.982092	0.307897	0.113512
C35	C	0.982861	-0.079791	-0.343122
C36	C	0.981335	-0.079790	-0.429842
C37	C	0.981330	0.079886	-0.429841
C38	C	0.982850	0.079884	-0.343121
C39	C	0.983620	0.000043	-0.299765
C40	C	0.980573	0.000046	-0.473204
C41	C	0.978919	0.000047	-0.567230
C42	C	0.985273	0.000041	-0.205733
C43	C	0.975987	0.000048	0.265521
C44	C	0.977603	0.000049	0.357816
H45	H	0.421460	0.000026	-0.025296
H46	H	0.578792	0.000026	-0.022518
H47	H	0.879489	0.416426	0.216054
H48	H	0.983485	-0.144802	-0.307823
O49	O	0.980638	-0.157420	-0.471835
C50	C	0.981620	-0.227884	-0.414965
H51	H	1.009012	-0.204478	-0.356600
H52	H	1.021521	-0.283721	-0.445312
H53	H	0.915123	-0.252433	-0.396997
H54	H	0.980705	0.144889	-0.465153
O55	O	0.547844	0.000093	0.264408
C56	C	0.482207	0.000081	0.330258
H57	H	0.423305	0.027808	0.306962
H58	H	0.500314	0.042606	0.383669
H59	H	0.469927	-0.070180	0.353393
H60	H	0.983463	0.144898	-0.307819
H61	H	1.084692	0.416420	0.010973
H62	H	0.385408	0.000062	0.249551
H63	H	1.084694	0.583661	0.010970
H64	H	0.879506	0.583681	0.216050
