data_functionalizedCrystal
_audit_creation_method	'MofGen! by Chris Wilmer'
_symmetry_space_group_name_H-M	'P1'
_symmetry_Int_Tables_number	1
_symmetry_cell_setting	triclinic
loop_
_symmetry_equiv_pos_as_xyz
  x,y,z
_cell_length_a	12.827893
_cell_length_b	16.625546
_cell_length_c	12.827885
_cell_angle_alpha	90.035124
_cell_angle_beta	90.019272
_cell_angle_gamma	90.022439
loop_
_atom_site_label
_atom_site_type_symbol
_atom_site_fract_x
_atom_site_fract_y
_atom_site_fract_z
Zn1	Zn	1.597618	-0.320963	0.590810
Zn2	Zn	1.597491	-0.455817	0.416054
Zn3	Zn	1.422860	-0.321002	0.416084
Zn4	Zn	1.422823	-0.455757	0.590754
O5	O	1.510198	-0.388385	0.503425
O6	O	1.743837	-0.338861	0.567639
O7	O	1.574287	-0.437976	0.269822
O8	O	1.446110	-0.208165	0.439297
O9	O	1.743744	-0.437937	0.439247
O10	O	1.574505	-0.208136	0.567668
O11	O	1.445987	-0.338928	0.269843
O12	O	1.276619	-0.338869	0.439243
O13	O	1.446048	-0.437835	0.736997
O14	O	1.276592	-0.437873	0.567572
O15	O	1.574469	-0.338802	0.737039
O16	O	1.574252	-0.568642	0.439192
O17	O	1.445925	-0.568598	0.567544
C18	C	1.238688	-0.388370	0.503405
C19	C	1.122535	-0.388382	0.503422
C20	C	1.070765	-0.437449	0.566825
C21	C	0.950714	-0.437464	0.566844
C22	C	1.510099	-0.597876	0.503382
C23	C	1.510152	-0.687497	0.503398
C24	C	1.510335	-1.015673	0.503507
C25	C	1.510281	-0.924364	0.503479
C26	C	1.510243	-0.851588	0.503452
C27	C	1.510190	-0.760274	0.503425
C28	C	1.782768	-0.388401	0.503446
C29	C	1.898921	-0.388408	0.503455
C30	C	1.510269	-0.388308	0.775996
C31	C	1.510299	-0.388275	0.892149
C32	C	1.510326	-0.178076	0.503492
C33	C	1.510380	-0.088455	0.503521
C34	C	1.510187	-0.388404	0.231915
C35	C	1.510359	-0.388210	0.115763
C36	C	1.573853	-0.339261	0.943954
C37	C	1.573886	-0.339225	1.064004
H38	H	0.906193	-0.479474	0.621123
H39	H	1.628236	-0.297321	0.899429
H40	H	1.455950	-0.430178	1.071218
C41	C	1.437953	-0.444300	0.951559
C42	C	1.497170	-0.495934	1.014187
C43	C	1.430560	-0.547565	1.068915
H44	H	1.392466	-0.413508	0.994230
H45	H	1.398097	-0.475103	0.903520
H46	H	1.537009	-0.465134	1.062220
H47	H	1.542655	-0.526743	0.971541
H48	H	1.390704	-0.578368	1.020877
H49	H	1.385076	-0.516767	1.111581
H50	H	1.470729	-0.582609	1.111408
C51	C	1.130296	-0.493321	0.639251
C52	C	1.193024	-0.447676	0.706253
C53	C	1.247888	-0.499119	0.772979
H54	H	1.082371	-0.524126	0.679132
H55	H	1.172907	-0.528367	0.599176
H56	H	1.150418	-0.412644	0.746324
H57	H	1.240970	-0.416872	0.666401
H58	H	1.290498	-0.534165	0.732904
H59	H	1.199954	-0.529922	0.812853
H60	H	1.290462	-0.468158	0.818441
C61	C	0.958404	-0.332521	0.431006
C62	C	1.021037	-0.378151	0.363985
C63	C	1.075866	-0.326696	0.297242
H64	H	0.910457	-0.301727	0.391140
H65	H	1.001075	-0.297464	0.471067
H66	H	0.978369	-0.413194	0.323929
H67	H	1.069003	-0.408943	0.403823
H68	H	1.118537	-0.291639	0.337302
H69	H	1.027912	-0.295905	0.257382
H70	H	1.118376	-0.357648	0.251766
C71	C	1.646324	-0.283297	1.123587
C72	C	1.631928	-0.294360	1.230813
C73	C	1.698630	-0.242842	1.285735
H74	H	1.716586	-0.295039	1.105879
H75	H	1.631059	-0.229097	1.105826
H76	H	1.647201	-0.348548	1.248567
H77	H	1.561680	-0.282612	1.248552
H78	H	1.683365	-0.188642	1.267973
H79	H	1.768888	-0.254588	1.268018
H80	H	1.688865	-0.250336	1.358493
H81	H	1.077981	-0.346382	0.449157
