data_functionalizedCrystal
_audit_creation_method	'MofGen! by Chris Wilmer'
_symmetry_space_group_name_H-M	'P1'
_symmetry_Int_Tables_number	1
_symmetry_cell_setting	triclinic
loop_
_symmetry_equiv_pos_as_xyz
  x,y,z
_cell_length_a	14.971486
_cell_length_b	16.098538
_cell_length_c	17.019250
_cell_angle_alpha	88.842345
_cell_angle_beta	96.501064
_cell_angle_gamma	92.737004
loop_
_atom_site_label
_atom_site_type_symbol
_atom_site_fract_x
_atom_site_fract_y
_atom_site_fract_z
O1	O	1.191093	0.076259	-0.098923
O2	O	0.930713	0.077162	-0.111188
O3	O	1.067705	0.068494	0.009355
O4	O	1.054102	0.084927	-0.219465
O5	O	1.059703	-0.069515	0.002341
O6	O	0.922711	-0.060846	-0.118202
O7	O	1.183091	-0.061749	-0.105937
Zn8	Zn	1.051630	-0.083210	-0.113183
Zn9	Zn	1.062174	0.098623	-0.103942
O10	O	1.046099	-0.053081	-0.226479
C11	C	0.893387	0.008121	-0.114146
C12	C	0.794088	0.008012	-0.112502
N13	N	1.044441	-0.207305	-0.119489
C14	C	0.736972	0.013097	-0.183318
C15	C	0.643670	0.012973	-0.181769
C16	C	0.607485	0.007770	-0.109403
C17	C	0.664607	0.002683	-0.038582
C18	C	0.757908	0.002801	-0.040132
C19	C	0.470139	0.002440	-0.035357
C20	C	0.376832	0.002324	-0.033807
C21	C	0.355901	0.012612	-0.176994
C22	C	0.449202	0.012730	-0.178544
C23	C	0.506318	0.007644	-0.107722
C24	C	1.102607	-0.254568	-0.068344
C25	C	1.097586	-0.341439	-0.072763
C26	C	1.034403	-0.381046	-0.128332
C27	C	0.976231	-0.333777	-0.179479
C28	C	0.981248	-0.246907	-0.175055
C29	C	1.016215	-0.643144	-0.144353
C30	C	1.011204	-0.730019	-0.148774
C31	C	1.132559	-0.737676	-0.042057
C32	C	1.137574	-0.650805	-0.037642
C33	C	1.079399	-0.603543	-0.088786
C34	C	1.029271	-0.469842	-0.132851
C35	C	1.084527	-0.514749	-0.084262
C36	C	1.220418	0.007293	-0.102978
C37	C	1.319717	0.007408	-0.104622
C38	C	1.063034	-0.002611	0.035131
C39	C	1.061028	-0.008872	0.122386
N40	N	1.069370	0.222718	-0.097629
C41	C	1.049385	-0.048018	0.615686
C42	C	1.051278	-0.042140	0.533701
C43	C	1.056594	0.036030	0.496524
C44	C	1.060007	0.108325	0.541335
C45	C	1.058108	0.102446	0.623318
C46	C	1.062542	0.057545	0.249180
C47	C	1.064444	0.063418	0.167192
C48	C	1.055713	-0.087048	0.159563
C49	C	1.053819	-0.092920	0.241548
C50	C	1.057228	-0.020624	0.286352
C51	C	1.058532	0.042040	0.412723
C52	C	1.055284	-0.026635	0.370150
C53	C	1.050776	0.018021	0.747745
C54	C	1.052801	0.024272	0.660491
H55	H	0.766426	0.017334	-0.242246
H56	H	1.064331	0.171973	0.511059
H57	H	0.959750	-0.762262	-0.194028
C58	C	1.196540	-0.789671	0.014204
N59	N	1.244730	-0.828834	0.056585
C60	C	0.532965	-0.003152	0.042551
N61	N	0.580287	-0.007358	0.101231
C62	C	1.161553	-0.393426	-0.016480
N63	N	1.209727	-0.432583	0.025922
C64	C	1.064396	0.128025	0.371822
N65	N	1.068815	0.192789	0.341013
C66	C	1.061873	0.181972	0.672605
N67	N	1.064708	0.241873	0.709726
H68	H	1.065326	0.116413	0.285650
C69	C	1.047519	-0.121666	0.484418
N70	N	1.044686	-0.181568	0.447299
H71	H	0.977828	-0.502097	-0.178098
C72	C	1.207076	-0.607245	0.023491
N73	N	1.259427	-0.574435	0.069538
C74	C	1.047962	-0.178912	0.282435
N75	N	1.043550	-0.243683	0.313231
C76	C	0.952336	-0.591160	-0.200716
N77	N	0.904261	-0.552000	-0.243208
C78	C	1.172114	-0.211010	-0.007214
N79	N	1.224465	-0.178204	0.038834
C80	C	1.051950	-0.166567	0.110271
N81	N	1.049110	-0.226465	0.073144
H82	H	1.050950	-0.090281	0.400423
H83	H	0.924781	-0.366029	-0.224721
C84	C	1.070285	0.149415	0.126299
N85	N	1.074683	0.214184	0.095498
C86	C	0.580845	0.018552	-0.259673
N87	N	0.533526	0.022748	-0.318354
H88	H	0.933882	-0.208426	-0.216702
H89	H	1.045060	-0.111673	0.645949
H90	H	0.478661	0.016974	-0.237470
H91	H	0.309392	0.016750	-0.234660
H92	H	0.347374	-0.001914	0.025120
H93	H	0.804411	-0.001339	0.017534
H94	H	0.635137	-0.001565	0.020339
H95	H	1.135968	-0.482499	-0.039015
