data_functionalizedCrystal
_audit_creation_method	'MofGen! by Chris Wilmer'
_symmetry_space_group_name_H-M	'P1'
_symmetry_Int_Tables_number	1
_symmetry_cell_setting	triclinic
loop_
_symmetry_equiv_pos_as_xyz
  x,y,z
_cell_length_a	11.026607
_cell_length_b	14.853567
_cell_length_c	9.482900
_cell_angle_alpha	99.351342
_cell_angle_beta	78.636152
_cell_angle_gamma	96.110474
loop_
_atom_site_label
_atom_site_type_symbol
_atom_site_fract_x
_atom_site_fract_y
_atom_site_fract_z
O1	O	1.629690	0.366576	-0.120866
O2	O	1.276313	0.323576	-0.120871
O3	O	1.462441	0.215369	-0.120872
O4	O	1.443561	0.474783	-0.120864
O5	O	1.424635	0.237461	0.120920
O6	O	1.238506	0.345668	0.120922
O7	O	1.591884	0.388668	0.120927
Cu8	Cu	1.411743	0.369186	0.143002
Cu9	Cu	1.456453	0.343059	-0.142946
O10	O	1.405755	0.496875	0.120929
C11	C	1.212185	0.326689	0.000025
C12	C	1.077432	0.303041	0.000022
C13	C	1.442683	0.192688	0.000020
C14	C	1.440122	0.092190	0.000007
C15	C	1.003736	0.368337	0.000023
C16	C	0.864461	0.343897	0.000020
C17	C	1.318718	-0.339931	0.000033
C18	C	1.539842	-0.325531	0.000036
C19	C	1.542254	-0.231109	0.000028
C20	C	1.432895	-0.191094	0.000024
C21	C	1.321125	-0.245500	0.000029
C22	C	1.654019	-0.176694	0.000038
C23	C	1.656435	-0.082266	0.000031
C24	C	1.547077	-0.042250	0.000017
C25	C	1.435303	-0.096663	0.000020
C26	C	1.325944	-0.056648	0.000016
C27	C	1.214170	-0.111060	0.000009
C28	C	1.211767	-0.205484	0.000015
C29	C	1.549480	0.052174	0.000011
C30	C	1.328352	0.037783	0.000012
C31	C	1.656012	0.385555	0.000029
C32	C	1.790766	0.409202	0.000022
C33	C	1.425513	0.519556	0.000033
C34	C	1.428076	0.620054	0.000037
N35	N	1.380304	0.387562	0.344123
N36	N	1.487901	0.324677	-0.344066
C37	C	1.447172	0.348473	0.416321
C38	C	1.421024	0.363771	0.583739
H39	H	1.043750	0.442333	0.000034
N40	N	1.024451	0.205021	0.000011
H41	H	1.038679	0.182158	0.089643
H42	H	0.932485	0.201524	-0.000045
N43	N	1.319543	0.423107	0.666021
H44	H	1.278510	0.447091	0.594838
H45	H	1.255868	0.385688	0.729181
H46	H	1.628875	-0.358116	0.000051
N47	N	0.811475	0.245876	0.000035
H48	H	0.719492	0.242311	0.000037
H49	H	0.853818	0.206685	-0.089599
H50	H	1.523775	0.303678	0.354193
H51	H	1.120766	-0.249794	0.000010
N52	N	1.589390	0.265347	0.573655
H53	H	1.630421	0.241364	0.644840
H54	H	1.552507	0.212259	0.510510
N55	N	1.278821	0.446888	0.426412
H56	H	1.315617	0.500022	0.489560
H57	H	1.237823	0.470805	0.355138
H58	H	1.743051	-0.209281	0.000054
H59	H	1.747448	-0.037972	0.000035
N60	N	1.198161	-0.398605	0.000039
H61	H	1.164259	-0.393507	-0.089593
H62	H	1.213312	-0.464469	0.000096
H63	H	0.830773	0.483203	0.000034
H64	H	1.239298	0.070355	0.000002
H65	H	1.640483	0.096473	0.000026
H66	H	1.125129	-0.078466	0.000016
