data_functionalizedCrystal
_audit_creation_method	'MofGen! by Chris Wilmer'
_symmetry_space_group_name_H-M	'P1'
_symmetry_Int_Tables_number	1
_symmetry_cell_setting	triclinic
loop_
_symmetry_equiv_pos_as_xyz
  x,y,z
_cell_length_a	14.044220
_cell_length_b	14.044220
_cell_length_c	13.101039
_cell_angle_alpha	93.669626
_cell_angle_beta	86.340132
_cell_angle_gamma	93.188878
loop_
_atom_site_label
_atom_site_type_symbol
_atom_site_fract_x
_atom_site_fract_y
_atom_site_fract_z
O1	O	1.281968	0.225349	-0.085100
O2	O	1.005298	0.217042	-0.085126
O3	O	1.139480	0.082860	-0.085109
O4	O	1.147786	0.359531	-0.085117
O5	O	1.129854	0.092504	0.085320
O6	O	0.995672	0.226686	0.085302
O7	O	1.272342	0.234994	0.085329
Zn8	Zn	1.132479	0.232371	0.112375
Zn9	Zn	1.145161	0.219664	-0.112172
O10	O	1.138160	0.369176	0.085311
C11	C	0.964863	0.218228	0.000085
C12	C	0.858721	0.207383	0.000075
C13	C	1.146609	0.399975	0.000096
C14	C	1.157454	0.506117	0.000093
C15	C	1.131031	0.052060	0.000104
C16	C	1.120187	-0.054083	0.000100
C17	C	0.664382	0.187558	0.000096
C18	C	0.613252	0.264472	0.000098
C19	C	0.505115	0.253442	0.000109
C20	C	0.772529	0.198587	0.000084
C21	C	1.312777	0.233807	0.000115
C22	C	1.418919	0.244652	0.000119
N23	N	1.123830	0.241044	0.265622
C24	C	1.177279	0.700456	0.000100
C25	C	1.100365	0.751585	0.000094
C26	C	1.111397	0.859721	0.000097
C27	C	1.166249	0.592309	0.000096
N28	N	1.153817	0.210984	-0.265420
C29	C	1.112064	0.252852	0.474663
C30	C	1.165580	0.199179	0.525546
C31	C	1.159033	0.205749	0.641863
C32	C	1.118610	0.246283	0.358335
H33	H	0.650692	0.338606	0.000091
C34	C	1.277424	0.751026	0.000120
C35	C	1.288455	0.860735	0.000131
C36	C	1.388598	0.911319	0.000156
C37	C	1.477709	0.852196	0.000170
C38	C	1.466681	0.742481	0.000160
C39	C	1.366538	0.691896	0.000135
H40	H	1.222487	0.904507	0.000120
H41	H	1.396761	0.992538	0.000164
H42	H	1.551841	0.889641	0.000189
H43	H	1.532649	0.698708	0.000171
H44	H	1.358374	0.610678	0.000127
C45	C	1.000212	0.701016	0.000103
C46	C	0.989170	0.591309	0.000114
C47	C	0.889020	0.540736	0.000134
C48	C	0.799914	0.599869	0.000141
C49	C	0.810953	0.709582	0.000130
C50	C	0.911103	0.760156	0.000111
H51	H	1.055134	0.547529	0.000109
H52	H	0.880849	0.459519	0.000142
H53	H	0.725777	0.562432	0.000156
H54	H	0.744989	0.753362	0.000136
H55	H	0.919274	0.841373	0.000102
C56	C	1.234126	0.130443	0.466387
C57	C	1.240613	0.123835	0.348387
C58	C	1.309159	0.055105	0.289223
C59	C	1.371218	-0.007016	0.348059
C60	C	1.364733	-0.000409	0.466066
C61	C	1.296187	0.068320	0.525230
H62	H	1.194671	0.169822	0.304827
H63	H	1.313959	0.050215	0.201866
H64	H	1.421960	-0.057893	0.304262
H65	H	1.410675	-0.046397	0.509626
H66	H	1.291387	0.073210	0.612587
C67	C	1.043536	0.321599	0.533817
C68	C	1.036323	0.327482	0.651813
C69	C	0.967800	0.396231	0.710981
C70	C	0.906489	0.459098	0.652152
C71	C	0.913699	0.453218	0.534150
C72	C	0.982223	0.384468	0.474982
H73	H	1.081711	0.280942	0.695367
H74	H	0.962462	0.400584	0.798334
H75	H	0.855763	0.509991	0.695952
H76	H	0.868311	0.499757	0.490595
H77	H	0.987560	0.380115	0.387629
H78	H	0.626945	0.113431	0.000104
