data_functionalizedCrystal
_audit_creation_method	'MofGen! by Chris Wilmer'
_symmetry_space_group_name_H-M	'P1'
_symmetry_Int_Tables_number	1
_symmetry_cell_setting	triclinic
loop_
_symmetry_equiv_pos_as_xyz
  x,y,z
_cell_length_a	11.026607
_cell_length_b	10.654550
_cell_length_c	9.730223
_cell_angle_alpha	90.004253
_cell_angle_beta	89.998259
_cell_angle_gamma	83.464526
loop_
_atom_site_label
_atom_site_type_symbol
_atom_site_fract_x
_atom_site_fract_y
_atom_site_fract_z
O1	O	1.614596	-0.526878	-0.114270
O2	O	1.260784	-0.466883	-0.114277
O3	O	1.445825	-0.315907	-0.114264
O4	O	1.429555	-0.677854	-0.114282
O5	O	1.445813	-0.315899	0.114316
O6	O	1.260773	-0.466875	0.114303
O7	O	1.614584	-0.526871	0.114310
Zn8	Zn	1.437676	-0.496871	0.150599
Zn9	Zn	1.437692	-0.496882	-0.150565
O10	O	1.429543	-0.677846	0.114298
C11	C	1.215474	-0.455811	0.000012
C12	C	1.080483	-0.422816	0.000010
C13	C	1.444624	-0.268846	0.000025
C14	C	1.441050	-0.128627	0.000023
C15	C	1.659894	-0.537943	0.000018
C16	C	1.794885	-0.570937	0.000012
C17	C	1.867924	-0.479834	0.000014
C18	C	2.007445	-0.513933	0.000007
C19	C	1.430744	-0.724907	0.000006
C20	C	1.434318	-0.865126	-0.000001
N21	N	1.437674	-0.496866	0.356135
C22	C	1.549999	-0.072791	0.000024
C23	C	1.546633	0.058961	0.000008
C24	C	1.325361	0.079029	-0.000007
C25	C	1.328728	-0.052720	0.000000
N26	N	1.437703	-0.496880	-0.356102
C27	C	1.519638	-0.430056	0.428067
C28	C	1.519650	-0.430059	0.571949
C29	C	1.355731	-0.563692	0.571957
C30	C	1.355714	-0.563681	0.428077
H31	H	1.827164	-0.376592	0.000042
C32	C	1.811141	-0.770304	0.117503
C33	C	1.849902	-0.710313	0.000002
H34	H	1.845112	-0.856348	0.117497
H35	H	1.724608	-0.765679	0.117495
H36	H	1.837435	-0.729579	0.197207
H37	H	1.823599	-0.751032	-0.079703
H38	H	1.936454	-0.714945	-0.000002
H39	H	1.288963	-0.618084	0.369506
C40	C	1.739633	-0.130478	-0.117484
C41	C	1.673459	-0.156233	0.000026
H42	H	1.815851	-0.181997	-0.117488
H43	H	1.753219	-0.044033	-0.117477
H44	H	1.694714	-0.147960	-0.197182
H45	H	1.718375	-0.138742	0.079725
H46	H	1.659878	-0.242698	0.000032
C47	C	2.190019	-0.660119	-0.000030
C48	C	2.062451	-0.653317	-0.000017
H49	H	2.223975	-0.746167	-0.000058
H50	H	2.216301	-0.619422	0.079683
H51	H	2.216293	-0.619395	-0.079740
H52	H	2.036176	-0.694033	0.079698
H53	H	2.036158	-0.694031	-0.079738
H54	H	1.635351	0.104416	0.000006
H55	H	2.039730	-0.319568	-0.000073
C56	C	1.681655	-0.297954	0.442516
C57	C	1.609716	-0.356599	0.348987
H58	H	1.737259	-0.252595	0.393696
H59	H	1.725831	-0.360244	0.498613
H60	H	1.630661	-0.241230	0.498656
H61	H	1.660711	-0.413330	0.292854
H62	H	1.565537	-0.294301	0.292867
H63	H	1.233911	0.140848	-0.000023
C64	C	1.109661	-0.019659	-0.000001
C65	C	1.208961	-0.114104	0.000003
H66	H	1.035729	-0.057559	0.000006
H67	H	1.112953	0.031299	-0.079708
H68	H	1.112950	0.031321	0.079714
H69	H	1.205678	-0.165080	-0.079717
H70	H	1.205668	-0.165084	0.079719
H71	H	1.586391	-0.375654	0.630512
C72	C	1.190529	-0.553500	0.733809
C73	C	1.265653	-0.637141	0.651047
H74	H	1.134926	-0.598851	0.782640
H75	H	1.146352	-0.491222	0.677698
H76	H	1.239363	-0.513719	0.797234
H77	H	1.216820	-0.676916	0.587615
H78	H	1.309834	-0.699442	0.707162
