data_functionalizedCrystal
_audit_creation_method	'MofGen! by Chris Wilmer'
_symmetry_space_group_name_H-M	'P1'
_symmetry_Int_Tables_number	1
_symmetry_cell_setting	triclinic
loop_
_symmetry_equiv_pos_as_xyz
  x,y,z
_cell_length_a	16.120484
_cell_length_b	12.827893
_cell_length_c	12.827885
_cell_angle_alpha	89.980728
_cell_angle_beta	87.136072
_cell_angle_gamma	87.074569
loop_
_atom_site_label
_atom_site_type_symbol
_atom_site_fract_x
_atom_site_fract_y
_atom_site_fract_z
Zn1	Zn	-0.331866	-1.576504	0.611895
Zn2	Zn	0.168134	-1.076504	1.111895
Zn3	Zn	-0.471301	-1.567505	0.445998
Zn4	Zn	0.028699	-1.067505	0.945998
Zn5	Zn	-0.331907	-1.401742	0.437171
Zn6	Zn	0.168093	-0.901742	0.937171
Zn7	Zn	-0.471239	-1.392841	0.620694
Zn8	Zn	0.028761	-0.892841	1.120694
O9	O	-0.401579	-1.484648	0.528940
O10	O	0.098421	-0.984648	1.028940
O11	O	-0.350372	-1.721545	0.589900
O12	O	0.149628	-1.221545	1.089900
O13	O	-0.452853	-1.545475	0.298594
O14	O	0.047147	-1.045475	0.798594
O15	O	-0.215236	-1.432416	0.452972
O16	O	0.284764	-0.932416	0.952972
O17	O	-0.452814	-1.714934	0.468017
O18	O	0.047186	-1.214934	0.968017
O19	O	-0.215206	-1.560812	0.581341
O20	O	0.284794	-1.060812	1.081341
O21	O	-0.350441	-1.423690	0.292109
O22	O	0.149559	-0.923690	0.792109
O23	O	-0.350381	-1.254326	0.461505
O24	O	0.149619	-0.754326	0.961505
O25	O	-0.452708	-1.417245	0.765761
O26	O	0.047292	-0.917245	1.265761
O27	O	-0.452748	-1.247787	0.596338
O28	O	0.047252	-0.747787	1.096338
O29	O	-0.350311	-1.552181	0.759296
O30	O	0.149689	-1.052181	1.259296
O31	O	-0.587959	-1.536844	0.476549
O32	O	-0.087959	-1.036844	0.976549
O33	O	-0.587913	-1.408520	0.604897
O34	O	-0.087913	-0.908520	1.104897
C35	C	-0.401562	-1.213139	0.528919
C36	C	0.098438	-0.713139	1.028919
C37	C	-0.401576	-1.096985	0.528936
C38	C	0.098424	-0.596985	1.028936
C39	C	-0.618186	-1.470768	0.542658
C40	C	-0.118186	-0.970768	1.042658
C41	C	-0.710851	-1.464925	0.548562
C42	C	-0.210851	-0.964925	1.048562
C43	C	-0.401498	-1.484724	0.801505
C44	C	0.098502	-0.984724	1.301505
C45	C	-0.401464	-1.484757	0.917656
C46	C	0.098536	-0.984757	1.417656
C47	C	-0.880512	-1.454265	0.559362
C48	C	-0.380512	-0.954265	1.059362
C49	C	-0.921804	-1.515219	0.498534
C50	C	-0.421804	-1.015219	0.998534
C51	C	-1.016209	-1.509287	0.504544
C52	C	-0.516209	-1.009287	1.004544
C53	C	-0.786099	-1.460195	0.553355
C54	C	-0.286099	-0.960195	1.053355
C55	C	-0.184125	-1.498611	0.515191
C56	C	0.315875	-0.998611	1.015191
C57	C	-0.091460	-1.504561	0.509332
C58	C	0.408540	-1.004561	1.009332
C59	C	-0.401595	-1.757217	0.528962
C60	C	0.098405	-1.257217	1.028962
C61	C	-0.401602	-1.873370	0.528971
C62	C	0.098398	-1.373370	1.028971
C63	C	-0.452309	-1.041987	0.595563
C64	C	0.047691	-0.541987	1.095563
C65	C	-0.452324	-0.921936	0.595582
C66	C	0.047676	-0.421936	1.095582
C67	C	-0.401598	-1.484636	0.257431
C68	C	0.098402	-0.984636	0.757431
C69	C	-0.401397	-1.484821	0.141266
C70	C	0.098603	-0.984821	0.641266
C71	C	-0.350785	-1.551535	0.966241
C72	C	0.149215	-1.051535	1.466241
C73	C	-0.350749	-1.551570	1.086289
C74	C	0.149251	-1.051570	1.586289
H75	H	-0.916059	-1.397630	0.615947
H76	H	-0.416059	-0.897630	1.115947
C77	C	-0.557842	-1.024584	0.734170
C78	C	-0.057842	-0.524584	1.234170
C79	C	-0.510931	-1.098392	0.672558
C80	C	-0.010931	-0.598392	1.172558
H81	H	-0.594029	-1.059407	0.781710
H82	H	-0.094029	-0.559407	1.281710
H83	H	-0.589727	-0.979958	0.690639
H84	H	-0.089727	-0.479958	1.190639
H85	H	-0.521583	-0.984344	0.771961
H86	H	-0.021583	-0.484344	1.271961
H87	H	-0.547190	-1.138627	0.634762
H88	H	-0.047190	-0.638627	1.134762
H89	H	-0.479044	-1.143036	0.716095
H90	H	0.020956	-0.643036	1.216095
C91	C	-0.389978	-0.974801	0.387773
C92	C	0.110022	-0.474801	0.887773
C93	C	-0.342957	-1.040588	0.451931
C94	C	0.157043	-0.540588	0.951931
H95	H	-0.353788	-0.939995	0.340225
H96	H	0.146212	-0.439995	0.840225
H97	H	-0.421795	-0.924740	0.429577
H98	H	0.078205	-0.424740	0.929577
H99	H	-0.426231	-1.015060	0.349994
H100	H	0.073769	-0.515060	0.849994
H101	H	-0.306708	-1.000328	0.489716
H102	H	0.193292	-0.500328	0.989716
H103	H	-0.311126	-1.090656	0.410122
H104	H	0.188874	-0.590656	0.910122
H105	H	-0.444791	-1.427651	1.099479
H106	H	0.055209	-0.927651	1.599479
H107	H	-0.886255	-1.571857	0.441944
H108	H	-0.386255	-1.071857	0.941944
C109	C	-0.499625	-0.751539	0.657709
C110	C	0.000375	-0.251539	1.157709
C111	C	-0.510962	-0.858112	0.672594
C112	C	-0.010962	-0.358112	1.172594
H113	H	-0.535824	-0.712138	0.705260
H114	H	-0.035824	-0.212138	1.205260
H115	H	-0.511753	-0.732900	0.588234
H116	H	-0.011753	-0.232900	1.088234
H117	H	-0.443610	-0.737302	0.669556
H118	H	0.056390	-0.237302	1.169556
H119	H	-0.566975	-0.872350	0.660740
H120	H	-0.066975	-0.372350	1.160740
H121	H	-0.498839	-0.876757	0.742086
H122	H	0.001161	-0.376757	1.242086
H123	H	-0.358168	-0.920648	0.471922
H124	H	0.141832	-0.420648	0.971922
H125	H	-0.307421	-1.608676	0.918962
H126	H	0.192579	-1.108676	1.418962
H127	H	-0.307363	-1.608744	1.128084
H128	H	0.192637	-1.108744	1.628084
C129	C	-0.513486	-1.463197	1.047606
C130	C	-0.013486	-0.963197	1.547606
C131	C	-0.460010	-1.407611	0.981467
C132	C	0.039990	-0.907611	1.481467
H133	H	-0.549634	-1.415567	1.086992
H134	H	-0.049634	-0.915567	1.586992
H135	H	-0.481684	-1.505083	1.093641
H136	H	0.018316	-1.005083	1.593641
H137	H	-0.545415	-1.506627	1.007036
H138	H	-0.045415	-1.006627	1.507036
H139	H	-0.428076	-1.364186	1.022038
H140	H	0.071924	-0.864186	1.522038
H141	H	-0.491815	-1.365707	0.935427
H142	H	0.008185	-0.865707	1.435427
