data_functionalizedCrystal
_audit_creation_method	'MofGen! by Chris Wilmer'
_symmetry_space_group_name_H-M	'P1'
_symmetry_Int_Tables_number	1
_symmetry_cell_setting	triclinic
loop_
_symmetry_equiv_pos_as_xyz
  x,y,z
_cell_length_a	16.992694
_cell_length_b	16.974894
_cell_length_c	15.455313
_cell_angle_alpha	89.016788
_cell_angle_beta	92.857794
_cell_angle_gamma	92.973137
loop_
_atom_site_label
_atom_site_type_symbol
_atom_site_fract_x
_atom_site_fract_y
_atom_site_fract_z
O1	O	-1.044200	0.163895	-0.083510
O2	O	-0.544200	0.663895	0.416490
O3	O	-0.815912	0.162060	-0.083407
O4	O	-0.315912	0.662060	0.416593
O5	O	-0.936033	0.048638	-0.075438
O6	O	-0.436033	0.548638	0.424562
O7	O	-0.924079	0.277317	-0.091480
O8	O	-0.424079	0.777317	0.408520
O9	O	-0.929164	0.055096	0.068371
O10	O	-0.429164	0.555096	0.568371
O11	O	-0.809043	0.168518	0.060401
O12	O	-0.309043	0.668518	0.560401
O13	O	-1.037331	0.170352	0.060298
O14	O	-0.537331	0.670352	0.560298
Cu15	Cu	-0.922560	0.170025	0.073480
Cu16	Cu	-0.422560	0.670025	0.573480
Cu17	Cu	-0.930683	0.162388	-0.096590
Cu18	Cu	-0.430683	0.662388	0.403410
O19	O	-0.917210	0.283775	0.052328
O20	O	-0.417210	0.783775	0.552328
C21	C	-0.783260	0.162930	-0.011341
C22	C	-0.283260	0.662930	0.488659
C23	C	-0.696200	0.155892	-0.010857
C24	C	-0.196200	0.655892	0.489143
C25	C	-0.932015	0.022471	-0.001473
C26	C	-0.432015	0.522471	0.498527
C27	C	-0.930266	-0.065121	0.004665
C28	C	-0.430266	0.434879	0.504665
C29	C	-1.069984	0.169482	-0.011770
C30	C	-0.569984	0.669482	0.488230
C31	C	-1.157044	0.176520	-0.012260
C32	C	-0.657044	0.676520	0.487740
C33	C	-0.921228	0.309942	-0.021638
C34	C	-0.421228	0.809942	0.478362
C35	C	-0.922977	0.397534	-0.027782
C36	C	-0.422977	0.897534	0.472218
C37	C	-0.646116	0.223793	-0.015620
C38	C	-0.146116	0.723793	0.484380
C39	C	-0.564313	0.217177	-0.015144
C40	C	-0.064313	0.717177	0.484856
C41	C	-0.532597	0.142659	-0.009911
C42	C	-0.032597	0.642659	0.490089
C43	C	-0.582687	0.074753	-0.005146
C44	C	-0.082687	0.574753	0.494854
C45	C	-0.664488	0.081370	-0.005616
C46	C	-0.164488	0.581370	0.494384
C47	C	-0.288935	0.115232	-0.007964
C48	C	0.211065	0.615232	0.492036
C49	C	-0.207128	0.108619	-0.007497
C50	C	0.292872	0.608619	0.492503
C51	C	-0.188760	0.251044	-0.017494
C52	C	0.311240	0.751044	0.482506
C53	C	-0.270563	0.257655	-0.017969
C54	C	0.229437	0.757655	0.482031
C55	C	-0.320646	0.189749	-0.013198
C56	C	0.179354	0.689749	0.486802
N57	N	-0.448982	0.135894	-0.009427
N58	N	0.051018	0.635894	0.490573
N59	N	-0.404259	0.196515	-0.013676
N60	N	0.095741	0.696515	0.486324
N61	N	-0.916852	0.175396	0.193098
N62	N	-0.416852	0.675396	0.693098
C63	C	-0.920054	0.442209	0.047716
C64	C	-0.420054	0.942209	0.547716
C65	C	-0.921687	0.524511	0.041933
C66	C	-0.421687	1.024511	0.541933
C67	C	-0.926250	0.562135	-0.039350
C68	C	-0.426250	1.062135	0.460650
C69	C	-0.929171	0.517453	-0.114854
C70	C	-0.429171	1.017453	0.385146
C71	C	-0.927532	0.435154	-0.109070
C72	C	-0.427532	0.935154	0.390930
C73	C	-0.931548	0.807897	-0.065055
C74	C	-0.431548	1.307897	0.434945
C75	C	-0.933190	0.890203	-0.070833
C76	C	-0.433190	1.390203	0.429167
C77	C	-0.925704	0.897255	0.085954
C78	C	-0.425704	1.397255	0.585954
C79	C	-0.924070	0.814953	0.091731
C80	C	-0.424070	1.314953	0.591731
C81	C	-0.926987	0.770279	0.016227
C82	C	-0.426987	1.270279	0.516227
N83	N	-0.927922	0.646261	-0.045263
N84	N	-0.427922	1.146261	0.454737
N85	N	-0.925310	0.686155	0.022141
N86	N	-0.425310	1.186155	0.522141
N87	N	-0.936397	0.157011	-0.216207
N88	N	-0.436397	0.657011	0.283793
C89	C	-0.967901	0.127230	0.241877
C90	C	-0.467901	0.627230	0.741877
C91	C	-0.963592	0.131300	0.332399
C92	C	-0.463592	0.631300	0.832399
C93	C	-0.908236	0.183540	0.374140
C94	C	-0.408236	0.683540	0.874140
C95	C	-0.857181	0.231707	0.325355
C96	C	-0.357181	0.731707	0.825355
C97	C	-0.861488	0.227633	0.234835
C98	C	-0.361488	0.727633	0.734835
C99	C	-0.889649	0.201104	0.644488
C100	C	-0.389649	0.701104	1.144488
C101	C	-0.885348	0.205177	0.735014
C102	C	-0.385348	0.705177	1.235014
C103	C	-0.991758	0.104768	0.742051
C104	C	-0.491758	0.604768	1.242051
C105	C	-0.996063	0.100701	0.651529
C106	C	-0.496063	0.600701	1.151529
C107	C	-0.945005	0.148866	0.602752
C108	C	-0.445005	0.648866	1.102752
N109	N	-0.903832	0.187703	0.466668
N110	N	-0.403832	0.687703	0.966668
N111	N	-0.949406	0.144699	0.510227
N112	N	-0.449406	0.644699	1.010227
H113	H	-0.671932	0.284474	-0.019882
H114	H	-0.171932	0.784474	0.480118
F115	F	-0.342226	0.042959	-0.002887
F116	F	0.157774	0.542959	0.497113
H117	H	-0.181308	0.047934	-0.003237
H118	H	0.318692	0.547934	0.496763
F119	F	-0.922597	0.944806	0.166305
F120	F	-0.422597	1.444806	0.666305
F121	F	-0.548929	-0.004556	0.000429
F122	F	-0.048929	0.495444	0.500429
H123	H	-0.919318	0.560882	0.103412
H124	H	-0.419318	1.060882	0.603412
F125	F	-0.511013	0.289447	-0.020217
F126	F	-0.011013	0.789447	0.479783
H127	H	-0.705266	0.026078	-0.001738
H128	H	-0.205266	0.526078	0.498262
H129	H	-0.916342	0.411582	0.113905
H130	H	-0.416342	0.911582	0.613905
F131	F	-0.919213	0.774917	0.178243
F132	F	-0.419213	1.274917	0.678243
H133	H	-0.936904	0.920834	-0.137027
H134	H	-0.436904	1.420834	0.362973
F135	F	-0.934658	0.760362	-0.145414
F136	F	-0.434658	1.260362	0.354586
H137	H	-0.932881	0.548094	-0.181036
H138	H	-0.432881	1.048094	0.318964
F139	F	-0.930639	0.387607	-0.189426
F140	F	-0.430639	0.887607	0.310574
F141	F	-1.026823	0.071632	0.197461
F142	F	-0.526823	0.571632	0.697461
F143	F	-1.017923	0.080036	0.384313
F144	F	-0.517923	0.580036	0.884313
H145	H	-1.033326	0.065553	0.781774
H146	H	-0.533326	0.565553	1.281774
H147	H	-1.041137	0.058163	0.617545
H148	H	-0.541137	0.558163	1.117545
F149	F	-0.826428	0.260783	0.779432
F150	F	-0.326428	0.760783	1.279432
F151	F	-0.835312	0.252367	0.592582
F152	F	-0.335312	0.752367	1.092582
F153	F	-0.807151	0.278896	0.182923
F154	F	-0.307151	0.778896	0.682923
F155	F	-0.798263	0.287302	0.369781
F156	F	-0.298263	0.787302	0.869781
H157	H	-0.147974	0.306329	-0.021376
H158	H	0.352026	0.806329	0.478624
F159	F	-0.304312	0.336967	-0.023543
F160	F	0.195688	0.836967	0.476457
