data_functionalizedCrystal
_audit_creation_method	'MofGen! by Chris Wilmer'
_symmetry_space_group_name_H-M	'P1'
_symmetry_Int_Tables_number	1
_symmetry_cell_setting	triclinic
loop_
_symmetry_equiv_pos_as_xyz
  x,y,z
_cell_length_a	6.394984
_cell_length_b	19.288864
_cell_length_c	17.766277
_cell_angle_alpha	90.023209
_cell_angle_beta	89.995318
_cell_angle_gamma	95.184200
loop_
_atom_site_label
_atom_site_type_symbol
_atom_site_fract_x
_atom_site_fract_y
_atom_site_fract_z
O1	O	0.260547	-0.923903	-0.062834
O2	O	0.295694	-0.721986	-0.062782
O3	O	-0.025972	-0.825813	-0.062807
O4	O	0.582213	-0.820077	-0.062810
O5	O	-0.025988	-0.825794	0.062382
O6	O	0.295678	-0.721968	0.062406
O7	O	0.260531	-0.923884	0.062355
Cu8	Cu	0.278103	-0.822924	0.073811
Cu9	Cu	0.278122	-0.822947	-0.074239
O10	O	0.582196	-0.820058	0.062379
C11	C	0.294555	-0.696090	-0.000181
C12	C	0.291160	-0.618953	-0.000162
C13	C	0.261670	-0.949781	-0.000248
C14	C	0.265065	-1.026918	-0.000273
C15	C	0.896213	-0.824663	-0.000210
C16	C	0.660007	-0.821206	-0.000210
N17	N	0.278088	-0.822914	0.177942
N18	N	0.278120	-0.822963	-0.178369
C19	C	0.479899	-0.576104	-0.000174
C20	C	0.476710	-0.503625	-0.000183
C21	C	0.284771	-0.473999	-0.000193
C22	C	0.096007	-0.516858	-0.000176
C23	C	0.099202	-0.589335	-0.000160
C24	C	0.133891	-0.364267	-0.044077
C25	C	0.130704	-0.291791	-0.044097
C26	C	0.274909	-0.250457	-0.000239
C27	C	0.422336	-0.281606	0.043631
C28	C	0.425531	-0.354083	0.043646
C29	C	0.281285	-0.395411	-0.000210
C30	C	0.460203	-0.129018	-0.000260
C31	C	0.457005	-0.056539	-0.000263
C32	C	0.076297	-0.069773	-0.000264
C33	C	0.079500	-0.142251	-0.000253
C34	C	0.271458	-0.171869	-0.000254
C35	C	0.135724	-0.868904	0.217318
C36	C	0.135714	-0.868908	0.296119
C37	C	0.278105	-0.822928	0.335542
C38	C	0.420479	-0.776929	0.296156
C39	C	0.420471	-0.776922	0.217356
C40	C	0.468406	-0.815492	0.460381
C41	C	0.468417	-0.815504	0.539179
C42	C	0.278130	-0.822947	0.578588
C43	C	0.087823	-0.830392	0.539189
C44	C	0.087814	-0.830385	0.460389
C45	C	0.278128	-0.822931	0.420988
C46	C	0.135743	-0.868944	0.703410
C47	C	0.135731	-0.868943	0.782214
C48	C	0.420514	-0.776968	0.782249
C49	C	0.420508	-0.776966	0.703447
C50	C	0.278125	-0.822957	0.664033
H51	H	0.636206	-0.600214	-0.000177
H52	H	0.019790	-0.906392	0.814274
H53	H	0.536413	-0.739491	0.328258
H54	H	0.610706	-0.021652	-0.000269
H55	H	0.623372	-0.809419	0.428300
H56	H	0.536403	-0.739470	0.185295
H57	H	-0.060271	-0.492732	-0.000195
H58	H	0.630408	-0.468731	-0.000191
H59	H	0.545565	-0.379442	0.079369
H60	H	-0.054497	-0.624223	-0.000151
H61	H	-0.067140	-0.836445	0.428313
H62	H	0.010669	-0.266435	-0.079822
H63	H	0.539761	-0.247953	0.079345
H64	H	0.536443	-0.739528	0.814347
H65	H	0.016458	-0.397916	-0.079796
H66	H	-0.074192	-0.177140	-0.000247
H67	H	0.616507	-0.153135	-0.000249
H68	H	-0.079983	-0.045652	-0.000320
H69	H	0.019783	-0.906351	0.185229
H70	H	0.536443	-0.739519	0.671385
H71	H	0.623376	-0.809447	0.571252
H72	H	0.019780	-0.906360	0.328185
H73	H	-0.067128	-0.836453	0.571274
H74	H	0.019800	-0.906391	0.671318
