data_functionalizedCrystal
_audit_creation_method	'MofGen! by Chris Wilmer'
_symmetry_space_group_name_H-M	'P1'
_symmetry_Int_Tables_number	1
_symmetry_cell_setting	triclinic
loop_
_symmetry_equiv_pos_as_xyz
  x,y,z
_cell_length_a	10.654550
_cell_length_b	15.944551
_cell_length_c	9.730223
_cell_angle_alpha	89.997716
_cell_angle_beta	89.996251
_cell_angle_gamma	83.991820
loop_
_atom_site_label
_atom_site_type_symbol
_atom_site_fract_x
_atom_site_fract_y
_atom_site_fract_z
O1	O	1.666308	0.117973	-0.114406
O2	O	1.300684	0.129213	-0.114384
O3	O	1.493480	0.001376	-0.114384
O4	O	1.473511	0.245810	-0.114407
O5	O	1.493478	0.001379	0.114196
O6	O	1.300681	0.129216	0.114196
O7	O	1.666305	0.117976	0.114174
Zn8	Zn	1.483493	0.123597	0.150477
Zn9	Zn	1.483496	0.123592	-0.150687
O10	O	1.473509	0.245813	0.114173
C11	C	1.253895	0.128389	-0.000092
C12	C	1.114484	0.125920	-0.000083
C13	C	1.034024	0.201188	-0.000110
C14	C	0.903034	0.198863	-0.000134
C15	C	0.932975	0.045995	-0.000108
C16	C	1.063963	0.048321	-0.000075
C17	C	1.084545	0.278788	-0.000118
C18	C	1.004084	0.354062	-0.000147
C19	C	0.873094	0.351737	-0.000170
C20	C	0.822564	0.274137	-0.000165
C21	C	1.492650	-0.029921	-0.000093
C22	C	1.490165	-0.123182	-0.000092
C23	C	1.364720	-0.338765	-0.000104
C24	C	1.422971	-0.399443	0.112596
C25	C	1.485668	-0.293934	-0.000103
C26	C	1.423002	-0.399430	-0.112765
C27	C	1.481317	-0.458872	-0.000119
C28	C	1.543953	-0.353384	0.112691
C29	C	1.543967	-0.353364	-0.112772
C30	C	1.602306	-0.414024	-0.000045
C31	C	1.488172	-0.198917	-0.000092
C32	C	1.478822	-0.553887	-0.000119
C33	C	1.713094	0.118800	-0.000122
C34	C	1.852505	0.121269	-0.000140
C35	C	1.474339	0.277110	-0.000120
C36	C	1.476824	0.370371	-0.000130
N37	N	1.483500	0.123599	0.356013
N38	N	1.483499	0.123583	-0.356224
C39	C	1.568892	0.067012	0.427939
C40	C	1.568889	0.067002	0.571822
C41	C	1.398098	0.180173	0.571840
C42	C	1.398096	0.180178	0.427959
C43	C	1.654296	0.010433	0.355993
C44	C	1.739696	-0.046158	0.427920
C45	C	1.739693	-0.046168	0.571803
C46	C	1.654290	0.010412	0.643759
H47	H	1.129476	-0.012970	-0.000056
C48	C	1.612991	-0.325983	0.241553
H49	H	1.614103	-0.266484	0.240798
H50	H	1.697134	-0.352425	0.241880
H51	H	1.570300	-0.342124	0.321487
H52	H	1.654286	0.010393	0.760918
C53	C	1.738038	-0.458043	0.000032
H54	H	1.780793	-0.442282	0.080160
H55	H	1.781321	-0.441570	-0.079271
H56	H	1.735731	-0.517441	-0.000716
C57	C	1.229100	-0.294557	0.000034
H58	H	1.216104	-0.260707	-0.080087
H59	H	1.216697	-0.259941	0.079343
H60	H	1.170828	-0.335759	0.000904
H61	H	0.715901	0.272250	-0.000163
C62	C	1.353867	-0.427012	0.241314
H63	H	1.269468	-0.401000	0.241184
H64	H	1.396020	-0.410484	0.321343
H65	H	1.353458	-0.486564	0.240804
C66	C	1.613013	-0.325762	-0.241496
H67	H	1.569917	-0.341355	-0.321498
H68	H	1.696939	-0.352571	-0.242312
H69	H	1.614748	-0.266319	-0.240109
H70	H	1.654309	0.010437	0.238836
H71	H	1.371831	-0.419804	-0.208051
H72	H	1.809222	-0.092229	0.369325
C73	C	0.877394	-0.039356	-0.000122
H74	H	0.787858	-0.029961	-0.000161
H75	H	0.904985	-0.070384	0.079594
H76	H	0.905035	-0.070377	-0.079838
C77	C	1.833624	-0.108415	0.650919
H78	H	1.884489	-0.142104	0.587459
H79	H	1.788459	-0.143669	0.707048
H80	H	1.885898	-0.077868	0.707043
H81	H	1.328561	0.226256	0.369396
C82	C	1.304145	0.242396	0.650982
H83	H	1.253273	0.276089	0.587537
H84	H	1.349294	0.277647	0.707122
H85	H	1.251880	0.211829	0.707097
C86	C	1.228630	0.281344	-0.000106
H87	H	1.269314	0.225402	-0.000102
H88	H	1.252730	0.310105	0.079595
H89	H	1.252738	0.310091	-0.079836
C90	C	1.059662	0.439414	-0.000151
H91	H	1.149198	0.430021	-0.000146
H92	H	1.032028	0.470443	0.079549
H93	H	1.032061	0.470432	-0.079883
H94	H	0.807585	0.413029	-0.000180
