data_functionalizedCrystal
_audit_creation_method	'MofGen! by Chris Wilmer'
_symmetry_space_group_name_H-M	'P1'
_symmetry_Int_Tables_number	1
_symmetry_cell_setting	triclinic
loop_
_symmetry_equiv_pos_as_xyz
  x,y,z
_cell_length_a	15.297475
_cell_length_b	16.120444
_cell_length_c	16.120256
_cell_angle_alpha	95.616860
_cell_angle_beta	83.675350
_cell_angle_gamma	83.688625
loop_
_atom_site_label
_atom_site_type_symbol
_atom_site_fract_x
_atom_site_fract_y
_atom_site_fract_z
Zn1	Zn	1.308562	-0.577536	-0.709556
Zn2	Zn	1.308448	-0.710203	-0.576848
Zn3	Zn	1.168346	-0.546812	-0.546217
Zn4	Zn	1.152483	-0.690935	-0.690339
O5	O	1.234460	-0.631372	-0.630740
O6	O	1.432500	-0.616057	-0.712813
O7	O	1.296454	-0.683734	-0.456931
O8	O	1.193632	-0.435049	-0.563107
O9	O	1.432416	-0.713527	-0.615313
O10	O	1.296648	-0.457623	-0.683112
O11	O	1.193521	-0.563691	-0.434426
O12	O	1.042288	-0.545008	-0.544474
O13	O	1.166596	-0.680688	-0.808742
O14	O	1.030634	-0.650895	-0.650359
O15	O	1.281267	-0.597374	-0.822860
O16	O	1.281073	-0.823485	-0.596679
O17	O	1.166486	-0.809329	-0.680061
C18	C	1.004321	-0.592527	-0.592008
C19	C	0.905865	-0.575930	-0.575458
C20	C	0.604160	-0.750000	-0.749023
C21	C	0.696664	-0.765600	-0.764569
C22	C	0.748969	-0.718183	-0.717293
C23	C	0.708760	-0.655165	-0.654467
C24	C	0.616246	-0.639568	-0.638914
C25	C	0.761056	-0.607752	-0.607185
C26	C	0.720847	-0.544733	-0.544359
C27	C	0.628342	-0.529139	-0.528809
C28	C	0.576038	-0.576555	-0.576085
C29	C	0.853569	-0.623349	-0.622738
C30	C	0.865656	-0.512917	-0.512629
C31	C	0.773152	-0.497317	-0.497083
C32	C	1.222068	-0.846448	-0.639631
C33	C	1.216847	-0.938473	-0.643476
C34	C	1.261753	-1.154958	-0.611009
C35	C	1.207329	-1.106962	-0.650507
C36	C	1.212627	-1.013206	-0.646593
C37	C	1.256458	-1.248723	-0.614921
C38	C	1.465497	-0.670369	-0.669624
C39	C	1.563951	-0.686987	-0.686194
C40	C	1.222175	-0.640309	-0.846681
C41	C	1.216940	-0.644117	-0.938702
C42	C	1.246922	-0.415461	-0.621836
C43	C	1.252233	-0.323452	-0.618042
C44	C	1.261760	-0.611490	-1.155166
C45	C	1.207354	-0.651031	-1.107175
C46	C	1.212689	-0.647183	-1.013428
C47	C	1.256426	-0.615337	-1.248921
C48	C	1.246751	-0.622418	-0.415645
C49	C	1.252171	-0.618406	-0.323644
H50	H	0.824290	-0.730888	-0.729956
H51	H	0.886298	-0.674659	-0.673892
H52	H	1.312341	-0.574752	-1.125848
C53	C	1.330060	-1.115349	-0.561352
H54	H	1.324693	-1.056615	-0.565198
H55	H	1.388099	-1.139952	-0.584094
H56	H	1.319513	-1.125025	-0.504118
C57	C	1.139004	-1.146564	-0.700154
H58	H	1.105556	-1.104120	-0.724425
H59	H	1.100373	-1.172534	-0.663344
H60	H	1.168938	-1.187466	-0.743335
C61	C	0.740888	-0.834908	-0.833677
H62	H	0.696490	-0.860908	-0.859611
H63	H	0.776704	-0.875698	-0.809505
H64	H	0.776744	-0.810872	-0.874564
C65	C	0.546629	-0.802098	-0.801073
H66	H	0.583822	-0.841848	-0.840733
H67	H	0.510345	-0.765852	-0.829807
H68	H	0.510237	-0.830737	-0.764806
C69	C	0.474281	-0.559410	-0.558972
H70	H	0.448894	-0.596680	-0.596123
H71	H	0.455595	-0.503081	-0.567643
H72	H	0.455577	-0.567912	-0.502588
C73	C	0.584114	-0.459824	-0.459699
H74	H	0.628511	-0.433813	-0.433775
H75	H	0.548255	-0.483852	-0.418813
H76	H	0.548302	-0.419034	-0.483882
C77	C	1.139031	-0.700681	-1.146780
H78	H	1.144372	-0.696798	-1.205509
H79	H	1.080998	-0.677967	-1.122136
H80	H	1.149592	-0.757922	-1.137144
H81	H	0.740400	-0.446007	-0.445929
H82	H	0.908243	-0.474308	-0.474132
