data_functionalizedCrystal
_audit_creation_method	'MofGen! by Chris Wilmer'
_symmetry_space_group_name_H-M	'P1'
_symmetry_Int_Tables_number	1
_symmetry_cell_setting	triclinic
loop_
_symmetry_equiv_pos_as_xyz
  x,y,z
_cell_length_a	14.908571
_cell_length_b	14.909028
_cell_length_c	14.908308
_cell_angle_alpha	90.161781
_cell_angle_beta	90.175053
_cell_angle_gamma	83.236222
loop_
_atom_site_label
_atom_site_type_symbol
_atom_site_fract_x
_atom_site_fract_y
_atom_site_fract_z
Zn1	Zn	1.373969	-0.470975	-0.562081
Zn2	Zn	1.391241	-0.613724	-0.403992
Zn3	Zn	1.231229	-0.453641	-0.404017
Zn4	Zn	1.232203	-0.612652	-0.545702
O5	O	1.307161	-0.537748	-0.478948
O6	O	1.502555	-0.497615	-0.547954
O7	O	1.376835	-0.585683	-0.278539
O8	O	1.242529	-0.329653	-0.431850
O9	O	1.515244	-0.602492	-0.431807
O10	O	1.347399	-0.342388	-0.547979
O11	O	1.259276	-0.468070	-0.278558
O12	O	1.105063	-0.467031	-0.415968
O13	O	1.244188	-0.600664	-0.673331
O14	O	1.105779	-0.583856	-0.520063
O15	O	1.348343	-0.496575	-0.685364
O16	O	1.377779	-0.739870	-0.415925
O17	O	1.260935	-0.739082	-0.520038
C18	C	1.072674	-0.523446	-0.466241
C19	C	0.972360	-0.517351	-0.460825
C20	C	0.784672	-0.627717	-0.558879
C21	C	0.690418	-0.621993	-0.553793
C22	C	0.689596	-0.500175	-0.445573
C23	C	0.783850	-0.505899	-0.450659
C24	C	0.831385	-0.569673	-0.507313
C25	C	0.925641	-0.575401	-0.512393
C26	C	0.924817	-0.453579	-0.404179
C27	C	0.830563	-0.447855	-0.399093
C28	C	1.321361	-0.772223	-0.466223
C29	C	1.327516	-0.872539	-0.460813
C30	C	1.397061	-1.014316	-0.399037
C31	C	1.391282	-0.920060	-0.404117
C32	C	1.269523	-0.919281	-0.512431
C33	C	1.275302	-1.013537	-0.507351
C34	C	1.339074	-1.061051	-0.450654
C35	C	1.344857	-1.155309	-0.445579
C36	C	1.223094	-1.154529	-0.553888
C37	C	1.217315	-1.060273	-0.558968
C38	C	1.542562	-0.552106	-0.491705
C39	C	1.642877	-0.558225	-0.497141
C40	C	1.294448	-0.550434	-0.712787
C41	C	1.289030	-0.555839	-0.812435
C42	C	1.292929	-0.302360	-0.491744
C43	C	1.286864	-0.202051	-0.497197
C44	C	1.387303	-0.457588	-1.012217
C45	C	1.382216	-0.462664	-1.105846
C46	C	1.273763	-0.571063	-1.093322
C47	C	1.278851	-0.565986	-0.999693
C48	C	1.335624	-0.509248	-0.959144
C49	C	1.340716	-0.504177	-0.865514
C50	C	1.232259	-0.612570	-0.852992
C51	C	1.227172	-0.617647	-0.946621
C52	C	1.319872	-0.525050	-0.246026
C53	C	1.325449	-0.519401	-0.146401
H54	H	0.823376	-0.679650	-0.605003
Br55	Br	0.766043	-0.361303	-0.322217
Br56	Br	1.182984	-0.854783	-0.589372
Br57	Br	1.144400	-1.217961	-0.623951
H58	H	1.165391	-1.021576	-0.605127
H59	H	1.386944	-0.457979	-0.832501
H60	H	0.962860	-0.406317	-0.362188
Br61	Br	1.464363	-0.380603	-0.957182
H62	H	1.396786	-1.193994	-0.399417
H63	H	1.424296	-0.420595	-1.149054
H64	H	1.448994	-1.053003	-0.352880
H65	H	0.650876	-0.448247	-0.399455
Br66	Br	1.150124	-0.694641	-1.001660
H67	H	1.227542	-0.617256	-1.126353
H68	H	0.652388	-0.669257	-0.595785
Br69	Br	0.990153	-0.661955	-0.589274
Br70	Br	1.469978	-0.856634	-0.334059
Br71	Br	1.162132	-0.682699	-0.780960
