data_functionalizedCrystal
_audit_creation_method	'MofGen! by Chris Wilmer'
_symmetry_space_group_name_H-M	'P1'
_symmetry_Int_Tables_number	1
_symmetry_cell_setting	triclinic
loop_
_symmetry_equiv_pos_as_xyz
  x,y,z
_cell_length_a	16.109318
_cell_length_b	26.809956
_cell_length_c	16.109301
_cell_angle_alpha	90.005977
_cell_angle_beta	83.465022
_cell_angle_gamma	90.012481
loop_
_atom_site_label
_atom_site_type_symbol
_atom_site_fract_x
_atom_site_fract_y
_atom_site_fract_z
O1	O	1.103137	0.041440	0.106934
O2	O	1.603137	0.541440	0.606934
O3	O	0.861077	0.041450	0.120218
O4	O	1.361077	0.541450	0.620218
O5	O	0.988757	0.041439	-0.007455
O6	O	1.488757	0.541439	0.492545
O7	O	0.975457	0.041450	0.234607
O8	O	1.475457	0.541450	0.734607
O9	O	0.988717	-0.041520	-0.007455
O10	O	1.488717	0.458480	0.492545
O11	O	0.861038	-0.041509	0.120218
O12	O	1.361038	0.458491	0.620218
O13	O	1.103098	-0.041520	0.106934
O14	O	1.603098	0.458480	0.606934
Zn15	Zn	0.982061	-0.054686	0.113576
Zn16	Zn	1.482061	0.445314	0.613576
Zn17	Zn	0.982113	0.054616	0.113576
Zn18	Zn	1.482113	0.554616	0.613576
O19	O	0.975418	-0.041509	0.234606
O20	O	1.475418	0.458491	0.734606
C21	C	0.830083	-0.000028	0.119677
C22	C	1.330083	0.499972	0.619677
C23	C	0.737788	-0.000025	0.118057
C24	C	1.237788	0.499975	0.618057
N25	N	0.982032	-0.129282	0.113575
N26	N	1.482032	0.370718	0.613575
C27	C	0.438736	0.045187	0.112822
C28	C	0.938736	0.545187	0.612822
C29	C	0.525457	0.045191	0.114339
C30	C	1.025457	0.545191	0.614339
C31	C	0.525433	-0.045256	0.114327
C32	C	1.025433	0.454744	0.614327
C33	C	0.438714	-0.045259	0.112804
C34	C	0.938714	0.454741	0.612804
C35	C	0.395367	-0.000035	0.112056
C36	C	0.895367	0.499965	0.612056
C37	C	0.568807	-0.000030	0.115096
C38	C	1.068807	0.499970	0.615096
C39	C	0.662834	-0.000027	0.116742
C40	C	1.162834	0.499973	0.616742
C41	C	0.301334	-0.000038	0.110409
C42	C	0.801334	0.499962	0.610409
C43	C	1.032510	-0.473908	0.164011
C44	C	1.532510	0.026092	0.664011
C45	C	1.032537	-0.682786	0.164010
C46	C	1.532537	-0.182786	0.664010
O47	O	1.075433	-0.709789	0.206884
O48	O	1.575433	-0.209789	0.706884
N49	N	0.982133	-0.708909	0.113568
N50	N	1.482133	-0.208909	0.613568
C51	C	0.931723	-0.682810	0.063117
C52	C	1.431723	-0.182810	0.563117
O53	O	0.888858	-0.709822	0.020206
O54	O	1.388858	-0.209822	0.520206
C55	C	0.931701	-0.473933	0.063114
C56	C	1.431701	0.026067	0.563114
C57	C	0.982102	-0.447812	0.113566
C58	C	1.482102	0.052188	0.613566
C59	C	1.082908	-0.447787	0.214459
C60	C	1.582908	0.052213	0.714459
C61	C	1.082897	-0.395571	0.214462
C62	C	1.582897	0.104429	0.714462
C63	C	1.032489	-0.369475	0.164017
C64	C	1.532489	0.130525	0.664017
C65	C	0.982091	-0.395596	0.113570
C66	C	1.482091	0.104404	0.613570
C67	C	0.881296	-0.447835	0.012660
C68	C	1.381296	0.052165	0.512660
C69	C	0.881297	-0.395612	0.012662
C70	C	1.381297	0.104388	0.512662
C71	C	0.931698	-0.369492	0.063114
C72	C	1.431698	0.130508	0.563114
C73	C	0.931673	-0.317284	0.063128
C74	C	1.431673	0.182716	0.563128
N75	N	0.982077	-0.291161	0.113571
N76	N	1.482077	0.208839	0.613571
C77	C	1.032485	-0.317256	0.164015
C78	C	1.532485	0.182744	0.664015
C79	C	0.931737	-0.792473	0.063124
C80	C	1.431737	-0.292473	0.563124
C81	C	0.931741	-0.844692	0.063126
C82	C	1.431741	-0.344692	0.563126
C83	C	1.032556	-0.844664	0.164018
C84	C	1.532556	-0.344664	0.664018
C85	C	1.032547	-0.792444	0.164020
C86	C	1.532547	-0.292444	0.664020
C87	C	0.982141	-0.766350	0.113567
C88	C	1.482141	-0.266350	0.613567
C89	C	1.032458	-0.207598	0.164018
C90	C	1.532458	0.292402	0.664018
C91	C	1.032440	-0.155378	0.164020
C92	C	1.532440	0.344622	0.664020
C93	C	0.931629	-0.155410	0.063124
C94	C	1.431629	0.344590	0.563124
C95	C	0.931643	-0.207626	0.063126
C96	C	1.431643	0.292374	0.563126
C97	C	0.982064	-0.233719	0.113576
C98	C	1.482064	0.266281	0.613576
O99	O	0.888806	-0.290248	0.020270
O100	O	1.388806	0.209752	0.520270
O101	O	1.075357	-0.290235	0.206906
O102	O	1.575357	0.209765	0.706906
C103	C	1.032521	-0.526124	0.164008
C104	C	1.532521	-0.026124	0.664008
C105	C	0.982123	-0.552245	0.113560
C106	C	1.482123	-0.052245	0.613560
C107	C	0.931715	-0.526149	0.063116
C108	C	1.431715	-0.026149	0.563116
C109	C	0.982128	-0.604464	0.113562
C110	C	1.482128	-0.104464	0.613562
C111	C	1.032536	-0.630560	0.164007
C112	C	1.532536	-0.130560	0.664007
C113	C	1.082940	-0.604436	0.214450
C114	C	1.582940	-0.104436	0.714450
C115	C	1.082929	-0.552220	0.214453
C116	C	1.582929	-0.052220	0.714453
C117	C	0.881311	-0.552273	0.012673
C118	C	1.381311	-0.052273	0.512673
C119	C	0.881325	-0.604489	0.012675
C120	C	1.381325	-0.104489	0.512675
C121	C	0.931733	-0.630585	0.063119
C122	C	1.431733	-0.130585	0.563119
C123	C	1.134092	-0.000040	0.107474
C124	C	1.634092	0.499960	0.607474
C125	C	1.226387	-0.000041	0.109095
C126	C	1.726387	0.499959	0.609095
C127	C	0.988198	-0.000040	-0.038430
C128	C	1.488198	0.499960	0.461570
C129	C	0.986583	-0.000041	-0.130725
C130	C	1.486583	0.499959	0.369275
N131	N	0.982149	0.129212	0.113570
N132	N	1.482149	0.629212	0.613570
C133	C	1.058590	-0.000036	-0.352993
C134	C	1.558590	0.499964	0.147007
C135	C	1.057066	-0.000032	-0.439713
C136	C	1.557066	0.499968	0.060287
C137	C	0.905579	-0.000028	-0.419848
C138	C	1.405579	0.499972	0.080152
C139	C	0.907104	-0.000028	-0.333130
C140	C	1.407104	0.499972	0.166870
C141	C	0.983612	-0.000035	-0.299704
C142	C	1.483612	0.499965	0.200296
C143	C	0.980563	-0.000030	-0.473144
C144	C	1.480563	0.499970	0.026856
C145	C	0.978910	-0.000026	-0.567170
C146	C	1.478910	0.499974	-0.067170
C147	C	0.985265	-0.000039	-0.205672
C148	C	1.485265	0.499961	0.294328
C149	C	0.975976	-0.000028	0.265581
C150	C	1.475976	0.499972	0.765581
C151	C	0.977592	-0.000024	0.357877
C152	C	1.477592	0.499976	0.857877
H153	H	0.403446	0.082011	0.112211
H154	H	0.903446	0.582011	0.612211
Cl155	Cl	0.579975	0.102045	0.115299
Cl156	Cl	1.079975	0.602045	0.615299
H157	H	1.120888	-0.000041	-0.325781
H158	H	1.620888	0.499959	0.174219
H159	H	0.403403	-0.082087	0.112179
H160	H	0.903403	0.417913	0.612179
Cl161	Cl	0.817953	-0.637320	-0.050754
Cl162	Cl	1.317953	-0.137320	0.449246
Cl163	Cl	0.579931	-0.102105	0.115278
Cl164	Cl	1.079931	0.397895	0.615278
H165	H	0.840249	-0.374369	-0.028425
H166	H	1.340249	0.125631	0.471575
Cl167	Cl	1.095845	-0.240393	0.227442
Cl168	Cl	1.595845	0.259607	0.727442
Cl169	Cl	1.095800	-0.122543	0.227456
Cl170	Cl	1.595800	0.377457	0.727456
Cl171	Cl	1.151329	-0.000033	-0.506702
Cl172	Cl	1.651329	0.499967	-0.006702
Cl173	Cl	0.868345	-0.759676	-0.000293
Cl174	Cl	1.368345	-0.259676	0.499707
Cl175	Cl	1.146249	-0.362741	0.277904
Cl176	Cl	1.646249	0.137259	0.777904
H177	H	1.123960	-0.469029	0.255537
H178	H	1.623960	0.030971	0.755537
H179	H	1.073588	-0.771180	0.205103
H180	H	1.573588	-0.271180	0.705103
Cl181	Cl	0.812837	-0.000022	-0.266133
Cl182	Cl	1.312837	0.499978	0.233867
Cl183	Cl	1.095929	-0.877480	0.227430
Cl184	Cl	1.595929	-0.377480	0.727430
H185	H	0.890591	-0.228895	0.022054
H186	H	1.390591	0.271105	0.522054
Cl187	Cl	0.809402	-0.000019	-0.461875
Cl188	Cl	1.309402	0.499981	0.038125
Cl189	Cl	0.817931	-0.480659	-0.050771
Cl190	Cl	1.317931	0.019341	0.449229
H191	H	0.890585	-0.134153	0.022056
H192	H	1.390585	0.365847	0.522056
Cl193	Cl	1.146289	-0.519390	0.277887
Cl194	Cl	1.646289	-0.019390	0.777887
Cl195	Cl	0.868364	-0.877523	-0.000290
Cl196	Cl	1.368364	-0.377523	0.499710
H197	H	1.123980	-0.625692	0.255528
H198	H	1.623980	-0.125692	0.755528
H199	H	0.840263	-0.531031	-0.028407
H200	H	1.340263	-0.031031	0.471593
