data_functionalizedCrystal
_audit_creation_method	'MofGen! by Chris Wilmer'
_symmetry_space_group_name_H-M	'P1'
_symmetry_Int_Tables_number	1
_symmetry_cell_setting	triclinic
loop_
_symmetry_equiv_pos_as_xyz
  x,y,z
_cell_length_a	14.519709
_cell_length_b	26.210047
_cell_length_c	27.731996
_cell_angle_alpha	90.010646
_cell_angle_beta	83.150767
_cell_angle_gamma	90.010823
loop_
_atom_site_label
_atom_site_type_symbol
_atom_site_fract_x
_atom_site_fract_y
_atom_site_fract_z
O1	O	1.222759	0.042370	0.063362
O2	O	1.722759	0.542370	0.563362
O3	O	0.954149	0.042386	0.070824
O4	O	1.454149	0.542386	0.570824
O5	O	1.096821	0.042366	-0.003266
O6	O	1.596821	0.542366	0.496734
O7	O	1.080087	0.042389	0.137451
O8	O	1.580087	0.542389	0.637451
O9	O	1.096777	-0.042492	-0.003266
O10	O	1.596777	0.457508	0.496734
O11	O	0.954105	-0.042472	0.070823
O12	O	1.454105	0.457528	0.570823
O13	O	1.222714	-0.042489	0.063362
O14	O	1.722714	0.457511	0.563362
Cu15	Cu	1.088405	-0.050229	0.067092
Cu16	Cu	1.588405	0.449771	0.567092
Cu17	Cu	1.088458	0.050126	0.067093
Cu18	Cu	1.588458	0.550126	0.567093
O19	O	1.080042	-0.042469	0.137451
O20	O	1.580042	0.457531	0.637451
C21	C	0.919773	-0.000041	0.070476
C22	C	1.419773	0.499959	0.570476
C23	C	0.817411	-0.000035	0.069434
C24	C	1.317411	0.499965	0.569434
C25	C	0.442583	-0.000059	0.065597
C26	C	0.942583	0.499941	0.565597
C27	C	0.546872	-0.000052	0.066663
C28	C	1.046872	0.499948	0.566663
C29	C	0.629994	-0.000047	0.067515
C30	C	1.129994	0.499953	0.567515
C31	C	0.734289	-0.000041	0.068581
C32	C	1.234289	0.499959	0.568581
N33	N	1.088375	-0.120812	0.067092
N34	N	1.588375	0.379188	0.567092
C35	C	1.143949	-0.473325	0.096469
C36	C	1.643949	0.026675	0.596469
C37	C	1.143977	-0.686984	0.096469
C38	C	1.643977	-0.186984	0.596469
O39	O	1.191207	-0.714604	0.121441
O40	O	1.691207	-0.214604	0.621441
N41	N	1.088480	-0.713706	0.067088
N42	N	1.588480	-0.213706	0.567088
C43	C	1.032977	-0.687011	0.037702
C44	C	1.532977	-0.187011	0.537702
O45	O	0.985782	-0.714643	0.012708
O46	O	1.485782	-0.214643	0.512708
C47	C	1.032955	-0.473353	0.037700
C48	C	1.532955	0.026647	0.537700
C49	C	1.088449	-0.446634	0.067087
C50	C	1.588449	0.053366	0.567087
C51	C	1.199439	-0.446605	0.125854
C52	C	1.699439	0.053395	0.625854
C53	C	1.199428	-0.393194	0.125855
C54	C	1.699428	0.106806	0.625855
C55	C	1.143927	-0.366502	0.096473
C56	C	1.643927	0.133498	0.596473
C57	C	1.088438	-0.393222	0.067089
C58	C	1.588438	0.106778	0.567089
C59	C	0.977458	-0.446659	0.008312
C60	C	1.477458	0.053341	0.508312
C61	C	0.977459	-0.393241	0.008314
C62	C	1.477459	0.106759	0.508314
C63	C	1.032953	-0.366522	0.037700
C64	C	1.532953	0.133478	0.537700
C65	C	1.032926	-0.313119	0.037708
C66	C	1.532926	0.186881	0.537708
N67	N	1.088422	-0.286397	0.067090
N68	N	1.588422	0.213603	0.567090
C69	C	1.143923	-0.313088	0.096472
C70	C	1.643923	0.186912	0.596472
C71	C	1.032991	-0.799184	0.037706
C72	C	1.532991	-0.299184	0.537706
C73	C	1.032995	-0.852599	0.037707
C74	C	1.532995	-0.352599	0.537707
C75	C	1.143996	-0.852567	0.096473
C76	C	1.643996	-0.352567	0.596473
C77	C	1.143987	-0.799152	0.096475
C78	C	1.643987	-0.299152	0.596475
C79	C	1.088488	-0.772462	0.067087
C80	C	1.588488	-0.272462	0.567087
C81	C	1.143895	-0.200920	0.096474
C82	C	1.643895	0.299080	0.596474
C83	C	1.143876	-0.147504	0.096474
C84	C	1.643876	0.352496	0.596474
C85	C	1.032879	-0.147540	0.037706
C86	C	1.532879	0.352460	0.537706
C87	C	1.032894	-0.200951	0.037707
C88	C	1.532894	0.299049	0.537707
C89	C	1.088409	-0.227640	0.067092
C90	C	1.588409	0.272360	0.567092
O91	O	0.985728	-0.285466	0.012745
O92	O	1.485728	0.214534	0.512745
O93	O	1.191127	-0.285447	0.121455
O94	O	1.691127	0.214553	0.621455
C95	C	1.143961	-0.526737	0.096468
C96	C	1.643961	-0.026737	0.596468
C97	C	1.088471	-0.553456	0.067084
C98	C	1.588471	-0.053456	0.567084
C99	C	1.032970	-0.526765	0.037701
C100	C	1.532970	-0.026765	0.537701
C101	C	1.088475	-0.606871	0.067085
C102	C	1.588475	-0.106871	0.567085
C103	C	1.143976	-0.633562	0.096467
C104	C	1.643976	-0.133562	0.596467
C105	C	1.199473	-0.606839	0.125848
C106	C	1.699473	-0.106839	0.625848
C107	C	1.199461	-0.553428	0.125850
C108	C	1.699461	-0.053428	0.625850
C109	C	0.977474	-0.553488	0.008320
C110	C	1.477474	-0.053488	0.508320
C111	C	0.977489	-0.606899	0.008321
C112	C	1.477489	-0.106899	0.508321
C113	C	1.032989	-0.633591	0.037703
C114	C	1.532989	-0.133591	0.537703
C115	C	1.257090	-0.000060	0.063709
C116	C	1.757090	0.499940	0.563709
C117	C	1.359453	-0.000063	0.064752
C118	C	1.859453	0.499937	0.564752
C119	C	1.096455	-0.000065	-0.021275
C120	C	1.596455	0.499935	0.478725
C121	C	1.095420	-0.000070	-0.074936
C122	C	1.595420	0.499930	0.425064
N123	N	1.088496	0.120710	0.067089
N124	N	1.588496	0.620710	0.567089
C125	C	1.088930	0.046212	-0.407683
C126	C	1.588930	0.546212	0.092317
C127	C	1.084998	0.046221	-0.609361
C128	C	1.584998	0.546221	-0.109361
O129	O	1.084470	0.085560	-0.635434
O130	O	1.584470	0.585560	-0.135434
N131	N	1.084485	-0.000035	-0.634580
N132	N	1.584485	0.499965	-0.134580
C133	C	1.084949	-0.046296	-0.609377
C134	C	1.584949	0.453704	-0.109377
O135	O	1.084413	-0.085639	-0.635455
O136	O	1.584413	0.414361	-0.135455
C137	C	1.088875	-0.046305	-0.407700
C138	C	1.588875	0.453695	0.092300
C139	C	1.089397	-0.000046	-0.382484
C140	C	1.589397	0.499954	0.117516
C141	C	1.089451	0.092467	-0.382467
C142	C	1.589451	0.592467	0.117533
C143	C	1.090439	0.092464	-0.332051
C144	C	1.590439	0.592464	0.167949
C145	C	1.090906	0.046206	-0.306852
C146	C	1.590906	0.546206	0.193148
C147	C	1.090385	-0.000049	-0.332068
C148	C	1.590385	0.499951	0.167932
C149	C	1.089332	-0.092565	-0.382498
C150	C	1.589332	0.407435	0.117502
C151	C	1.090311	-0.092563	-0.332075
C152	C	1.590311	0.407437	0.167925
C153	C	1.090833	-0.046305	-0.306859
C154	C	1.590833	0.453695	0.193141
C155	C	1.091840	-0.046309	-0.256453
C156	C	1.591840	0.453691	0.243547
N157	N	1.092352	-0.000053	-0.231233
N158	N	1.592352	0.499947	0.268767
C159	C	1.091885	0.046204	-0.256433
C160	C	1.591885	0.546204	0.243567
C161	C	1.082890	-0.046288	-0.715260
C162	C	1.582890	0.453712	-0.215260
C163	C	1.081911	-0.046286	-0.765679
C164	C	1.581911	0.453714	-0.265679
C165	C	1.081957	0.046231	-0.765659
C166	C	1.581957	0.546231	-0.265659
C167	C	1.082944	0.046228	-0.715240
C168	C	1.582944	0.546228	-0.215240
C169	C	1.083403	-0.000032	-0.690041
C170	C	1.583403	0.499968	-0.190041
C171	C	1.093961	0.046195	-0.150556
C172	C	1.593961	0.546195	0.349444
C173	C	1.094953	0.046188	-0.100136
C174	C	1.594953	0.546188	0.399864
C175	C	1.094901	-0.046329	-0.100160
C176	C	1.594901	0.453671	0.399840
C177	C	1.093914	-0.046322	-0.150576
C178	C	1.593914	0.453678	0.349424
C179	C	1.093441	-0.000056	-0.175772
C180	C	1.593441	0.499944	0.324228
O181	O	1.092357	-0.085628	-0.230348
O182	O	1.592357	0.414372	0.269652
O183	O	1.092401	0.085541	-0.230345
O184	O	1.592401	0.585541	0.269655
C185	C	1.087942	0.046215	-0.458099
C186	C	1.587942	0.546215	0.041901
C187	C	1.087421	-0.000040	-0.483316
C188	C	1.587421	0.499960	0.016684
C189	C	1.087888	-0.046298	-0.458116
C190	C	1.587888	0.453702	0.041884
C191	C	1.086441	-0.000038	-0.533735
C192	C	1.586441	0.499962	-0.033735
C193	C	1.085974	0.046219	-0.558934
C194	C	1.585974	0.546219	-0.058934
C195	C	1.086487	0.092475	-0.533715
C196	C	1.586487	0.592475	-0.033715
C197	C	1.087475	0.092472	-0.483299
C198	C	1.587475	0.592472	0.016701
C199	C	1.087375	-0.092554	-0.483336
C200	C	1.587375	0.407446	0.016664
C201	C	1.086388	-0.092547	-0.533752
C202	C	1.586388	0.407453	-0.033752
C203	C	1.085921	-0.046289	-0.558951
C204	C	1.585921	0.453711	-0.058951
C205	C	1.080408	-0.000037	0.155460
C206	C	1.580408	0.499963	0.655460
C207	C	1.081443	-0.000028	0.209121
C208	C	1.581443	0.499972	0.709121
H209	H	1.189065	-0.125751	0.120407
H210	H	1.689065	0.374249	0.620407
H211	H	1.090672	-0.130236	-0.311560
H212	H	1.590672	0.369764	0.188440
H213	H	0.987695	-0.222708	0.013784
H214	H	1.487695	0.277292	0.513784
H215	H	1.093498	-0.083990	-0.171108
H216	H	1.593498	0.416010	0.328892
H217	H	1.095286	-0.083991	-0.079633
H218	H	1.595286	0.416009	0.420367
H219	H	1.189183	-0.874309	0.120400
H220	H	1.689183	-0.374309	0.620400
H221	H	1.189101	-0.222644	0.120402
H222	H	1.689101	0.277356	0.620402
H223	H	1.088909	-0.130234	-0.403020
H224	H	1.588909	0.369766	0.096980
H225	H	1.244650	-0.531677	0.149780
H226	H	1.744650	-0.031677	0.649780
H227	H	1.087899	0.130141	-0.462772
H228	H	1.587899	0.630141	0.037228
H229	H	1.087757	-0.130223	-0.462824
H230	H	1.587757	0.369777	0.037176
H231	H	1.244620	-0.371443	0.149783
H232	H	1.744620	0.128557	0.649783
H233	H	0.987796	-0.874349	0.013783
H234	H	1.487796	-0.374349	0.513783
H235	H	1.244639	-0.468332	0.149780
H236	H	1.744639	0.031668	0.649780
H237	H	1.244659	-0.628581	0.149775
H238	H	1.744659	-0.128581	0.649775
H239	H	1.189174	-0.777400	0.120404
H240	H	1.689174	-0.277400	0.620404
H241	H	1.089067	0.130137	-0.402979
H242	H	1.589067	0.630137	0.097021
H243	H	0.987795	-0.777458	0.013774
H244	H	1.487795	-0.277458	0.513774
H245	H	0.932290	-0.628650	-0.015608
H246	H	1.432290	-0.128650	0.484392
H247	H	1.093571	0.083869	-0.171064
H248	H	1.593571	0.583869	0.328936
H249	H	0.932265	-0.371513	-0.015618
H250	H	1.432265	0.128487	0.484382
H251	H	0.932271	-0.468405	-0.015618
H252	H	1.432271	0.031595	0.484382
H253	H	0.987689	-0.125798	0.013785
H254	H	1.487689	0.374202	0.513785
H255	H	1.081499	-0.083955	-0.786207
H256	H	1.581499	0.416045	-0.286207
H257	H	0.932279	-0.531761	-0.015608
H258	H	1.432279	-0.031761	0.484392
H259	H	1.095380	0.083859	-0.079607
H260	H	1.595380	0.583859	0.420393
H261	H	1.090860	0.130133	-0.311524
H262	H	1.590860	0.630133	0.188476
H263	H	1.083367	0.083896	-0.694712
H264	H	1.583367	0.583896	-0.194712
H265	H	1.081578	0.083896	-0.786185
H266	H	1.581578	0.583896	-0.286185
H267	H	1.086110	0.130140	-0.554241
H268	H	1.586110	0.630140	-0.054241
H269	H	1.083269	-0.083961	-0.694748
H270	H	1.583269	0.416039	-0.194748
H271	H	1.085970	-0.130219	-0.554279
H272	H	1.585970	0.369781	-0.054279
