data_functionalizedCrystal
_audit_creation_method	'MofGen! by Chris Wilmer'
_symmetry_space_group_name_H-M	'P1'
_symmetry_Int_Tables_number	1
_symmetry_cell_setting	triclinic
loop_
_symmetry_equiv_pos_as_xyz
  x,y,z
_cell_length_a	8.559649
_cell_length_b	7.681481
_cell_length_c	8.559649
_cell_angle_alpha	94.930900
_cell_angle_beta	110.221336
_cell_angle_gamma	94.912555
loop_
_atom_site_label
_atom_site_type_symbol
_atom_site_fract_x
_atom_site_fract_y
_atom_site_fract_z
O1	O	-2.109658	0.146430	-0.037794
O2	O	-1.609658	0.646430	0.462206
O3	O	-1.634173	0.146430	0.045988
O4	O	-1.134173	0.646430	0.545988
O5	O	-1.913806	0.146429	-0.233646
O6	O	-1.413806	0.646429	0.266354
O7	O	-1.830024	0.146432	0.241840
O8	O	-1.330024	0.646432	0.741840
O9	O	-1.948233	-0.146429	-0.268133
O10	O	-1.448233	0.353571	0.231867
O11	O	-1.668600	-0.146428	0.011500
O12	O	-1.168600	0.353572	0.511500
O13	O	-2.144084	-0.146428	-0.072281
O14	O	-1.644084	0.353572	0.427719
Zn15	Zn	-1.911808	-0.192925	-0.035866
Zn16	Zn	-1.411808	0.307075	0.464134
Zn17	Zn	-1.866449	0.192928	0.009573
Zn18	Zn	-1.366449	0.692928	0.509573
O19	O	-1.864451	-0.146426	0.207352
O20	O	-1.364451	0.353574	0.707352
C21	C	-1.591077	0.000002	0.035093
C22	C	-1.091077	0.500002	0.535093
C23	C	-1.411378	0.000002	0.053992
C24	C	-0.911378	0.500002	0.553992
N25	N	-1.942776	-0.456260	-0.066880
N26	N	-1.442776	0.043740	0.433120
C27	C	-1.187180	0.000002	-0.061387
C28	C	-0.687180	0.500002	0.438613
C29	C	-1.366879	0.000003	-0.080286
C30	C	-0.866879	0.500003	0.419714
C31	C	-1.937368	0.000003	-0.311198
C32	C	-1.437368	0.500003	0.188802
C33	C	-1.956266	0.000013	-0.490896
C34	C	-1.456266	0.500013	0.009104
N35	N	-1.835496	0.456262	0.040571
N36	N	-1.335496	0.956262	0.540571
C37	C	-1.840889	0.000004	0.284905
C38	C	-1.340889	0.500004	0.784905
C39	C	-1.821989	0.000006	0.464604
C40	C	-1.321989	0.500006	0.964604
H41	H	-1.466256	0.000011	-0.209704
H42	H	-0.966256	0.500011	0.290296
H43	H	-2.052304	-0.531466	-0.176553
H44	H	-1.552304	-0.031466	0.323447
Br45	Br	-1.606273	-0.000005	-0.369764
Br46	Br	-1.106273	0.499995	0.130236
Br47	Br	-1.245734	0.000027	0.269722
Br48	Br	-0.745734	0.500027	0.769722
H49	H	-2.085696	-0.000002	-0.590286
H50	H	-1.585696	0.499998	-0.090286
H51	H	-1.725985	-0.468540	0.150248
H52	H	-1.225985	0.031460	0.650248
