data_functionalizedCrystal
_audit_creation_method	'MofGen! by Chris Wilmer'
_symmetry_space_group_name_H-M	'P1'
_symmetry_Int_Tables_number	1
_symmetry_cell_setting	triclinic
loop_
_symmetry_equiv_pos_as_xyz
  x,y,z
_cell_length_a	31.640172
_cell_length_b	20.875641
_cell_length_c	20.875619
_cell_angle_alpha	55.997428
_cell_angle_beta	87.032396
_cell_angle_gamma	62.438275
loop_
_atom_site_label
_atom_site_type_symbol
_atom_site_fract_x
_atom_site_fract_y
_atom_site_fract_z
Zr1	Zr	0.427918	0.702026	-0.109847
O2	O	0.367337	0.835856	-0.217190
O3	O	0.444129	0.568205	-0.073536
O4	O	0.452111	0.702021	-0.212263
O5	O	0.355744	0.702042	0.027095
O6	O	0.521667	0.702007	-0.212249
O7	O	0.359355	0.702040	-0.078463
O8	O	0.507388	0.462635	0.035909
O9	O	0.370022	0.941414	-0.221063
O10	O	0.505803	0.623235	-0.062152
O11	O	0.451199	0.623246	0.016614
O12	O	0.460597	0.780797	-0.146719
O13	O	0.405993	0.780808	-0.067953
Zr14	Zr	0.533093	0.702008	0.058530
Zr15	Zr	0.538852	0.702005	-0.109823
Zr16	Zr	0.422159	0.702029	0.058506
Zr17	Zr	0.432201	0.870379	-0.116022
Zr18	Zr	0.528810	0.533655	0.064705
O19	O	0.516882	0.835830	0.022219
O20	O	0.525071	0.835825	-0.217157
O21	O	0.359148	0.835860	0.022186
O22	O	0.593674	0.568179	0.165873
O23	O	0.601863	0.568175	-0.073503
O24	O	0.435940	0.568209	0.165840
O25	O	0.605267	0.701993	-0.078412
O26	O	0.508900	0.702014	0.160946
O27	O	0.439344	0.702027	0.160932
O28	O	0.601656	0.701995	0.027146
O29	O	0.458200	0.941397	-0.221044
O30	O	0.502811	0.462638	0.169727
O31	O	0.590988	0.462621	0.169746
O32	O	0.595566	0.462619	0.035927
O33	O	0.365445	0.941416	-0.087244
O34	O	0.453622	0.941399	-0.087226
O35	O	0.500414	0.623238	0.095402
O36	O	0.555017	0.623226	0.016636
O37	O	0.509811	0.780788	-0.067931
O38	O	0.455207	0.780800	0.010835
C39	C	0.475148	0.491433	-0.017934
C40	C	0.473330	0.419963	-0.015312
C41	C	0.341744	0.702044	-0.025688
C42	C	0.294649	0.702053	-0.025697
C43	C	0.500977	0.386381	-0.055195
C44	C	0.499270	0.319222	-0.052724
C45	C	0.469912	0.285652	-0.010374
C46	C	0.442264	0.319237	0.029514
C47	C	0.443975	0.386390	0.027048
C48	C	0.461743	0.084810	0.001417
C49	C	0.460034	0.017654	0.003878
C50	C	0.517040	0.017642	-0.078359
C51	C	0.518746	0.084800	-0.080826
C52	C	0.491100	0.118376	-0.040934
N53	N	0.468165	0.217007	-0.007849
N54	N	0.492850	0.187015	-0.043455
C55	C	0.026237	0.619763	0.018501
C56	C	-0.150749	0.619747	0.018517
O57	O	-0.153567	0.549800	0.056088
N58	N	-0.196475	0.701992	-0.025627
C59	C	-0.197955	0.784247	-0.069774
O60	O	-0.240909	0.854202	-0.107315
C61	C	-0.020969	0.784262	-0.069785
C62	C	0.024757	0.702012	-0.025645
C63	C	0.071962	0.537519	0.062639
C64	C	0.116205	0.537524	0.062631
C65	C	0.114725	0.619773	0.018485
C66	C	0.069001	0.702016	-0.025653
C67	C	-0.022450	0.866516	-0.113928
C68	C	0.021802	0.866513	-0.113925
C69	C	0.067528	0.784262	-0.069784
C70	C	0.111764	0.784270	-0.069806
N71	N	0.157490	0.702025	-0.025662
C72	C	0.158971	0.619776	0.018484
C73	C	-0.290873	0.784234	-0.069767
C74	C	-0.335119	0.784230	-0.069765
C75	C	-0.287910	0.619730	0.018528
C76	C	-0.243663	0.619734	0.018521
C77	C	-0.245146	0.701989	-0.025623
C78	C	0.251884	0.619792	0.018463
C79	C	0.296130	0.619804	0.018448
C80	C	0.248917	0.784304	-0.069841
C81	C	0.204675	0.784293	-0.069830
C82	C	0.206162	0.702029	-0.025672
O83	O	0.114620	0.854181	-0.107350
O84	O	0.201930	0.549832	0.056033
C85	C	-0.018006	0.619758	0.018509
C86	C	-0.063731	0.702002	-0.025629
C87	C	-0.065211	0.784251	-0.069775
C88	C	-0.107977	0.701999	-0.025627
C89	C	-0.106496	0.619750	0.018518
C90	C	-0.060769	0.537505	0.062663
C91	C	-0.016526	0.537510	0.062655
C92	C	-0.110938	0.866496	-0.113919
C93	C	-0.155180	0.866484	-0.113908
C94	C	-0.153699	0.784236	-0.069762
C95	C	0.619267	0.701991	-0.025629
C96	C	0.666362	0.701982	-0.025620
C97	C	0.487709	0.702014	-0.236243
C98	C	0.490154	0.702012	-0.307713
C99	C	0.485863	0.912601	-0.033383
C100	C	0.487681	0.984071	-0.036005
C101	C	0.508027	0.702017	-0.710021
C102	C	0.505728	0.702021	-0.642869
C103	C	0.466260	0.702024	-0.609297
C104	C	0.429086	0.702031	-0.642886
C105	C	0.431384	0.702034	-0.710041
C106	C	0.455278	0.702023	-0.408457
C107	C	0.452984	0.702017	-0.341296
C108	C	0.529626	0.702009	-0.341284
C109	C	0.531921	0.702006	-0.408437
C110	C	0.494746	0.702018	-0.442023
N111	N	0.463910	0.702025	-0.540655
N112	N	0.497095	0.702024	-0.510667
C113	C	0.473301	0.702021	0.184926
C114	C	0.470856	0.702022	0.256396
C115	C	0.613910	0.491407	-0.017905
C116	C	0.659186	0.419928	-0.015273
C117	C	0.467944	0.491437	0.192650
C118	C	0.463681	0.419968	0.266742
C119	C	0.606706	0.491411	0.192679
C120	C	0.649537	0.419933	0.266781
C121	C	0.354305	0.912624	-0.243996
C122	C	0.311474	0.984102	-0.318098
C123	C	0.347101	0.912628	-0.033412
C124	C	0.301825	0.984107	-0.036044
C125	C	0.493067	0.912597	-0.243967
C126	C	0.497330	0.984066	-0.318059
C127	C	0.654759	0.386365	-0.055171
C128	C	0.697298	0.319212	-0.052714
C129	C	0.744262	0.285618	-0.010355
C130	C	0.748688	0.319188	0.029544
C131	C	0.706151	0.386344	0.027082
C132	C	0.487368	0.386401	0.342670
C133	C	0.483361	0.319258	0.412294
C134	C	0.455669	0.285678	0.405988
C135	C	0.431979	0.319252	0.330052
C136	C	0.435984	0.386399	0.260430
C137	C	0.698159	0.386360	0.260465
C138	C	0.738408	0.319208	0.330085
C139	C	0.730035	0.285626	0.406020
C140	C	0.681408	0.319205	0.412335
C141	C	0.641160	0.386360	0.342715
C142	C	0.262852	1.017683	-0.311783
C143	C	0.222604	1.084855	-0.381403
C144	C	0.230977	1.118441	-0.457338
C145	C	0.279603	1.084858	-0.463653
C146	C	0.319851	1.017691	-0.394033
C147	C	0.306252	1.017677	0.003846
C148	C	0.263714	1.084848	0.001371
C149	C	0.216750	1.118444	-0.040991
C150	C	0.212324	1.084871	-0.080887
C151	C	0.254861	1.017706	-0.078415
C152	C	0.525025	1.017625	-0.311727
C153	C	0.529041	1.084768	-0.381338
C154	C	0.505357	1.118357	-0.457280
C155	C	0.477660	1.084792	-0.463610
C156	C	0.473648	1.017645	-0.394000
H157	H	0.524881	0.413713	-0.089685
H158	H	0.762812	0.230944	0.462702
O159	O	0.588719	0.422545	0.349540
H160	H	0.583880	0.453128	0.381036
H161	H	0.344488	0.990328	0.038347
O162	O	0.452131	1.121026	-0.545531
H163	H	0.466597	1.064656	-0.550298
O164	O	0.550412	0.121003	-0.126501
H165	H	0.526494	0.195083	-0.174678
H166	H	0.544312	0.990287	-0.249898
O167	O	0.799343	0.282944	0.075239
H168	H	0.828174	0.230600	0.070251
H169	H	0.251249	0.990375	-0.110897
O170	O	-0.292484	0.872964	-0.117403
H171	H	-0.271969	0.876890	-0.162997
O172	O	0.161668	1.121114	-0.126577
H173	H	0.138468	1.108229	-0.084586
O174	O	0.558913	1.120966	-0.374502
H175	H	0.574698	1.086336	-0.309999
O176	O	0.790141	0.213187	-0.007705
H177	H	0.809860	0.151989	0.055776
H178	H	0.777998	0.291875	0.324930
O179	O	0.402128	0.282999	0.323269
H180	H	0.371532	0.295872	0.351430
H181	H	0.709762	0.413663	0.059577
O182	O	0.672384	0.282972	0.494241
H183	H	0.631813	0.317598	0.486947
O184	O	0.517239	0.422608	0.349485
H185	H	0.492748	0.496693	0.318125
H186	H	0.359440	0.990350	-0.399185
O187	O	0.253814	0.981464	-0.229886
H188	H	0.271899	0.994334	-0.197787
H189	H	0.436125	-0.009675	0.038365
O190	O	0.268493	1.121041	0.044414
H191	H	0.308296	1.086377	0.074298
O192	O	0.165521	0.448808	0.110244
H193	H	0.185327	0.444872	0.155837
H194	H	0.073176	0.470539	0.098592
O195	O	0.508922	0.283039	0.494191
H196	H	0.528859	0.317658	0.486873
O197	O	0.170870	1.190862	-0.043628
H198	H	0.181843	1.208542	-0.008755
H199	H	0.183014	1.112188	-0.376246
H200	H	0.452412	0.231003	0.462685
H201	H	0.416696	0.413720	0.198609
H202	H	0.508628	1.173033	-0.513954
O203	O	-0.194348	0.531018	0.066136
H204	H	-0.171575	0.527077	0.024765
O205	O	0.546858	-0.018571	-0.121383
H206	H	0.540740	-0.070910	-0.112552
H207	H	0.559891	0.702000	-0.313933
O208	O	0.415188	0.702043	-0.444695
H209	H	0.396763	0.763553	-0.508293
O210	O	0.410411	0.702029	-0.305087
H211	H	0.384943	0.702049	-0.339728
H212	H	0.198200	1.173133	-0.514021
H213	H	0.704986	0.413693	0.198641
H214	H	0.286415	1.112212	-0.525487
H215	H	0.564059	0.702004	-0.435770
H216	H	0.418363	0.291895	0.064001
O217	O	0.443768	0.981463	-0.400834
H218	H	0.427970	1.016113	-0.465338
O219	O	0.431921	0.121031	0.044430
H220	H	0.411215	0.086413	0.074282
H221	H	0.521783	0.291879	-0.085200
H222	H	0.693684	0.291888	-0.085205
H223	H	0.333362	0.552823	0.054396
O224	O	0.414153	0.422622	0.070059
H225	H	0.393447	0.388005	0.099915
H226	H	-0.286711	0.552760	0.054468
O227	O	0.253490	0.531069	0.066079
H228	H	0.292722	0.473887	0.096757
H229	H	-0.372348	0.851207	-0.105719
H230	H	-0.059675	0.933494	-0.149871
H231	H	0.167442	0.851268	-0.105783
O232	O	0.020226	0.955211	-0.161553
H233	H	-0.001064	0.994684	-0.139264
O234	O	0.247359	0.872984	-0.117512
H235	H	0.264915	0.876957	-0.076186
O236	O	0.032791	0.448797	0.110264
H237	H	0.034131	0.409362	0.174915
O238	O	-0.059174	0.448790	0.110276
H239	H	-0.079686	0.444857	0.155875
O240	O	-0.204499	0.955203	-0.161520
H241	H	-0.198090	1.012391	-0.192209
H242	H	-0.112151	0.933474	-0.149870
O243	O	0.550594	0.702026	-0.746232
H244	H	0.586176	0.640534	-0.700334
O245	O	0.545821	0.702005	-0.606639
H246	H	0.573656	0.701989	-0.641257
H247	H	0.396949	0.702039	-0.615551
H248	H	0.616523	0.413716	-0.089674
O249	O	0.391289	0.702055	-0.746276
H250	H	0.363459	0.702055	-0.711650
