data_functionalizedCrystal
_audit_creation_method	'MofGen! by Chris Wilmer'
_symmetry_space_group_name_H-M	'P1'
_symmetry_Int_Tables_number	1
_symmetry_cell_setting	triclinic
loop_
_symmetry_equiv_pos_as_xyz
  x,y,z
_cell_length_a	18.215407
_cell_length_b	16.625545
_cell_length_c	18.215399
_cell_angle_alpha	90.027013
_cell_angle_beta	89.982632
_cell_angle_gamma	89.978520
loop_
_atom_site_label
_atom_site_type_symbol
_atom_site_fract_x
_atom_site_fract_y
_atom_site_fract_z
Zn1	Zn	1.125076	0.321065	-0.416072
Zn2	Zn	1.625076	0.821065	0.083928
Zn3	Zn	1.124986	0.455905	-0.293008
Zn4	Zn	1.624986	0.955905	0.206992
Zn5	Zn	1.002009	0.321084	-0.293025
Zn6	Zn	1.502009	0.821084	0.206975
Zn7	Zn	1.001977	0.455853	-0.416038
Zn8	Zn	1.501977	0.955853	0.083962
O9	O	1.063512	0.388477	-0.354536
O10	O	1.563512	0.888477	0.145464
O11	O	1.228049	0.338965	-0.399755
O12	O	1.728049	0.838965	0.100245
O13	O	1.108649	0.438051	-0.190026
O14	O	1.608649	0.938051	0.309974
O15	O	1.018385	0.208249	-0.309369
O16	O	1.518385	0.708249	0.190631
O17	O	1.227983	0.438032	-0.309340
O18	O	1.727983	0.938032	0.190660
O19	O	1.108802	0.208235	-0.399771
O20	O	1.608802	0.708235	0.100229
O21	O	1.018298	0.338998	-0.190038
O22	O	1.518298	0.838998	0.309962
O23	O	0.899020	0.338948	-0.309336
O24	O	1.399020	0.838948	0.190664
O25	O	1.018330	0.437943	-0.519027
O26	O	1.518330	0.937943	-0.019027
O27	O	0.898997	0.437962	-0.399713
O28	O	1.398997	0.937962	0.100287
O29	O	1.108771	0.338915	-0.519052
O30	O	1.608771	0.838915	-0.019052
O31	O	1.108618	0.568731	-0.309307
O32	O	1.608618	1.068731	0.190693
O33	O	1.018243	0.568693	-0.399697
O34	O	1.518243	1.068693	0.100303
C35	C	0.872306	0.388452	-0.354523
C36	C	1.372306	0.888452	0.145477
C37	C	0.790507	0.388461	-0.354535
C38	C	1.290507	0.888461	0.145465
C39	C	0.602346	0.336983	-0.401688
C40	C	1.102346	0.836983	0.098312
C41	C	0.525488	0.336990	-0.401691
C42	C	1.025488	0.836990	0.098309
C43	C	0.525430	0.439993	-0.307396
C44	C	1.025430	0.939993	0.192604
C45	C	0.602287	0.439982	-0.307391
C46	C	1.102287	0.939982	0.192609
C47	C	0.640743	0.388478	-0.354541
C48	C	1.140743	0.888478	0.145459
C49	C	0.487027	0.388496	-0.354549
C50	C	0.987027	0.888496	0.145451
C51	C	0.403694	0.388504	-0.354551
C52	C	0.903694	0.888504	0.145449
C53	C	0.724082	0.388469	-0.354538
C54	C	1.224082	0.888469	0.145462
C55	C	1.063437	0.597968	-0.354512
C56	C	1.563437	1.097968	0.145488
C57	C	1.063472	0.687589	-0.354527
C58	C	1.563472	1.187589	0.145473
C59	C	1.063593	1.015764	-0.354615
C60	C	1.563593	1.515764	0.145385
C61	C	1.063557	0.924456	-0.354592
C62	C	1.563557	1.424456	0.145408
C63	C	1.063532	0.851680	-0.354570
C64	C	1.563532	1.351680	0.145430
C65	C	1.063497	0.760365	-0.354549
C66	C	1.563497	1.260365	0.145451
C67	C	1.255465	0.388502	-0.354549
C68	C	1.755465	0.888502	0.145451
C69	C	1.337264	0.388513	-0.354555
C70	C	1.837264	0.888513	0.145445
C71	C	1.063601	1.178168	-0.354584
C72	C	1.563601	1.678168	0.145416
C73	C	1.063623	1.088547	-0.354627
C74	C	1.563623	1.588547	0.145373
C75	C	1.063557	0.388421	-0.546489
C76	C	1.563557	0.888421	-0.046489
C77	C	1.063576	0.388398	-0.628288
C78	C	1.563576	0.888398	-0.128288
C79	C	1.110685	0.336785	-0.816496
C80	C	1.610685	0.836785	-0.316496
C81	C	1.110694	0.336762	-0.893355
C82	C	1.610694	0.836762	-0.393355
C83	C	1.016519	0.439885	-0.893317
C84	C	1.516519	0.939885	-0.393317
C85	C	1.016507	0.439904	-0.816460
C86	C	1.516507	0.939904	-0.316460
C87	C	1.063594	0.388355	-0.778051
C88	C	1.563594	0.888355	-0.278051
C89	C	1.063615	0.388313	-0.931767
C90	C	1.563615	0.888313	-0.431767
C91	C	1.063624	0.388288	-1.015101
C92	C	1.563624	0.888288	-0.515101
C93	C	1.063584	0.388379	-0.694712
C94	C	1.563584	0.888379	-0.194712
C95	C	1.063510	0.388474	-0.163330
C96	C	1.563510	0.888474	0.336670
C97	C	1.063633	0.388271	-0.081531
C98	C	1.563633	0.888271	0.418469
H99	H	0.494228	0.295057	-0.440082
H100	H	0.994228	0.795057	0.059918
O101	O	0.965698	0.495525	-0.775001
O102	O	1.465698	0.995525	-0.275001
H103	H	0.998600	0.536563	-0.739970
H104	H	1.498600	1.036563	-0.239970
O105	O	0.643828	0.281425	-0.452530
O106	O	1.143828	0.781425	0.047470
H107	H	0.604212	0.245612	-0.485308
H108	H	1.104212	0.745612	0.014692
O109	O	0.643706	0.495521	-0.256530
O110	O	1.143706	0.995521	0.243470
H111	H	0.678733	0.536580	-0.289397
H112	H	1.178733	1.036580	0.210603
O113	O	0.483953	0.495546	-0.256546
O114	O	0.983953	0.995546	0.243454
H115	H	0.424058	0.486910	-0.264474
H116	H	0.924058	0.986910	0.235526
O117	O	1.161467	0.281187	-0.775065
O118	O	1.661467	0.781187	-0.275065
H119	H	1.148869	0.217900	-0.789822
H120	H	1.648869	0.717900	-0.289822
O121	O	1.161489	0.281145	-0.934823
O122	O	1.661489	0.781145	-0.434823
H123	H	1.194232	0.245310	-0.895200
H124	H	1.694232	0.745310	-0.395200
H125	H	0.978183	0.481856	-0.924599
H126	H	1.478183	0.981856	-0.424599
