data_functionalizedCrystal
_audit_creation_method	'MofGen! by Chris Wilmer'
_symmetry_space_group_name_H-M	'P1'
_symmetry_Int_Tables_number	1
_symmetry_cell_setting	triclinic
loop_
_symmetry_equiv_pos_as_xyz
  x,y,z
_cell_length_a	8.597340
_cell_length_b	15.995350
_cell_length_c	7.088929
_cell_angle_alpha	83.778427
_cell_angle_beta	103.954719
_cell_angle_gamma	84.418396
loop_
_atom_site_label
_atom_site_type_symbol
_atom_site_fract_x
_atom_site_fract_y
_atom_site_fract_z
O1	O	2.101368	0.114992	0.187181
O2	O	1.636685	0.128660	0.110631
O3	O	1.881729	-0.000071	0.151001
O4	O	1.856324	0.243723	0.146812
O5	O	1.914477	-0.017313	0.474371
O6	O	1.669433	0.111418	0.434001
O7	O	2.134116	0.097749	0.510552
Cu8	Cu	1.904764	0.103009	0.501803
Cu9	Cu	1.866037	0.123400	0.119380
O10	O	1.889072	0.226481	0.470182
C11	C	1.593596	0.119532	0.262521
C12	C	1.416415	0.118010	0.233332
C13	C	1.897052	-0.039886	0.312509
C14	C	1.893903	-0.132833	0.311979
C15	C	1.882595	-0.470573	0.310123
C16	C	1.708006	-0.422972	0.280649
C17	C	1.711229	-0.326323	0.281896
C18	C	1.888204	-0.303016	0.311043
C19	C	1.992981	-0.354003	0.509880
C20	C	1.988613	-0.450644	0.509312
C21	C	1.954978	-0.431397	0.142174
C22	C	1.954689	-0.334321	0.139726
C23	C	1.891384	-0.208321	0.311571
C24	C	1.879422	-0.565269	0.309609
C25	C	2.177205	0.106878	0.358658
C26	C	2.354385	0.108401	0.387834
C27	C	1.873748	0.266296	0.308670
C28	C	1.876897	0.359244	0.309186
N29	N	1.932015	0.088667	0.770780
N30	N	1.838798	0.137736	-0.149595
H31	H	1.333962	0.125073	0.078708
Br32	Br	1.916538	-0.318843	0.722517
H33	H	1.436830	0.101332	0.542447
H34	H	1.742190	0.188587	0.752843
H35	H	2.028642	0.037819	0.868355
H36	H	1.630162	-0.290793	0.138381
H37	H	1.624844	-0.434392	0.136737
Br38	Br	1.614086	-0.467610	0.480335
H39	H	1.656540	-0.305479	0.403270
Br40	Br	1.907290	-0.493343	0.722146
H41	H	2.117588	-0.483433	0.538792
H42	H	2.123695	-0.340339	0.538160
Br43	Br	1.836240	-0.453109	-0.106773
Br44	Br	1.827614	-0.276147	-0.105132
H45	H	2.082617	-0.318459	0.149832
Br46	Br	2.169223	-0.484379	0.175419
