data_functionalizedCrystal
_audit_creation_method	'MofGen! by Chris Wilmer'
_symmetry_space_group_name_H-M	'P1'
_symmetry_Int_Tables_number	1
_symmetry_cell_setting	triclinic
loop_
_symmetry_equiv_pos_as_xyz
  x,y,z
_cell_length_a	18.426585
_cell_length_b	12.970454
_cell_length_c	12.970454
_cell_angle_alpha	59.999702
_cell_angle_beta	89.999510
_cell_angle_gamma	60.001630
loop_
_atom_site_label
_atom_site_type_symbol
_atom_site_fract_x
_atom_site_fract_y
_atom_site_fract_z
Zr1	Zr	0.699118	1.128554	-0.135322
O2	O	0.583243	1.343637	-0.299941
O3	O	0.734639	0.913467	-0.084857
O4	O	0.734640	1.128557	-0.299947
O5	O	0.583241	1.128546	0.084816
O6	O	0.854066	1.128564	-0.299952
O7	O	0.583241	1.128547	-0.084851
O8	O	0.854063	0.743807	0.084805
O9	O	0.583244	1.513303	-0.299941
O10	O	0.838915	1.001943	-0.063338
O11	O	0.749789	1.001936	0.063287
O12	O	0.749791	1.255177	-0.189954
O13	O	0.660664	1.255171	-0.063330
Zr14	Zr	0.889588	1.128564	0.135272
Zr15	Zr	0.889588	1.128566	-0.135328
Zr16	Zr	0.699117	1.128553	0.135278
Zr17	Zr	0.699119	1.399152	-0.135321
Zr18	Zr	0.889586	0.857967	0.135271
O19	O	0.854067	1.343651	0.084807
O20	O	0.854067	1.343654	-0.299951
O21	O	0.583242	1.343635	0.084817
O22	O	1.005463	0.913481	0.299891
O23	O	1.005463	0.913483	-0.084867
O24	O	0.734638	0.913465	0.299901
O25	O	1.005464	1.128572	-0.084866
O26	O	0.854065	1.128561	0.299897
O27	O	0.734639	1.128554	0.299902
O28	O	1.005464	1.128572	0.084801
O29	O	0.734642	1.513312	-0.299946
O30	O	0.854063	0.743806	0.299896
O31	O	1.005462	0.743815	0.299891
O32	O	1.005462	0.743817	0.084800
O33	O	0.583244	1.513302	-0.084850
O34	O	0.734642	1.513311	-0.084855
O35	O	0.838915	1.001941	0.189904
O36	O	0.928041	1.001947	0.063280
O37	O	0.838917	1.255182	-0.063337
O38	O	0.749790	1.255176	0.063287
C39	C	0.556103	1.128545	-0.000016
C40	C	0.475243	1.128540	-0.000014
C41	C	0.794352	1.128558	0.338454
C42	C	0.794352	1.128557	0.453331
C43	C	0.794355	1.467036	-0.000024
C44	C	0.794355	1.581911	-0.000024
C45	C	0.179129	1.128584	-0.000036
C46	C	0.261515	1.128578	-0.000033
C47	C	0.327183	1.128562	-0.000026
C48	C	0.409575	1.128556	-0.000021
C49	C	1.032602	1.128574	-0.000034
C50	C	1.113462	1.128578	-0.000037
C51	C	0.794351	0.790083	-0.000026
C52	C	0.794350	0.675207	-0.000027
C53	C	0.794353	1.128561	-0.338504
C54	C	0.794353	1.128562	-0.453381
C55	C	1.032600	0.790097	-0.000035
C56	C	1.113459	0.675226	-0.000038
C57	C	0.794350	0.790081	0.338453
C58	C	0.794349	0.675205	0.453330
C59	C	1.032600	0.790095	0.338445
C60	C	1.113459	0.675224	0.453318
C61	C	0.556106	1.467023	-0.338495
C62	C	0.475247	1.581895	-0.453368
C63	C	0.556105	1.467021	-0.000015
C64	C	0.475246	1.581892	-0.000012
C65	C	0.794355	1.467038	-0.338503
C66	C	0.794356	1.581914	-0.453380
C67	C	1.104909	0.621279	-0.066144
C68	C	1.180877	0.513361	-0.066172
C69	C	1.265395	0.459384	-0.000087
C70	C	1.273944	0.513342	0.066021
C71	C	1.197977	0.621266	0.066042
C72	C	1.197962	0.621282	0.441167
C73	C	1.273945	0.513363	0.549093
C74	C	1.265422	0.459381	0.669168
C75	C	1.180910	0.513333	0.681316
C76	C	1.104929	0.621257	0.573392
C77	C	0.390744	1.635850	-0.441217
C78	C	0.314761	1.743802	-0.549143
C79	C	0.323283	1.797790	-0.669218
C80	C	0.407795	1.743831	-0.681366
C81	C	0.483776	1.635888	-0.573442
C82	C	0.483797	1.635851	0.066083
C83	C	0.407828	1.743799	0.066081
C84	C	0.323310	1.797780	-0.000008
C85	C	0.314761	1.743817	-0.066111
C86	C	0.390729	1.635878	-0.066116
H87	H	1.036097	0.665226	-0.119974
O88	O	1.172403	0.461064	-0.130402
C89	C	1.081513	0.531867	-0.188731
H90	H	1.041014	0.576329	-0.136869
H91	H	1.070916	0.450901	-0.185168
H92	H	1.059114	0.625620	-0.291322
O93	O	0.382611	1.583219	-0.324490
C94	C	0.467786	1.476400	-0.231820
H95	H	0.518145	1.429182	-0.273879
H96	H	0.466938	1.385606	-0.148585
H97	H	0.487150	1.528031	-0.198060
H98	H	1.327298	0.371501	0.757036
H99	H	0.245955	1.787717	-0.539227
O100	O	0.249427	1.902682	-0.000178
C101	C	0.172989	1.938744	-0.072658
H102	H	0.190410	1.909008	-0.142554
H103	H	0.119349	2.060740	-0.126452
H104	H	0.147399	1.875649	-0.007578
H105	H	0.245937	1.787784	-0.119919
O106	O	0.565912	1.583200	0.130445
C107	C	0.612654	1.431954	0.223197
H108	H	0.563358	1.402403	0.247774
H109	H	0.654665	1.400933	0.311457
H110	H	0.657733	1.370226	0.185363
H111	H	0.414724	1.787802	-0.779144
O112	O	0.565795	1.583584	-0.585480
C113	C	0.557011	1.654414	-0.714607
H114	H	0.489204	1.698902	-0.772148
H115	H	0.611484	1.573461	-0.729679
H116	H	0.563245	1.748152	-0.746408
O117	O	1.339159	0.354355	0.000040
C118	C	1.338989	0.229518	0.052555
H119	H	1.296033	0.229650	0.115805
H120	H	1.409858	0.127486	0.110830
H121	H	1.310939	0.230469	-0.026501
O122	O	0.249379	1.902594	-0.773920
C123	C	0.172971	1.938651	-0.737431
H124	H	0.190425	1.843973	-0.637798
H125	H	0.119307	1.961072	-0.805608
H126	H	0.147393	2.040061	-0.739382
O127	O	1.022892	0.673661	0.585366
C128	C	1.013147	0.736118	0.651931
H129	H	1.081540	0.687388	0.711478
H130	H	0.973206	0.712411	0.716118
H131	H	0.976817	0.859057	0.582027
O132	O	1.356114	0.460689	0.130201
C133	C	1.421321	0.353887	0.115976
H134	H	1.391692	0.306715	0.091619
H135	H	1.479911	0.263058	0.207966
H136	H	1.445089	0.405522	0.036844
H137	H	1.204951	0.665175	0.119880
H138	H	1.204918	0.665219	0.343406
O139	O	0.415986	1.796392	0.130204
C140	C	0.330819	1.903213	0.116074
H141	H	0.280450	1.950458	0.026794
H142	H	0.331681	1.993988	0.108534
H143	H	0.311456	1.851576	0.201465
O144	O	0.382258	1.583570	-0.130332
C145	C	0.291368	1.654393	-0.188678
H146	H	0.250864	1.698878	-0.136831
H147	H	0.280760	1.573435	-0.185111
H148	H	0.268982	1.748132	-0.291269
H149	H	1.342751	0.469446	0.539179
H150	H	1.173984	0.469364	0.779095
