data_functionalizedCrystal
_audit_creation_method	'MofGen! by Chris Wilmer'
_symmetry_space_group_name_H-M	'P1'
_symmetry_Int_Tables_number	1
_symmetry_cell_setting	triclinic
loop_
_symmetry_equiv_pos_as_xyz
  x,y,z
_cell_length_a	14.560438
_cell_length_b	23.196402
_cell_length_c	14.560438
_cell_angle_alpha	60.000908
_cell_angle_beta	90.000200
_cell_angle_gamma	60.002032
loop_
_atom_site_label
_atom_site_type_symbol
_atom_site_fract_x
_atom_site_fract_y
_atom_site_fract_z
Zr1	Zr	0.884783	0.631007	-0.120468
O2	O	0.738145	0.751271	-0.267109
O3	O	0.929731	0.510743	-0.075520
O4	O	0.929740	0.631008	-0.267115
O5	O	0.738133	0.631006	0.075625
O6	O	1.080879	0.631010	-0.267112
O7	O	0.738136	0.631006	-0.075515
O8	O	1.080862	0.415877	0.075616
O9	O	0.738149	0.846139	-0.267103
O10	O	1.061699	0.560211	-0.056342
O11	O	0.948904	0.560209	0.056451
O12	O	0.948914	0.701807	-0.169128
O13	O	0.836119	0.701805	-0.056335
Zr14	Zr	1.125826	0.631010	0.120586
Zr15	Zr	1.125831	0.631010	-0.120464
Zr16	Zr	0.884778	0.631007	0.120583
Zr17	Zr	0.884789	0.782310	-0.120457
Zr18	Zr	1.125819	0.479707	0.120576
O19	O	1.080877	0.751275	0.075639
O20	O	1.080884	0.751275	-0.267104
O21	O	0.738138	0.751271	0.075633
O22	O	1.272464	0.510746	0.267228
O23	O	1.272471	0.510746	-0.075514
O24	O	0.929724	0.510742	0.267223
O25	O	1.272476	0.631012	-0.075506
O26	O	1.080868	0.631009	0.267233
O27	O	0.929730	0.631007	0.267231
O28	O	1.272473	0.631011	0.075633
O29	O	0.929750	0.846141	-0.267100
O30	O	1.080859	0.415876	0.267219
O31	O	1.272460	0.415879	0.267222
O32	O	1.272463	0.415879	0.075619
O33	O	0.738145	0.846138	-0.075500
O34	O	0.929746	0.846140	-0.075497
O35	O	1.061694	0.560211	0.169246
O36	O	1.174489	0.560212	0.056454
O37	O	1.061705	0.701808	-0.056332
O38	O	0.948910	0.701806	0.056460
C39	C	1.005296	0.441752	0.000046
C40	C	1.005293	0.377520	0.000042
C41	C	1.064163	0.347351	-0.058838
C42	C	1.064174	0.286990	-0.058829
C43	C	1.005293	0.256812	0.000045
C44	C	0.946420	0.286986	0.058938
C45	C	0.946420	0.347340	0.058937
C46	C	0.906673	0.194782	-0.008359
C47	C	0.906670	0.134433	-0.008366
C48	C	1.005294	0.070657	0.000056
C49	C	1.103921	0.067247	0.008462
C50	C	1.103921	0.127601	0.008461
C51	C	1.005287	0.191368	0.000054
C52	C	1.064181	-0.024963	-0.058817
C53	C	1.064195	-0.085329	-0.058800
C54	C	0.946431	-0.085326	0.058960
C55	C	0.946428	-0.024967	0.058951
C56	C	1.005300	0.005213	0.000056
C57	C	0.703790	0.631005	0.000054
C58	C	0.601459	0.631004	0.000053
C59	C	0.612252	0.557094	0.058926
C60	C	0.516097	0.557098	0.058936
C61	C	0.398358	0.704929	-0.058809
C62	C	0.494512	0.704924	-0.058812
C63	C	0.680228	0.471745	0.126901
C64	C	0.584073	0.471749	0.126911
C65	C	1.306819	0.631012	0.000064
C66	C	1.409150	0.631013	0.000066
C67	C	1.005310	0.631009	-0.301458
C68	C	1.005312	0.631009	-0.403790
C69	C	1.005312	0.820265	0.000072
C70	C	1.005315	0.884497	0.000077
C71	C	1.088570	0.631013	-0.451873
C72	C	1.088565	0.631010	-0.548022
C73	C	0.922034	0.631001	-0.548000
C74	C	0.922044	0.630999	-0.451848
C75	C	1.184713	0.631022	-0.451889
C76	C	1.184708	0.631019	-0.548038
C77	C	1.005298	0.631008	0.301577
C78	C	1.005296	0.631008	0.403909
C79	C	1.306810	0.441756	0.000051
C80	C	1.409139	0.377525	0.000048
C81	C	1.005290	0.441752	0.301564
C82	C	1.005285	0.377520	0.403891
C83	C	1.306804	0.441755	0.301568
C84	C	1.409131	0.377524	0.403898
C85	C	0.703804	0.820262	-0.301450
C86	C	0.601478	0.884493	-0.403779
C87	C	0.703798	0.820262	0.000067
C88	C	0.601470	0.884492	0.000070
C89	C	1.005319	0.820265	-0.301445
C90	C	1.005323	0.884497	-0.403773
C91	C	1.398318	0.347361	-0.058841
C92	C	1.494457	0.287018	-0.058866
C93	C	1.601416	0.256835	0.000006
C94	C	1.612235	0.287005	0.058897
C95	C	1.516097	0.347352	0.058915
C96	C	1.064158	0.347357	0.510834
C97	C	1.064149	0.287012	0.606991
C98	C	1.005273	0.256828	0.596203
C99	C	0.946393	0.286998	0.489249
C100	C	0.946396	0.347345	0.393095
C101	C	1.516072	0.347361	0.393077
C102	C	1.612228	0.287018	0.489217
C103	C	1.601440	0.256835	0.596177
C104	C	1.494487	0.287003	0.606996
C105	C	1.398333	0.347350	0.510857
C106	C	0.494536	0.914663	-0.392958
C107	C	0.398381	0.975025	-0.489098
C108	C	0.409169	1.005212	-0.596059
C109	C	0.516122	0.975039	-0.606878
C110	C	0.612275	0.914682	-0.510739
C111	C	0.612291	0.914663	0.058950
C112	C	0.516152	0.975023	0.058948
C113	C	0.409192	1.005207	0.000073
C114	C	0.398374	0.975034	-0.058814
C115	C	0.494512	0.914679	-0.058818
C116	C	1.064211	0.914662	-0.392949
C117	C	1.064238	0.975007	-0.489087
C118	C	1.005369	1.005190	-0.596049
C119	C	0.946480	0.975019	-0.606871
C120	C	0.946461	0.914671	-0.510733
H121	H	1.112104	0.371920	-0.106791
C122	C	0.280708	1.008235	-0.123554
N123	N	0.192079	1.033237	-0.172305
C124	C	0.881641	0.380509	0.275460
N125	N	0.832865	0.405485	0.186858
H126	H	0.898502	0.890118	-0.519562
C127	C	1.129017	1.008187	-0.477158
N128	N	1.177807	1.033178	-0.468170
C129	C	1.527967	0.380557	0.275429
N130	N	1.536935	0.405560	0.186819
H131	H	1.112141	-0.109897	-0.106743
H132	H	0.330866	1.054358	-0.674332
C133	C	0.572292	0.435960	0.244518
N134	N	0.563418	0.409005	0.333098
C135	C	1.729865	0.253836	0.477291
N136	N	1.818467	0.228843	0.468304
C137	C	1.707223	0.190446	0.701923
N138	N	1.786903	0.140438	0.781567
H139	H	0.826350	0.246717	-0.015241
H140	H	0.854240	0.630992	-0.587138
C141	C	1.128924	0.380552	0.522728
N142	N	1.177703	0.405555	0.531696
C143	C	1.482638	0.253786	0.724664
N144	N	1.473718	0.228760	0.813294
H145	H	1.112124	-0.000392	-0.106769
H146	H	0.485685	0.890116	-0.106762
C147	C	0.482642	0.881474	-0.275310
N148	N	0.473673	0.856484	-0.186700
C149	C	1.005400	1.071576	-0.701793
N150	N	1.005424	1.121579	-0.781435
C151	C	1.128938	0.253829	0.724629
N152	N	1.177740	0.228836	0.813232
H153	H	0.699374	0.890091	0.106900
C154	C	0.527970	1.008246	-0.724545
N155	N	0.536891	1.033254	-0.813175
H156	H	0.524982	0.999579	0.106905
H157	H	0.898551	0.999603	-0.693972
H158	H	1.112148	0.890096	-0.305864
H159	H	0.311305	0.999581	-0.480267
H160	H	1.679689	0.207697	-0.000017
H161	H	1.112115	0.262421	-0.106778
H162	H	0.898480	0.262411	0.106875
H163	H	1.184227	0.124819	0.015308
H164	H	1.311260	0.371900	0.519684
H165	H	0.699349	0.890118	-0.519563
H166	H	1.184234	0.015314	0.015334
H167	H	1.176415	0.687766	-0.619337
H168	H	0.898478	0.371905	0.106885
H169	H	0.485715	0.765109	-0.106747
H170	H	0.898489	-0.109896	0.106897
H171	H	1.524923	0.371903	0.106876
C172	C	0.881678	0.008212	0.123738
N173	N	0.832916	0.033197	0.172549
C174	C	0.798182	0.138185	-0.017600
N175	N	0.716468	0.141012	-0.024548
H176	H	0.330920	1.054352	0.000086
H177	H	1.005280	0.207690	0.674508
C178	C	1.295646	0.554365	-0.355581
N179	N	1.379197	0.496627	-0.283042
C180	C	0.280712	0.786236	-0.123565
N181	N	0.192100	0.847479	-0.172344
H182	H	0.732382	0.439029	0.216918
H183	H	1.699334	0.262422	0.106828
H184	H	0.584066	0.438986	0.089082
C185	C	0.749013	0.435966	0.066298
N186	N	0.800823	0.409017	0.020652
C187	C	1.162026	0.710112	-0.474594
N188	N	1.144939	0.769683	-0.491696
H189	H	0.854258	0.630985	-0.412691
C190	C	1.288008	0.551925	-0.525334
N191	N	1.365808	0.492350	-0.508233
H192	H	1.311235	0.371935	-0.106795
H193	H	0.898457	0.262413	0.480482
H194	H	1.485626	0.262461	-0.106822
