data_functionalizedCrystal
_audit_creation_method	'MofGen! by Chris Wilmer'
_symmetry_space_group_name_H-M	'P1'
_symmetry_Int_Tables_number	1
_symmetry_cell_setting	triclinic
loop_
_symmetry_equiv_pos_as_xyz
  x,y,z
_cell_length_a	27.731994
_cell_length_b	14.853569
_cell_length_c	13.330367
_cell_angle_alpha	89.994190
_cell_angle_beta	89.998540
_cell_angle_gamma	83.128050
loop_
_atom_site_label
_atom_site_type_symbol
_atom_site_fract_x
_atom_site_fract_y
_atom_site_fract_z
O1	O	0.641447	0.107036	-0.083283
O2	O	1.141447	0.607036	0.416717
O3	O	0.500727	0.123398	-0.083317
O4	O	1.000727	0.623398	0.416683
O5	O	0.574846	-0.016075	-0.083290
O6	O	1.074846	0.483925	0.416710
O7	O	0.567329	0.246509	-0.083311
O8	O	1.067329	0.746509	0.416689
O9	O	0.574835	-0.016078	0.083558
O10	O	1.074835	0.483922	0.583558
O11	O	0.500716	0.123395	0.083530
O12	O	1.000716	0.623395	0.583530
O13	O	0.641437	0.107033	0.083564
O14	O	1.141437	0.607033	0.583564
Cu15	Cu	0.571075	0.115214	0.098782
Cu16	Cu	1.071075	0.615214	0.598782
Cu17	Cu	0.571088	0.115217	-0.098535
Cu18	Cu	1.071088	0.615217	0.401465
O19	O	0.567318	0.246506	0.083537
O20	O	1.067318	0.746506	0.583537
C21	C	0.482712	0.123061	0.000102
C22	C	0.982712	0.623061	0.500102
C23	C	0.429051	0.122049	0.000090
C24	C	0.929051	0.622049	0.500090
C25	C	0.096297	0.115677	0.091077
C26	C	0.596297	0.615677	0.591077
C27	C	-0.105379	0.111832	0.091089
C28	C	0.394621	0.611832	0.591089
O29	O	-0.131459	0.111295	0.168437
O30	O	0.368541	0.611295	0.668437
N31	N	-0.130590	0.111356	0.000141
N32	N	0.369410	0.611356	0.500141
C33	C	-0.105379	0.111836	-0.090817
C34	C	0.394621	0.611836	0.409183
O35	O	-0.131449	0.111333	-0.168174
O36	O	0.368551	0.611333	0.331826
C37	C	0.096297	0.115674	-0.090827
C38	C	0.596297	0.615674	0.409173
C39	C	0.121505	0.116159	0.000127
C40	C	0.621505	0.616159	0.500127
C41	C	0.121505	0.116161	0.182024
C42	C	0.621505	0.616161	0.682024
C43	C	0.171921	0.117127	0.182020
C44	C	0.671921	0.617127	0.682020
C45	C	0.197129	0.117609	0.091070
C46	C	0.697129	0.617609	0.591070
C47	C	0.171921	0.117125	0.000123
C48	C	0.671921	0.617125	0.500123
C49	C	0.121508	0.116147	-0.181784
C50	C	0.621508	0.616147	0.318216
C51	C	0.171930	0.117105	-0.181779
C52	C	0.671930	0.617105	0.318221
C53	C	0.197138	0.117590	-0.090824
C54	C	0.697138	0.617590	0.409176
C55	C	0.247544	0.118574	-0.090832
C56	C	0.747544	0.618574	0.409168
N57	N	0.272755	0.119049	0.000117
N58	N	0.772755	0.619049	0.500117
C59	C	0.247547	0.118567	0.091067
C60	C	0.747547	0.618567	0.591067
C61	C	-0.211262	0.109822	-0.090805
C62	C	0.288738	0.609822	0.409195
C63	C	-0.261680	0.108864	-0.090802
C64	C	0.238320	0.608864	0.409198
C65	C	-0.261677	0.108859	0.091104
C66	C	0.238323	0.608859	0.591104
C67	C	-0.211258	0.109824	0.091101
C68	C	0.288742	0.609824	0.591101
C69	C	-0.186050	0.110298	0.000144
C70	C	0.313950	0.610298	0.500144
C71	C	0.353424	0.120597	0.091052
C72	C	0.853424	0.620597	0.591052
C73	C	0.403844	0.121567	0.091041
C74	C	0.903844	0.621567	0.591041
C75	C	0.403836	0.121567	-0.090865
C76	C	0.903836	0.621567	0.409135
C77	C	0.353420	0.120602	-0.090854
C78	C	0.853420	0.620602	0.409146
C79	C	0.328216	0.120114	0.000113
C80	C	0.828216	0.620114	0.500113
O81	O	0.273656	0.119101	-0.168139
O82	O	0.773656	0.619101	0.331861
O83	O	0.273628	0.119050	0.168413
O84	O	0.773628	0.619050	0.668413
C85	C	0.045882	0.114711	0.091081
C86	C	0.545882	0.614711	0.591081
C87	C	0.020673	0.114227	0.000135
C88	C	0.520673	0.614227	0.500135
C89	C	0.045881	0.114709	-0.090816
C90	C	0.545881	0.614709	0.409184
C91	C	-0.029745	0.113269	0.000137
C92	C	0.470255	0.613269	0.500137
C93	C	-0.054953	0.112787	0.091088
C94	C	0.445047	0.612787	0.591088
C95	C	-0.029742	0.113263	0.182036
C96	C	0.470258	0.613263	0.682036
C97	C	0.020674	0.114229	0.182032
C98	C	0.520674	0.614229	0.682032
C99	C	0.020670	0.114233	-0.181764
C100	C	0.520670	0.614233	0.318236
C101	C	-0.029746	0.113268	-0.181753
C102	C	0.470254	0.613268	0.318247
C103	C	-0.054953	0.112786	-0.090802
C104	C	0.445047	0.612786	0.409198
C105	C	0.574499	-0.049659	0.000134
C106	C	1.074499	0.450341	0.500134
C107	C	0.573478	-0.149726	0.000135
C108	C	1.073478	0.350274	0.500135
C109	C	0.528971	-0.185363	0.000126
C110	C	1.028971	0.314637	0.500126
C111	C	0.617026	-0.208116	0.000136
C112	C	1.117026	0.291884	0.500136
C113	C	0.616069	-0.302135	0.000132
C114	C	1.116069	0.197865	0.500132
C115	C	0.571561	-0.337771	0.000123
C116	C	1.071561	0.162229	0.500123
C117	C	0.528012	-0.279389	0.000119
C118	C	1.028012	0.220611	0.500119
C119	C	0.659617	-0.360523	0.000126
C120	C	1.159617	0.139477	0.500126
C121	C	0.658661	-0.454548	0.000120
C122	C	1.158661	0.045452	0.500120
C123	C	0.614153	-0.490186	0.000119
C124	C	1.114153	0.009814	0.500119
C125	C	0.570602	-0.431798	0.000115
C126	C	1.070602	0.068202	0.500115
C127	C	0.526095	-0.467434	0.000106
C128	C	1.026095	0.032566	0.500106
C129	C	0.482543	-0.409048	0.000110
C130	C	0.982543	0.090952	0.500110
C131	C	0.483504	-0.315027	0.000117
C132	C	0.983504	0.184973	0.500117
C133	C	0.613192	-0.584206	0.000112
C134	C	1.113192	-0.084206	0.500112
C135	C	0.525136	-0.561461	0.000099
C136	C	1.025136	-0.061461	0.500099
C137	C	0.659451	0.107371	0.000142
C138	C	1.159451	0.607371	0.500142
C139	C	0.713112	0.108382	0.000148
C140	C	1.213112	0.608382	0.500148
N141	N	0.571070	0.115211	0.237563
N142	N	1.071070	0.615211	0.737563
C143	C	0.567664	0.280091	0.000111
C144	C	1.067664	0.780091	0.500111
C145	C	0.568685	0.380158	0.000103
C146	C	1.068685	0.880158	0.500103
N147	N	0.571097	0.115213	-0.237316
N148	N	1.071097	0.615213	0.262684
C149	C	0.538267	0.176952	0.710174
C150	C	1.038267	0.676952	1.210174
C151	C	0.603922	0.053476	0.710166
C152	C	1.103922	0.553476	1.210166
C153	C	0.603917	0.053473	0.605148
C154	C	1.103917	0.553473	1.105148
C155	C	0.571086	0.115212	0.552638
C156	C	1.071086	0.615212	1.052638
C157	C	0.538261	0.176953	0.605146
C158	C	1.038261	0.676953	1.105146
C159	C	0.636745	-0.008261	0.552632
C160	C	1.136745	0.491739	1.052632
C161	C	0.636741	-0.008266	0.447607
C162	C	1.136741	0.491734	0.947607
C163	C	0.603908	0.053469	0.395095
C164	C	1.103908	0.553469	0.895095
C165	C	0.571081	0.115213	0.447609
C166	C	1.071081	0.615213	0.947609
C167	C	0.538250	0.176951	0.395099
C168	C	1.038250	0.676951	0.895099
C169	C	0.505421	0.238691	0.447612
C170	C	1.005421	0.738691	0.947612
C171	C	0.505428	0.238688	0.552634
C172	C	1.005428	0.738688	1.052634
C173	C	0.603900	0.053472	0.290073
C174	C	1.103900	0.553472	0.790073
C175	C	0.538245	0.176952	0.290071
C176	C	1.038245	0.676952	0.790071
H177	H	-0.190737	0.110220	0.165164
H178	H	0.309263	0.610220	0.665164
H179	H	0.488892	-0.590468	0.000101
H180	H	0.988892	-0.090468	0.500101
H181	H	0.630654	0.003214	0.752923
H182	H	1.130654	0.503214	1.252923
H183	H	0.478692	0.288963	0.404846
H184	H	0.978692	0.788963	0.904846
H185	H	0.663472	-0.058538	0.404857
H186	H	1.163472	0.441462	0.904857
H187	H	0.424369	0.121964	-0.164915
H188	H	0.924369	0.621964	0.335085
H189	H	0.446305	-0.438075	0.000097
H190	H	0.946305	0.061925	0.500097
H191	H	0.448047	-0.267481	0.000118
H192	H	0.948047	0.232519	0.500118
H193	H	0.630632	0.003209	0.247322
H194	H	1.130632	0.503209	0.747322
H195	H	0.100987	0.115767	0.256091
H196	H	0.600987	0.615767	0.756091
H197	H	0.653262	-0.179095	0.000163
H198	H	1.153262	0.320905	0.500163
H199	H	0.424366	0.121965	0.165110
H200	H	0.924366	0.621965	0.665110
H201	H	0.041189	0.114623	-0.255829
H202	H	0.541189	0.614623	0.244171
H203	H	0.663477	-0.058523	0.595389
H204	H	1.163477	0.441477	1.095389
H205	H	0.511536	0.227217	0.752932
H206	H	1.011536	0.727217	1.252932
H207	H	0.695853	-0.331501	0.000195
H208	H	1.195853	0.168499	0.500195
H209	H	0.493512	-0.137820	0.000133
H210	H	0.993512	0.362180	0.500133
H211	H	0.192451	0.117491	-0.255849
H212	H	0.692451	0.617491	0.244151
H213	H	0.332908	0.120208	0.165126
H214	H	0.832908	0.620208	0.665126
H215	H	0.694124	-0.502079	0.000119
H216	H	1.194124	-0.002079	0.500119
H217	H	0.648651	-0.631740	0.000099
H218	H	1.148651	-0.131740	0.500099
H219	H	0.192441	0.117517	0.256085
H220	H	0.692441	0.617517	0.756085
H221	H	-0.282210	0.108469	0.165160
H222	H	0.217790	0.608469	0.665160
H223	H	-0.282201	0.108484	-0.164866
H224	H	0.217799	0.608484	0.335134
H225	H	0.100992	0.115751	-0.255849
H226	H	0.600992	0.615751	0.244151
H227	H	-0.190742	0.110208	-0.164877
H228	H	0.309258	0.610208	0.335123
H229	H	0.511508	0.227225	0.247324
H230	H	1.011508	0.727225	0.747324
H231	H	0.332894	0.120222	-0.164916
H232	H	0.832894	0.620222	0.335084
H233	H	0.041194	0.114624	0.256096
H234	H	0.541194	0.614624	0.756096
H235	H	0.478700	0.288955	0.595396
H236	H	0.978700	0.788955	1.095396
H237	H	-0.050275	0.112875	0.256091
H238	H	0.449725	0.612875	0.756091
H239	H	-0.050266	0.112881	-0.255825
H240	H	0.449734	0.612881	0.244175
