data_functionalizedCrystal
_audit_creation_method	'MofGen! by Chris Wilmer'
_symmetry_space_group_name_H-M	'P1'
_symmetry_Int_Tables_number	1
_symmetry_cell_setting	triclinic
loop_
_symmetry_equiv_pos_as_xyz
  x,y,z
_cell_length_a	29.839135
_cell_length_b	25.639240
_cell_length_c	25.639233
_cell_angle_alpha	89.974071
_cell_angle_beta	90.016897
_cell_angle_gamma	89.965416
loop_
_atom_site_label
_atom_site_type_symbol
_atom_site_fract_x
_atom_site_fract_y
_atom_site_fract_z
Zn1	Zn	-0.686752	-0.208189	-0.295643
Zn2	Zn	-0.686694	-0.295608	-0.208196
Zn3	Zn	-0.611633	-0.208191	-0.208215
Zn4	Zn	-0.611594	-0.295598	-0.295594
O5	O	-0.649168	-0.251896	-0.251912
O6	O	-0.749611	-0.219788	-0.284055
O7	O	-0.676729	-0.284017	-0.135033
O8	O	-0.621638	-0.135025	-0.219840
O9	O	-0.749569	-0.284015	-0.219809
O10	O	-0.676828	-0.135024	-0.284073
O11	O	-0.621582	-0.219792	-0.135047
O12	O	-0.548761	-0.219782	-0.219793
O13	O	-0.621571	-0.283998	-0.368766
O14	O	-0.548732	-0.284000	-0.283990
O15	O	-0.676790	-0.219779	-0.368801
O16	O	-0.676691	-0.368772	-0.219761
O17	O	-0.621515	-0.368764	-0.283972
C18	C	-0.532445	-0.251891	-0.251889
C19	C	-0.482511	-0.251901	-0.251892
C20	C	-0.172887	-0.218498	-0.285412
C21	C	0.014786	-0.218499	-0.285426
O22	O	0.039035	-0.190089	-0.313902
N23	N	0.038274	-0.251887	-0.251927
C24	C	0.014841	-0.285275	-0.218421
O25	O	0.039125	-0.313671	-0.189925
C26	C	-0.172831	-0.285271	-0.218405
C27	C	-0.196317	-0.251884	-0.251909
C28	C	-0.196372	-0.185113	-0.318913
C29	C	-0.243288	-0.185115	-0.318911
C30	C	-0.266718	-0.218502	-0.285408
C31	C	-0.243232	-0.251887	-0.251907
C32	C	-0.196264	-0.318657	-0.184896
C33	C	-0.243185	-0.318652	-0.184894
C34	C	-0.266670	-0.285265	-0.218398
C35	C	-0.313578	-0.285275	-0.218402
N36	N	-0.337066	-0.251887	-0.251901
C37	C	-0.313636	-0.218500	-0.285404
C38	C	0.113371	-0.285276	-0.218432
C39	C	0.160289	-0.285278	-0.218437
C40	C	0.160231	-0.218500	-0.285441
C41	C	0.113313	-0.218501	-0.285439
C42	C	0.089884	-0.251887	-0.251931
C43	C	-0.412161	-0.218507	-0.285398
C44	C	-0.459081	-0.218514	-0.285394
C45	C	-0.459019	-0.285289	-0.218388
C46	C	-0.412104	-0.285285	-0.218393
C47	C	-0.388676	-0.251890	-0.251900
O48	O	-0.337855	-0.313665	-0.189937
O49	O	-0.337928	-0.190101	-0.313887
C50	C	-0.125971	-0.218496	-0.285414
C51	C	-0.102486	-0.251880	-0.251913
C52	C	-0.125916	-0.285267	-0.218410
C53	C	-0.055568	-0.251882	-0.251917
C54	C	-0.032138	-0.218495	-0.285420
C55	C	-0.055626	-0.185107	-0.318918
C56	C	-0.102541	-0.185109	-0.318917
C57	C	-0.102428	-0.318655	-0.184911
C58	C	-0.055513	-0.318651	-0.184916
C59	C	-0.032083	-0.285264	-0.218419
C60	C	-0.649105	-0.387739	-0.251871
C61	C	-0.649119	-0.445853	-0.251871
C62	C	0.233654	-0.251899	-0.251934
C63	C	0.183719	-0.251891	-0.251940
C64	C	-0.677919	-0.806177	-0.285418
C65	C	-0.677933	-0.860781	-0.285429
O66	O	-0.702345	-0.888984	-0.313910
N67	N	-0.649230	-0.888135	-0.251962
C68	C	-0.620510	-0.860883	-0.218487
O69	O	-0.596097	-0.889164	-0.190022
C70	C	-0.620495	-0.806279	-0.218479
C71	C	-0.649202	-0.778928	-0.251944
C72	C	-0.706624	-0.778825	-0.318881
C73	C	-0.706611	-0.724225	-0.318869
C74	C	-0.677894	-0.696976	-0.285395
C75	C	-0.649189	-0.724327	-0.251933
C76	C	-0.591772	-0.779027	-0.185007
C77	C	-0.591759	-0.724420	-0.185002
C78	C	-0.620466	-0.697069	-0.218467
C79	C	-0.620459	-0.642478	-0.218447
N80	N	-0.649161	-0.615123	-0.251914
C81	C	-0.677879	-0.642372	-0.285388
C82	C	-0.620543	-0.975553	-0.218506
C83	C	-0.620560	-1.030155	-0.218511
C84	C	-0.677983	-1.030050	-0.285453
C85	C	-0.677968	-0.975447	-0.285446
C86	C	-0.649246	-0.948199	-0.251973
C87	C	-0.677850	-0.527707	-0.285361
C88	C	-0.677836	-0.473102	-0.285345
C89	C	-0.620412	-0.473212	-0.218404
C90	C	-0.620428	-0.527813	-0.218418
C91	C	-0.649148	-0.555059	-0.251901
O92	O	-0.596058	-0.614240	-0.189982
O93	O	-0.702283	-0.614085	-0.313852
C94	C	-0.649244	-0.115523	-0.251964
C95	C	-0.649276	-0.057409	-0.251987
C96	C	-0.649183	-0.251887	-0.388285
C97	C	-0.649189	-0.251883	-0.446399
C98	C	-0.677977	-0.218345	-0.806786
C99	C	-0.677983	-0.218331	-0.861391
O100	O	-0.702424	-0.189877	-0.889648
N101	N	-0.649238	-0.251761	-0.888682
C102	C	-0.620483	-0.285204	-0.861365
O103	O	-0.596034	-0.313637	-0.889592
C104	C	-0.620475	-0.285215	-0.806762
C105	C	-0.649225	-0.251787	-0.779474
C106	C	-0.706724	-0.184919	-0.779498
C107	C	-0.706719	-0.184934	-0.724898
C108	C	-0.677967	-0.218376	-0.697585
C109	C	-0.649220	-0.251802	-0.724873
C110	C	-0.591718	-0.318655	-0.779447
C111	C	-0.591713	-0.318663	-0.724840
C112	C	-0.620463	-0.285235	-0.697552
C113	C	-0.620463	-0.285259	-0.642960
N114	N	-0.649208	-0.251829	-0.615670
C115	C	-0.677960	-0.218387	-0.642982
C116	C	-0.620500	-0.285176	-0.976036
C117	C	-0.620510	-0.285168	-1.030638
C118	C	-0.678009	-0.218294	-1.030660
C119	C	-0.678002	-0.218306	-0.976057
C120	C	-0.649245	-0.251746	-0.948745
C121	C	-0.677947	-0.218422	-0.528317
C122	C	-0.677941	-0.218442	-0.473711
C123	C	-0.620440	-0.285313	-0.473695
C124	C	-0.620448	-0.285296	-0.528295
C125	C	-0.649203	-0.251846	-0.555605
O126	O	-0.596033	-0.313696	-0.614668
O127	O	-0.702401	-0.189954	-0.614748
C128	C	-0.649179	-0.251868	-0.116069
C129	C	-0.649260	-0.251724	-0.057956
H130	H	0.179407	-0.312470	-0.191160
C131	C	-0.560089	-0.355417	-0.809462
C132	C	-0.524839	-0.332737	-0.846994
C133	C	-0.493206	-0.369497	-0.877012
C134	C	-0.496824	-0.428938	-0.869498
C135	C	-0.532076	-0.451622	-0.831964
C136	C	-0.563708	-0.414862	-0.801946
H137	H	-0.522159	-0.288732	-0.852559
H138	H	-0.467110	-0.352704	-0.904797
H139	H	-0.473407	-0.456151	-0.891719
H140	H	-0.534755	-0.495627	-0.826399
H141	H	-0.589804	-0.431654	-0.774160
H142	H	-0.730138	-0.157684	-0.801730
C143	C	-0.709624	-0.181531	-0.946043
C144	C	-0.744879	-0.204192	-0.908505
C145	C	-0.776502	-0.167414	-0.878494
C146	C	-0.772870	-0.107975	-0.886021
C147	C	-0.737613	-0.085312	-0.923561
C148	C	-0.705990	-0.122089	-0.953572
H149	H	-0.747570	-0.248194	-0.902931
H150	H	-0.802602	-0.184192	-0.850705
H151	H	-0.796279	-0.080750	-0.863806
H152	H	-0.734922	-0.041309	-0.929135
H153	H	-0.679890	-0.105311	-0.981361
C154	C	-0.588816	-0.322096	-0.443639
C155	C	-0.537746	-0.317825	-0.451127
C156	C	-0.506121	-0.354604	-0.421067
C157	C	-0.525566	-0.395656	-0.383520
C158	C	-0.576638	-0.399930	-0.376030
C159	C	-0.608263	-0.363150	-0.406090
H160	H	-0.523350	-0.287434	-0.478924
H161	H	-0.468314	-0.351441	-0.426612
H162	H	-0.502155	-0.422883	-0.361268
H163	H	-0.591034	-0.430320	-0.348233
H164	H	-0.646070	-0.366314	-0.400545
C165	C	-0.738219	-0.808794	-0.355703
C166	C	-0.718750	-0.846329	-0.396741
C167	C	-0.750351	-0.876293	-0.433562
C168	C	-0.801421	-0.868723	-0.429343
C169	C	-0.820893	-0.831186	-0.388303
C170	C	-0.789292	-0.801222	-0.351483
H171	H	-0.680942	-0.851935	-0.399866
H172	H	-0.735936	-0.904081	-0.463943
H173	H	-0.824814	-0.890905	-0.456600
H174	H	-0.858701	-0.825581	-0.385179
H175	H	-0.803707	-0.773435	-0.321102
H176	H	-0.036541	-0.157924	-0.346199
H177	H	-0.392981	-0.312477	-0.191117
C178	C	0.087604	-0.322009	-0.181574
C179	C	0.094079	-0.317660	-0.122146
C180	C	0.068314	-0.354396	-0.085291
C181	C	0.036075	-0.395480	-0.107863
C182	C	0.029599	-0.399831	-0.167294
C183	C	0.055364	-0.363095	-0.204150
H184	H	0.117945	-0.287245	-0.105434
H185	H	0.073109	-0.351175	-0.041296
H186	H	0.017003	-0.422674	-0.080580
H187	H	0.005733	-0.430245	-0.184006
H188	H	0.050569	-0.366316	-0.248145
C189	C	-0.128196	-0.355388	-0.148058
C190	C	-0.121726	-0.351039	-0.088630
C191	C	-0.147491	-0.387777	-0.051777
C192	C	-0.179726	-0.428864	-0.074353
C193	C	-0.186197	-0.433214	-0.133784
C194	C	-0.160432	-0.396476	-0.170637
H195	H	-0.097862	-0.320623	-0.071915
H196	H	-0.142700	-0.384557	-0.007781
H197	H	-0.198799	-0.456060	-0.047072
H198	H	-0.210061	-0.463630	-0.150499
H199	H	-0.165223	-0.399696	-0.214633
H200	H	-0.121659	-0.157921	-0.346199
C201	C	-0.484914	-0.181785	-0.322250
C202	C	-0.478473	-0.186138	-0.381679
C203	C	-0.504303	-0.149409	-0.418533
C204	C	-0.536574	-0.108327	-0.395958
C205	C	-0.543016	-0.103972	-0.336526
C206	C	-0.517186	-0.140701	-0.299672
H207	H	-0.454583	-0.216551	-0.398393
H208	H	-0.499534	-0.152633	-0.462529
H209	H	-0.555695	-0.081138	-0.423240
H210	H	-0.566906	-0.073559	-0.319812
H211	H	-0.521955	-0.137477	-0.255677
H212	H	-0.701361	-0.191182	-0.550546
C213	C	-0.588823	-0.443230	-0.181587
C214	C	-0.592519	-0.450761	-0.122153
C215	C	-0.560927	-0.420776	-0.085339
C216	C	-0.525638	-0.383261	-0.107959
C217	C	-0.521940	-0.375728	-0.167396
C218	C	-0.553533	-0.405713	-0.204210
H219	H	-0.618643	-0.478534	-0.105406
H220	H	-0.563664	-0.426353	-0.041340
H221	H	-0.502251	-0.361065	-0.080707
H222	H	-0.495816	-0.347955	-0.184143
H223	H	-0.550795	-0.400136	-0.248209
C224	C	-0.709572	-1.060030	-0.322279
C225	C	-0.744863	-1.097548	-0.299670
C226	C	-0.776450	-1.127529	-0.336492
C227	C	-0.772747	-1.119991	-0.395925
C228	C	-0.737454	-1.082471	-0.418537
C229	C	-0.705866	-1.052490	-0.381715
H230	H	-0.747606	-1.103130	-0.255672
H231	H	-0.802576	-1.155303	-0.319753
H232	H	-0.796130	-1.142184	-0.423183
H233	H	-0.734711	-1.076889	-0.462536
H234	H	-0.679740	-1.024716	-0.398454
C235	C	0.087481	-0.181772	-0.322290
C236	C	0.093917	-0.186126	-0.381720
C237	C	0.068087	-0.149394	-0.418571
C238	C	0.035822	-0.108308	-0.395993
C239	C	0.029384	-0.103952	-0.336561
C240	C	0.055214	-0.140684	-0.299709
H241	H	0.117803	-0.216542	-0.398436
H242	H	0.072853	-0.152619	-0.462567
H243	H	0.016701	-0.081117	-0.423273
H244	H	0.005498	-0.073536	-0.319845
H245	H	0.050448	-0.137459	-0.255713
H246	H	-0.701420	-0.191063	-1.052908
H247	H	-0.597189	-1.052420	-0.191254
C248	C	-0.560188	-0.809102	-0.148197
C249	C	-0.579675	-0.846644	-0.107167
C250	C	-0.548087	-0.876716	-0.070355
C251	C	-0.497013	-0.869247	-0.074574
C252	C	-0.477524	-0.831703	-0.115606
C253	C	-0.509112	-0.801631	-0.152418
H254	H	-0.617485	-0.852175	-0.104042
H255	H	-0.562515	-0.904509	-0.039981
H256	H	-0.473630	-0.891508	-0.047325
H257	H	-0.439714	-0.826172	-0.118731
H258	H	-0.494684	-0.773838	-0.182792
C259	C	-0.560082	-0.355451	-0.694796
C260	C	-0.509013	-0.351180	-0.702294
C261	C	-0.477384	-0.387969	-0.672251
C262	C	-0.496824	-0.429029	-0.634709
C263	C	-0.547895	-0.433302	-0.627209
C264	C	-0.579524	-0.396513	-0.657253
H265	H	-0.494621	-0.320783	-0.730087
H266	H	-0.439578	-0.384805	-0.677803
H267	H	-0.473410	-0.456262	-0.612469
H268	H	-0.562287	-0.463699	-0.599417
H269	H	-0.617330	-0.399677	-0.651700
C270	C	-0.738184	-0.694145	-0.355691
C271	C	-0.789260	-0.701607	-0.351494
C272	C	-0.820833	-0.671533	-0.388321
C273	C	-0.801329	-0.633996	-0.429345
C274	C	-0.750250	-0.626532	-0.433544
C275	C	-0.718678	-0.656606	-0.396717
H276	H	-0.803700	-0.729396	-0.321124
H277	H	-0.858645	-0.677058	-0.385213
H278	H	-0.824701	-0.611733	-0.456607
H279	H	-0.735810	-0.598744	-0.463914
H280	H	-0.680866	-0.651081	-0.399825
H281	H	-0.597104	-0.312395	-1.052852
H282	H	-0.701343	-0.953181	-0.312696
H283	H	-0.597083	-0.312411	-0.953802
H284	H	-0.393092	-0.191312	-0.312680
H285	H	-0.597156	-0.953370	-0.191244
C286	C	-0.268957	-0.355379	-0.148035
C287	C	-0.262488	-0.351022	-0.088606
C288	C	-0.288259	-0.387749	-0.051749
C289	C	-0.320498	-0.428835	-0.074319
C290	C	-0.326968	-0.433194	-0.133750
C291	C	-0.301197	-0.396466	-0.170608
H292	H	-0.238621	-0.320607	-0.071895
H293	H	-0.283469	-0.384522	-0.007753
H294	H	-0.339575	-0.456023	-0.047035
H295	H	-0.350835	-0.463609	-0.150461
H296	H	-0.305987	-0.399693	-0.214603
H297	H	-0.568369	-0.702238	-0.157745
C298	C	-0.588856	-0.557905	-0.181602
C299	C	-0.592558	-0.550435	-0.122167
C300	C	-0.560984	-0.580524	-0.085354
C301	C	-0.525708	-0.618083	-0.107976
C302	C	-0.522004	-0.625555	-0.167414
C303	C	-0.553578	-0.595466	-0.204227
H304	H	-0.618673	-0.522630	-0.105419
H305	H	-0.563726	-0.574993	-0.041354
H306	H	-0.502335	-0.640357	-0.080725
H307	H	-0.495889	-0.653360	-0.184163
H308	H	-0.550836	-0.600997	-0.248227
H309	H	-0.262405	-0.157927	-0.346193
H310	H	-0.177301	-0.157923	-0.346195
H311	H	-0.730130	-0.157712	-0.702685
H312	H	0.179316	-0.191315	-0.312721
C313	C	-0.709414	-0.443016	-0.322161
C314	C	-0.740999	-0.472994	-0.358984
C315	C	-0.772575	-0.442910	-0.395800
C316	C	-0.772565	-0.382849	-0.395793
C317	C	-0.740979	-0.352868	-0.358968
C318	C	-0.709403	-0.382951	-0.322152
H319	H	-0.741007	-0.517458	-0.358991
H320	H	-0.795957	-0.465105	-0.423060
H321	H	-0.795939	-0.360579	-0.423046
H322	H	-0.740970	-0.308403	-0.358961
H323	H	-0.686021	-0.360757	-0.294892
H324	H	-0.177150	-0.345843	-0.157613
H325	H	-0.478104	-0.312473	-0.191112
H326	H	-0.036395	-0.345844	-0.157634
H327	H	-0.701354	-0.191220	-0.451496
H328	H	-0.701234	-0.549885	-0.312629
H329	H	-0.597041	-0.312521	-0.550514
