data_functionalizedCrystal
_audit_creation_method	'MofGen! by Chris Wilmer'
_symmetry_space_group_name_H-M	'P1'
_symmetry_Int_Tables_number	1
_symmetry_cell_setting	triclinic
loop_
_symmetry_equiv_pos_as_xyz
  x,y,z
_cell_length_a	27.732048
_cell_length_b	27.732048
_cell_length_c	7.681481
_cell_angle_alpha	84.300807
_cell_angle_beta	95.681056
_cell_angle_gamma	82.642655
loop_
_atom_site_label
_atom_site_type_symbol
_atom_site_fract_x
_atom_site_fract_y
_atom_site_fract_z
O1	O	0.636329	0.062121	-0.146225
O2	O	1.136329	0.562121	0.353775
O3	O	0.495534	0.070868	-0.146280
O4	O	0.995534	0.570868	0.353720
O5	O	0.570305	-0.003903	-0.146217
O6	O	1.070305	0.496097	0.353783
O7	O	0.561557	0.136893	-0.146288
O8	O	1.061557	0.636893	0.353712
O9	O	0.579508	-0.013127	0.146648
O10	O	1.079508	0.486873	0.646648
O11	O	0.504737	0.061645	0.146585
O12	O	1.004737	0.561645	0.646585
O13	O	0.645532	0.052897	0.146641
O14	O	1.145532	0.552897	0.646641
Zn15	Zn	0.576596	0.055807	0.193112
Zn16	Zn	1.076596	0.555807	0.693112
Zn17	Zn	0.564470	0.067959	-0.192751
Zn18	Zn	1.064470	0.567959	0.307249
O19	O	0.570761	0.127669	0.146578
O20	O	1.070761	0.627669	0.646578
C21	C	0.482128	0.066073	0.000146
C22	C	0.982128	0.566073	0.500146
C23	C	0.428473	0.065521	0.000126
C24	C	0.928473	0.565521	0.500126
C25	C	0.089659	0.106223	0.000182
C26	C	0.589659	0.606223	0.500182
C27	C	-0.112000	0.104171	0.000198
C28	C	0.388000	0.604171	0.500198
O29	O	-0.143254	0.141390	0.000256
O30	O	0.356746	0.641390	0.500256
N31	N	-0.131123	0.059836	0.000217
N32	N	0.368877	0.559836	0.500217
C33	C	-0.099827	0.016009	0.000244
C34	C	0.400173	0.516009	0.500244
O35	O	-0.120719	-0.021749	0.000279
O36	O	0.379281	0.478251	0.500279
C37	C	0.101831	0.018061	0.000240
C38	C	0.601831	0.518061	0.500240
C39	C	0.120951	0.062400	0.000203
C40	C	0.620951	0.562400	0.500203
C41	C	0.108779	0.150559	0.000147
C42	C	0.608779	0.650559	0.500147
C43	C	0.159191	0.151071	0.000133
C44	C	0.659191	0.651071	0.500133
C45	C	0.190482	0.107248	0.000154
C46	C	0.690482	0.607248	0.500154
C47	C	0.171362	0.062913	0.000189
C48	C	0.671362	0.562913	0.500189
C49	C	0.133126	-0.025765	0.000279
C50	C	0.633126	0.474235	0.500279
C51	C	0.183543	-0.025249	0.000282
C52	C	0.683543	0.474751	0.500282
C53	C	0.202663	0.019091	0.000245
C54	C	0.702663	0.519091	0.500245
C55	C	0.253065	0.019603	0.000196
C56	C	0.753065	0.519603	0.500196
N57	N	0.272188	0.063939	0.000177
N58	N	0.772188	0.563939	0.500177
C59	C	0.240897	0.107761	0.000156
C60	C	0.740897	0.607761	0.500156
C61	C	-0.205702	0.014935	0.000243
C62	C	0.294298	0.514935	0.500243
C63	C	-0.256116	0.014422	0.000241
C64	C	0.243884	0.514422	0.500241
C65	C	-0.268285	0.102585	0.000198
C66	C	0.231715	0.602585	0.500198
C67	C	-0.217870	0.103098	0.000188
C68	C	0.282130	0.603098	0.500188
C69	C	-0.186578	0.059271	0.000224
C70	C	0.313422	0.559271	0.500224
C71	C	0.346765	0.108835	0.000126
C72	C	0.846765	0.608835	0.500126
C73	C	0.397181	0.109344	0.000105
C74	C	0.897181	0.609344	0.500105
C75	C	0.409346	0.021182	0.000156
C76	C	0.909346	0.521182	0.500156
C77	C	0.358934	0.020673	0.000168
C78	C	0.858934	0.520673	0.500168
C79	C	0.327644	0.064503	0.000159
C80	C	0.827644	0.564503	0.500159
O81	O	0.284348	-0.017597	0.000159
O82	O	0.784348	0.482403	0.500159
O83	O	0.261800	0.145513	0.000160
O84	O	0.761800	0.645513	0.500160
C85	C	0.039248	0.105710	0.000195
C86	C	0.539248	0.605710	0.500195
C87	C	0.020128	0.061375	0.000230
C88	C	0.520128	0.561375	0.500230
C89	C	0.051419	0.017552	0.000252
C90	C	0.551419	0.517552	0.500252
C91	C	-0.030287	0.060862	0.000228
C92	C	0.469713	0.560862	0.500228
C93	C	-0.061578	0.104685	0.000207
C94	C	0.438422	0.604685	0.500207
C95	C	-0.042455	0.149020	0.000188
C96	C	0.457545	0.649020	0.500188
C97	C	0.007956	0.149533	0.000174
C98	C	0.507956	0.649533	0.500174
C99	C	0.032296	-0.026784	0.000271
C100	C	0.532296	0.473216	0.500271
C101	C	-0.018116	-0.027293	0.000282
C102	C	0.481884	0.472707	0.500282
C103	C	-0.049408	0.016530	0.000261
C104	C	0.450592	0.516530	0.500261
C105	C	0.574723	-0.026522	0.000220
C106	C	1.074723	0.473478	0.500220
C107	C	0.574171	-0.080177	0.000235
C108	C	1.074171	0.419823	0.500235
C109	C	0.614872	-0.418990	0.000160
C110	C	1.114872	0.081010	0.500160
C111	C	0.612821	-0.620649	0.000135
C112	C	1.112821	-0.120649	0.500135
O113	O	0.650039	-0.651903	0.000073
O114	O	1.150039	-0.151903	0.500073
N115	N	0.568485	-0.639772	0.000119
N116	N	1.068485	-0.139772	0.500119
C117	C	0.524659	-0.608477	0.000098
C118	C	1.024659	-0.108477	0.500098
O119	O	0.486901	-0.629369	0.000066
O120	O	0.986901	-0.129369	0.500066
C121	C	0.526711	-0.406819	0.000111
C122	C	1.026711	0.093181	0.500111
C123	C	0.571050	-0.387699	0.000144
C124	C	1.071050	0.112301	0.500144
C125	C	0.659208	-0.399870	0.000192
C126	C	1.159208	0.100130	0.500192
C127	C	0.659721	-0.349458	0.000208
C128	C	1.159721	0.150542	0.500208
C129	C	0.615898	-0.318167	0.000192
C130	C	1.115898	0.181833	0.500192
C131	C	0.571562	-0.337287	0.000160
C132	C	1.071562	0.162713	0.500160
C133	C	0.482884	-0.375524	0.000077
C134	C	0.982884	0.124476	0.500077
C135	C	0.483401	-0.325106	0.000076
C136	C	0.983401	0.174894	0.500076
C137	C	0.527740	-0.305987	0.000109
C138	C	1.027740	0.194013	0.500109
C139	C	0.528253	-0.255585	0.000160
C140	C	1.028253	0.244415	0.500160
N141	N	0.572588	-0.236462	0.000176
N142	N	1.072588	0.263538	0.500176
C143	C	0.616411	-0.267753	0.000192
C144	C	1.116411	0.232247	0.500192
C145	C	0.523585	-0.714351	0.000095
C146	C	1.023585	-0.214351	0.500095
C147	C	0.523072	-0.764765	0.000095
C148	C	1.023072	-0.264765	0.500095
C149	C	0.611234	-0.776934	0.000128
C150	C	1.111234	-0.276934	0.500128
C151	C	0.611747	-0.726519	0.000141
C152	C	1.111747	-0.226519	0.500141
C153	C	0.567920	-0.695228	0.000111
C154	C	1.067920	-0.195228	0.500111
C155	C	0.617485	-0.161885	0.000227
C156	C	1.117485	0.338115	0.500227
C157	C	0.617994	-0.111468	0.000251
C158	C	1.117994	0.388532	0.500251
C159	C	0.529832	-0.099304	0.000207
C160	C	1.029832	0.400696	0.500207
C161	C	0.529322	-0.149716	0.000193
C162	C	1.029322	0.350284	0.500193
C163	C	0.573153	-0.181006	0.000197
C164	C	1.073153	0.318994	0.500197
O165	O	0.491053	-0.224302	0.000203
O166	O	0.991053	0.275698	0.500203
O167	O	0.654162	-0.246850	0.000186
O168	O	1.154162	0.253150	0.500186
C169	C	0.614360	-0.469402	0.000144
C170	C	1.114360	0.030598	0.500144
C171	C	0.570024	-0.488522	0.000113
C172	C	1.070024	0.011478	0.500113
C173	C	0.526201	-0.457231	0.000097
C174	C	1.026201	0.042769	0.500097
C175	C	0.569511	-0.538936	0.000113
C176	C	1.069511	-0.038936	0.500113
C177	C	0.613334	-0.570227	0.000128
C178	C	1.113334	-0.070227	0.500128
C179	C	0.657670	-0.551104	0.000144
C180	C	1.157670	-0.051104	0.500144
C181	C	0.658182	-0.500693	0.000160
C182	C	1.158182	-0.000693	0.500160
C183	C	0.481866	-0.476354	0.000081
C184	C	0.981866	0.023646	0.500081
C185	C	0.481357	-0.526766	0.000067
C186	C	0.981357	-0.026766	0.500067
C187	C	0.525179	-0.558057	0.000083
C188	C	1.025179	-0.058057	0.500083
C189	C	0.658937	0.057693	0.000211
C190	C	1.158937	0.557693	0.500211
C191	C	0.712593	0.058245	0.000219
C192	C	1.212593	0.558245	0.500219
C193	C	0.566342	0.150288	0.000136
C194	C	1.066342	0.650288	0.500136
C195	C	0.566894	0.203944	0.000111
C196	C	1.066894	0.703944	0.500111
N197	N	0.584875	0.047512	0.456453
N198	N	1.084875	0.547512	0.956453
N199	N	0.556195	0.076250	-0.456092
N200	N	1.056195	0.576250	0.043908
H201	H	0.057769	-0.062471	0.000292
H202	H	0.557769	0.437529	0.500292
O203	O	0.619779	0.012457	0.545997
O204	O	1.119779	0.512457	1.045997
C205	C	0.610803	-0.033920	0.501136
C206	C	1.110803	0.466080	1.001136
H207	H	0.587988	-0.029523	0.367237
H208	H	1.087988	0.470477	0.867237
H209	H	0.647096	-0.057834	0.495019
H210	H	1.147096	0.442166	0.995019
H211	H	0.590066	-0.051905	0.604875
H212	H	1.090066	0.448095	1.104875
H213	H	0.117568	-0.061871	0.000310
H214	H	0.617568	0.438129	0.500310
H215	H	0.446778	-0.391081	0.000039
H216	H	0.946778	0.108919	0.500039
H217	H	0.209019	-0.060938	0.000313
H218	H	0.709019	0.439062	0.500313
H219	H	0.023519	0.185639	0.000147
H220	H	0.523519	0.685639	0.500147
H221	H	-0.180228	-0.020755	0.000272
H222	H	0.319772	0.479245	0.500272
O223	O	0.340309	-0.022375	0.000425
O224	O	0.840309	0.477625	0.500425
C225	C	0.316300	-0.030094	0.152144
C226	C	0.816300	0.469906	0.652144
H227	H	0.305054	0.006508	0.202693
H228	H	0.805054	0.506508	0.702693
H229	H	0.282353	-0.048040	0.118065
H230	H	0.782353	0.451960	0.618065
H231	H	0.342080	-0.054992	0.258356
H232	H	0.842080	0.445008	0.758356
H233	H	0.412745	0.145452	0.000073
H234	H	0.912745	0.645452	0.500073
O235	O	0.177683	0.194182	0.000196
O236	O	0.677683	0.694182	0.500196
C237	C	0.139245	0.232747	0.000143
C238	C	0.639245	0.732747	0.500143
H239	H	0.106838	0.217705	0.055587
H240	H	0.606838	0.717705	0.555587
H241	H	0.152223	0.261047	0.085165
H242	H	0.652223	0.761047	0.585165
H243	H	0.127591	0.250674	-0.140363
H244	H	0.627591	0.750674	0.359637
H245	H	0.321295	0.144526	0.000124
H246	H	0.821295	0.644526	0.500124
O247	O	0.078331	0.193109	-0.000120
O248	O	0.578331	0.693109	0.499880
C249	C	0.044046	0.200235	-0.151831
C250	C	0.544046	0.700235	0.348169
H251	H	0.040179	0.163478	-0.202363
H252	H	0.540179	0.663478	0.297637
H253	H	0.007093	0.217467	-0.117747
H254	H	0.507093	0.717467	0.382253
H255	H	0.057140	0.225522	-0.258058
H256	H	0.557140	0.725522	0.241942
H257	H	-0.202306	0.139202	0.000168
H258	H	0.297694	0.639202	0.500168
H259	H	0.434832	-0.014498	0.000167
H260	H	0.934832	0.485502	0.500167
H261	H	0.693352	-0.576591	0.000165
H262	H	1.193352	-0.076591	0.500165
O263	O	-0.298752	0.145108	0.000259
O264	O	0.201248	0.645108	0.500259
C265	C	-0.347348	0.135143	0.000218
C266	C	0.152652	0.635143	0.500218
H267	H	-0.347254	0.095441	0.055669
H268	H	0.152746	0.595441	0.555669
H269	H	-0.367724	0.160416	0.085242
H270	H	0.132276	0.660416	0.585242
H271	H	-0.366364	0.141514	-0.140284
H272	H	0.133636	0.641514	0.359716
O273	O	-0.274603	-0.028693	0.000333
O274	O	0.225397	0.471307	0.500333
C275	C	-0.236170	-0.067257	0.000311
C276	C	0.263830	0.432743	0.500311
H277	H	-0.200275	-0.055711	0.055748
H278	H	0.299725	0.444289	0.555748
H279	H	-0.243801	-0.100915	0.085357
H280	H	0.256199	0.399085	0.585357
H281	H	-0.233355	-0.076332	-0.140183
H282	H	0.266645	0.423668	0.359817
O283	O	-0.072913	0.191567	-0.000066
O284	O	0.427087	0.691567	0.499934
C285	C	-0.107204	0.198688	-0.151760
C286	C	0.392796	0.698688	0.348240
H287	H	-0.111058	0.161931	-0.202313
H288	H	0.388942	0.661931	0.297687
H289	H	-0.144160	0.215902	-0.117644
H290	H	0.355840	0.715902	0.382356
H291	H	-0.094125	0.223989	-0.257982
H292	H	0.405875	0.723989	0.242018
H293	H	-0.033679	-0.063402	0.000299
H294	H	0.466321	0.436598	0.500299
H295	H	0.654102	-0.095905	0.000283
H296	H	1.154102	0.404095	0.500283
H297	H	0.694288	-0.485131	0.000187
H298	H	1.194288	0.014869	0.500187
O299	O	0.660107	-0.192209	0.000316
O300	O	1.160107	0.307791	0.500316
C301	C	0.699343	-0.164512	0.000304
C302	C	1.199343	0.335488	0.500304
H303	H	0.688520	-0.128541	0.055749
H304	H	1.188520	0.371459	0.555749
H305	H	0.732697	-0.186011	0.085348
H306	H	1.232697	0.313989	0.585348
H307	H	0.708537	-0.156587	-0.140188
H308	H	1.208537	0.343413	0.359812
H309	H	0.695826	-0.333896	0.000228
H310	H	1.195826	0.166104	0.500228
O311	O	0.701806	-0.430205	-0.000021
O312	O	1.201806	0.069795	0.499979
C313	C	0.723976	-0.416809	-0.151702
C314	C	1.223976	0.083191	0.348298
H315	H	0.710218	-0.376883	-0.202287
H316	H	1.210218	0.123117	0.297713
H317	H	0.765391	-0.421717	-0.117557
H318	H	1.265391	0.078283	0.382443
H319	H	0.714249	-0.440995	-0.257912
H320	H	1.214249	0.059005	0.242088
O321	O	0.654857	-0.708025	0.000078
O322	O	1.154857	-0.208025	0.500078
C323	C	0.693424	-0.746462	0.000142
C324	C	1.193424	-0.246462	0.500142
H325	H	0.678389	-0.778866	-0.055299
H326	H	1.178389	-0.278866	0.444701
H327	H	0.721730	-0.733476	-0.084879
H328	H	1.221730	-0.233476	0.415121
H329	H	0.711339	-0.758124	0.140650
H330	H	1.211339	-0.258124	0.640650
O331	O	0.438237	-0.545252	-0.000041
O332	O	0.938237	-0.045252	0.499959
C333	C	0.399673	-0.506819	-0.000012
C334	C	0.899673	-0.006819	0.499988
H335	H	0.411226	-0.470918	-0.055427
H336	H	0.911226	0.029082	0.444573
H337	H	0.366024	-0.514440	-0.085072
H338	H	0.866024	-0.014440	0.414928
H339	H	0.390585	-0.504019	0.140482
H340	H	0.890585	-0.004019	0.640482
H341	H	0.646916	-0.802420	0.000142
H342	H	1.146916	-0.302420	0.500142
H343	H	0.526919	0.105582	0.468686
H344	H	1.026919	0.605582	0.968686
H345	H	0.487894	-0.688877	0.000070
H346	H	0.987894	-0.188877	0.500070
O347	O	0.479979	-0.783302	-0.000232
O348	O	0.979979	-0.283302	0.499768
C349	C	0.448520	-0.762485	-0.151901
C350	C	0.948520	-0.262485	0.348099
H351	H	0.471124	-0.748847	-0.257899
H352	H	0.971124	-0.248847	0.242101
H353	H	0.426584	-0.791270	-0.202828
H354	H	0.926584	-0.291270	0.297172
H355	H	0.422413	-0.730505	-0.117621
H356	H	0.922413	-0.230505	0.382379
O357	O	0.440785	-0.294782	0.000125
O358	O	0.940785	0.205218	0.500125
C359	C	0.401544	-0.322472	0.000045
C360	C	0.901544	0.177528	0.500045
H361	H	0.415845	-0.361941	0.055493
H362	H	0.915845	0.138059	0.555493
H363	H	0.373531	-0.306333	0.085052
H364	H	0.873531	0.193667	0.585052
H365	H	0.383524	-0.321531	-0.140468
H366	H	0.883524	0.178469	0.359532
H367	H	0.493220	-0.165285	0.000215
H368	H	0.993220	0.334715	0.500215
O369	O	0.487306	-0.068832	0.000111
O370	O	0.987306	0.431168	0.500111
C371	C	0.497273	-0.020238	0.000167
C372	C	0.997273	0.479762	0.500167
H373	H	0.533487	-0.016840	-0.055247
H374	H	1.033487	0.483160	0.444753
H375	H	0.466649	0.005493	-0.084880
H376	H	0.966649	0.505493	0.415120
H377	H	0.499742	-0.010074	0.140670
H378	H	0.999742	0.489926	0.640670
H379	H	0.446179	-0.450881	0.000064
H380	H	0.946179	0.049119	0.500064
