data_functionalizedCrystal
_audit_creation_method	'MofGen! by Chris Wilmer'
_symmetry_space_group_name_H-M	'P1'
_symmetry_Int_Tables_number	1
_symmetry_cell_setting	triclinic
loop_
_symmetry_equiv_pos_as_xyz
  x,y,z
_cell_length_a	9.065218
_cell_length_b	10.654550
_cell_length_c	8.140239
_cell_angle_alpha	89.996625
_cell_angle_beta	89.997198
_cell_angle_gamma	84.750408
loop_
_atom_site_label
_atom_site_type_symbol
_atom_site_fract_x
_atom_site_fract_y
_atom_site_fract_z
O1	O	1.959391	0.184157	-0.136617
O2	O	1.530024	0.199263	-0.136620
O3	O	1.754580	0.009010	-0.136608
O4	O	1.734836	0.374410	-0.136629
O5	O	1.754567	0.009008	0.136619
O6	O	1.530011	0.199261	0.136607
O7	O	1.959379	0.184155	0.136610
Zn8	Zn	1.744693	0.191708	0.179989
Zn9	Zn	1.744710	0.191711	-0.179999
O10	O	1.734823	0.374408	0.136598
C11	C	1.475039	0.197810	-0.000006
C12	C	1.311220	0.193469	-0.000007
C13	C	1.753124	-0.037795	0.000005
C14	C	1.748786	-0.177255	0.000002
C15	C	1.881001	-0.256217	0.000002
C16	C	1.876917	-0.387254	-0.000018
C17	C	1.608391	-0.360354	-0.000031
C18	C	1.612477	-0.229320	-0.000023
C19	C	2.032639	-0.582482	-0.095750
C20	C	2.164861	-0.661449	-0.095722
C21	C	2.284719	-0.630803	0.000029
C22	C	2.272361	-0.521192	0.095790
C23	C	2.140137	-0.442232	0.095777
C24	C	2.020284	-0.472876	-0.000012
C25	C	1.456765	-0.034091	0.095723
C26	C	1.324539	0.044872	0.095721
C27	C	1.204668	0.014230	-0.000020
C28	C	1.217011	-0.095383	-0.095757
C29	C	1.349237	-0.174347	-0.095755
C30	C	1.469109	-0.143695	-0.000018
C31	C	2.014364	0.185608	-0.000007
C32	C	2.178183	0.189949	-0.000017
C33	C	1.736279	0.421213	-0.000018
C34	C	1.740616	0.560673	-0.000026
N35	N	1.744693	0.191705	0.425672
N36	N	1.744722	0.191704	-0.425682
H37	H	1.991993	-0.213831	0.000019
H38	H	2.130073	-0.352992	0.173750
O39	O	1.100454	-0.124941	-0.188731
C40	C	0.981093	-0.031758	-0.168178
H41	H	1.024913	0.059735	-0.125520
H42	H	0.920542	-0.015188	-0.290090
H43	H	0.901305	-0.064469	-0.072308
O44	O	2.413304	-0.707320	0.000021
C45	C	2.529839	-0.639323	-0.055880
H46	H	2.499327	-0.534228	-0.036113
H47	H	2.635079	-0.670253	0.015578
H48	H	2.549347	-0.658504	-0.192304
O49	O	2.388660	-0.491490	0.189070
C50	C	2.346152	-0.485429	0.355701
H51	H	2.248381	-0.543841	0.375422
H52	H	2.443093	-0.524321	0.435527
H53	H	2.312612	-0.383227	0.390896
O54	O	1.312647	0.151230	0.188958
C55	C	1.334757	0.118686	0.355607
H56	H	1.401190	0.022777	0.364531
H57	H	1.398095	0.192725	0.418810
H58	H	1.222868	0.114242	0.418237
H59	H	1.359287	-0.263590	-0.173733
H60	H	1.554384	-0.009113	0.173652
O61	O	2.176887	-0.767786	-0.189001
C62	C	2.154744	-0.735226	-0.355641
H63	H	2.179822	-0.633401	-0.375363
H64	H	2.231721	-0.800189	-0.435440
H65	H	2.034788	-0.745759	-0.390869
H66	H	1.497413	-0.402762	-0.000049
H67	H	1.935055	-0.607436	-0.173741
O68	O	1.076348	0.091100	0.000116
C69	C	1.091126	0.194397	0.105190
H70	H	1.213436	0.209051	0.119794
H71	H	1.029965	0.282830	0.050242
H72	H	1.041929	0.174841	0.230496
