data_functionalizedCrystal
_audit_creation_method	'MofGen! by Chris Wilmer'
_symmetry_space_group_name_H-M	'P1'
_symmetry_Int_Tables_number	1
_symmetry_cell_setting	triclinic
loop_
_symmetry_equiv_pos_as_xyz
  x,y,z
_cell_length_a	17.639874
_cell_length_b	19.805405
_cell_length_c	19.805407
_cell_angle_alpha	89.984962
_cell_angle_beta	101.182325
_cell_angle_gamma	101.249837
loop_
_atom_site_label
_atom_site_type_symbol
_atom_site_fract_x
_atom_site_fract_y
_atom_site_fract_z
Zn1	Zn	-1.208287	0.060158	0.173896
Zn2	Zn	-1.208211	0.173331	0.060717
Zn3	Zn	-1.076133	0.083053	0.083559
Zn4	Zn	-1.076066	0.196227	0.196701
O5	O	-1.142174	0.128192	0.128718
O6	O	-1.318887	0.056007	0.139779
O7	O	-1.190687	0.161356	-0.030969
O8	O	-1.093723	-0.014711	0.095558
O9	O	-1.318832	0.139155	0.056627
O10	O	-1.190816	-0.031532	0.161928
O11	O	-1.093649	0.095029	-0.014187
O12	O	-0.965514	0.117229	0.117671
O13	O	-1.093609	0.178177	0.288392
O14	O	-0.965465	0.200377	0.200796
O15	O	-1.190751	0.078208	0.271637
O16	O	-1.190623	0.271095	0.078741
O17	O	-1.093536	0.287916	0.178647
C18	C	-0.936809	0.163772	0.164188
C19	C	-0.848953	0.179010	0.179378
C20	C	-1.142085	0.304064	0.128701
C21	C	-1.142120	0.379290	0.128704
C22	C	-1.142181	0.128192	0.305260
C23	C	-1.142184	0.128192	0.380491
C24	C	-0.560023	0.012379	0.013293
C25	C	-0.477468	0.026711	0.027575
C26	C	-0.477472	0.113412	0.113984
C27	C	-0.560028	0.099085	0.099711
C28	C	-0.601297	0.048568	0.049364
C29	C	-0.601302	0.135274	0.135783
C30	C	-0.683850	0.120951	0.121508
C31	C	-0.725125	0.070438	0.071162
C32	C	-0.683845	0.034245	0.035090
C33	C	-0.560031	0.185794	0.186126
C34	C	-0.601305	0.221984	0.222197
C35	C	-0.683856	0.207657	0.207926
C36	C	-0.725130	0.157144	0.157581
C37	C	-0.725135	0.243850	0.243999
C38	C	-0.807684	0.229527	0.229724
C39	C	-0.807679	0.142821	0.143306
C40	C	-0.348341	0.092465	0.093104
C41	C	-0.436198	0.077218	0.077910
C42	C	-1.142285	-0.048370	0.128747
C43	C	-1.142332	-0.123610	0.128759
C44	C	-1.192722	0.405844	0.076719
C45	C	-1.192755	0.476527	0.076728
C46	C	-1.142182	0.520654	0.128720
C47	C	-1.091578	0.494095	0.180710
C48	C	-1.091549	0.423413	0.180703
C49	C	-1.091695	0.779148	0.180740
C50	C	-1.091726	0.849835	0.180742
C51	C	-1.192901	0.832262	0.076765
C52	C	-1.192872	0.761580	0.076758
C53	C	-1.142271	0.735026	0.128750
C54	C	-1.142236	0.658384	0.128740
C55	C	-1.142212	0.597296	0.128728
C56	C	-1.192760	0.076146	0.407113
C57	C	-1.192753	0.076145	0.477803
C58	C	-1.142174	0.128194	0.521869
C59	C	-1.091593	0.180243	0.495243
C60	C	-1.091596	0.180240	0.424555
C61	C	-1.091577	0.180254	0.780319
C62	C	-1.091580	0.180253	0.851010
C63	C	-1.192734	0.076159	0.833567
C64	C	-1.192738	0.076156	0.762879
C65	C	-1.142154	0.128203	0.736260
C66	C	-1.142161	0.128202	0.659610
C67	C	-1.142171	0.128198	0.598516
C68	C	-1.142160	0.128207	0.952865
C69	C	-1.142152	0.128204	0.877634
H70	H	-0.792342	0.058778	0.059540
H71	H	-1.234050	0.725653	0.034420
C72	C	-0.604800	-0.042375	-0.041477
C73	C	-0.584712	-0.024244	-0.105000
C74	C	-0.625955	-0.074656	-0.155470
H75	H	-0.591329	-0.085527	-0.029252
H76	H	-0.659880	-0.045711	-0.044856
H77	H	-0.529644	-0.020916	-0.101620
H78	H	-0.598184	0.018900	-0.117246
H79	H	-0.681036	-0.077992	-0.158849
H80	H	-0.612481	-0.117804	-0.143239
H81	H	-0.612337	-0.062357	-0.198577
C82	C	-1.036791	0.236827	0.898867
C83	C	-1.081519	0.272476	0.931697
C84	C	-1.031080	0.324601	0.975779
H85	H	-1.002355	0.216980	0.932453
H86	H	-1.006679	0.267860	0.872908
H87	H	-1.111617	0.241448	0.957655
H88	H	-1.115953	0.292339	0.898128
H89	H	-1.000969	0.355634	0.949819
H90	H	-0.996646	0.304748	1.009361
H91	H	-1.061421	0.348799	0.998054
C92	C	-0.432605	-0.012472	-0.011652
C93	C	-0.385195	0.034003	-0.046917
C94	C	-0.343860	-0.002068	-0.083061
H95	H	-0.400361	-0.036336	0.019802
H96	H	-0.468977	-0.044597	-0.043714
H97	H	-0.348827	0.066115	-0.014858
H98	H	-0.417419	0.057868	-0.078382
H99	H	-0.380232	-0.034193	-0.115123
H100	H	-0.311620	-0.025931	-0.051602
H101	H	-0.311693	0.029459	-0.106997
C102	C	-1.247553	0.019544	0.715095
C103	C	-1.230361	-0.044443	0.735271
C104	C	-1.280831	-0.096614	0.691268
H105	H	-1.300684	0.020151	0.717475
H106	H	-1.240309	0.026946	0.669176
H107	H	-1.237612	-0.051844	0.781179
H108	H	-1.177239	-0.045073	0.732888
H109	H	-1.273587	-0.089211	0.645349
H110	H	-1.333959	-0.095999	0.693651
H111	H	-1.269169	-0.140034	0.704947
H112	H	-1.233901	0.369920	0.034379
H113	H	-1.050544	0.885763	0.223084
H114	H	-1.050404	0.530029	0.223045
C115	C	-1.247918	0.505294	0.020419
C116	C	-1.298575	0.536956	0.050116
C117	C	-1.349468	0.563418	-0.001719
H118	H	-1.217937	0.538197	-0.003977
H119	H	-1.278072	0.468855	-0.010487
H120	H	-1.268425	0.573390	0.081011
H121	H	-1.328573	0.504066	0.074508
H122	H	-1.379622	0.526979	-0.032626
H123	H	-1.319482	0.596318	-0.026112
H124	H	-1.383850	0.584898	0.018422
H125	H	-1.050408	0.222620	0.531127
C126	C	-1.036658	0.750464	0.237217
C127	C	-0.992356	0.804244	0.282734
C128	C	-0.941634	0.777845	0.334763
H129	H	-1.066758	0.717633	0.261591
H130	H	-1.002190	0.728916	0.217259
H131	H	-1.026819	0.825781	0.302691
H132	H	-0.962240	0.837079	0.258380
H133	H	-0.907166	0.756297	0.314805
H134	H	-0.971740	0.745015	0.359132
H135	H	-0.911563	0.814331	0.365649
C136	C	-0.432519	0.168206	0.168645
C137	C	-0.351392	0.172994	0.173438
C138	C	-0.309960	0.223456	0.223792
H139	H	-0.445938	0.211368	0.156384
H140	H	-0.446019	0.156017	0.211820
H141	H	-0.337898	0.185187	0.130273
H142	H	-0.337950	0.129846	0.185708
H143	H	-0.323459	0.211267	0.266967
H144	H	-0.323385	0.266614	0.211527
H145	H	-0.254911	0.226707	0.227056
C146	C	-1.036697	0.236685	0.751295
C147	C	-1.047503	0.225538	0.679961
C148	C	-0.996953	0.277507	0.653200
H149	H	-1.048188	0.280199	0.760802
H150	H	-0.983577	0.235978	0.772017
H151	H	-1.100611	0.226253	0.659246
H152	H	-1.036006	0.182035	0.670435
H153	H	-0.943833	0.276800	0.673922
H154	H	-1.008449	0.321017	0.662712
H155	H	-1.004273	0.269948	0.604799
C156	C	-1.036525	0.394717	0.237187
C157	C	-0.992228	0.448491	0.282712
C158	C	-0.941528	0.422083	0.334753
H159	H	-1.066641	0.361889	0.261551
H160	H	-1.002053	0.373163	0.217239
H161	H	-1.026696	0.470033	0.302658
H162	H	-0.962096	0.481323	0.258368
H163	H	-0.907056	0.400529	0.314805
H164	H	-0.971651	0.389255	0.359112
H165	H	-0.911461	0.458565	0.365644
C166	C	-1.247751	0.861080	0.020230
C167	C	-1.230583	0.846923	-0.043792
C168	C	-1.281084	0.873469	-0.095884
H169	H	-1.300874	0.840275	0.020906
H170	H	-1.240519	0.909502	0.027641
H171	H	-1.237822	0.798511	-0.051202
H172	H	-1.177469	0.867728	-0.044491
H173	H	-1.273852	0.921891	-0.088473
H174	H	-1.334204	0.852662	-0.095202
H175	H	-1.269438	0.863873	-0.139328
C176	C	-0.728623	-0.020509	-0.019680
C177	C	-0.708535	-0.002378	-0.083203
C178	C	-0.749778	-0.052790	-0.133673
H179	H	-0.715152	-0.063661	-0.007455
H180	H	-0.783703	-0.023845	-0.023059
H181	H	-0.653467	0.000950	-0.079823
H182	H	-0.722007	0.040766	-0.095449
H183	H	-0.804858	-0.056126	-0.137052
H184	H	-0.736304	-0.095938	-0.121442
H185	H	-0.736160	-0.040491	-0.176780
C186	C	-1.247706	0.019555	0.359390
C187	C	-1.291980	-0.026035	0.397841
C188	C	-1.342596	-0.078182	0.353906
H189	H	-1.282202	0.039393	0.325849
H190	H	-1.217506	-0.004741	0.337052
H191	H	-1.322178	-0.001742	0.420168
H192	H	-1.257505	-0.045890	0.431380
H193	H	-1.312396	-0.102479	0.331568
H194	H	-1.377087	-0.058338	0.320367
H195	H	-1.372637	-0.109125	0.379989
C196	C	-1.036794	0.236848	0.395660
C197	C	-1.053984	0.300839	0.409854
C198	C	-1.003524	0.353002	0.383238
H199	H	-0.983660	0.236245	0.416387
H200	H	-1.044052	0.229434	0.347243
H201	H	-1.046720	0.308251	0.458262
H202	H	-1.107109	0.301465	0.389128
H203	H	-1.010781	0.345587	0.334821
H204	H	-0.950393	0.352391	0.403967
H205	H	-1.015185	0.396424	0.392859
H206	H	-0.567693	0.263116	0.263188
C207	C	-1.247530	0.019570	0.506760
C208	C	-1.202796	-0.016078	0.555055
C209	C	-1.253227	-0.068213	0.581735
H210	H	-1.281971	0.039408	0.528442
H211	H	-1.277637	-0.011462	0.470411
H212	H	-1.172702	0.014948	0.591398
H213	H	-1.168356	-0.035931	0.533390
H214	H	-1.283334	-0.099244	0.545386
H215	H	-1.287666	-0.048369	0.603413
H216	H	-1.222882	-0.092410	0.614501
C217	C	-0.680181	0.298649	0.298655
C218	C	-0.599054	0.303438	0.303443
C219	C	-0.557619	0.353905	0.353791
H220	H	-0.693602	0.341809	0.286390
H221	H	-0.693676	0.286465	0.341832
H222	H	-0.585565	0.315626	0.260275
H223	H	-0.585610	0.260291	0.315717
H224	H	-0.571115	0.341722	0.396968
H225	H	-0.571047	0.397062	0.341521
H226	H	-0.502571	0.357157	0.357051
H227	H	-0.841282	0.101675	0.102319
H228	H	-0.492815	0.197455	0.197746
H229	H	-0.841290	0.258995	0.259098
H230	H	-1.233919	0.033778	0.855249
