data_functionalizedCrystal
_audit_creation_method	'MofGen! by Chris Wilmer'
_symmetry_space_group_name_H-M	'P1'
_symmetry_Int_Tables_number	1
_symmetry_cell_setting	triclinic
loop_
_symmetry_equiv_pos_as_xyz
  x,y,z
_cell_length_a	10.685980
_cell_length_b	15.299816
_cell_length_c	10.686551
_cell_angle_alpha	94.573802
_cell_angle_beta	81.591741
_cell_angle_gamma	85.420770
loop_
_atom_site_label
_atom_site_type_symbol
_atom_site_fract_x
_atom_site_fract_y
_atom_site_fract_z
Zn1	Zn	2.047272	-0.196501	-0.918265
Zn2	Zn	2.072461	-0.355322	-0.747675
Zn3	Zn	1.825092	-0.220901	-0.696132
Zn4	Zn	1.876562	-0.355236	-0.943563
O5	O	1.955347	-0.281990	-0.826409
O6	O	2.225581	-0.207393	-0.906619
O7	O	2.028648	-0.347738	-0.565895
O8	O	1.822482	-0.094977	-0.693440
O9	O	2.244087	-0.324078	-0.781288
O10	O	1.985717	-0.077051	-0.856640
O11	O	1.846907	-0.248980	-0.528026
O12	O	1.656952	-0.248897	-0.717971
O13	O	1.910206	-0.323933	-1.115151
O14	O	1.694767	-0.347593	-0.899757
O15	O	2.035626	-0.207310	-1.096564
O16	O	2.078556	-0.477997	-0.805819
O17	O	1.934631	-0.477935	-0.949737
C18	C	1.630493	-0.300884	-0.806017
C19	C	1.491526	-0.308986	-0.797328
C20	C	2.014948	-0.509774	-0.886146
C21	C	2.040562	-0.607212	-0.911750
C22	C	1.773122	-0.919497	-0.643885
C23	C	1.749049	-0.827950	-0.619830
C24	C	1.821926	-0.772761	-0.692808
C25	C	1.918878	-0.809128	-0.789845
C26	C	1.942946	-0.900685	-0.813908
C27	C	1.991750	-0.753948	-0.862831
C28	C	2.088703	-0.790315	-0.959868
C29	C	2.112767	-0.881863	-0.983926
C30	C	2.039891	-0.937052	-0.910948
C31	C	1.967682	-0.662392	-0.838768
C32	C	2.137507	-0.643579	-1.008791
C33	C	2.161579	-0.735126	-1.032845
C34	C	2.281469	-0.263023	-0.846881
C35	C	2.420443	-0.254940	-0.855605
C36	C	1.975847	-0.262890	-1.152486
C37	C	1.984584	-0.254751	-1.291441
C38	C	1.895549	-0.053313	-0.766468
C39	C	1.870066	0.044135	-0.740925
C40	C	1.934981	-0.300948	-0.501588
C41	C	1.926422	-0.308826	-0.362584
H42	H	1.888742	-0.632790	-0.759760
F43	F	1.852605	-0.377484	-1.303252
F44	F	1.432108	-0.377571	-0.723408
F45	F	2.058420	-0.186098	-1.350781
F46	F	2.264760	-0.773842	-1.136117
H47	H	1.802321	-0.698219	-0.673216
F48	F	1.479853	-0.186351	-0.929506
H49	H	1.670110	-0.798343	-0.540825
H50	H	1.713791	-0.964440	-0.584482
F51	F	2.215934	-0.920565	-1.087220
F52	F	2.065700	-1.034489	-0.936351
H53	H	2.196847	-0.598644	-1.068218
