data_functionalizedCrystal
_audit_creation_method	'MofGen! by Chris Wilmer'
_symmetry_space_group_name_H-M	'P1'
_symmetry_Int_Tables_number	1
_symmetry_cell_setting	triclinic
loop_
_symmetry_equiv_pos_as_xyz
  x,y,z
_cell_length_a	10.489716
_cell_length_b	8.965430
_cell_length_c	10.489763
_cell_angle_alpha	89.995676
_cell_angle_beta	95.461252
_cell_angle_gamma	90.003477
loop_
_atom_site_label
_atom_site_type_symbol
_atom_site_fract_x
_atom_site_fract_y
_atom_site_fract_z
O1	O	1.694086	0.124045	-0.179808
O2	O	1.322888	0.124052	-0.196733
O3	O	1.516918	0.124021	-0.002673
O4	O	1.500055	0.124077	-0.373867
O5	O	1.516902	-0.124058	-0.002686
O6	O	1.322871	-0.124027	-0.196746
O7	O	1.694070	-0.124034	-0.179820
Cu8	Cu	1.508469	-0.146682	-0.188284
Cu9	Cu	1.508488	0.146700	-0.188269
O10	O	1.500039	-0.124002	-0.373880
C11	C	1.275347	0.000013	-0.195468
C12	C	1.133716	0.000015	-0.191663
N13	N	1.508465	-0.353031	-0.188294
C14	C	1.036052	0.000036	-0.310666
C15	C	0.958693	-0.122296	-0.247789
C16	C	0.958715	0.122291	-0.247748
C17	C	1.058222	-0.122418	-0.128835
C18	C	1.058250	0.122278	-0.128812
C19	C	0.980940	-0.000084	-0.065847
C20	C	1.418704	-0.450322	-0.278010
C21	C	1.534204	-0.549734	-0.303811
C22	C	1.393014	-0.549747	-0.162505
C23	C	1.624023	-0.450253	-0.214153
C24	C	1.482757	-0.450258	-0.072796
C25	C	1.598339	-0.549625	-0.098548
C26	C	1.741610	0.000008	-0.181086
C27	C	1.883241	0.000017	-0.184890
C28	C	1.515631	-0.000023	0.044851
C29	C	1.511802	-0.000035	0.186479
N30	N	1.508503	0.353049	-0.188249
C31	C	1.388330	-0.000029	0.254607
C32	C	1.446639	-0.122355	0.346728
C33	C	1.446684	0.122231	0.346715
C34	C	1.570162	-0.122462	0.276734
C35	C	1.570190	0.122235	0.276712
C36	C	1.628588	-0.000121	0.368805
C37	C	1.501307	0.000019	0.578593
C38	C	1.505075	-0.000037	0.436958
H39	H	1.060729	-0.000062	-0.414181
H40	H	1.730188	-0.000196	0.418237
N41	N	1.635709	0.251951	0.237778
N42	N	1.749378	0.274954	0.280369
H43	H	1.795646	0.366577	0.252871
H44	H	1.101528	-0.225942	-0.078633
N45	N	1.381114	0.251938	0.385581
N46	N	1.266852	0.273701	0.344442
H47	H	1.220532	0.365300	0.371888
N48	N	0.904152	-0.252016	-0.310824
N49	N	0.917271	-0.273795	-0.426546
H50	H	0.878757	-0.365407	-0.471073
N51	N	0.950293	-0.000199	0.064108
N52	N	0.986685	-0.105323	0.136962
H53	H	0.965040	-0.105411	0.228744
H54	H	0.915243	0.225697	-0.298003
N55	N	1.112821	0.252014	-0.065847
N56	N	1.080685	0.378932	-0.106451
H57	H	1.119225	0.470571	-0.061991
N58	N	1.561526	-0.604593	-0.426298
N59	N	1.657944	-0.684318	-0.435651
H60	H	1.677234	-0.723063	-0.522159
H61	H	1.721696	-0.406734	-0.236063
N62	N	1.323570	-0.395637	-0.373282
N63	N	1.329807	-0.427560	-0.488516
H64	H	1.262623	-0.388940	-0.555805
H65	H	1.295363	-0.593454	-0.140713
H66	H	1.460950	-0.406529	0.024828
H67	H	1.674347	-0.592952	-0.022655
H68	H	1.394388	-0.225767	0.377729
N69	N	1.260986	-0.000179	0.192321
N70	N	1.186461	-0.105045	0.210994
H71	H	1.096526	-0.105157	0.167004
H72	H	1.622353	-0.225984	0.245901
