data_functionalizedCrystal
_audit_creation_method	'MofGen! by Chris Wilmer'
_symmetry_space_group_name_H-M	'P1'
_symmetry_Int_Tables_number	1
_symmetry_cell_setting	triclinic
loop_
_symmetry_equiv_pos_as_xyz
  x,y,z
_cell_length_a	23.532407
_cell_length_b	23.532407
_cell_length_c	22.610064
_cell_angle_alpha	90.000603
_cell_angle_beta	90.002839
_cell_angle_gamma	82.848678
loop_
_atom_site_label
_atom_site_type_symbol
_atom_site_fract_x
_atom_site_fract_y
_atom_site_fract_z
O1	O	-0.755263	-0.069127	-0.049117
O2	O	-0.421930	0.264206	0.284217
O3	O	-0.088597	0.597540	0.617550
O4	O	-0.589400	-0.079130	-0.049135
O5	O	-0.256067	0.254203	0.284198
O6	O	0.077267	0.587536	0.617532
O7	O	-0.677333	0.008803	-0.049114
O8	O	-0.344000	0.342136	0.284219
O9	O	-0.010667	0.675470	0.617552
O10	O	-0.667330	-0.157060	-0.049137
O11	O	-0.333997	0.176273	0.284196
O12	O	-0.000664	0.509606	0.617529
O13	O	-0.677318	0.008790	0.049255
O14	O	-0.343985	0.342124	0.382588
O15	O	-0.010651	0.675457	0.715921
O16	O	-0.589385	-0.079143	0.049234
O17	O	-0.256051	0.254190	0.382568
O18	O	0.077282	0.587524	0.715901
O19	O	-0.755248	-0.069140	0.049252
O20	O	-0.421915	0.264193	0.382586
O21	O	-0.088581	0.597527	0.715919
Zn22	Zn	-0.672314	-0.074144	0.064862
Zn23	Zn	-0.338980	0.259190	0.398195
Zn24	Zn	-0.005647	0.592523	0.731528
Zn25	Zn	-0.672334	-0.074127	-0.064744
Zn26	Zn	-0.339001	0.259207	0.268589
Zn27	Zn	-0.005668	0.592540	0.601923
O28	O	-0.667315	-0.157073	0.049232
O29	O	-0.333981	0.176260	0.382565
O30	O	-0.000648	0.509593	0.715899
C31	C	-0.677071	0.030013	0.000072
C32	C	-0.343738	0.363346	0.333405
C33	C	-0.010404	0.696679	0.666738
C34	C	-0.676305	0.093230	0.000076
C35	C	-0.342972	0.426563	0.333409
C36	C	-0.009638	0.759896	0.666743
C37	C	-0.568176	-0.078882	0.000048
C38	C	-0.234843	0.254451	0.333381
C39	C	0.098490	0.587785	0.666714
C40	C	-0.504959	-0.078116	0.000041
C41	C	-0.171626	0.255217	0.333374
C42	C	0.161707	0.588551	0.666708
C43	C	-0.776472	-0.069388	0.000069
C44	C	-0.443138	0.263945	0.333402
C45	C	-0.109805	0.597278	0.666735
C46	C	-0.839689	-0.070154	0.000071
C47	C	-0.506355	0.263179	0.333405
C48	C	-0.173022	0.596513	0.666738
C49	C	-0.105856	-0.125350	0.000061
C50	C	0.227477	0.207984	0.333395
C51	C	0.560810	0.541317	0.666728
C52	C	-0.046456	-0.124638	0.000065
C53	C	0.286877	0.208695	0.333398
C54	C	0.620211	0.542029	0.666732
O55	O	-0.009711	-0.168424	0.000081
O56	O	0.323622	0.164909	0.333414
O57	O	0.656955	0.498243	0.666747
N58	N	-0.023830	-0.072362	0.000071
N59	N	0.309504	0.260972	0.333405
N60	N	0.642837	0.594305	0.666738
C61	C	-0.060607	-0.020794	0.000080
C62	C	0.272726	0.312540	0.333413
C63	C	0.606059	0.645873	0.666746
O64	O	-0.035908	0.023737	0.000086
O65	O	0.297426	0.357070	0.333419
O66	O	0.630759	0.690404	0.666753
C67	C	-0.120006	-0.021506	0.000080
C68	C	0.213327	0.311828	0.333414
C69	C	0.546660	0.645161	0.666747
C70	C	-0.142629	-0.073785	0.000068
C71	C	0.190704	0.259548	0.333401
C72	C	0.524038	0.592881	0.666735
C73	C	-0.128479	-0.177625	0.000050
C74	C	0.204854	0.155708	0.333383
C75	C	0.538187	0.489042	0.666716
C76	C	-0.187876	-0.178336	0.000045
C77	C	0.145458	0.154997	0.333378
C78	C	0.478791	0.488330	0.666712
C79	C	-0.224649	-0.126772	0.000052
C80	C	0.108685	0.206561	0.333385
C81	C	0.442018	0.539895	0.666718
C82	C	-0.202025	-0.074497	0.000063
C83	C	0.131308	0.258837	0.333397
C84	C	0.464641	0.592170	0.666730
C85	C	-0.156783	0.030062	0.000093
C86	C	0.176550	0.363395	0.333426
C87	C	0.509884	0.696729	0.666760
C88	C	-0.216185	0.029345	0.000094
C89	C	0.117148	0.362679	0.333427
C90	C	0.450481	0.696012	0.666761
C91	C	-0.238808	-0.022934	0.000082
C92	C	0.094525	0.310399	0.333415
C93	C	0.427859	0.643732	0.666748
C94	C	-0.298194	-0.023643	0.000065
C95	C	0.035139	0.309690	0.333398
C96	C	0.368472	0.643023	0.666732
N97	N	-0.320820	-0.075920	0.000059
N98	N	0.012513	0.257414	0.333392
N99	N	0.345846	0.590747	0.666726
C100	C	-0.284048	-0.127484	0.000052
C101	C	0.049286	0.205849	0.333386
C102	C	0.382619	0.539183	0.666719
C103	C	0.064135	-0.019302	0.000080
C104	C	0.397468	0.314031	0.333413
C105	C	0.730802	0.647365	0.666746
C106	C	0.123533	-0.018589	0.000075
C107	C	0.456866	0.314744	0.333408
C108	C	0.790200	0.648077	0.666742
C109	C	0.137680	-0.122434	0.000061
C110	C	0.471014	0.210899	0.333395
C111	C	0.804347	0.544232	0.666728
C112	C	0.078281	-0.123146	0.000062
C113	C	0.411615	0.210187	0.333395
C114	C	0.744948	0.543520	0.666729
C115	C	0.041509	-0.071578	0.000074
C116	C	0.374842	0.261755	0.333407
C117	C	0.708176	0.595088	0.666740
C118	C	-0.408784	-0.128974	0.000042
C119	C	-0.075451	0.204360	0.333375
C120	C	0.257882	0.537693	0.666708
C121	C	-0.468186	-0.129680	0.000034
C122	C	-0.134853	0.203653	0.333368
C123	C	0.198480	0.536986	0.666701
C124	C	-0.482329	-0.025836	0.000051
C125	C	-0.148995	0.307497	0.333384
C126	C	0.184338	0.640831	0.666718
C127	C	-0.422932	-0.025129	0.000055
C128	C	-0.089598	0.308204	0.333389
C129	C	0.243735	0.641538	0.666722
C130	C	-0.386160	-0.076702	0.000052
C131	C	-0.052827	0.256631	0.333386
C132	C	0.280506	0.589964	0.666719
O133	O	-0.334974	0.020119	0.000052
O134	O	-0.001640	0.353453	0.333385
O135	O	0.331693	0.686786	0.666719
O136	O	-0.308755	-0.172007	0.000054
O137	O	0.024578	0.161326	0.333387
O138	O	0.357911	0.494660	0.666721
C139	C	-0.667577	-0.178283	0.000045
C140	C	-0.334244	0.155051	0.333378
C141	C	-0.000910	0.488384	0.666711
C142	C	-0.668343	-0.241500	0.000036
C143	C	-0.335010	0.091833	0.333370
C144	C	-0.001676	0.425167	0.666703
N145	N	-0.672304	-0.074155	0.153314
N146	N	-0.338971	0.259179	0.486647
N147	N	-0.005637	0.592512	0.819981
C148	C	-0.723539	0.492333	0.000049
C149	C	-0.390205	0.825666	0.333382
C150	C	-0.056872	1.158999	0.666716
C151	C	-0.722827	0.551733	0.000044
C152	C	-0.389494	0.885066	0.333378
C153	C	-0.056160	1.218400	0.666711
O154	O	-0.766613	0.588478	0.000027
O155	O	-0.433280	0.921811	0.333361
O156	O	-0.099946	1.255144	0.666694
N157	N	-0.670551	0.574359	0.000039
N158	N	-0.337217	0.907693	0.333372
N159	N	-0.003884	1.241026	0.666706
C160	C	-0.618983	0.537582	0.000032
C161	C	-0.285649	0.870915	0.333366
C162	C	0.047684	1.204248	0.666699
O163	O	-0.574452	0.562281	0.000027
O164	O	-0.241119	0.895615	0.333360
O165	O	0.092215	1.228948	0.666693
C166	C	-0.619695	0.478182	0.000033
C167	C	-0.286361	0.811516	0.333366
C168	C	0.046972	1.144849	0.666699
C169	C	-0.671974	0.455560	0.000044
C170	C	-0.338641	0.788893	0.333377
C171	C	-0.005308	1.122227	0.666711
C172	C	-0.775814	0.469710	0.000060
C173	C	-0.442481	0.803043	0.333393
C174	C	-0.109147	1.136376	0.666726
C175	C	-0.776525	0.410313	0.000065
C176	C	-0.443192	0.743647	0.333399
C177	C	-0.109859	1.076980	0.666732
C178	C	-0.724961	0.373540	0.000060
C179	C	-0.391628	0.706874	0.333394
C180	C	-0.058294	1.040207	0.666727
C181	C	-0.672685	0.396164	0.000050
C182	C	-0.339352	0.729497	0.333383
C183	C	-0.006019	1.062830	0.666716
C184	C	-0.568127	0.441406	0.000022
C185	C	-0.234794	0.774739	0.333355
C186	C	0.098540	1.108073	0.666688
C187	C	-0.568844	0.382004	0.000021
C188	C	-0.235510	0.715337	0.333355
C189	C	0.097823	1.048670	0.666688
C190	C	-0.621123	0.359381	0.000033
C191	C	-0.287790	0.692714	0.333366
C192	C	0.045543	1.026048	0.666699
C193	C	-0.621832	0.299995	0.000050
C194	C	-0.288499	0.633328	0.333384
C195	C	0.044834	0.966661	0.666717
N196	N	-0.674109	0.277368	0.000056
N197	N	-0.340775	0.610702	0.333389
N198	N	-0.007442	0.944035	0.666722
C199	C	-0.725673	0.314141	0.000061
C200	C	-0.392340	0.647475	0.333394
C201	C	-0.059006	0.980808	0.666727
C202	C	-0.617491	0.662324	0.000031
C203	C	-0.284158	0.995657	0.333364
C204	C	0.049176	1.328991	0.666697
C205	C	-0.616778	0.721722	0.000034
C206	C	-0.283445	1.055055	0.333368
C207	C	0.049888	1.388389	0.666701
C208	C	-0.720623	0.735869	0.000045
C209	C	-0.387290	1.069203	0.333379
C210	C	-0.053957	1.402536	0.666712
C211	C	-0.721335	0.676470	0.000046
C212	C	-0.388002	1.009804	0.333379
C213	C	-0.054669	1.343137	0.666712
C214	C	-0.669767	0.639698	0.000036
C215	C	-0.336434	0.973031	0.333369
C216	C	-0.003101	1.306365	0.666702
C217	C	-0.727163	0.189405	0.000073
C218	C	-0.393829	0.522738	0.333406
C219	C	-0.060496	0.856071	0.666740
C220	C	-0.727869	0.130003	0.000081
C221	C	-0.394536	0.463336	0.333414
C222	C	-0.061203	0.796669	0.666748
C223	C	-0.624025	0.115860	0.000067
C224	C	-0.290692	0.449194	0.333400
C225	C	0.042642	0.782527	0.666734
C226	C	-0.623318	0.175257	0.000062
C227	C	-0.289985	0.508591	0.333395
C228	C	0.043349	0.841924	0.666729
C229	C	-0.674891	0.212029	0.000063
C230	C	-0.341558	0.545362	0.333396
C231	C	-0.008225	0.878695	0.666730
O232	O	-0.578070	0.263215	0.000065
O233	O	-0.244736	0.596549	0.333398
O234	O	0.088597	0.929882	0.666732
O235	O	-0.770196	0.289433	0.000058
O236	O	-0.436863	0.622767	0.333392
O237	O	-0.103529	0.956100	0.666725
N238	N	-0.672349	-0.074111	-0.153196
N239	N	-0.339015	0.259222	0.180137
N240	N	-0.005682	0.592556	0.513470
C241	C	-0.711273	-0.035196	0.561965
C242	C	-0.377940	0.298138	0.895298
C243	C	-0.044606	0.631471	1.228631
C244	C	-0.711276	-0.035192	0.623884
C245	C	-0.377942	0.298142	0.957218
C246	C	-0.044609	0.631475	1.290551
O247	O	-0.744384	-0.002076	0.655911
O248	O	-0.411051	0.331258	0.989244
O249	O	-0.077718	0.664591	1.322578
N250	N	-0.672334	-0.074115	0.654851
N251	N	-0.339001	0.259219	0.988185
N252	N	-0.005667	0.592552	1.321518
C253	C	-0.633383	-0.113041	0.623895
C254	C	-0.300049	0.220292	0.957228
C255	C	0.033284	0.553626	1.290562
O256	O	-0.600259	-0.146147	0.655920
O257	O	-0.266926	0.187186	0.989254
O258	O	0.066407	0.520519	1.322587
C259	C	-0.633377	-0.113042	0.561976
C260	C	-0.300044	0.220291	0.895309
C261	C	0.033289	0.553625	1.228643
C262	C	-0.672326	-0.074120	0.531013
C263	C	-0.338992	0.259213	0.864346
C264	C	-0.005659	0.592547	1.197679
C265	C	-0.750218	0.003724	0.531001
C266	C	-0.416884	0.337057	0.864334
C267	C	-0.083551	0.670390	1.197668
C268	C	-0.750215	0.003719	0.469085
C269	C	-0.416882	0.337052	0.802419
C270	C	-0.083549	0.670385	1.135752
C271	C	-0.711268	-0.035206	0.438133
C272	C	-0.377935	0.298128	0.771467
C273	C	-0.044601	0.631461	1.104800
C274	C	-0.672323	-0.074125	0.469097
C275	C	-0.338990	0.259208	0.802430
C276	C	-0.005657	0.592542	1.135764
C277	C	-0.594424	-0.151965	0.531021
C278	C	-0.261091	0.181369	0.864354
C279	C	0.072243	0.514702	1.197688
C280	C	-0.594422	-0.151962	0.469098
C281	C	-0.261089	0.181371	0.802431
C282	C	0.072245	0.514705	1.135765
C283	C	-0.633370	-0.113040	0.438134
C284	C	-0.300037	0.220293	0.771468
C285	C	0.033296	0.553626	1.104801
C286	C	-0.633374	-0.113054	0.376229
C287	C	-0.300041	0.220279	0.709563
C288	C	0.033293	0.553613	1.042896
N289	N	-0.672316	-0.074131	0.345262
N290	N	-0.338983	0.259202	0.678596
N291	N	-0.005649	0.592536	1.011929
C292	C	-0.711263	-0.035207	0.376214
C293	C	-0.377930	0.298127	0.709548
C294	C	-0.044596	0.631460	1.042881
C295	C	-0.633396	-0.113035	0.753928
C296	C	-0.300063	0.220298	1.087262
C297	C	0.033271	0.553631	1.420595
C298	C	-0.633403	-0.113037	0.815846
C299	C	-0.300070	0.220296	1.149179
C300	C	0.033263	0.553629	1.482513
C301	C	-0.711296	-0.035187	0.815831
C302	C	-0.377962	0.298146	1.149165
C303	C	-0.044629	0.631479	1.482498
C304	C	-0.711291	-0.035188	0.753913
C305	C	-0.377957	0.298145	1.087246
C306	C	-0.044624	0.631479	1.420579
C307	C	-0.672338	-0.074112	0.722962
C308	C	-0.339004	0.259221	1.056295
C309	C	-0.005671	0.592555	1.389628
C310	C	-0.711255	-0.035220	0.246187
C311	C	-0.377922	0.298113	0.579520
C312	C	-0.044589	0.631446	0.912854
C313	C	-0.711251	-0.035230	0.184266
C314	C	-0.377918	0.298103	0.517599
C315	C	-0.044584	0.631436	0.850933
C316	C	-0.633357	-0.113078	0.184286
C317	C	-0.300023	0.220255	0.517619
C318	C	0.033310	0.553588	0.850953
C319	C	-0.633363	-0.113071	0.246202
C320	C	-0.300029	0.220263	0.579535
C321	C	0.033304	0.553596	0.912869
C322	C	-0.672314	-0.074137	0.277151
C323	C	-0.338981	0.259196	0.610484
C324	C	-0.005648	0.592530	0.943818
O325	O	-0.600281	-0.146152	0.344163
O326	O	-0.266948	0.187182	0.677497
O327	O	0.066386	0.520515	1.010830
O328	O	-0.744376	-0.002101	0.344182
O329	O	-0.411042	0.331233	0.677515
O330	O	-0.077709	0.664566	1.010848
H331	H	-0.486602	-0.172255	0.000024
H332	H	-0.153269	0.161079	0.333357
H333	H	0.180065	0.494412	0.666691
H334	H	-0.525555	0.459814	0.000009
H335	H	-0.192222	0.793148	0.333342
H336	H	0.141111	1.126481	0.666675
H337	H	-0.743008	-0.003492	0.841044
H338	H	-0.409675	0.329841	1.174377
H339	H	-0.076341	0.663175	1.507710
H340	H	-0.378851	-0.170970	0.000041
H341	H	-0.045518	0.162363	0.333375
H342	H	0.287815	0.495697	0.666708
H343	H	0.141947	0.023982	0.000076
H344	H	0.475280	0.357315	0.333409
H345	H	0.808613	0.690648	0.666742
H346	H	-0.206289	-0.220908	0.000035
H347	H	0.127044	0.112426	0.333368
H348	H	0.460378	0.445759	0.666702
H349	H	-0.769159	0.219337	0.000071
H350	H	-0.435826	0.552671	0.333405
H351	H	-0.102492	0.886004	0.666738
H352	H	-0.562700	-0.183658	0.443901
H353	H	-0.229367	0.149675	0.777234
H354	H	0.103967	0.483009	1.110567
H355	H	-0.526850	0.352066	0.000013
H356	H	-0.193516	0.685399	0.333346
H357	H	0.139817	1.018732	0.666679
H358	H	-0.601677	-0.144736	0.728731
H359	H	-0.268344	0.188597	1.062065
H360	H	0.064990	0.521930	1.395398
H361	H	-0.743005	-0.003494	0.728706
H362	H	-0.409672	0.329839	1.062039
H363	H	-0.076339	0.663172	1.395372
H364	H	0.034198	0.022693	0.000084
H365	H	0.367531	0.356027	0.333417
H366	H	0.700864	0.689360	0.666751
H367	H	-0.512280	0.016146	0.000054
H368	H	-0.178946	0.349480	0.333388
H369	H	0.154387	0.682813	0.666721
H370	H	-0.138375	0.072634	0.000103
H371	H	0.194959	0.405967	0.333437
H372	H	0.528292	0.739300	0.666770
H373	H	-0.601648	-0.144772	0.159075
H374	H	-0.268315	0.188562	0.492409
H375	H	0.065019	0.521895	0.825742
H376	H	-0.601653	-0.144770	0.271413
H377	H	-0.268320	0.188563	0.604746
H378	H	0.065014	0.521897	0.938080
H379	H	-0.582043	0.085909	0.000065
H380	H	-0.248709	0.419243	0.333398
H381	H	0.084624	0.752576	0.666732
H382	H	-0.098544	-0.219617	0.000046
H383	H	0.234789	0.113716	0.333380
H384	H	0.568123	0.447049	0.666713
H385	H	0.059867	-0.165717	0.000055
H386	H	0.393200	0.167616	0.333389
H387	H	0.726533	0.500950	0.666722
H388	H	0.167632	-0.164421	0.000059
H389	H	0.500965	0.168913	0.333392
H390	H	0.834299	0.502246	0.666725
H391	H	-0.574207	0.740136	0.000035
H392	H	-0.240874	1.073469	0.333369
H393	H	0.092460	1.406802	0.666702
H394	H	-0.762610	0.765821	0.000047
H395	H	-0.429276	1.099154	0.333380
H396	H	-0.095943	1.432488	0.666714
H397	H	-0.580748	0.193677	0.000069
H398	H	-0.247414	0.527011	0.333403
H399	H	0.085919	0.860344	0.666736
H400	H	-0.246123	0.071339	0.000104
H401	H	0.087210	0.404673	0.333437
H402	H	0.420543	0.738006	0.666771
H403	H	-0.601694	-0.144737	0.841052
H404	H	-0.268361	0.188596	1.174386
H405	H	0.064973	0.521930	1.507719
H406	H	-0.404512	0.017441	0.000056
H407	H	-0.071178	0.350775	0.333390
H408	H	0.262155	0.684108	0.666723
H409	H	-0.817806	0.499645	0.000061
H410	H	-0.484473	0.832978	0.333395
H411	H	-0.151140	1.166312	0.666728
H412	H	-0.770443	0.111587	0.000092
H413	H	-0.437110	0.444920	0.333425
H414	H	-0.103777	0.778254	0.666759
H415	H	-0.819097	0.391900	0.000072
H416	H	-0.485763	0.725233	0.333405
H417	H	-0.152430	1.058567	0.666739
H418	H	-0.763906	0.658056	0.000054
H419	H	-0.430573	0.991389	0.333388
H420	H	-0.097239	1.324722	0.666721
H421	H	-0.575496	0.632386	0.000028
H422	H	-0.242162	0.965720	0.333361
H423	H	0.091171	1.299053	0.666694
H424	H	-0.742969	-0.003535	0.159057
H425	H	-0.409636	0.329798	0.492391
H426	H	-0.076303	0.663131	0.825724
H427	H	-0.742973	-0.003516	0.271379
H428	H	-0.409639	0.329817	0.604712
H429	H	-0.076306	0.663150	0.938046
H430	H	-0.781929	0.035414	0.443878
H431	H	-0.448595	0.368747	0.777212
H432	H	-0.115262	0.702080	1.110545
H433	H	-0.781933	0.035423	0.556197
H434	H	-0.448600	0.368756	0.889530
H435	H	-0.115266	0.702090	1.222863
H436	H	-0.562709	-0.183658	0.556223
H437	H	-0.229375	0.149675	0.889556
H438	H	0.103958	0.483008	1.222889
