data_functionalizedCrystal
_audit_creation_method	'MofGen! by Chris Wilmer'
_symmetry_space_group_name_H-M	'P1'
_symmetry_Int_Tables_number	1
_symmetry_cell_setting	triclinic
loop_
_symmetry_equiv_pos_as_xyz
  x,y,z
_cell_length_a	16.053802
_cell_length_b	16.992697
_cell_length_c	16.992695
_cell_angle_alpha	89.331663
_cell_angle_beta	92.741074
_cell_angle_gamma	92.750118
loop_
_atom_site_label
_atom_site_type_symbol
_atom_site_fract_x
_atom_site_fract_y
_atom_site_fract_z
O1	O	-0.069309	-1.053958	0.163818
O2	O	0.180691	-0.803958	0.413818
O3	O	0.430691	-0.553958	0.663818
O4	O	0.680691	-0.303958	0.913818
O5	O	-0.069337	-0.825560	0.161985
O6	O	0.180663	-0.575560	0.411985
O7	O	0.430663	-0.325560	0.661985
O8	O	0.680663	-0.075560	0.911985
O9	O	-0.069316	-0.938843	0.048702
O10	O	0.180684	-0.688843	0.298702
O11	O	0.430684	-0.438843	0.548702
O12	O	0.680684	-0.188843	0.798702
O13	O	-0.069329	-0.940675	0.277101
O14	O	0.180671	-0.690675	0.527101
O15	O	0.430671	-0.440675	0.777101
O16	O	0.680671	-0.190675	1.027101
O17	O	0.069542	-0.932606	0.054910
O18	O	0.319542	-0.682606	0.304910
O19	O	0.569542	-0.432606	0.554910
O20	O	0.819542	-0.182606	0.804910
O21	O	0.069521	-0.819322	0.168193
O22	O	0.319521	-0.569322	0.418193
O23	O	0.569521	-0.319322	0.668193
O24	O	0.819521	-0.069322	0.918193
O25	O	0.069549	-1.047721	0.170026
O26	O	0.319549	-0.797721	0.420026
O27	O	0.569549	-0.547721	0.670026
O28	O	0.819549	-0.297721	0.920026
Zn29	Zn	0.091582	-0.932531	0.170095
Zn30	Zn	0.341582	-0.682531	0.420095
Zn31	Zn	0.591582	-0.432531	0.670095
Zn32	Zn	0.841582	-0.182531	0.920095
Zn33	Zn	-0.091369	-0.940749	0.161916
Zn34	Zn	0.158631	-0.690749	0.411916
Zn35	Zn	0.408631	-0.440749	0.661916
Zn36	Zn	0.658631	-0.190749	0.911916
O37	O	0.069529	-0.934438	0.283309
O38	O	0.319529	-0.684438	0.533309
O39	O	0.569529	-0.434438	0.783309
O40	O	0.819529	-0.184438	1.033309
C41	C	0.000089	-0.793081	0.162733
C42	C	0.250089	-0.543081	0.412733
C43	C	0.500089	-0.293081	0.662733
C44	C	0.750089	-0.043081	0.912733
C45	C	0.000078	-0.705597	0.155704
C46	C	0.250078	-0.455597	0.405704
C47	C	0.500078	-0.205597	0.655704
C48	C	0.750078	0.044403	0.905704
N49	N	0.216441	-0.926929	0.175677
N50	N	0.466441	-0.676929	0.425677
N51	N	0.716441	-0.426929	0.675677
N52	N	0.966441	-0.176929	0.925677
C53	C	0.000112	-0.933369	0.022445
C54	C	0.250112	-0.683369	0.272445
C55	C	0.500112	-0.433369	0.522445
C56	C	0.750112	-0.183369	0.772445
C57	C	0.000111	-0.926340	-0.065039
C58	C	0.250111	-0.676340	0.184961
C59	C	0.500111	-0.426340	0.434961
C60	C	0.750111	-0.176340	0.684961
N61	N	-0.216229	-0.946358	0.156328
N62	N	0.033771	-0.696358	0.406328
N63	N	0.283771	-0.446358	0.656328
N64	N	0.533771	-0.196358	0.906328
C65	C	0.260144	-0.975151	0.127494
C66	C	0.510144	-0.725151	0.377494
C67	C	0.760144	-0.475151	0.627494
C68	C	1.010144	-0.225151	0.877494
C69	C	0.347550	-0.971240	0.131407
C70	C	0.597550	-0.721240	0.381407
C71	C	0.847550	-0.471240	0.631407
C72	C	1.097550	-0.221240	0.881407
C73	C	0.391252	-0.919110	0.183507
C74	C	0.641252	-0.669110	0.433507
C75	C	0.891252	-0.419110	0.683507
C76	C	1.141252	-0.169110	0.933507
C77	C	0.347543	-0.870882	0.231692
C78	C	0.597543	-0.620882	0.481692
C79	C	0.847543	-0.370882	0.731692
C80	C	1.097543	-0.120882	0.981692
C81	C	0.260138	-0.874790	0.227774
C82	C	0.510138	-0.624790	0.477774
C83	C	0.760138	-0.374790	0.727774
C84	C	1.010138	-0.124790	0.977774
C85	C	0.652658	-0.902038	0.200595
C86	C	0.902658	-0.652038	0.450595
C87	C	1.152658	-0.402038	0.700595
C88	C	1.402658	-0.152038	0.950595
C89	C	0.740069	-0.898136	0.204511
C90	C	0.990069	-0.648136	0.454511
C91	C	1.240069	-0.398136	0.704511
C92	C	1.490069	-0.148136	0.954511
C93	C	0.740070	-0.998492	0.104224
C94	C	0.990070	-0.748492	0.354224
C95	C	1.240070	-0.498492	0.604224
C96	C	1.490070	-0.248492	0.854224
C97	C	0.652664	-1.002399	0.100315
C98	C	0.902664	-0.752399	0.350315
C99	C	1.152664	-0.502399	0.600315
C100	C	1.402664	-0.252399	0.850315
C101	C	0.608962	-0.954169	0.148497
C102	C	0.858962	-0.704169	0.398497
C103	C	1.108962	-0.454169	0.648497
C104	C	1.358962	-0.204169	0.898497
N105	N	0.480595	-0.915112	0.187509
N106	N	0.730595	-0.665112	0.437509
N107	N	0.980595	-0.415112	0.687509
N108	N	1.230595	-0.165112	0.937509
N109	N	0.519621	-0.958163	0.144490
N110	N	0.769621	-0.708163	0.394490
N111	N	1.019621	-0.458163	0.644490
N112	N	1.269621	-0.208163	0.894490
C113	C	0.000074	-0.659606	0.223521
C114	C	0.250074	-0.409606	0.473521
C115	C	0.500074	-0.159606	0.723521
C116	C	0.750074	0.090394	0.973521
C117	C	0.000085	-0.577405	0.216913
C118	C	0.250085	-0.327405	0.466913
C119	C	0.500085	-0.077405	0.716913
C120	C	0.750085	0.172595	0.966913
C121	C	0.000093	-0.541196	0.142485
C122	C	0.250093	-0.291196	0.392485
C123	C	0.500093	-0.041196	0.642485
C124	C	0.750093	0.208804	0.892485
C125	C	0.000100	-0.587193	0.074663
C126	C	0.250100	-0.337193	0.324663
C127	C	0.500100	-0.087193	0.574663
C128	C	0.750100	0.162807	0.824663
C129	C	0.000095	-0.669392	0.081272
C130	C	0.250095	-0.419392	0.331272
C131	C	0.500095	-0.169392	0.581272
C132	C	0.750095	0.080608	0.831272
C133	C	0.000113	-0.295881	0.115091
C134	C	0.250113	-0.045881	0.365091
C135	C	0.500113	0.204119	0.615091
C136	C	0.750113	0.454119	0.865091
C137	C	0.000115	-0.213676	0.108487
C138	C	0.250115	0.036324	0.358487
C139	C	0.500115	0.286324	0.608487
C140	C	0.750115	0.536324	0.858487
C141	C	0.000102	-0.203893	0.250737
C142	C	0.250102	0.046107	0.500737
C143	C	0.500102	0.296107	0.750737
C144	C	0.750102	0.546107	1.000737
C145	C	0.000092	-0.286095	0.257340
C146	C	0.250092	-0.036095	0.507340
C147	C	0.500092	0.213905	0.757340
C148	C	0.750092	0.463905	1.007340
C149	C	0.000103	-0.332084	0.189518
C150	C	0.250103	-0.082084	0.439518
C151	C	0.500103	0.167916	0.689518
C152	C	0.750103	0.417916	0.939518
N153	N	0.000101	-0.457174	0.135728
N154	N	0.250101	-0.207174	0.385728
N155	N	0.500101	0.042826	0.635728
N156	N	0.750101	0.292826	0.885728
N157	N	0.000101	-0.416105	0.196276
N158	N	0.250101	-0.166105	0.446276
N159	N	0.500101	0.083895	0.696276
N160	N	0.750101	0.333895	0.946276
C161	C	0.000118	-0.080200	0.169277
C162	C	0.250118	0.169800	0.419277
C163	C	0.500118	0.419800	0.669277
C164	C	0.750118	0.669800	0.919277
C165	C	0.000112	-0.167685	0.176304
C166	C	0.250112	0.082315	0.426304
C167	C	0.500112	0.332315	0.676304
C168	C	0.750112	0.582315	0.926304
C169	C	0.000120	-0.994158	-0.111029
C170	C	0.250120	-0.744158	0.138971
C171	C	0.500120	-0.494158	0.388971
C172	C	0.750120	-0.244158	0.638971
C173	C	0.000112	-0.987549	-0.193231
C174	C	0.250112	-0.737549	0.056769
C175	C	0.500112	-0.487549	0.306769
C176	C	0.750112	-0.237549	0.556769
C177	C	0.000100	-0.913122	-0.229440
C178	C	0.250100	-0.663122	0.020560
C179	C	0.500100	-0.413122	0.270560
C180	C	0.750100	-0.163122	0.520560
C181	C	0.000088	-0.845299	-0.183443
C182	C	0.250088	-0.595299	0.066557
C183	C	0.500088	-0.345299	0.316557
C184	C	0.750088	-0.095299	0.566557
C185	C	0.000091	-0.851909	-0.101244
C186	C	0.250091	-0.601909	0.148756
C187	C	0.500091	-0.351909	0.398756
C188	C	0.750091	-0.101909	0.648756
C189	C	0.000085	-0.885728	-0.474755
C190	C	0.250085	-0.635728	-0.224755
C191	C	0.500085	-0.385728	0.025245
C192	C	0.750085	-0.135728	0.275245
C193	C	0.000085	-0.879123	-0.556960
C194	C	0.250085	-0.629123	-0.306960
C195	C	0.500085	-0.379123	-0.056960
C196	C	0.750085	-0.129123	0.193040
C197	C	0.000107	-1.021374	-0.566742
C198	C	0.250107	-0.771374	-0.316742
C199	C	0.500107	-0.521374	-0.066742
C200	C	0.750107	-0.271374	0.183258
C201	C	0.000115	-1.027977	-0.484540
C202	C	0.250115	-0.777977	-0.234540
C203	C	0.500115	-0.527977	0.015460
C204	C	0.750115	-0.277977	0.265460
C205	C	0.000098	-0.960154	-0.438551
C206	C	0.250098	-0.710154	-0.188551
C207	C	0.500098	-0.460154	0.061449
C208	C	0.750098	-0.210154	0.311449
N209	N	0.000093	-0.906365	-0.313462
N210	N	0.250093	-0.656365	-0.063462
N211	N	0.500093	-0.406365	0.186538
N212	N	0.750093	-0.156365	0.436538
N213	N	0.000099	-0.966912	-0.354531
N214	N	0.250099	-0.716912	-0.104531
N215	N	0.500099	-0.466912	0.145469
N216	N	0.750099	-0.216912	0.395469
C217	C	0.000098	-0.939912	0.309565
C218	C	0.250098	-0.689912	0.559565
C219	C	0.500098	-0.439912	0.809565
C220	C	0.750098	-0.189912	1.059565
C221	C	0.000094	-0.946941	0.397050
C222	C	0.250094	-0.696941	0.647050
C223	C	0.500094	-0.446941	0.897050
C224	C	0.750094	-0.196941	1.147050
H225	H	0.224567	-1.017604	0.085073
H226	H	0.474567	-0.767604	0.335073
H227	H	0.724567	-0.517604	0.585073
H228	H	0.974567	-0.267604	0.835073
H229	H	0.000122	-0.184198	0.047876
H230	H	0.250122	0.065802	0.297876
H231	H	0.500122	0.315802	0.547876
H232	H	0.750122	0.565802	0.797876
Cl233	Cl	0.402492	-1.031862	0.070833
Cl234	Cl	0.652492	-0.781862	0.320833
Cl235	Cl	0.902492	-0.531862	0.570833
Cl236	Cl	1.152492	-0.281862	0.820833
H237	H	0.383130	-0.828433	0.274110
H238	H	0.633130	-0.578433	0.524110
H239	H	0.883130	-0.328433	0.774110
H240	H	1.133130	-0.078433	1.024110
H241	H	0.224556	-0.835521	0.267009
H242	H	0.474556	-0.585521	0.517009
H243	H	0.724556	-0.335521	0.767009
H244	H	0.974556	-0.085521	1.017009
Cl245	Cl	0.597724	-1.067936	0.034819
Cl246	Cl	0.847724	-0.817936	0.284819
Cl247	Cl	1.097724	-0.567936	0.534819
Cl248	Cl	1.347724	-0.317936	0.784819
Cl249	Cl	0.795012	-1.059118	0.043654
Cl250	Cl	1.045012	-0.809118	0.293654
Cl251	Cl	1.295012	-0.559118	0.543654
Cl252	Cl	1.545012	-0.309118	0.793654
H253	H	0.000095	-0.166440	0.305954
H254	H	0.250095	0.083560	0.555954
H255	H	0.500095	0.333560	0.805954
H256	H	0.750095	0.583560	1.055954
H257	H	0.000118	-1.076591	-0.604195
H258	H	0.250118	-0.826591	-0.354195
H259	H	0.500118	-0.576591	-0.104195
H260	H	0.750118	-0.326591	0.145805
H261	H	0.000066	-0.689081	0.284128
H262	H	0.250066	-0.439081	0.534128
H263	H	0.500066	-0.189081	0.784128
H264	H	0.750066	0.060919	1.034128
H265	H	0.000135	-1.054764	-0.081554
H266	H	0.250135	-0.804764	0.168446
H267	H	0.500135	-0.554764	0.418446
H268	H	0.750135	-0.304764	0.668446
H269	H	0.000123	-0.333316	0.059865
H270	H	0.250123	-0.083316	0.309865
H271	H	0.500123	0.166684	0.559865
H272	H	0.750123	0.416684	0.809865
H273	H	0.000072	-0.830502	-0.437320
H274	H	0.250072	-0.580502	-0.187320
H275	H	0.500072	-0.330502	0.062680
H276	H	0.750072	-0.080502	0.312680
H277	H	0.000088	-0.818512	-0.586438
H278	H	0.250088	-0.568512	-0.336438
H279	H	0.500088	-0.318512	-0.086438
H280	H	0.750088	-0.068512	0.163562
Cl281	Cl	0.000063	-0.751734	-0.228964
Cl282	Cl	0.250063	-0.501734	0.021036
Cl283	Cl	0.500063	-0.251734	0.271036
Cl284	Cl	0.750063	-0.001734	0.521036
H285	H	0.000121	-1.042773	-0.230673
H286	H	0.250121	-0.792773	0.019327
H287	H	0.500121	-0.542773	0.269327
H288	H	0.750121	-0.292773	0.519327
Cl289	Cl	0.000075	-0.519591	0.302174
Cl290	Cl	0.250075	-0.269591	0.552174
Cl291	Cl	0.500075	-0.019591	0.802174
Cl292	Cl	0.750075	0.230409	1.052174
H293	H	0.000124	-1.088583	-0.455065
H294	H	0.250124	-0.838583	-0.205065
H295	H	0.500124	-0.588583	0.044935
H296	H	0.750124	-0.338583	0.294935
H297	H	0.775647	-0.855683	0.246940
H298	H	1.025647	-0.605683	0.496940
H299	H	1.275647	-0.355683	0.746940
H300	H	1.525647	-0.105683	0.996940
Cl301	Cl	0.597725	-0.841410	0.261168
Cl302	Cl	0.847725	-0.591410	0.511168
Cl303	Cl	1.097725	-0.341410	0.761168
Cl304	Cl	1.347725	-0.091410	1.011168
H305	H	0.000083	-0.796684	-0.063799
H306	H	0.250083	-0.546684	0.186201
H307	H	0.500083	-0.296684	0.436201
H308	H	0.750083	-0.046684	0.686201
Cl309	Cl	0.000076	-0.331608	0.350910
Cl310	Cl	0.250076	-0.081608	0.600910
Cl311	Cl	0.500076	0.168392	0.850910
Cl312	Cl	0.750076	0.418392	1.100910
H313	H	0.000119	-0.557705	0.014063
H314	H	0.250119	-0.307705	0.264063
H315	H	0.500119	-0.057705	0.514063
H316	H	0.750119	0.192295	0.764063
Cl317	Cl	0.000104	-0.727210	-0.003988
Cl318	Cl	0.250104	-0.477210	0.246012
Cl319	Cl	0.500104	-0.227210	0.496012
Cl320	Cl	0.750104	0.022790	0.746012
