data_functionalizedCrystal
_audit_creation_method	'MofGen! by Chris Wilmer'
_symmetry_space_group_name_H-M	'P1'
_symmetry_Int_Tables_number	1
_symmetry_cell_setting	triclinic
loop_
_symmetry_equiv_pos_as_xyz
  x,y,z
_cell_length_a	16.625547
_cell_length_b	16.120256
_cell_length_c	16.625546
_cell_angle_alpha	92.872129
_cell_angle_beta	90.022405
_cell_angle_gamma	92.874068
loop_
_atom_site_label
_atom_site_type_symbol
_atom_site_fract_x
_atom_site_fract_y
_atom_site_fract_z
Zn1	Zn	1.209553	-0.471468	-0.344158
Zn2	Zn	1.709553	0.028532	0.155842
Zn3	Zn	1.216295	-0.332053	-0.472154
Zn4	Zn	1.716295	0.167947	0.027846
Zn5	Zn	1.081553	-0.332062	-0.337339
Zn6	Zn	1.581553	0.167938	0.162661
Zn7	Zn	1.074688	-0.471408	-0.478950
Zn8	Zn	1.574688	0.028592	0.021050
O9	O	1.145522	-0.401748	-0.408150
O10	O	1.645522	0.098252	0.091850
O11	O	1.323278	-0.452996	-0.361147
O12	O	1.823278	0.047004	0.138853
O13	O	1.204116	-0.215392	-0.448573
O14	O	1.704116	0.284608	0.051427
O15	O	1.098584	-0.350583	-0.225413
O16	O	1.598584	0.149417	0.274587
O17	O	1.328232	-0.350569	-0.455185
O18	O	1.828232	0.149431	0.044815
O19	O	1.192625	-0.453004	-0.230423
O20	O	1.692625	0.046996	0.269577
O21	O	1.105122	-0.215398	-0.349525
O22	O	1.605122	0.284602	0.150475
O23	O	0.967811	-0.350525	-0.356114
O24	O	1.467811	0.149475	0.143886
O25	O	1.086883	-0.588079	-0.466767
O26	O	1.586883	-0.088079	0.033233
O27	O	0.962767	-0.452902	-0.460155
O28	O	1.462767	0.047098	0.039845
O29	O	1.185968	-0.588123	-0.367737
O30	O	1.685968	-0.088123	0.132263
O31	O	1.197459	-0.350511	-0.585886
O32	O	1.697459	0.149489	-0.085886
O33	O	1.093421	-0.452894	-0.590879
O34	O	1.593421	0.047106	-0.090879
C35	C	0.936033	-0.401709	-0.408133
C36	C	1.436033	0.098291	0.091867
C37	C	0.846412	-0.401712	-0.408146
C38	C	1.346412	0.098288	0.091854
C39	C	0.773629	-0.401722	-0.408148
C40	C	1.273629	0.098278	0.091852
C41	C	0.682319	-0.401743	-0.408153
C42	C	1.182319	0.098257	0.091847
C43	C	0.609542	-0.401764	-0.408161
C44	C	1.109542	0.098236	0.091839
C45	C	0.518227	-0.401784	-0.408168
C46	C	1.018227	0.098216	0.091832
C47	C	1.134907	-0.619196	-0.418771
C48	C	1.634907	-0.119196	0.081229
C49	C	1.130384	-0.711860	-0.423296
C50	C	1.630384	-0.211860	0.076704
C51	C	1.169109	-0.922826	-0.384529
C52	C	1.669109	-0.422826	0.115471
C53	C	1.122099	-0.881512	-0.431526
C54	C	1.622099	-0.381512	0.068474
C55	C	1.126710	-0.787109	-0.426945
C56	C	1.626710	-0.287109	0.073055
C57	C	1.164499	-1.017237	-0.389108
C58	C	1.664499	-0.517237	0.110892
C59	C	1.355829	-0.401788	-0.408169
C60	C	1.855829	0.098212	0.091831
C61	C	1.445449	-0.401805	-0.408176
C62	C	1.945449	0.098195	0.091824
C63	C	1.145447	-0.401713	-0.617639
C64	C	1.645447	0.098287	-0.117639
C65	C	1.145488	-0.401726	-0.707261
C66	C	1.645488	0.098274	-0.207261
C67	C	1.156142	-0.185146	-0.397513
C68	C	1.656142	0.314854	0.102487
C69	C	1.160821	-0.092483	-0.392760
C70	C	1.660821	0.407517	0.107240
C71	C	1.145624	-0.401813	-1.035441
C72	C	1.645624	0.098187	-0.535441
C73	C	1.145584	-0.401791	-0.944131
C74	C	1.645584	0.098209	-0.444131
C75	C	1.145555	-0.401769	-0.871354
C76	C	1.645555	0.098231	-0.371354
C77	C	1.145516	-0.401748	-0.780039
C78	C	1.645516	0.098252	-0.280039
C79	C	1.145618	-0.401801	-0.197844
C80	C	1.645618	0.098199	0.302156
C81	C	1.145659	-0.401824	-0.108224
C82	C	1.645659	0.098176	0.391776
H83	H	1.078384	-0.917041	-0.475196
H84	H	1.578384	-0.417041	0.024804
C85	C	1.228159	-0.874829	-0.325533
C86	C	1.728159	-0.374829	0.174467
N87	N	1.272638	-0.838669	-0.281100
N88	N	1.772638	-0.338669	0.218900
