data_functionalizedCrystal
_audit_creation_method	'MofGen! by Chris Wilmer'
_symmetry_space_group_name_H-M	'P1'
_symmetry_Int_Tables_number	1
_symmetry_cell_setting	triclinic
loop_
_symmetry_equiv_pos_as_xyz
  x,y,z
_cell_length_a	16.120444
_cell_length_b	16.120542
_cell_length_c	16.120297
_cell_angle_alpha	89.872913
_cell_angle_beta	95.615117
_cell_angle_gamma	89.835691
loop_
_atom_site_label
_atom_site_type_symbol
_atom_site_fract_x
_atom_site_fract_y
_atom_site_fract_z
Zn1	Zn	-0.422357	-1.224978	-0.554850
Zn2	Zn	0.077643	-0.724978	-0.054850
Zn3	Zn	-0.555041	-1.224871	-0.422156
Zn4	Zn	-0.055041	-0.724871	0.077844
Zn5	Zn	-0.408262	-1.093718	-0.408089
Zn6	Zn	0.091738	-0.593718	0.091911
Zn7	Zn	-0.554263	-1.078868	-0.554085
Zn8	Zn	-0.054263	-0.578868	-0.054085
O9	O	-0.484981	-1.155609	-0.484795
O10	O	0.015019	-0.655609	0.015205
O11	O	-0.446182	-1.340999	-0.543455
O12	O	0.053818	-0.840999	-0.043455
O13	O	-0.529998	-1.213643	-0.303658
O14	O	-0.029998	-0.713643	0.196342
O15	O	-0.293501	-1.117389	-0.421990
O16	O	0.206499	-0.617389	0.078010
O17	O	-0.543664	-1.340921	-0.445966
O18	O	-0.043664	-0.840921	0.054034
O19	O	-0.303856	-1.213825	-0.529814
O20	O	0.196144	-0.713825	-0.029814
O21	O	-0.422160	-1.117285	-0.293322
O22	O	0.077840	-0.617285	0.206678
O23	O	-0.421406	-0.975712	-0.421248
O24	O	0.078594	-0.475712	0.078752
O25	O	-0.542338	-1.092080	-0.670819
O26	O	-0.042338	-0.592080	-0.170819
O27	O	-0.528671	-0.964803	-0.528511
O28	O	-0.028671	-0.464803	-0.028511
O29	O	-0.445427	-1.199427	-0.671381
O30	O	0.054573	-0.699427	-0.171381
O31	O	-0.671568	-1.199244	-0.445224
O32	O	-0.171568	-0.699244	0.054776
O33	O	-0.670997	-1.091977	-0.542152
O34	O	-0.170997	-0.591977	-0.042152
C35	C	-0.473425	-0.940171	-0.473271
C36	C	0.026575	-0.440171	0.026729
C37	C	-0.468503	-0.848003	-0.468361
C38	C	0.031497	-0.348003	0.031639
C39	C	-0.510488	-0.632809	-0.510215
C40	C	-0.010488	-0.132809	-0.010215
C41	C	-0.459523	-0.679257	-0.459397
C42	C	0.040477	-0.179257	0.040603
C43	C	-0.464521	-0.773156	-0.464386
C44	C	0.035479	-0.273156	0.035614
C45	C	-0.505492	-0.538901	-0.505227
C46	C	-0.005492	-0.038901	-0.005227
C47	C	-0.701526	-1.144009	-0.495151
C48	C	-0.201526	-0.644009	0.004849
C49	C	-0.794170	-1.139121	-0.499613
C50	C	-0.294170	-0.639121	0.000387
C51	C	-1.005331	-1.181159	-0.461837
C52	C	-0.505331	-0.681159	0.038163
C53	C	-0.963788	-1.130212	-0.507769
C54	C	-0.463788	-0.630212	-0.007769
C55	C	-0.869403	-1.135170	-0.503230
C56	C	-0.369403	-0.635170	-0.003230
C57	C	-1.099724	-1.176202	-0.466376
C58	C	-0.599724	-0.676202	0.033624
C59	C	-0.267592	-1.167275	-0.474418
C60	C	0.232408	-0.667275	0.025582
C61	C	-0.174954	-1.172247	-0.469996
C62	C	0.325046	-0.672247	0.030004
C63	C	-0.495368	-1.144109	-0.702187
C64	C	0.004632	-0.644109	-0.202187
C65	C	-0.499794	-1.139209	-0.794827
C66	C	0.000206	-0.639209	-0.294827
C67	C	-0.496577	-0.371889	-0.496353
C68	C	0.003423	0.128111	0.003647
C69	C	-0.501506	-0.464057	-0.501248
C70	C	-0.001506	0.035943	-0.001248
C71	C	-0.507855	-1.130232	-0.964438
C72	C	-0.007855	-0.630232	-0.464438
C73	C	-0.461865	-1.181162	-1.006001
C74	C	0.038135	-0.681162	-0.506001
C75	C	-0.466351	-1.176168	-1.100378
C76	C	0.033649	-0.676168	-0.600378
C77	C	-0.503371	-1.135226	-0.870052
C78	C	-0.003371	-0.635226	-0.370052
C79	C	-0.474577	-1.167115	-0.268248
C80	C	0.025423	-0.667115	0.231752
C81	C	-0.469924	-1.172188	-0.175607
C82	C	0.030076	-0.672188	0.324393
H83	H	-0.999106	-1.082870	-0.550502
H84	H	-0.499106	-0.582870	-0.050502
C85	C	-0.983791	-1.325139	-0.427566
C86	C	-0.483791	-0.825139	0.072434
C87	C	-0.957660	-1.245060	-0.404144
C88	C	-0.457660	-0.745060	0.095856
H89	H	-0.954349	-1.364584	-0.391949
H90	H	-0.454349	-0.864584	0.108051
H91	H	-1.041876	-1.330148	-0.423083
H92	H	-0.541876	-0.830148	0.076917
H93	H	-0.972857	-1.334997	-0.483550
H94	H	-0.472857	-0.834997	0.016450
H95	H	-0.968600	-1.235199	-0.348162
H96	H	-0.468600	-0.735199	0.151838
H97	H	-0.899561	-1.240048	-0.408620
H98	H	-0.399561	-0.740048	0.091380
H99	H	-0.550594	-1.082883	-0.999732
H100	H	-0.050594	-0.582883	-0.499732
H101	H	-0.557871	-0.663562	-0.557464
H102	H	-0.057871	-0.163562	-0.057464
C103	C	-0.402967	-0.551411	-0.402899
C104	C	0.097033	-0.051411	0.097101
C105	C	-0.395585	-0.637745	-0.395572
C106	C	0.104415	-0.137745	0.104428
H107	H	-0.363508	-0.525782	-0.363484
H108	H	0.136492	-0.025782	0.136516
H109	H	-0.392759	-0.534952	-0.457583
H110	H	0.107241	-0.034952	0.042417
H111	H	-0.457640	-0.534947	-0.392584
H112	H	0.042360	-0.034947	0.107416
H113	H	-0.340913	-0.654209	-0.405893
H114	H	0.159087	-0.154209	0.094107
H115	H	-0.405786	-0.654210	-0.340875
H116	H	0.094214	-0.154210	0.159125
H117	H	-0.419123	-1.228515	-0.970704
H118	H	0.080877	-0.728515	-0.470704
