data_functionalizedCrystal
_audit_creation_method	'MofGen! by Chris Wilmer'
_symmetry_space_group_name_H-M	'P1'
_symmetry_Int_Tables_number	1
_symmetry_cell_setting	triclinic
loop_
_symmetry_equiv_pos_as_xyz
  x,y,z
_cell_length_a	16.625546
_cell_length_b	11.169417
_cell_length_c	11.169409
_cell_angle_alpha	90.021649
_cell_angle_beta	89.961577
_cell_angle_gamma	89.979310
loop_
_atom_site_label
_atom_site_type_symbol
_atom_site_fract_x
_atom_site_fract_y
_atom_site_fract_z
Zn1	Zn	-0.320975	-1.834861	-0.678550
Zn2	Zn	0.012359	-1.501528	-0.345217
Zn3	Zn	0.345692	-1.168195	-0.011884
Zn4	Zn	-0.455837	-1.834708	-0.477846
Zn5	Zn	-0.122503	-1.501375	-0.144513
Zn6	Zn	0.210830	-1.168041	0.188821
Zn7	Zn	-0.321017	-1.634147	-0.477878
Zn8	Zn	0.012316	-1.300814	-0.144545
Zn9	Zn	0.345649	-0.967480	0.188788
Zn10	Zn	-0.455765	-1.634112	-0.678484
Zn11	Zn	-0.122431	-1.300779	-0.345151
Zn12	Zn	0.210902	-0.967445	-0.011818
O13	O	-0.388398	-1.734457	-0.578190
O14	O	-0.055065	-1.401124	-0.244856
O15	O	0.278268	-1.067790	0.088477
O16	O	-0.338876	-2.002791	-0.651940
O17	O	-0.005543	-1.669457	-0.318607
O18	O	0.327790	-1.336124	0.014726
O19	O	-0.438001	-1.808054	-0.309900
O20	O	-0.104667	-1.474720	0.023433
O21	O	0.228666	-1.141387	0.356766
O22	O	-0.208179	-1.660851	-0.504539
O23	O	0.125154	-1.327518	-0.171206
O24	O	0.458487	-0.994184	0.162128
O25	O	-0.437959	-2.002678	-0.504484
O26	O	-0.104626	-1.669345	-0.171150
O27	O	0.228708	-1.336011	0.162183
O28	O	-0.208148	-1.808315	-0.651972
O29	O	0.125185	-1.474981	-0.318639
O30	O	0.458519	-1.141648	0.014695
O31	O	-0.338950	-1.660702	-0.309924
O32	O	-0.005616	-1.327369	0.023409
O33	O	0.327717	-0.994036	0.356742
O34	O	-0.338880	-1.466193	-0.504475
O35	O	-0.005547	-1.132859	-0.171142
O36	O	0.327787	-0.799526	0.162192
O37	O	-0.437836	-1.660791	-0.846443
O38	O	-0.104503	-1.327458	-0.513110
O39	O	0.228830	-0.994125	-0.179776
O40	O	-0.437878	-1.466167	-0.651860
O41	O	-0.104545	-1.132834	-0.318526
O42	O	0.228789	-0.799500	0.014807
O43	O	-0.338807	-1.808281	-0.846491
O44	O	-0.005473	-1.474947	-0.513158
O45	O	0.327860	-1.141614	-0.179825
O46	O	-0.568659	-1.808020	-0.504420
O47	O	-0.235326	-1.474687	-0.171087
O48	O	0.098007	-1.141353	0.162247
O49	O	-0.568607	-1.660643	-0.651828
O50	O	-0.235273	-1.327310	-0.318495
O51	O	0.098060	-0.993976	0.014839
C52	C	-0.388376	-1.422632	-0.578164
C53	C	-0.055043	-1.089299	-0.244831
C54	C	0.278290	-0.755966	0.088502
C55	C	-0.388386	-1.289232	-0.578182
C56	C	-0.055053	-0.955899	-0.244849
C57	C	0.278280	-0.622566	0.088485
C58	C	-0.597889	-1.734343	-0.578140
C59	C	-0.264556	-1.401010	-0.244806
C60	C	0.068777	-1.067677	0.088527
C61	C	-0.687510	-1.734405	-0.578158
C62	C	-0.354177	-1.401071	-0.244825
C63	C	-0.020844	-1.067738	0.088509
C64	C	-1.015686	-1.734614	-0.578283
C65	C	-0.682353	-1.401281	-0.244950
C66	C	-0.349019	-1.067947	0.088384
C67	C	-0.924377	-1.734552	-0.578252
C68	C	-0.591044	-1.401219	-0.244918
C69	C	-0.257711	-1.067885	0.088415
C70	C	-0.851601	-1.734508	-0.578220
C71	C	-0.518268	-1.401175	-0.244887
C72	C	-0.184934	-1.067842	0.088447
C73	C	-0.760287	-1.734448	-0.578190
C74	C	-0.426953	-1.401115	-0.244856
C75	C	-0.093620	-1.067782	0.088477
C76	C	-0.178089	-1.734604	-0.578266
C77	C	0.155244	-1.401270	-0.244933
C78	C	0.488577	-1.067937	0.088400
C79	C	-0.088468	-1.734666	-0.578299
C80	C	0.244865	-1.401333	-0.244966
C81	C	0.578198	-1.068000	0.088368
C82	C	-0.388309	-1.734549	-0.891232
C83	C	-0.054975	-1.401216	-0.557899
C84	C	0.278358	-1.067883	-0.224566
C85	C	-0.388271	-1.734589	-1.024632
C86	C	-0.054937	-1.401255	-0.691299
C87	C	0.278396	-1.067922	-0.357966
C88	C	-0.388413	-1.047499	-0.578208
C89	C	-0.055080	-0.714166	-0.244875
C90	C	0.278254	-0.380833	0.088459
C91	C	-0.388399	-1.180899	-0.578195
C92	C	-0.055066	-0.847566	-0.244862
C93	C	0.278267	-0.514233	0.088471
C94	C	-0.388429	-1.734434	-0.266365
C95	C	-0.055096	-1.401101	0.066968
C96	C	0.278237	-1.067768	0.400302
C97	C	-0.388240	-1.734628	-0.132966
C98	C	-0.054907	-1.401294	0.200368
C99	C	0.278426	-1.067961	0.533701
