data_functionalizedCrystal
_audit_creation_method	'MofGen! by Chris Wilmer'
_symmetry_space_group_name_H-M	'P1'
_symmetry_Int_Tables_number	1
_symmetry_cell_setting	triclinic
loop_
_symmetry_equiv_pos_as_xyz
  x,y,z
_cell_length_a	33.592126
_cell_length_b	33.591377
_cell_length_c	33.588093
_cell_angle_alpha	60.004089
_cell_angle_beta	60.008299
_cell_angle_gamma	59.994549
loop_
_atom_site_label
_atom_site_type_symbol
_atom_site_fract_x
_atom_site_fract_y
_atom_site_fract_z
O1	O	0.055297	-0.581666	0.486338
O2	O	0.020882	-0.452873	0.391864
O3	O	0.102445	-0.534352	0.391775
O4	O	-0.026266	-0.500187	0.486427
O5	O	0.129510	-0.507292	0.418747
O6	O	0.047947	-0.425814	0.418835
O7	O	0.082362	-0.554606	0.513309
Cu8	Cu	0.067626	-0.487739	0.468535
Cu9	Cu	0.035618	-0.519740	0.436638
O10	O	0.000799	-0.473128	0.513398
N11	N	0.090139	-0.465235	0.490972
N12	N	0.013110	-0.542249	0.414202
C13	C	0.124394	-0.431229	0.734914
C14	C	0.334265	-0.431145	0.524799
C15	C	0.124204	-0.431200	0.524965
C16	C	0.124184	-0.221175	0.524955
C17	C	0.158017	-0.322536	0.558710
C18	C	0.158027	-0.397406	0.558711
C19	C	0.176763	-0.378688	0.577408
C20	C	0.258412	-0.364594	0.534386
C21	C	0.309454	-0.381596	0.517340
C22	C	0.309485	-0.464188	0.548836
C23	C	0.258444	-0.447186	0.565883
C24	C	0.170304	-0.297002	0.508532
C25	C	0.153260	-0.245956	0.491537
C26	C	0.111648	-0.245983	0.574901
C27	C	0.128691	-0.297029	0.591896
C28	C	0.107841	-0.385091	0.571080
C29	C	0.090813	-0.402108	0.554078
C30	C	0.174153	-0.443755	0.512351
C31	C	0.191183	-0.426739	0.529347
C32	C	0.107923	-0.385106	0.659111
C33	C	0.090955	-0.402138	0.710156
C34	C	0.174335	-0.443795	0.710087
C35	C	0.191302	-0.426764	0.659041
C36	C	0.158095	-0.397418	0.633555
C37	C	0.232909	-0.397388	0.558656
C38	C	0.105069	-0.449619	0.791057
C39	C	0.390406	-0.449193	0.505789
C40	C	0.104813	-0.449599	0.506607
C41	C	0.105125	-0.165028	0.506915
C42	C	-0.020560	-0.576246	0.169890
C43	C	-0.020889	-0.786183	0.379970
C44	C	-0.020859	-0.576235	0.380063
C45	C	-0.230772	-0.576015	0.379658
C46	C	-0.129417	-0.609898	0.346025
C47	C	-0.054587	-0.609979	0.346172
C48	C	-0.073269	-0.628671	0.327396
C49	C	-0.087401	-0.710299	0.370335
C50	C	-0.070424	-0.761345	0.387369
C51	C	0.012165	-0.761428	0.356003
C52	C	-0.004813	-0.710383	0.338967
C53	C	-0.155001	-0.622196	0.396191
C54	C	-0.206043	-0.605128	0.413125
C55	C	-0.205914	-0.563467	0.329724
C56	C	-0.154872	-0.580535	0.312790
C57	C	-0.066886	-0.559797	0.333828
C58	C	-0.049903	-0.542809	0.350903
C59	C	-0.008321	-0.626180	0.392654
C60	C	-0.025304	-0.643170	0.375585
C61	C	-0.066758	-0.559805	0.245702
C62	C	-0.049671	-0.542819	0.194658
C63	C	-0.008026	-0.626194	0.194706
C64	C	-0.025111	-0.643179	0.245752
C65	C	-0.054479	-0.609983	0.271248
C66	C	-0.054597	-0.684821	0.346135
C67	C	-0.002109	-0.556901	0.113746
C68	C	-0.002869	-0.842328	0.398966
C69	C	-0.002496	-0.556887	0.398501
C70	C	-0.286914	-0.556929	0.397631
N71	N	0.436349	-0.465146	0.490703
O72	O	0.592194	-0.469605	0.374236
O73	O	0.592389	-0.564393	0.502890
O74	O	0.592305	-0.564176	0.421300
O75	O	0.592277	-0.469822	0.455826
O76	O	0.511216	-0.537214	0.448415
O77	O	0.511300	-0.537431	0.530004
O78	O	0.511104	-0.442643	0.401350
Cu79	Cu	0.503798	-0.487575	0.468153
Cu80	Cu	0.599695	-0.519461	0.436087
O81	O	0.511188	-0.442860	0.482940
N82	N	0.667145	-0.541890	0.413532
N83	N	0.090108	-0.119085	0.490958
O84	O	-0.026275	0.036848	0.486394
O85	O	0.102381	0.036888	0.391584
O86	O	0.020751	0.036852	0.391854
O87	O	0.055356	0.036884	0.486124
O88	O	0.047821	-0.044242	0.418876
O89	O	0.129452	-0.044207	0.418606
O90	O	0.000796	-0.044246	0.513417
Cu91	Cu	0.067596	-0.051631	0.468479
Cu92	Cu	0.035582	0.044273	0.436522
O93	O	0.082426	-0.044211	0.513146
N94	N	0.013063	0.111726	0.414043
N95	N	0.090453	-0.465282	0.837001
O96	O	0.085913	-0.581648	0.992925
O97	O	-0.008857	-0.452947	0.992970
O98	O	-0.008635	-0.534562	0.992946
O99	O	0.085691	-0.500033	0.992949
O100	O	0.018365	-0.507512	0.911855
O101	O	0.018143	-0.425898	0.911878
O102	O	0.112912	-0.554598	0.911834
Cu103	Cu	0.067993	-0.487778	0.904452
Cu104	Cu	0.036063	-0.519767	1.000352
O105	O	0.112691	-0.472984	0.911857
N106	N	0.013602	-0.542269	1.067803
C107	C	0.031188	-0.423114	0.392334
C108	C	0.132194	-0.524016	0.392223
C109	C	0.072056	-0.584366	0.512840
C110	C	-0.028950	-0.483464	0.512950
C111	C	0.551868	-0.563965	0.532655
C112	C	0.551766	-0.563697	0.431617
C113	C	0.551623	-0.443070	0.371586
C114	C	0.551728	-0.443339	0.472623
C115	C	0.132090	-0.003555	0.392006
C116	C	0.031035	-0.003698	0.392374
C117	C	-0.028947	-0.003703	0.512961
C118	C	0.072143	-0.003661	0.512626
C119	C	-0.008408	-0.423209	0.952430
C120	C	-0.008128	-0.524272	0.952385
C121	C	0.112464	-0.584336	0.952374
C122	C	0.112190	-0.483267	0.952401
H123	H	0.080878	-0.361206	0.638363
O124	O	0.551848	-0.599456	0.576755
C125	C	0.509957	-0.652849	0.648312
C126	C	0.509911	-0.612648	0.598386
H127	H	0.476060	-0.663535	0.665811
H128	H	0.509941	-0.638734	0.672928
H129	H	0.543930	-0.686068	0.643142
H130	H	0.475944	-0.579416	0.603510
H131	H	0.509953	-0.626803	0.573787
O132	O	0.176259	-0.532623	0.356702
C133	C	0.226273	-0.500502	0.274503
C134	C	0.176345	-0.490693	0.314684
H135	H	0.226363	-0.466605	0.240526
H136	H	0.233398	-0.532380	0.265310
H137	H	0.256038	-0.509777	0.287943
H138	H	0.146548	-0.481397	0.301278
H139	H	0.169262	-0.458828	0.323871
O140	O	0.147533	-0.474507	0.952479
C141	C	0.200769	-0.497979	0.994455
C142	C	0.160737	-0.507944	0.994433
H143	H	0.211464	-0.525013	1.028366
H144	H	0.186486	-0.459248	0.994497
H145	H	0.234020	-0.502317	0.960494
H146	H	0.127472	-0.503633	1.028388
H147	H	0.175059	-0.546671	0.994366
O148	O	0.080898	-0.628537	0.548180
C149	C	0.138777	-0.708791	0.570601
C150	C	0.128825	-0.658794	0.530532
H151	H	0.177528	-0.733265	0.556351
H152	H	0.111791	-0.726402	0.581274
H153	H	0.134387	-0.703707	0.603859
H154	H	0.133221	-0.663836	0.497248
H155	H	0.155809	-0.641200	0.519900
H156	H	0.551722	-0.413701	0.480010
H157	H	-0.065919	-0.476185	0.542670
H158	H	0.551779	-0.593338	0.424228
H159	H	0.551560	-0.413310	0.334638
O160	O	0.176096	-0.003249	0.356452
C161	C	0.256295	-0.002847	0.333617
C162	C	0.206477	-0.003182	0.373920
H163	H	0.280875	-0.002804	0.347729
H164	H	0.250982	0.031174	0.300474
H165	H	0.273918	-0.036702	0.322819
H166	H	0.188826	0.030649	0.384759
H167	H	0.211821	-0.037225	0.407037
O168	O	0.022212	-0.003805	0.357083
C169	C	0.000723	-0.045848	0.333872
C170	C	0.010708	-0.045787	0.373877
H171	H	-0.008590	-0.079782	0.347439
H172	H	0.034528	-0.045876	0.299807
H173	H	-0.031196	-0.011907	0.324764
H174	H	0.042611	-0.079722	0.383026
H175	H	-0.023122	-0.045734	0.407916
O176	O	0.042199	-0.390105	0.734901
C177	C	-0.038710	-0.347003	0.729576
C178	C	0.016491	-0.360583	0.701491
H179	H	-0.059511	-0.323141	0.702577
H180	H	-0.048765	-0.326197	0.753460
H181	H	-0.048721	-0.381653	0.753491
H182	H	0.026541	-0.325958	0.677550
H183	H	0.026516	-0.381408	0.677638
H184	H	-0.065895	-0.003715	0.542725
H185	H	0.079554	-0.003651	0.542242
O186	O	-0.043859	-0.379094	0.952467
C187	C	-0.066521	-0.298760	0.952460
C188	C	-0.026334	-0.348701	0.952430
H189	H	-0.052364	-0.274170	0.952421
H190	H	-0.099767	-0.303858	0.986409
H191	H	-0.077174	-0.281270	0.918536
H192	H	-0.015639	-0.366219	0.986332
H193	H	0.006886	-0.343571	0.918459
H194	H	-0.037749	-0.531650	0.952352
O195	O	0.147946	-0.628428	0.952292
C196	C	0.199513	-0.687129	0.910237
C197	C	0.159320	-0.637193	0.910276
H198	H	0.208729	-0.694226	0.876266
H199	H	0.186127	-0.716931	0.944144
H200	H	0.233466	-0.687182	0.910258
H201	H	0.125353	-0.637092	0.910239
H202	H	0.172746	-0.607412	0.876372
O203	O	0.206613	-0.472362	0.734818
C204	C	0.272719	-0.547459	0.750349
C205	C	0.236181	-0.515160	0.722319
H206	H	0.296641	-0.582064	0.740246
H207	H	0.252003	-0.557560	0.791227
H208	H	0.296585	-0.526645	0.740298
H209	H	0.212306	-0.535945	0.732329
H210	H	0.256927	-0.505058	0.681448
O211	O	0.075567	-0.356584	0.599579
C212	C	-0.008895	-0.317092	0.639197
C213	C	0.027602	-0.349370	0.606906
H214	H	-0.047682	-0.311259	0.645139
H215	H	-0.003069	-0.280351	0.620503
H216	H	-0.002949	-0.335803	0.675886
H217	H	0.021678	-0.330702	0.570211
H218	H	0.021767	-0.386110	0.625638
H219	H	0.049948	-0.392069	0.564138
O220	O	0.206388	-0.472174	0.483757
C221	C	0.272405	-0.478662	0.408614
C222	C	0.235913	-0.446426	0.440947
H223	H	0.296293	-0.457861	0.373999
H224	H	0.251652	-0.488705	0.398537
H225	H	0.296311	-0.513304	0.429390
H226	H	0.211998	-0.411764	0.420200
H227	H	0.256697	-0.436422	0.451026
O228	O	0.233744	-0.479106	0.589429
C229	C	0.239164	-0.562825	0.618891
C230	C	0.267196	-0.526727	0.592207
H231	H	0.266197	-0.601336	0.621155
H232	H	0.215255	-0.552619	0.598045
H233	H	0.215282	-0.561245	0.657264
H234	H	0.291104	-0.528288	0.553834
H235	H	0.291075	-0.536945	0.613091
H236	H	0.330277	-0.504737	0.554712
O237	O	0.334154	-0.349672	0.493754
C238	C	0.328738	-0.265961	0.464335
C239	C	0.300704	-0.302060	0.491045
H240	H	0.301707	-0.227460	0.462145
H241	H	0.352595	-0.267477	0.425938
H242	H	0.352673	-0.276229	0.485182
H243	H	0.276743	-0.291817	0.470239
H244	H	0.276878	-0.300538	0.529444
O245	O	-0.230824	-0.617140	0.461875
C246	C	-0.225568	-0.660248	0.542813
C247	C	-0.197445	-0.646687	0.487618
H248	H	-0.198594	-0.684130	0.563642
H249	H	-0.249456	-0.681028	0.552833
H250	H	-0.249480	-0.625592	0.552824
H251	H	-0.173507	-0.681318	0.477568
H252	H	-0.173589	-0.625889	0.477627
H253	H	0.232159	-0.436796	0.638236
O254	O	-0.130036	-0.568651	0.264052
C255	C	-0.114332	-0.572535	0.187566
C256	C	-0.142479	-0.586035	0.242756
H257	H	-0.124389	-0.586575	0.170330
H258	H	-0.073473	-0.589793	0.181145
H259	H	-0.124322	-0.531207	0.170360
H260	H	-0.132530	-0.627357	0.259999
H261	H	-0.183331	-0.568743	0.249143
O262	O	0.233556	-0.316241	0.527452
C263	C	0.175968	-0.254484	0.565079
C264	C	0.204079	-0.309259	0.573001
H265	H	0.152137	-0.248820	0.601899
H266	H	0.152011	-0.240098	0.542685
H267	H	0.202976	-0.233975	0.544782
H268	H	0.177106	-0.329807	0.593310
H269	H	0.228043	-0.323607	0.595375
O270	O	0.022470	-0.378958	0.356944
C271	C	0.046012	-0.307281	0.303651
C272	C	0.055931	-0.357273	0.343735
H273	H	0.073065	-0.289739	0.292952
H274	H	0.007292	-0.282748	0.317885
H275	H	0.050355	-0.312365	0.270413
H276	H	0.051614	-0.352236	0.376987
H277	H	0.094646	-0.381789	0.329462
O278	O	0.198765	-0.321705	0.476232
C279	C	0.238253	-0.316290	0.391752
C280	C	0.206009	-0.288254	0.428280
H281	H	0.244129	-0.289257	0.352974
H282	H	0.219559	-0.340182	0.397614
H283	H	0.274974	-0.340192	0.397629
H284	H	0.169282	-0.264325	0.422425
H285	H	0.224741	-0.264392	0.422408
O286	O	0.027047	-0.685609	0.315382
C287	C	0.061212	-0.628012	0.241265
C288	C	0.025121	-0.656045	0.267915
H289	H	0.059660	-0.604094	0.202887
H290	H	0.099724	-0.655030	0.239030
H291	H	0.050945	-0.604131	0.262167
H292	H	0.035343	-0.679926	0.247036
H293	H	-0.013381	-0.629001	0.270155
O294	O	0.165109	-0.221126	0.442796
C295	C	0.135707	-0.163462	0.375258
C296	C	0.122220	-0.191559	0.430460
H297	H	0.101039	-0.139543	0.365268
H298	H	0.159571	-0.190438	0.354433
H299	H	0.156500	-0.139577	0.365211
H300	H	0.101409	-0.215445	0.440551
H301	H	0.098379	-0.164557	0.451254
H302	H	0.087777	-0.225214	0.601924
O303	O	0.116730	-0.321761	0.640658
C304	C	0.073631	-0.316404	0.721552
C305	C	0.087151	-0.288335	0.666344
H306	H	0.049707	-0.289392	0.742335
H307	H	0.108270	-0.340281	0.731600
H308	H	0.052879	-0.340325	0.731591
H309	H	0.107891	-0.264388	0.656265
H310	H	0.052495	-0.264489	0.656325
H311	H	0.232048	-0.436761	0.519270
H312	H	-0.059677	-0.501957	0.173865
H313	H	-0.090673	-0.532769	0.266460
H314	H	0.015526	-0.653210	0.416597
O315	O	0.020506	-0.658507	0.170018
C316	C	0.059973	-0.742999	0.175460
C317	C	0.027666	-0.706456	0.203480
H318	H	0.065764	-0.781773	0.202502
H319	H	0.096730	-0.737201	0.151632
H320	H	0.041314	-0.737070	0.151497
H321	H	0.046283	-0.712362	0.227469
H322	H	-0.009088	-0.712262	0.227278
H323	H	-0.015108	-0.684041	0.266548
H324	H	-0.059919	-0.501948	0.340854
O325	O	-0.095346	-0.527489	0.305282
C326	C	-0.134776	-0.443002	0.265650
C327	C	-0.102552	-0.479538	0.297993
H328	H	-0.140604	-0.404225	0.259738
H329	H	-0.171521	-0.448806	0.284285
H330	H	-0.116028	-0.448931	0.228951
H331	H	-0.121257	-0.473630	0.334698
H332	H	-0.065808	-0.473724	0.279320
H333	H	-0.015291	-0.684031	0.385637
H334	H	0.052703	-0.782242	0.350169
H335	H	-0.127938	-0.689491	0.376175
O336	O	-0.102367	-0.786021	0.410943
C337	C	-0.186091	-0.780554	0.440366
C338	C	-0.149965	-0.752547	0.413633
H339	H	-0.224580	-0.753502	0.442541
H340	H	-0.184581	-0.804398	0.478770
H341	H	-0.175847	-0.804503	0.419546
H342	H	-0.160184	-0.728572	0.434413
H343	H	-0.151481	-0.728734	0.375228
H344	H	-0.134277	-0.646110	0.423254
H345	H	-0.226640	-0.539563	0.302661
