data_functionalizedCrystal
_audit_creation_method	'MofGen! by Chris Wilmer'
_symmetry_space_group_name_H-M	'P1'
_symmetry_Int_Tables_number	1
_symmetry_cell_setting	triclinic
loop_
_symmetry_equiv_pos_as_xyz
  x,y,z
_cell_length_a	8.559649
_cell_length_b	10.723024
_cell_length_c	7.681481
_cell_angle_alpha	95.795663
_cell_angle_beta	85.086760
_cell_angle_gamma	77.123267
loop_
_atom_site_label
_atom_site_type_symbol
_atom_site_fract_x
_atom_site_fract_y
_atom_site_fract_z
O1	O	2.104705	-0.029042	0.146401
O2	O	1.640206	0.035334	0.146409
O3	O	1.883170	-0.179530	0.146398
O4	O	1.861740	0.185821	0.146412
O5	O	1.913074	-0.206029	-0.146461
O6	O	1.670110	0.008834	-0.146450
O7	O	2.134609	-0.055542	-0.146458
Zn8	Zn	1.907107	-0.027561	-0.192952
Zn9	Zn	1.867707	0.007353	0.192903
O10	O	1.891644	0.159322	-0.146447
C11	C	1.595681	0.026963	-0.000019
C12	C	1.418460	0.041484	-0.000016
C13	C	1.896563	-0.239119	-0.000029
C14	C	1.891896	-0.377194	-0.000023
C15	C	2.027846	-0.466115	-0.000023
C16	C	2.023026	-0.608823	-0.000016
C17	C	2.179133	-0.047170	-0.000026
C18	C	2.356353	-0.061691	-0.000018
C19	C	1.878251	0.218911	-0.000016
C20	C	1.882917	0.356988	-0.000011
N21	N	1.934009	-0.051391	-0.456287
N22	N	1.840818	0.031172	0.456238
H23	H	1.438759	-0.161133	-0.000012
O24	O	2.047421	-0.152080	-0.545807
C25	C	2.143895	-0.382878	-0.602636
C26	C	2.015383	-0.268969	-0.501114
H27	H	2.118019	-0.477411	-0.566567
H28	H	2.268323	-0.375839	-0.566434
H29	H	2.140422	-0.379705	-0.750180
H30	H	2.018708	-0.272070	-0.353547
H31	H	1.891014	-0.276049	-0.537462
H32	H	1.336043	0.140934	-0.000003
H33	H	2.147806	-0.436592	-0.000036
O34	O	2.161963	-0.699779	0.000220
C35	C	2.393290	-0.775231	0.151999
C36	C	2.235998	-0.672120	0.151928
H37	H	2.453177	-0.752921	0.274659
H38	H	2.478439	-0.775084	0.029521
H39	H	2.364635	-0.874088	0.151917
H40	H	2.264502	-0.573212	0.152071
H41	H	2.150897	-0.672380	0.274395
H42	H	1.766528	-0.566656	-0.000023
H43	H	1.771936	-0.406717	-0.000009
H44	H	1.745690	0.115444	-0.468561
