data_functionalizedCrystal
_audit_creation_method	'MofGen! by Chris Wilmer'
_symmetry_space_group_name_H-M	'P1'
_symmetry_Int_Tables_number	1
_symmetry_cell_setting	triclinic
loop_
_symmetry_equiv_pos_as_xyz
  x,y,z
_cell_length_a	13.897448
_cell_length_b	13.897449
_cell_length_c	14.908308
_cell_angle_alpha	93.279088
_cell_angle_beta	93.267188
_cell_angle_gamma	90.018972
loop_
_atom_site_label
_atom_site_type_symbol
_atom_site_fract_x
_atom_site_fract_y
_atom_site_fract_z
Zn1	Zn	-0.415437	1.443197	-0.510067
Zn2	Zn	-0.567447	1.452409	-0.359213
Zn3	Zn	-0.406172	1.291203	-0.359229
Zn4	Zn	-0.576693	1.281871	-0.510024
O5	O	-0.491437	1.367170	-0.434633
O6	O	-0.435610	1.579400	-0.490067
O7	O	-0.538306	1.438786	-0.232973
O8	O	-0.272421	1.311416	-0.379262
O9	O	-0.547290	1.586168	-0.379235
O10	O	-0.279228	1.423085	-0.490083
O11	O	-0.419818	1.320348	-0.232985
O12	O	-0.428784	1.154984	-0.379221
O13	O	-0.563049	1.295510	-0.636271
O14	O	-0.554065	1.148128	-0.490010
O15	O	-0.444575	1.414036	-0.636303
O16	O	-0.703653	1.429736	-0.379194
O17	O	-0.710447	1.304442	-0.489994
C18	C	-0.491423	1.116557	-0.434613
C19	C	-0.491442	1.009342	-0.434625
C20	C	-0.491446	0.813046	-0.434649
C21	C	-0.491441	0.922279	-0.434633
C22	C	-0.742050	1.367101	-0.434607
C23	C	-0.849265	1.367158	-0.434626
C24	C	-1.045564	1.367256	-0.434683
C25	C	-0.936329	1.367199	-0.434654
C26	C	-0.239847	1.367264	-0.434679
C27	C	-0.132634	1.367304	-0.434699
C28	C	-0.505877	1.352704	-0.669936
C29	C	-0.512030	1.346540	-0.770207
C30	C	-0.491452	1.618761	-0.434654
C31	C	-0.491459	1.725975	-0.434663
C32	C	-0.400204	1.458375	-0.958663
C33	C	-0.405982	1.452586	-1.052878
C34	C	-0.529360	1.329169	-1.052852
C35	C	-0.523582	1.334958	-0.958638
C36	C	-0.459002	1.399564	-0.911547
C37	C	-0.453230	1.405357	-0.817331
C38	C	-0.576602	1.281936	-0.817307
C39	C	-0.582380	1.276147	-0.911521
C40	C	-0.476984	1.381635	-0.200246
C41	C	-0.470559	1.387986	-0.099975
H42	H	-0.400647	1.457964	-0.778990
H43	H	-0.347626	1.510984	-0.920321
H44	H	-0.358100	1.500473	-1.091236
Cl45	Cl	-0.610531	1.247950	-1.112067
H46	H	-0.634956	1.223545	-0.949875
H47	H	-0.624482	1.234050	-0.778934
