data_functionalizedCrystal
_audit_creation_method	'MofGen! by Chris Wilmer'
_symmetry_space_group_name_H-M	'P1'
_symmetry_Int_Tables_number	1
_symmetry_cell_setting	triclinic
loop_
_symmetry_equiv_pos_as_xyz
  x,y,z
_cell_length_a	19.077105
_cell_length_b	21.295417
_cell_length_c	19.076919
_cell_angle_alpha	87.733380
_cell_angle_beta	89.923776
_cell_angle_gamma	87.726672
loop_
_atom_site_label
_atom_site_type_symbol
_atom_site_fract_x
_atom_site_fract_y
_atom_site_fract_z
Zn1	Zn	1.058236	-0.304534	0.440387
Zn2	Zn	1.558236	0.195466	0.940387
Zn3	Zn	1.062864	-0.405747	0.322870
Zn4	Zn	1.562864	0.094253	0.822870
Zn5	Zn	0.945454	-0.296102	0.318181
Zn6	Zn	1.445454	0.203898	0.818181
Zn7	Zn	0.940686	-0.405368	0.435623
Zn8	Zn	1.440686	0.094632	0.935623
O9	O	1.001810	-0.352938	0.379265
O10	O	1.501810	0.147062	0.879265
O11	O	1.157181	-0.321649	0.428754
O12	O	1.657181	0.178351	0.928754
O13	O	1.051222	-0.387832	0.223917
O14	O	1.551222	0.112168	0.723917
O15	O	0.960474	-0.209134	0.334424
O16	O	1.460474	0.290866	0.834424
O17	O	1.160581	-0.396009	0.342415
O18	O	1.660581	0.103991	0.842415
O19	O	1.043334	-0.215330	0.424208
O20	O	1.543334	0.284670	0.924208
O21	O	0.964962	-0.307276	0.220472
O22	O	1.464962	0.192724	0.720472
O23	O	0.846490	-0.306908	0.329804
O24	O	1.346490	0.193092	0.829804
O25	O	0.952346	-0.395362	0.534586
O26	O	1.452346	0.104638	1.034586
O27	O	0.842987	-0.387185	0.416088
O28	O	1.342987	0.112815	0.916088
O29	O	1.038710	-0.321280	0.538086
O30	O	1.538710	0.178720	1.038086
O31	O	1.046598	-0.493783	0.337795
O32	O	1.546598	0.006217	0.837795
O33	O	0.956834	-0.493504	0.420634
O34	O	1.456834	0.006496	0.920634
C35	C	0.819242	-0.346091	0.371921
C36	C	1.319242	0.153909	0.871921
C37	C	0.741139	-0.343178	0.368795
C38	C	1.241139	0.156822	0.868795
C39	C	0.702642	-0.383663	0.412179
C40	C	1.202642	0.116337	0.912179
C41	C	0.629255	-0.380918	0.409246
C42	C	1.129255	0.119082	0.909246
C43	C	0.594366	-0.337689	0.362924
C44	C	1.094366	0.162311	0.862924
C45	C	0.632868	-0.297199	0.319538
C46	C	1.132868	0.202801	0.819538
C47	C	0.706253	-0.299942	0.322476
C48	C	1.206253	0.200058	0.822476
C49	C	0.375080	-0.324994	0.349333
C50	C	0.875080	0.175006	0.849333
C51	C	0.301690	-0.322256	0.346397
C52	C	0.801690	0.177744	0.846397
C53	C	0.298082	-0.405974	0.436106
C54	C	0.798082	0.094026	0.936106
C55	C	0.371470	-0.408715	0.439037
C56	C	0.871470	0.091285	0.939037
C57	C	0.409965	-0.368223	0.395653
C58	C	0.909965	0.131777	0.895653
N59	N	0.519353	-0.334883	0.359923
N60	N	1.019353	0.165117	0.859923
N61	N	0.484976	-0.371027	0.398658
N62	N	0.984976	0.128973	0.898658
C63	C	1.001719	-0.516485	0.379223
C64	C	1.501719	-0.016485	0.879223
C65	C	1.001744	-0.586454	0.379231
C66	C	1.501744	-0.086454	0.879231
C67	C	1.048522	-0.619448	0.336144
C68	C	1.548522	-0.119448	0.836144
C69	C	1.048554	-0.685192	0.336161
C70	C	1.548554	-0.185192	0.836161
C71	C	1.001796	-0.717939	0.379257
C72	C	1.501796	-0.217939	0.879257
C73	C	0.955015	-0.684937	0.422352
C74	C	1.455015	-0.184937	0.922352
C75	C	0.954989	-0.619195	0.422339
C76	C	1.454989	-0.119195	0.922339
N77	N	0.940111	-0.819089	0.382141
N78	N	1.440111	-0.319089	0.882141
N79	N	0.940138	-0.881541	0.382149
N80	N	1.440138	-0.381541	0.882149
C81	C	1.001873	-0.916018	0.379300
C82	C	1.501873	-0.416018	0.879300
N83	N	1.063583	-0.885683	0.376429
N84	N	1.563583	-0.385683	0.876429
N85	N	1.063555	-0.823224	0.376417
N86	N	1.563555	-0.323224	0.876417
C87	C	1.001820	-0.789226	0.379276
C88	C	1.501820	-0.289226	0.879276
C89	C	1.048690	-1.020300	0.336230
C90	C	1.548690	-0.520300	0.836230
C91	C	1.048724	-1.086046	0.336252
C92	C	1.548724	-0.586046	0.836252
C93	C	0.955178	-1.085789	0.422439
C94	C	1.455178	-0.585789	0.922439
C95	C	0.955151	-1.020045	0.422421
C96	C	1.455151	-0.520045	0.922421
C97	C	1.001906	-0.987304	0.379313
C98	C	1.501906	-0.487304	0.879313
C99	C	1.185090	-0.359812	0.386639
C100	C	1.685090	0.140188	0.886639
C101	C	1.263193	-0.362741	0.389782
C102	C	1.763193	0.137259	0.889782
C103	C	0.994480	-0.359220	0.562545
C104	C	1.494480	0.140780	1.062545
C105	C	0.991356	-0.361897	0.640648
C106	C	1.491356	0.138103	1.140648
C107	C	1.001919	-0.188754	0.379324
C108	C	1.501919	0.311246	0.879324
C109	C	1.001966	-0.118788	0.379349
C110	C	1.501966	0.381212	0.879349
C111	C	1.009152	-0.346637	0.196700
C112	C	1.509152	0.153363	0.696700
C113	C	1.012412	-0.343787	0.118604
C114	C	1.512412	0.156213	0.618604
C115	C	1.034851	-0.324586	0.679164
C116	C	1.534851	0.175414	1.179164
C117	C	1.031907	-0.327098	0.752550
C118	C	1.531907	0.172902	1.252550
C119	C	0.985472	-0.366925	0.787418
C120	C	1.485472	0.133075	1.287418
C121	C	0.941972	-0.404238	0.748896
C122	C	1.441972	0.095762	1.248896
C123	C	0.944913	-0.401722	0.675512
C124	C	1.444913	0.098278	1.175512
C125	C	0.971853	-0.378584	1.006698
C126	C	1.471853	0.121416	1.506698
C127	C	0.968917	-0.381099	1.080087
C128	C	1.468917	0.118901	1.580087
C129	C	1.058852	-0.303958	1.083736
C130	C	1.558852	0.196042	1.583736
C131	C	1.061791	-0.301448	1.010350
C132	C	1.561791	0.198552	1.510350
C133	C	1.018289	-0.338758	0.971835
C134	C	1.518289	0.161242	1.471835
N135	N	0.982464	-0.369496	0.862429
N136	N	1.482464	0.130504	1.362429
N137	N	1.021294	-0.336183	0.896824
N138	N	1.521294	0.163817	1.396824
H139	H	0.399871	-0.443918	0.476755
H140	H	0.899871	0.056082	0.976755
N141	N	1.098959	-0.584137	0.289660
N142	N	1.598959	-0.084137	0.789660
H143	H	1.130343	-0.559023	0.319551
H144	H	1.630343	-0.059023	0.819551
H145	H	1.071674	-0.554744	0.255927
H146	H	1.571674	-0.054744	0.755927
H147	H	1.086649	-0.712061	0.301075
H148	H	1.586649	-0.212061	0.801075
H149	H	1.094268	-0.273581	1.115103
H150	H	1.594268	0.226419	1.615103
N151	N	1.084945	-0.281635	0.641562
N152	N	1.584945	0.218365	1.141562
H153	H	1.080214	-0.285706	0.589228
H154	H	1.580214	0.214294	1.089228
H155	H	1.134604	-0.293765	0.656416
H156	H	1.634604	0.206235	1.156416
N157	N	0.264056	-0.275630	0.296432
N158	N	0.764056	0.224370	0.796432
H159	H	0.299578	-0.250394	0.269395
H160	H	0.799578	0.249606	0.769395
H161	H	0.232480	-0.246388	0.323879
H162	H	0.732480	0.253612	0.823879
H163	H	0.916945	-0.711604	0.457442
H164	H	1.416945	-0.211604	0.957442
N165	N	1.078816	-0.286842	0.794081
N166	N	1.578816	0.213158	1.294081
H167	H	1.129528	-0.298061	0.783332
H168	H	1.629528	0.201939	1.283332
H169	H	1.069850	-0.294484	0.845847
H170	H	1.569850	0.205516	1.345847
N171	N	1.099117	-0.984981	0.289740
N172	N	1.599117	-0.484981	0.789740
H173	H	1.128761	-1.015861	0.262450
H174	H	1.628761	-0.515861	0.762450
H175	H	1.130455	-0.959860	0.319669
H176	H	1.630455	-0.459860	0.819669
N177	N	1.111877	-0.258493	0.972744
N178	N	1.611877	0.241507	1.472744
H179	H	1.138985	-0.235237	1.008280
H180	H	1.638985	0.264763	1.508280
H181	H	1.084515	-0.227246	0.941153
H182	H	1.584515	0.272754	1.441153
H183	H	0.936440	-0.408974	0.975347
H184	H	1.436440	0.091026	1.475347
H185	H	0.917110	-1.112451	0.457532
H186	H	1.417110	-0.612451	0.957532
N187	N	0.256564	-0.449645	0.482896
N188	N	0.756564	0.050355	0.982896
H189	H	0.204780	-0.441350	0.474009
H190	H	0.704780	0.058650	0.974009
H191	H	0.267400	-0.442118	0.533615
H192	H	0.767400	0.057882	1.033615
H193	H	0.909487	-0.432098	0.644152
H194	H	1.409487	0.067902	1.144152
H195	H	0.931101	-0.413532	1.108474
H196	H	1.431101	0.086468	1.608474
H197	H	1.086820	-1.112908	0.301168
H198	H	1.586820	-0.612908	0.801168
H199	H	0.406414	-0.292027	0.314002
H200	H	0.906414	0.207973	0.814002
N201	N	0.595242	-0.250584	0.269563
N202	N	1.095242	0.249416	0.769563
H203	H	0.542911	-0.254995	0.274277
H204	H	1.042911	0.245005	0.774277
H205	H	0.610072	-0.259086	0.219878
H206	H	1.110072	0.240914	0.719878
H207	H	0.917057	-0.993179	0.457503
H208	H	1.417057	-0.493179	0.957503
N209	N	0.891871	-0.447180	0.786499
N210	N	1.391871	0.052820	1.286499
H211	H	0.896605	-0.443111	0.838832
H212	H	1.396605	0.056889	1.338832
H213	H	0.903278	-0.492110	0.774100
H214	H	1.403278	0.007890	1.274100
H215	H	0.737596	-0.266971	0.287151
H216	H	1.237596	0.233029	0.787151
H217	H	0.731044	-0.418867	0.449897
H218	H	1.231044	0.081133	0.949897
H219	H	0.916895	-0.592330	0.457426
H220	H	1.416895	-0.092330	0.957426
H221	H	0.597915	-0.413886	0.444573
H222	H	1.097915	0.086114	0.944573
