data_functionalizedCrystal
_audit_creation_method	'MofGen! by Chris Wilmer'
_symmetry_space_group_name_H-M	'P1'
_symmetry_Int_Tables_number	1
_symmetry_cell_setting	triclinic
loop_
_symmetry_equiv_pos_as_xyz
  x,y,z
_cell_length_a	16.120490
_cell_length_b	12.594516
_cell_length_c	16.120297
_cell_angle_alpha	92.877768
_cell_angle_beta	90.129683
_cell_angle_gamma	87.108688
loop_
_atom_site_label
_atom_site_type_symbol
_atom_site_fract_x
_atom_site_fract_y
_atom_site_fract_z
Zn1	Zn	1.247500	-0.539335	-0.534573
Zn2	Zn	1.254467	-0.708779	-0.395527
Zn3	Zn	1.115488	-0.521340	-0.388492
Zn4	Zn	1.108423	-0.707789	-0.527499
O5	O	1.181469	-0.619311	-0.461523
O6	O	1.364792	-0.569758	-0.522032
O7	O	1.241904	-0.676798	-0.278227
O8	O	1.133040	-0.374785	-0.407887
O9	O	1.369911	-0.694247	-0.419875
O10	O	1.230029	-0.388006	-0.515211
O11	O	1.139796	-0.539088	-0.273059
O12	O	0.998183	-0.538127	-0.401028
O13	O	1.120999	-0.692560	-0.644804
O14	O	0.992992	-0.675110	-0.503156
O15	O	1.223178	-0.568798	-0.650000
O16	O	1.235053	-0.857590	-0.413017
O17	O	1.127755	-0.856862	-0.509977
C18	C	0.965415	-0.604559	-0.450562
C19	C	0.872985	-0.598276	-0.445892
C20	C	0.660028	-0.651898	-0.485746
C21	C	0.703759	-0.586812	-0.437366
C22	C	0.797925	-0.593192	-0.442111
C23	C	0.565853	-0.645520	-0.481001
C24	C	1.181415	-0.895848	-0.461512
C25	C	1.181467	-1.014158	-0.461539
C26	C	1.123104	-1.083051	-0.514236
C27	C	1.106692	-1.147864	-0.437333
C28	C	1.197954	-1.160151	-0.538459
C29	C	1.165016	-1.077407	-0.384593
C30	C	1.256312	-1.089693	-0.485773
C31	C	1.239931	-1.154472	-0.408818
C32	C	1.398368	-0.634121	-0.472527
C33	C	1.490797	-0.640432	-0.477217
C34	C	1.170524	-0.632576	-0.678418
C35	C	1.165859	-0.638228	-0.770846
C36	C	1.181546	-0.341697	-0.461553
C37	C	1.181578	-0.223394	-0.461566
C38	C	1.157312	-0.648523	-0.940072
C39	C	1.205790	-0.589791	-0.983834
C40	C	1.201035	-0.595519	-1.077997
C41	C	1.162067	-0.642796	-0.845900
C42	C	1.192421	-0.606024	-0.245474
C43	C	1.197246	-0.600083	-0.153054
H44	H	0.693308	-0.712407	-0.530725
C45	C	1.265925	-0.516910	-0.939654
C46	C	1.309706	-0.463834	-0.998538
C47	C	1.365101	-0.396684	-0.957868
H48	H	1.303894	-0.557973	-0.907616
H49	H	1.235829	-0.466284	-0.904168
H50	H	1.339801	-0.514453	-1.034010
H51	H	1.271759	-0.422751	-1.030580
H52	H	1.335005	-0.346058	-0.922381
H53	H	1.403065	-0.437755	-0.925830
H54	H	1.394808	-0.360656	-0.997813
C55	C	1.097301	-0.721283	-0.984557
C56	C	1.104484	-0.712595	-1.070463
C57	C	1.049226	-0.779618	-1.111481
H58	H	1.042093	-0.701126	-0.967633
H59	H	1.110164	-0.792808	-0.971042
H60	H	1.091615	-0.641086	-1.083973
H61	H	1.159679	-0.732761	-1.087412
H62	H	1.062089	-0.851143	-1.097965
H63	H	0.994022	-0.759455	-1.094550
H64	H	1.054098	-0.773740	-1.169772
H65	H	1.073668	-1.051695	-0.558728
C66	C	1.216615	-1.208497	-0.625112
C67	C	1.289254	-1.274124	-0.623079
C68	C	1.306456	-1.318684	-0.702886
H69	H	1.223989	-1.153283	-0.662040
H70	H	1.171636	-1.249440	-0.643694
H71	H	1.334223	-1.233182	-0.604508
H72	H	1.281899	-1.329354	-0.586167
H73	H	1.261477	-1.359627	-0.721468
H74	H	1.313827	-1.263464	-0.739808
H75	H	1.355739	-1.363224	-0.701516
C76	C	1.022294	-1.182167	-0.410165
C77	C	0.961371	-1.146024	-0.465541
C78	C	0.883614	-1.177611	-0.440553
H79	H	1.010105	-1.152660	-0.355915
H80	H	1.023061	-1.257627	-0.409917
H81	H	0.960601	-1.070579	-0.465781
H82	H	0.973532	-1.175527	-0.519794
H83	H	0.884382	-1.253072	-0.440304
H84	H	0.871434	-1.148102	-0.386303
H85	H	0.842270	-1.153102	-0.478125
H86	H	1.151042	-1.041385	-0.319532
H87	H	0.670477	-0.526299	-0.392382
H88	H	1.289337	-1.185623	-0.364212
C89	C	1.340698	-1.055454	-0.513013
C90	C	1.401862	-1.093282	-0.458560
C91	C	1.479610	-1.061774	-0.483644
H92	H	1.340310	-0.979969	-0.512300
H93	H	1.352343	-1.083925	-0.567678
H94	H	1.390221	-1.064806	-0.403909
H95	H	1.402277	-1.168763	-0.459266
H96	H	1.491254	-1.090245	-0.538310
H97	H	1.479212	-0.986289	-0.482931
H98	H	1.521120	-1.087443	-0.446707
