data_functionalizedCrystal
_audit_creation_method	'MofGen! by Chris Wilmer'
_symmetry_space_group_name_H-M	'P1'
_symmetry_Int_Tables_number	1
_symmetry_cell_setting	triclinic
loop_
_symmetry_equiv_pos_as_xyz
  x,y,z
_cell_length_a	18.215407
_cell_length_b	18.215405
_cell_length_c	17.077396
_cell_angle_alpha	89.971420
_cell_angle_beta	89.983192
_cell_angle_gamma	90.020191
loop_
_atom_site_label
_atom_site_type_symbol
_atom_site_fract_x
_atom_site_fract_y
_atom_site_fract_z
Zn1	Zn	1.125082	-0.293034	-0.443786
Zn2	Zn	1.124995	-0.416108	-0.312520
Zn3	Zn	1.002015	-0.293054	-0.312540
Zn4	Zn	1.001985	-0.416058	-0.443749
O5	O	1.063520	-0.354563	-0.378149
O6	O	1.228055	-0.309373	-0.426380
O7	O	1.108658	-0.399813	-0.202675
O8	O	1.018389	-0.190067	-0.329974
O9	O	1.227991	-0.399794	-0.329939
O10	O	1.108806	-0.190053	-0.426399
O11	O	1.018305	-0.309406	-0.202690
O12	O	0.899027	-0.309358	-0.329938
O13	O	1.018338	-0.399710	-0.553601
O14	O	0.899005	-0.399729	-0.426337
O15	O	1.108777	-0.309324	-0.553628
O16	O	1.108629	-0.519085	-0.329904
O17	O	1.018254	-0.519049	-0.426318
C18	C	0.872313	-0.354541	-0.378137
C19	C	0.790514	-0.354549	-0.378150
C20	C	0.525465	-0.401697	-0.428275
C21	C	0.602323	-0.401690	-0.428271
C22	C	0.602316	-0.307447	-0.328036
C23	C	0.525458	-0.307457	-0.328037
C24	C	0.487035	-0.354581	-0.378160
C25	C	0.640751	-0.354564	-0.378156
C26	C	0.724085	-0.354557	-0.378152
C27	C	0.403696	-0.354590	-0.378164
C28	C	1.063449	-0.545770	-0.378122
C29	C	1.063486	-0.627569	-0.378136
C30	C	1.110589	-0.815694	-0.428413
C31	C	1.110615	-0.892553	-0.428428
C32	C	1.016541	-0.892681	-0.327933
C33	C	1.016512	-0.815824	-0.327923
C34	C	1.063539	-0.777332	-0.378162
C35	C	1.063596	-0.931048	-0.378186
C36	C	1.063625	-1.014382	-0.378202
C37	C	1.063510	-0.693993	-0.378147
C38	C	1.255472	-0.354587	-0.378161
C39	C	1.337271	-0.354597	-0.378167
C40	C	1.063564	-0.354509	-0.582893
C41	C	1.063583	-0.354486	-0.670143
C42	C	1.063610	-0.162611	-0.378193
C43	C	1.063649	-0.080812	-0.378212
C44	C	1.110676	-0.307419	-0.711148
C45	C	1.110685	-0.307394	-0.793129
C46	C	1.063604	-0.354441	-0.834102
C47	C	1.016506	-0.401511	-0.793091
C48	C	1.016494	-0.401531	-0.711112
C49	C	1.016535	-0.401467	-0.963961
C50	C	1.016548	-0.401448	-1.045946
C51	C	1.110727	-0.307330	-1.045978
C52	C	1.110715	-0.307350	-0.963999
C53	C	1.063617	-0.354421	-0.922993
C54	C	1.063518	-0.354564	-0.174201
C55	C	1.063641	-0.354380	-0.086951
H56	H	0.633610	-0.440057	-0.469078
Br57	Br	1.174465	-0.944613	-0.496636
Br58	Br	0.952604	-0.465357	-0.848697
Br59	Br	0.952719	-0.944924	-0.259757
Br60	Br	0.952644	-0.465291	-1.101553
H61	H	0.978195	-0.784587	-0.287002
Br62	Br	0.952574	-0.465406	-0.655461
Br63	Br	0.473321	-0.465651	-0.496297
Br64	Br	1.174410	-0.763457	-0.496595
Br65	Br	1.174581	-0.243571	-0.655549
H66	H	0.633609	-0.269079	-0.287229
Br67	Br	1.174634	-0.243548	-0.848776
Br68	Br	1.174618	-0.243506	-0.908392
H69	H	0.978172	-0.439785	-0.930577
Br70	Br	1.174648	-0.243451	-1.101627
Br71	Br	0.473298	-0.243515	-0.260014
