data_functionalizedCrystal
_audit_creation_method	'MofGen! by Chris Wilmer'
_symmetry_space_group_name_H-M	'P1'
_symmetry_Int_Tables_number	1
_symmetry_cell_setting	triclinic
loop_
_symmetry_equiv_pos_as_xyz
  x,y,z
_cell_length_a	10.654550
_cell_length_b	10.723024
_cell_length_c	9.730223
_cell_angle_alpha	89.996766
_cell_angle_beta	89.999957
_cell_angle_gamma	84.476400
loop_
_atom_site_label
_atom_site_type_symbol
_atom_site_fract_x
_atom_site_fract_y
_atom_site_fract_z
O1	O	1.667813	0.175275	-0.114183
O2	O	1.302332	0.191974	-0.114208
O3	O	1.493503	0.002049	-0.114190
O4	O	1.476642	0.365199	-0.114202
O5	O	1.493490	0.002044	0.114390
O6	O	1.302319	0.191968	0.114372
O7	O	1.667800	0.175269	0.114396
Zn8	Zn	1.485058	0.183618	0.150676
Zn9	Zn	1.485074	0.183625	-0.150488
O10	O	1.476629	0.365194	0.114378
C11	C	1.255528	0.190745	0.000078
C12	C	1.116085	0.187077	0.000069
C13	C	1.036583	0.298901	0.000069
C14	C	0.905562	0.295447	0.000093
C15	C	0.933560	0.068334	0.000111
C16	C	1.064577	0.071789	0.000097
C17	C	1.492269	-0.044453	0.000098
C18	C	1.488598	-0.183008	0.000093
C19	C	1.595567	-0.257975	0.000098
C20	C	1.591776	-0.401179	0.000093
C21	C	1.714604	0.176498	0.000107
C22	C	1.854047	0.180167	0.000107
C23	C	1.477863	0.411696	0.000087
C24	C	1.481534	0.550251	0.000083
N25	N	1.485056	0.183613	0.356212
N26	N	1.485086	0.183621	-0.356024
C27	C	1.569735	0.099550	0.428146
C28	C	1.569748	0.099550	0.572029
C29	C	1.400397	0.267687	0.572032
C30	C	1.400380	0.267680	0.428151
H31	H	1.689955	-0.216138	0.000113
H32	H	1.638700	0.031098	0.630594
N33	N	1.713085	-0.486496	0.000115
H34	H	1.693181	-0.576701	0.000113
H35	H	1.763630	-0.469867	-0.084617
N36	N	0.877990	-0.056000	0.000142
H37	H	0.824248	-0.062497	-0.084587
H38	H	0.948304	-0.126248	0.000197
H39	H	1.078515	0.392775	0.000057
H40	H	1.129312	-0.019278	0.000100
N41	N	1.309072	0.358357	0.649623
H42	H	1.321933	0.345609	0.751687
H43	H	1.324330	0.447020	0.624457
H44	H	1.389955	-0.385337	0.000088
N45	N	1.309032	0.358341	0.350553
H46	H	1.255397	0.411603	0.417956
H47	H	1.357569	0.413954	0.290834
H48	H	1.394211	-0.224844	0.000078
H49	H	1.638682	0.031096	0.369577
H50	H	0.840836	0.386506	0.000097
