data_functionalizedCrystal
_audit_creation_method	'MofGen! by Chris Wilmer'
_symmetry_space_group_name_H-M	'P1'
_symmetry_Int_Tables_number	1
_symmetry_cell_setting	triclinic
loop_
_symmetry_equiv_pos_as_xyz
  x,y,z
_cell_length_a	10.489741
_cell_length_b	10.489741
_cell_length_c	16.776229
_cell_angle_alpha	89.993659
_cell_angle_beta	89.995573
_cell_angle_gamma	84.539174
loop_
_atom_site_label
_atom_site_type_symbol
_atom_site_fract_x
_atom_site_fract_y
_atom_site_fract_z
O1	O	1.694058	0.179971	-0.066238
O2	O	1.322863	0.196864	-0.066251
O3	O	1.516907	0.002820	-0.066240
O4	O	1.500014	0.374015	-0.066250
O5	O	1.516881	0.002807	0.066337
O6	O	1.322836	0.196852	0.066326
O7	O	1.694032	0.179959	0.066338
Zn8	Zn	1.508430	0.188403	0.087381
Zn9	Zn	1.508465	0.188419	-0.087294
O10	O	1.499988	0.374003	0.066327
C11	C	1.275318	0.195582	0.000036
C12	C	1.133688	0.191765	0.000031
C13	C	1.065548	0.068300	0.000042
C14	C	0.973434	0.126629	-0.065325
C15	C	0.973443	0.126647	0.065385
C16	C	1.043440	0.250145	-0.065390
C17	C	1.043458	0.250145	0.065379
C18	C	0.951371	0.308564	-0.000004
C19	C	1.515618	-0.044718	0.000048
C20	C	1.511801	-0.186348	0.000047
C21	C	1.388336	-0.254488	0.000037
C22	C	1.446647	-0.346616	0.065406
C23	C	1.446702	-0.346579	-0.065304
C24	C	1.570162	-0.276611	0.065470
C25	C	1.570200	-0.276564	-0.065299
C26	C	1.628600	-0.368665	0.000086
C27	C	1.741577	0.181241	0.000050
C28	C	1.883206	0.185058	0.000049
C29	C	1.501277	0.421541	0.000037
C30	C	1.505094	0.563170	0.000034
N31	N	1.508416	0.188391	0.206592
N32	N	1.508489	0.188421	-0.206505
C33	C	1.594366	0.102504	0.248315
C34	C	1.594373	0.102503	0.331767
C35	C	1.508435	0.188397	0.373495
C36	C	1.422477	0.274288	0.331767
C37	C	1.422464	0.274281	0.248317
C38	C	1.422523	0.274313	0.668315
C39	C	1.422544	0.274315	0.751771
C40	C	1.594431	0.102535	0.751765
C41	C	1.594419	0.102529	0.668314
C42	C	1.508456	0.188415	0.626593
C43	C	1.508448	0.188413	0.536105
C44	C	1.508449	0.188405	0.463982
H45	H	1.074279	0.302350	-0.120715
C46	C	1.688904	0.008013	0.202421
N47	N	1.760110	-0.063165	0.167856
H48	H	1.622347	-0.245784	0.120796
H49	H	1.730204	-0.418089	0.000125
C50	C	1.132629	-0.068836	-0.000042
N51	N	1.183156	-0.172123	-0.000110
C52	C	0.884590	0.445821	-0.000057
N53	N	0.834285	0.549201	-0.000101
H54	H	1.074493	0.302338	0.120643
H55	H	1.286824	-0.204837	0.000099
C56	C	1.376057	-0.388526	0.140059
N57	N	1.322880	-0.420088	0.196285
H58	H	1.664423	0.032598	0.785742
C59	C	1.327994	0.368801	0.797671
N60	N	1.256781	0.439962	0.832243
H61	H	0.942431	0.074394	-0.120586
H62	H	1.394456	-0.377538	-0.120574
H63	H	0.942454	0.074379	0.120648
C64	C	1.327932	0.368759	0.377672
N65	N	1.256719	0.439917	0.412247
C66	C	1.640729	-0.234611	-0.139960
N67	N	1.693842	-0.203009	-0.196200
H68	H	1.352474	0.344218	0.214347
H69	H	1.352531	0.344247	0.634352
H70	H	1.664358	0.032567	0.365736
H71	H	1.664401	0.032591	0.634341
