data_functionalizedCrystal
_audit_creation_method	'MofGen! by Chris Wilmer'
_symmetry_space_group_name_H-M	'P1'
_symmetry_Int_Tables_number	1
_symmetry_cell_setting	triclinic
loop_
_symmetry_equiv_pos_as_xyz
  x,y,z
_cell_length_a	18.878441
_cell_length_b	14.628931
_cell_length_c	14.628931
_cell_angle_alpha	90.000000
_cell_angle_beta	59.998898
_cell_angle_gamma	60.001447
loop_
_atom_site_label
_atom_site_type_symbol
_atom_site_fract_x
_atom_site_fract_y
_atom_site_fract_z
Zr1	Zr	0.775343	-0.119936	0.880607
O2	O	0.923121	-0.265893	0.734643
O3	O	0.627566	-0.075196	0.925354
O4	O	0.775343	-0.265897	0.925352
O5	O	0.775344	0.075240	0.734645
O6	O	0.775343	-0.265897	1.075784
O7	O	0.775344	-0.075192	0.734645
O8	O	0.510997	0.075233	1.075788
O9	O	1.039690	-0.265889	0.734641
O10	O	0.688349	-0.056111	1.056702
O11	O	0.688349	0.056155	0.944436
O12	O	0.862337	-0.168371	0.944433
O13	O	0.862338	-0.056106	0.832167
Zr14	Zr	0.775343	0.119985	1.120528
Zr15	Zr	0.775343	-0.119936	1.120528
Zr16	Zr	0.775344	0.119985	0.880606
Zr17	Zr	0.961258	-0.119931	0.880604
Zr18	Zr	0.589429	0.119980	1.120531
O19	O	0.923121	0.075245	1.075781
O20	O	0.923120	-0.265892	1.075781
O21	O	0.923121	0.075244	0.734643
O22	O	0.627566	0.265942	1.266491
O23	O	0.627565	-0.075195	1.266492
O24	O	0.627567	0.265941	0.925353
O25	O	0.775343	-0.075191	1.266489
O26	O	0.775344	0.265946	1.075783
O27	O	0.775344	0.265946	0.925351
O28	O	0.775343	0.075241	1.266489
O29	O	1.039689	-0.265889	0.925347
O30	O	0.510997	0.265938	1.075787
O31	O	0.510997	0.265938	1.266493
O32	O	0.510996	0.075233	1.266493
O33	O	1.039690	-0.075184	0.734641
O34	O	1.039690	-0.075184	0.925347
O35	O	0.688349	0.168420	1.056701
O36	O	0.688349	0.056155	1.168967
O37	O	0.862337	-0.056106	1.056699
O38	O	0.862338	0.056160	0.944433
C39	C	0.542793	0.000018	1.000571
C40	C	0.463867	0.000015	1.000572
C41	C	0.426787	-0.058587	1.059172
C42	C	0.352623	-0.058579	1.059176
C43	C	0.315545	0.000026	1.000574
C44	C	0.352628	0.058636	0.941972
C45	C	0.426785	0.058633	0.941976
C46	C	0.198061	0.058635	0.941968
C47	C	0.123899	0.058636	0.941963
C48	C	0.123899	-0.058577	1.059168
C49	C	0.198056	-0.058580	1.059171
C50	C	0.235135	0.000029	1.000568
C51	C	0.775343	-0.300080	1.000568
C52	C	0.775342	-0.401933	1.000568
C53	C	0.861653	-0.503031	0.944875
C54	C	0.861654	-0.608303	0.944874
C55	C	1.007894	0.000031	1.000564
C56	C	1.086820	0.000034	1.000562
C57	C	0.775344	0.000024	0.700462
C58	C	0.775344	0.000024	0.598609
C59	C	0.775344	0.300129	1.000567
C60	C	0.775344	0.401982	1.000567
C61	C	0.689034	0.055713	0.608892
C62	C	0.689032	0.055714	0.503623
C63	C	0.775343	0.000025	1.300673
C64	C	0.775342	0.000025	1.402526
C65	C	0.542792	0.000018	1.300677
C66	C	0.463866	0.000016	1.402531
C67	C	0.542793	0.300122	1.000571
C68	C	0.463868	0.401973	1.000572
C69	C	0.542793	0.300123	1.300676
C70	C	0.463867	0.401973	1.402531
C71	C	1.007894	-0.300074	0.700458
C72	C	1.086820	-0.401924	0.598604
C73	C	1.007895	0.000031	0.700458
C74	C	1.086821	0.000033	0.598603
C75	C	1.007893	-0.300073	1.000564
C76	C	1.086819	-0.401924	1.000563
C77	C	0.426802	-0.058597	1.391762
C78	C	0.352653	-0.058621	1.487455
C79	C	0.315565	-0.000026	1.593918
C80	C	0.352636	0.058588	1.604685
C81	C	0.426789	0.058606	1.508992
C82	C	0.426804	0.508414	1.059174
C83	C	0.352655	0.604123	1.059171
C84	C	0.315567	0.593387	1.000571
C85	C	0.352639	0.486935	0.941962
C86	C	0.426791	0.391229	0.941959
C87	C	0.426802	0.391202	1.508974
C88	C	0.352654	0.486893	1.604686
C89	C	0.315566	0.593353	1.593952
C90	C	0.352638	0.604122	1.487497
C91	C	0.426790	0.508433	1.391788
C92	C	1.123893	-0.391153	0.492160
C93	C	1.198065	-0.486844	0.396448
C94	C	1.235157	-0.593304	0.407182
C95	C	1.198080	-0.604073	0.513637
C96	C	1.123915	-0.508384	0.609347
C97	C	1.123893	0.058636	0.609373
C98	C	1.198062	0.058634	0.513679
C99	C	1.235153	0.000035	0.407217
C100	C	1.198078	-0.058575	0.396449
C101	C	1.123915	-0.058579	0.492142
C102	C	1.123883	-0.391152	1.059174
C103	C	1.198032	-0.486843	1.059194
C104	C	1.235120	-0.593303	1.000597
C105	C	1.198049	-0.604072	0.941985
C106	C	1.123896	-0.508383	0.941971
H107	H	0.228251	-0.106307	1.106883
C108	C	0.467543	0.274145	0.877502
N109	N	0.498232	0.185958	0.828952
H110	H	0.322428	0.106294	1.691380
C111	C	1.083113	-0.274055	0.480326
N112	N	1.052407	-0.185859	0.471402
C113	C	0.311826	0.475144	0.877513
N114	N	0.281078	0.466267	0.828977
H115	H	0.701447	-0.511293	1.048244
C116	C	0.233987	-0.000047	1.699173
N117	N	0.172540	-0.000063	1.778447
H118	H	0.093713	0.106357	0.894243
C119	C	0.875173	-0.064389	0.481431
N120	N	0.950367	-0.112909	0.393173
C121	C	0.961481	-0.514681	0.880470
N122	N	1.036675	-0.523458	0.831961
H123	H	1.093726	-0.517169	0.894238
H124	H	1.228208	-0.478052	1.106922
C125	C	0.083106	-0.123041	1.123638
N126	N	0.052379	-0.171595	1.172193
H127	H	0.456959	0.517219	1.305120
C128	C	0.467542	0.123101	1.520858
N129	N	0.498232	0.171684	1.529804
C130	C	0.467566	-0.123058	1.123640
N131	N	0.498276	-0.171616	1.172205
H132	H	0.456998	-0.106326	1.305083
H133	H	1.228289	-0.106284	0.309755
H134	H	1.228236	0.106365	0.522468
H135	H	0.322430	0.690815	1.478774
C136	C	0.961485	-0.725468	0.880457
N137	N	1.036680	-0.813722	0.831938
C138	C	0.311881	0.721210	1.123661
N139	N	0.281169	0.809398	1.172238
C140	C	0.675514	-0.390283	1.064982
N141	N	0.600320	-0.381506	1.113499
C142	C	0.233989	0.698604	1.699247
N143	N	0.172540	0.777875	1.778560
H144	H	0.615142	0.103394	0.695630
C145	C	1.238834	-0.474972	0.279359
N146	N	1.269539	-0.466028	0.191170
C147	C	1.316733	-0.698555	0.301887
N148	N	1.378172	-0.777826	0.222575
H149	H	0.322433	-0.106296	1.106893
H150	H	1.093699	0.106361	0.696051
H151	H	0.615139	0.103383	0.512252
H152	H	1.295541	0.000048	0.329307
H153	H	0.849239	-0.047659	0.393888
H154	H	1.295501	-0.671210	1.000617
C155	C	1.238883	-0.721190	0.525426
N156	N	1.269611	-0.809406	0.534302
H157	H	1.093733	-0.106297	0.483358
H158	H	0.456993	0.517177	1.106893
H159	H	1.093730	-0.517167	0.696015
H160	H	0.228250	0.106358	0.894245
C161	C	0.311839	0.123102	0.877509
N162	N	0.281121	0.171655	0.828949
C163	C	0.311879	-0.123092	1.475586
N164	N	0.281167	-0.171649	1.466643
H165	H	1.093697	-0.304476	1.106890
C166	C	0.233988	0.698679	1.000597
N167	N	0.172538	0.777988	1.000627
H168	H	0.456977	0.106351	0.894255
H169	H	0.456988	0.304525	1.517735
H170	H	0.322477	0.478104	1.691358
H171	H	1.228257	-0.690765	0.894276
