data_functionalizedCrystal
_audit_creation_method	'MofGen! by Chris Wilmer'
_symmetry_space_group_name_H-M	'P1'
_symmetry_Int_Tables_number	1
_symmetry_cell_setting	triclinic
loop_
_symmetry_equiv_pos_as_xyz
  x,y,z
_cell_length_a	16.992694
_cell_length_b	16.053802
_cell_length_c	16.992695
_cell_angle_alpha	87.258926
_cell_angle_beta	90.668223
_cell_angle_gamma	92.750953
loop_
_atom_site_label
_atom_site_type_symbol
_atom_site_fract_x
_atom_site_fract_y
_atom_site_fract_z
O1	O	1.053959	0.069325	0.163815
O2	O	1.553959	0.569325	0.663815
O3	O	0.825560	0.069350	0.161983
O4	O	1.325560	0.569350	0.661983
O5	O	0.938844	0.069331	0.048699
O6	O	1.438844	0.569331	0.548699
O7	O	0.940676	0.069344	0.277099
O8	O	1.440676	0.569344	0.777099
O9	O	0.932607	-0.069527	0.054907
O10	O	1.432607	0.430473	0.554907
O11	O	0.819323	-0.069508	0.168191
O12	O	1.319323	0.430492	0.668191
O13	O	1.047722	-0.069533	0.170023
O14	O	1.547722	0.430467	0.670023
Zn15	Zn	0.932532	-0.091567	0.170093
Zn16	Zn	1.432532	0.408433	0.670093
Zn17	Zn	0.940750	0.091384	0.161913
Zn18	Zn	1.440750	0.591384	0.661913
O19	O	0.934438	-0.069514	0.283307
O20	O	1.434438	0.430486	0.783307
C21	C	0.793082	-0.000076	0.162731
C22	C	1.293082	0.499924	0.662731
C23	C	0.705597	-0.000067	0.155702
C24	C	1.205597	0.499933	0.655702
N25	N	0.926930	-0.216427	0.175675
N26	N	1.426930	0.283573	0.675675
C27	C	0.659607	-0.000064	0.223520
C28	C	1.159607	0.499936	0.723520
C29	C	0.577405	-0.000076	0.216911
C30	C	1.077405	0.499924	0.716911
C31	C	0.541197	-0.000085	0.142484
C32	C	1.041197	0.499915	0.642484
C33	C	0.587193	-0.000091	0.074661
C34	C	1.087193	0.499909	0.574661
C35	C	0.669393	-0.000085	0.081270
C36	C	1.169393	0.499915	0.581270
C37	C	0.295881	-0.000109	0.115090
C38	C	0.795881	0.499891	0.615090
C39	C	0.213676	-0.000112	0.108486
C40	C	0.713676	0.499888	0.608486
C41	C	0.203893	-0.000099	0.250737
C42	C	0.703893	0.499901	0.750737
C43	C	0.286095	-0.000088	0.257339
C44	C	0.786095	0.499912	0.757339
C45	C	0.332084	-0.000098	0.189517
C46	C	0.832084	0.499902	0.689517
N47	N	0.457174	-0.000094	0.135727
N48	N	0.957174	0.499906	0.635727
N49	N	0.416105	-0.000094	0.196275
N50	N	0.916105	0.499906	0.696275
C51	C	0.975152	-0.260129	0.127492
C52	C	1.475152	0.239871	0.627492
C53	C	0.971241	-0.347535	0.131404
C54	C	1.471241	0.152465	0.631404
C55	C	0.919110	-0.391237	0.183504
C56	C	1.419110	0.108763	0.683504
C57	C	0.870883	-0.347529	0.231689
C58	C	1.370883	0.152471	0.731689
C59	C	0.874791	-0.260125	0.227772
C60	C	1.374791	0.239875	0.727772
C61	C	0.902039	-0.652644	0.200593
C62	C	1.402039	-0.152644	0.700593
C63	C	0.898136	-0.740055	0.204508
C64	C	1.398136	-0.240055	0.704508
C65	C	0.998493	-0.740054	0.104222
C66	C	1.498493	-0.240054	0.604222
C67	C	1.002400	-0.652648	0.100313
C68	C	1.502400	-0.152648	0.600313
C69	C	0.954169	-0.608948	0.148494
C70	C	1.454169	-0.108948	0.648494
N71	N	0.915113	-0.480580	0.187507
N72	N	1.415113	0.019420	0.687507
N73	N	0.958163	-0.519606	0.144487
N74	N	1.458163	-0.019606	0.644487
C75	C	1.080201	-0.000105	0.169275
C76	C	1.580201	0.499895	0.669275
C77	C	1.167685	-0.000109	0.176304
C78	C	1.667685	0.499891	0.676304
C79	C	0.933370	-0.000098	0.022443
C80	C	1.433370	0.499902	0.522443
C81	C	0.926341	-0.000097	-0.065042
C82	C	1.426341	0.499903	0.434958
N83	N	0.946358	0.216243	0.156325
N84	N	1.446358	0.716243	0.656325
C85	C	0.994158	-0.000105	-0.111032
C86	C	1.494158	0.499895	0.388968
C87	C	0.987550	-0.000096	-0.193233
C88	C	1.487550	0.499904	0.306767
C89	C	0.913123	-0.000086	-0.229442
C90	C	1.413123	0.499914	0.270558
C91	C	0.845300	-0.000075	-0.183446
C92	C	1.345300	0.499925	0.316554
C93	C	0.851910	-0.000078	-0.101246
C94	C	1.351910	0.499922	0.398754
C95	C	0.885729	-0.000071	-0.474757
C96	C	1.385729	0.499929	0.025243
C97	C	0.879124	-0.000071	-0.556962
C98	C	1.379124	0.499929	-0.056962
C99	C	1.021375	-0.000091	-0.566745
C100	C	1.521375	0.499909	-0.066745
C101	C	1.027978	-0.000099	-0.484543
C102	C	1.527978	0.499901	0.015457
C103	C	0.960155	-0.000083	-0.438554
C104	C	1.460155	0.499917	0.061446
N105	N	0.906366	-0.000079	-0.313465
N106	N	1.406366	0.499921	0.186535
N107	N	0.966913	-0.000084	-0.354533
N108	N	1.466913	0.499916	0.145467
C109	C	0.939913	-0.000084	0.309563
C110	C	1.439913	0.499916	0.809563
C111	C	0.946942	-0.000079	0.397047
C112	C	1.446942	0.499921	0.897047
H113	H	0.689081	-0.000056	0.284126
H114	H	1.189081	0.499944	0.784126
H115	H	0.828433	-0.383117	0.274107
H116	H	1.328433	0.116883	0.774107
Br117	Br	0.836587	-0.593341	0.265982
Br118	Br	1.336587	-0.093341	0.765982
H119	H	0.706838	-0.000087	0.026046
H120	H	1.206838	0.499913	0.526046
H121	H	0.784700	-0.000061	-0.212933
H122	H	1.284700	0.499939	0.287067
Br123	Br	0.164535	-0.000142	0.007472
Br124	Br	0.664535	0.499858	0.507472
Br125	Br	0.809338	-0.200815	0.293161
Br126	Br	1.309338	0.299185	0.793161
H127	H	1.088584	-0.000108	-0.455068
H128	H	1.588584	0.499892	0.044932
H129	H	1.054765	-0.000119	-0.081557
H130	H	1.554765	0.499881	0.418443
Br131	Br	1.079593	-0.000107	-0.255647
Br132	Br	1.579593	0.499893	0.244353
Br133	Br	1.113414	-0.000111	-0.629162
Br134	Br	1.613414	0.499889	-0.129162
H135	H	1.044848	-0.617067	0.057889
H136	H	1.544848	-0.117067	0.557889
H137	H	0.539963	-0.000072	0.272136
H138	H	1.039963	0.499928	0.772136
Br139	Br	1.045910	-0.200827	0.056787
Br140	Br	1.545910	0.299173	0.556787
Br141	Br	0.778109	-0.000065	-0.606102
Br142	Br	1.278109	0.499935	-0.106102
H143	H	0.830503	-0.000059	-0.437322
H144	H	1.330503	0.499941	0.062678
H145	H	0.315571	-0.000071	0.317945
H146	H	0.815571	0.499929	0.817945
Br147	Br	0.759868	-0.000060	-0.038829
Br148	Br	1.259868	0.499940	0.461171
Br149	Br	0.358285	-0.000125	0.023045
Br150	Br	0.858285	0.499875	0.523045
H151	H	0.855683	-0.775633	0.246937
H152	H	1.355683	-0.275633	0.746937
Br153	Br	0.538054	-0.000111	-0.026348
Br154	Br	1.038054	0.499889	0.473652
H155	H	1.010506	-0.383116	0.092170
H156	H	1.510506	0.116884	0.592170
Br157	Br	1.063944	-0.799365	0.038834
Br158	Br	1.563944	-0.299365	0.538834
H159	H	0.166440	-0.000092	0.305954
H160	H	0.666440	0.499908	0.805954
