data_functionalizedCrystal
_audit_creation_method	'MofGen! by Chris Wilmer'
_symmetry_space_group_name_H-M	'P1'
_symmetry_Int_Tables_number	1
_symmetry_cell_setting	triclinic
loop_
_symmetry_equiv_pos_as_xyz
  x,y,z
_cell_length_a	12.837943
_cell_length_b	11.026607
_cell_length_c	10.066323
_cell_angle_alpha	79.266239
_cell_angle_beta	80.320930
_cell_angle_gamma	78.292522
loop_
_atom_site_label
_atom_site_type_symbol
_atom_site_fract_x
_atom_site_fract_y
_atom_site_fract_z
O1	O	1.423522	-0.338855	0.113455
O2	O	1.118744	-0.322929	0.113463
O3	O	1.245874	-0.151318	0.113455
O4	O	1.296392	-0.510467	0.113463
O5	O	1.270063	-0.118446	-0.113520
O6	O	1.142933	-0.290057	-0.113512
O7	O	1.447712	-0.305983	-0.113520
Zn8	Zn	1.299163	-0.292801	-0.149553
Zn9	Zn	1.267292	-0.336111	0.149496
O10	O	1.320582	-0.477595	-0.113512
C11	C	1.091214	-0.301113	-0.000023
C12	C	0.973142	-0.285066	-0.000020
N13	N	1.320922	-0.263243	-0.353647
C14	C	1.248648	-0.088593	-0.000031
C15	C	1.220865	0.049333	-0.000025
C16	C	0.768185	-0.477981	-0.000035
C17	C	0.657246	-0.462910	-0.000033
C18	C	0.640325	-0.239850	-0.000024
C19	C	0.751264	-0.254922	-0.000026
C20	C	0.815190	-0.373992	-0.000029
C21	C	0.926129	-0.389064	-0.000022
C22	C	0.909207	-0.166004	-0.000022
C23	C	0.798269	-0.150932	-0.000020
C24	C	1.475241	-0.327800	-0.000031
C25	C	1.593312	-0.343848	-0.000025
C26	C	1.317807	-0.540320	-0.000023
C27	C	1.345589	-0.678247	-0.000020
C28	C	1.297578	0.114267	-0.000025
C29	C	1.268865	0.256821	-0.000020
C30	C	1.274849	-0.325826	-0.421451
C31	C	1.291620	-0.303068	-0.578609
N32	N	1.245540	-0.365660	0.353590
H33	H	0.978177	-0.486016	-0.000027
C34	C	1.463044	0.254296	-0.000025
N35	N	1.551510	0.203486	-0.000030
C36	C	0.960921	-0.051608	-0.000012
N37	N	0.999872	0.034551	-0.000000
C38	C	0.838505	-0.608959	-0.000030
N39	N	0.891469	-0.707613	-0.000027
C40	C	0.605545	-0.577307	-0.000040
N41	N	0.566605	-0.663476	-0.000047
H42	H	1.372787	-0.192819	-0.411944
C43	C	1.361686	-0.207914	-0.657356
N44	N	1.414457	-0.136244	-0.716671
C45	C	0.569990	-0.108881	-0.000035
N46	N	0.517012	-0.010234	-0.000044
C47	C	1.151411	0.324282	-0.000018
N48	N	1.062947	0.375097	-0.000021
H49	H	1.133929	0.099275	-0.000014
H50	H	1.384514	0.064325	-0.000036
H51	H	0.746207	-0.053987	-0.000033
H52	H	1.222992	-0.396261	-0.363156
H53	H	1.193681	-0.436099	-0.588118
