data_functionalizedCrystal
_audit_creation_method	'MofGen! by Chris Wilmer'
_symmetry_space_group_name_H-M	'P1'
_symmetry_Int_Tables_number	1
_symmetry_cell_setting	triclinic
loop_
_symmetry_equiv_pos_as_xyz
  x,y,z
_cell_length_a	12.811449
_cell_length_b	10.723024
_cell_length_c	9.198806
_cell_angle_alpha	90.002265
_cell_angle_beta	95.435660
_cell_angle_gamma	84.254676
loop_
_atom_site_label
_atom_site_type_symbol
_atom_site_fract_x
_atom_site_fract_y
_atom_site_fract_z
O1	O	-1.393886	-0.168077	-0.304660
O2	O	-1.088433	-0.186353	-0.264391
O3	O	-1.248205	0.004397	-0.285449
O4	O	-1.234114	-0.358826	-0.283602
O5	O	-1.248193	0.004398	-0.043663
O6	O	-1.088421	-0.186351	-0.022605
O7	O	-1.393874	-0.168075	-0.062873
Cu8	Cu	-1.241146	-0.177213	-0.020662
Cu9	Cu	-1.241160	-0.177215	-0.306603
O10	O	-1.234102	-0.358824	-0.041816
C11	C	-1.049315	-0.185328	-0.138342
C12	C	-0.932775	-0.182261	-0.122978
C13	C	-1.247174	0.050892	-0.164422
C14	C	-1.244106	0.189431	-0.164023
C15	C	-0.768511	-0.177938	0.030466
C16	C	-0.878011	-0.180820	0.016037
C17	C	-0.878032	-0.180823	-0.247573
C18	C	-0.768532	-0.177940	-0.233144
C19	C	-0.713776	-0.176496	-0.094120
C20	C	-0.604275	-0.173605	-0.079692
C21	C	-0.604297	-0.173617	-0.343301
C22	C	-0.713797	-0.176499	-0.357730
C23	C	-0.432992	-0.169100	-0.188923
C24	C	-0.549532	-0.172167	-0.204287
C25	C	-1.235133	-0.405320	-0.162846
C26	C	-1.238201	-0.543859	-0.163254
N27	N	-1.241144	-0.177211	0.180452
C28	C	-1.333506	0.264859	-0.175811
C29	C	-1.330337	0.408047	-0.175398
N30	N	-1.241171	-0.177207	-0.507718
C31	C	-1.174073	-0.257650	0.261524
C32	C	-1.174087	-0.257649	0.428935
H33	H	-0.559693	-0.172437	0.033509
H34	H	-1.116661	-0.326512	0.498620
H35	H	-0.922572	-0.181998	0.117488
Cl36	Cl	-1.120028	0.356087	-0.147661
Cl37	Cl	-1.329825	-0.070885	0.264628
Cl38	Cl	-1.455304	0.200908	-0.191877
Cl39	Cl	-1.085402	-0.363991	0.177351
H40	H	-0.723927	-0.176769	0.143665
H41	H	-1.298592	-0.108331	0.422607
Cl42	Cl	-1.448505	0.508109	-0.190968
Cl43	Cl	-1.122307	0.253382	-0.147981
Cl44	Cl	-0.782644	-0.178311	-0.532493
Cl45	Cl	-0.946887	-0.182637	-0.422331
H46	H	-0.559720	-0.172447	-0.444748
