data_functionalizedCrystal
_audit_creation_method	'MofGen! by Chris Wilmer'
_symmetry_space_group_name_H-M	'P1'
_symmetry_Int_Tables_number	1
_symmetry_cell_setting	triclinic
loop_
_symmetry_equiv_pos_as_xyz
  x,y,z
_cell_length_a	16.109301
_cell_length_b	26.210047
_cell_length_c	27.732025
_cell_angle_alpha	89.990146
_cell_angle_beta	83.047475
_cell_angle_gamma	90.013716
loop_
_atom_site_label
_atom_site_type_symbol
_atom_site_fract_x
_atom_site_fract_y
_atom_site_fract_z
O1	O	1.102369	0.042380	0.062130
O2	O	0.860210	0.042386	0.069862
O3	O	0.988820	0.042398	-0.004370
O4	O	0.973758	0.042368	0.136362
O5	O	0.988780	-0.042460	-0.004370
O6	O	0.860170	-0.042472	0.069862
O7	O	1.102328	-0.042478	0.062130
Cu8	Cu	0.981245	-0.050223	0.065996
Cu9	Cu	0.981293	0.050131	0.065996
O10	O	0.973718	-0.042490	0.136362
C11	C	0.829219	-0.000042	0.069549
C12	C	0.736935	-0.000039	0.068610
C13	C	0.514139	-0.000054	0.110474
C14	C	0.427429	-0.000057	0.109588
C15	C	0.448406	-0.000035	0.021515
C16	C	0.535114	-0.000036	0.022401
C17	C	0.567978	-0.000042	0.066883
C18	C	0.394561	-0.000045	0.065110
C19	C	0.300547	-0.000048	0.064149
C20	C	0.661997	-0.000040	0.067844
N21	N	0.981218	-0.120807	0.065996
C22	C	1.031325	-0.473329	0.095317
C23	C	1.031350	-0.686988	0.095316
O24	O	1.073934	-0.714617	0.120241
N25	N	0.981313	-0.713701	0.065991
C26	C	0.931270	-0.686996	0.036662
O27	O	0.888717	-0.714620	0.011715
C28	C	0.931250	-0.473339	0.036660
C29	C	0.981284	-0.446628	0.065991
C30	C	1.081356	-0.446619	0.124645
C31	C	1.081346	-0.393208	0.124646
C32	C	1.031305	-0.366506	0.095320
C33	C	0.981274	-0.393217	0.065992
C34	C	0.881212	-0.446635	0.007328
C35	C	0.881213	-0.393217	0.007330
C36	C	0.931248	-0.366507	0.036660
C37	C	0.931223	-0.313104	0.036668
N38	N	0.981261	-0.286391	0.065993
C39	C	1.031302	-0.313092	0.095319
C40	C	0.931282	-0.799170	0.036666
C41	C	0.931286	-0.852584	0.036667
C42	C	1.031368	-0.852572	0.095321
C43	C	1.031359	-0.799157	0.095322
C44	C	0.981320	-0.772456	0.065991
C45	C	1.031276	-0.200924	0.095321
C46	C	1.031259	-0.147508	0.095322
C47	C	0.931181	-0.147525	0.036666
C48	C	0.931194	-0.200936	0.036667
C49	C	0.981249	-0.227635	0.065996
O50	O	0.888668	-0.285443	0.011753
O51	O	1.073862	-0.285459	0.120254
C52	C	1.031336	-0.526741	0.095315
C53	C	0.981305	-0.553451	0.065987
C54	C	0.931263	-0.526750	0.036661
C55	C	0.981308	-0.606865	0.065988
C56	C	1.031349	-0.633566	0.095314
C57	C	1.081387	-0.606853	0.124639
C58	C	1.081377	-0.553442	0.124641
C59	C	0.881226	-0.553463	0.007336
C60	C	0.881239	-0.606875	0.007337
C61	C	0.931281	-0.633576	0.036663
C62	C	1.133319	-0.000049	0.062443
C63	C	1.225603	-0.000049	0.063382
C64	C	0.988487	-0.000026	-0.022378
C65	C	0.987543	-0.000010	-0.076038
N66	N	0.981327	0.120715	0.065993
C67	C	0.980863	0.046216	-0.459231
C68	C	0.984393	0.046233	-0.257557
O69	O	0.984902	0.085573	-0.231487
N70	N	0.984813	-0.000022	-0.232334
C71	C	0.984355	-0.046284	-0.257533
O72	O	0.984801	-0.085627	-0.231452
C73	C	0.980831	-0.046300	-0.459207
C74	C	0.980403	-0.000042	-0.484426
C75	C	0.980436	0.092470	-0.484451
C76	C	0.979549	0.092466	-0.534866
C77	C	0.979089	0.046207	-0.560061
C78	C	0.979516	-0.000047	-0.534842
C79	C	0.980379	-0.092562	-0.484405
C80	C	0.979500	-0.092562	-0.534827
C81	C	0.979072	-0.046304	-0.560047
C82	C	0.978169	-0.046310	-0.610452
N83	N	0.977749	-0.000055	-0.635675
C84	C	0.978209	0.046203	-0.610480
C85	C	0.986203	-0.046273	-0.151651
C86	C	0.987083	-0.046269	-0.101233
C87	C	0.987123	0.046248	-0.101261
C88	C	0.986237	0.046244	-0.151679
C89	C	0.985784	-0.000018	-0.176874
C90	C	0.976346	0.046190	-0.716355
C91	C	0.975455	0.046182	-0.766775
C92	C	0.975420	-0.046335	-0.766743
C93	C	0.976306	-0.046327	-0.716328
C94	C	0.976772	-0.000060	-0.691135
O95	O	0.977669	-0.085630	-0.636554
O96	O	0.977781	0.085540	-0.636570
C97	C	0.981750	0.046221	-0.408816
C98	C	0.982177	-0.000033	-0.383596
C99	C	0.981717	-0.046292	-0.408791
C100	C	0.983056	-0.000029	-0.333178
C101	C	0.983517	0.046229	-0.307982
C102	C	0.983097	0.092484	-0.333205
C103	C	0.982210	0.092479	-0.383621
C104	C	0.982136	-0.092547	-0.383568
C105	C	0.983022	-0.092538	-0.333153
C106	C	0.983482	-0.046280	-0.307958
C107	C	0.974052	-0.000065	0.154371
C108	C	0.974995	-0.000077	0.208030
H109	H	1.072036	-0.222656	0.119203
H110	H	0.985835	-0.083947	-0.172160
C111	C	0.974899	-0.097215	-0.794468
C112	C	0.902776	-0.135373	-0.782035
C113	C	0.902254	-0.186251	-0.809764
C114	C	0.973854	-0.198971	-0.849927
C115	C	1.045982	-0.160811	-0.862363
C116	C	1.046504	-0.109933	-0.834633
H117	H	0.849769	-0.125958	-0.752302
H118	H	0.848860	-0.214500	-0.800558
H119	H	0.973467	-0.236634	-0.870454
H120	H	1.098989	-0.170226	-0.892096
H121	H	1.099898	-0.081685	-0.843839
H122	H	0.578952	-0.000028	-0.013099
C123	C	0.983495	-0.143427	-0.305416
C124	C	0.911145	-0.181596	-0.306841
C125	C	0.911628	-0.232483	-0.279107
C126	C	0.984460	-0.245201	-0.249947
C127	C	1.056815	-0.207031	-0.248521
C128	C	1.056333	-0.156144	-0.276255
H129	H	0.857226	-0.172182	-0.328428
H130	H	0.858066	-0.260739	-0.280163
H131	H	0.984817	-0.282870	-0.229417
H132	H	1.110735	-0.216444	-0.226934
H133	H	1.109895	-0.127888	-0.275199
H134	H	0.976621	-0.083994	-0.695790
H135	H	0.976726	0.083865	-0.695850
H136	H	0.383596	-0.000067	0.145085
C137	C	0.978991	-0.143451	-0.562542
C138	C	0.906873	-0.181610	-0.550098
C139	C	0.906359	-0.232498	-0.577812
C140	C	0.977962	-0.245226	-0.617970
C141	C	1.050085	-0.207066	-0.630417
C142	C	1.050600	-0.156178	-0.602702
H143	H	0.853864	-0.172189	-0.520368
H144	H	0.852968	-0.260747	-0.568598
H145	H	0.977581	-0.282896	-0.638486
H146	H	1.103095	-0.216487	-0.660146
H147	H	1.103990	-0.127929	-0.611916
C148	C	0.981642	-0.143438	-0.411274
C149	C	0.909534	-0.181604	-0.398826
C150	C	0.909042	-0.232500	-0.426527
C151	C	0.980657	-0.245231	-0.466677
C152	C	1.052770	-0.207065	-0.479128
C153	C	1.053262	-0.156168	-0.451426
H154	H	0.856515	-0.172180	-0.369103
H155	H	0.855658	-0.260753	-0.417310
H156	H	0.980293	-0.282908	-0.487183
H157	H	1.105789	-0.216488	-0.508851
H158	H	1.106646	-0.127915	-0.460643
H159	H	0.981862	0.130147	-0.404150
C160	C	0.550290	-0.000067	0.159402
C161	C	0.491064	-0.000082	0.207353
C162	C	0.527212	-0.000097	0.256282
C163	C	0.622586	-0.000097	0.257261
C164	C	0.681818	-0.000081	0.209309
C165	C	0.645670	-0.000066	0.160380
H166	H	0.420457	-0.000083	0.206629
H167	H	0.483364	-0.000109	0.291779
H168	H	0.649345	-0.000108	0.293482
H169	H	0.752424	-0.000081	0.210033
H170	H	0.689517	-0.000054	0.124883
H171	H	0.421638	-0.000033	-0.014701
C172	C	0.876244	-0.881963	0.004405
C173	C	0.808218	-0.918700	0.027635
C174	C	0.753180	-0.948077	-0.004631
C175	C	0.766168	-0.940718	-0.060126
C176	C	0.834197	-0.903979	-0.083358
C177	C	0.889235	-0.874602	-0.051092
H178	H	0.798601	-0.924149	0.068718
H179	H	0.702821	-0.975274	0.012568
H180	H	0.725426	-0.962465	-0.084011
H181	H	0.843814	-0.898530	-0.124441
H182	H	0.939594	-0.847405	-0.068291
C183	C	0.826173	-0.524096	-0.024922
C184	C	0.758140	-0.487397	-0.001684
C185	C	0.703078	-0.458031	-0.033942
C186	C	0.716050	-0.465365	-0.089437
C187	C	0.784086	-0.502066	-0.112678
C188	C	0.839148	-0.531431	-0.080420
H189	H	0.748535	-0.481966	0.039399
H190	H	0.652713	-0.430863	-0.016737
H191	H	0.675290	-0.443627	-0.113316
H192	H	0.793691	-0.507496	-0.153761
H193	H	0.889513	-0.558600	-0.097625
H194	H	0.840487	-0.628618	-0.016546
C195	C	0.876141	-0.118146	0.004407
C196	C	0.916651	-0.081410	-0.034954
C197	C	0.861617	-0.052029	-0.067217
C198	C	0.766073	-0.059384	-0.060117
C199	C	0.725558	-0.096121	-0.020753
C200	C	0.780592	-0.125502	0.011509
H201	H	0.987383	-0.075964	-0.040212
H202	H	0.891610	-0.024833	-0.096356
H203	H	0.725334	-0.037634	-0.083999
H204	H	0.654826	-0.101567	-0.015496
H205	H	0.750599	-0.152698	0.040648
H206	H	0.983466	0.130149	-0.312682
H207	H	1.072003	-0.125763	0.119208
H208	H	1.122093	-0.371465	0.148528
H209	H	1.122110	-0.468353	0.148526
C210	C	1.086403	-0.769778	0.127582
C211	C	1.181946	-0.777109	0.120474
C212	C	1.236994	-0.747734	0.152735
C213	C	1.196500	-0.711026	0.192103
C214	C	1.100952	-0.703692	0.199213
C215	C	1.045904	-0.733068	0.166952
H216	H	1.211926	-0.804284	0.091330
H217	H	1.307725	-0.753162	0.147472
H218	H	1.237250	-0.689280	0.215985
H219	H	1.070972	-0.676518	0.228357
H220	H	0.975173	-0.727639	0.172216
C221	C	1.086424	-0.881949	0.127574
C222	C	1.086431	-0.940703	0.127566
C223	C	1.141492	-0.970083	0.159813
C224	C	1.196547	-0.940709	0.192068
C225	C	1.196543	-0.881952	0.192077
C226	C	1.141482	-0.852572	0.159830
H227	H	1.045674	-0.962450	0.103688
H228	H	1.141495	-1.013578	0.159806
H229	H	1.237307	-0.962458	0.215939
H230	H	1.237300	-0.860205	0.215955
H231	H	1.141479	-0.809077	0.159837
C232	C	0.876225	-0.769805	0.004403
C233	C	0.889194	-0.777145	-0.051091
C234	C	0.834132	-0.747784	-0.083351
C235	C	0.766100	-0.711083	-0.060117
C236	C	0.753127	-0.703741	-0.004619
C237	C	0.808190	-0.733102	0.027641
H238	H	0.939559	-0.804316	-0.068293
H239	H	0.843736	-0.753220	-0.124434
H240	H	0.725339	-0.689348	-0.083998
H241	H	0.702763	-0.676570	0.012583
H242	H	0.798586	-0.727666	0.068724
H243	H	0.980813	0.130142	-0.463942
H244	H	0.840470	-0.468373	-0.016556
H245	H	0.979206	0.130134	-0.555396
C246	C	0.826166	-0.363847	-0.024935
C247	C	0.839151	-0.371181	-0.080430
C248	C	0.784103	-0.341812	-0.112693
C249	C	0.716070	-0.305110	-0.089461
C250	C	0.703082	-0.297774	-0.033963
C251	C	0.758130	-0.327143	-0.001700
H252	H	0.889515	-0.398352	-0.097631
H253	H	0.793718	-0.347242	-0.153776
H254	H	0.675320	-0.283369	-0.113344
H255	H	0.652717	-0.270604	-0.016762
H256	H	0.748515	-0.321713	0.039384
C257	C	1.136422	-0.524066	0.156903
C258	C	1.204447	-0.487330	0.133671
C259	C	1.259497	-0.457958	0.165934
C260	C	1.246522	-0.465322	0.221428
C261	C	1.178493	-0.502059	0.244663
C262	C	1.123443	-0.531431	0.212400
H263	H	1.214055	-0.481877	0.092588
H264	H	1.309857	-0.430762	0.148734
H265	H	1.287273	-0.443579	0.245311
H266	H	1.168885	-0.507512	0.285746
H267	H	1.073084	-0.558627	0.229600
C268	C	0.974989	0.097068	-0.794515
C269	C	1.047349	0.135230	-0.793091
C270	C	1.046885	0.186115	-0.820830
C271	C	0.974059	0.198838	-0.849993
C272	C	0.901693	0.160676	-0.851418
C273	C	0.902158	0.109791	-0.823679
H274	H	1.101264	0.125811	-0.771502
H275	H	1.100456	0.214365	-0.819775
H276	H	0.973716	0.236507	-0.870526
H277	H	0.847779	0.170095	-0.873007
H278	H	0.848587	0.081541	-0.824735
C279	C	0.985774	0.097127	-0.179419
C280	C	1.058132	0.135289	-0.177989
C281	C	1.057672	0.186175	-0.205726
C282	C	0.984853	0.198899	-0.234894
C283	C	0.912490	0.160737	-0.236326
C284	C	0.912950	0.109851	-0.208588
H285	H	1.112042	0.125871	-0.156396
H286	H	1.111240	0.214426	-0.204666
H287	H	0.984512	0.236568	-0.255427
H288	H	0.858580	0.170155	-0.257919
H289	H	0.859382	0.081600	-0.209648
H290	H	0.890442	-0.222685	0.012790
C291	C	0.987544	-0.097153	-0.073493
C292	C	1.060366	-0.109874	-0.044327
C293	C	1.060833	-0.160760	-0.016590
C294	C	0.988478	-0.198925	-0.018019
C295	C	0.915651	-0.186204	-0.047186
C296	C	0.915184	-0.135319	-0.074924
H297	H	1.113932	-0.081622	-0.043268
H298	H	1.114745	-0.170176	0.005002
H299	H	0.988823	-0.236593	0.002514
H300	H	0.862084	-0.214457	-0.048245
H301	H	0.861272	-0.125902	-0.096515
H302	H	1.122128	-0.628603	0.148520
H303	H	0.987492	0.083914	-0.080737
H304	H	0.980736	-0.130230	-0.463881
