data_functionalizedCrystal
_audit_creation_method	'MofGen! by Chris Wilmer'
_symmetry_space_group_name_H-M	'P1'
_symmetry_Int_Tables_number	1
_symmetry_cell_setting	triclinic
loop_
_symmetry_equiv_pos_as_xyz
  x,y,z
_cell_length_a	12.759400
_cell_length_b	13.033293
_cell_length_c	13.033352
_cell_angle_alpha	90.908427
_cell_angle_beta	82.827767
_cell_angle_gamma	97.184613
loop_
_atom_site_label
_atom_site_type_symbol
_atom_site_fract_x
_atom_site_fract_y
_atom_site_fract_z
Zn1	Zn	-0.327200	1.498268	0.781465
Zn2	Zn	-0.478107	1.520064	0.609503
Zn3	Zn	-0.321568	1.348180	0.587647
Zn4	Zn	-0.521968	1.326277	0.759539
O5	O	-0.412211	1.423197	0.684538
O6	O	-0.331219	1.645072	0.776977
O7	O	-0.436628	1.515552	0.462699
O8	O	-0.175292	1.368134	0.613387
O9	O	-0.442089	1.661086	0.650637
O10	O	-0.179430	1.478403	0.755784
O11	O	-0.321621	1.389269	0.446642
O12	O	-0.364151	1.201361	0.592126
O13	O	-0.516845	1.330803	0.906351
O14	O	-0.511384	1.185269	0.718414
O15	O	-0.373749	1.457165	0.922460
O16	O	-0.630948	1.494313	0.629375
O17	O	-0.663173	1.351938	0.739606
C18	C	-0.441917	1.156000	0.650520
C19	C	-0.454654	1.041689	0.635991
C20	C	-0.405590	0.982790	0.692121
C21	C	-0.418753	0.864643	0.677106
C22	C	-0.685182	1.423139	0.684509
C23	C	-0.801955	1.423204	0.684543
C24	C	-0.840005	1.497402	0.627228
C25	C	-0.949726	1.497461	0.627268
C26	C	-0.983339	1.349114	0.741940
C27	C	-0.873620	1.349061	0.741905
C28	C	-0.768339	1.571545	0.569866
C29	C	-0.806388	1.645748	0.512545
C30	C	-0.916110	1.645808	0.512585
C31	C	-0.987782	1.571663	0.569945
C32	C	-0.138174	1.423281	0.684594
C33	C	-0.021396	1.423317	0.684617
C34	C	-0.450818	1.389109	0.952762
C35	C	-0.467270	1.374583	1.067063
C36	C	-0.382389	1.691438	0.718690
C37	C	-0.369681	1.805746	0.733244
C38	C	-0.403804	1.430628	1.125992
C39	C	-0.420806	1.415616	1.244128
C40	C	-0.373780	1.457144	1.417357
C41	C	-0.357332	1.471669	1.303056
H42	H	-0.506403	1.004648	0.576818
C43	C	-0.511220	1.335770	1.294114
N44	N	-0.579318	1.275631	1.331765
H45	H	-0.534187	1.315481	1.104070
H46	H	-0.842641	1.288643	0.788577
H47	H	-0.290399	1.530763	1.266053
C48	C	-0.335669	1.032827	0.772057
N49	N	-0.283004	1.070513	0.832266
H50	H	-0.317920	0.842782	0.792414
C51	C	-0.647642	1.571499	0.569834
N52	N	-0.556734	1.571468	0.569815
H53	H	-0.748027	1.706120	0.465851
H54	H	-1.041703	1.288749	0.788639
C55	C	-0.957960	1.727433	0.449534
N56	N	-0.989479	1.788913	0.402036
H57	H	-1.077124	1.571724	0.569982
H58	H	-0.470505	0.827606	0.617929
C59	C	-0.313389	1.510463	1.076001
N60	N	-0.245286	1.570597	1.038349
