data_functionalizedCrystal
_audit_creation_method	'MofGen! by Chris Wilmer'
_symmetry_space_group_name_H-M	'P1'
_symmetry_Int_Tables_number	1
_symmetry_cell_setting	triclinic
loop_
_symmetry_equiv_pos_as_xyz
  x,y,z
_cell_length_a	42.784839
_cell_length_b	42.784841
_cell_length_c	42.784893
_cell_angle_alpha	90.002418
_cell_angle_beta	59.997780
_cell_angle_gamma	119.999863
loop_
_atom_site_label
_atom_site_type_symbol
_atom_site_fract_x
_atom_site_fract_y
_atom_site_fract_z
O1	O	0.275695	-0.214412	-0.009300
O2	O	0.211692	-0.168961	0.009253
O3	O	0.275692	-0.168961	-0.054750
O4	O	0.211694	-0.214412	0.054702
O5	O	0.223708	-0.220945	-0.054749
O6	O	0.159708	-0.220945	0.009253
O7	O	0.223710	-0.266397	-0.009300
Zn8	Zn	0.183455	-0.251924	-0.000023
Zn9	Zn	0.251947	-0.183433	-0.000024
O10	O	0.159710	-0.266396	0.054703
C11	C	0.051021	-0.022778	0.028112
C12	C	0.013142	-0.041761	0.028375
C13	C	0.051018	-0.079378	0.028116
C14	C	0.013139	-0.098275	0.028379
C15	C	-0.005578	-0.079377	0.028112
C16	C	0.069652	-0.041762	0.028379
C17	C	0.152948	0.113708	0.017863
C18	C	0.173786	0.152360	0.014965
C19	C	0.155902	0.171750	0.013509
C20	C	0.178499	0.213661	0.010359
C21	C	0.117177	0.152485	0.014953
C22	C	0.096339	0.113835	0.017857
C23	C	0.114226	0.094447	0.019312
C24	C	-0.131813	-0.113936	0.017859
C25	C	-0.167567	-0.131750	0.014961
C26	C	-0.185502	-0.169024	0.013506
C27	C	-0.224264	-0.188340	0.010358
C28	C	-0.167685	-0.188485	0.014954
C29	C	-0.131938	-0.170675	0.017859
C30	C	-0.114002	-0.133396	0.019309
C31	C	0.152939	-0.113943	0.017877
C32	C	0.173778	-0.131757	0.014977
C33	C	0.155892	-0.169032	0.013523
C34	C	0.178486	-0.188349	0.010377
C35	C	0.117170	-0.188491	0.014967
C36	C	0.096334	-0.170675	0.017865
C37	C	0.114220	-0.133401	0.019323
C38	C	0.091629	0.052537	0.022456
C39	C	0.073617	0.019131	0.024964
C40	C	0.073613	-0.098693	0.024971
C41	C	0.091623	-0.114089	0.022466
C42	C	-0.044339	-0.098690	0.024964
C43	C	-0.075237	-0.114084	0.022456
O44	O	-0.327856	-0.266388	-0.009322
O45	O	-0.236954	-0.220935	0.009228
O46	O	-0.236950	-0.220939	-0.054773
O47	O	-0.327860	-0.266385	0.054680
O48	O	-0.236948	-0.168954	-0.054776
O49	O	-0.236952	-0.168950	0.009225
O50	O	-0.327854	-0.214403	-0.009325
Zn51	Zn	-0.282403	-0.183423	-0.000050
Zn52	Zn	-0.282405	-0.251916	-0.000046
O53	O	-0.327858	-0.214400	0.054676
C54	C	0.384390	-0.079141	-0.361606
C55	C	0.422270	-0.041526	-0.380503
C56	C	0.384390	-0.079141	-0.305008
C57	C	0.422270	-0.041526	-0.323990
C58	C	0.440988	-0.022543	-0.361606
C59	C	0.365758	-0.098038	-0.323991
C60	C	0.282465	-0.170819	-0.396168
C61	C	0.261627	-0.188759	-0.413983
C62	C	0.279513	-0.169420	-0.451257
C63	C	0.256917	-0.188867	-0.470572
C64	C	0.318239	-0.132140	-0.470717
C65	C	0.339076	-0.114205	-0.452905
C66	C	0.321187	-0.133546	-0.415628
C67	C	0.567227	0.113942	-0.453282
C68	C	0.602981	0.152594	-0.471222
C69	C	0.620916	0.171985	-0.451883
C70	C	0.659678	0.213894	-0.471328
C71	C	0.603097	0.152719	-0.414603
C72	C	0.567349	0.114068	-0.396667
C73	C	0.549414	0.094682	-0.416011
C74	C	0.282465	-0.170819	-0.168522
C75	C	0.261624	-0.188757	-0.129868
C76	C	0.279510	-0.169418	-0.110479
C77	C	0.256914	-0.188865	-0.068568
C78	C	0.318233	-0.132140	-0.129742
C79	C	0.339070	-0.114203	-0.168394
C80	C	0.321184	-0.133548	-0.187782
C81	C	0.343783	-0.114094	-0.396315
C82	C	0.361794	-0.098590	-0.380920
C83	C	0.361794	-0.098590	-0.263099
C84	C	0.343783	-0.114094	-0.229693
C85	C	0.479750	0.019366	-0.381054
C86	C	0.510649	0.052771	-0.396557
C87	C	0.440758	-0.356212	-0.028193
C88	C	0.422041	-0.393827	-0.028459
C89	C	0.384158	-0.356213	-0.028190
C90	C	0.365526	-0.393828	-0.028456
C91	C	0.384160	-0.412810	-0.028193
C92	C	0.422038	-0.337315	-0.028456
C93	C	0.567000	-0.264532	-0.017949
C94	C	0.602755	-0.246591	-0.015053
C95	C	0.620692	-0.265931	-0.013601
C96	C	0.659455	-0.246483	-0.010453
C97	C	0.602873	-0.303210	-0.015048
C98	C	0.567125	-0.321146	-0.017949
C99	C	0.549188	-0.301805	-0.019399
C100	C	0.339356	-0.549295	-0.017951
C101	C	0.318645	-0.587947	-0.015055
C102	C	0.279915	-0.607338	-0.013597
C103	C	0.257452	-0.649247	-0.010452
C104	C	0.261899	-0.588073	-0.015042
C105	C	0.282613	-0.549422	-0.017945
C106	C	0.321343	-0.530035	-0.019397
C107	C	0.339344	-0.264537	-0.017936
C108	C	0.318628	-0.246599	-0.015032
C109	C	0.279898	-0.265939	-0.013577
C110	C	0.257433	-0.246493	-0.010426
C111	C	0.261884	-0.303217	-0.015022
C112	C	0.282601	-0.321153	-0.017924
C113	C	0.321334	-0.301808	-0.019385
C114	C	0.510421	-0.321258	-0.022542
C115	C	0.479522	-0.336762	-0.025048
C116	C	0.361696	-0.336765	-0.025041
C117	C	0.343793	-0.321261	-0.022532
C118	C	0.361701	-0.454719	-0.025047
C119	C	0.343799	-0.488125	-0.022541
O120	O	0.223728	0.336934	-0.009323
O121	O	0.159726	0.227482	0.009227
O122	O	0.223729	0.291478	-0.054775
O123	O	0.159725	0.272938	0.054678
O124	O	0.275711	0.291477	-0.054771
O125	O	0.211707	0.227481	0.009230
O126	O	0.275710	0.336932	-0.009320
Zn127	Zn	0.251962	0.282206	-0.000045
Zn128	Zn	0.183474	0.282208	-0.000049
O129	O	0.211707	0.272936	0.054681
O130	O	0.763271	0.337164	-0.496871
O131	O	0.672367	0.227713	-0.451422
O132	O	0.672365	0.291711	-0.451418
O133	O	0.763273	0.273165	-0.496876
O134	O	0.672366	0.291712	-0.503402
O135	O	0.672368	0.227714	-0.503407
O136	O	0.763272	0.337165	-0.548856
Zn137	Zn	0.717820	0.282440	-0.534385
Zn138	Zn	0.717819	0.282438	-0.465893
O139	O	0.763275	0.273167	-0.548860
O140	O	0.211690	-0.214417	-0.548617
O141	O	0.275691	-0.168962	-0.503167
O142	O	0.211689	-0.168964	-0.503163
O143	O	0.275692	-0.214415	-0.548621
O144	O	0.159706	-0.220947	-0.451179
O145	O	0.223708	-0.220945	-0.451183
O146	O	0.159707	-0.266400	-0.496633
Zn147	Zn	0.183454	-0.251926	-0.465654
Zn148	Zn	0.251944	-0.183436	-0.534146
O149	O	0.223709	-0.266398	-0.496637
C150	C	-0.005343	-0.412572	0.361558
C151	C	0.013375	-0.393590	0.380456
C152	C	0.051255	-0.355974	0.304961
C153	C	0.069887	-0.337077	0.323944
C154	C	0.051254	-0.355974	0.361560
C155	C	0.013375	-0.393589	0.323943
C156	C	-0.131582	-0.549057	0.396116
C157	C	-0.167336	-0.587709	0.413930
C158	C	-0.185271	-0.607098	0.451205
C159	C	-0.224034	-0.649009	0.470519
C160	C	-0.167452	-0.587833	0.470666
C161	C	-0.131705	-0.549184	0.452854
C162	C	-0.113770	-0.529796	0.415578
C163	C	0.096061	-0.321414	0.453239
C164	C	0.116773	-0.303600	0.471179
C165	C	0.155502	-0.266327	0.451842
C166	C	0.177965	-0.247011	0.471288
C167	C	0.173517	-0.246866	0.414562
C168	C	0.152802	-0.264677	0.396625
C169	C	0.114073	-0.301955	0.415968
C170	C	0.096064	-0.321412	0.168474
C171	C	0.116779	-0.303599	0.129820
C172	C	0.155508	-0.266324	0.110432
C173	C	0.177972	-0.247009	0.068521
C174	C	0.173522	-0.246865	0.129696
C175	C	0.152807	-0.264680	0.168348
C176	C	0.114075	-0.301953	0.187735
C177	C	-0.075004	-0.487887	0.396265
C178	C	-0.044106	-0.454481	0.380871
C179	C	0.073715	-0.336660	0.263052
C180	C	0.091618	-0.321265	0.229646
C181	C	0.073714	-0.336661	0.381009
C182	C	0.091616	-0.321267	0.396513
C183	C	0.051046	-0.022794	-0.361634
C184	C	0.069679	-0.041778	-0.380530
C185	C	-0.005555	-0.079390	-0.305034
C186	C	0.013163	-0.098288	-0.324016
C187	C	0.051045	-0.079393	-0.361631
C188	C	0.013164	-0.041775	-0.324018
C189	C	0.095858	0.113693	-0.396200
C190	C	0.116571	0.152344	-0.414015
C191	C	0.155302	0.171732	-0.451290
C192	C	0.177767	0.213642	-0.470607
C193	C	0.173317	0.152465	-0.470750
C194	C	0.152600	0.113815	-0.452936
C195	C	0.113869	0.094429	-0.415659
C196	C	0.152973	-0.113959	-0.453306
C197	C	0.173810	-0.131775	-0.471245
C198	C	0.155926	-0.169048	-0.451906
C199	C	0.178519	-0.188366	-0.471350
C200	C	0.117198	-0.188507	-0.414626
C201	C	0.096358	-0.170694	-0.396690
C202	C	0.114251	-0.133416	-0.416035
C203	C	-0.131801	-0.113944	-0.168548
C204	C	-0.167554	-0.131755	-0.129895
C205	C	-0.185491	-0.169029	-0.110504
C206	C	-0.224255	-0.188343	-0.068593
C207	C	-0.167671	-0.188490	-0.129767
C208	C	-0.131918	-0.170677	-0.168418
C209	C	-0.113988	-0.133404	-0.187808
C210	C	0.091411	0.052521	-0.396344
C211	C	0.073508	0.019115	-0.380949
C212	C	-0.044320	-0.098701	-0.263125
C213	C	-0.075220	-0.114094	-0.229719
C214	C	0.073641	-0.098707	-0.381079
C215	C	0.091652	-0.114103	-0.396582
C216	C	-0.615853	-0.356193	0.361535
C217	C	-0.634487	-0.393808	0.380433
C218	C	-0.559253	-0.356195	0.304938
C219	C	-0.577972	-0.393810	0.323921
C220	C	-0.615854	-0.412792	0.361537
C221	C	-0.577972	-0.337297	0.323920
C222	C	-0.660661	-0.264512	0.396093
C223	C	-0.681373	-0.246571	0.413906
C224	C	-0.720104	-0.265909	0.451181
C225	C	-0.742568	-0.246461	0.470495
C226	C	-0.738120	-0.303189	0.470643
C227	C	-0.717405	-0.321125	0.452831
C228	C	-0.678674	-0.301785	0.415554
C229	C	-0.717784	-0.549275	0.453218
C230	C	-0.738622	-0.587926	0.471159
C231	C	-0.720740	-0.607319	0.451822
C232	C	-0.743333	-0.649227	0.471268
C233	C	-0.682012	-0.588055	0.414542
C234	C	-0.661170	-0.549403	0.396604
C235	C	-0.679063	-0.530016	0.415946
C236	C	-0.433006	-0.264522	0.168449
C237	C	-0.397253	-0.246585	0.129796
C238	C	-0.379317	-0.265926	0.110407
C239	C	-0.340553	-0.246480	0.068496
C240	C	-0.397138	-0.303204	0.129672
C241	C	-0.432891	-0.321139	0.168324
C242	C	-0.450820	-0.301793	0.187711
C243	C	-0.656216	-0.321238	0.396242
C244	C	-0.638314	-0.336743	0.380848
C245	C	-0.520488	-0.336748	0.263028
C246	C	-0.489588	-0.321245	0.229622
C247	C	-0.638451	-0.454700	0.380987
C248	C	-0.656463	-0.488106	0.396492
C249	C	0.440756	0.310302	-0.361620
C250	C	0.422038	0.310564	-0.380518
C251	C	0.384160	0.310312	-0.305026
C252	C	0.365528	0.310574	-0.324010
C253	C	0.384159	0.310303	-0.361624
C254	C	0.422038	0.310573	-0.324006
C255	C	0.566989	0.300046	-0.396172
C256	C	0.602741	0.297145	-0.413984
C257	C	0.620675	0.295684	-0.451257
C258	C	0.659436	0.292531	-0.470569
C259	C	0.602857	0.297127	-0.470719
C260	C	0.567111	0.300033	-0.452909
C261	C	0.549177	0.301493	-0.415634
C262	C	0.339351	0.300042	-0.453303
C263	C	0.318640	0.297142	-0.471244
C264	C	0.279912	0.295690	-0.451908
C265	C	0.257449	0.292541	-0.471354
C266	C	0.261899	0.297143	-0.414629
C267	C	0.282613	0.300049	-0.396692
C268	C	0.321341	0.301496	-0.416033
C269	C	0.339354	0.300088	-0.168540
C270	C	0.318640	0.297192	-0.129888
C271	C	0.279912	0.295742	-0.110501
C272	C	0.257450	0.292601	-0.068591
C273	C	0.261898	0.297184	-0.129766
C274	C	0.282612	0.300078	-0.168417
C275	C	0.321344	0.301533	-0.187802
C276	C	0.510413	0.304640	-0.396323
C277	C	0.479516	0.307151	-0.380931
C278	C	0.361701	0.307173	-0.263117
C279	C	0.343799	0.304671	-0.229712
C280	C	0.361700	0.307154	-0.381073
C281	C	0.343798	0.304644	-0.396578
O282	O	0.275503	0.336913	-0.548651
O283	O	0.211494	0.227461	-0.503201
O284	O	0.275490	0.291455	-0.503192
O285	O	0.211507	0.272919	-0.548659
O286	O	0.223502	0.291457	-0.451211
O287	O	0.159506	0.227463	-0.451219
O288	O	0.223515	0.336915	-0.496669
Zn289	Zn	0.183256	0.282189	-0.465691
Zn290	Zn	0.251753	0.282187	-0.534179
O291	O	0.159519	0.272921	-0.496677
C292	C	0.051032	0.254111	0.361530
C293	C	0.013154	0.253851	0.380425
C294	C	0.051031	0.254102	0.304932
C295	C	0.013153	0.253842	0.323913
C296	C	-0.005564	0.254113	0.361527
C297	C	0.069663	0.253840	0.323916
C298	C	0.152954	0.264360	0.396096
C299	C	0.173791	0.267260	0.413911
C300	C	0.155906	0.268721	0.451185
C301	C	0.178502	0.271871	0.470501
C302	C	0.117182	0.267279	0.470643
C303	C	0.096345	0.264374	0.452830
C304	C	0.114233	0.262915	0.415555
C305	C	-0.131796	0.264379	0.453195
C306	C	-0.167548	0.267281	0.471133
C307	C	-0.185483	0.268734	0.451793
C308	C	-0.224243	0.271886	0.471236
C309	C	-0.167664	0.267282	0.414515
C310	C	-0.131919	0.264374	0.396581
C311	C	-0.113984	0.262925	0.415925
C312	C	0.152952	0.264325	0.168451
C313	C	0.173792	0.267221	0.129798
C314	C	0.155907	0.268673	0.110407
C315	C	0.178502	0.271814	0.068498
C316	C	0.117186	0.267232	0.129669
C317	C	0.096350	0.264339	0.168320
C318	C	0.114234	0.262881	0.187709
C319	C	0.091638	0.259769	0.396240
C320	C	0.073627	0.257260	0.380845
C321	C	0.073626	0.257242	0.263024
C322	C	0.091636	0.259743	0.229619
C323	C	-0.044324	0.257264	0.380973
C324	C	-0.075221	0.259775	0.396474
H325	H	0.064802	-0.186523	0.019045
C326	C	0.053742	0.092645	0.019452
H327	H	0.046075	0.109728	0.018168
H328	H	0.030434	0.071706	0.042728
H329	H	0.058442	0.083435	-0.001563
C330	C	0.337909	-0.110866	-0.511714
H331	H	0.363956	-0.086097	-0.520753
H332	H	0.316949	-0.108548	-0.511700
H333	H	0.344965	-0.124824	-0.527986
C334	C	-0.008009	0.253266	0.303324
H335	H	0.008573	0.253144	0.278157
H336	H	-0.008165	0.275347	0.302020
H337	H	-0.037492	0.230944	0.317094
H338	H	0.335046	0.310999	-0.308768
H339	H	0.437930	-0.026285	-0.308746
H340	H	0.332793	-0.116391	-0.113952
H341	H	0.167543	-0.083608	-0.469060
C342	C	0.622603	-0.324480	-0.013450
H343	H	0.646444	-0.308461	-0.011512
H344	H	0.633046	-0.330913	-0.036068
H345	H	0.600488	-0.347191	0.008223
H346	H	-0.562326	-0.306401	0.308670
C347	C	-0.111866	-0.527728	0.355121
H348	H	-0.088023	-0.501950	0.347299
H349	H	-0.133986	-0.528173	0.354534
H350	H	-0.101421	-0.539899	0.338237
C351	C	0.111062	-0.295327	0.303359
H352	H	0.119530	-0.286740	0.278190
H353	H	0.134602	-0.293867	0.302057
H354	H	0.104450	-0.279614	0.317129
H355	H	0.102606	-0.218843	0.013783
C356	C	0.443433	-0.020937	-0.422253
H357	H	0.426847	-0.037635	-0.430837
H358	H	0.472915	-0.013774	-0.437968
H359	H	0.443585	0.001301	-0.423707
C360	C	0.053763	-0.192095	-0.355686
H361	H	0.043915	-0.176146	-0.347776
H362	H	0.059553	-0.198530	-0.338855
H363	H	0.031540	-0.214809	-0.355133
C364	C	-0.112320	0.262777	0.355579
H365	H	-0.088462	0.260837	0.347670
H366	H	-0.101923	0.285396	0.338745
H367	H	-0.134483	0.241106	0.355029
C368	C	0.215916	0.173788	-0.511749
H369	H	0.223675	0.156779	-0.520787
H370	H	0.239182	0.194735	-0.511739
H371	H	0.211170	0.183001	-0.528017
C372	C	0.443200	0.311134	-0.422269
H373	H	0.468482	0.311245	-0.430852
H374	H	0.451753	0.333452	-0.437984
H375	H	0.422418	0.289049	-0.423724
C376	C	0.324581	-0.139788	-0.303402
H377	H	0.316112	-0.148374	-0.320102
H378	H	0.301042	-0.141246	-0.281163
H379	H	0.331190	-0.155502	-0.296244
H380	H	0.100165	-0.026535	-0.411435
H381	H	-0.182070	-0.115902	0.013781
H382	H	0.437704	-0.306410	-0.028878
C383	C	0.547777	0.092870	-0.355677
H384	H	0.563583	0.109950	-0.346730
H385	H	0.550129	0.071937	-0.355671
H386	H	0.517550	0.083648	-0.339344
H387	H	-0.117197	0.263199	0.468949
C388	C	0.547512	0.301620	-0.474315
H389	H	0.563309	0.300331	-0.499062
H390	H	0.549846	0.324895	-0.476686
H391	H	0.517288	0.280605	-0.460402
C392	C	-0.737460	-0.527950	0.474495
H393	H	-0.763504	-0.544955	0.499267
H394	H	-0.744513	-0.518736	0.460537
H395	H	-0.716500	-0.507002	0.476814
C396	C	-0.008002	0.253294	0.422171
H397	H	0.008586	0.253185	0.430755
H398	H	-0.037486	0.230980	0.437893
H399	H	-0.008147	0.275383	0.423615
H400	H	-0.002293	-0.408830	0.308704
C401	C	0.172614	-0.072942	0.019476
H402	H	0.154656	-0.065121	0.021414
H403	H	0.201664	-0.056068	-0.003141
H404	H	0.173651	-0.072345	0.041150
H405	H	0.100131	-0.026521	0.028807
C406	C	-0.737223	-0.362129	0.474235
H407	H	-0.763259	-0.371080	0.498983
H408	H	-0.716320	-0.362169	0.476605
H409	H	-0.744328	-0.378439	0.460322
C410	C	-0.112339	-0.192078	0.019451
H411	H	-0.088481	-0.176131	0.021390
H412	H	-0.101944	-0.198516	-0.003169
H413	H	-0.134501	-0.214791	0.041122
H414	H	-0.447603	-0.248768	0.184232
C415	C	0.219032	-0.229761	-0.108681
H416	H	0.211368	-0.238712	-0.125765
H417	H	0.195719	-0.229798	-0.087738
H418	H	0.223737	-0.246072	-0.099475
C419	C	0.172620	-0.243274	0.189537
H420	H	0.198649	-0.218523	0.172456
H421	H	0.179725	-0.257182	0.198746
H422	H	0.151709	-0.240906	0.210480
H423	H	-0.629638	-0.533721	0.366252
C424	C	0.324349	-0.414420	-0.029029
H425	H	0.315886	-0.439587	-0.029148
H426	H	0.330950	-0.400651	-0.051344
H427	H	0.300804	-0.415730	-0.006940
C428	C	0.381952	0.301641	-0.474579
H429	H	0.389716	0.300365	-0.499349
H430	H	0.377207	0.280630	-0.460618
H431	H	0.405219	0.324920	-0.476899
C432	C	0.443207	-0.414414	-0.029040
H433	H	0.468491	-0.397714	-0.029155
H434	H	0.451758	-0.421574	-0.051361
H435	H	0.422428	-0.436652	-0.006957
H436	H	0.617258	-0.216240	-0.013873
C437	C	-0.187406	-0.229494	-0.108441
H438	H	-0.211255	-0.237319	-0.082665
H439	H	-0.165299	-0.230099	-0.108880
H440	H	-0.197848	-0.246364	-0.120622
C441	C	-0.452491	-0.362141	0.189515
H442	H	-0.476355	-0.370054	0.215310
H443	H	-0.430332	-0.362696	0.189023
H444	H	-0.462887	-0.378973	0.177287
H445	H	0.205343	-0.115928	-0.501596
H446	H	0.552629	0.098160	-0.469035
H447	H	-0.629125	-0.248761	0.365741
H448	H	0.205048	-0.216515	0.398819
H449	H	-0.182060	-0.603623	0.501016
H450	H	0.064523	-0.351759	0.184259
H451	H	0.370598	-0.083850	-0.184076
H452	H	0.552621	-0.351498	-0.019128
H453	H	0.617241	0.295963	-0.398133
H454	H	-0.562304	-0.409050	0.308680
C455	C	-0.187390	0.268879	0.393240
H456	H	-0.211229	0.270821	0.409258
H457	H	-0.197836	0.246260	0.386811
H458	H	-0.165273	0.290549	0.370528
C459	C	0.622583	0.295523	-0.511717
H460	H	0.606855	0.296803	-0.520758
H461	H	0.620253	0.272247	-0.511705
H462	H	0.652812	0.316537	-0.527985
C463	C	0.096955	-0.325001	0.512185
H464	H	0.114835	-0.309052	0.520100
H465	H	0.095905	-0.347716	0.512743
H466	H	0.067897	-0.331432	0.529012
C467	C	0.172615	-0.243272	0.355623
H468	H	0.198648	-0.218523	0.346672
H469	H	0.151707	-0.240905	0.355589
H470	H	0.179722	-0.257181	0.339308
H471	H	0.230362	0.296001	-0.113978
C472	C	0.338441	-0.205596	-0.013441
H473	H	0.320554	-0.197685	-0.011500
H474	H	0.367498	-0.188765	-0.036064
H475	H	0.339487	-0.205043	0.008227
H476	H	0.267897	-0.186572	-0.184305
C477	C	0.262790	-0.192097	-0.355168
H478	H	0.236747	-0.216868	-0.346133
H479	H	0.255735	-0.178140	-0.338898
H480	H	0.283751	-0.194415	-0.355183
H481	H	0.370892	0.301275	-0.184323
H482	H	-0.770155	-0.603608	0.501511
C483	C	-0.377412	-0.324482	0.108349
H484	H	-0.393148	-0.349252	0.125358
H485	H	-0.347185	-0.310524	0.099135
H486	H	-0.379742	-0.326803	0.087401
H487	H	-0.382753	-0.216236	0.114110
C488	C	0.097506	0.173813	0.013353
H489	H	0.115464	0.199592	0.011415
H490	H	0.068456	0.161640	0.035971
H491	H	0.096470	0.173371	-0.008321
H492	H	0.437704	0.310998	-0.308766
H493	H	0.230097	-0.219111	-0.398135
C494	C	0.219282	-0.324495	-0.013422
H495	H	0.211520	-0.349265	-0.014696
H496	H	0.224025	-0.310537	-0.034433
H497	H	0.196014	-0.326815	0.009858
H498	H	0.102633	-0.218858	-0.398880
H499	H	0.370607	-0.083853	-0.468752
H500	H	0.100149	0.253421	0.308676
C501	C	-0.007787	-0.414177	0.422206
H502	H	-0.033070	-0.439347	0.430790
H503	H	-0.016339	-0.400410	0.437921
H504	H	0.012995	-0.415479	0.423661
C505	C	0.622574	0.173783	-0.512222
H506	H	0.606770	0.156703	-0.521170
H507	H	0.652797	0.182995	-0.528539
H508	H	0.620235	0.194724	-0.512249
H509	H	0.370881	-0.248784	-0.019122
C510	C	-0.187153	-0.110349	-0.108708
H511	H	-0.171355	-0.085601	-0.125793
H512	H	-0.184822	-0.107978	-0.087766
H513	H	-0.217377	-0.124260	-0.099501
H514	H	-0.666703	-0.216219	0.398058
H515	H	-0.182052	0.268464	0.501484
C516	C	0.622824	0.174045	-0.393330
H517	H	0.646665	0.199824	-0.409349
H518	H	0.633268	0.161871	-0.386899
H519	H	0.600708	0.173603	-0.370619
C520	C	-0.780720	-0.324458	0.511641
H521	H	-0.790480	-0.308438	0.519462
H522	H	-0.774979	-0.330890	0.528518
H523	H	-0.802989	-0.347169	0.512237
C524	C	0.216123	-0.205863	0.108371
H525	H	0.225879	-0.198037	0.082594
H526	H	0.238392	-0.205264	0.108812
H527	H	0.210374	-0.188990	0.120550
H528	H	0.064821	0.263164	0.184001
H529	H	-0.002509	-0.129196	-0.308775
H530	H	0.205322	0.268398	0.114116
C531	C	0.338450	0.295540	-0.512243
H532	H	0.364478	0.296815	-0.521190
H533	H	0.345556	0.316549	-0.528562
H534	H	0.317537	0.272259	-0.512270
H535	H	0.064321	0.097912	-0.365848
C536	C	0.097511	0.268829	0.108342
H537	H	0.115462	0.270755	0.082565
H538	H	0.096473	0.290500	0.108780
H539	H	0.068459	0.246209	0.120521
C540	C	0.053754	0.262789	0.474230
H541	H	0.043905	0.260849	0.458282
H542	H	0.059546	0.285412	0.480663
H543	H	0.031530	0.241122	0.496946
H544	H	0.333309	0.296016	-0.114204
H545	H	0.552391	0.301235	-0.365822
H546	H	-0.664969	-0.409045	0.411340
C547	C	0.381960	-0.527970	-0.019556
H548	H	0.389725	-0.544976	-0.018286
H549	H	0.377217	-0.518755	0.001456
H550	H	0.405224	-0.507023	-0.042835
H551	H	-0.002500	-0.026531	-0.308780
C552	C	-0.662337	-0.609382	0.393270
H553	H	-0.680296	-0.635160	0.409290
H554	H	-0.633288	-0.597208	0.386838
H555	H	-0.661299	-0.608940	0.370559
C556	C	0.219302	0.295549	-0.393359
H557	H	0.209542	0.293608	-0.409378
H558	H	0.225046	0.318168	-0.386930
H559	H	0.197032	0.273878	-0.370646
C560	C	-0.112323	-0.192085	-0.189607
H561	H	-0.128128	-0.216836	-0.172524
H562	H	-0.082101	-0.178178	-0.198816
H563	H	-0.114659	-0.194454	-0.210548
H564	H	0.267945	0.301232	-0.366341
C565	C	-0.008037	-0.021181	0.028972
H566	H	0.008545	0.003987	0.029092
H567	H	-0.037515	-0.034959	0.051299
H568	H	-0.008203	-0.019874	0.006895
C569	C	0.262802	0.301670	-0.189608
H570	H	0.236774	0.300397	-0.172528
H571	H	0.255695	0.280657	-0.198815
H572	H	0.283714	0.324947	-0.210551
C573	C	0.172621	0.092383	0.019469
H574	H	0.198664	0.109389	0.018198
H575	H	0.179676	0.083167	-0.001542
H576	H	0.151659	0.071437	0.042749
C577	C	0.172625	0.262723	0.189778
H578	H	0.198672	0.263999	0.172771
H579	H	0.151665	0.239448	0.210726
H580	H	0.179681	0.283739	0.198990
C581	C	0.172627	0.262750	0.355098
H582	H	0.198669	0.264019	0.346064
H583	H	0.179684	0.283760	0.338826
H584	H	0.151665	0.239470	0.355115
C585	C	0.096963	-0.325002	0.108632
H586	H	0.070927	-0.349750	0.125716
H587	H	0.117867	-0.327373	0.087689
H588	H	0.089858	-0.311090	0.099427
C589	C	0.262796	-0.528234	-0.019528
H590	H	0.280680	-0.502438	-0.021464
H591	H	0.233739	-0.540462	0.003095
H592	H	0.261749	-0.528724	-0.041196
C593	C	0.216386	0.268852	0.392506
H594	H	0.224056	0.267571	0.367755
H595	H	0.211689	0.247842	0.406416
H596	H	0.239696	0.292132	0.390136
H597	H	-0.117212	-0.083598	-0.184336
H598	H	0.167269	0.098131	-0.468782
C599	C	-0.008026	-0.140026	0.028956
H600	H	0.008556	-0.148613	0.029075
H601	H	-0.008184	-0.141487	0.006875
H602	H	-0.037508	-0.155737	0.051279
C603	C	0.096760	0.173535	-0.392609
H604	H	0.070730	0.156456	-0.367857
H605	H	0.089656	0.182747	-0.406516
H606	H	0.117671	0.194476	-0.390241
C607	C	-0.186931	-0.608898	0.392523
H608	H	-0.171127	-0.591816	0.367771
H609	H	-0.217153	-0.618108	0.406431
H610	H	-0.184592	-0.629838	0.390153
C611	C	-0.112091	-0.072936	0.019461
H612	H	-0.127825	-0.063899	0.018188
H613	H	-0.081863	-0.056668	-0.001551
H614	H	-0.114424	-0.072948	0.042740
C615	C	0.097514	0.268888	0.511640
H616	H	0.115471	0.270827	0.519462
H617	H	0.068463	0.246274	0.528518
H618	H	0.096480	0.290563	0.512229
H619	H	0.205307	-0.115910	0.013801
H620	H	-0.117201	-0.533500	0.468702
C621	C	0.053459	-0.362414	0.474516
H622	H	0.045694	-0.371450	0.499287
H623	H	0.058203	-0.378682	0.460557
H624	H	0.030193	-0.362401	0.476836
C625	C	0.262793	-0.362152	-0.019526
H626	H	0.236765	-0.371100	-0.018250
H627	H	0.255689	-0.378471	0.001482
H628	H	0.283708	-0.362178	-0.042808
H629	H	0.333315	-0.603629	-0.013877
H630	H	-0.182293	-0.218837	0.013775
C631	C	0.216381	0.173549	0.013372
H632	H	0.224051	0.156467	0.014651
H633	H	0.211684	0.182761	0.034384
H634	H	0.239692	0.194489	-0.009907
C635	C	0.547279	-0.243254	-0.019553
H636	H	0.563014	-0.218482	-0.018281
H637	H	0.517052	-0.257210	0.001459
H638	H	0.549612	-0.240936	-0.042832
H639	H	0.230365	-0.603862	-0.013858
