data_functionalizedCrystal
_audit_creation_method	'MofGen! by Chris Wilmer'
_symmetry_space_group_name_H-M	'P1'
_symmetry_Int_Tables_number	1
_symmetry_cell_setting	triclinic
loop_
_symmetry_equiv_pos_as_xyz
  x,y,z
_cell_length_a	11.026607
_cell_length_b	11.026607
_cell_length_c	9.482900
_cell_angle_alpha	101.400185
_cell_angle_beta	78.636152
_cell_angle_gamma	108.586017
loop_
_atom_site_label
_atom_site_type_symbol
_atom_site_fract_x
_atom_site_fract_y
_atom_site_fract_z
O1	O	1.742236	0.518010	-0.120892
O2	O	1.375656	0.457246	-0.120894
O3	O	1.528564	0.304339	-0.120888
O4	O	1.589328	0.670917	-0.120898
O5	O	1.497539	0.335557	0.120903
O6	O	1.344632	0.488465	0.120897
O7	O	1.711212	0.549228	0.120899
Cu8	Cu	1.525089	0.521697	0.142976
Cu9	Cu	1.561779	0.484778	-0.142971
O10	O	1.558304	0.702136	0.120893
C11	C	1.312485	0.461645	0.000001
C12	C	1.170471	0.428228	0.000000
C13	C	1.116822	0.520498	-0.000003
C14	C	0.970043	0.485962	-0.000004
C15	C	1.501842	0.272288	0.000006
C16	C	1.468426	0.130273	0.000000
C17	C	1.560695	0.076624	-0.000001
C18	C	1.526161	-0.070155	-0.000007
C19	C	1.774384	0.544829	0.000001
C20	C	1.916399	0.578244	-0.000008
C21	C	1.585026	0.734186	-0.000004
C22	C	1.618444	0.876199	-0.000008
N23	N	1.499293	0.547665	0.344095
N24	N	1.587583	0.458801	-0.344090
C25	C	1.554160	0.492428	0.416296
C26	C	1.532708	0.514046	0.583713
H27	H	1.179554	0.625061	0.000002
H28	H	0.907319	0.381388	-0.000039
O29	O	0.991420	0.702921	-0.000100
C30	C	1.206101	0.851033	-0.000068
C31	C	1.121294	0.709787	0.000018
H32	H	1.311117	0.856634	0.000058
H33	H	1.198029	0.887467	-0.101296
H34	H	1.171912	0.913585	0.101083
H35	H	1.155426	0.647134	-0.101065
H36	H	1.129372	0.673458	0.101312
H37	H	1.107742	0.323661	-0.000034
O38	O	1.457520	0.589388	0.657748
C39	C	1.246541	0.622221	0.704586
C40	C	1.331536	0.536772	0.620675
H41	H	1.144673	0.579729	0.674621
H42	H	1.242486	0.626180	0.826421
H43	H	1.289579	0.724082	0.674760
H44	H	1.288564	0.434870	0.650379
H45	H	1.335590	0.532923	0.498861
H46	H	1.665257	0.139358	0.000009
H47	H	1.421592	-0.132886	-0.000017
H48	H	1.723028	-0.061087	-0.000117
H49	H	1.436432	0.610955	0.406222
O50	O	1.343623	0.055623	-0.000069
C51	C	1.123126	0.049243	0.000017
C52	C	1.264419	0.133926	0.000063
H53	H	1.059046	0.112520	0.000155
H54	H	1.115777	-0.026770	-0.101200
H55	H	1.089944	-0.000711	0.101179
H56	H	1.297692	0.183966	-0.101030
H57	H	1.271688	0.209862	0.101347
H58	H	1.617009	0.429128	0.354171
O59	O	1.662298	0.383085	0.581589
C60	C	1.751287	0.291994	0.346962
C61	C	1.666857	0.377981	0.430948
H62	H	1.754979	0.287817	0.225155
H63	H	1.853336	0.334160	0.376455
H64	H	1.707973	0.190264	0.377116
H65	H	1.710057	0.479729	0.400839
H66	H	1.564818	0.335710	0.401448
