data_functionalizedCrystal
_audit_creation_method	'MofGen! by Chris Wilmer'
_symmetry_space_group_name_H-M	'P1'
_symmetry_Int_Tables_number	1
_symmetry_cell_setting	triclinic
loop_
_symmetry_equiv_pos_as_xyz
  x,y,z
_cell_length_a	17.699083
_cell_length_b	15.944551
_cell_length_c	16.776229
_cell_angle_alpha	89.992397
_cell_angle_beta	89.998886
_cell_angle_gamma	83.390877
loop_
_atom_site_label
_atom_site_type_symbol
_atom_site_fract_x
_atom_site_fract_y
_atom_site_fract_z
O1	O	1.004260	0.106222	-0.066178
O2	O	0.783905	0.120042	-0.066204
O3	O	0.900100	-0.009156	-0.066183
O4	O	0.888065	0.235419	-0.066199
O5	O	0.900084	-0.009164	0.066393
O6	O	0.783890	0.120034	0.066372
O7	O	1.004244	0.106214	0.066398
Zn8	Zn	0.894065	0.113123	0.087435
Zn9	Zn	0.894085	0.113133	-0.087241
O10	O	0.888050	0.235411	0.066377
C11	C	0.755700	0.119542	0.000080
C12	C	0.671679	0.118057	0.000071
C13	C	0.899593	-0.040453	0.000105
C14	C	0.898095	-0.133696	0.000105
C15	C	0.623187	0.193893	0.000066
C16	C	0.544242	0.192492	0.000076
C17	C	0.513789	0.115254	0.000086
C18	C	0.562287	0.039412	0.000093
C19	C	0.641231	0.040814	0.000088
C20	C	0.243914	0.033758	0.000113
C21	C	0.164964	0.032362	0.000115
C22	C	0.146925	0.185436	0.000101
C23	C	0.225869	0.186837	0.000096
C24	C	0.274360	0.110996	0.000108
C25	C	0.359962	0.112516	0.000098
C26	C	0.428189	0.113733	0.000090
C27	C	0.822492	-0.348393	0.000085
C28	C	0.857592	-0.409488	0.065458
C29	C	0.895385	-0.304416	0.000099
C30	C	0.857624	-0.409464	-0.065252
C31	C	0.892762	-0.469323	0.000089
C32	C	0.930505	-0.364283	0.065525
C33	C	0.930527	-0.364252	-0.065244
C34	C	0.965680	-0.425329	0.000145
C35	C	0.896894	-0.209417	0.000105
C36	C	0.891259	-0.564321	0.000089
C37	C	1.032450	0.106713	0.000112
C38	C	1.116471	0.108199	0.000116
C39	C	0.888557	0.266708	0.000087
C40	C	0.890055	0.359951	0.000082
N41	N	0.894056	0.113115	0.206646
N42	N	0.894099	0.113134	-0.206452
C43	C	0.945523	0.055930	0.248372
C44	C	0.945527	0.055929	0.331824
C45	C	0.894068	0.113118	0.373549
C46	C	0.842595	0.170306	0.331816
C47	C	0.842588	0.170302	0.248366
C48	C	0.842623	0.170323	0.668364
C49	C	0.842636	0.170324	0.751820
C50	C	0.945562	0.055949	0.751822
C51	C	0.945555	0.055945	0.668372
C52	C	0.894080	0.113130	0.626647
C53	C	0.894075	0.113129	0.536158
C54	C	0.894076	0.113124	0.464036
H55	H	0.647975	0.256789	0.000058
H56	H	0.826790	-0.429473	-0.120524
H57	H	0.537486	-0.023476	0.000112
O58	O	0.099896	0.259166	0.000204
C59	C	0.060297	0.389554	0.068896
C60	C	0.113609	0.306098	0.068874
H61	H	0.071354	0.427514	0.124418
H62	H	0.071377	0.427630	0.013444
H63	H	-0.001352	0.375269	0.068865
H64	H	0.175277	0.320306	0.068933
H65	H	0.102463	0.268047	0.124321
H66	H	1.026238	-0.458615	0.000189
H67	H	0.987473	0.009384	0.785804
O68	O	0.820880	-0.433323	0.131464
C69	C	0.817023	-0.436327	0.275005
C70	C	0.858666	-0.409274	0.200325
H71	H	0.847565	-0.416910	0.330698
H72	H	0.755991	-0.404378	0.274982
H73	H	0.816710	-0.507784	0.274617
H74	H	0.859037	-0.337827	0.200665
H75	H	0.919677	-0.441284	0.200377
H76	H	0.283386	-0.027997	0.000123
O77	O	0.688416	-0.032798	-0.000017
C78	C	0.787986	-0.120074	-0.068720
C79	C	0.734607	-0.036668	-0.068696
H80	H	0.825334	-0.123239	-0.124250
H81	H	0.825450	-0.123258	-0.013276
H82	H	0.752647	-0.175507	-0.068676
H83	H	0.769885	0.018811	-0.068769
H84	H	0.697140	-0.033559	-0.124135
H85	H	0.961338	-0.344183	-0.120506
O86	O	0.255576	0.261793	0.000042
C87	C	0.369198	0.331792	0.000057
C88	C	0.335659	0.246845	0.000103
H89	H	0.433949	0.319737	0.000124
H90	H	0.349277	0.369268	-0.055444
H91	H	0.349188	0.369265	0.055522
H92	H	0.355653	0.209304	-0.055324
H93	H	0.355576	0.209434	0.055642
H94	H	0.761987	-0.314958	0.000143
O95	O	0.995506	0.000444	0.627740
C96	C	1.098637	-0.017815	0.533260
C97	C	1.042197	0.045177	0.579281
H98	H	1.136391	0.018326	0.494057
H99	H	1.135487	-0.058772	0.577307
H100	H	1.065774	-0.059644	0.494305
H101	H	1.074998	0.087061	0.618238
H102	H	1.005347	0.086075	0.535192
H103	H	0.987430	0.009363	0.214406
O104	O	0.995604	0.000357	0.372234
C105	C	1.097685	-0.113103	0.363429
C106	C	1.041020	-0.050201	0.317568
H107	H	1.134408	-0.154007	0.319252
H108	H	1.135542	-0.076919	0.402462
H109	H	1.065011	-0.154989	0.402535
H110	H	1.073633	-0.008299	0.278418
H111	H	1.003164	-0.086437	0.278585
H112	H	0.140173	-0.030538	0.000124
H113	H	0.800728	0.216896	0.785791
H114	H	0.961304	-0.344360	0.120853
O115	O	0.792598	0.225954	0.627963
C116	C	0.690479	0.339371	0.636775
C117	C	0.747105	0.276423	0.682632
H118	H	0.653672	0.380179	0.680955
H119	H	0.723108	0.381346	0.597714
H120	H	0.652698	0.303141	0.597697
H121	H	0.784899	0.312584	0.721753
H122	H	0.714428	0.234449	0.721643
O123	O	0.792680	0.225828	0.372468
C124	C	0.747046	0.276497	0.501025
C125	C	0.803626	0.213582	0.455089
H126	H	0.755865	0.266606	0.567831
H127	H	0.756906	0.343779	0.484661
H128	H	0.686434	0.265643	0.484580
H129	H	0.864259	0.224359	0.471509
H130	H	0.793700	0.146322	0.471456
O131	O	0.497245	0.266237	0.000035
C132	C	0.487684	0.418219	0.000066
C133	C	0.540993	0.334762	0.000091
H134	H	0.523032	0.473643	0.000128
H135	H	0.450282	0.421450	-0.055426
H136	H	0.450263	0.421343	0.055540
H137	H	0.578462	0.331582	-0.055346
H138	H	0.578344	0.331565	0.055620
O139	O	0.792567	0.225935	0.207954
C140	C	0.690444	0.339350	0.216753
C141	C	0.747068	0.276406	0.262617
H142	H	0.653633	0.380160	0.260929
H143	H	0.723076	0.381323	0.177693
H144	H	0.652668	0.303116	0.177674
H145	H	0.784859	0.312570	0.301740
H146	H	0.714390	0.234433	0.301627
