data_functionalizedCrystal
_audit_creation_method	'MofGen! by Chris Wilmer'
_symmetry_space_group_name_H-M	'P1'
_symmetry_Int_Tables_number	1
_symmetry_cell_setting	triclinic
loop_
_symmetry_equiv_pos_as_xyz
  x,y,z
_cell_length_a	13.032831
_cell_length_b	12.594516
_cell_length_c	13.032268
_cell_angle_alpha	97.152436
_cell_angle_beta	90.886977
_cell_angle_gamma	82.821304
loop_
_atom_site_label
_atom_site_type_symbol
_atom_site_fract_x
_atom_site_fract_y
_atom_site_fract_z
Zn1	Zn	1.498496	-0.718822	-0.780872
Zn2	Zn	1.520242	-0.877407	-0.608900
Zn3	Zn	1.348353	-0.674358	-0.587111
Zn4	Zn	1.326490	-0.871652	-0.759025
O5	O	1.423395	-0.785560	-0.683977
O6	O	1.645302	-0.760876	-0.776322
O7	O	1.515691	-0.834272	-0.462092
O8	O	1.368319	-0.531320	-0.612838
O9	O	1.661279	-0.877387	-0.649975
O10	O	1.478628	-0.563987	-0.755193
O11	O	1.389406	-0.685093	-0.446084
O12	O	1.201532	-0.679512	-0.591654
O13	O	1.331056	-0.867579	-0.905841
O14	O	1.185469	-0.824463	-0.717958
O15	O	1.457428	-0.755295	-0.921892
O16	O	1.494491	-1.025580	-0.628791
O17	O	1.352143	-1.021351	-0.739087
C18	C	1.156183	-0.746539	-0.650071
C19	C	1.041866	-0.729875	-0.635591
C20	C	1.423329	-1.062090	-0.683958
C21	C	1.423391	-1.180408	-0.683997
C22	C	0.982991	-0.794257	-0.691535
C23	C	0.864838	-0.777035	-0.676569
C24	C	1.345967	-1.247394	-0.743938
C25	C	1.332833	-1.304009	-0.646920
C26	C	1.436617	-1.334607	-0.781043
C27	C	1.410213	-1.235453	-0.586923
C28	C	1.514033	-1.266057	-0.721115
C29	C	1.500943	-1.322639	-0.624037
C30	C	1.691651	-0.824733	-0.718016
C31	C	1.805965	-0.841426	-0.732521
C32	C	1.389378	-0.815755	-0.952226
C33	C	1.374882	-0.828622	-1.066537
C34	C	1.423487	-0.507956	-0.684022
C35	C	1.423526	-0.389658	-0.684041
C36	C	1.430945	-0.778803	-1.125443
C37	C	1.415964	-0.792101	-1.243590
C38	C	1.457340	-0.755414	-0.416779
C39	C	1.472035	-0.742276	-0.302494
H40	H	0.827774	-0.709156	-0.617595
H41	H	1.315786	-0.881111	-1.103573
H42	H	1.020059	-0.862124	-0.750512
C43	C	0.855251	-0.932079	-0.811089
C44	C	0.832016	-1.031039	-0.785261
C45	C	0.877389	-1.114567	-0.857620
H46	H	0.928103	-0.931780	-0.810764
H47	H	0.828920	-0.921918	-0.878023
H48	H	0.858351	-1.041197	-0.718344
H49	H	0.759172	-1.031373	-0.785594
H50	H	0.851058	-1.104406	-0.924554
H51	H	0.950239	-1.114258	-0.857289
H52	H	0.861623	-1.181720	-0.840111
C53	C	0.992263	-0.639479	-0.556955
C54	C	0.884938	-0.640399	-0.557712
C55	C	0.839215	-0.557155	-0.485269
H56	H	1.007788	-0.572162	-0.574235
H57	H	1.018517	-0.649717	-0.490009
H58	H	0.858694	-0.630152	-0.624643
H59	H	0.869383	-0.707696	-0.540421
H60	H	0.865469	-0.567393	-0.418324
H61	H	0.854748	-0.489844	-0.502556
H62	H	0.766392	-0.557774	-0.485767
C63	C	1.337244	-0.862275	-1.292832
C64	C	1.362873	-0.967931	-1.269577
C65	C	1.290375	-1.032600	-1.314910
H66	H	1.337578	-0.862047	-1.365686
H67	H	1.270343	-0.834706	-1.266485
H68	H	1.429757	-0.995493	-1.295929
H69	H	1.362532	-0.968192	-1.196732
H70	H	1.223473	-1.005032	-1.288563
H71	H	1.290713	-1.032364	-1.387762
H72	H	1.307748	-1.104293	-1.299130
C73	C	1.258399	-1.203422	-0.811242
C74	C	1.163768	-1.222051	-0.771934
C75	C	1.083078	-1.181544	-0.833894
H76	H	1.266971	-1.238614	-0.879936
H77	H	1.259274	-1.128104	-0.811226
H78	H	1.162894	-1.297354	-0.771961
H79	H	1.155162	-1.186858	-0.703248
H80	H	1.083953	-1.106226	-0.833878
H81	H	1.091660	-1.216739	-0.902585
H82	H	1.018861	-1.194169	-0.807227
C83	C	1.550795	-0.672335	-1.252935
C84	C	1.550010	-0.673060	-1.145605
C85	C	1.622548	-0.608645	-1.099918
H86	H	1.533618	-0.600547	-1.268486
H87	H	1.617721	-0.699951	-1.279189
H88	H	1.483100	-0.645439	-1.119360
H89	H	1.567199	-0.744831	-1.130024
H90	H	1.689474	-0.636262	-1.126171
H91	H	1.605364	-0.536861	-1.115477
H92	H	1.622032	-0.609136	-1.027091
H93	H	1.398991	-1.192486	-0.504836
H94	H	1.256241	-1.321250	-0.615556
C95	C	1.616065	-1.243140	-0.763193
C96	C	1.629431	-1.293716	-0.864845
C97	C	1.723403	-1.272616	-0.903658
H98	H	1.671290	-1.270120	-0.721445
H99	H	1.615509	-1.167530	-0.762332
H100	H	1.629996	-1.369310	-0.865700
H101	H	1.574230	-1.266745	-0.906618
H102	H	1.722847	-1.197006	-0.902796
H103	H	1.778620	-1.299597	-0.861902
H104	H	1.732479	-1.306920	-0.972635
H105	H	1.566484	-1.355404	-0.573298
C106	C	1.451316	-1.391892	-0.890523
C107	C	1.369986	-1.353591	-0.952904
C108	C	1.383490	-1.406321	-1.053766
H109	H	1.451857	-1.467287	-0.889818
H110	H	1.515105	-1.378230	-0.917339
H111	H	1.306213	-1.367261	-0.926095
H112	H	1.369430	-1.278203	-0.953640
H113	H	1.447279	-1.392659	-1.080582
H114	H	1.384033	-1.481713	-1.053050
H115	H	1.328316	-1.380334	-1.096106
H116	H	1.490030	-0.726303	-1.088406
