data_functionalizedCrystal
_audit_creation_method	'MofGen! by Chris Wilmer'
_symmetry_space_group_name_H-M	'P1'
_symmetry_Int_Tables_number	1
_symmetry_cell_setting	triclinic
loop_
_symmetry_equiv_pos_as_xyz
  x,y,z
_cell_length_a	19.121368
_cell_length_b	19.121102
_cell_length_c	19.120904
_cell_angle_alpha	90.088173
_cell_angle_beta	90.118909
_cell_angle_gamma	90.107979
loop_
_atom_site_label
_atom_site_type_symbol
_atom_site_fract_x
_atom_site_fract_y
_atom_site_fract_z
Zn1	Zn	0.342325	1.041030	-0.426932
Zn2	Zn	0.454581	1.041419	-0.304733
Zn3	Zn	0.332371	0.929201	-0.305155
Zn4	Zn	0.454111	0.919250	-0.416957
O5	O	0.395847	0.982725	-0.363444
O6	O	0.361579	1.139011	-0.414720
O7	O	0.434401	1.030861	-0.206860
O8	O	0.235764	0.948037	-0.325661
O9	O	0.444053	1.139297	-0.324941
O10	O	0.243077	1.030197	-0.415129
O11	O	0.344614	0.948414	-0.207170
O12	O	0.344158	0.829951	-0.315988
O13	O	0.443251	0.931077	-0.516209
O14	O	0.433599	0.822640	-0.398128
O15	O	0.361122	1.020548	-0.523538
O16	O	0.552446	1.021211	-0.315269
O17	O	0.552101	0.931454	-0.397719
C18	C	0.387748	0.800904	-0.356022
C19	C	0.384300	0.723119	-0.352862
C20	C	0.429313	0.682787	-0.394070
C21	C	0.426064	0.609700	-0.391105
C22	C	0.377807	0.576945	-0.346928
C23	C	0.332789	0.617282	-0.305719
C24	C	0.336035	0.690368	-0.308688
C25	C	0.365672	0.356463	-0.335831
C26	C	0.362431	0.283371	-0.332864
C27	C	0.455706	0.275794	-0.418252
C28	C	0.458949	0.348882	-0.421214
C29	C	0.413930	0.389212	-0.380007
C30	C	0.374487	0.502238	-0.343895
C31	C	0.417247	0.463918	-0.383044
C32	C	0.213319	0.990184	-0.371555
C33	C	0.135536	0.993362	-0.375011
C34	C	0.095185	0.952082	-0.330055
C35	C	0.022100	0.955067	-0.333309
C36	C	-0.010632	0.999337	-0.381517
C37	C	0.029724	1.040619	-0.426477
C38	C	0.102807	1.037629	-0.423226
C39	C	-0.231107	1.010499	-0.393668
C40	C	-0.304195	1.013486	-0.396914
C41	C	-0.311814	0.927933	-0.303746
C42	C	-0.238729	0.924951	-0.300496
C43	C	-0.198379	0.966230	-0.345460
C44	C	-0.085337	1.002390	-0.384843
C45	C	-0.123676	0.963172	-0.342136
C46	C	0.577667	0.975313	-0.355381
C47	C	0.655454	0.972206	-0.351958
C48	C	0.403244	0.974659	-0.545976
C49	C	0.406397	0.971222	-0.623760
C50	C	0.403978	1.165256	-0.370896
C51	C	0.407443	1.243040	-0.374072
C52	C	0.365120	1.016188	-0.664119
C53	C	0.368079	1.012950	-0.737205
C54	C	0.412319	0.964749	-0.769930
C55	C	0.453597	0.919778	-0.729565
C56	C	0.450634	0.923013	-0.656481
C57	C	0.423401	0.952647	-0.990408
C58	C	0.426363	0.949417	-1.063498
C59	C	0.340843	1.042588	-1.071133
C60	C	0.337887	1.045822	-0.998047
C61	C	0.379163	1.000848	-0.957688
C62	C	0.415346	0.961439	-0.844636
C63	C	0.376131	1.004155	-0.882984
C64	C	0.388429	0.990802	-0.181627
C65	C	0.385086	0.994382	-0.103858
H66	H	0.293494	0.590608	-0.269752
O67	O	0.499330	0.236584	-0.458360
C68	C	0.459511	0.193927	-0.503657
H69	H	0.405559	0.218004	-0.511405
H70	H	0.453730	0.139587	-0.479882
C71	C	0.562971	0.158637	-0.565271
C72	C	0.496707	0.188212	-0.574792
H73	H	0.585916	0.155108	-0.609150
H74	H	0.589798	0.187374	-0.534752
H75	H	0.558144	0.113357	-0.545456
H76	H	0.501535	0.233494	-0.594598
H77	H	0.469881	0.159483	-0.605316
H78	H	0.462719	0.576865	-0.424661
H79	H	0.121830	0.916035	-0.290797
H80	H	0.489616	0.880529	-0.756216
H81	H	0.335197	0.475562	-0.307924
H82	H	0.498248	0.375545	-0.457186
O83	O	-0.016992	0.914949	-0.289561
C84	C	0.027570	0.875228	-0.246322
H85	H	0.080847	0.901868	-0.242758
H86	H	0.034012	0.820624	-0.269424
C87	C	-0.069857	0.836892	-0.177073
C88	C	-0.004423	0.869616	-0.172691
H89	H	-0.089593	0.833427	-0.131655
H90	H	-0.099880	0.863651	-0.206206
H91	H	-0.064480	0.791393	-0.196328
H92	H	-0.009802	0.915117	-0.153446
H93	H	0.025598	0.842865	-0.143554
H94	H	0.468612	0.709450	-0.430042
H95	H	0.456535	0.490589	-0.419016
H96	H	-0.111993	1.038437	-0.424093
H97	H	0.135661	1.071239	-0.459839
O98	O	0.292383	0.729520	-0.268550
C99	C	0.303936	0.714100	-0.197379
H100	H	0.358797	0.691889	-0.190460
H101	H	0.263765	0.674010	-0.179087
C102	C	0.229333	0.808693	-0.162189
C103	C	0.296716	0.781419	-0.153690
H104	H	0.224877	0.850218	-0.135238
H105	H	0.221547	0.819081	-0.210138
H106	H	0.195865	0.775278	-0.146946
H107	H	0.330183	0.814830	-0.168940
H108	H	0.304508	0.771039	-0.105742
O109	O	0.333055	1.050905	-0.851232
C110	C	0.263351	1.037688	-0.871577
H111	H	0.258136	0.981039	-0.889543
H112	H	0.248451	1.074082	-0.916344
C113	C	0.220787	1.120191	-0.786994
C114	C	0.214381	1.050611	-0.809054
H115	H	0.190579	1.128165	-0.748428
H116	H	0.267748	1.129097	-0.773288
H117	H	0.208372	1.150511	-0.824305
H118	H	0.226805	1.020293	-0.771746
H119	H	0.167421	1.041700	-0.822752
H120	H	0.462390	0.910163	-1.090140
H121	H	-0.212083	0.888903	-0.261239
H122	H	-0.097022	0.927125	-0.302889
H123	H	0.323126	0.256705	-0.296894
H124	H	-0.344674	0.894324	-0.267140
H125	H	0.484239	0.886390	-0.623620
H126	H	-0.330842	1.049539	-0.436173
H127	H	-0.198262	1.044120	-0.430272
H128	H	0.329018	0.389291	-0.302272
O129	O	-0.002152	1.083526	-0.473341
C130	C	-0.044357	1.043412	-0.518802
H131	H	-0.058670	0.991917	-0.492441
H132	H	-0.014432	1.032279	-0.569097
C133	C	-0.093970	1.147441	-0.568508
C134	C	-0.111554	1.084196	-0.536128
H135	H	-0.135419	1.172599	-0.579199
H136	H	-0.065534	1.174467	-0.537882
H137	H	-0.069031	1.138154	-0.610417
H138	H	-0.136485	1.093484	-0.494216
H139	H	-0.139996	1.057173	-0.566748
H140	H	0.451370	0.922197	-0.871289
O141	O	0.322084	1.063031	-0.632445
C142	C	0.286299	1.102035	-0.683744
H143	H	0.284713	1.071163	-0.734776
H144	H	0.314608	1.153793	-0.692552
C145	C	0.213061	1.154344	-0.596267
C146	C	0.211107	1.116424	-0.658944
H147	H	0.166680	1.163224	-0.580969
H148	H	0.237171	1.128069	-0.561705
H149	H	0.236655	1.197472	-0.603615
H150	H	0.187521	1.073294	-0.651593
H151	H	0.186991	1.142693	-0.693504
H152	H	0.334469	1.049567	-0.770063
H153	H	0.301864	1.085074	-0.971407
H154	H	0.307238	1.079201	-1.104001
H155	H	0.457022	0.916036	-0.957556
