data_functionalizedCrystal
_audit_creation_method	'MofGen! by Chris Wilmer'
_symmetry_space_group_name_H-M	'P1'
_symmetry_Int_Tables_number	1
_symmetry_cell_setting	triclinic
loop_
_symmetry_equiv_pos_as_xyz
  x,y,z
_cell_length_a	14.519709
_cell_length_b	13.339070
_cell_length_c	12.376457
_cell_angle_alpha	104.400417
_cell_angle_beta	101.308721
_cell_angle_gamma	80.345281
loop_
_atom_site_label
_atom_site_type_symbol
_atom_site_fract_x
_atom_site_fract_y
_atom_site_fract_z
O1	O	-1.270325	0.113337	-0.093844
O2	O	-1.005827	0.128954	-0.093876
O3	O	-1.107720	-0.026175	-0.093867
O4	O	-1.168431	0.268465	-0.093853
O5	O	-1.082246	0.012555	0.094143
O6	O	-0.980352	0.167683	0.094133
O7	O	-1.244850	0.152066	0.094166
Zn8	Zn	-1.108557	0.166024	0.124001
Zn9	Zn	-1.142120	0.114996	-0.123711
O10	O	-1.142957	0.307195	0.094157
C11	C	-0.958545	0.147589	0.000124
C12	C	-0.855610	0.145405	0.000111
C13	C	-1.292132	0.133430	0.000163
C14	C	-1.395068	0.135613	0.000169
C15	C	-1.084728	-0.044519	0.000133
C16	C	-1.054161	-0.156879	0.000119
C17	C	-0.478664	0.137383	0.000162
C18	C	-0.583542	0.139610	0.000147
C19	C	-0.667134	0.141393	0.000135
C20	C	-0.772018	0.143622	0.000123
C21	C	-1.165949	0.325538	0.000154
C22	C	-1.196518	0.437897	0.000161
N23	N	-1.085657	0.200848	0.293057
C24	C	-0.958832	0.802250	0.000115
C25	C	-0.930106	0.696688	0.000128
C26	C	-0.996707	0.631985	0.000136
C27	C	-1.092038	0.672854	0.000132
C28	C	-1.120766	0.778429	0.000128
C29	C	-1.158640	0.608164	0.000148
C30	C	-1.253971	0.649033	0.000144
C31	C	-1.282694	0.754597	0.000140
C32	C	-1.216094	0.819300	0.000132
C33	C	-1.129912	0.502589	0.000152
C34	C	-1.291846	0.478768	0.000165
C35	C	-1.320572	0.584330	0.000152
N36	N	-1.165025	0.080164	-0.292767
C37	C	-1.218177	-0.000694	0.648054
C38	C	-1.234200	-0.025068	0.529715
C39	C	-1.197065	0.031409	0.470545
C40	C	-1.143906	0.112264	0.529724
C41	C	-1.127888	0.136645	0.648074
C42	C	-1.106776	0.168748	0.470566
C43	C	-1.053617	0.249603	0.529745
C44	C	-1.037601	0.273980	0.648084
C45	C	-1.074736	0.217503	0.707254
C46	C	-1.122794	0.144367	0.352216
C47	C	-1.032505	0.281706	0.352236
C48	C	-1.016482	0.306080	0.470575
H49	H	-1.052293	0.469325	0.000161
O50	O	-0.964938	0.384736	0.527941
C51	C	-0.951003	0.568059	0.564226
C52	C	-1.009456	0.479078	0.499170
H53	H	-0.986982	0.644360	0.541007
H54	H	-0.876874	0.549972	0.540941
H55	H	-0.945908	0.575726	0.658965
H56	H	-1.014626	0.471363	0.404416
H57	H	-1.083551	0.497203	0.522548
H58	H	-1.061688	0.237345	0.803615
O59	O	-0.996274	0.336556	0.294894
C60	C	-0.855894	0.387958	0.258639
C61	C	-0.896791	0.325823	0.323679
H62	H	-0.775456	0.379284	0.281869
H63	H	-0.885433	0.473872	0.281926
H64	H	-0.876521	0.356656	0.163897
H65	H	-0.876179	0.357035	0.418435
H66	H	-0.867254	0.239917	0.300298
H67	H	-1.346078	0.426086	0.000173
H68	H	-1.239479	0.905256	0.000113
O69	O	-0.968654	0.529454	0.000089
C70	C	-0.838571	0.391045	0.000152
C71	C	-0.870220	0.507180	0.000187
H72	H	-0.758982	0.373005	0.000255
H73	H	-0.877244	0.340843	-0.078549
H74	H	-0.856056	0.373326	0.078814
H75	H	-0.852739	0.524998	-0.078422
H76	H	-0.831551	0.557320	0.078941
H77	H	-0.852489	0.663419	0.000125
O78	O	-1.413180	0.623947	0.000303
C79	C	-1.547169	0.656023	0.097741
C80	C	-1.442294	0.611099	0.097700
H81	H	-1.570735	0.645671	0.176490
H82	H	-1.592153	0.613160	0.019116
H83	H	-1.556241	0.742575	0.097679
H84	H	-1.433132	0.524554	0.097802
H85	H	-1.397362	0.654040	0.176319
H86	H	-1.166076	0.078535	0.304042
H87	H	-1.248414	-0.046665	0.696238
H88	H	-0.904616	0.854941	0.000116
H89	H	-1.360317	0.787872	0.000149
H90	H	-0.994325	0.339824	0.696268
H91	H	-1.210113	0.011560	0.374188
H92	H	-1.277482	-0.090898	0.481535
