data_functionalizedCrystal
_audit_creation_method	'MofGen! by Chris Wilmer'
_symmetry_space_group_name_H-M	'P1'
_symmetry_Int_Tables_number	1
_symmetry_cell_setting	triclinic
loop_
_symmetry_equiv_pos_as_xyz
  x,y,z
_cell_length_a	21.395362
_cell_length_b	19.121063
_cell_length_c	21.395356
_cell_angle_alpha	92.411537
_cell_angle_beta	89.957023
_cell_angle_gamma	92.485681
loop_
_atom_site_label
_atom_site_type_symbol
_atom_site_fract_x
_atom_site_fract_y
_atom_site_fract_z
Zn1	Zn	0.947237	-0.279338	-0.365202
Zn2	Zn	0.942677	-0.396791	-0.264889
Zn3	Zn	0.842452	-0.279389	-0.260406
Zn4	Zn	0.837958	-0.396787	-0.369593
O5	O	0.892581	-0.338076	-0.315023
O6	O	1.034311	-0.294898	-0.351934
O7	O	0.929355	-0.381241	-0.176617
O8	O	0.860141	-0.181097	-0.270593
O9	O	1.030961	-0.381191	-0.278234
O10	O	0.937126	-0.181059	-0.347587
O11	O	0.855720	-0.294986	-0.173323
O12	O	0.754177	-0.294982	-0.274851
O13	O	0.852481	-0.381184	-0.456688
O14	O	0.750875	-0.381234	-0.355071
O15	O	0.932768	-0.294894	-0.453462
O16	O	0.924997	-0.495077	-0.282492
O17	O	0.848060	-0.495073	-0.359418
C18	C	0.729792	-0.338113	-0.314951
C19	C	0.660149	-0.338146	-0.314936
C20	C	0.625731	-0.383117	-0.356649
C21	C	0.560296	-0.383100	-0.356676
C22	C	0.529282	-0.338119	-0.314980
C23	C	0.563709	-0.293140	-0.273264
C24	C	0.629142	-0.293153	-0.273242
C25	C	0.425773	-0.332471	-0.258360
C26	C	0.360340	-0.332463	-0.258381
C27	C	0.327463	-0.338073	-0.315047
C28	C	0.360026	-0.343708	-0.371695
C29	C	0.425460	-0.343721	-0.371673
C30	C	0.458331	-0.338099	-0.314999
C31	C	0.222093	-0.383028	-0.356793
C32	C	0.156657	-0.383006	-0.356821
C33	C	0.160071	-0.293049	-0.273403
C34	C	0.225505	-0.293068	-0.273381
C35	C	0.256512	-0.338061	-0.315075
C36	C	0.885563	-0.520559	-0.321932
C37	C	0.882618	-0.598626	-0.324908
C38	C	0.921323	-0.635281	-0.286289
C39	C	0.918556	-0.708633	-0.289092
C40	C	0.877082	-0.745330	-0.330512
C41	C	0.838376	-0.708670	-0.369136
C42	C	0.841145	-0.635319	-0.366336
C43	C	0.866717	-0.966803	-0.340973
C44	C	0.863949	-1.040159	-0.343770
C45	C	0.944130	-1.040117	-0.263726
C46	C	0.946894	-0.966765	-0.260927
C47	C	0.908190	-0.930112	-0.299553
C48	C	0.874252	-0.820307	-0.333377
C49	C	0.911023	-0.855135	-0.296690
C50	C	1.056006	-0.338039	-0.315094
C51	C	1.125648	-0.338024	-0.315125
C52	C	0.892632	-0.338033	-0.478444
C53	C	0.892654	-0.338014	-0.548085
C54	C	0.899644	-0.154881	-0.308100
C55	C	0.902653	-0.076814	-0.305150
C56	C	0.854323	-0.293096	-0.579073
C57	C	0.854321	-0.293083	-0.644508
C58	C	0.892662	-0.337981	-0.678952
C59	C	0.930995	-0.382907	-0.647956
C60	C	0.930991	-0.382924	-0.582523
C61	C	0.948905	-0.343485	-0.782867
C62	C	0.948910	-0.343463	-0.848299
C63	C	0.892674	-0.337933	-0.880771
C64	C	0.836431	-0.332410	-0.847802
C65	C	0.836427	-0.332427	-0.782369
C66	C	0.892670	-0.337968	-0.749904
C67	C	0.854338	-0.292999	-0.982711
C68	C	0.854335	-0.292991	-1.048147
C69	C	0.931015	-0.382811	-1.051595
C70	C	0.931012	-0.382823	-0.986160
C71	C	0.892675	-0.337913	-0.951722
C72	C	0.892568	-0.338069	-0.152235
C73	C	0.892675	-0.337890	-0.082587
H74	H	0.657166	-0.256531	-0.239274
H75	H	0.452536	-0.327899	-0.212212
Br76	Br	0.760106	-0.324897	-0.891863
H77	H	0.955093	-0.605407	-0.252558
H78	H	0.823121	-0.256431	-0.954670
H79	H	0.830183	-1.070035	-0.377510
H80	H	0.950073	-0.738474	-0.257644
Br81	Br	0.760102	-0.324934	-0.737628
Br82	Br	0.782094	-0.758472	-0.425355
H83	H	0.333259	-0.348275	-0.417838
Br84	Br	1.003191	-0.916967	-0.204720
H85	H	0.975642	-1.069968	-0.232280
Br86	Br	0.814190	-0.917069	-0.393395
H87	H	0.823117	-0.256415	-1.073376
Br88	Br	0.788620	-0.585573	-0.418754
Br89	Br	0.983044	-0.443752	-1.098333
H90	H	0.944794	-0.825255	-0.262968
H91	H	0.840482	-0.850194	-0.367101
Br92	Br	1.025231	-0.350999	-0.738804
Br93	Br	0.802291	-0.232150	-0.532338
Br94	Br	0.513576	-0.444134	-0.413292
H95	H	0.823109	-0.256502	-0.669743
H96	H	0.962227	-0.419398	-0.960929
H97	H	0.994706	-0.347958	-0.875137
H98	H	0.962213	-0.419463	-0.676005
H99	H	0.128635	-0.419625	-0.390793
H100	H	0.650973	-0.419753	-0.390600
Br101	Br	0.264178	-0.444085	-0.413379
Br102	Br	0.469651	-0.351364	-0.448548
Br103	Br	0.117988	-0.231996	-0.216820
H104	H	0.962208	-0.419501	-0.557293
Br105	Br	0.316154	-0.324818	-0.181503
H106	H	0.538453	-0.256515	-0.239316
Br107	Br	0.272219	-0.232033	-0.216767
