data_functionalizedCrystal
_audit_creation_method	'MofGen! by Chris Wilmer'
_symmetry_space_group_name_H-M	'P1'
_symmetry_Int_Tables_number	1
_symmetry_cell_setting	triclinic
loop_
_symmetry_equiv_pos_as_xyz
  x,y,z
_cell_length_a	12.837942
_cell_length_b	16.974800
_cell_length_c	11.892292
_cell_angle_alpha	81.993181
_cell_angle_beta	86.041594
_cell_angle_gamma	89.097746
loop_
_atom_site_label
_atom_site_type_symbol
_atom_site_fract_x
_atom_site_fract_y
_atom_site_fract_z
O1	O	0.132217	1.059251	-0.002937
O2	O	0.147735	0.829205	0.018118
O3	O	-0.010948	0.939127	0.008050
O4	O	0.290900	0.949329	0.007130
O5	O	0.000933	0.949063	-0.180860
O6	O	0.159616	0.839141	-0.170793
O7	O	0.144098	1.069187	-0.191848
Zn8	Zn	0.153743	0.955741	-0.211314
Zn9	Zn	0.138090	0.942650	0.037584
O10	O	0.302781	0.959265	-0.181780
C11	C	0.152867	0.804523	-0.073624
C12	C	0.150445	0.716177	-0.065538
C13	C	0.155781	0.680092	-0.164717
C14	C	0.153489	0.597081	-0.157123
C15	C	0.145868	0.550157	-0.050349
C16	C	0.140529	0.586247	0.048838
C17	C	0.142813	0.669256	0.041243
C18	C	0.138333	0.301314	-0.016591
C19	C	0.136052	0.218299	-0.009003
C20	C	0.149010	0.229140	-0.214964
C21	C	0.151301	0.312150	-0.222550
C22	C	0.145956	0.348233	-0.123364
N23	N	0.143528	0.465306	-0.042584
N24	N	0.148288	0.433082	-0.131130
C25	C	-0.043643	0.940649	-0.086089
C26	C	-0.158764	0.930370	-0.085146
C27	C	-0.399196	1.053939	-0.096432
C28	C	-0.507363	1.044285	-0.095547
C29	C	-0.483268	0.901407	-0.082482
C30	C	-0.375101	0.911062	-0.083367
C31	C	-0.333069	0.987330	-0.090344
C32	C	-0.224899	0.996984	-0.091238
C33	C	-0.200806	0.854107	-0.078165
C34	C	-0.308974	0.844453	-0.077279
C35	C	0.335476	0.957743	-0.087638
C36	C	0.450597	0.968021	-0.088574
C37	C	0.138966	1.093868	-0.100103
C38	C	0.141388	1.182215	-0.108182
N39	N	0.127399	0.933716	0.207450
C40	C	0.052891	0.871485	0.390642
C41	C	0.060386	0.877740	0.271732
C42	C	0.186924	0.983439	0.262087
C43	C	0.179429	0.977183	0.380997
C44	C	0.112409	0.921206	0.445271
C45	C	0.104909	0.914955	0.564183
C46	C	0.231452	1.020648	0.554537
C47	C	0.238947	1.026904	0.435626
N48	N	0.164434	0.964677	0.618820
H49	H	0.133978	0.330683	0.064174
C50	C	0.296930	1.075342	0.614638
N51	N	0.346247	1.116535	0.659908
C52	C	-0.355221	0.760562	-0.069618
N53	N	-0.390052	0.697375	-0.063856
C54	C	0.132143	0.534627	0.166291
N55	N	0.125830	0.495747	0.254760
C56	C	0.031190	0.853376	0.634882
N57	N	-0.024334	0.806992	0.688130
C58	C	0.159678	0.363761	-0.340010
N59	N	0.165990	0.402635	-0.428483
C60	C	-0.005090	0.823045	0.211644
N61	N	-0.054409	0.781845	0.166387
C62	C	-0.020835	0.809913	0.461345
N63	N	-0.076366	0.763536	0.514597
C64	C	0.312662	1.088478	0.364912
N65	N	0.368183	1.134859	0.311651
H66	H	0.241492	1.029010	0.209736
C67	C	-0.580100	1.117561	-0.102252
N68	N	-0.634885	1.172756	-0.107304
C69	C	-0.178666	1.080880	-0.098909
N70	N	-0.143848	1.144072	-0.104683
H71	H	0.153360	0.199752	-0.295716
C72	C	-0.128057	0.780832	-0.071469
N73	N	-0.073261	0.725643	-0.066428
H74	H	0.161995	0.718293	-0.251664
H75	H	0.138470	0.698635	0.122005
H76	H	0.157817	0.567706	-0.237885
C77	C	0.127667	0.166683	0.108462
N78	N	0.121354	0.127806	0.196933
C79	C	-0.352958	1.137834	-0.104113
N80	N	-0.318134	1.201025	-0.109898
H81	H	-0.517510	0.839312	-0.076789
