data_functionalizedCrystal
_audit_creation_method	'MofGen! by Chris Wilmer'
_symmetry_space_group_name_H-M	'P1'
_symmetry_Int_Tables_number	1
_symmetry_cell_setting	triclinic
loop_
_symmetry_equiv_pos_as_xyz
  x,y,z
_cell_length_a	6.394989
_cell_length_b	10.723023
_cell_length_c	9.798715
_cell_angle_alpha	89.996449
_cell_angle_beta	90.000171
_cell_angle_gamma	94.517371
loop_
_atom_site_label
_atom_site_type_symbol
_atom_site_fract_x
_atom_site_fract_y
_atom_site_fract_z
O1	O	-0.293014	1.660298	-0.113478
O2	O	-0.321064	1.297443	-0.113480
O3	O	-0.003048	1.484021	-0.113480
O4	O	-0.611029	1.473720	-0.113478
O5	O	-0.003047	1.484006	0.113502
O6	O	-0.321063	1.297429	0.113502
O7	O	-0.293013	1.660283	0.113505
Zn8	Zn	-0.307038	1.478854	0.149541
Zn9	Zn	-0.307039	1.478873	-0.149517
O10	O	-0.611028	1.473706	0.113504
C11	C	-0.319022	1.250914	0.000010
C12	C	-0.312916	1.112295	0.000009
C13	C	-0.303882	0.907224	0.117587
C14	C	-0.310194	1.050494	0.117591
C15	C	0.074803	1.481977	0.000006
C16	C	0.311127	1.475752	0.000005
C17	C	-0.295054	1.706812	0.000011
C18	C	-0.301161	1.845431	0.000003
N19	N	-0.307036	1.478850	0.353641
N20	N	-0.307024	1.478886	-0.353617
C21	C	-0.172922	1.557183	0.421418
C22	C	-0.172914	1.557203	0.578581
H23	H	-0.303515	0.898594	-0.100662
C24	C	-0.462144	1.388262	0.432430
N25	N	-0.578976	1.320029	0.491772
C26	C	-0.017770	1.647744	0.342629
N27	N	0.099104	1.715952	0.283287
H28	H	-0.058101	1.624271	0.636866
C29	C	-0.313390	1.122279	0.253595
N30	N	-0.315814	1.176349	0.356037
H31	H	-0.421859	1.411823	0.588106
H32	H	-0.310570	1.059163	-0.100664
C33	C	-0.300722	0.835408	0.253587
N34	N	-0.298339	0.781318	0.356025
