data_functionalizedCrystal
_audit_creation_method	'MofGen! by Chris Wilmer'
_symmetry_space_group_name_H-M	'P1'
_symmetry_Int_Tables_number	1
_symmetry_cell_setting	triclinic
loop_
_symmetry_equiv_pos_as_xyz
  x,y,z
_cell_length_a	8.497374
_cell_length_b	12.759401
_cell_length_c	12.759393
_cell_angle_alpha	90.018496
_cell_angle_beta	89.981690
_cell_angle_gamma	89.998747
loop_
_atom_site_label
_atom_site_type_symbol
_atom_site_fract_x
_atom_site_fract_y
_atom_site_fract_z
Zn1	Zn	0.627956	1.606355	0.594078
Zn2	Zn	0.891810	1.606291	0.418439
Zn3	Zn	0.628039	1.430657	0.418418
Zn4	Zn	0.891689	1.430687	0.594080
O5	O	0.759873	1.518497	0.506254
O6	O	0.662973	1.753367	0.570787
O7	O	0.856906	1.582953	0.271415
O8	O	0.407265	1.453977	0.441709
O9	O	0.856826	1.753320	0.441746
O10	O	0.407205	1.583062	0.570766
O11	O	0.663114	1.453916	0.271399
O12	O	0.662996	1.283640	0.441712
O13	O	0.856619	1.454029	0.741101
O14	O	0.856699	1.283662	0.570770
O15	O	0.662855	1.583091	0.741100
O16	O	1.112556	1.582983	0.441748
O17	O	1.112467	1.453967	0.570791
C18	C	0.759844	1.245530	0.506239
C19	C	0.759870	1.128753	0.506258
C20	C	0.860892	1.073930	0.573348
C21	C	0.860912	0.964206	0.573359
C22	C	0.658883	0.964138	0.439182
C23	C	0.658856	1.073860	0.439177
C24	C	0.977537	1.073969	0.650811
C25	C	0.977557	0.964245	0.650823
C26	C	1.169753	1.518484	0.506269
C27	C	1.348397	1.518512	0.506252
C28	C	0.759714	1.518571	0.780287
C29	C	0.759646	1.518602	0.897064
C30	C	0.759904	1.792531	0.506269
C31	C	0.759917	1.909307	0.506275
C32	C	0.759918	1.518485	0.233286
C33	C	0.759542	1.518657	0.116510
C34	C	0.658744	1.585814	0.951927
C35	C	0.658687	1.585839	1.061651
C36	C	0.860448	1.451437	1.061640
C37	C	0.860496	1.451408	0.951917
C38	C	0.542264	1.663413	0.951934
C39	C	0.542207	1.663438	1.061658
H40	H	1.093537	1.108002	0.621544
O41	O	0.585550	1.771224	1.101123
H42	H	0.693846	1.765977	1.149454
O43	O	0.600257	1.765782	0.906854
H44	H	0.705997	1.751101	0.857909
O45	O	0.549876	1.132987	0.366825
H46	H	0.566812	1.218506	0.378096
O47	O	0.969270	1.378859	0.892763
H48	H	1.093097	1.396834	0.913806
O49	O	0.919793	0.919190	0.753270
H50	H	0.814056	0.870237	0.738716
H51	H	0.426122	1.634306	1.095688
O52	O	1.139344	0.924787	0.621780
H53	H	1.218530	0.992487	0.607542
H54	H	0.576640	0.919430	0.384568
H55	H	0.942553	1.396728	1.106315
H56	H	0.944954	1.103772	0.732213
O57	O	0.380440	1.634556	0.912478
H58	H	0.301179	1.620438	0.980179
