data_functionalizedCrystal
_audit_creation_method	'MofGen! by Chris Wilmer'
_symmetry_space_group_name_H-M	'P1'
_symmetry_Int_Tables_number	1
_symmetry_cell_setting	triclinic
loop_
_symmetry_equiv_pos_as_xyz
  x,y,z
_cell_length_a	14.519709
_cell_length_b	14.971486
_cell_length_c	14.048226
_cell_angle_alpha	90.006640
_cell_angle_beta	90.000842
_cell_angle_gamma	83.647137
loop_
_atom_site_label
_atom_site_type_symbol
_atom_site_fract_x
_atom_site_fract_y
_atom_site_fract_z
O1	O	-1.223800	-0.117253	-0.079037
O2	O	-0.723800	0.382747	0.420963
O3	O	-0.955315	-0.131060	-0.079066
O4	O	-0.455315	0.368940	0.420934
O5	O	-1.096753	0.006039	-0.079044
O6	O	-0.596753	0.506039	0.420956
O7	O	-1.082361	-0.254353	-0.079059
O8	O	-0.582361	0.245647	0.420941
O9	O	-1.096736	0.006048	0.079277
O10	O	-0.596736	0.506048	0.579277
O11	O	-0.955298	-0.131052	0.079255
O12	O	-0.455298	0.368948	0.579255
O13	O	-1.223783	-0.117245	0.079284
O14	O	-0.723783	0.382755	0.579284
Zn15	Zn	-1.089538	-0.124147	0.104407
Zn16	Zn	-0.589538	0.375853	0.604407
Zn17	Zn	-1.089560	-0.124158	-0.104189
Zn18	Zn	-0.589560	0.375842	0.395811
O19	O	-1.082344	-0.254344	0.079262
O20	O	-0.582344	0.245656	0.579262
C21	C	-0.920947	-0.130413	0.000091
C22	C	-0.420947	0.369587	0.500091
C23	C	-0.818567	-0.128485	0.000080
C24	C	-0.318567	0.371515	0.500080
N25	N	-1.089529	-0.124139	0.246767
N26	N	-0.589529	0.375861	0.746767
C27	C	-1.258151	-0.117892	0.000125
C28	C	-0.758151	0.382108	0.500125
C29	C	-1.360531	-0.119820	0.000130
C30	C	-0.860531	0.380180	0.500130
C31	C	-0.443675	-0.121386	0.000123
C32	C	0.056325	0.378614	0.500123
C33	C	-0.547982	-0.123357	0.000111
C34	C	-0.047982	0.376643	0.500111
C35	C	-0.631118	-0.124935	0.000101
C36	C	-0.131118	0.375065	0.500101
C37	C	-0.735431	-0.126907	0.000090
C38	C	-0.235431	0.373093	0.500090
C39	C	-1.096101	0.039369	0.000116
C40	C	-0.596101	0.539369	0.500116
C41	C	-1.094172	0.138667	0.000115
C42	C	-0.594172	0.638667	0.500115
C43	C	-1.082996	-0.287674	0.000100
C44	C	-0.582996	0.212326	0.500100
C45	C	-1.084925	-0.386972	0.000094
C46	C	-0.584925	0.113028	0.500094
C47	C	-1.177264	0.195845	0.000125
C48	C	-0.677264	0.695845	0.500125
C49	C	-1.175446	0.289146	0.000115
C50	C	-0.675446	0.789146	0.500115
C51	C	-1.090536	0.325266	0.000102
C52	C	-0.590536	0.825266	0.500102
C53	C	-1.007438	0.268080	0.000090
C54	C	-0.507438	0.768080	0.500090
C55	C	-1.009257	0.174781	0.000093
C56	C	-0.509257	0.674781	0.500093
C57	C	-1.003653	0.462545	0.000086
C58	C	-0.503653	0.962545	0.500086
C59	C	-1.001834	0.555850	0.000085
C60	C	-0.501834	1.055850	0.500085
C61	C	-1.169842	0.576909	0.000108
C62	C	-0.669842	1.076909	0.500108
C63	C	-1.171661	0.483610	0.000111
C64	C	-0.671661	0.983610	0.500111
C65	C	-1.088563	0.426431	0.000100
C66	C	-0.588563	0.926431	0.500100
N67	N	-1.089576	-0.124159	-0.246549
N68	N	-0.589576	0.375841	0.253451
C69	C	-1.152178	-0.063457	0.296595
C70	C	-0.652178	0.436543	0.796595
C71	C	-1.152184	-0.063456	0.396253
C72	C	-0.652184	0.436544	0.896253
C73	C	-1.089545	-0.124143	0.446081
C74	C	-0.589545	0.375857	0.946081
C75	C	-1.026890	-0.184829	0.396246
C76	C	-0.526890	0.315171	0.896246
C77	C	-1.026880	-0.184824	0.296590
C78	C	-0.526880	0.315176	0.796590
C79	C	-1.026916	-0.184835	0.603960
C80	C	-0.526916	0.315165	1.103960
C81	C	-1.026927	-0.184841	0.703623
C82	C	-0.526927	0.315159	1.203623
C83	C	-1.152220	-0.063467	0.703623
C84	C	-0.652220	0.436533	1.203623
C85	C	-1.152211	-0.063463	0.603967
C86	C	-0.652211	0.436537	1.103967
C87	C	-1.089556	-0.124150	0.554139
C88	C	-0.589556	0.375850	1.054139
H89	H	-1.246407	0.166444	0.000141
H90	H	-0.746407	0.666444	0.500141
H91	H	-1.237504	0.623470	0.000114
H92	H	-0.737504	1.123470	0.500114
Br93	Br	-0.886597	0.604870	0.000072
Br94	Br	-0.386597	1.104870	0.500072
H95	H	-0.938303	0.297496	0.000073
H96	H	-0.438303	0.797496	0.500073
H97	H	-1.243107	0.335698	0.000125
H98	H	-0.743107	0.835698	0.500125
H99	H	-0.975864	-0.234237	0.256021
H100	H	-0.475864	0.265763	0.756021
H101	H	-1.203220	-0.014051	0.563397
H102	H	-0.703220	0.485949	1.063397
H103	H	-0.941595	0.128227	0.000085
H104	H	-0.441595	0.628227	0.500085
Br105	Br	-1.237199	0.018903	0.228982
Br106	Br	-0.737199	0.518903	0.728982
H107	H	-1.203197	-0.014043	0.436822
H108	H	-0.703197	0.485957	0.936822
H109	H	-0.975893	-0.234250	0.563394
H110	H	-0.475893	0.265750	1.063394
Br111	Br	-0.890876	0.384944	0.000068
Br112	Br	-0.390876	0.884944	0.500068
H113	H	-0.975919	-0.234258	0.744188
H114	H	-0.475919	0.265742	1.244188
Br115	Br	-0.941871	-0.267186	0.463866
Br116	Br	-0.441871	0.232814	0.963866
Br117	Br	-1.286897	0.434590	0.000126
Br118	Br	-0.786897	0.934590	0.500126
Br119	Br	-1.237254	0.018888	0.771249
Br120	Br	-0.737254	0.518888	1.271249
