data_functionalizedCrystal
_audit_creation_method	'MofGen! by Chris Wilmer'
_symmetry_space_group_name_H-M	'P1'
_symmetry_Int_Tables_number	1
_symmetry_cell_setting	triclinic
loop_
_symmetry_equiv_pos_as_xyz
  x,y,z
_cell_length_a	33.510554
_cell_length_b	33.509711
_cell_length_c	33.506470
_cell_angle_alpha	60.004186
_cell_angle_beta	60.008358
_cell_angle_gamma	59.994760
loop_
_atom_site_label
_atom_site_type_symbol
_atom_site_fract_x
_atom_site_fract_y
_atom_site_fract_z
O1	O	0.055430	-0.583081	0.487524
O2	O	0.020931	-0.453975	0.392819
O3	O	0.102693	-0.535652	0.392731
O4	O	-0.026332	-0.501404	0.487613
O5	O	0.129823	-0.508526	0.419767
O6	O	0.048062	-0.426850	0.419856
O7	O	0.082561	-0.555956	0.514561
Cu8	Cu	0.067789	-0.488926	0.469677
Cu9	Cu	0.035703	-0.521005	0.437703
O10	O	0.000799	-0.474279	0.514649
N11	N	0.090357	-0.466366	0.492168
N12	N	0.013139	-0.543569	0.415212
C13	C	0.143028	-0.279707	0.544737
C14	C	0.143165	-0.413746	0.678712
C15	C	0.143043	-0.413725	0.544739
C16	C	0.277090	-0.413694	0.544637
C17	C	0.157791	-0.323929	0.559462
C18	C	0.157869	-0.398994	0.634489
C19	C	0.232865	-0.398963	0.559407
C20	C	0.157801	-0.398982	0.559463
C21	C	0.124237	-0.223419	0.525994
C22	C	0.124262	-0.432490	0.525997
C23	C	0.176583	-0.380217	0.578205
C24	C	0.358938	-0.399566	0.501510
C25	C	0.410104	-0.416609	0.484423
C26	C	0.410135	-0.499402	0.515995
C27	C	0.358969	-0.482358	0.533084
C28	C	0.136554	-0.197822	0.475693
C29	C	0.119469	-0.146653	0.458657
C30	C	0.077755	-0.146680	0.542223
C31	C	0.094840	-0.197850	0.559260
C32	C	0.073954	-0.420144	0.538396
C33	C	0.056884	-0.437203	0.521352
C34	C	0.140427	-0.478952	0.479524
C35	C	0.157498	-0.461894	0.496561
C36	C	0.074158	-0.420182	0.760618
C37	C	0.057149	-0.437256	0.811786
C38	C	0.140732	-0.479014	0.811717
C39	C	0.157740	-0.461942	0.760547
C40	C	0.124452	-0.432525	0.734999
C41	C	0.333372	-0.432439	0.525839
C42	C	-0.020612	-0.577650	0.170305
C43	C	-0.020943	-0.788098	0.380897
C44	C	-0.020912	-0.577638	0.380991
C45	C	-0.231336	-0.577418	0.380585
C46	C	-0.129735	-0.611383	0.346870
C47	C	-0.054722	-0.611464	0.347017
C48	C	-0.073450	-0.630202	0.328195
C49	C	-0.087616	-0.712029	0.371239
C50	C	-0.070599	-0.763199	0.388315
C51	C	0.012191	-0.763282	0.356872
C52	C	-0.004828	-0.712113	0.339795
C53	C	-0.155381	-0.623711	0.397158
C54	C	-0.206547	-0.606601	0.414133
C55	C	-0.206417	-0.564839	0.330529
C56	C	-0.155251	-0.581949	0.313554
C57	C	-0.067051	-0.561160	0.334643
C58	C	-0.050026	-0.544131	0.351759
C59	C	-0.008343	-0.627704	0.393612
C60	C	-0.025368	-0.644736	0.376502
C61	C	-0.066922	-0.561168	0.246303
C62	C	-0.049794	-0.544141	0.195134
C63	C	-0.008048	-0.627719	0.195183
C64	C	-0.025175	-0.644745	0.246352
C65	C	-0.054614	-0.611468	0.271911
C66	C	-0.054732	-0.686488	0.346980
C67	C	-0.002117	-0.558258	0.114025
C68	C	-0.002879	-0.844379	0.399940
C69	C	-0.002504	-0.558243	0.399473
C70	C	-0.287615	-0.558285	0.398601
N71	N	0.434975	-0.466279	0.491900
O72	O	0.591199	-0.470749	0.375150
O73	O	0.591395	-0.565767	0.504116
O74	O	0.591311	-0.565550	0.422329
O75	O	0.591283	-0.470966	0.456937
O76	O	0.510024	-0.538522	0.449509
O77	O	0.510108	-0.538739	0.531297
O78	O	0.509913	-0.443721	0.402330
Cu79	Cu	0.502588	-0.488762	0.469295
Cu80	Cu	0.598719	-0.520726	0.437151
O81	O	0.509997	-0.443938	0.484117
N82	N	0.666332	-0.543209	0.414541
N83	N	0.090323	-0.121809	0.492157
O84	O	-0.026342	0.034503	0.487582
O85	O	0.102626	0.034543	0.392540
O86	O	0.020797	0.034507	0.392812
O87	O	0.055487	0.034539	0.487310
O88	O	0.047933	-0.046785	0.419900
O89	O	0.129763	-0.046749	0.419628
O90	O	0.000794	-0.046789	0.514670
Cu91	Cu	0.067756	-0.054192	0.469623
Cu92	Cu	0.035664	0.041946	0.437588
O93	O	0.082623	-0.046753	0.514399
N94	N	0.013091	0.109564	0.415054
N95	N	0.090671	-0.466416	0.836606
O96	O	0.086120	-0.583065	0.992910
O97	O	-0.008880	-0.454051	0.992954
O98	O	-0.008658	-0.535864	0.992931
O99	O	0.085897	-0.501252	0.992933
O100	O	0.018407	-0.508749	0.911642
O101	O	0.018185	-0.426936	0.911665
O102	O	0.113185	-0.555949	0.911621
Cu103	Cu	0.068156	-0.488967	0.904221
Cu104	Cu	0.036148	-0.521034	1.000355
O105	O	0.112963	-0.474136	0.911644
N106	N	0.013633	-0.543590	1.067970
C107	C	0.031262	-0.424144	0.393290
C108	C	0.132513	-0.525291	0.393180
C109	C	0.072229	-0.585787	0.514090
C110	C	-0.029022	-0.484640	0.514200
C111	C	0.550775	-0.565338	0.533954
C112	C	0.550672	-0.565070	0.432670
C113	C	0.550530	-0.444149	0.372492
C114	C	0.550635	-0.444418	0.473776
C115	C	0.132408	-0.005998	0.392963
C116	C	0.031106	-0.006142	0.393333
C117	C	-0.029021	-0.006147	0.514213
C118	C	0.072314	-0.006104	0.513878
C119	C	-0.008430	-0.424240	0.952316
C120	C	-0.008150	-0.525550	0.952271
C121	C	0.112735	-0.585760	0.952260
C122	C	0.112461	-0.484444	0.952286
H123	H	0.047048	-0.396226	0.739820
C124	C	0.082277	-0.006203	0.553488
C125	C	0.121596	-0.048025	0.564588
C126	C	0.130782	-0.048138	0.601081
H127	H	0.090058	0.022117	0.542243
H128	H	0.054056	-0.006239	0.581963
H129	H	0.149811	-0.047984	0.536118
H130	H	0.113825	-0.076351	0.575841
H131	H	0.102561	-0.048174	0.629556
H132	H	0.138561	-0.019816	0.589832
H133	H	0.157458	-0.076516	0.608620
C134	C	0.212138	-0.475361	0.483060
C135	C	0.237591	-0.504769	0.453641
C136	C	0.287925	-0.517187	0.441197
H137	H	0.220568	-0.446456	0.465673
H138	H	0.220587	-0.492751	0.511966
H139	H	0.229146	-0.487379	0.424740
H140	H	0.229175	-0.533680	0.471018
H141	H	0.296374	-0.534577	0.470103
H142	H	0.296350	-0.488280	0.423811
H143	H	0.305201	-0.537145	0.421238
H144	H	-0.015331	-0.685697	0.386578
C145	C	0.550650	-0.404743	0.483542
C146	C	0.550593	-0.362872	0.441850
C147	C	0.550614	-0.326316	0.450825
H148	H	0.522332	-0.397099	0.510202
H149	H	0.579028	-0.415993	0.491244
H150	H	0.522217	-0.351624	0.434154
H151	H	0.578909	-0.370501	0.415184
H152	H	0.578993	-0.337566	0.458527
H153	H	0.522296	-0.318676	0.477486
H154	H	0.550580	-0.297904	0.422537
C155	C	0.181642	-0.005612	0.353007
C156	C	0.174932	0.036291	0.312264
C157	C	0.220275	0.036657	0.275444
H158	H	0.202216	-0.005515	0.364698
H159	H	0.196377	-0.033885	0.343970
H160	H	0.160205	0.064558	0.321300
H161	H	0.154367	0.036204	0.300558
H162	H	0.235010	0.008383	0.266407
H163	H	0.240845	0.036752	0.287140
H164	H	0.215728	0.065085	0.247794
C165	C	0.550711	-0.604762	0.422886
C166	C	0.550793	-0.646642	0.464570
C167	C	0.550835	-0.683219	0.455574
H168	H	0.522354	-0.593559	0.415178
H169	H	0.579050	-0.612375	0.396219
H170	H	0.522457	-0.639030	0.491229
H171	H	0.579149	-0.657860	0.472285
H172	H	0.579174	-0.690831	0.428906
H173	H	0.522477	-0.672011	0.447864
H174	H	0.550895	-0.711640	0.483853
C175	C	-0.048147	-0.374813	0.952358
C176	C	-0.030638	-0.344647	0.952376
C177	C	-0.067213	-0.299113	0.952422
H178	H	-0.057065	-0.360123	0.924022
H179	H	-0.075917	-0.379078	0.980720
H180	H	-0.002876	-0.340380	0.924017
H181	H	-0.021723	-0.359321	0.980710
H182	H	-0.094983	-0.303379	0.980784
H183	H	-0.076129	-0.284429	0.924085
H184	H	-0.055340	-0.278641	0.952439
C185	C	0.550349	-0.404316	0.323151
C186	C	0.508496	-0.363473	0.329643
C187	C	0.508309	-0.326772	0.284201
H188	H	0.578644	-0.395345	0.308463
H189	H	0.550308	-0.416097	0.302611
H190	H	0.508541	-0.351694	0.350175
H191	H	0.480194	-0.372429	0.344324
H192	H	0.508269	-0.338553	0.263661
H193	H	0.536606	-0.317805	0.269516
H194	H	0.479911	-0.299058	0.288599
H195	H	0.079602	-0.622875	0.543835
C196	C	0.437864	-0.553602	0.523824
C197	C	0.425387	-0.569080	0.501018
C198	C	0.450919	-0.619007	0.508225
H199	H	0.472006	-0.559108	0.510163
H200	H	0.429498	-0.571468	0.557849
H201	H	0.433756	-0.551220	0.467001
H202	H	0.391249	-0.563587	0.514676
H203	H	0.442552	-0.636873	0.542249
H204	H	0.485059	-0.624508	0.494563
H205	H	0.442453	-0.629516	0.492756
H206	H	0.550826	-0.595166	0.570996
C207	C	-0.047674	-0.535491	0.952199
C208	C	-0.029940	-0.583202	0.952158
C209	C	-0.066333	-0.592374	0.952086
H210	H	-0.075498	-0.531890	0.980534
H211	H	-0.056560	-0.512952	0.923836
H212	H	-0.021060	-0.605734	0.980519
H213	H	-0.002121	-0.586814	0.923826
H214	H	-0.075219	-0.569836	0.923722
H215	H	-0.094155	-0.588771	0.980421
H216	H	-0.054304	-0.624744	0.952054
H217	H	-0.066059	-0.006159	0.544050
H218	H	-0.066081	-0.477343	0.543993
H219	H	0.023675	-0.006147	0.363643
H220	H	0.142562	-0.622811	0.952240
C221	C	0.152019	-0.474469	0.952254
C222	C	0.134299	-0.426745	0.952255
C223	C	0.170728	-0.417536	0.952218
H224	H	0.160961	-0.496975	0.980586
H225	H	0.179808	-0.478080	0.923888
H226	H	0.106518	-0.423138	0.980618
H227	H	0.125359	-0.404228	0.923925
H228	H	0.198517	-0.421147	0.923852
H229	H	0.179668	-0.440045	0.980551
H230	H	0.158711	-0.385153	0.952214
C231	C	0.066396	-0.791019	0.349004
C232	C	0.091556	-0.757698	0.324092
C233	C	0.141489	-0.783231	0.316828
H234	H	0.071164	-0.810980	0.379738
H235	H	0.078435	-0.810974	0.330232
H236	H	0.079520	-0.737751	0.342864
H237	H	0.086802	-0.737736	0.293354
H238	H	0.153529	-0.803187	0.298056
H239	H	0.146253	-0.803192	0.347564
H240	H	0.158567	-0.760627	0.299921
H241	H	0.015562	-0.654800	0.417614
C242	C	0.002528	-0.423869	0.839533
C243	C	-0.018549	-0.441252	0.827096
C244	C	-0.068866	-0.428927	0.852641
H245	H	-0.002906	-0.438240	0.873674
H246	H	-0.011875	-0.389341	0.831150
H247	H	-0.004151	-0.475774	0.835482
H248	H	-0.013129	-0.426885	0.792959
H249	H	-0.083269	-0.394399	0.844258
H250	H	-0.074295	-0.443298	0.886781
H251	H	-0.083174	-0.440715	0.844202
C252	C	0.176951	-0.510966	0.839367
C253	C	0.224638	-0.518131	0.805980
C254	C	0.258014	-0.547573	0.831433
H255	H	0.172117	-0.495391	0.859332
H256	H	0.172082	-0.541658	0.859312
H257	H	0.229504	-0.487444	0.786044
H258	H	0.229487	-0.533711	0.786015
H259	H	0.253146	-0.578265	0.851378
H260	H	0.253176	-0.531995	0.851397
H261	H	0.290373	-0.552442	0.808784
H262	H	0.198696	-0.471996	0.739692
H263	H	0.015920	-0.427139	0.531437
C264	C	0.037790	-0.388202	0.570324
C265	C	-0.009920	-0.381029	0.577518
C266	C	-0.043247	-0.351600	0.606924
H267	H	0.042669	-0.403790	0.601009
H268	H	0.042664	-0.357511	0.554700
H269	H	-0.014792	-0.411714	0.593143
H270	H	-0.014815	-0.365435	0.546843
H271	H	-0.038374	-0.320909	0.591300
H272	H	-0.038364	-0.367192	0.637606
H273	H	-0.075622	-0.346726	0.611805
H274	H	-0.059824	-0.503179	0.174290
C275	C	0.331156	-0.517991	0.559431
C276	C	0.301746	-0.505261	0.533668
C277	C	0.276116	-0.538074	0.557924
H278	H	0.353680	-0.550175	0.561302
H279	H	0.311188	-0.516693	0.591492
H280	H	0.321713	-0.506564	0.501616
H281	H	0.279214	-0.473083	0.531797
H282	H	0.256147	-0.536776	0.589985
H283	H	0.298643	-0.570256	0.559793
H284	H	0.256155	-0.529439	0.540450
C285	C	0.176490	-0.510957	0.447640
C286	C	0.169174	-0.556130	0.470773
C287	C	0.202386	-0.585624	0.441416
H288	H	0.171570	-0.495385	0.416978
H289	H	0.208906	-0.515901	0.442705
H290	H	0.136766	-0.551186	0.475702
H291	H	0.174099	-0.571717	0.501433
H292	H	0.234802	-0.590567	0.436481
H293	H	0.197463	-0.570047	0.410755
H294	H	0.197430	-0.616278	0.457109
H295	H	0.430920	-0.389838	0.464614
C296	C	-0.234461	-0.620008	0.468721
C297	C	-0.263853	-0.645531	0.480886
C298	C	-0.289578	-0.657885	0.531166
H299	H	-0.211994	-0.640010	0.486191
H300	H	-0.254449	-0.591069	0.477105
H301	H	-0.243866	-0.674466	0.472507
H302	H	-0.286329	-0.625538	0.463429
H303	H	-0.309567	-0.628945	0.539550
H304	H	-0.267108	-0.677885	0.548631
H305	H	-0.309527	-0.675199	0.539425
C306	C	0.331234	-0.345351	0.493620
C307	C	0.364578	-0.320214	0.468668
C308	C	0.339077	-0.270273	0.461395
H309	H	0.311251	-0.333287	0.474873
H310	H	0.311304	-0.340589	0.524364
H311	H	0.384499	-0.324973	0.437929
H312	H	0.384562	-0.332263	0.487407
H313	H	0.319148	-0.265510	0.492138
H314	H	0.319095	-0.258214	0.442648
H315	H	0.361697	-0.253211	0.444468
H316	H	0.160490	-0.218637	0.448603
H317	H	0.129496	-0.125810	0.417697
H318	H	0.084809	-0.218687	0.600218
C319	C	0.045829	-0.119004	0.578417
C320	C	0.038696	-0.152375	0.626116
C321	C	0.009282	-0.126900	0.659471
H322	H	0.061409	-0.099033	0.573551
H323	H	0.015127	-0.099063	0.573558
H324	H	0.069392	-0.172308	0.630973
H325	H	0.023110	-0.172347	0.630998
H326	H	-0.021420	-0.106958	0.654612
H327	H	0.024865	-0.106929	0.654600
H328	H	0.004435	-0.149538	0.691838
H329	H	-0.090896	-0.534066	0.267110
C330	C	0.023919	-0.663927	0.167525
C331	C	0.031038	-0.711622	0.200907
C332	C	0.060491	-0.744990	0.175447
H333	H	0.008372	-0.659061	0.147519
H334	H	0.054623	-0.659079	0.147622
H335	H	0.000341	-0.716468	0.220802
H336	H	0.046591	-0.716503	0.220914
H337	H	0.091194	-0.740142	0.155543
H338	H	0.044940	-0.740120	0.155441
H339	H	0.065328	-0.777355	0.198092
H340	H	-0.015148	-0.685706	0.267200
C341	C	-0.063428	-0.489497	0.338239
C342	C	-0.092760	-0.464002	0.308737
C343	C	-0.105104	-0.413673	0.296262
H344	H	-0.080846	-0.481010	0.367118
H345	H	-0.034481	-0.481135	0.320902
H346	H	-0.121702	-0.472359	0.326074
H347	H	-0.075351	-0.472473	0.279853
H348	H	-0.076157	-0.405312	0.278925
H349	H	-0.122520	-0.405192	0.325143
H350	H	-0.125003	-0.396369	0.276240
H351	H	-0.090949	-0.534065	0.310634
H352	H	0.021953	-0.691318	0.320042
H353	H	0.169570	-0.532590	0.363385
C354	C	-0.106391	-0.790843	0.414732
C355	C	-0.153745	-0.757449	0.417412
C356	C	-0.186736	-0.782897	0.441780
H357	H	-0.097921	-0.810837	0.397370
H358	H	-0.105125	-0.810759	0.446812
H359	H	-0.155009	-0.737541	0.385337
H360	H	-0.162231	-0.737454	0.434777
H361	H	-0.185469	-0.802814	0.473860
H362	H	-0.178260	-0.802891	0.424415
H363	H	-0.218869	-0.760244	0.443605
H364	H	-0.128252	-0.691169	0.377093
H365	H	-0.227194	-0.540877	0.303400
C366	C	-0.127765	-0.655641	0.433405
C367	C	-0.161178	-0.662760	0.481080
C368	C	-0.135756	-0.692166	0.514485
H369	H	-0.107811	-0.686349	0.428577
H370	H	-0.107812	-0.640044	0.428557
H371	H	-0.181121	-0.678357	0.485925
H372	H	-0.181132	-0.632061	0.485924
H373	H	-0.115804	-0.676569	0.509637
H374	H	-0.115804	-0.722872	0.509652
H375	H	-0.158423	-0.696996	0.546836
H376	H	0.023891	-0.387055	0.363546
C377	C	-0.127491	-0.568536	0.258933
C378	C	-0.160788	-0.539107	0.233390
C379	C	-0.135234	-0.526747	0.183074
H380	H	-0.107520	-0.551179	0.250516
H381	H	-0.107545	-0.597474	0.250543
H382	H	-0.180726	-0.510173	0.241776
H383	H	-0.180760	-0.556454	0.241792
H384	H	-0.115288	-0.555686	0.174684
H385	H	-0.115265	-0.509392	0.174662
H386	H	-0.157823	-0.506782	0.165736
