data_functionalizedCrystal
_audit_creation_method	'MofGen! by Chris Wilmer'
_symmetry_space_group_name_H-M	'P1'
_symmetry_Int_Tables_number	1
_symmetry_cell_setting	triclinic
loop_
_symmetry_equiv_pos_as_xyz
  x,y,z
_cell_length_a	16.120297
_cell_length_b	14.908571
_cell_length_c	14.908183
_cell_angle_alpha	90.178529
_cell_angle_beta	89.407800
_cell_angle_gamma	90.247904
loop_
_atom_site_label
_atom_site_type_symbol
_atom_site_fract_x
_atom_site_fract_y
_atom_site_fract_z
Zn1	Zn	-0.517103	-1.324081	-0.464117
Zn2	Zn	-0.370061	-1.323813	-0.606909
Zn3	Zn	-0.371017	-1.182165	-0.447922
Zn4	Zn	-0.501129	-1.165942	-0.604929
O5	O	-0.439827	-1.249000	-0.530969
O6	O	-0.503882	-1.449507	-0.490665
O7	O	-0.254197	-1.311701	-0.579870
O8	O	-0.397481	-1.207892	-0.324604
O9	O	-0.395851	-1.449310	-0.595573
O10	O	-0.504810	-1.312157	-0.336502
O11	O	-0.254900	-1.207633	-0.463063
O12	O	-0.381991	-1.054552	-0.461143
O13	O	-0.619238	-1.180241	-0.592198
O14	O	-0.477584	-1.042632	-0.576495
O15	O	-0.630974	-1.296425	-0.488745
O16	O	-0.380362	-1.295969	-0.732112
O17	O	-0.476657	-1.179982	-0.730658
C18	C	-0.428159	-1.016061	-0.516848
C19	C	-0.423185	-0.916406	-0.510829
C20	C	-0.656022	-1.236554	-0.542057
C21	C	-0.748151	-1.231250	-0.546782
C22	C	-0.426691	-1.236209	-0.763920
C23	C	-0.421104	-1.230818	-0.863583
C24	C	-0.916832	-1.221534	-0.555387
C25	C	-0.963698	-1.276657	-0.506293
C26	C	-1.057558	-1.271252	-0.511081
C27	C	-0.822964	-1.226939	-0.550601
C28	C	-0.224480	-1.261453	-0.519862
C29	C	-0.132374	-1.266945	-0.514895
C30	C	-0.451542	-1.482849	-0.545147
C31	C	-0.456534	-1.582501	-0.551188
C32	C	-0.513228	-0.716779	-0.619806
C33	C	-0.508557	-0.623145	-0.614153
C34	C	-0.409179	-0.635500	-0.493869
C35	C	-0.413850	-0.729135	-0.499521
C36	C	-0.465875	-0.769771	-0.562492
C37	C	-0.470540	-0.863408	-0.568148
C38	C	-0.371167	-0.875761	-0.447860
C39	C	-0.366496	-0.782126	-0.442208
C40	C	-0.357307	-1.168983	-0.997935
C41	C	-0.362555	-1.174046	-0.904292
C42	C	-0.474410	-1.282529	-0.916524
C43	C	-0.469162	-1.277466	-1.010167
C44	C	-0.410607	-1.220693	-1.050869
C45	C	-0.405356	-1.215635	-1.144514
C46	C	-0.517214	-1.324113	-1.156744
C47	C	-0.522462	-1.329175	-1.063101
C48	C	-0.453034	-1.261864	-0.297111
C49	C	-0.458662	-1.267346	-0.197455
H50	H	-0.933330	-1.327909	-0.460665
N51	N	-0.320082	-0.932916	-0.386043
H52	H	-0.330931	-0.998400	-0.399179
H53	H	-0.335866	-0.919314	-0.321706
N54	N	-0.342201	-1.154409	-1.188419
H55	H	-0.309233	-1.122418	-1.140672
H56	H	-0.371649	-1.108847	-1.226510
N57	N	-0.559627	-0.565993	-0.675978
H58	H	-0.521602	-0.526807	-0.713396
H59	H	-0.598202	-0.526986	-0.639173
H60	H	-0.309625	-1.122761	-1.031076
N61	N	-0.957064	-1.153657	-0.615823
H62	H	-0.939146	-1.164906	-0.679980
H63	H	-0.939612	-1.091237	-0.597195
N64	N	-0.526645	-0.907241	-0.636067
H65	H	-0.555936	-0.859459	-0.671515
H66	H	-0.569048	-0.945886	-0.603949
N67	N	-0.537567	-1.343742	-0.872604
H68	H	-0.508179	-1.389355	-0.834513
H69	H	-0.570527	-1.375673	-0.920391
N70	N	-0.569326	-0.760616	-0.687729
H71	H	-0.598613	-0.712837	-0.723184
H72	H	-0.611733	-0.799261	-0.655615
N73	N	-0.585615	-1.390399	-1.019190
H74	H	-0.556223	-1.436013	-0.981104
H75	H	-0.618569	-1.422329	-1.066983
N76	N	-0.353040	-0.591663	-0.425985
H77	H	-0.357260	-0.524305	-0.431114
H78	H	-0.293867	-0.610676	-0.437834
H79	H	-0.319153	-1.131938	-0.861196
H80	H	-0.324142	-0.749027	-0.390936
H81	H	-0.560613	-1.366221	-1.199853
