data_functionalizedCrystal
_audit_creation_method	'MofGen! by Chris Wilmer'
_symmetry_space_group_name_H-M	'P1'
_symmetry_Int_Tables_number	1
_symmetry_cell_setting	triclinic
loop_
_symmetry_equiv_pos_as_xyz
  x,y,z
_cell_length_a	14.044220
_cell_length_b	14.044220
_cell_length_c	13.101018
_cell_angle_alpha	86.335703
_cell_angle_beta	93.664400
_cell_angle_gamma	93.188878
loop_
_atom_site_label
_atom_site_type_symbol
_atom_site_fract_x
_atom_site_fract_y
_atom_site_fract_z
O1	O	0.225353	1.281975	-0.085109
O2	O	0.725353	1.781975	0.414891
O3	O	0.217046	1.005305	-0.085135
O4	O	0.717046	1.505305	0.414865
O5	O	0.082864	1.139486	-0.085113
O6	O	0.582864	1.639486	0.414887
O7	O	0.359534	1.147793	-0.085132
O8	O	0.859534	1.647793	0.414868
O9	O	0.092500	1.129848	0.085316
O10	O	0.592500	1.629848	0.585316
O11	O	0.226681	0.995666	0.085294
O12	O	0.726681	1.495666	0.585294
O13	O	0.234988	1.272336	0.085319
O14	O	0.734988	1.772336	0.585319
Zn15	Zn	0.232365	1.132471	0.112366
Zn16	Zn	0.732365	1.632471	0.612366
Zn17	Zn	0.219669	1.145170	-0.112182
Zn18	Zn	0.719669	1.645170	0.387818
O19	O	0.369170	1.138155	0.085297
O20	O	0.869170	1.638155	0.585297
C21	C	0.218228	0.964864	0.000076
C22	C	0.718228	1.464864	0.500076
C23	C	0.207383	0.858722	0.000066
C24	C	0.707383	1.358722	0.500066
C25	C	0.187558	0.664383	0.000088
C26	C	0.687558	1.164383	0.500088
C27	C	0.264472	0.613253	0.000087
C28	C	0.764472	1.113253	0.500087
C29	C	0.253441	0.505116	0.000099
C30	C	0.753441	1.005116	0.500099
C31	C	0.198587	0.772529	0.000076
C32	C	0.698587	1.272529	0.500076
C33	C	0.052060	1.131031	0.000102
C34	C	0.552060	1.631031	0.500102
C35	C	-0.054083	1.120187	0.000102
C36	C	0.445917	1.620187	0.500102
C37	C	-0.248421	1.100362	0.000086
C38	C	0.251579	1.600362	0.500086
C39	C	-0.299551	1.177276	0.000090
C40	C	0.200449	1.677276	0.500090
C41	C	-0.407688	1.166245	0.000080
C42	C	0.092312	1.666245	0.500080
C43	C	-0.140275	1.111391	0.000095
C44	C	0.359725	1.611391	0.500095
C45	C	0.399974	1.146610	0.000080
C46	C	0.899974	1.646610	0.500080
C47	C	0.506116	1.157455	0.000073
C48	C	1.006116	1.657455	0.500073
C49	C	0.233806	1.312777	0.000106
C50	C	0.733806	1.812777	0.500106
C51	C	0.244651	1.418920	0.000109
C52	C	0.744651	1.918920	0.500109
N53	N	0.241029	1.123811	0.265613
N54	N	0.741029	1.623811	0.765613
N55	N	0.210998	1.153837	-0.265429
N56	N	0.710998	1.653837	0.234571
C57	C	0.199206	1.165614	0.525530
C58	C	0.699206	1.665614	1.025530
C59	C	0.252818	1.112036	0.474648
C60	C	0.752818	1.612036	0.974648
C61	C	0.246257	1.118589	0.358330
C62	C	0.746257	1.618589	0.858330
C63	C	0.205766	1.159063	0.641858
C64	C	0.705766	1.659063	1.141858
H65	H	0.338605	0.650693	0.000077
H66	H	0.838605	1.150693	0.500077
H67	H	-0.262115	1.251413	0.000028
H68	H	0.237885	1.751413	0.500028
H69	H	0.113431	0.626945	0.000099
H70	H	0.613431	1.126945	0.500099
O71	O	0.138499	1.226230	0.473450
O72	O	0.638499	1.726230	0.973450
C73	C	0.089958	1.274786	0.543660
C74	C	0.589958	1.774786	1.043660
H75	H	0.089807	1.231313	0.620177
H76	H	0.589807	1.731313	1.120177
H77	H	0.127589	1.347714	0.555022
H78	H	0.627589	1.847714	1.055022
C79	C	-0.013510	1.341434	0.407668
C80	C	0.486490	1.841434	0.907668
C81	C	-0.013703	1.288034	0.501644
C82	C	0.486297	1.788034	1.001644
H83	H	-0.077452	1.349610	0.381749
H84	H	0.422548	1.849610	0.881749
H85	H	0.019195	1.308724	0.360365
H86	H	0.519195	1.808724	0.860365
H87	H	0.017854	1.402201	0.417148
H88	H	0.517854	1.902201	0.917148
H89	H	-0.045056	1.227264	0.492160
H90	H	0.454944	1.727264	0.992160
H91	H	-0.046416	1.320734	0.548945
H92	H	0.453584	1.820734	1.048945
H93	H	-0.285859	1.026235	0.000076
H94	H	0.214141	1.526235	0.500076
H95	H	0.303645	1.061246	0.518444
H96	H	0.803645	1.561246	1.018444
