data_functionalizedCrystal
_audit_creation_method	'MofGen! by Chris Wilmer'
_symmetry_space_group_name_H-M	'P1'
_symmetry_Int_Tables_number	1
_symmetry_cell_setting	triclinic
loop_
_symmetry_equiv_pos_as_xyz
  x,y,z
_cell_length_a	14.044220
_cell_length_b	11.792241
_cell_length_c	10.268362
_cell_angle_alpha	89.998512
_cell_angle_beta	90.000071
_cell_angle_gamma	88.691147
loop_
_atom_site_label
_atom_site_type_symbol
_atom_site_fract_x
_atom_site_fract_y
_atom_site_fract_z
O1	O	-1.259114	-0.273764	0.108163
O2	O	-0.983094	-0.263885	0.108196
O3	O	-1.127803	-0.104283	0.108169
O4	O	-1.114406	-0.433366	0.108189
O5	O	-1.127789	-0.104288	-0.108431
O6	O	-0.983080	-0.263890	-0.108405
O7	O	-1.259100	-0.273769	-0.108438
Cu8	Cu	-1.121089	-0.268830	-0.128199
Cu9	Cu	-1.121106	-0.268824	0.127957
O10	O	-1.114392	-0.433371	-0.108411
C11	C	-1.126954	-0.061915	-0.000130
C12	C	-1.124435	0.064335	-0.000129
C13	C	-0.947751	-0.259563	-0.000100
C14	C	-0.842459	-0.246664	-0.000088
C15	C	-1.294444	-0.278091	-0.000139
C16	C	-1.399736	-0.290990	-0.000143
C17	C	-0.649676	-0.223082	-0.000115
C18	C	-0.592513	-0.314567	-0.000115
C19	C	-0.485242	-0.301445	-0.000130
C20	C	-0.756957	-0.236202	-0.000100
C21	C	-1.115241	-0.475739	-0.000109
C22	C	-1.117759	-0.601989	-0.000102
N23	N	-1.121084	-0.268834	-0.308365
C24	C	-1.119804	0.295482	-0.000107
C25	C	-1.122377	0.166855	-0.000119
C26	C	-1.121091	-0.268835	-0.426207
C27	C	-1.121103	-0.268826	-0.574045
N28	N	-1.121118	-0.268812	0.308123
H29	H	-0.624137	-0.402744	-0.000104
O30	O	-0.611800	-0.117975	-0.000061
C31	C	-0.468783	-0.008908	-0.000147
C32	C	-0.511566	-0.128004	-0.000185
H33	H	-0.387738	-0.016976	-0.000275
H34	H	-0.493407	0.039224	0.090526
H35	H	-0.493543	0.039205	-0.090768
H36	H	-0.486826	-0.176211	0.090375
H37	H	-0.486946	-0.176050	-0.090918
