data_functionalizedCrystal
_audit_creation_method	'MofGen! by Chris Wilmer'
_symmetry_space_group_name_H-M	'P1'
_symmetry_Int_Tables_number	1
_symmetry_cell_setting	triclinic
loop_
_symmetry_equiv_pos_as_xyz
  x,y,z
_cell_length_a	19.077241
_cell_length_b	19.077396
_cell_length_c	19.077271
_cell_angle_alpha	94.526463
_cell_angle_beta	89.928553
_cell_angle_gamma	89.927536
loop_
_atom_site_label
_atom_site_type_symbol
_atom_site_fract_x
_atom_site_fract_y
_atom_site_fract_z
Zn1	Zn	-1.067464	0.220067	-0.432117
Zn2	Zn	-0.734131	0.553400	-0.098784
Zn3	Zn	-0.400798	0.886733	0.234549
Zn4	Zn	-1.077196	0.342286	-0.309912
Zn5	Zn	-0.743863	0.675619	0.023422
Zn6	Zn	-0.410529	1.008952	0.356755
Zn7	Zn	-0.955073	0.229517	-0.309529
Zn8	Zn	-0.621739	0.562851	0.023804
Zn9	Zn	-0.288406	0.896184	0.357137
Zn10	Zn	-0.955030	0.342613	-0.422637
Zn11	Zn	-0.621697	0.675946	-0.089304
Zn12	Zn	-0.288363	1.009279	0.244030
O13	O	-1.013691	0.283621	-0.368549
O14	O	-0.680357	0.616954	-0.035216
O15	O	-0.347024	0.950287	0.298118
O16	O	-1.166918	0.232187	-0.420034
O17	O	-0.833585	0.565520	-0.086701
O18	O	-0.500252	0.898854	0.246632
O19	O	-1.065087	0.331145	-0.211382
O20	O	-0.731754	0.664478	0.121952
O21	O	-0.398420	0.997812	0.455285
O22	O	-0.965927	0.129784	-0.329598
O23	O	-0.632593	0.463117	0.003735
O24	O	-0.299260	0.796451	0.337068
O25	O	-1.174068	0.321981	-0.330250
O26	O	-0.840735	0.655314	0.003083
O27	O	-0.507402	0.988647	0.336416
O28	O	-1.048500	0.122840	-0.419663
O29	O	-0.715167	0.456174	-0.086330
O30	O	-0.381834	0.789507	0.247003
O31	O	-0.975363	0.248295	-0.211101
O32	O	-0.642030	0.581628	0.122233
O33	O	-0.308697	0.914961	0.455566
O34	O	-0.856904	0.248612	-0.320406
O35	O	-0.523571	0.581945	0.012928
O36	O	-0.190237	0.915278	0.346261
O37	O	-0.965854	0.322538	-0.522374
O38	O	-0.632521	0.655872	-0.189041
O39	O	-0.299187	0.989205	0.144293
O40	O	-0.856873	0.331702	-0.403505
O41	O	-0.523539	0.665036	-0.070172
O42	O	-0.190206	0.998369	0.263161
O43	O	-1.048459	0.232504	-0.529339
O44	O	-0.715126	0.565838	-0.196006
O45	O	-0.381792	0.899171	0.137327
O46	O	-1.065046	0.440809	-0.321058
O47	O	-0.731712	0.774142	0.012276
O48	O	-0.398379	1.107475	0.345609
O49	O	-0.975291	0.441049	-0.403876
O50	O	-0.641957	0.774382	-0.070543
O51	O	-0.308624	1.107716	0.262790
C52	C	-0.831436	0.291219	-0.360886
C53	C	-0.498102	0.624552	-0.027552
C54	C	-0.164769	0.957885	0.305781
C55	C	-0.753466	0.294485	-0.357623
C56	C	-0.420133	0.627819	-0.024290
C57	C	-0.086799	0.961152	0.309043
C58	C	-0.713114	0.249338	-0.402902
C59	C	-0.379781	0.582672	-0.069569
C60	C	-0.046447	0.916005	0.263764
C61	C	-0.639853	0.252405	-0.399831
C62	C	-0.306520	0.585738	-0.066498
C63	C	0.026813	0.919071	0.266836
C64	C	-0.606946	0.300622	-0.351484
C65	C	-0.273613	0.633955	-0.018150
C66	C	0.059720	0.967289	0.315183
C67	C	-0.647304	0.345771	-0.306200
C68	C	-0.313971	0.679105	0.027133
C69	C	0.019363	1.012438	0.360467
C70	C	-0.720563	0.342701	-0.309268
C71	C	-0.387230	0.676034	0.024065
C72	C	-0.053896	1.009368	0.357398
C73	C	-0.388244	0.314807	-0.337284
C74	C	-0.054911	0.648141	-0.003951
C75	C	0.278422	0.981474	0.329383
C76	C	-0.314980	0.317876	-0.334220
C77	C	0.018354	0.651209	-0.000887
C78	C	0.351687	0.984542	0.332446
C79	C	-0.307534	0.224508	-0.427851
C80	C	0.025799	0.557841	-0.094518
C81	C	0.359133	0.891174	0.238815
C82	C	-0.380795	0.221444	-0.430918
C83	C	-0.047462	0.554778	-0.097585
C84	C	0.285872	0.888111	0.235749
C85	C	-0.421146	0.266591	-0.385632
C86	C	-0.087813	0.599924	-0.052298
C87	C	0.245520	0.933258	0.281035
N88	N	-0.532062	0.303759	-0.348345
N89	N	-0.198729	0.637092	-0.015011
N90	N	0.134604	0.970426	0.318322
N91	N	-0.496029	0.263450	-0.388768
N92	N	-0.162695	0.596783	-0.055435
N93	N	0.170638	0.930117	0.277899
C94	C	-1.021238	0.466462	-0.361496
C95	C	-0.687905	0.799796	-0.028162
C96	C	-0.354571	1.133129	0.305171
C97	C	-1.024530	0.544679	-0.358505
C98	C	-0.691197	0.878013	-0.025171
C99	C	-0.357863	1.211346	0.308162
C100	C	-0.196658	0.275990	-0.376237
C101	C	0.136676	0.609323	-0.042904
C102	C	0.470009	0.942656	0.290430
C103	C	-0.274627	0.272728	-0.379499
C104	C	0.058706	0.606062	-0.046166
C105	C	0.392039	0.939395	0.287167
C106	C	-1.048095	0.984941	-0.337025
C107	C	-0.714762	1.318275	-0.003692
C108	C	-0.381429	1.651608	0.329641
C109	C	-1.044996	0.911448	-0.339837
C110	C	-0.711663	1.244782	-0.006504
C111	C	-0.378329	1.578115	0.326830
C112	C	-0.996686	0.874858	-0.384326
C113	C	-0.663352	1.208191	-0.050993
C114	C	-0.330019	1.541524	0.282340
C115	C	-0.951467	0.911764	-0.426002
C116	C	-0.618134	1.245097	-0.092668
C117	C	-0.284800	1.578431	0.240665
C118	C	-0.954563	0.985256	-0.423186
C119	C	-0.621230	1.318589	-0.089853
C120	C	-0.287897	1.651923	0.243481
C121	C	-0.982408	0.655077	-0.397364
C122	C	-0.649074	0.988411	-0.064031
C123	C	-0.315741	1.321744	0.269303
C124	C	-0.979316	0.581580	-0.400178
C125	C	-0.645983	0.914914	-0.066845
C126	C	-0.312649	1.248247	0.266488
C127	C	-1.072845	0.581270	-0.314012
C128	C	-0.739511	0.914603	0.019321
C129	C	-0.406178	1.247936	0.352654
C130	C	-1.075940	0.654763	-0.311204
C131	C	-0.742606	0.988096	0.022130
C132	C	-0.409273	1.321429	0.355463
C133	C	-1.030718	0.691663	-0.352876
C134	C	-0.697385	1.024996	-0.019543
C135	C	-0.364052	1.358330	0.313791
N136	N	-0.993518	0.799736	-0.387203
N137	N	-0.660185	1.133069	-0.053870
N138	N	-0.326851	1.466403	0.279464
N139	N	-1.033883	0.766784	-0.349995
N140	N	-0.700550	1.100117	-0.016662
N141	N	-0.367217	1.433450	0.316672
C142	C	-1.006066	0.276504	-0.552105
C143	C	-0.672733	0.609837	-0.218772
C144	C	-0.339399	0.943170	0.114561
C145	C	-1.002817	0.273471	-0.630326
C146	C	-0.669484	0.606804	-0.296993
C147	C	-0.336150	0.940137	0.036341
C148	C	-1.006125	1.100063	-0.375653
C149	C	-0.672792	1.433397	-0.042320
C150	C	-0.339458	1.766730	0.291014
C151	C	-1.002882	1.021842	-0.378699
C152	C	-0.669548	1.355176	-0.045366
C153	C	-0.336215	1.688509	0.287968
C154	C	-0.979515	0.251774	-1.070611
C155	C	-0.646182	0.585108	-0.737277
C156	C	-0.312849	0.918441	-0.403944
C157	C	-0.982572	0.254621	-0.997114
C158	C	-0.649238	0.587955	-0.663781
C159	C	-0.315905	0.921288	-0.330448
C160	C	-1.030810	0.299184	-0.960511
C161	C	-0.697477	0.632517	-0.627178
C162	C	-0.364144	0.965851	-0.293845
C163	C	-1.076001	0.340898	-0.997409
C164	C	-0.742667	0.674231	-0.664076
C165	C	-0.409334	1.007564	-0.330742
C166	C	-1.072947	0.338047	-1.070904
C167	C	-0.739614	0.671380	-0.737571
C168	C	-0.406281	1.004713	-0.404238
C169	C	-1.044954	0.312333	-0.740719
C170	C	-0.711621	0.645667	-0.407386
C171	C	-0.378287	0.979000	-0.074052
C172	C	-1.048002	0.315183	-0.667218
C173	C	-0.714669	0.648516	-0.333885
C174	C	-0.381336	0.981849	-0.000552
C175	C	-0.954574	0.228905	-0.666929
C176	C	-0.621241	0.562238	-0.333596
C177	C	-0.287907	0.895572	-0.000262
C178	C	-0.951522	0.226061	-0.740426
C179	C	-0.618189	0.559394	-0.407092
C180	C	-0.284855	0.892728	-0.073759
C181	C	-0.996715	0.267772	-0.777317
C182	C	-0.663381	0.601105	-0.443984
C183	C	-0.330048	0.934438	-0.110650
N184	N	-1.033934	0.302097	-0.885386
N185	N	-0.700600	0.635430	-0.552053
N186	N	-0.367267	0.968763	-0.218719
N187	N	-0.993594	0.264855	-0.852441
N188	N	-0.660261	0.598188	-0.519108
N189	N	-0.326927	0.931521	-0.185775
C190	C	-1.021324	0.290657	-0.185710
C191	C	-0.687991	0.623991	0.147623
C192	C	-0.354657	0.957324	0.480956
C193	C	-1.024701	0.293486	-0.107503
C194	C	-0.691368	0.626820	0.225830
C195	C	-0.358034	0.960153	0.559163
H196	H	-0.274673	0.187751	-0.464720
H197	H	0.058661	0.521084	-0.131386
H198	H	0.391994	0.854418	0.201947
Br199	Br	-0.913749	0.531921	-0.460563
Br200	Br	-0.580416	0.865255	-0.127229
Br201	Br	-0.247082	1.198588	0.206104
H202	H	-0.945580	0.685113	-0.431291
H203	H	-0.612247	1.018446	-0.097958
H204	H	-0.278913	1.351780	0.235375
Br205	Br	-0.885900	0.862106	-0.486380
Br206	Br	-0.552567	1.195440	-0.153046
Br207	Br	-0.219234	1.528773	0.180287
Br208	Br	-0.893253	0.172291	-0.616859
Br209	Br	-0.559920	0.505624	-0.283526
Br210	Br	-0.226587	0.838958	0.049807
H211	H	-1.087300	0.351458	-0.637419
H212	H	-0.753966	0.684791	-0.304086
H213	H	-0.420633	1.018125	0.029247
H214	H	-1.115278	0.684550	-0.274974
H215	H	-0.781944	1.017883	0.058359
H216	H	-0.448611	1.351217	0.391693
H217	H	-0.421089	0.351570	-0.300409
H218	H	-0.087756	0.684903	0.032924
H219	H	0.245577	1.018236	0.366257
H220	H	-1.081812	0.881404	-0.305902
H221	H	-0.748479	1.214737	0.027431
H222	H	-0.415146	1.548070	0.360764
H223	H	-1.081751	0.346299	-0.770747
H224	H	-0.748418	0.679632	-0.437414
H225	H	-0.415085	1.012966	-0.104081
Br226	Br	-1.141476	0.401369	-0.947735
Br227	Br	-0.808142	0.734702	-0.614402
Br228	Br	-0.474809	1.068035	-0.281068
H229	H	-0.753417	0.379464	-0.272397
H230	H	-0.420084	0.712798	0.060937
H231	H	-0.086751	1.046131	0.394270
H232	H	-0.917749	1.015300	-0.457125
H233	H	-0.584415	1.348633	-0.123791
H234	H	-0.251082	1.681966	0.209542
Br235	Br	-0.914044	0.191294	-1.120279
Br236	Br	-0.580711	0.524627	-0.786946
Br237	Br	-0.247378	0.857961	-0.453612
Br238	Br	-1.134279	0.394652	-1.120974
Br239	Br	-0.800945	0.727985	-0.787641
Br240	Br	-0.467612	1.061318	-0.454308
Br241	Br	-0.425450	0.156010	-0.496541
Br242	Br	-0.092116	0.489344	-0.163208
Br243	Br	0.241217	0.822677	0.170125
Br244	Br	-0.886007	0.165630	-0.790092
Br245	Br	-0.552674	0.498963	-0.456759
Br246	Br	-0.219341	0.832297	-0.123426
Br247	Br	-0.757766	0.183902	-0.468525
Br248	Br	-0.424433	0.517235	-0.135191
Br249	Br	-0.091100	0.850568	0.198142
H250	H	-0.620505	0.385028	-0.266831
H251	H	-0.287172	0.718361	0.066502
H252	H	0.046161	1.051695	0.399836
Br253	Br	-1.113668	1.034592	-0.276649
Br254	Br	-0.780335	1.367926	0.056684
Br255	Br	-0.447001	1.701259	0.390018
H256	H	-0.607002	0.215642	-0.436703
H257	H	-0.273668	0.548976	-0.103370
H258	H	0.059665	0.882309	0.229963
Br259	Br	-1.134212	0.531188	-0.257459
Br260	Br	-0.800879	0.864521	0.075874
Br261	Br	-0.467545	1.197854	0.409208
H262	H	-0.945776	0.220656	-0.967080
H263	H	-0.612443	0.553989	-0.633746
H264	H	-0.279109	0.887323	-0.300413
H265	H	-0.288189	0.357144	-0.294850
H266	H	0.045144	0.690477	0.038484
H267	H	0.378477	1.023810	0.371817
