data_functionalizedCrystal
_audit_creation_method	'MofGen! by Chris Wilmer'
_symmetry_space_group_name_H-M	'P1'
_symmetry_Int_Tables_number	1
_symmetry_cell_setting	triclinic
loop_
_symmetry_equiv_pos_as_xyz
  x,y,z
_cell_length_a	11.169416
_cell_length_b	11.169417
_cell_length_c	12.759393
_cell_angle_alpha	89.981660
_cell_angle_beta	89.970865
_cell_angle_gamma	90.011027
loop_
_atom_site_label
_atom_site_type_symbol
_atom_site_fract_x
_atom_site_fract_y
_atom_site_fract_z
Zn1	Zn	-0.477708	1.834946	-0.593995
Zn2	Zn	-0.678441	1.834842	-0.418322
Zn3	Zn	-0.477774	1.634237	-0.418335
Zn4	Zn	-0.678351	1.634240	-0.593964
O5	O	-0.578068	1.734566	-0.506154
O6	O	-0.504346	2.002882	-0.570699
O7	O	-0.651887	1.808186	-0.271303
O8	O	-0.309815	1.660904	-0.441654
O9	O	-0.651824	2.002805	-0.441633
O10	O	-0.309767	1.808364	-0.570711
O11	O	-0.504457	1.660803	-0.271312
O12	O	-0.504370	1.466288	-0.441625
O13	O	-0.651670	1.660910	-0.740989
O14	O	-0.651734	1.466290	-0.570659
O15	O	-0.504259	1.808367	-0.741012
O16	O	-0.846379	1.808189	-0.441604
O17	O	-0.846313	1.660808	-0.570647
C18	C	-0.578050	1.422742	-0.506140
C19	C	-0.578071	1.289342	-0.506160
C20	C	-0.889893	1.734520	-0.506144
C21	C	-1.023293	1.734610	-0.506174
C22	C	-0.265026	1.734646	-0.506187
C23	C	-0.131626	1.734680	-0.506202
C24	C	-0.577947	1.734650	-0.780187
C25	C	-0.577896	1.734686	-0.896964
C26	C	-0.578088	2.047609	-0.506168
C27	C	-0.578096	2.181009	-0.506174
C28	C	-0.501131	1.811478	-0.951840
C29	C	-0.501088	1.811507	-1.061564
C30	C	-0.654584	1.657948	-1.061527
C31	C	-0.654620	1.657914	-0.951805
C32	C	-0.412515	1.900138	-0.951861
C33	C	-0.412472	1.900166	-1.061586
C34	C	-0.578102	1.734552	-0.233187
C35	C	-0.577816	1.734748	-0.116410
H36	H	-0.717125	1.595379	-0.907130
C37	C	-0.738974	1.573502	-1.121863
N38	N	-0.802539	1.509895	-1.167306
C39	C	-0.286954	1.866524	-0.911653
N40	N	-0.192385	1.841202	-0.881368
H41	H	-0.445835	1.988412	-0.917826
C42	C	-0.446113	2.025739	-1.101821
N43	N	-0.471455	2.120316	-1.132125
H44	H	-0.324158	1.866901	-1.095630
