data_functionalizedCrystal
_audit_creation_method	'MofGen! by Chris Wilmer'
_symmetry_space_group_name_H-M	'P1'
_symmetry_Int_Tables_number	1
_symmetry_cell_setting	triclinic
loop_
_symmetry_equiv_pos_as_xyz
  x,y,z
_cell_length_a	17.639181
_cell_length_b	17.638516
_cell_length_c	17.640968
_cell_angle_alpha	87.860832
_cell_angle_beta	87.836484
_cell_angle_gamma	92.118618
loop_
_atom_site_label
_atom_site_type_symbol
_atom_site_fract_x
_atom_site_fract_y
_atom_site_fract_z
Zn1	Zn	1.171668	0.488993	-0.308382
Zn2	Zn	1.123950	0.630537	-0.214455
Zn3	Zn	1.020518	0.479415	-0.204894
Zn4	Zn	1.030099	0.582916	-0.355989
O5	O	1.086559	0.545465	-0.270930
O6	O	1.267871	0.531707	-0.279999
O7	O	1.086250	0.626411	-0.110644
O8	O	1.056529	0.378134	-0.194697
O9	O	1.232814	0.635699	-0.210992
O10	O	1.167577	0.385171	-0.270729
O11	O	1.010259	0.515383	-0.103620
O12	O	0.919255	0.469207	-0.240860
O13	O	1.072858	0.554536	-0.452217
O14	O	0.926294	0.545248	-0.351869
O15	O	1.176868	0.485531	-0.417239
O16	O	1.095541	0.726771	-0.257155
O17	O	1.026588	0.691785	-0.361139
C18	C	0.896189	0.501021	-0.300494
C19	C	0.814749	0.482022	-0.313163
C20	C	0.455638	0.689956	-0.174732
C21	C	0.379116	0.672093	-0.186640
C22	C	0.415630	0.563937	-0.258673
C23	C	0.492156	0.581788	-0.246767
C24	C	0.512154	0.644799	-0.204797
C25	C	0.548672	0.536632	-0.276832
C26	C	0.625192	0.554484	-0.264931
C27	C	0.645196	0.617494	-0.222964
C28	C	0.588674	0.662652	-0.192895
C29	C	0.528673	0.473624	-0.318807
C30	C	0.585189	0.428467	-0.348872
C31	C	0.661710	0.446317	-0.336966
C32	C	0.681714	0.509326	-0.294999
C33	C	0.718232	0.401158	-0.367035
C34	C	0.794752	0.419011	-0.355133
C35	C	0.758234	0.527179	-0.283098
C36	C	1.056950	0.735871	-0.315363
C37	C	1.044356	0.817339	-0.334386
C38	C	1.131254	0.515790	-0.462060
C39	C	1.150301	0.503144	-0.543508
C40	C	1.277672	0.590083	-0.241251
C41	C	1.359113	0.609097	-0.228604
C42	C	1.116307	0.354318	-0.226336
C43	C	1.128984	0.272863	-0.207333
C44	C	1.182688	1.176240	-0.126402
C45	C	1.170844	1.252787	-0.144291
C46	C	1.098948	1.216393	-0.252509
C47	C	1.110783	1.139841	-0.234627
C48	C	1.152654	1.119771	-0.171573
C49	C	1.080749	1.083372	-0.279797
C50	C	1.092586	1.006828	-0.261919
C51	C	1.134457	0.986751	-0.198870
C52	C	1.164491	1.043227	-0.153695
C53	C	1.038882	1.103444	-0.342854
C54	C	1.008848	1.046975	-0.388025
C55	C	1.020681	0.970428	-0.370143
C56	C	1.062552	0.950352	-0.307094
C57	C	0.990647	0.913953	-0.415318
C58	C	1.002484	0.837408	-0.397440
C59	C	1.074390	0.873807	-0.289216
C60	C	0.942208	0.641201	-0.902430
C61	C	0.960122	0.629313	-0.978958
C62	C	1.068418	0.557464	-0.942529
C63	C	1.050511	0.569344	-0.865996
C64	C	0.987405	0.611213	-0.845953
C65	C	1.095708	0.539356	-0.809520
C66	C	1.077805	0.551238	-0.732994
C67	C	1.014704	0.593107	-0.712944
C68	C	0.969502	0.623095	-0.769427
C69	C	1.158817	0.497491	-0.829564
C70	C	1.204014	0.467503	-0.773088
C71	C	1.186108	0.479380	-0.696560
C72	C	1.123007	0.521250	-0.676510
C73	C	1.231310	0.449393	-0.640076
C74	C	1.213406	0.461275	-0.563550
C75	C	1.105103	0.533132	-0.599984
C76	C	1.042088	0.574982	-0.080525
C77	C	1.023215	0.587454	0.000992
H78	H	0.471920	0.741262	-0.140550
H79	H	1.216777	1.159900	-0.075053
N80	N	0.318158	0.720804	-0.154215
H81	H	0.342441	0.763429	-0.125824
H82	H	0.283126	0.688772	-0.118317
H83	H	0.604956	0.713958	-0.158713
H84	H	0.568896	0.377165	-0.383046
H85	H	0.923311	0.653736	-1.024942
N86	N	0.874144	0.686361	-0.880803
H87	H	0.837399	0.653580	-0.847378
H88	H	0.848285	0.703549	-0.928228
H89	H	0.707504	0.632023	-0.213267
N90	N	1.037037	0.578290	-0.578363
H91	H	1.054102	0.624132	-0.549908
H92	H	1.000320	0.545452	-0.544966
N93	N	0.995374	0.605930	-0.630411
H94	H	1.039220	0.634000	-0.607299
H95	H	0.985393	0.555350	-0.602400
H96	H	1.119800	0.523377	-0.958860
H97	H	0.974759	1.063327	-0.439364
N98	N	0.394059	0.495979	-0.303942
H99	H	0.337008	0.491521	-0.306921
H100	H	0.412920	0.448500	-0.278320
H101	H	0.956562	0.930307	-0.466660
N102	N	0.901434	0.668249	-0.747800
H103	H	0.875514	0.685444	-0.795189
H104	H	0.918557	0.714056	-0.719328
N105	N	1.026102	1.186002	-0.362130
H106	H	0.995023	1.190148	-0.408928
H107	H	1.076696	1.213985	-0.372088
N108	N	1.203244	1.313696	-0.095571
H109	H	1.231565	1.289363	-0.052916
H110	H	1.160595	1.343809	-0.073688
H111	H	0.978028	0.791430	-0.434223
N112	N	0.855718	0.370322	-0.387571
H113	H	0.885807	0.348339	-0.344982
H114	H	0.890699	0.402364	-0.423509
N115	N	0.446140	0.454359	-0.331631
H116	H	0.442047	0.407591	-0.362782
H117	H	0.423064	0.498314	-0.359590
H118	H	1.108479	0.857467	-0.237866
H119	H	1.173393	0.487821	-0.891878
H120	H	0.774516	0.578485	-0.248916
N121	N	1.053789	1.238042	-0.320514
H122	H	1.050847	1.295101	-0.324987
H123	H	1.000853	1.214276	-0.314072
N124	N	1.272077	0.422349	-0.794708
H125	H	1.276562	0.419372	-0.851757
H126	H	1.265684	0.369424	-0.770894
H127	H	1.250210	0.436854	-0.517565
N128	N	0.696660	0.333206	-0.412309
H129	H	0.639609	0.328751	-0.415290
H130	H	0.715518	0.285722	-0.386693
N131	N	1.147231	0.904195	-0.179577
H132	H	1.175272	0.881049	-0.223455
H133	H	1.096637	0.876232	-0.169556
N134	N	1.209640	1.021570	-0.085679
H135	H	1.226868	1.068957	-0.059769
H136	H	1.255424	0.993043	-0.102841
N137	N	1.299376	0.404244	-0.661699
H138	H	1.303862	0.401271	-0.718748
H139	H	1.292990	0.351318	-0.637888
