data_functionalizedCrystal
_audit_creation_method	'MofGen! by Chris Wilmer'
_symmetry_space_group_name_H-M	'P1'
_symmetry_Int_Tables_number	1
_symmetry_cell_setting	triclinic
loop_
_symmetry_equiv_pos_as_xyz
  x,y,z
_cell_length_a	18.101398
_cell_length_b	18.050589
_cell_length_c	18.101398
_cell_angle_alpha	90.004632
_cell_angle_beta	90.012704
_cell_angle_gamma	89.970035
loop_
_atom_site_label
_atom_site_type_symbol
_atom_site_fract_x
_atom_site_fract_y
_atom_site_fract_z
Zn1	Zn	1.132017	0.295966	0.418862
Zn2	Zn	1.131931	0.420101	0.295031
Zn3	Zn	1.008202	0.295919	0.295023
Zn4	Zn	1.008119	0.420109	0.418819
O5	O	1.070067	0.358024	0.356934
O6	O	1.235639	0.312450	0.402457
O7	O	1.115516	0.403604	0.191397
O8	O	1.024697	0.192000	0.311466
O9	O	1.235575	0.403650	0.311478
O10	O	1.115664	0.192035	0.402450
O11	O	1.024613	0.312368	0.191391
O12	O	0.904558	0.312376	0.311424
O13	O	1.024557	0.403664	0.522458
O14	O	0.904497	0.403618	0.402376
O15	O	1.115584	0.312458	0.522489
O16	O	1.115436	0.524026	0.311436
O17	O	1.024473	0.524032	0.402383
C18	C	0.877657	0.357993	0.356895
C19	C	0.795343	0.357998	0.356896
C20	C	1.069956	0.550976	0.356922
C21	C	1.069976	0.633522	0.356942
C22	C	0.496252	0.358045	0.356958
C23	C	0.527590	0.300351	0.300013
C24	C	0.613208	0.300506	0.299770
C25	C	0.644634	0.358021	0.356928
C26	C	0.613516	0.436242	0.335609
C27	C	0.527870	0.435921	0.335213
C28	C	0.527852	0.338198	0.435356
C29	C	0.613503	0.336456	0.434928
C30	C	0.728494	0.358013	0.356911
C31	C	0.412392	0.358059	0.356973
C32	C	1.020536	0.833002	0.406382
C33	C	1.002493	0.882408	0.338804
C34	C	1.070032	0.784652	0.356952
C35	C	1.088096	0.882328	0.424539
C36	C	1.070084	0.930637	0.356968
C37	C	1.051953	0.832970	0.289338
C38	C	1.137587	0.832886	0.375119
C39	C	1.119569	0.882269	0.307494
C40	C	1.070000	0.700554	0.356944
C41	C	1.070117	1.014734	0.356968
C42	C	1.263229	0.358054	0.356973
C43	C	1.345543	0.358068	0.356990
C44	C	1.070071	0.358067	0.550096
C45	C	1.070072	0.358086	0.632410
C46	C	1.070171	1.164318	0.356963
C47	C	1.070142	1.081772	0.356977
C48	C	1.070055	0.358043	0.931501
C49	C	1.012592	0.415235	0.900156
C50	C	1.012765	0.415473	0.814537
C51	C	1.070063	0.358064	0.783118
C52	C	1.148081	0.379325	0.814226
C53	C	1.147743	0.379728	0.899871
C54	C	1.050185	0.279453	0.899919
C55	C	1.048466	0.279879	0.814268
C56	C	1.070072	0.358075	0.699259
C57	C	1.070051	0.358034	1.015360
C58	C	1.070055	0.358008	1.164523
C59	C	1.070045	0.358022	1.082209
H60	H	0.507021	0.242169	0.313228
H61	H	0.634250	0.242501	0.313132
H62	H	1.036629	0.811380	0.232171
N63	N	1.108308	0.911053	0.500237
H64	H	1.070864	0.893133	0.537525
H65	H	1.158965	0.892261	0.514273
N66	N	0.926852	0.911232	0.318456
H67	H	0.930440	0.942018	0.272007
H68	H	0.892399	0.868118	0.309722
H69	H	0.978625	0.811369	0.448124
H70	H	0.633673	0.313623	0.241678
N71	N	0.498784	0.317486	0.223606
H72	H	0.514873	0.368902	0.208619
H73	H	0.519049	0.280144	0.187323
H74	H	1.161448	0.903766	0.265651
N75	N	0.499277	0.263965	0.461040
H76	H	0.465553	0.242448	0.422110
H77	H	0.542251	0.229295	0.469566
N78	N	1.213209	0.804048	0.395497
H79	H	1.212741	0.748100	0.394862
H80	H	1.250721	0.822803	0.358692
H81	H	0.954911	0.402168	0.793504
H82	H	0.507869	0.452757	0.277901
H83	H	0.994274	0.260101	0.921503
H84	H	1.165227	0.436150	0.792788
N85	N	0.640438	0.260206	0.456224
H86	H	0.672675	0.239712	0.415522
H87	H	0.669953	0.263512	0.503463
N88	N	0.641833	0.388064	0.494146
H89	H	0.675398	0.426327	0.471147
H90	H	0.598737	0.413664	0.518740
H91	H	1.164590	0.437177	0.919859
N92	N	0.935709	0.397803	0.927400
H93	H	0.937378	0.352665	0.960330
H94	H	0.915945	0.441402	0.956262
H95	H	1.025579	0.473133	0.921686
N96	N	1.030147	0.492616	0.787403
H97	H	1.037736	0.526597	0.831078
H98	H	1.076594	0.491338	0.756524
H99	H	1.192009	0.339880	0.920608
H100	H	0.634941	0.453370	0.278916
H101	H	0.507138	0.480361	0.374882
N102	N	0.640446	0.494706	0.388844
H103	H	0.673160	0.470993	0.427381
H104	H	0.669457	0.533440	0.360956
N105	N	1.206331	0.325860	0.787286
H106	H	1.182651	0.287252	0.754577
H107	H	1.244983	0.353778	0.758265
H108	H	0.507584	0.380220	0.477786
N109	N	0.972417	0.258634	0.787335
H110	H	0.952033	0.299479	0.755088
H111	H	0.975678	0.211256	0.757829
N112	N	1.099869	0.220413	0.785943
H113	H	1.138057	0.243416	0.752370
H114	H	1.125362	0.195712	0.829040
H115	H	1.092039	0.236841	0.920191
