data_functionalizedCrystal
_audit_creation_method	'MofGen! by Chris Wilmer'
_symmetry_space_group_name_H-M	'P1'
_symmetry_Int_Tables_number	1
_symmetry_cell_setting	triclinic
loop_
_symmetry_equiv_pos_as_xyz
  x,y,z
_cell_length_a	19.288864
_cell_length_b	15.944551
_cell_length_c	17.766277
_cell_angle_alpha	89.992686
_cell_angle_beta	89.976791
_cell_angle_gamma	83.317492
loop_
_atom_site_label
_atom_site_type_symbol
_atom_site_fract_x
_atom_site_fract_y
_atom_site_fract_z
O1	O	0.921629	0.104784	-0.062837
O2	O	1.421629	0.604784	0.437163
O3	O	0.719406	0.118919	-0.062786
O4	O	1.219406	0.618919	0.437214
O5	O	0.826040	-0.010445	-0.062806
O6	O	1.326040	0.489555	0.437194
O7	O	0.814995	0.234147	-0.062817
O8	O	1.314995	0.734147	0.437183
O9	O	0.826021	-0.010451	0.062382
O10	O	1.326021	0.489549	0.562382
O11	O	0.719387	0.118912	0.062403
O12	O	1.219387	0.618912	0.562403
O13	O	0.921610	0.104777	0.062351
O14	O	1.421610	0.604777	0.562351
Cu15	Cu	0.820497	0.111844	0.073808
Cu16	Cu	1.320497	0.611844	0.573808
Cu17	Cu	0.820519	0.111852	-0.074242
Cu18	Cu	1.320519	0.611852	0.425758
O19	O	0.814976	0.234141	0.062372
O20	O	1.314976	0.734141	0.562372
C21	C	0.693519	0.118461	-0.000185
C22	C	1.193519	0.618461	0.499815
C23	C	0.616411	0.117095	-0.000165
C24	C	1.116411	0.617095	0.499835
C25	C	0.571915	0.193000	-0.000181
C26	C	1.071915	0.693000	0.499819
C27	C	0.499465	0.191717	-0.000189
C28	C	0.999465	0.691717	0.499811
C29	C	0.471514	0.114526	-0.000197
C30	C	0.971514	0.614526	0.499803
C31	C	0.516020	0.038611	-0.000178
C32	C	1.016020	0.538611	0.499822
C33	C	0.588469	0.039896	-0.000162
C34	C	1.088469	0.539896	0.499838
C35	C	0.363099	0.053847	-0.044079
C36	C	0.863099	0.553847	0.455921
C37	C	0.290651	0.052565	-0.044099
C38	C	0.790651	0.552565	0.455901
C39	C	0.248058	0.110560	-0.000242
C40	C	0.748058	0.610560	0.499758
C41	C	0.277920	0.169850	0.043625
C42	C	0.777920	0.669850	0.543625
C43	C	0.350369	0.171135	0.043641
C44	C	0.850369	0.671135	0.543641
C45	C	0.392956	0.113124	-0.000214
C46	C	0.892956	0.613124	0.499786
C47	C	0.125002	0.185079	-0.000265
C48	C	0.625002	0.685079	0.499735
C49	C	0.052550	0.183793	-0.000269
C50	C	0.552550	0.683793	0.499731
C51	C	0.069107	0.030684	-0.000265
C52	C	0.569107	0.530684	0.499735
C53	C	0.141557	0.031972	-0.000254
C54	C	0.641557	0.531972	0.499746
C55	C	0.169500	0.109172	-0.000258
C56	C	0.669500	0.609172	0.499742
C57	C	0.825572	-0.041740	-0.000212
C58	C	1.325572	0.458260	0.499788
C59	C	0.824197	-0.134981	-0.000211
C60	C	1.324197	0.365019	0.499789
C61	C	0.754815	-0.349571	-0.000204
C62	C	1.254815	0.150429	0.499796
C63	C	0.787024	-0.410715	0.061514
C64	C	1.287024	0.089285	0.561514
C65	C	0.821710	-0.305697	-0.000216
C66	C	1.321710	0.194303	0.499784
C67	C	0.787059	-0.410692	-0.061912
C68	C	1.287059	0.089308	0.438088
C69	C	0.819303	-0.470601	-0.000224
C70	C	1.319303	0.029399	0.499776
C71	C	0.853938	-0.365614	0.061552
C72	C	1.353938	0.134386	0.561552
C73	C	0.853963	-0.365585	-0.061929
C74	C	1.353963	0.134415	0.438071
C75	C	0.886222	-0.426712	-0.000197
C76	C	1.386222	0.073288	0.499803
C77	C	0.823095	-0.210700	-0.000211
C78	C	1.323095	0.289300	0.499789
C79	C	0.817924	-0.565597	-0.000224
C80	C	1.317924	-0.065597	0.499776
C81	C	0.947497	0.105235	-0.000251
C82	C	1.447497	0.605235	0.499749
C83	C	1.024605	0.106600	-0.000276
C84	C	1.524605	0.606600	0.499724
C85	C	0.815444	0.265436	-0.000225
C86	C	1.315444	0.765436	0.499775
C87	C	0.816819	0.358677	-0.000230
C88	C	1.316819	0.858677	0.499770
N89	N	0.820486	0.111838	0.177938
N90	N	1.320486	0.611838	0.677938
N91	N	0.820535	0.111851	-0.178373
N92	N	1.320535	0.611851	0.321627
C93	C	0.867719	0.054584	0.217316
C94	C	1.367719	0.554584	0.717316
C95	C	0.867723	0.054580	0.296118
C96	C	1.367723	0.554580	0.796118
C97	C	0.820501	0.111845	0.335539
C98	C	1.320501	0.611845	0.835539
C99	C	0.773259	0.169103	0.296151
C100	C	1.273259	0.669103	0.796151
C101	C	0.773252	0.169100	0.217351
C102	C	1.273252	0.669100	0.717351
C103	C	0.811404	0.188378	0.460375
C104	C	1.311404	0.688378	0.960375
C105	C	0.811416	0.188382	0.539173
C106	C	1.311416	0.688382	1.039173
C107	C	0.820520	0.111855	0.578585
C108	C	1.320520	0.611855	1.078585
C109	C	0.829626	0.035319	0.539188
C110	C	1.329626	0.535319	1.039188
C111	C	0.829618	0.035316	0.460387
C112	C	1.329618	0.535316	0.960387
C113	C	0.820503	0.111854	0.420984
C114	C	1.320503	0.611854	0.920984
C115	C	0.867759	0.054592	0.703409
C116	C	1.367759	0.554592	1.203409
C117	C	0.867759	0.054587	0.782212
C118	C	1.367759	0.554587	1.282212
C119	C	0.773298	0.169117	0.782244
C120	C	1.273298	0.669117	1.282244
C121	C	0.773295	0.169115	0.703442
C122	C	1.273295	0.669115	1.203442
C123	C	0.820530	0.111853	0.664029
C124	C	1.320530	0.611853	1.164029
H125	H	0.594661	0.255862	-0.000185
H126	H	1.094661	0.755862	0.499815
H127	H	0.397773	0.006619	-0.079797
H128	H	0.897773	0.506619	0.420203
H129	H	0.906187	0.007955	0.328185
H130	H	1.406187	0.507955	0.828185
H131	H	0.493258	-0.024239	-0.000195
H132	H	0.993258	0.475761	0.499805
C133	C	0.637420	-0.043601	-0.000151
C134	C	1.137420	0.456399	0.499849
H135	H	0.684570	-0.031779	-0.000138
H136	H	1.184570	0.468221	0.499862
H137	H	0.628970	-0.075265	-0.043807
H138	H	1.128970	0.424735	0.456193
H139	H	0.628926	-0.075265	0.043511
H140	H	1.128926	0.424735	0.543511
C141	C	0.892162	-0.338523	-0.132436
C142	C	1.392162	0.161477	0.367564
H143	H	0.868332	-0.353772	-0.176247
H144	H	1.368332	0.146228	0.323753
H145	H	0.938581	-0.365997	-0.132892
H146	H	1.438581	0.134003	0.367108
H147	H	0.893121	-0.279094	-0.131677
H148	H	1.393121	0.220906	0.368323
H149	H	0.758764	-0.430657	-0.114093
H150	H	1.258764	0.069343	0.385907
C151	C	0.383220	0.236341	0.091895
C152	C	0.883220	0.736341	0.591895
H153	H	0.432466	0.228801	0.085617
H154	H	0.932466	0.728801	0.585617
H155	H	0.372118	0.228747	0.143359
H156	H	0.872118	0.728747	0.643359
H157	H	0.365349	0.291709	0.076467
H158	H	0.865349	0.791709	0.576467
C159	C	0.155746	0.269990	-0.000260
C160	C	0.655746	0.769990	0.499740
H161	H	0.205267	0.259885	-0.000259
H162	H	0.705267	0.759885	0.499741
H163	H	0.140450	0.301231	0.043393
H164	H	0.640450	0.801231	0.543393
H165	H	0.140493	0.301235	-0.043924
H166	H	0.640493	0.801235	0.456076
H167	H	0.804006	0.250702	0.571244
H168	H	1.304006	0.750702	1.071244
C169	C	0.919667	-0.008410	0.173966
C170	C	1.419667	0.491590	0.673966
H171	H	0.947794	-0.042515	0.208709
H172	H	1.447794	0.457485	0.708709
H173	H	0.948577	0.021711	0.143202
H174	H	1.448577	0.521711	0.643202
H175	H	0.894674	-0.043306	0.143250
H176	H	1.394674	0.456694	0.643250
H177	H	0.837031	-0.027001	0.428314
H178	H	1.337031	0.472999	0.928314
H179	H	0.906219	0.007963	0.671318
H180	H	1.406219	0.507963	1.171318
C181	C	0.721346	0.232105	0.660124
C182	C	1.221346	0.732105	1.160124
H183	H	0.693226	0.266215	0.694886
H184	H	1.193226	0.766215	1.194886
H185	H	0.692431	0.201979	0.629403
H186	H	1.192431	0.701979	1.129403
H187	H	0.746335	0.266995	0.629368
H188	H	1.246335	0.766995	1.129368
C189	C	0.231081	0.233648	0.091873
C190	C	0.731081	0.733648	0.591873
H191	H	0.259241	0.269144	0.117995
H192	H	0.759241	0.769144	0.617995
H193	H	0.205941	0.204106	0.127137
H194	H	0.705941	0.704106	0.627137
H195	H	0.199167	0.267067	0.060243
H196	H	0.699167	0.767067	0.560243
C197	C	0.748797	-0.437745	0.132018
C198	C	1.248797	0.062255	0.632018
H199	H	0.779754	-0.475539	0.161072
H200	H	1.279754	0.024461	0.661072
H201	H	0.709762	-0.465052	0.117192
H202	H	1.209762	0.034948	0.617192
H203	H	0.733298	-0.389311	0.161293
H204	H	1.233298	0.110689	0.661293
C205	C	0.801385	0.272561	0.417026
C206	C	1.301385	0.772561	0.917026
H207	H	0.802676	0.261599	0.364454
H208	H	1.302676	0.761599	0.864454
H209	H	0.837708	0.305368	0.429913
H210	H	1.337708	0.805368	0.929913
H211	H	0.757576	0.302645	0.429961
H212	H	1.257576	0.802645	0.929961
H213	H	0.734788	0.215724	0.185289
H214	H	1.234788	0.715724	0.685289
H215	H	0.837039	-0.026997	0.571275
H216	H	1.337039	0.473003	1.071275
H217	H	0.734846	0.215740	0.814340
H218	H	1.234846	0.715740	1.314340
H219	H	0.882201	-0.345735	0.113786
H220	H	1.382201	0.154265	0.613786
C221	C	0.003604	0.267293	-0.000286
C222	C	0.503604	0.767293	0.499714
H223	H	0.030625	0.313450	-0.000293
H224	H	0.530625	0.813450	0.499707
H225	H	-0.025027	0.269978	0.043364
H226	H	0.474973	0.769978	0.543364
H227	H	-0.024979	0.269970	-0.043953
H228	H	0.475021	0.769970	0.456047
H229	H	0.906219	0.007959	0.814274
H230	H	1.406219	0.507959	1.314274
H231	H	0.734809	0.215728	0.328251
H232	H	1.234809	0.715728	0.828251
C233	C	0.190505	-0.051524	-0.000249
C234	C	0.690505	0.448476	0.499751
H235	H	0.163484	-0.097682	-0.000261
H236	H	0.663484	0.402318	0.499739
H237	H	0.219090	-0.054210	0.043411
H238	H	0.719090	0.445790	0.543411
H239	H	0.219133	-0.054199	-0.043906
H240	H	0.719133	0.445801	0.456094
H241	H	0.463229	0.253530	-0.000199
H242	H	0.963229	0.753530	0.499801
C243	C	0.038370	-0.054225	-0.000279
C244	C	0.538370	0.445775	0.499721
H245	H	-0.011151	-0.044121	-0.000296
H246	H	0.488849	0.455879	0.499704
H247	H	0.053620	-0.085476	0.043378
H248	H	0.553620	0.414524	0.543378
H249	H	0.053669	-0.085460	-0.043940
H250	H	0.553669	0.414540	0.456060
H251	H	0.266342	0.004291	-0.079822
H252	H	0.766342	0.504291	0.420178
H253	H	0.699288	-0.316049	-0.000128
H254	H	1.199288	0.183951	0.499872
H255	H	0.941797	-0.460084	-0.000176
H256	H	1.441797	0.039916	0.499824
