data_functionalizedCrystal
_audit_creation_method	'MofGen! by Chris Wilmer'
_symmetry_space_group_name_H-M	'P1'
_symmetry_Int_Tables_number	1
_symmetry_cell_setting	triclinic
loop_
_symmetry_equiv_pos_as_xyz
  x,y,z
_cell_length_a	17.640112
_cell_length_b	17.640968
_cell_length_c	17.640280
_cell_angle_alpha	114.317439
_cell_angle_beta	87.815931
_cell_angle_gamma	92.139080
loop_
_atom_site_label
_atom_site_type_symbol
_atom_site_fract_x
_atom_site_fract_y
_atom_site_fract_z
Zn1	Zn	1.251359	-0.189698	0.023073
Zn2	Zn	1.751359	0.310302	0.523073
Zn3	Zn	1.251298	-0.024069	0.188752
Zn4	Zn	1.751298	0.475931	0.688752
Zn5	Zn	1.106797	-0.076159	0.075311
Zn6	Zn	1.606797	0.423841	0.575311
Zn7	Zn	1.148399	-0.179117	0.178182
Zn8	Zn	1.648399	0.320883	0.678182
O9	O	1.189463	-0.117261	0.116329
O10	O	1.689463	0.382739	0.616329
O11	O	1.354914	-0.150355	0.027613
O12	O	1.854914	0.349645	0.527613
O13	O	1.214694	0.081425	0.199989
O14	O	1.714694	0.581425	0.699989
O15	O	1.108588	-0.117448	-0.044008
O16	O	1.608588	0.382552	0.455992
O17	O	1.354870	-0.028669	0.149337
O18	O	1.854870	0.471331	0.649337
O19	O	1.214797	-0.200865	-0.082386
O20	O	1.714797	0.299135	0.417614
O21	O	1.108529	0.043155	0.116644
O22	O	1.608529	0.543155	0.616644
O23	O	1.008752	-0.107188	0.106394
O24	O	1.508752	0.392812	0.606394
O25	O	1.179493	-0.292925	0.131321
O26	O	1.679493	0.207075	0.631321
O27	O	1.039317	-0.182831	0.181973
O28	O	1.539317	0.317169	0.681973
O29	O	1.255137	-0.300699	0.017364
O30	O	1.755137	0.199301	0.517364
O31	O	1.255033	-0.018409	0.299739
O32	O	1.755033	0.481591	0.799739
O33	O	1.179434	-0.132322	0.291973
O34	O	1.679434	0.367678	0.791973
C35	C	0.997182	-0.149514	0.148705
C36	C	1.497182	0.350486	0.648705
C37	C	0.914929	-0.163327	0.162571
C38	C	1.414929	0.336673	0.662571
C39	C	1.221962	-0.326772	0.067336
C40	C	1.721962	0.173228	0.567336
C41	C	1.235811	-0.416053	0.046458
C42	C	1.735811	0.083947	0.546458
C43	C	0.564743	-0.012337	0.010979
C44	C	1.064743	0.487663	0.510979
C45	C	0.487458	-0.025323	0.024022
C46	C	0.987458	0.474677	0.524022
C47	C	0.519334	-0.103880	0.102905
C48	C	1.019334	0.396120	0.602905
C49	C	0.596623	-0.090904	0.089865
C50	C	1.096623	0.409096	0.589865
C51	C	0.619321	-0.045131	0.043903
C52	C	1.119321	0.454869	0.543903
C53	C	0.651201	-0.123697	0.122789
C54	C	1.151201	0.376303	0.622789
C55	C	0.728483	-0.110718	0.109754
C56	C	1.228483	0.389282	0.609754
C57	C	0.751188	-0.064946	0.063796
C58	C	1.251188	0.435054	0.563796
C59	C	0.696603	-0.032152	0.030868
C60	C	1.196603	0.467848	0.530868
C61	C	0.628502	-0.169465	0.168756
C62	C	1.128502	0.330535	0.668756
C63	C	0.683080	-0.202259	0.201680
C64	C	1.183080	0.297741	0.701680
C65	C	0.760364	-0.189285	0.188640
C66	C	1.260364	0.310715	0.688640
C67	C	0.783068	-0.143512	0.142682
C68	C	1.283068	0.356488	0.642682
C69	C	0.814949	-0.222079	0.221568
C70	C	1.314949	0.277921	0.721568
C71	C	0.892231	-0.209100	0.208534
C72	C	1.392231	0.290900	0.708534
C73	C	0.860351	-0.130533	0.129647
C74	C	1.360351	0.369467	0.629647
C75	C	1.084469	-0.689444	0.274453
C76	C	1.584469	-0.189444	0.774453
C77	C	1.097496	-0.773337	0.254822
C78	C	1.597496	-0.273337	0.754822
C79	C	1.176258	-0.781421	0.136168
C80	C	1.676258	-0.281421	0.636168
C81	C	1.163234	-0.697528	0.155787
C82	C	1.663234	-0.197528	0.655787
C83	C	1.117340	-0.651546	0.224930
C84	C	1.617340	-0.151546	0.724930
C85	C	1.196105	-0.659630	0.106264
C86	C	1.696105	-0.159630	0.606264
C87	C	1.183085	-0.575743	0.125884
C88	C	1.683085	-0.075743	0.625884
C89	C	1.137195	-0.529754	0.195026
C90	C	1.637195	-0.029754	0.695026
C91	C	1.104320	-0.567659	0.244550
C92	C	1.604320	-0.067659	0.744550
C93	C	1.242004	-0.705612	0.037124
C94	C	1.742004	-0.205612	0.537124
C95	C	1.274874	-0.667713	-0.012398
C96	C	1.774874	-0.167713	0.487602
C97	C	1.261851	-0.583827	0.007218
C98	C	1.761851	-0.083827	0.507218
C99	C	1.215960	-0.537838	0.076360
C100	C	1.715960	-0.037838	0.576360
C101	C	1.294725	-0.545922	-0.042306
C102	C	1.794725	-0.045922	0.457694
C103	C	1.281706	-0.462035	-0.022686
C104	C	1.781706	0.037965	0.477314
C105	C	1.202940	-0.453951	0.095980
C106	C	1.702940	0.046049	0.595980
C107	C	1.382495	-0.084882	0.083827
C108	C	1.882495	0.415118	0.583827
C109	C	1.464754	-0.071084	0.069977
C110	C	1.964754	0.428916	0.569977
C111	C	1.221764	-0.068579	0.324990
C112	C	1.721764	0.431421	0.824990
C113	C	1.235655	-0.047768	0.414238
C114	C	1.735655	0.452232	0.914238
C115	C	1.157124	0.091429	0.165067
C116	C	1.657124	0.591429	0.665067
C117	C	1.143383	0.180681	0.185695
C118	C	1.643383	0.680681	0.685695
C119	C	1.157059	-0.166147	-0.093153
C120	C	1.657059	0.333853	0.406847
C121	C	1.143250	-0.186980	-0.182422
C122	C	1.643250	0.313020	0.317578
C123	C	1.084287	-0.275600	0.687787
C124	C	1.584287	0.224400	1.187787
C125	C	1.097337	-0.256019	0.771655
C126	C	1.597337	0.243981	1.271655
C127	C	1.176134	-0.137496	0.779643
C128	C	1.676134	0.362504	1.279643
C129	C	1.163094	-0.157069	0.695773
C130	C	1.663094	0.342931	1.195773
C131	C	1.117169	-0.226122	0.649852
C132	C	1.617169	0.273878	1.149852
C133	C	1.195976	-0.107591	0.657837
C134	C	1.695976	0.392409	1.157837
C135	C	1.182933	-0.127160	0.573976
C136	C	1.682933	0.372840	1.073976
C137	C	1.137009	-0.196208	0.528050
C138	C	1.637009	0.303792	1.028050
C139	C	1.104127	-0.245691	0.565990
C140	C	1.604127	0.254309	1.065990
C141	C	1.241896	-0.038535	0.703761
C142	C	1.741896	0.461465	1.203761
C143	C	1.274778	0.010944	0.665825
C144	C	1.774778	0.510944	1.165825
C145	C	1.261740	-0.008629	0.581961
C146	C	1.761740	0.491371	1.081961
C147	C	1.215815	-0.077677	0.536035
C148	C	1.715815	0.422323	1.036035
C149	C	1.294622	0.040854	0.544020
C150	C	1.794622	0.540854	1.044020
C151	C	1.281579	0.021285	0.460159
C152	C	1.781579	0.521285	0.960159
C153	C	1.202773	-0.097246	0.452173
C154	C	1.702773	0.402754	0.952173
H155	H	0.878832	-0.093275	0.092205
H156	H	1.378832	0.406725	0.592205
O157	O	1.061858	-0.309386	0.812572
O158	O	1.561858	0.190614	1.312572
H159	H	1.078632	-0.284172	0.878605
H160	H	1.578632	0.215828	1.378605
O161	O	1.122918	-0.217298	0.437606
O162	O	1.622918	0.282702	0.937606
H163	H	1.085447	-0.273616	0.412055
H164	H	1.585447	0.226384	0.912055
O165	O	1.324333	0.085401	0.715346
O166	O	1.824333	0.585401	1.215346
H167	H	1.327890	0.090689	0.780030
H168	H	1.827890	0.590689	1.280030
H169	H	1.332007	0.097081	0.581424
H170	H	1.832007	0.597081	1.081424
O171	O	0.545152	-0.183442	0.182865
O172	O	1.045152	0.316558	0.682865
H173	H	0.531673	-0.251235	0.156020
H174	H	1.031673	0.248765	0.656020
H175	H	1.252605	-0.773917	0.021154
H176	H	1.752605	-0.273917	0.521154
O177	O	1.054594	-0.320169	0.516450
O178	O	1.554594	0.179831	1.016450
H179	H	1.033915	-0.351290	0.556916
H180	H	1.533915	0.148710	1.056916
H181	H	1.252515	-0.022606	0.772045
H182	H	1.752515	0.477394	1.272045
H183	H	1.308354	0.061576	0.429272
H184	H	1.808354	0.561576	0.929272
H185	H	0.814117	-0.054377	0.053186
H186	H	1.314117	0.445623	0.553186
O187	O	1.034965	-0.639839	0.349026
O188	O	1.534965	-0.139839	0.849026
H189	H	1.014293	-0.680283	0.380171
H190	H	1.514293	-0.180283	0.880171
H191	H	1.308471	-0.431178	-0.063013
H192	H	1.808471	0.068822	0.436987
H193	H	1.046897	-0.331835	0.650394
H194	H	1.546897	0.168165	1.150394
H195	H	0.664588	-0.239524	0.239106
H196	H	1.164588	0.260476	0.739106
H197	H	0.715084	0.005106	-0.006574
H198	H	1.215084	0.505106	0.493426
O199	O	1.225689	-0.063038	0.829163
O200	O	1.725689	0.436962	1.329163
H201	H	1.229247	-0.057750	0.893847
H202	H	1.729247	0.442250	1.393847
H203	H	1.312244	-0.705162	-0.068693
H204	H	1.812244	-0.205162	0.431307
O205	O	0.589235	0.037032	-0.038595
O206	O	1.089235	0.537032	0.461405
H207	H	0.538301	0.057660	-0.059299
H208	H	1.038301	0.557660	0.440701
O209	O	0.428587	0.010043	-0.011497
O210	O	0.928587	0.510043	0.488503
H211	H	0.457357	0.044045	-0.045652
H212	H	0.957357	0.544045	0.454348
H213	H	0.796456	-0.259340	0.258998
H214	H	1.296456	0.240660	0.758998
O215	O	0.494852	-0.153254	0.152472
O216	O	0.994852	0.346746	0.652472
H217	H	0.431943	-0.156776	0.156000
H218	H	0.931943	0.343224	0.656000
H219	H	1.070726	-0.804190	0.295154
H220	H	1.570726	-0.304190	0.795154
O221	O	1.344207	-0.595525	-0.116893
O222	O	1.844207	-0.095525	0.383107
H223	H	1.347729	-0.660227	-0.122223
H224	H	1.847729	-0.160227	0.377777
O225	O	0.951105	-0.244474	0.244035
O226	O	1.451105	0.255526	0.744035
H227	H	0.922339	-0.278491	0.278176
H228	H	1.422339	0.221509	0.778176
H229	H	1.165548	-0.416517	0.152268
H230	H	1.665548	0.083483	0.652268
H231	H	1.165383	-0.153481	0.414780
H232	H	1.665383	0.346519	0.914780
H233	H	1.126598	-0.461447	0.211002
H234	H	1.626598	0.038553	0.711002
H235	H	1.066927	-0.530225	0.300838
H236	H	1.566927	-0.030225	0.800838
H237	H	1.213628	-0.818870	0.079873
H238	H	1.713628	-0.318870	0.579873
