data_functionalizedCrystal
_audit_creation_method	'MofGen! by Chris Wilmer'
_symmetry_space_group_name_H-M	'P1'
_symmetry_Int_Tables_number	1
_symmetry_cell_setting	triclinic
loop_
_symmetry_equiv_pos_as_xyz
  x,y,z
_cell_length_a	12.827893
_cell_length_b	12.759394
_cell_length_c	12.827885
_cell_angle_alpha	90.029530
_cell_angle_beta	90.019272
_cell_angle_gamma	90.013826
loop_
_atom_site_label
_atom_site_type_symbol
_atom_site_fract_x
_atom_site_fract_y
_atom_site_fract_z
Zn1	Zn	1.597681	-0.418216	0.590851
Zn2	Zn	1.597580	-0.593932	0.416112
Zn3	Zn	1.422922	-0.418268	0.416124
Zn4	Zn	1.422912	-0.593854	0.590812
O5	O	1.510274	-0.506067	0.503474
O6	O	1.743903	-0.441537	0.567682
O7	O	1.574373	-0.570684	0.269877
O8	O	1.446151	-0.271240	0.439324
O9	O	1.743829	-0.570634	0.439302
O10	O	1.574545	-0.271202	0.567694
O11	O	1.446053	-0.441624	0.269886
O12	O	1.276685	-0.441548	0.439286
O13	O	1.446134	-0.570501	0.737053
O14	O	1.276677	-0.570551	0.567628
O15	O	1.574535	-0.441461	0.737081
O16	O	1.574363	-0.740943	0.439264
O17	O	1.446036	-0.740885	0.567616
C18	C	1.238764	-0.506047	0.503455
C19	C	1.122611	-0.506064	0.503471
C20	C	1.510216	-0.779035	0.503457
C21	C	1.510286	-0.895812	0.503485
C22	C	1.070850	-0.569998	0.566881
C23	C	0.950800	-0.570017	0.566899
C24	C	1.643883	-0.895614	0.637257
C25	C	1.710715	-0.950376	0.704152
C26	C	1.710777	-1.060098	0.704174
C27	C	1.643998	-1.115060	0.637298
C28	C	1.577167	-1.060298	0.570403
C29	C	1.577114	-0.950574	0.570386
C30	C	1.443566	-1.060495	0.436638
C31	C	1.443508	-0.950774	0.436608
C32	C	1.376787	-1.115457	0.369761
C33	C	1.309959	-1.060695	0.302860
C34	C	1.309901	-0.950967	0.302839
C35	C	1.376676	-0.896012	0.369714
C36	C	1.782844	-0.506089	0.503495
C37	C	1.898997	-0.506098	0.503504
C38	C	1.510345	-0.505967	0.776045
C39	C	1.510375	-0.505924	0.892198
C40	C	1.510360	-0.232034	0.503515
C41	C	1.510397	-0.115257	0.503532
C42	C	1.510263	-0.506092	0.231965
C43	C	1.510435	-0.505839	0.115812
C44	C	1.573919	-0.442058	0.943997
C45	C	1.573952	-0.442012	1.064047
H46	H	1.115412	-0.624717	0.621158
H47	H	1.255475	-0.906385	0.248370
Cl48	Cl	0.967709	-0.421587	0.419675
Cl49	Cl	0.882081	-0.654536	0.650714
H50	H	1.078048	-0.451337	0.449201
H51	H	1.628358	-0.387338	1.108593
Cl52	Cl	1.794791	-1.128945	0.788273
H53	H	1.643849	-0.806273	0.637236
Cl54	Cl	1.426440	-0.590271	1.047049
H55	H	1.644046	-1.204401	0.637331
Cl56	Cl	1.426409	-0.590288	0.960940
Cl57	Cl	1.377008	-1.253394	0.369646
Cl58	Cl	1.794651	-0.881277	0.788230
H59	H	1.376639	-0.806670	0.369699
H60	H	1.255589	-1.105454	0.248419
H61	H	1.628294	-0.387411	0.899467
