data_functionalizedCrystal
_audit_creation_method	'MofGen! by Chris Wilmer'
_symmetry_space_group_name_H-M	'P1'
_symmetry_Int_Tables_number	1
_symmetry_cell_setting	triclinic
loop_
_symmetry_equiv_pos_as_xyz
  x,y,z
_cell_length_a	14.519731
_cell_length_b	11.792241
_cell_length_c	10.868271
_cell_angle_alpha	90.003536
_cell_angle_beta	90.006559
_cell_angle_gamma	96.058865
loop_
_atom_site_label
_atom_site_type_symbol
_atom_site_fract_x
_atom_site_fract_y
_atom_site_fract_z
O1	O	0.126404	-1.506213	0.102206
O2	O	0.376404	-1.256213	0.352206
O3	O	0.626404	-1.006213	0.602206
O4	O	0.876404	-0.756213	0.852206
O5	O	0.139431	-1.175801	0.102235
O6	O	0.389431	-0.925801	0.352235
O7	O	0.639431	-0.675801	0.602235
O8	O	0.889431	-0.425801	0.852235
O9	O	-0.001287	-1.349755	0.102208
O10	O	0.248713	-1.099755	0.352208
O11	O	0.498713	-0.849755	0.602208
O12	O	0.748713	-0.599755	0.852208
O13	O	0.267123	-1.332260	0.102232
O14	O	0.517123	-1.082260	0.352232
O15	O	0.767123	-0.832260	0.602232
O16	O	1.017123	-0.582260	0.852232
O17	O	-0.001295	-1.349753	-0.102436
O18	O	0.248705	-1.099753	0.147564
O19	O	0.498705	-0.849753	0.397564
O20	O	0.748705	-0.599753	0.647564
O21	O	0.139424	-1.175799	-0.102410
O22	O	0.389424	-0.925799	0.147590
O23	O	0.639424	-0.675799	0.397590
O24	O	0.889424	-0.425799	0.647590
O25	O	0.126397	-1.506211	-0.102439
O26	O	0.376397	-1.256211	0.147561
O27	O	0.626397	-1.006211	0.397561
O28	O	0.876397	-0.756211	0.647561
Zn29	Zn	0.132909	-1.341005	-0.134916
Zn30	Zn	0.382909	-1.091005	0.115084
Zn31	Zn	0.632909	-0.841005	0.365084
Zn32	Zn	0.882909	-0.591005	0.615084
Zn33	Zn	0.132919	-1.341008	0.134712
Zn34	Zn	0.382919	-1.091008	0.384712
Zn35	Zn	0.632919	-0.841008	0.634712
Zn36	Zn	0.882919	-0.591008	0.884712
O37	O	0.267115	-1.332258	-0.102412
O38	O	0.517115	-1.082258	0.147588
O39	O	0.767115	-0.832258	0.397588
O40	O	1.017115	-0.582258	0.647588
C41	C	0.138609	-1.133514	-0.000084
C42	C	0.388609	-0.883514	0.249916
C43	C	0.638609	-0.633514	0.499916
C44	C	0.888609	-0.383514	0.749916
C45	C	0.136160	-1.007513	-0.000073
C46	C	0.386160	-0.757513	0.249927
C47	C	0.636160	-0.507513	0.499927
C48	C	0.886160	-0.257513	0.749927
N49	N	0.132919	-1.341010	0.318726
N50	N	0.382919	-1.091010	0.568726
N51	N	0.632919	-0.841010	0.818726
N52	N	0.882919	-0.591010	1.068726
C53	C	-0.035654	-1.348934	-0.000114
C54	C	0.214346	-1.098934	0.249886
C55	C	0.464346	-0.848934	0.499886
C56	C	0.714346	-0.598934	0.749886
C57	C	-0.138043	-1.346478	-0.000115
C58	C	0.111957	-1.096478	0.249885
C59	C	0.361957	-0.846478	0.499885
C60	C	0.611957	-0.596478	0.749885
C61	C	-0.221194	-1.344482	-0.000112
C62	C	0.028806	-1.094482	0.249888
C63	C	0.278806	-0.844482	0.499888
C64	C	0.528806	-0.594482	0.749888
C65	C	-0.325512	-1.341988	-0.000102
C66	C	-0.075512	-1.091988	0.249898
C67	C	0.174488	-0.841988	0.499898
C68	C	0.424488	-0.591988	0.749898
C69	C	-0.408658	-1.340008	-0.000094
C70	C	-0.158658	-1.090008	0.249906
C71	C	0.091342	-0.840008	0.499906
C72	C	0.341342	-0.590008	0.749906
C73	C	-0.512983	-1.337514	-0.000087
C74	C	-0.262983	-1.087514	0.249913
C75	C	-0.012983	-0.837514	0.499913
C76	C	0.237017	-0.587514	0.749913
C77	C	0.301482	-1.333078	-0.000087
C78	C	0.551482	-1.083078	0.249913
C79	C	0.801482	-0.833078	0.499913
C80	C	1.051482	-0.583078	0.749913
C81	C	0.403871	-1.335535	-0.000079
C82	C	0.653871	-1.085535	0.249921
C83	C	0.903871	-0.835535	0.499921
C84	C	1.153871	-0.585535	0.749921
C85	C	0.127219	-1.548499	-0.000117
C86	C	0.377219	-1.298499	0.249883
C87	C	0.627219	-1.048499	0.499883
C88	C	0.877219	-0.798499	0.749883
C89	C	0.129668	-1.674499	-0.000120
C90	C	0.379668	-1.424499	0.249880
C91	C	0.629668	-1.174499	0.499880
C92	C	0.879668	-0.924499	0.749880
C93	C	0.131656	-0.776826	-0.000109
C94	C	0.381656	-0.526826	0.249891
C95	C	0.631656	-0.276826	0.499891
C96	C	0.881656	-0.026826	0.749891
C97	C	0.134159	-0.905197	-0.000089
C98	C	0.384159	-0.655197	0.249911
C99	C	0.634159	-0.405197	0.499911
C100	C	0.884159	-0.155197	0.749911
N101	N	0.132901	-1.341011	-0.318930
N102	N	0.382901	-1.091011	-0.068930
N103	N	0.632901	-0.841011	0.181070
N104	N	0.882901	-0.591011	0.431070
C105	C	0.132913	-1.341007	0.569732
C106	C	0.382913	-1.091007	0.819732
C107	C	0.632913	-0.841007	1.069732
C108	C	0.882913	-0.591007	1.319732
C109	C	0.132920	-1.341005	0.430055
C110	C	0.382920	-1.091005	0.680055
C111	C	0.632920	-0.841005	0.930055
C112	C	0.882920	-0.591005	1.180055
