data_functionalizedCrystal
_audit_creation_method	'MofGen! by Chris Wilmer'
_symmetry_space_group_name_H-M	'P1'
_symmetry_Int_Tables_number	1
_symmetry_cell_setting	triclinic
loop_
_symmetry_equiv_pos_as_xyz
  x,y,z
_cell_length_a	10.489741
_cell_length_b	14.519709
_cell_length_c	12.996460
_cell_angle_alpha	90.007090
_cell_angle_beta	89.992450
_cell_angle_gamma	95.890341
loop_
_atom_site_label
_atom_site_type_symbol
_atom_site_fract_x
_atom_site_fract_y
_atom_site_fract_z
O1	O	1.692699	-0.130116	-0.085617
O2	O	2.026033	0.203217	0.247716
O3	O	2.359366	0.536550	0.581049
O4	O	1.321376	-0.142329	-0.085609
O5	O	1.654710	0.191004	0.247724
O6	O	1.988043	0.524337	0.581058
O7	O	1.516883	-0.002038	-0.085604
O8	O	1.850216	0.331295	0.247729
O9	O	2.183549	0.664629	0.581063
O10	O	1.497193	-0.270408	-0.085622
O11	O	1.830526	0.062926	0.247711
O12	O	2.163859	0.396259	0.581045
O13	O	1.516862	-0.002030	0.085530
O14	O	1.850196	0.331303	0.418863
O15	O	2.183529	0.664637	0.752196
O16	O	1.321356	-0.142322	0.085525
O17	O	1.654689	0.191012	0.418858
O18	O	1.988022	0.524345	0.752191
O19	O	1.692679	-0.130108	0.085517
O20	O	2.026012	0.203225	0.418850
O21	O	2.359345	0.536558	0.752183
Cu22	Cu	1.507015	-0.136214	0.101147
Cu23	Cu	1.840349	0.197119	0.434480
Cu24	Cu	2.173682	0.530453	0.767813
Cu25	Cu	1.507040	-0.136224	-0.101239
Cu26	Cu	1.840373	0.197110	0.232094
Cu27	Cu	2.173706	0.530443	0.565428
O28	O	1.497172	-0.270400	0.085512
O29	O	1.830506	0.062934	0.418845
O30	O	2.163839	0.396267	0.752178
C31	C	1.273844	-0.141403	-0.000041
C32	C	1.607177	0.191930	0.333292
C33	C	1.940511	0.525264	0.666626
C34	C	1.132243	-0.138643	-0.000038
C35	C	1.465577	0.194690	0.333296
C36	C	1.798910	0.528023	0.666629
C37	C	1.515955	0.032331	-0.000037
C38	C	1.849288	0.365664	0.333296
C39	C	2.182622	0.698997	0.666630
C40	C	1.513205	0.134727	-0.000036
C41	C	1.846538	0.468060	0.333297
C42	C	2.179872	0.801394	0.666630
C43	C	1.740211	-0.131035	-0.000054
C44	C	2.073544	0.202299	0.333280
C45	C	2.406878	0.535632	0.666613
C46	C	1.881812	-0.133794	-0.000064
C47	C	2.215145	0.199539	0.333269
C48	C	2.548478	0.532872	0.666603
C49	C	1.949021	-0.223058	-0.000059
C50	C	2.282355	0.110276	0.333274
C51	C	2.615688	0.443609	0.666608
C52	C	2.041598	-0.180895	-0.084430
C53	C	2.374931	0.152439	0.248903
C54	C	2.708264	0.485772	0.582236
C55	C	2.041544	-0.180865	0.084294
C56	C	2.374877	0.152468	0.417627
C57	C	2.708211	0.485801	0.750961
C58	C	1.972523	-0.091595	-0.084505
C59	C	2.305856	0.241739	0.248828
C60	C	2.639190	0.575072	0.582162
C61	C	1.972460	-0.091578	0.084295
C62	C	2.305793	0.241756	0.417629
C63	C	2.639126	0.575089	0.750962
C64	C	2.065009	-0.049350	-0.000097
C65	C	2.398343	0.283984	0.333237
C66	C	2.731676	0.617317	0.666570
C67	C	1.498100	-0.304768	-0.000058
C68	C	1.831433	0.028565	0.333276
C69	C	2.164767	0.361898	0.666609
C70	C	1.500850	-0.407165	-0.000065
C71	C	1.834183	-0.073831	0.333268
C72	C	2.167517	0.259502	0.666602
N73	N	1.507008	-0.136207	0.243494
N74	N	1.840341	0.197126	0.576827
N75	N	2.173674	0.530460	0.910160
C76	C	1.503082	0.509678	-0.000063
C77	C	1.836415	0.843011	0.333271
C78	C	2.169748	1.176345	0.666604
C79	C	1.505893	0.405355	-0.000055
C80	C	1.839226	0.738688	0.333278
C81	C	2.172560	1.072021	0.666612
C82	C	1.508143	0.322206	-0.000049
C83	C	1.841476	0.655539	0.333285
C84	C	2.174810	0.988872	0.666618
C85	C	1.510955	0.217876	-0.000043
C86	C	1.844288	0.551209	0.333290
C87	C	2.177622	0.884543	0.666624
N88	N	1.507057	-0.136223	-0.243586
N89	N	1.840391	0.197110	0.089747
N90	N	2.173724	0.530443	0.423081
C91	C	1.507038	-0.136224	0.663308
C92	C	1.840371	0.197109	0.996641
C93	C	2.173704	0.530442	1.329975
C94	C	1.507026	-0.136223	0.546503
C95	C	1.840359	0.197111	0.879836
C96	C	2.173692	0.530444	1.213170
C97	C	1.507023	-0.136216	0.453405
C98	C	1.840357	0.197117	0.786738
C99	C	2.173690	0.530450	1.120071
C100	C	1.507010	-0.136213	0.336592
C101	C	1.840343	0.197120	0.669925
C102	C	2.173677	0.530453	1.003259
H103	H	2.072233	-0.218669	-0.155764
H104	H	2.405566	0.114664	0.177569
H105	H	2.738900	0.447998	0.510903
H106	H	2.115191	0.024110	-0.000133
H107	H	2.448524	0.357444	0.333200
H108	H	2.781857	0.690777	0.666534
C109	C	1.798304	-0.038577	-0.180082
C110	C	2.131637	0.294756	0.153252
C111	C	2.464970	0.628090	0.486585
C112	C	1.931459	-0.040663	-0.180919
C113	C	2.264792	0.292670	0.152415
C114	C	2.598126	0.626004	0.485748
H115	H	1.772952	-0.007142	-0.239608
H116	H	2.106286	0.326191	0.093726
H117	H	2.439619	0.659524	0.427059
H118	H	1.774096	-0.007073	-0.120246
H119	H	2.107429	0.326260	0.213087
H120	H	2.440763	0.659593	0.546420
H121	H	1.757559	-0.100104	-0.179841
H122	H	2.090893	0.233229	0.153492
H123	H	2.424226	0.566562	0.486825
H124	H	1.972204	0.020865	-0.181152
H125	H	2.305537	0.354198	0.152182
H126	H	2.638870	0.687531	0.485515
H127	H	1.955679	-0.072165	-0.240770
H128	H	2.289012	0.261168	0.092563
H129	H	2.622346	0.594502	0.425897
C130	C	1.974557	-0.261467	0.239526
C131	C	2.307890	0.071867	0.572859
C132	C	2.641224	0.405200	0.906192
C133	C	2.082817	-0.231860	0.180596
C134	C	2.416151	0.101474	0.513929
C135	C	2.749484	0.434807	0.847263
H136	H	2.000037	-0.292947	0.298977
H137	H	2.333371	0.040386	0.632311
H138	H	2.666704	0.373719	0.965644
H139	H	1.917474	-0.302177	0.199778
H140	H	2.250807	0.031157	0.533111
H141	H	2.584141	0.364490	0.866445
H142	H	1.932752	-0.209350	0.259801
H143	H	2.266085	0.123983	0.593135
H144	H	2.599418	0.457317	0.926468
H145	H	2.124618	-0.283977	0.160314
H146	H	2.457951	0.049356	0.493647
H147	H	2.791285	0.382690	0.826980
H148	H	2.139922	-0.191147	0.220351
H149	H	2.473256	0.142186	0.553684
H150	H	2.806589	0.475519	0.887018
H151	H	1.941796	-0.053837	0.155635
H152	H	2.275129	0.279496	0.488969
H153	H	2.608463	0.612829	0.822302
H154	H	1.898608	-0.296450	-0.000149
H155	H	2.231941	0.036883	0.333184
H156	H	2.565274	0.370216	0.666517
