data_functionalizedCrystal
_audit_creation_method	'MofGen! by Chris Wilmer'
_symmetry_space_group_name_H-M	'P1'
_symmetry_Int_Tables_number	1
_symmetry_cell_setting	triclinic
loop_
_symmetry_equiv_pos_as_xyz
  x,y,z
_cell_length_a	18.101398
_cell_length_b	18.101397
_cell_length_c	13.032268
_cell_angle_alpha	82.856580
_cell_angle_beta	82.827948
_cell_angle_gamma	90.016023
loop_
_atom_site_label
_atom_site_type_symbol
_atom_site_fract_x
_atom_site_fract_y
_atom_site_fract_z
Zn1	Zn	1.079005	-0.348038	0.590578
Zn2	Zn	1.094657	-0.456168	0.415823
Zn3	Zn	0.970892	-0.332340	0.415879
Zn4	Zn	0.955141	-0.471829	0.590540
O5	O	1.024924	-0.402094	0.503205
O6	O	1.184715	-0.362397	0.567389
O7	O	1.091382	-0.426618	0.269599
O8	O	0.985275	-0.230793	0.439093
O9	O	1.196214	-0.441839	0.438997
O10	O	1.064705	-0.242326	0.567443
O11	O	1.000452	-0.335642	0.269640
O12	O	0.865169	-0.350828	0.439056
O13	O	0.958429	-0.468532	0.736776
O14	O	0.853597	-0.453310	0.567378
O15	O	1.049431	-0.377583	0.736805
O16	O	1.076109	-0.561875	0.438960
O17	O	0.973607	-0.573381	0.567324
C18	C	0.832512	-0.402066	0.503220
C19	C	0.750195	-0.402074	0.503251
C20	C	0.451108	-0.402114	0.503207
C21	C	0.475213	-0.466833	0.583545
C22	C	0.560801	-0.466683	0.583876
C23	C	0.599489	-0.402095	0.503229
C24	C	0.565710	-0.326800	0.533328
C25	C	0.480013	-0.327196	0.533900
C26	C	0.492619	-0.411984	0.392575
C27	C	0.578217	-0.413749	0.393166
C28	C	0.683347	-0.402079	0.503239
C29	C	0.367249	-0.402124	0.503199
C30	C	1.024865	-0.594500	0.503154
C31	C	1.024904	-0.676815	0.503168
C32	C	1.024990	-0.975914	0.503263
C33	C	1.089342	-0.937300	0.422284
C34	C	1.089520	-0.851700	0.422494
C35	C	1.024948	-0.827528	0.503215
C36	C	1.036187	-0.868442	0.613358
C37	C	1.036669	-0.954047	0.612917
C38	C	0.949161	-0.941880	0.475053
C39	C	0.949770	-0.856010	0.472594
C40	C	1.024922	-0.743666	0.503194
C41	C	1.025017	-1.059776	0.503291
C42	C	1.218087	-0.402122	0.503191
C43	C	1.300401	-0.402134	0.503185
C44	C	1.000427	-0.426555	0.775767
C45	C	0.989988	-0.436979	0.891917
C46	C	1.025001	-0.208938	0.503279
C47	C	1.025034	-0.126627	0.503310
C48	C	1.049368	-0.377674	0.231704
C49	C	1.059950	-0.367042	0.115555
C50	C	1.030360	-0.396627	0.943714
C51	C	1.019572	-0.407399	1.063760
H52	H	0.452767	-0.317659	0.614776
F53	F	0.467592	-0.481835	0.356814
H54	H	0.901337	-0.967447	0.534033
H55	H	0.991309	-0.980384	0.675331
F56	F	1.081896	-0.954654	0.315213
H57	H	0.990320	-0.853652	0.675315
H58	H	1.090642	-0.849125	0.637660
F59	F	0.934366	-0.492557	0.950113
H60	H	0.937021	-0.956442	0.396130
H61	H	0.600575	-0.469105	0.370465
H62	H	0.583506	-0.522829	0.565010
H63	H	0.446363	-0.461215	0.665042
F64	F	0.450472	-0.540494	0.559170
H65	H	0.573921	-0.460941	0.665846
F66	F	0.459500	-0.262729	0.460755
F67	F	0.598988	-0.262624	0.459237
H68	H	0.579969	-0.316880	0.613326
F69	F	1.108731	-0.982900	0.644152
F70	F	0.938453	-0.819998	0.366650
F71	F	0.963947	-0.462980	1.121953
H72	H	0.605288	-0.369241	0.330093
H73	H	0.477742	-0.364722	0.332716
H74	H	1.145415	-0.960431	0.440733
F75	F	1.163200	-0.827045	0.446893
F76	F	1.081792	-0.814699	0.315758
F77	F	0.884776	-0.834479	0.544042
F78	F	1.085964	-0.341030	0.885517
F79	F	1.115579	-0.311464	1.057364
