data_functionalizedCrystal
_audit_creation_method	'MofGen! by Chris Wilmer'
_symmetry_space_group_name_H-M	'P1'
_symmetry_Int_Tables_number	1
_symmetry_cell_setting	triclinic
loop_
_symmetry_equiv_pos_as_xyz
  x,y,z
_cell_length_a	16.959454
_cell_length_b	15.297475
_cell_length_c	15.299448
_cell_angle_alpha	110.793752
_cell_angle_beta	80.301748
_cell_angle_gamma	99.676721
loop_
_atom_site_label
_atom_site_type_symbol
_atom_site_fract_x
_atom_site_fract_y
_atom_site_fract_z
Zn1	Zn	-0.427425	-1.512869	-0.771526
Zn2	Zn	0.072575	-1.012869	-0.271526
Zn3	Zn	-0.579092	-1.485835	-0.615999
Zn4	Zn	-0.079092	-0.985835	-0.115999
Zn5	Zn	-0.427401	-1.330417	-0.589153
Zn6	Zn	0.072599	-0.830417	-0.089153
Zn7	Zn	-0.540024	-1.357310	-0.744610
Zn8	Zn	-0.040024	-0.857310	-0.244610
O9	O	-0.493486	-1.421607	-0.680322
O10	O	0.006514	-0.921607	-0.180322
O11	O	-0.463904	-1.639427	-0.773394
O12	O	0.036096	-1.139427	-0.273394
O13	O	-0.575311	-1.442650	-0.482290
O14	O	-0.075311	-0.942650	0.017710
O15	O	-0.316798	-1.354678	-0.613374
O16	O	0.183202	-0.854678	-0.113374
O17	O	-0.575333	-1.619566	-0.659129
O18	O	-0.075333	-1.119566	-0.159129
O19	O	-0.316815	-1.488725	-0.747363
O20	O	0.183185	-0.988725	-0.247363
O21	O	-0.463864	-1.328465	-0.462566
O22	O	0.036136	-0.828465	0.037434
O23	O	-0.425981	-1.203839	-0.587275
O24	O	0.074019	-0.703839	-0.087275
O25	O	-0.508747	-1.400514	-0.878329
O26	O	-0.008747	-0.900514	-0.378329
O27	O	-0.508724	-1.223598	-0.701489
O28	O	-0.008724	-0.723598	-0.201489
O29	O	-0.426021	-1.514802	-0.898103
O30	O	0.073979	-1.014802	-0.398103
O31	O	-0.684516	-1.468727	-0.633030
O32	O	-0.184516	-0.968727	-0.133030
O33	O	-0.655813	-1.374300	-0.727521
O34	O	-0.155813	-0.874300	-0.227521
C35	C	-0.463111	-1.179973	-0.638548
C36	C	0.036889	-0.679973	-0.138548
C37	C	-0.450133	-1.076605	-0.620700
C38	C	0.049867	-0.576605	-0.120700
C39	C	-0.698844	-1.421527	-0.680293
C40	C	-0.198844	-0.921527	-0.180293
C41	C	-0.786704	-1.421583	-0.680326
C42	C	-0.286704	-0.921583	-0.180326
C43	C	-0.463029	-1.463673	-0.922906
C44	C	0.036971	-0.963673	-0.422906
C45	C	-0.450050	-1.481599	-1.026280
C46	C	0.049950	-0.981599	-0.526280
C47	C	-1.143280	-1.372525	-0.729531
C48	C	-0.643280	-0.872525	-0.229531
C49	C	-1.173109	-1.470966	-0.631252
C50	C	-0.673109	-0.970966	-0.131252
C51	C	-1.090560	-1.470932	-0.631238
C52	C	-0.590560	-0.970932	-0.131238
C53	C	-1.034367	-1.421692	-0.680370
C54	C	-0.534367	-0.921692	-0.180370
C55	C	-1.060723	-1.372487	-0.729516
C56	C	-0.560723	-0.872487	-0.229516
C57	C	-1.064198	-1.520128	-0.582084
C58	C	-0.564198	-1.020128	-0.082084
C59	C	-0.981644	-1.520096	-0.582067
C60	C	-0.481644	-1.020096	-0.082067
C61	C	-0.925450	-1.470861	-0.631206
C62	C	-0.425450	-0.970861	-0.131206
C63	C	-0.951810	-1.421655	-0.680355
C64	C	-0.451810	-0.921655	-0.180355
C65	C	-0.895617	-1.372415	-0.729487
C66	C	-0.395617	-0.872415	-0.229487
C67	C	-0.921976	-1.323213	-0.778643
C68	C	-0.421976	-0.823213	-0.278643
C69	C	-1.004528	-1.323252	-0.778655
C70	C	-0.504528	-0.823252	-0.278655
C71	C	-0.842897	-1.470822	-0.631193
C72	C	-0.342897	-0.970822	-0.131193
C73	C	-0.813060	-1.372377	-0.729472
C74	C	-0.313060	-0.872377	-0.229472
C75	C	-0.287326	-1.421717	-0.680376
C76	C	0.212674	-0.921717	-0.180376
C77	C	-0.199473	-1.421764	-0.680399
C78	C	0.300527	-0.921764	-0.180399
C79	C	-0.523979	-1.664185	-0.722259
C80	C	-0.023979	-1.164185	-0.222259
C81	C	-0.536974	-1.767557	-0.740130
C82	C	-0.036974	-1.267557	-0.240130
C83	C	-0.586247	-0.826414	-0.807892
C84	C	-0.086247	-0.326414	-0.307892
C85	C	-0.598447	-0.923533	-0.824659
C86	C	-0.098447	-0.423533	-0.324659
C87	C	-0.561369	-0.961806	-0.773671
C88	C	-0.061369	-0.461806	-0.273671
C89	C	-0.512090	-0.902950	-0.705912
C90	C	-0.012090	-0.402950	-0.205912
C91	C	-0.499894	-0.805820	-0.689138
C92	C	0.000106	-0.305820	-0.189138
C93	C	-0.475017	-0.941212	-0.654917
C94	C	0.024983	-0.441212	-0.154917
C95	C	-0.425737	-0.882356	-0.587158
C96	C	0.074263	-0.382356	-0.087158
C97	C	-0.413543	-0.785237	-0.570388
C98	C	0.086457	-0.285237	-0.070388
C99	C	-0.450621	-0.746964	-0.621376
C100	C	0.049379	-0.246964	-0.121376
C101	C	-0.487212	-1.038342	-0.671691
C102	C	0.012788	-0.538342	-0.171691
C103	C	-0.400860	-1.017749	-0.552937
C104	C	0.099140	-0.517749	-0.052937
C105	C	-0.388660	-0.920629	-0.536170
C106	C	0.111340	-0.420629	-0.036170
C107	C	-0.400879	-1.549525	-1.085139
C108	C	0.099121	-1.049525	-0.585139
C109	C	-0.388674	-1.566360	-1.182263
C110	C	0.111326	-1.066360	-0.682263
C111	C	-0.425642	-1.515275	-1.220539
C112	C	0.074358	-1.015275	-0.720539
C113	C	-0.474819	-1.447352	-1.161681
C114	C	0.025181	-0.947352	-0.661681
C115	C	-0.487020	-1.430511	-1.064547
C116	C	0.012980	-0.930511	-0.564547
C117	C	-0.511784	-1.396260	-1.199947
C118	C	-0.011784	-0.896260	-0.699947
C119	C	-0.560960	-1.328337	-1.141089
C120	C	-0.060960	-0.828337	-0.641089
C121	C	-0.573160	-1.311500	-1.043964
C122	C	-0.073160	-0.811500	-0.543964
C123	C	-0.536191	-1.362585	-1.005688
C124	C	-0.036191	-0.862585	-0.505688
C125	C	-0.499582	-1.413102	-1.297082
C126	C	0.000418	-0.913102	-0.797082
C127	C	-0.585723	-1.294087	-1.276489
C128	C	-0.085723	-0.794087	-0.776489
C129	C	-0.597929	-1.277253	-1.179365
C130	C	-0.097929	-0.777253	-0.679365
C131	C	-0.523774	-1.379759	-0.438691
C132	C	-0.023774	-0.879759	0.061309
C133	C	-0.536553	-1.362013	-0.335348
C134	C	-0.036553	-0.862013	0.164652
H135	H	-0.767311	-1.332284	-0.769486
H136	H	-0.267311	-0.832284	-0.269486
F137	F	-0.862162	-1.270806	-0.830926
F138	F	-0.362162	-0.770806	-0.330926
H139	H	-1.025998	-1.283194	-0.818673
H140	H	-0.525998	-0.783194	-0.318673
F141	F	-1.171333	-1.320168	-0.781848
F142	F	-0.671333	-0.820168	-0.281848
F143	F	-0.574353	-1.065170	-0.791520
F144	F	-0.074353	-0.565170	-0.291520
F145	F	-0.549181	-1.344673	-0.902316
F146	F	-0.049181	-0.844673	-0.402316
F147	F	-1.232914	-1.523366	-0.578964
F148	F	-0.732914	-1.023366	-0.078964
F149	F	-1.124005	-1.572533	-0.529802
F150	F	-0.624005	-1.072533	-0.029802
F151	F	-0.650263	-1.204964	-1.116713
F152	F	-0.150263	-0.704964	-0.616713
H153	H	-0.440689	-0.667882	-0.607730
H154	H	0.059311	-0.167882	-0.107730
H155	H	-0.960189	-1.560159	-0.542044
H156	H	-0.460189	-1.060159	-0.042044
F157	F	-0.650893	-0.986164	-0.896769
F158	F	-0.150893	-0.486164	-0.396769
F159	F	-0.814847	-1.523172	-0.578873
F160	F	-0.314847	-1.023172	-0.078873
H161	H	-0.373426	-0.737316	-0.515205
H162	H	0.126574	-0.237316	-0.015205
F163	F	-0.336214	-0.857980	-0.464059
F164	F	0.163786	-0.357980	0.035941
F165	F	-0.361400	-1.058475	-0.498664
F166	F	0.138600	-0.558475	0.001336
H167	H	-0.459540	-1.468403	-1.344995
H168	H	0.040460	-0.968403	-0.844995
H169	H	-0.527336	-1.086254	-0.726862
H170	H	-0.027336	-0.586254	-0.226862
F171	F	-0.412653	-1.533196	-1.323909
F172	F	0.087347	-1.033196	-0.823909
H173	H	-0.615821	-1.252484	-1.307652
H174	H	-0.115821	-0.752484	-0.807652
F175	F	-0.625718	-0.785672	-0.862133
F176	F	-0.125718	-0.285672	-0.362133
H177	H	-0.348636	-1.621664	-1.230179
H178	H	0.151364	-1.121664	-0.730179
F179	F	-0.625487	-1.239199	-0.981323
F180	F	-0.125487	-0.739199	-0.481323
F181	F	-0.361516	-1.603860	-1.044392
F182	F	0.138484	-1.103860	-0.544392
