data_functionalizedCrystal
_audit_creation_method	'MofGen! by Chris Wilmer'
_symmetry_space_group_name_H-M	'P1'
_symmetry_Int_Tables_number	1
_symmetry_cell_setting	triclinic
loop_
_symmetry_equiv_pos_as_xyz
  x,y,z
_cell_length_a	17.699083
_cell_length_b	13.339070
_cell_length_c	16.176319
_cell_angle_alpha	89.996815
_cell_angle_beta	89.998611
_cell_angle_gamma	99.456154
loop_
_atom_site_label
_atom_site_type_symbol
_atom_site_fract_x
_atom_site_fract_y
_atom_site_fract_z
O1	O	1.031106	0.127864	-0.068625
O2	O	1.531106	0.627864	0.431375
O3	O	0.814244	0.144499	-0.068651
O4	O	1.314244	0.644499	0.431349
O5	O	0.897786	-0.011021	-0.068639
O6	O	1.397786	0.488979	0.431361
O7	O	0.947564	0.283384	-0.068637
O8	O	1.447564	0.783384	0.431363
O9	O	0.897768	-0.011031	0.068855
O10	O	1.397768	0.488969	0.568855
O11	O	0.814226	0.144489	0.068842
O12	O	1.314226	0.644489	0.568842
O13	O	1.031088	0.127854	0.068868
O14	O	1.531088	0.627854	0.568868
Cu15	Cu	0.922655	0.136171	0.081409
Cu16	Cu	1.422655	0.636171	0.581409
Cu17	Cu	0.922677	0.136182	-0.081192
Cu18	Cu	1.422677	0.636182	0.418808
O19	O	0.947546	0.283374	0.068856
O20	O	1.447546	0.783374	0.568856
C21	C	0.785912	0.143898	0.000092
C22	C	1.285912	0.643898	0.500092
C23	C	0.701516	0.142110	0.000082
C24	C	1.201516	0.642110	0.500082
C25	C	0.672191	0.233397	0.000082
C26	C	1.172191	0.733397	0.500082
C27	C	0.592891	0.231710	0.000093
C28	C	1.092891	0.731710	0.500093
C29	C	0.542918	0.138736	0.000097
C30	C	1.042918	0.638736	0.500097
C31	C	0.572248	0.047442	0.000099
C32	C	1.072248	0.547442	0.500099
C33	C	0.651546	0.049129	0.000094
C34	C	1.151546	0.549129	0.500094
C35	C	0.252446	0.040635	0.000119
C36	C	0.752446	0.540635	0.500119
C37	C	0.173143	0.038955	0.000122
C38	C	0.673143	0.538955	0.500122
C39	C	0.193791	0.223216	0.000118
C40	C	0.693791	0.723216	0.500118
C41	C	0.273089	0.224904	0.000113
C42	C	0.773089	0.724904	0.500113
C43	C	0.302412	0.133610	0.000120
C44	C	0.802412	0.633610	0.500120
C45	C	0.388398	0.135440	0.000110
C46	C	0.888398	0.635440	0.500110
C47	C	0.456933	0.136906	0.000101
C48	C	0.956933	0.636906	0.500101
C49	C	0.889369	-0.048694	0.000106
C50	C	1.389369	0.451306	0.500106
C51	C	0.864305	-0.160935	0.000100
C52	C	1.364305	0.339065	0.500100
C53	C	1.059185	-0.526207	0.000124
C54	C	1.559185	-0.026207	0.500124
C55	C	1.082736	-0.420752	0.000134
C56	C	1.582736	0.079248	0.500134
C57	C	1.028130	-0.355792	0.000125
C58	C	1.528130	0.144208	0.500125
C59	C	0.949970	-0.396298	0.000106
C60	C	1.449970	0.103702	0.500106
C61	C	0.926417	-0.501763	0.000102
C62	C	1.426417	-0.001763	0.500102
C63	C	0.895362	-0.331349	0.000104
C64	C	1.395362	0.168651	0.500104
C65	C	0.817202	-0.371855	0.000085
C66	C	1.317202	0.128145	0.500085
C67	C	0.793652	-0.477310	0.000080
C68	C	1.293652	0.022690	0.500080
C69	C	0.848258	-0.542269	0.000089
C70	C	1.348258	-0.042269	0.500089
C71	C	0.918915	-0.225884	0.000108
C72	C	1.418915	0.274116	0.500108
C73	C	0.786147	-0.201441	0.000086
C74	C	1.286147	0.298559	0.500086
C75	C	0.762596	-0.306895	0.000076
C76	C	1.262596	0.193105	0.500076
C77	C	1.059420	0.128455	0.000123
C78	C	1.559420	0.628455	0.500123
C79	C	1.143816	0.130243	0.000128
C80	C	1.643816	0.630243	0.500128
C81	C	0.955963	0.321047	0.000110
C82	C	1.455963	0.821047	0.500110
C83	C	0.981027	0.433288	0.000110
C84	C	1.481027	0.933288	0.500110
N85	N	0.922646	0.136162	0.195775
N86	N	1.422646	0.636162	0.695775
N87	N	0.922691	0.136183	-0.195557
N88	N	1.422691	0.636183	0.304443
C89	C	0.959660	0.067326	0.239044
C90	C	1.459660	0.567326	0.739044
C91	C	0.959663	0.067324	0.325592
C92	C	1.459663	0.567324	0.825592
C93	C	0.922657	0.136165	0.368867
C94	C	1.422657	0.636165	0.868867
C95	C	0.885638	0.205005	0.325591
C96	C	1.385638	0.705005	0.825591
C97	C	0.885631	0.205000	0.239046
C98	C	1.385631	0.705000	0.739046
C99	C	0.885668	0.205024	0.674620
C100	C	1.385668	0.705024	1.174620
C101	C	0.885681	0.205025	0.761171
C102	C	1.385681	0.705025	1.261171
C103	C	0.959701	0.067348	0.761165
C104	C	1.459701	0.567348	1.261165
C105	C	0.959693	0.067343	0.674620
C106	C	1.459693	0.567343	1.174620
C107	C	0.922671	0.136179	0.631352
C108	C	1.422671	0.636179	1.131352
C109	C	0.922667	0.136178	0.537507
C110	C	1.422667	0.636178	1.037507
C111	C	0.922666	0.136172	0.462710
C112	C	1.422666	0.636172	0.962710
H113	H	0.276310	-0.033702	0.000125
H114	H	0.776310	0.466298	0.500125
C115	C	0.707679	-0.521864	0.000066
C116	C	1.207679	-0.021864	0.500066
H117	H	0.678530	-0.468076	0.000054
H118	H	1.178530	0.031924	0.500054
H119	H	0.695723	-0.562502	0.048010
H120	H	1.195723	-0.062502	0.548010
H121	H	0.695742	-0.562489	-0.047890
H122	H	1.195742	-0.062489	0.452110
H123	H	1.047310	-0.269927	0.000134
H124	H	1.547310	0.230073	0.500134
H125	H	0.132455	-0.036760	0.000126
H126	H	0.632455	0.463240	0.500126
C127	C	0.822354	-0.658271	0.000082
C128	C	1.322354	-0.158271	0.500082
H129	H	0.866071	-0.691152	0.000092
H130	H	1.366071	-0.191152	0.500092
H131	H	0.792515	-0.677610	-0.047868
H132	H	1.292515	-0.177610	0.452132
H133	H	0.792505	-0.677619	0.048032
H134	H	1.292505	-0.177619	0.548032
C135	C	0.560633	0.332123	0.000085
C136	C	1.060633	0.832123	0.500085
H137	H	0.506249	0.317806	0.000097
H138	H	1.006249	0.817806	0.500097
H139	H	0.577868	0.370252	-0.047866
H140	H	1.077868	0.870252	0.452134
H141	H	0.577872	0.370257	0.048034
H142	H	1.077872	0.870257	0.548034
H143	H	0.675420	-0.025206	0.000093
H144	H	1.175420	0.474794	0.500093
C145	C	1.004883	-0.181334	0.000126
C146	C	1.504883	0.318666	0.500126
H147	H	1.011093	-0.109223	0.000134
H148	H	1.511093	0.390777	0.500134
H149	H	1.028309	-0.203636	-0.047816
H150	H	1.528309	0.296364	0.452184
H151	H	1.028286	-0.203647	0.048084
H152	H	1.528286	0.296353	0.548084
H153	H	0.855544	0.261085	0.796405
H154	H	1.355544	0.761085	1.296405
C155	C	0.844954	0.280748	0.627035
C156	C	1.344954	0.780748	1.127035
H157	H	0.822925	0.321753	0.665206
H158	H	1.322925	0.821753	1.165206
H159	H	0.805819	0.244432	0.593281
H160	H	1.305819	0.744432	1.093281
H161	H	0.881009	0.322795	0.593268
H162	H	1.381009	0.822795	1.093268
H163	H	0.531553	-0.028259	0.000114
H164	H	1.031553	0.471741	0.500114
C165	C	0.328056	0.327175	0.000112
C166	C	0.828056	0.827175	0.500112
H167	H	0.299233	0.381302	0.000122
H168	H	0.799233	0.881302	0.500122
H169	H	0.359421	0.331670	-0.047834
H170	H	0.859421	0.831670	0.452166
H171	H	0.359416	0.331654	0.048066
H172	H	0.859416	0.831654	0.548066
H173	H	0.698956	-0.339890	0.000061
H174	H	1.198956	0.160110	0.500061
H175	H	0.741682	-0.148550	0.000083
H176	H	1.241682	0.351450	0.500083
C177	C	0.161533	0.323639	0.000122
C178	C	0.661533	0.823639	0.500122
H179	H	0.107149	0.309324	0.000135
H180	H	0.607149	0.809324	0.500135
H181	H	0.178769	0.361773	-0.047826
H182	H	0.678769	0.861773	0.452174
H183	H	0.178775	0.361766	0.048074
H184	H	0.678775	0.861766	0.548074
C185	C	0.844903	0.280700	0.373188
C186	C	1.344903	0.780700	0.873188
H187	H	0.822843	0.321681	0.335021
H188	H	1.322843	0.821681	0.835021
H189	H	0.880937	0.322760	0.406956
H190	H	1.380937	0.822760	0.906956
H191	H	0.805775	0.244345	0.406943
H192	H	1.305775	0.744345	0.906943
C193	C	1.168704	-0.376202	0.000146
C194	C	1.668704	0.123798	0.500146
H195	H	1.197853	-0.429990	0.000142
H196	H	1.697853	0.070010	0.500142
H197	H	1.180647	-0.335574	0.048094
H198	H	1.680647	0.164426	0.548094
H199	H	1.180655	-0.335567	-0.047806
H200	H	1.680655	0.164433	0.452194
H201	H	0.989798	0.011272	0.203815
H202	H	1.489798	0.511272	0.703815
H203	H	1.103637	-0.579105	0.000138
H204	H	1.603637	-0.079105	0.500138
H205	H	0.989802	0.011272	0.360821
H206	H	1.489802	0.511272	0.860821
H207	H	0.989830	0.011290	0.639387
H208	H	1.489830	0.511290	1.139387
C209	C	1.000417	-0.008382	0.808759
C210	C	1.500417	0.491618	1.308759
H211	H	1.022461	-0.049373	0.770589
H212	H	1.522461	0.450627	1.270589
H213	H	0.964369	-0.050429	0.842526
H214	H	1.464369	0.449571	1.342526
H215	H	1.039553	0.027944	0.842513
H216	H	1.539553	0.527944	1.342513
C217	C	0.844919	0.280724	0.191449
C218	C	1.344919	0.780724	0.691449
H219	H	0.822887	0.321731	0.229616
H220	H	1.322887	0.821731	0.729616
H221	H	0.805787	0.244403	0.157694
H222	H	1.305787	0.744403	0.657694
H223	H	0.880974	0.322770	0.157682
H224	H	1.380974	0.822770	0.657682
H225	H	0.712875	0.309107	0.000078
H226	H	1.212875	0.809107	0.500078
