data_functionalizedCrystal
_audit_creation_method	'MofGen! by Chris Wilmer'
_symmetry_space_group_name_H-M	'P1'
_symmetry_Int_Tables_number	1
_symmetry_cell_setting	triclinic
loop_
_symmetry_equiv_pos_as_xyz
  x,y,z
_cell_length_a	31.640172
_cell_length_b	14.395555
_cell_length_c	14.395555
_cell_angle_alpha	60.000749
_cell_angle_beta	90.004893
_cell_angle_gamma	59.999894
loop_
_atom_site_label
_atom_site_type_symbol
_atom_site_fract_x
_atom_site_fract_y
_atom_site_fract_z
Zr1	Zr	0.407196	1.016674	-0.121799
O2	O	0.339710	1.210481	-0.270145
O3	O	0.427883	0.822874	-0.076321
O4	O	0.427886	1.016661	-0.270117
O5	O	0.339706	1.016701	0.076518
O6	O	0.497443	1.016642	-0.270096
O7	O	0.339706	1.016694	-0.076349
O8	O	0.497437	0.669992	0.076569
O9	O	0.339712	1.363351	-0.270148
O10	O	0.488617	0.902569	-0.056912
O11	O	0.436707	0.902589	0.057156
O12	O	0.436711	1.130748	-0.171014
O13	O	0.384801	1.130768	-0.056946
Zr14	Zr	0.518131	1.016654	0.122039
Zr15	Zr	0.518132	1.016643	-0.121766
Zr16	Zr	0.407195	1.016685	0.122007
Zr17	Zr	0.407200	1.260483	-0.121803
Zr18	Zr	0.518128	0.772845	0.122043
O19	O	0.497444	1.210453	0.076561
O20	O	0.497446	1.210438	-0.270099
O21	O	0.339709	1.210497	0.076515
O22	O	0.585617	0.822846	0.270386
O23	O	0.585619	0.822830	-0.076275
O24	O	0.427882	0.822890	0.270339
O25	O	0.585621	1.016626	-0.076277
O26	O	0.497441	1.016666	0.270357
O27	O	0.427884	1.016686	0.270336
O28	O	0.585621	1.016633	0.076590
O29	O	0.427891	1.363327	-0.270122
O30	O	0.497436	0.670001	0.270362
O31	O	0.585615	0.669977	0.270388
O32	O	0.585616	0.669968	0.076595
O33	O	0.339711	1.363360	-0.076355
O34	O	0.427890	1.363335	-0.076329
O35	O	0.488616	0.902580	0.171254
O36	O	0.540526	0.902560	0.057186
O37	O	0.488620	1.130739	-0.056916
O38	O	0.436710	1.130758	0.057152
C39	C	0.462659	0.711696	0.000125
C40	C	0.462658	0.608192	0.000126
C41	C	0.434356	0.547610	0.062325
C42	C	0.413844	0.561868	-0.044956
C43	C	0.483157	0.409539	0.107375
C44	C	0.442118	0.623876	-0.107218
C45	C	0.511458	0.471484	0.045190
C46	C	0.490958	0.485788	-0.062155
C47	C	0.323900	1.016702	0.000079
C48	C	0.276805	1.016715	0.000066
C49	C	0.011894	0.897544	0.059703
C50	C	-0.165091	0.897522	0.059726
O51	O	-0.164934	0.796225	0.110421
N52	N	-0.214316	1.016628	0.000164
C53	C	-0.219293	1.135748	-0.059401
O54	O	-0.265222	1.237055	-0.110052
C55	C	-0.042308	1.135769	-0.059416
C56	C	0.006916	1.016655	0.000140
C57	C	0.061115	0.778440	0.119255
C58	C	0.105359	0.778447	0.119244
C59	C	0.100380	0.897558	0.059680
C60	C	0.051159	1.016662	0.000128
C61	C	-0.047286	1.254888	-0.118974
C62	C	-0.003034	1.254883	-0.118970
C63	C	0.046189	1.135769	-0.059414
C64	C	0.090424	1.135780	-0.059446
N65	N	0.139648	1.016674	0.000115
C66	C	0.144626	0.897563	0.059679
C67	C	-0.312210	1.135728	-0.059391
C68	C	-0.356456	1.135723	-0.059389
C69	C	-0.302252	0.897496	0.059740
C70	C	-0.258005	0.897503	0.059731
C71	C	-0.262986	1.016622	0.000171
C72	C	0.237539	0.897587	0.059650
C73	C	0.281783	0.897604	0.059629
C74	C	0.227575	1.135830	-0.059494
C75	C	0.183334	1.135814	-0.059479
C76	C	0.188319	1.016681	0.000101
O77	O	0.090306	1.237024	-0.110104
O78	O	0.190560	0.796272	0.110342
C79	C	-0.032350	0.897538	0.059714
C80	C	-0.081571	1.016642	0.000162
C81	C	-0.086549	1.135753	-0.059401
C82	C	-0.125817	1.016637	0.000164
C83	C	-0.120839	0.897526	0.059728
C84	C	-0.071615	0.778420	0.119289
C85	C	-0.027371	0.778426	0.119278
C86	C	-0.135773	1.254859	-0.118963
C87	C	-0.180015	1.254842	-0.118947
C88	C	-0.175036	1.135731	-0.059384
C89	C	0.601427	1.016625	0.000161
C90	C	0.648522	1.016612	0.000175
C91	C	0.462665	1.016650	-0.304843
C92	C	0.462665	1.016645	-0.408345
C93	C	0.462668	1.321632	0.000116
C94	C	0.462669	1.425135	0.000114
C95	C	0.490969	0.892232	-0.406721
C96	C	0.442160	0.954436	-0.499758
C97	C	0.511462	0.954446	-0.499737
C98	C	0.413827	1.078850	-0.500019
C99	C	0.483165	1.078842	-0.499984
C100	C	0.434326	1.141137	-0.593038
C101	C	0.462663	1.016678	0.305084
C102	C	0.462662	1.016682	0.408586
C103	C	0.601423	0.711657	0.000165
C104	C	0.648516	0.608141	0.000181
C105	C	0.462658	0.711709	0.305088
C106	C	0.462657	0.608211	0.408592
C107	C	0.601422	0.711671	0.305129
C108	C	0.648515	0.608159	0.408646
C109	C	0.323905	1.321657	-0.304889
C110	C	0.276812	1.425168	-0.408406
C111	C	0.323904	1.321670	0.000075
C112	C	0.276811	1.425187	0.000060
C113	C	0.462669	1.321618	-0.304848
C114	C	0.462671	1.425117	-0.408351
C115	C	0.643536	0.559533	-0.059380
C116	C	0.687781	0.462282	-0.059389
C117	C	0.737006	0.413633	0.000171
C118	C	0.741986	0.462251	0.059734
C119	C	0.697741	0.559507	0.059735
C120	C	0.697732	0.559539	0.397717
C121	C	0.741985	0.462292	0.494973
C122	C	0.737021	0.413661	0.603157
C123	C	0.687799	0.462291	0.614084
C124	C	0.643546	0.559542	0.516829
C125	C	0.227596	1.473801	-0.397476
C126	C	0.183342	1.571078	-0.494732
C127	C	0.188307	1.619714	-0.602917
C128	C	0.237528	1.571078	-0.613844
C129	C	0.281781	1.473809	-0.516589
C130	C	0.281791	1.473805	0.059610
C131	C	0.237546	1.571083	0.059592
C132	C	0.188321	1.619735	0.000028
C133	C	0.183342	1.571113	-0.059530
C134	C	0.227586	1.473843	-0.059517
C135	C	0.434351	0.547634	0.406970
C136	C	0.483161	0.409523	0.500004
C137	C	0.413861	0.561875	0.499989
C138	C	0.511495	0.471400	0.500263
C139	C	0.442159	0.623826	0.500233
C140	C	0.490998	0.485725	0.593285
H141	H	0.410390	0.574845	0.114845
F142	F	0.222278	1.422104	-0.122897
H143	H	0.782059	0.422707	0.486055
F144	F	0.784123	0.310155	0.706656
F145	F	0.419401	0.743556	-0.225831
F146	F	0.682523	0.410520	0.729232
F147	F	0.403113	0.583043	0.302711
H148	H	0.603474	0.599117	0.525744
F149	F	0.141204	1.723236	-0.706416
F150	F	0.359860	1.147539	-0.498966
H151	H	0.321869	1.434200	0.108122
H152	H	0.143257	1.610740	-0.108025
H153	H	0.145435	0.681452	0.167736
F154	F	0.242804	1.622851	-0.728992
F155	F	0.402997	1.278755	-0.697131
H156	H	0.552733	0.901837	-0.500623
F157	F	0.359908	0.610483	-0.094792
F158	F	0.505847	1.147504	-0.498706
H159	H	0.424804	0.715485	0.499241
F160	F	0.784091	0.310122	0.000161
F161	F	0.522241	0.450553	-0.131005
F162	F	0.141236	1.723258	0.000027
F163	F	0.565461	0.422529	0.499206
F164	F	0.591151	0.611294	-0.122780
F165	F	0.334160	1.422054	-0.528239
F166	F	0.242856	1.622808	0.122989
F167	F	0.359916	0.610536	0.501144
H168	H	0.514970	0.458692	0.672920
H169	H	0.223544	1.434206	-0.309396
H170	H	0.552714	0.434308	0.083343
H171	H	0.143268	1.610661	-0.485813
H172	H	0.683717	0.422710	-0.107892
H173	H	0.500489	0.317930	0.198078
H174	H	0.500503	0.317898	0.500937
F175	F	0.242851	0.770793	0.123060
F176	F	0.334171	0.770821	0.123017
H177	H	0.065178	0.681440	0.167765
H178	H	-0.217928	0.800510	0.108236
F179	F	0.794379	0.410459	0.123121
H180	H	0.701784	0.599120	0.309636
F181	F	-0.408841	1.262501	-0.122792
F182	F	-0.317520	1.262520	-0.122789
F183	F	-0.296961	0.770729	0.123131
H184	H	-0.087359	1.351884	-0.167470
H185	H	-0.007096	1.351887	-0.167457
H186	H	0.223531	1.232807	-0.107993
F187	F	0.130945	1.262587	-0.122886
F188	F	0.419490	0.885723	-0.500982
F189	F	0.025012	0.651648	0.182667
H190	H	-0.067568	0.681435	0.167781
F191	F	-0.141081	1.381640	-0.182361
H192	H	-0.220094	1.351847	-0.167456
H193	H	0.514864	0.787032	-0.326952
F194	F	0.703050	0.611222	0.123139
