data_functionalizedCrystal
_audit_creation_method	'MofGen! by Chris Wilmer'
_symmetry_space_group_name_H-M	'P1'
_symmetry_Int_Tables_number	1
_symmetry_cell_setting	triclinic
loop_
_symmetry_equiv_pos_as_xyz
  x,y,z
_cell_length_a	14.446369
_cell_length_b	14.809374
_cell_length_c	14.809374
_cell_angle_alpha	60.797835
_cell_angle_beta	90.000875
_cell_angle_gamma	67.424702
loop_
_atom_site_label
_atom_site_type_symbol
_atom_site_fract_x
_atom_site_fract_y
_atom_site_fract_z
Zr1	Zr	1.022484	0.955154	-0.203635
O2	O	0.909089	1.113080	-0.350799
O3	O	1.041192	0.777387	-0.145558
O4	O	1.079057	0.926533	-0.332096
O5	O	0.859616	0.993431	-0.031862
O6	O	1.231393	0.926526	-0.332090
O7	O	0.871223	0.963934	-0.164260
O8	O	1.163658	0.659731	0.001593
O9	O	0.927351	1.260225	-0.365546
O10	O	1.182252	0.857849	-0.136447
O11	O	1.059904	0.879866	-0.037644
O12	O	1.104485	1.055466	-0.257269
O13	O	0.982137	1.077484	-0.158467
Zr14	Zr	1.246929	1.002186	0.007533
Zr15	Zr	1.265442	0.955143	-0.203626
Zr16	Zr	1.003971	1.002197	0.007524
Zr17	Zr	1.051609	1.189834	-0.227155
Zr18	Zr	1.217804	0.767507	0.031053
O19	O	1.228221	1.179954	-0.050545
O20	O	1.254544	1.113064	-0.350786
O21	O	0.882767	1.179970	-0.050558
O22	O	1.360324	0.844260	0.154696
O23	O	1.386646	0.777371	-0.145545
O24	O	1.014869	0.844276	0.154683
O25	O	1.409797	0.963910	-0.164240
O26	O	1.190356	1.030808	0.135994
O27	O	1.038020	1.030815	0.135988
O28	O	1.398190	0.993406	-0.031842
O29	O	1.120470	1.260217	-0.365539
O30	O	1.148943	0.697124	0.169436
O31	O	1.342062	0.697115	0.169443
O32	O	1.356777	0.659722	0.001600
O33	O	0.912636	1.297618	-0.197703
O34	O	1.105755	1.297610	-0.197695
O35	O	1.164927	0.901874	0.061167
O36	O	1.287276	0.879856	-0.037636
O37	O	1.209509	1.077474	-0.158458
O38	O	1.087161	1.099492	-0.059656
C39	C	1.098275	0.685122	-0.068631
C40	C	1.085911	0.585494	-0.058646
C41	C	1.141092	0.530155	-0.103208
C42	C	1.128314	0.427184	-0.092889
C43	C	0.830803	0.978684	-0.098063
C44	C	0.727661	0.978689	-0.098066
C45	C	0.531918	1.103382	-0.173954
C46	C	0.639192	1.103398	-0.174312
C47	C	0.719784	0.899758	-0.136626
C48	C	0.612164	0.900535	-0.137169
C49	C	0.599720	0.931869	0.016567
C50	C	0.706028	0.934442	0.016136
C51	C	1.438610	0.978656	-0.098040
C52	C	1.541752	0.978652	-0.098036
C53	C	1.157863	0.919826	-0.362179
C54	C	1.165722	0.899855	-0.451821
C55	C	1.171138	1.272218	-0.127471
C56	C	1.183502	1.371846	-0.137456
C57	C	1.130648	0.988984	-0.551723
C58	C	1.138770	0.968345	-0.644374
C59	C	1.111550	1.037514	0.166076
C60	C	1.103691	1.057485	0.255719
C61	C	1.402178	0.685108	-0.068620
C62	C	1.492956	0.585476	-0.058631
C63	C	1.075119	0.743966	0.195496
C64	C	1.054895	0.664309	0.295124
C65	C	1.379022	0.743952	0.195508
C66	C	1.461941	0.664291	0.295139
C67	C	0.890391	1.213389	-0.391610
C68	C	0.807472	1.293050	-0.491241
C69	C	0.867235	1.272232	-0.127483
C70	C	0.776457	1.371865	-0.137471
C71	C	1.194294	1.213375	-0.391599
C72	C	1.214518	1.293031	-0.491226
C73	C	1.480765	0.527198	-0.105528
C74	C	1.566055	0.433591	-0.096163
C75	C	1.663532	0.398259	-0.039895
C76	C	1.675721	0.456547	0.007002
C77	C	1.590434	0.550157	-0.002370
C78	C	1.100219	0.638391	0.393497
C79	C	1.081213	0.563561	0.487114
C80	C	1.016890	0.514642	0.482357
C81	C	0.971561	0.540567	0.383973
C82	C	0.990561	0.615403	0.290357
C83	C	1.564755	0.615388	0.290353
C84	C	1.642677	0.540549	0.383958
C85	C	1.617782	0.514608	0.482348
C86	C	1.514958	0.563519	0.487131
C87	C	1.437038	0.638363	0.393527
C88	C	0.704659	1.341964	-0.486456
C89	C	0.626741	1.416832	-0.580064
C90	C	0.651636	1.442778	-0.678455
C91	C	0.754460	1.393860	-0.683238
C92	C	0.832377	1.319000	-0.589632
C93	C	0.788650	1.430151	-0.090585
C94	C	0.703366	1.523778	-0.099975
C95	C	0.605889	1.559112	-0.156246
C96	C	0.593699	1.500821	-0.203139
C97	C	0.678983	1.407201	-0.193754
C98	C	1.278846	1.341927	-0.486434
C99	C	1.297868	1.416762	-0.580035
C100	C	1.252555	1.442706	-0.678428
C101	C	1.188223	1.393802	-0.683218
C102	C	1.169208	1.318962	-0.589617
H103	H	1.029211	0.556638	-0.012854
H104	H	0.641514	1.164396	-0.149496
N105	N	0.902201	0.487783	0.378855
H106	H	0.876367	0.515548	0.302332
H107	H	0.841698	0.511358	0.409924
H108	H	0.684368	1.320843	-0.406350
H109	H	1.151333	1.414938	-0.763342
H110	H	1.201766	0.808270	-0.434885
N111	N	0.567586	1.523504	-0.779407
H112	H	0.598950	1.532521	-0.842469
H113	H	0.530612	1.601121	-0.787127
H114	H	1.315749	1.320817	-0.406327
N115	N	0.536337	1.001812	0.060966
H116	H	0.575977	1.037720	0.076725
H117	H	0.521173	0.949993	0.128645
N118	N	0.488556	1.538921	-0.263808
H119	H	0.436385	1.607064	-0.262620
H120	H	0.468340	1.473458	-0.229540
N121	N	0.465865	1.184373	-0.140998
H122	H	0.441667	1.141002	-0.076540
H123	H	0.404208	1.249135	-0.201377
H124	H	1.350249	1.456574	-0.576115
H125	H	0.708759	0.992175	0.045066
N126	N	1.488123	0.535519	0.593261
H127	H	1.439810	0.498429	0.605051
H128	H	1.453528	0.608728	0.593946
N129	N	0.665825	1.344339	-0.244328
H130	H	0.591130	1.380935	-0.281394
H131	H	0.687622	1.260920	-0.187552
N132	N	1.273084	1.523423	-0.779370
H133	H	1.248961	1.601086	-0.787182
H134	H	1.234625	1.532355	-0.842380
N135	N	1.099808	1.266242	-0.594789
H136	H	1.139694	1.179544	-0.552729
H137	H	1.074003	1.294127	-0.671352
H138	H	1.726396	0.500730	0.380044
H139	H	0.574824	0.931806	-0.221185
H140	H	1.353323	0.678171	0.397439
H141	H	1.681239	0.453663	0.558559
N142	N	0.625838	0.778364	-0.067698
H143	H	0.701686	0.724242	-0.036861
H144	H	0.595365	0.757311	-0.111731
H145	H	0.490560	1.139932	-0.258208
H146	H	1.197799	0.559003	-0.148993
H147	H	0.768245	0.844488	0.076377
H148	H	1.071610	0.398333	-0.047093
N149	N	0.943264	1.266222	-0.594802
H150	H	0.988856	1.214853	-0.520579
H151	H	0.964385	1.329409	-0.639215
N152	N	1.258626	0.410041	-0.198108
H153	H	1.257110	0.478183	-0.196882
H154	H	1.238624	0.432784	-0.274141
H155	H	0.650440	1.140043	-0.259065
N156	N	1.130126	0.535602	0.593215
H157	H	1.174915	0.449929	0.639883
H158	H	1.074410	0.560272	0.628745
H159	H	0.713310	1.571225	-0.061783
H160	H	0.774719	1.414995	-0.763359
N161	N	0.801710	0.777458	-0.066143
H162	H	0.844824	0.772030	-0.008401
H163	H	0.847216	0.754278	-0.110159
H164	H	0.543023	1.456649	-0.576149
H165	H	0.734720	0.930089	-0.219781
H166	H	1.174816	0.876753	-0.627430
H167	H	0.536453	1.635346	-0.163879
H168	H	0.610421	0.840152	0.073234
N169	N	0.893779	1.392053	-0.029890
H170	H	0.888547	1.443198	-0.001623
H171	H	0.942744	1.397789	-0.078883
H172	H	1.067650	1.149078	-0.761227
N173	N	1.082917	1.110304	-0.574173
H174	H	1.083884	1.107851	-0.504803
H175	H	1.009390	1.152115	-0.616414
N176	N	1.375635	0.565291	-0.166217
H177	H	1.380870	0.514161	-0.194502
H178	H	1.349049	0.647713	-0.227484
H179	H	1.600374	0.597598	0.035827
N180	N	1.552880	0.370735	-0.146742
H181	H	1.574637	0.287303	-0.090024
H182	H	1.596992	0.375556	-0.200301
N183	N	1.755516	0.297295	-0.029794
H184	H	1.732993	0.265742	-0.068043
H185	H	1.786362	0.235243	0.047864
H186	H	1.755099	0.427766	0.052814
H187	H	1.152595	0.678214	0.397391
H188	H	1.001428	0.453708	0.558593
H189	H	0.953654	0.636493	0.210262
N190	N	1.591619	0.643346	0.184241
H191	H	1.668580	0.601003	0.195428
H192	H	1.568914	0.729031	0.137622
