data_functionalizedCrystal
_audit_creation_method	'MofGen! by Chris Wilmer'
_symmetry_space_group_name_H-M	'P1'
_symmetry_Int_Tables_number	1
_symmetry_cell_setting	triclinic
loop_
_symmetry_equiv_pos_as_xyz
  x,y,z
_cell_length_a	21.295418
_cell_length_b	18.215405
_cell_length_c	18.215399
_cell_angle_alpha	90.032960
_cell_angle_beta	89.964127
_cell_angle_gamma	89.959302
loop_
_atom_site_label
_atom_site_type_symbol
_atom_site_fract_x
_atom_site_fract_y
_atom_site_fract_z
Zn1	Zn	0.962332	0.292664	-0.416477
Zn2	Zn	1.212332	0.542664	-0.166477
Zn3	Zn	1.462332	0.792664	0.083523
Zn4	Zn	1.712332	1.042664	0.333523
Zn5	Zn	0.962259	0.415740	-0.293405
Zn6	Zn	1.212259	0.665740	-0.043405
Zn7	Zn	1.462259	0.915740	0.206595
Zn8	Zn	1.712259	1.165740	0.456595
Zn9	Zn	0.857069	0.292726	-0.293383
Zn10	Zn	1.107069	0.542726	-0.043383
Zn11	Zn	1.357069	0.792726	0.206617
Zn12	Zn	1.607069	1.042726	0.456617
Zn13	Zn	0.857034	0.415727	-0.416389
Zn14	Zn	1.107034	0.665727	-0.166389
Zn15	Zn	1.357034	0.915727	0.083611
Zn16	Zn	1.607034	1.165727	0.333611
O17	O	0.909673	0.354214	-0.354913
O18	O	1.159673	0.604214	-0.104913
O19	O	1.409673	0.854214	0.145087
O20	O	1.659673	1.104214	0.395087
O21	O	1.050411	0.308969	-0.400197
O22	O	1.300411	0.558969	-0.150197
O23	O	1.550411	0.808969	0.099803
O24	O	1.800411	1.058969	0.349803
O25	O	0.948289	0.399454	-0.190418
O26	O	1.198289	0.649454	0.059582
O27	O	1.448289	0.899454	0.309582
O28	O	1.698289	1.149454	0.559582
O29	O	0.871077	0.189733	-0.309740
O30	O	1.121077	0.439733	-0.059740
O31	O	1.371077	0.689733	0.190260
O32	O	1.621077	0.939733	0.440260
O33	O	1.050358	0.399393	-0.309776
O34	O	1.300358	0.649393	-0.059776
O35	O	1.550358	0.899393	0.190224
O36	O	1.800358	1.149393	0.440224
O37	O	0.948413	0.189688	-0.400176
O38	O	1.198413	0.439688	-0.150176
O39	O	1.448413	0.689688	0.099824
O40	O	1.698413	0.939688	0.349824
O41	O	0.871007	0.309076	-0.190402
O42	O	1.121007	0.559076	0.059598
O43	O	1.371007	0.809076	0.309598
O44	O	1.621007	1.059076	0.559598
O45	O	0.768975	0.309063	-0.309654
O46	O	1.018975	0.559063	-0.059654
O47	O	1.268975	0.809063	0.190346
O48	O	1.518975	1.059063	0.440346
O49	O	0.871018	0.399371	-0.519385
O50	O	1.121018	0.649371	-0.269385
O51	O	1.371018	0.899371	-0.019385
O52	O	1.621018	1.149371	0.230615
O53	O	0.768950	0.399431	-0.400026
O54	O	1.018950	0.649431	-0.150026
O55	O	1.268950	0.899431	0.099974
O56	O	1.518950	1.149431	0.349974
O57	O	0.948380	0.308957	-0.519449
O58	O	1.198380	0.558957	-0.269449
O59	O	1.448380	0.808957	-0.019449
O60	O	1.698380	1.058957	0.230551
O61	O	0.948255	0.518723	-0.309691
O62	O	1.198255	0.768723	-0.059691
O63	O	1.448255	1.018723	0.190309
O64	O	1.698255	1.268723	0.440309
O65	O	0.870948	0.518713	-0.400047
O66	O	1.120948	0.768713	-0.150047
O67	O	1.370948	1.018713	0.099953
O68	O	1.620948	1.268713	0.349953
C69	C	0.746122	0.354253	-0.354829
C70	C	0.996122	0.604253	-0.104829
C71	C	1.246122	0.854253	0.145171
C72	C	1.496122	1.104253	0.395171
C73	C	0.676154	0.354287	-0.354810
C74	C	0.926154	0.604287	-0.104810
C75	C	1.176154	0.854287	0.145190
C76	C	1.426154	1.104287	0.395190
C77	C	0.909607	0.545420	-0.354878
C78	C	1.159607	0.795420	-0.104878
C79	C	1.409607	1.045420	0.145122
C80	C	1.659607	1.295420	0.395122
C81	C	0.909636	0.627219	-0.354887
C82	C	1.159636	0.877219	-0.104887
C83	C	1.409636	1.127219	0.145113
C84	C	1.659636	1.377219	0.395113
C85	C	0.909703	0.354155	-0.546866
C86	C	1.159703	0.604155	-0.296866
C87	C	1.409703	0.854155	-0.046866
C88	C	1.659703	1.104155	0.203134
C89	C	0.909716	0.354130	-0.628665
C90	C	1.159716	0.604130	-0.378665
C91	C	1.409716	0.854130	-0.128665
C92	C	1.659716	1.104130	0.121335
C93	C	0.643290	0.401404	-0.401796
C94	C	0.893290	0.651404	-0.151796
C95	C	1.143290	0.901404	0.098204
C96	C	1.393290	1.151404	0.348204
C97	C	0.577548	0.401386	-0.401829
C98	C	0.827548	0.651386	-0.151829
C99	C	1.077548	0.901386	0.098171
C100	C	1.327548	1.151386	0.348171
C101	C	0.544671	0.354259	-0.354863
C102	C	0.794671	0.604259	-0.104863
C103	C	1.044671	0.854259	0.145137
C104	C	1.294671	1.104259	0.395137
C105	C	0.577543	0.307132	-0.307873
C106	C	0.827543	0.557132	-0.057873
C107	C	1.077543	0.807132	0.192127
C108	C	1.327543	1.057132	0.442127
C109	C	0.643284	0.307147	-0.307847
C110	C	0.893284	0.557147	-0.057847
C111	C	1.143284	0.807147	0.192153
C112	C	1.393284	1.057147	0.442153
N113	N	0.441402	0.348513	-0.290496
N114	N	0.691402	0.598513	-0.040496
N115	N	0.941402	0.848513	0.209504
N116	N	1.191402	1.098513	0.459504
N117	N	0.378951	0.348504	-0.290523
N118	N	0.628951	0.598504	-0.040523
N119	N	0.878951	0.848504	0.209477
N120	N	1.128951	1.098504	0.459477
C121	C	0.346597	0.354212	-0.354941
C122	C	0.596597	0.604212	-0.104941
C123	C	0.846597	0.854212	0.145059
C124	C	1.096597	1.104212	0.395059
N125	N	0.379053	0.359944	-0.419332
N126	N	0.629053	0.609944	-0.169332
N127	N	0.879053	0.859944	0.080668
N128	N	1.129053	1.109944	0.330668
N129	N	0.441510	0.359957	-0.419304
N130	N	0.691510	0.609957	-0.169304
N131	N	0.941510	0.859957	0.080696
N132	N	1.191510	1.109957	0.330696
C133	C	0.473386	0.354238	-0.354887
C134	C	0.723386	0.604238	-0.104887
C135	C	0.973386	0.854238	0.145113
C136	C	1.223386	1.104238	0.395113
C137	C	0.242448	0.401312	-0.401967
C138	C	0.492448	0.651312	-0.151967
C139	C	0.742448	0.901312	0.098033
C140	C	0.992448	1.151312	0.348033
C141	C	0.176704	0.401288	-0.402001
C142	C	0.426704	0.651288	-0.152001
C143	C	0.676704	0.901288	0.097999
C144	C	0.926704	1.151288	0.347999
C145	C	0.176700	0.307038	-0.308039
C146	C	0.426700	0.557038	-0.058039
C147	C	0.676700	0.807038	0.191961
C148	C	0.926700	1.057038	0.441961
C149	C	0.242442	0.307058	-0.308011
C150	C	0.492442	0.557058	-0.058011
C151	C	0.742442	0.807058	0.191989
C152	C	0.992442	1.057058	0.441989
C153	C	0.275312	0.354198	-0.354974
C154	C	0.525312	0.604198	-0.104974
C155	C	0.775312	0.854198	0.145026
C156	C	1.025312	1.104198	0.395026
C157	C	1.073864	0.354176	-0.354999
C158	C	1.323864	0.604176	-0.104999
C159	C	1.573864	0.854176	0.145001
C160	C	1.823864	1.104176	0.395001
C161	C	1.143832	0.354159	-0.355035
C162	C	1.393832	0.604159	-0.105035
C163	C	1.643832	0.854159	0.144965
C164	C	1.893832	1.104159	0.394965
C165	C	0.909757	0.162261	-0.354965
C166	C	1.159757	0.412261	-0.104965
C167	C	1.409757	0.662261	0.145035
C168	C	1.659757	0.912261	0.395035
C169	C	0.909793	0.080462	-0.354987
C170	C	1.159793	0.330462	-0.104987
C171	C	1.409793	0.580462	0.145013
C172	C	1.659793	0.830462	0.395013
C173	C	0.949985	0.815394	-0.307926
C174	C	1.199985	1.065394	-0.057926
C175	C	1.449985	1.315394	0.192074
C176	C	1.699985	1.565394	0.442074
C177	C	0.950013	0.892252	-0.307944
C178	C	1.200013	1.142252	-0.057944
C179	C	1.450013	1.392252	0.192056
C180	C	1.700013	1.642252	0.442056
C181	C	0.869443	0.892282	-0.401954
C182	C	1.119443	1.142282	-0.151954
C183	C	1.369443	1.392282	0.098046
C184	C	1.619443	1.642282	0.348046
C185	C	0.869418	0.815425	-0.401939
C186	C	1.119418	1.065425	-0.151939
C187	C	1.369418	1.315425	0.098061
C188	C	1.619418	1.565425	0.348061
C189	C	0.909688	0.776983	-0.354921
C190	C	1.159688	1.026983	-0.104921
C191	C	1.409688	1.276983	0.145079
C192	C	1.659688	1.526983	0.395079
C193	C	0.909741	0.930699	-0.354954
C194	C	1.159741	1.180699	-0.104954
C195	C	1.409741	1.430699	0.145046
C196	C	1.659741	1.680699	0.395046
C197	C	0.909771	1.014032	-0.354973
C198	C	1.159771	1.264032	-0.104973
C199	C	1.409771	1.514032	0.145027
C200	C	1.659771	1.764032	0.395027
C201	C	0.909659	0.693644	-0.354902
C202	C	1.159659	0.943644	-0.104902
C203	C	1.409659	1.193644	0.145098
C204	C	1.659659	1.443644	0.395098
C205	C	0.869509	0.307039	-0.816852
C206	C	1.119509	0.557039	-0.566852
C207	C	1.369509	0.807039	-0.316852
C208	C	1.619509	1.057039	-0.066852
C209	C	0.869520	0.307024	-0.893711
C210	C	1.119520	0.557024	-0.643711
C211	C	1.369520	0.807024	-0.393711
C212	C	1.619520	1.057024	-0.143711
C213	C	0.949998	0.401134	-0.893717
C214	C	1.199998	0.651134	-0.643717
C215	C	1.449998	0.901134	-0.393717
C216	C	1.699998	1.151134	-0.143717
C217	C	0.949983	0.401152	-0.816859
C218	C	1.199983	0.651152	-0.566859
C219	C	1.449983	0.901152	-0.316859
C220	C	1.699983	1.151152	-0.066859
C221	C	0.909740	0.354100	-0.778429
C222	C	1.159740	0.604100	-0.528429
C223	C	1.409740	0.854100	-0.278429
C224	C	1.659740	1.104100	-0.028429
C225	C	0.909765	0.354067	-0.932145
C226	C	1.159765	0.604067	-0.682145
C227	C	1.409765	0.854067	-0.432145
C228	C	1.659765	1.104067	-0.182145
C229	C	0.909778	0.354052	-1.015479
C230	C	1.159778	0.604052	-0.765479
C231	C	1.409778	0.854052	-0.515479
C232	C	1.659778	1.104052	-0.265479
C233	C	0.909727	0.354117	-0.695090
C234	C	1.159727	0.604117	-0.445090
C235	C	1.409727	0.854117	-0.195090
C236	C	1.659727	1.104117	0.054910
C237	C	0.909680	0.354220	-0.163707
C238	C	1.159680	0.604220	0.086293
C239	C	1.409680	0.854220	0.336293
C240	C	1.659680	1.104220	0.586293
C241	C	0.909789	0.354037	-0.081909
C242	C	1.159789	0.604037	0.168091
C243	C	1.409789	0.854037	0.418091
C244	C	1.659789	1.104037	0.668091
H245	H	0.670049	0.439789	-0.440038
H246	H	0.920049	0.689789	-0.190038
H247	H	1.170049	0.939789	0.059962
H248	H	1.420049	1.189789	0.309962
H249	H	0.149933	0.268663	-0.269801
H250	H	0.399933	0.518663	-0.019801
H251	H	0.649933	0.768663	0.230199
H252	H	0.899933	1.018663	0.480199
Br253	Br	0.814908	0.243164	-0.945854
Br254	Br	1.064908	0.493164	-0.695854
Br255	Br	1.314908	0.743164	-0.445854
Br256	Br	1.564908	0.993164	-0.195854
H257	H	0.269212	0.439692	-0.440211
H258	H	0.519212	0.689692	-0.190211
H259	H	0.769212	0.939692	0.059789
H260	H	1.019212	1.189692	0.309789
H261	H	0.836655	0.923592	-0.440233
H262	H	1.086655	1.173592	-0.190233
H263	H	1.336655	1.423592	0.059767
H264	H	1.586655	1.673592	0.309767
H265	H	0.982763	0.439442	-0.925016
H266	H	1.232763	0.689442	-0.675016
H267	H	1.482763	0.939442	-0.425016
H268	H	1.732763	1.189442	-0.175016
Br269	Br	0.532937	0.465334	-0.465602
Br270	Br	0.782937	0.715334	-0.215602
Br271	Br	1.032937	0.965334	0.034398
Br272	Br	1.282937	1.215334	0.284398
H273	H	0.149948	0.439655	-0.440268
H274	H	0.399948	0.689655	-0.190268
H275	H	0.649948	0.939655	0.059732
H276	H	0.899948	1.189655	0.309732
Br277	Br	0.287046	0.243110	-0.244240
Br278	Br	0.537046	0.493110	0.005760
Br279	Br	0.787046	0.743110	0.255760
Br280	Br	1.037046	0.993110	0.505760
Br281	Br	1.004582	0.465031	-0.764709
Br282	Br	1.254582	0.715031	-0.514709
Br283	Br	1.504582	0.965031	-0.264709
Br284	Br	1.754582	1.215031	-0.014709
H285	H	0.550770	0.268759	-0.269634
H286	H	0.800770	0.518759	-0.019634
H287	H	1.050770	0.768759	0.230366
H288	H	1.300770	1.018759	0.480366
H289	H	0.982776	0.784096	-0.269642
H290	H	1.232776	1.034096	-0.019642
H291	H	1.482776	1.284096	0.230358
H292	H	1.732776	1.534096	0.480358
Br293	Br	1.004707	0.944379	-0.244166
Br294	Br	1.254707	1.194379	0.005834
Br295	Br	1.504707	1.444379	0.255834
Br296	Br	1.754707	1.694379	0.505834
Br297	Br	0.814731	0.763291	-0.465730
Br298	Br	1.064731	1.013291	-0.215730
Br299	Br	1.314731	1.263291	0.034270
Br300	Br	1.564731	1.513291	0.284270
H301	H	0.836740	0.268726	-0.785564
H302	H	1.086740	0.518726	-0.535564
H303	H	1.336740	0.768726	-0.285564
H304	H	1.586740	1.018726	-0.035564
H305	H	0.670041	0.268776	-0.269585
H306	H	0.920041	0.518776	-0.019585
H307	H	1.170041	0.768776	0.230415
H308	H	1.420041	1.018776	0.480415
