data_functionalizedCrystal
_audit_creation_method	'MofGen! by Chris Wilmer'
_symmetry_space_group_name_H-M	'P1'
_symmetry_Int_Tables_number	1
_symmetry_cell_setting	triclinic
loop_
_symmetry_equiv_pos_as_xyz
  x,y,z
_cell_length_a	16.120530
_cell_length_b	16.120484
_cell_length_c	21.295411
_cell_angle_alpha	87.126946
_cell_angle_beta	92.913216
_cell_angle_gamma	90.167327
loop_
_atom_site_label
_atom_site_type_symbol
_atom_site_fract_x
_atom_site_fract_y
_atom_site_fract_z
Zn1	Zn	-1.254439	0.395645	-0.419035
Zn2	Zn	-0.754439	0.895645	0.080965
Zn3	Zn	-1.247290	0.534696	-0.318814
Zn4	Zn	-0.747290	1.034696	0.181186
Zn5	Zn	-1.115388	0.388602	-0.308193
Zn6	Zn	-0.615388	0.888602	0.191807
Zn7	Zn	-1.108291	0.527598	-0.418459
Zn8	Zn	-0.608291	1.027598	0.081541
O9	O	-1.181352	0.461636	-0.366125
O10	O	-0.681352	0.961636	0.133875
O11	O	-1.369856	0.420009	-0.410426
O12	O	-0.869856	0.920009	0.089574
O13	O	-1.229771	0.515339	-0.229316
O14	O	-0.729771	1.015339	0.270684
O15	O	-1.139795	0.273173	-0.318693
O16	O	-0.639795	0.773173	0.181307
O17	O	-1.364604	0.522168	-0.336794
O18	O	-0.864604	1.022168	0.163206
O19	O	-1.241955	0.278348	-0.400128
O20	O	-0.741955	0.778348	0.099872
O21	O	-1.132863	0.408005	-0.221513
O22	O	-0.632863	0.908005	0.278487
O23	O	-0.998081	0.401123	-0.318134
O24	O	-0.498081	0.901123	0.181866
O25	O	-1.127700	0.510072	-0.506625
O26	O	-0.627700	1.010072	-0.006625
O27	O	-0.992867	0.503242	-0.399146
O28	O	-0.492867	1.003242	0.100854
O29	O	-1.235074	0.413127	-0.507048
O30	O	-0.735074	0.913127	-0.007048
O31	O	-1.222890	0.650118	-0.336236
O32	O	-0.722890	1.150118	0.163764
O33	O	-1.120768	0.644904	-0.409445
O34	O	-0.620768	1.144904	0.090555
C35	C	-0.965302	0.450649	-0.357425
C36	C	-0.465302	0.950649	0.142575
C37	C	-0.872874	0.445968	-0.353719
C38	C	-0.372874	0.945968	0.146281
C39	C	-1.170306	0.677684	-0.373945
C40	C	-0.670306	1.177684	0.126055
C41	C	-1.165657	0.770114	-0.377314
C42	C	-0.665657	1.270114	0.122686
C43	C	-1.181393	0.461593	-0.530315
C44	C	-0.681393	0.961593	-0.030315
C45	C	-1.181410	0.461575	-0.600284
C46	C	-0.681410	0.961575	-0.100284
C47	C	-1.398246	0.472666	-0.374859
C48	C	-0.898246	0.972666	0.125141
C49	C	-1.490673	0.477366	-0.378581
C50	C	-0.990673	0.977366	0.121419
C51	C	-0.703647	0.437404	-0.346958
C52	C	-0.203647	0.937404	0.153042
C53	C	-0.659894	0.485928	-0.385341
C54	C	-0.159894	0.985928	0.114659
C55	C	-0.565731	0.481163	-0.381579
C56	C	-0.065731	0.981163	0.118421
C57	C	-0.797819	0.442168	-0.350719
C58	C	-0.297819	0.942168	0.149281
C59	C	-1.192464	0.244745	-0.358290
C60	C	-0.692464	0.744745	0.141710
C61	C	-1.197199	0.152319	-0.354951
C62	C	-0.697199	0.652319	0.145049
C63	C	-1.157173	0.939345	-0.383479
C64	C	-0.657173	1.439345	0.116521
C65	C	-1.205680	0.983093	-0.348788
C66	C	-0.705680	1.483093	0.151212
C67	C	-1.200960	1.077259	-0.352218
C68	C	-0.700960	1.577259	0.147782
C69	C	-1.161892	0.845171	-0.380050
C70	C	-0.661892	1.345171	0.119950
C71	C	-1.231972	0.517296	-1.103803
C72	C	-0.731972	1.017296	-0.603803
C73	C	-1.231955	0.517322	-1.038061
C74	C	-0.731955	1.017322	-0.538061
C75	C	-1.181495	0.461449	-1.001122
C76	C	-0.681495	0.961449	-0.501122
C77	C	-1.131032	0.405561	-1.029930
C78	C	-0.631032	0.905561	-0.529930
C79	C	-1.131043	0.405542	-1.095671
C80	C	-0.631043	0.905542	-0.595671
N81	N	-1.178827	0.388366	-0.895014
N82	N	-0.678827	0.888366	-0.395014
N83	N	-1.178820	0.388387	-0.832564
N84	N	-0.678820	0.888387	-0.332564
C85	C	-1.181456	0.461504	-0.803047
C86	C	-0.681456	0.961504	-0.303047
N87	N	-1.184114	0.534602	-0.838342
N88	N	-0.684114	1.034602	-0.338342
N89	N	-1.184124	0.534581	-0.900799
N90	N	-0.684124	1.034581	-0.400799
C91	C	-1.181476	0.461464	-0.929836
C92	C	-0.681476	0.961464	-0.429836
C93	C	-1.231894	0.517421	-0.702962
C94	C	-0.731894	1.017421	-0.202962
C95	C	-1.231872	0.517447	-0.637218
C96	C	-0.731872	1.017447	-0.137218
C97	C	-1.130953	0.405679	-0.629088
C98	C	-0.630953	0.905679	-0.129088
C99	C	-1.130970	0.405659	-0.694831
C100	C	-0.630970	0.905659	-0.194831
C101	C	-1.181445	0.461529	-0.731764
C102	C	-0.681445	0.961529	-0.231764
C103	C	-1.181363	0.461620	-0.202573
C104	C	-0.681363	0.961620	0.297427
C105	C	-1.181518	0.461412	-0.132604
C106	C	-0.681518	0.961412	0.367396
H107	H	-0.670389	0.392287	-0.311274
H108	H	-0.170389	0.892287	0.188726
O109	O	-1.286291	0.577731	-0.606155
O110	O	-0.786291	1.077731	-0.106155
H111	H	-1.277796	0.568368	-0.554235
H112	H	-0.777796	1.068368	-0.054235
O113	O	-1.097463	0.983412	-0.426222
O114	O	-0.597463	1.483412	0.073778
H115	H	-1.112495	0.967481	-0.475617
H116	H	-0.612495	1.467481	0.024383
H117	H	-1.273053	0.562821	-1.014606
H118	H	-0.773053	1.062821	-0.514606
O119	O	-1.076613	0.345290	-0.990093
O120	O	-0.576613	0.845290	-0.490093
H121	H	-1.032400	0.380361	-0.959774
H122	H	-0.532400	0.880361	-0.459774
H123	H	-1.273070	0.562792	-1.133870
H124	H	-0.773070	1.062792	-0.633870
O125	O	-0.703946	0.545698	-0.432613
O126	O	-0.203946	1.045698	0.067387
H127	H	-0.683989	0.610116	-0.423447
H128	H	-0.183989	1.110116	0.076553
H129	H	-1.250754	0.949825	-0.316511
H130	H	-0.750754	1.449825	0.183489
H131	H	-1.089957	0.360033	-1.119120
H132	H	-0.589957	0.860033	-0.619120
H133	H	-1.272992	0.562915	-0.733034
H134	H	-0.772992	1.062915	-0.233034
O135	O	-1.076527	0.345411	-0.589258
O136	O	-0.576527	0.845411	-0.089258
H137	H	-1.084998	0.354808	-0.538704
H138	H	-0.584998	0.854808	-0.038704
H139	H	-1.089889	0.360149	-0.718280
H140	H	-0.589889	0.860149	-0.218280
