data_functionalizedCrystal
_audit_creation_method	'MofGen! by Chris Wilmer'
_symmetry_space_group_name_H-M	'P1'
_symmetry_Int_Tables_number	1
_symmetry_cell_setting	triclinic
loop_
_symmetry_equiv_pos_as_xyz
  x,y,z
_cell_length_a	21.606444
_cell_length_b	12.970454
_cell_length_c	12.970454
_cell_angle_alpha	120.000713
_cell_angle_beta	90.001972
_cell_angle_gamma	60.001029
loop_
_atom_site_label
_atom_site_type_symbol
_atom_site_fract_x
_atom_site_fract_y
_atom_site_fract_z
Zr1	Zr	0.596223	1.128563	0.135341
O2	O	0.497403	1.343646	0.299960
O3	O	0.626517	0.913474	0.084876
O4	O	0.626520	1.128564	0.299966
O5	O	0.497398	1.128557	-0.084797
O6	O	0.728369	1.128571	0.299973
O7	O	0.497400	1.128556	0.084869
O8	O	0.728364	0.743815	-0.084785
O9	O	0.497403	1.513313	0.299961
O10	O	0.715446	1.001951	0.063358
O11	O	0.639435	1.001946	-0.063266
O12	O	0.639438	1.255186	0.189975
O13	O	0.563427	1.255182	0.063350
Zr14	Zr	0.758658	1.128576	-0.135248
Zr15	Zr	0.758662	1.128574	0.135351
Zr16	Zr	0.596219	1.128564	-0.135257
Zr17	Zr	0.596223	1.399163	0.135342
Zr18	Zr	0.758658	0.857976	-0.135249
O19	O	0.728364	1.343664	-0.084782
O20	O	0.728370	1.343662	0.299974
O21	O	0.497398	1.343648	-0.084796
O22	O	0.857478	0.913493	-0.299867
O23	O	0.857484	0.913491	0.084890
O24	O	0.626512	0.913477	-0.299880
O25	O	0.857484	1.128582	0.084891
O26	O	0.728361	1.128575	-0.299873
O27	O	0.626512	1.128568	-0.299879
O28	O	0.857481	1.128583	-0.084776
O29	O	0.626520	1.513322	0.299968
O30	O	0.728361	0.743817	-0.299875
O31	O	0.857478	0.743826	-0.299867
O32	O	0.857481	0.743825	-0.084778
O33	O	0.497400	1.513314	0.084871
O34	O	0.626517	1.513324	0.084879
O35	O	0.715443	1.001952	-0.189882
O36	O	0.791454	1.001957	-0.063257
O37	O	0.715446	1.255193	0.063360
O38	O	0.639435	1.255188	-0.063265
C39	C	0.677441	0.790090	0.000045
C40	C	0.677440	0.675213	0.000044
C41	C	0.474255	1.128555	0.000034
C42	C	0.405295	1.128550	0.000030
C43	C	0.412571	0.996365	-0.066058
C44	C	0.347774	0.996369	-0.066059
C45	C	0.275701	1.128560	0.000036
C46	C	0.268427	1.260755	0.066126
C47	C	0.333224	1.260750	0.066119
C48	C	0.007109	1.260780	0.066154
C49	C	-0.057689	1.260776	0.066159
C50	C	0.021659	0.996400	-0.066024
C51	C	0.086456	0.996394	-0.066031
C52	C	0.079176	1.128589	0.000053
C53	C	0.149437	1.128583	0.000052
C54	C	0.205441	1.128567	0.000046
C55	C	0.880626	1.128584	0.000059
C56	C	0.949586	1.128589	0.000063
C57	C	0.677445	1.128567	0.338524
C58	C	0.677447	1.128567	0.453400
C59	C	0.677441	1.467049	0.000048
C60	C	0.677441	1.581925	0.000049
C61	C	0.677438	1.128571	0.661569
C62	C	0.677444	1.128572	0.546693
C63	C	0.880626	0.790105	0.000057
C64	C	0.949586	0.675233	0.000061
C65	C	0.677436	0.790092	-0.338433
C66	C	0.677434	0.675216	-0.453309
C67	C	0.880622	0.790107	-0.338420
C68	C	0.949580	0.675236	-0.453293
C69	C	0.474259	1.467032	0.338514
C70	C	0.405301	1.581903	0.453386
C71	C	0.474255	1.467034	0.000036
C72	C	0.405295	1.581906	0.000033
C73	C	0.677445	1.467047	0.338526
C74	C	0.677447	1.581923	0.453402
C75	C	0.942295	0.621285	0.066166
C76	C	1.007083	0.513365	0.066194
C77	C	1.079162	0.459389	0.000110
C78	C	1.086452	0.513348	-0.065997
C79	C	1.021664	0.621273	-0.066018
C80	C	1.021647	0.621293	-0.441141
C81	C	1.086446	0.513375	-0.549066
C82	C	1.079177	0.459393	-0.669141
C83	C	1.007102	0.513346	-0.681290
C84	C	0.942304	0.621270	-0.573366
C85	C	0.333234	1.635859	0.441235
C86	C	0.268435	1.743811	0.549159
C87	C	0.275704	1.797798	0.669234
C88	C	0.347779	1.743838	0.681383
C89	C	0.412577	1.635896	0.573460
C90	C	0.412586	1.635865	-0.066061
C91	C	0.347798	1.743815	-0.066060
C92	C	0.275719	1.797795	0.000028
C93	C	0.268429	1.743831	0.066130
C94	C	0.333217	1.635891	0.066136
H95	H	0.471253	0.888719	-0.119886
H96	H	0.209734	1.787798	0.119937
O97	O	0.482638	1.583388	0.585048
C98	C	0.538281	1.476519	0.464055
H99	H	0.513042	1.494201	0.392483
H100	H	0.588236	1.485316	0.465268
H101	H	0.558560	1.363625	0.436577
H102	H	0.883626	0.665176	-0.583278
O103	O	1.028657	0.673907	-0.324466
C104	C	0.993588	0.825143	-0.258024
H105	H	0.949398	0.871001	-0.299162
H106	H	0.964863	0.881007	-0.154147
H107	H	1.038144	0.845716	-0.267034
H108	H	1.145147	0.469384	-0.119800
H109	H	0.222935	1.885692	0.757102
O110	O	0.326027	1.583647	0.324697
C111	C	0.248518	1.654420	0.337141
H112	H	0.213970	1.763815	0.433464
H113	H	0.239490	1.673037	0.259737
H114	H	0.229418	1.583640	0.328283
H115	H	0.209755	1.787727	0.539243
H116	H	0.209740	1.368387	0.119935
O117	O	1.000182	0.460688	-0.798029
C118	C	1.072833	0.353886	-0.890664
H119	H	1.115772	0.306720	-0.848568
H120	H	1.072136	0.263053	-0.973902
H121	H	1.089340	0.405520	-0.924431
O122	O	0.354699	1.796396	0.798122
C123	C	0.282048	1.903255	0.890758
H124	H	0.239108	1.885519	0.848662
H125	H	0.282744	1.894504	0.973997
H126	H	0.265543	2.016150	0.924522
O127	O	1.028887	0.673454	-0.130359
C128	C	1.106401	0.602682	-0.188654
H129	H	1.140943	0.493296	-0.201707
H130	H	1.115445	0.584048	-0.284679
H131	H	1.125493	0.673472	-0.126716
H132	H	0.471271	1.591923	-0.119887
H133	H	0.353748	1.787734	-0.119893
O134	O	0.212767	1.902833	0.000235
C135	C	0.169347	2.027698	0.125296
H136	H	0.207380	2.027559	0.186216
H137	H	0.143115	2.129708	0.126617
H138	H	0.122434	2.026799	0.164182
H139	H	0.327270	1.591960	0.119954
H140	H	1.145127	0.469457	-0.539152
H141	H	0.353705	0.888730	-0.119877
H142	H	0.145138	0.888750	-0.119848
H143	H	0.027580	0.888760	-0.119836
H144	H	1.131946	0.371514	-0.757009
H145	H	-0.116376	1.368428	0.119984
H146	H	0.327295	1.368388	0.119919
O147	O	0.872339	0.673592	0.130477
C148	C	0.879812	0.602793	0.188799
H149	H	0.937632	0.558326	0.201887
H150	H	0.833344	0.683764	0.284810
H151	H	0.874504	0.509044	0.126863
H152	H	0.001171	1.368421	0.119987
H153	H	1.131910	0.371508	0.000136
H154	H	1.001133	0.469445	0.120026
