data_functionalizedCrystal
_audit_creation_method	'MofGen! by Chris Wilmer'
_symmetry_space_group_name_H-M	'P1'
_symmetry_Int_Tables_number	1
_symmetry_cell_setting	triclinic
loop_
_symmetry_equiv_pos_as_xyz
  x,y,z
_cell_length_a	25.639242
_cell_length_b	25.639239
_cell_length_c	12.827885
_cell_angle_alpha	89.964018
_cell_angle_beta	89.977603
_cell_angle_gamma	90.030990
loop_
_atom_site_label
_atom_site_type_symbol
_atom_site_fract_x
_atom_site_fract_y
_atom_site_fract_z
Zn1	Zn	0.799267	-0.208233	-0.590885
Zn2	Zn	1.299267	0.291767	-0.090885
Zn3	Zn	0.799178	-0.295678	-0.416127
Zn4	Zn	1.299178	0.204322	0.083873
Zn5	Zn	0.711831	-0.208247	-0.416150
Zn6	Zn	1.211831	0.291753	0.083850
Zn7	Zn	0.711788	-0.295627	-0.590818
Zn8	Zn	1.211788	0.204373	-0.090818
O9	O	0.755516	-0.251946	-0.503495
O10	O	1.255516	0.248054	-0.003495
O11	O	0.872420	-0.219848	-0.567722
O12	O	1.372420	0.280152	-0.067722
O13	O	0.787572	-0.284107	-0.269894
O14	O	1.287572	0.215893	0.230106
O15	O	0.723484	-0.135080	-0.439367
O16	O	1.223484	0.364920	0.060633
O17	O	0.872355	-0.284094	-0.439327
O18	O	1.372355	0.215906	0.060673
O19	O	0.787723	-0.135069	-0.567744
O20	O	1.287723	0.364931	-0.067744
O21	O	0.723398	-0.219871	-0.269911
O22	O	1.223398	0.280129	0.230089
O23	O	0.638660	-0.219822	-0.439302
O24	O	1.138660	0.280178	0.060698
O25	O	0.723412	-0.284007	-0.737063
O26	O	1.223412	0.215993	-0.237063
O27	O	0.638628	-0.284021	-0.567629
O28	O	1.138628	0.215979	-0.067629
O29	O	0.787682	-0.219799	-0.737113
O30	O	1.287682	0.280201	-0.237113
O31	O	0.787530	-0.368836	-0.439262
O32	O	1.287530	0.131164	0.060738
O33	O	0.723325	-0.368799	-0.567607
O34	O	1.223325	0.131201	-0.067607
C35	C	0.619673	-0.251918	-0.503461
C36	C	1.119673	0.248082	-0.003461
C37	C	0.561559	-0.251918	-0.503471
C38	C	1.061559	0.248082	-0.003471
C39	C	0.310408	-0.218553	-0.570472
C40	C	0.810408	0.281447	-0.070472
C41	C	0.365012	-0.218548	-0.570466
C42	C	0.865012	0.281452	-0.070466
O43	O	0.393284	-0.190156	-0.627425
O44	O	0.893284	0.309844	-0.127425
N45	N	0.392285	-0.251940	-0.503507
N46	N	0.892285	0.248060	-0.003507
C47	C	0.364951	-0.285344	-0.436557
C48	C	0.864951	0.214656	0.063443
O49	O	0.393163	-0.313746	-0.379603
O50	O	0.893163	0.186254	0.120397
C51	C	0.310348	-0.285351	-0.436569
C52	C	0.810348	0.214649	0.063431
C53	C	0.283078	-0.251953	-0.503525
C54	C	0.783078	0.248047	-0.003525
C55	C	0.283137	-0.185158	-0.637423
C56	C	0.783137	0.314842	-0.137423
C57	C	0.228537	-0.185162	-0.637428
C58	C	0.728537	0.314838	-0.137428
C59	C	0.201207	-0.218562	-0.570481
C60	C	0.701207	0.281438	-0.070481
C61	C	0.228477	-0.251957	-0.503529
C62	C	0.728477	0.248043	-0.003529
C63	C	0.283015	-0.318757	-0.369625
C64	C	0.783015	0.181243	0.130375
C65	C	0.228408	-0.318761	-0.369643
C66	C	0.728408	0.181239	0.130357
C67	C	0.201138	-0.285363	-0.436599
C68	C	0.701138	0.214637	0.063401
C69	C	0.146546	-0.285362	-0.436587
C70	C	0.646546	0.214638	0.063413
N71	N	0.119273	-0.251969	-0.503546
N72	N	0.619273	0.248031	-0.003546
C73	C	0.146603	-0.218570	-0.570493
C74	C	0.646603	0.281430	-0.070493
C75	C	0.479622	-0.285326	-0.436538
C76	C	0.979622	0.214674	0.063462
C77	C	0.534224	-0.285316	-0.436520
C78	C	1.034224	0.214684	0.063480
C79	C	0.534281	-0.218521	-0.570431
C80	C	1.034281	0.281479	-0.070431
C81	C	0.479678	-0.218529	-0.570443
C82	C	0.979678	0.281471	-0.070443
C83	C	0.452349	-0.251934	-0.503497
C84	C	0.952349	0.248066	-0.003497
C85	C	0.031938	-0.218581	-0.570496
C86	C	0.531938	0.281419	-0.070496
C87	C	-0.022667	-0.218587	-0.570491
C88	C	0.477333	0.281413	-0.070491
C89	C	-0.022719	-0.285384	-0.436585
C90	C	0.477281	0.214616	0.063415
C91	C	0.031881	-0.285377	-0.436585
C92	C	0.531881	0.214623	0.063415
C93	C	0.059209	-0.251973	-0.503549
C94	C	0.559209	0.248027	-0.003549
O95	O	0.118239	-0.313740	-0.379660
O96	O	0.618239	0.186260	0.120340
O97	O	0.118385	-0.190176	-0.627446
O98	O	0.618385	0.309824	-0.127446
C99	C	0.755428	-0.387789	-0.503447
C100	C	1.255428	0.112211	-0.003447
C101	C	0.755438	-0.445903	-0.503462
C102	C	1.255438	0.054097	-0.003462
C103	C	0.789034	-0.806273	-0.436780
C104	C	1.289034	-0.306273	0.063220
C105	C	0.789055	-0.860877	-0.436794
C106	C	1.289055	-0.360877	0.063206
O107	O	0.817528	-0.889119	-0.380046
O108	O	1.317528	-0.389119	0.119954
N109	N	0.755608	-0.888185	-0.503564
N110	N	1.255608	-0.388185	-0.003564
C111	C	0.722142	-0.860886	-0.570333
C112	C	1.222142	-0.360886	-0.070333
O113	O	0.693695	-0.889128	-0.627128
O114	O	1.193695	-0.389128	-0.127128
C115	C	0.722125	-0.806283	-0.570323
C116	C	1.222125	-0.306283	-0.070323
C117	C	0.755570	-0.778978	-0.503541
C118	C	1.255570	-0.278978	-0.003541
C119	C	0.822478	-0.778967	-0.370004
C120	C	1.322478	-0.278967	0.129996
C121	C	0.822457	-0.724367	-0.369989
C122	C	1.322457	-0.224367	0.130011
C123	C	0.788992	-0.697072	-0.436750
C124	C	1.288992	-0.197072	0.063250
C125	C	0.755549	-0.724377	-0.503526
C126	C	1.255549	-0.224377	-0.003526
C127	C	0.688662	-0.778985	-0.637096
C128	C	1.188662	-0.278985	-0.137096
C129	C	0.688648	-0.724378	-0.637081
C130	C	1.188648	-0.224378	-0.137081
C131	C	0.722093	-0.697073	-0.570299
C132	C	1.222093	-0.197073	-0.070299
C133	C	0.722064	-0.642481	-0.570272
C134	C	1.222064	-0.142481	-0.070272
N135	N	0.755511	-0.615173	-0.503501
N136	N	1.255511	-0.115173	-0.003501
C137	C	0.788975	-0.642468	-0.436740
C138	C	1.288975	-0.142468	0.063260
C139	C	0.722181	-0.975557	-0.570349
C140	C	1.222181	-0.475557	-0.070349
C141	C	0.722195	-1.030159	-0.570354
C142	C	1.222195	-0.530159	-0.070354
C143	C	0.789109	-1.030146	-0.436816
C144	C	1.289109	-0.530146	0.063184
C145	C	0.789092	-0.975543	-0.436806
C146	C	1.289092	-0.475543	0.063194
C147	C	0.755628	-0.948249	-0.503578
C148	C	1.255628	-0.448249	-0.003578
C149	C	0.788928	-0.527803	-0.436713
C150	C	1.288928	-0.027803	0.063287
C151	C	0.788902	-0.473198	-0.436701
C152	C	1.288902	0.026802	0.063299
C153	C	0.721991	-0.473216	-0.570242
C154	C	1.221991	0.026784	-0.070242
C155	C	0.722014	-0.527816	-0.570251
C156	C	1.222014	-0.027816	-0.070251
C157	C	0.755487	-0.555109	-0.503483
C158	C	1.255487	-0.055109	-0.003483
O159	O	0.693606	-0.614204	-0.626993
O160	O	1.193606	-0.114204	-0.126993
O161	O	0.817422	-0.614220	-0.379964
O162	O	1.317422	-0.114220	0.120036
C163	C	0.891889	-0.251975	-0.503529
C164	C	1.391889	0.248025	-0.003529
C165	C	0.950003	-0.251987	-0.503544
C166	C	1.450003	0.248013	-0.003544
C167	C	0.755552	-0.251896	-0.776065
C168	C	1.255552	0.248104	-0.276065
C169	C	0.755567	-0.251875	-0.892219
C170	C	1.255567	0.248125	-0.392219
C171	C	0.755618	-0.115573	-0.503566
C172	C	1.255618	0.384427	-0.003566
C173	C	0.755662	-0.057459	-0.503596
C174	C	1.255662	0.442541	-0.003596
C175	C	0.723822	-0.220083	-0.944012
C176	C	1.223822	0.279917	-0.444012
C177	C	0.723837	-0.220060	-1.064062
C178	C	1.223837	0.279940	-0.564062
C179	C	0.755510	-0.251958	-0.231985
C180	C	1.255510	0.248042	0.268015
C181	C	0.755596	-0.251833	-0.115832
C182	C	1.255596	0.248167	0.384168
H183	H	0.206338	-0.157968	-0.691955
H184	H	0.706338	0.342032	-0.191955
Cl185	Cl	0.445271	-0.327320	-0.352357
Cl186	Cl	0.945271	0.172680	0.147643
H187	H	0.782777	-0.279050	-1.071298
H188	H	1.282777	0.220950	-0.571298
H189	H	0.661424	-0.801208	-0.691472
H190	H	1.161424	-0.301208	-0.191472
Cl191	Cl	0.679926	-0.438892	-0.654171
Cl192	Cl	1.179926	0.061108	-0.154171
H193	H	0.556423	-0.312507	-0.381987
H194	H	1.056423	0.187493	0.118013
Cl195	Cl	0.830951	-0.438874	-0.352740
Cl196	Cl	1.330951	0.061126	0.147260
H197	H	0.457478	-0.191332	-0.624963
H198	H	0.957478	0.308668	-0.124963
H199	H	0.206159	-0.345966	-0.315130
H200	H	0.706159	0.154034	0.184870
H201	H	0.849692	-0.702138	-0.315612
H202	H	1.349692	-0.202138	0.184388
Cl203	Cl	0.646577	-0.690069	-0.721030
Cl204	Cl	1.146577	-0.190069	-0.221030
H205	H	0.816326	-0.953314	-0.382427
H206	H	1.316326	-0.453314	0.117573
Cl207	Cl	0.831178	-1.064470	-0.352885
Cl208	Cl	1.331178	-0.564470	0.147115
Cl209	Cl	0.568649	-0.176533	-0.654594
Cl210	Cl	1.068649	0.323467	-0.154594
Cl211	Cl	0.864553	-0.813271	-0.286064
Cl212	Cl	1.364553	-0.313271	0.213936
H213	H	0.054182	-0.191381	-0.625024
H214	H	0.554182	0.308619	-0.125024
Cl215	Cl	0.679957	-0.562144	-0.654185
Cl216	Cl	1.179957	-0.062144	-0.154185
H217	H	0.696631	-0.192883	-0.899477
H218	H	1.196631	0.307117	-0.399477
H219	H	0.305209	-0.345953	-0.315102
H220	H	0.805209	0.154047	0.184898
Cl221	Cl	0.797545	-0.293876	-0.960968
Cl222	Cl	1.297545	0.206124	-0.460968
H223	H	0.816186	-0.550018	-0.382346
H224	H	1.316186	-0.050018	0.117654
Cl225	Cl	0.317485	-0.143164	-0.721598
Cl226	Cl	0.817485	0.356836	-0.221598
H227	H	-0.044868	-0.191388	-0.625015
H228	H	0.455132	0.308612	-0.125015
Cl229	Cl	0.681877	-0.178032	-1.132824
Cl230	Cl	1.181877	0.321968	-0.632824
Cl231	Cl	0.066165	-0.327367	-0.352418
Cl232	Cl	0.566165	0.172633	0.147582
Cl233	Cl	0.680142	-1.064479	-0.654300
Cl234	Cl	1.180142	-0.564479	-0.154300
H235	H	0.694927	-0.953337	-0.624719
H236	H	1.194927	-0.453337	-0.124719
Cl237	Cl	-0.057087	-0.327370	-0.352426
Cl238	Cl	0.442913	0.172630	0.147574
