data_functionalizedCrystal
_audit_creation_method	'MofGen! by Chris Wilmer'
_symmetry_space_group_name_H-M	'P1'
_symmetry_Int_Tables_number	1
_symmetry_cell_setting	triclinic
loop_
_symmetry_equiv_pos_as_xyz
  x,y,z
_cell_length_a	18.215407
_cell_length_b	12.645330
_cell_length_c	18.215399
_cell_angle_alpha	89.976970
_cell_angle_beta	89.980167
_cell_angle_gamma	90.018140
loop_
_atom_site_label
_atom_site_type_symbol
_atom_site_fract_x
_atom_site_fract_y
_atom_site_fract_z
Zn1	Zn	1.125109	-0.422038	-0.416141
Zn2	Zn	1.458442	-0.088704	-0.082808
Zn3	Zn	1.791775	0.244629	0.250526
Zn4	Zn	1.125033	-0.599320	-0.293085
Zn5	Zn	1.458366	-0.265986	0.040248
Zn6	Zn	1.791699	0.067347	0.373581
Zn7	Zn	1.002041	-0.422072	-0.293088
Zn8	Zn	1.335375	-0.088739	0.040245
Zn9	Zn	1.668708	0.244594	0.373578
Zn10	Zn	1.002023	-0.599261	-0.416110
Zn11	Zn	1.335356	-0.265927	-0.082777
Zn12	Zn	1.668689	0.067406	0.250556
O13	O	1.063551	-0.510673	-0.354606
O14	O	1.396885	-0.177339	-0.021273
O15	O	1.730218	0.155994	0.312060
O16	O	1.228083	-0.445565	-0.399829
O17	O	1.561416	-0.112231	-0.066496
O18	O	1.894750	0.221102	0.266838
O19	O	1.108693	-0.575847	-0.190101
O20	O	1.442027	-0.242513	0.143232
O21	O	1.775360	0.090820	0.476565
O22	O	1.018406	-0.273720	-0.309426
O23	O	1.351739	0.059613	0.023908
O24	O	1.685073	0.392946	0.357241
O25	O	1.228027	-0.575813	-0.309421
O26	O	1.561360	-0.242480	0.023913
O27	O	1.894694	0.090854	0.357246
O28	O	1.108823	-0.273695	-0.399832
O29	O	1.442157	0.059638	-0.066499
O30	O	1.775490	0.392972	0.266835
O31	O	1.018332	-0.445624	-0.190104
O32	O	1.351666	-0.112290	0.143230
O33	O	1.684999	0.221043	0.476563
O34	O	0.899055	-0.445566	-0.309396
O35	O	1.232388	-0.112233	0.023937
O36	O	1.565721	0.221100	0.357271
O37	O	1.018374	-0.575713	-0.519099
O38	O	1.351708	-0.242379	-0.185765
O39	O	1.685041	0.090954	0.147568
O40	O	0.899041	-0.575746	-0.399780
O41	O	1.232374	-0.242413	-0.066446
O42	O	1.565708	0.090920	0.266887
O43	O	1.108805	-0.445507	-0.519121
O44	O	1.442138	-0.112174	-0.185788
O45	O	1.775472	0.221159	0.147545
O46	O	1.108675	-0.747659	-0.309391
O47	O	1.442009	-0.414326	0.023943
O48	O	1.775342	-0.080993	0.357276
O49	O	1.018300	-0.747616	-0.399777
O50	O	1.351634	-0.414283	-0.066443
O51	O	1.684967	-0.080949	0.266890
C52	C	0.872345	-0.510654	-0.354585
C53	C	1.205678	-0.177321	-0.021252
C54	C	1.539012	0.156012	0.312082
C55	C	0.790546	-0.510672	-0.354594
C56	C	1.123880	-0.177339	-0.021260
C57	C	1.457213	0.155994	0.312073
C58	C	0.602364	-0.578563	-0.401597
C59	C	0.935698	-0.245230	-0.068264
C60	C	1.269031	0.088103	0.265069
C61	C	0.525506	-0.578567	-0.401606
C62	C	0.858839	-0.245233	-0.068273
C63	C	1.192172	0.088100	0.265060
C64	C	0.525490	-0.442801	-0.307631
C65	C	0.858824	-0.109468	0.025702
C66	C	1.192157	0.223866	0.359035
C67	C	0.602348	-0.442793	-0.307626
C68	C	0.935681	-0.109460	0.025707
C69	C	1.269014	0.223873	0.359040
C70	C	0.640783	-0.510680	-0.354608
C71	C	0.974116	-0.177347	-0.021275
C72	C	1.307449	0.155986	0.312058
C73	C	0.487067	-0.510692	-0.354622
C74	C	0.820400	-0.177358	-0.021289
C75	C	1.153733	0.155975	0.312044
C76	C	0.403733	-0.510695	-0.354632
C77	C	0.737066	-0.177361	-0.021299
C78	C	1.070400	0.155972	0.312035
C79	C	0.724122	-0.510676	-0.354600
C80	C	1.057455	-0.177343	-0.021267
C81	C	1.390788	0.155991	0.312067
C82	C	1.063498	-0.786102	-0.354596
C83	C	1.396831	-0.452769	-0.021263
C84	C	1.730164	-0.119436	0.312071
C85	C	1.063542	-0.903932	-0.354616
C86	C	1.396875	-0.570599	-0.021283
C87	C	1.730209	-0.237266	0.312051
C88	C	1.006922	-1.071513	-0.411653
C89	C	1.340255	-0.738180	-0.078320
C90	C	1.673588	-0.404847	0.255013
C91	C	1.006632	-0.948954	-0.411470
C92	C	1.339965	-0.615620	-0.078137
C93	C	1.673299	-0.282287	0.255197
C94	C	1.042549	-0.948523	-0.277058
C95	C	1.375882	-0.615190	0.056276
C96	C	1.709216	-0.281856	0.389609
C97	C	1.042203	-1.071122	-0.277404
C98	C	1.375537	-0.737788	0.055930
C99	C	1.708870	-0.404455	0.389263
C100	C	1.141502	-1.071022	-0.374509
C101	C	1.474835	-0.737688	-0.041175
C102	C	1.808168	-0.404355	0.292158
C103	C	1.141024	-0.948415	-0.376205
C104	C	1.474357	-0.615082	-0.042871
C105	C	1.807691	-0.281748	0.290462
C106	C	1.255504	-0.510692	-0.354628
C107	C	1.588838	-0.177358	-0.021295
C108	C	1.922171	0.155975	0.312039
C109	C	1.337303	-0.510700	-0.354637
C110	C	1.670636	-0.177366	-0.021304
C111	C	2.003970	0.155967	0.312030
C112	C	1.063596	-0.510600	-0.546559
C113	C	1.396929	-0.177266	-0.213226
C114	C	1.730263	0.156067	0.120107
C115	C	1.063615	-0.510568	-0.628358
C116	C	1.396949	-0.177235	-0.295025
C117	C	1.730282	0.156098	0.038308
C118	C	1.063625	-0.234167	-0.354633
C119	C	1.396959	0.099166	-0.021299
C120	C	1.730292	0.432499	0.312034
C121	C	1.063657	-0.116337	-0.354644
C122	C	1.396990	0.216996	-0.021311
C123	C	1.730323	0.550329	0.312023
C124	C	1.110720	-0.442707	-0.816565
C125	C	1.444053	-0.109374	-0.483232
C126	C	1.777386	0.223960	-0.149899
C127	C	1.110728	-0.442676	-0.893424
C128	C	1.444062	-0.109343	-0.560091
C129	C	1.777395	0.223990	-0.226757
C130	C	1.016563	-0.578266	-0.893389
C131	C	1.349896	-0.244932	-0.560056
C132	C	1.683230	0.088401	-0.226722
C133	C	1.016551	-0.578290	-0.816532
C134	C	1.349884	-0.244957	-0.483198
C135	C	1.683218	0.088376	-0.149865
C136	C	1.063634	-0.510513	-0.778122
C137	C	1.396967	-0.177179	-0.444788
C138	C	1.730300	0.156154	-0.111455
C139	C	1.063654	-0.510457	-0.931838
C140	C	1.396988	-0.177124	-0.598505
C141	C	1.730321	0.156210	-0.265171
C142	C	1.063663	-0.510424	-1.015172
C143	C	1.396997	-0.177091	-0.681838
C144	C	1.730330	0.156243	-0.348505
C145	C	1.063624	-0.510544	-0.694783
C146	C	1.396957	-0.177211	-0.361449
C147	C	1.730290	0.156123	-0.028116
C148	C	1.063549	-0.510669	-0.163400
C149	C	1.396882	-0.177336	0.169933
C150	C	1.730216	0.155998	0.503267
C151	C	1.063672	-0.510401	-0.081602
C152	C	1.397006	-0.177068	0.251732
C153	C	1.730339	0.156265	0.585065
H154	H	0.633629	-0.387508	-0.269362
H155	H	0.966962	-0.054175	0.063971
H156	H	1.300295	0.279159	0.397304
N157	N	1.024023	-0.909004	-0.487646
N158	N	1.357357	-0.575670	-0.154312
N159	N	1.690690	-0.242337	0.179021
H160	H	1.031948	-0.971034	-0.521647
H161	H	1.365281	-0.637700	-0.188313
H162	H	1.698614	-0.304367	0.145020
H163	H	0.981749	-0.864796	-0.506201
H164	H	1.315082	-0.531463	-0.172868
H165	H	1.648416	-0.198129	0.160466
N166	N	0.965767	-0.651436	-0.775064
N167	N	1.299101	-0.318103	-0.441730
N168	N	1.632434	0.015230	-0.108397
H169	H	0.972904	-0.641163	-0.720547
H170	H	1.306237	-0.307830	-0.387214
H171	H	1.639570	0.025503	-0.053880
H172	H	0.913213	-0.634932	-0.788489
H173	H	1.246547	-0.301598	-0.455155
H174	H	1.579880	0.031735	-0.121822
N175	N	0.484035	-0.369611	-0.256941
N176	N	0.817369	-0.036277	0.076393
N177	N	1.150702	0.297056	0.409726
H178	H	0.429516	-0.379926	-0.264065
H179	H	0.762850	-0.046592	0.069268
H180	H	1.096183	0.286741	0.402601
H181	H	0.497457	-0.386042	-0.204369
H182	H	0.830790	-0.052708	0.128965
H183	H	1.164124	0.280625	0.462298
N184	N	1.161503	-0.369611	-0.775138
N185	N	1.494836	-0.036277	-0.441805
N186	N	1.828169	0.297056	-0.108472
H187	H	1.154357	-0.379920	-0.720615
H188	H	1.487690	-0.046586	-0.387282
H189	H	1.821024	0.286747	-0.053949
H190	H	1.214056	-0.386123	-0.788589
H191	H	1.547389	-0.052790	-0.455255
H192	H	1.880722	0.280543	-0.121922
H193	H	1.183771	-1.100007	-0.332986
H194	H	1.517104	-0.766674	0.000347
H195	H	1.850437	-0.433341	0.333680
H196	H	0.633656	-0.633839	-0.439855
H197	H	0.966989	-0.300506	-0.106521
H198	H	1.300323	0.032828	0.226812
N199	N	1.161999	-0.909782	-0.451805
N200	N	1.495332	-0.576449	-0.118472
N201	N	1.828665	-0.243116	0.214862
H202	H	1.208916	-0.867437	-0.448692
H203	H	1.542249	-0.534103	-0.115358
H204	H	1.875583	-0.200770	0.217975
H205	H	1.169606	-0.972407	-0.485347
H206	H	1.502940	-0.639074	-0.152013
H207	H	1.836273	-0.305740	0.181320
H208	H	0.494229	-0.633842	-0.439871
H209	H	0.827562	-0.300509	-0.106537
H210	H	1.160895	0.032824	0.226796
H211	H	1.185520	-0.917762	-0.337706
H212	H	1.518853	-0.584429	-0.004372
H213	H	1.852187	-0.251096	0.328961
N214	N	0.966828	-1.109142	-0.255122
N215	N	1.300162	-0.775809	0.078211
N216	N	1.633495	-0.442475	0.411544
H217	H	0.970815	-1.153667	-0.209253
H218	H	1.304148	-0.820334	0.124081
H219	H	1.637481	-0.487001	0.457414
H220	H	0.934177	-1.046209	-0.245206
H221	H	1.267510	-0.712875	0.088127
H222	H	1.600844	-0.379542	0.421461
H223	H	1.019935	-1.100928	-0.469351
H224	H	1.353268	-0.767594	-0.136018
H225	H	1.686602	-0.434261	0.197316
N226	N	0.930952	-1.112436	-0.394450
N227	N	1.264285	-0.779103	-0.061116
N228	N	1.597619	-0.445769	0.272217
H229	H	0.933128	-1.159884	-0.349888
H230	H	1.266461	-0.826551	-0.016554
H231	H	1.599794	-0.493218	0.316779
H232	H	0.897156	-1.050874	-0.384226
H233	H	1.230490	-0.717540	-0.050892
H234	H	1.563823	-0.384207	0.282441
H235	H	0.948921	-0.919719	-0.398309
H236	H	1.282255	-0.586386	-0.064976
H237	H	1.615588	-0.253052	0.268357
H238	H	1.081734	-1.100776	-0.233479
H239	H	1.415067	-0.767443	0.099854
H240	H	1.748401	-0.434110	0.433188
H241	H	1.082562	-0.919362	-0.233421
H242	H	1.415896	-0.586029	0.099913
H243	H	1.749229	-0.252696	0.433246
N244	N	0.967958	-0.907977	-0.254364
N245	N	1.301291	-0.574644	0.078969
N246	N	1.634625	-0.241310	0.412302
H247	H	0.929989	-0.931480	-0.291316
H248	H	1.263322	-0.598147	0.042017
H249	H	1.596656	-0.264813	0.375350
H250	H	0.955003	-0.937117	-0.204379
H251	H	1.288336	-0.603784	0.128955
H252	H	1.621669	-0.270450	0.462288
H253	H	1.160652	-1.101868	-0.430103
H254	H	1.493985	-0.768535	-0.096770
H255	H	1.827319	-0.435201	0.236564
N256	N	1.161505	-0.369531	-0.934889
N257	N	1.494839	-0.036198	-0.601556
N258	N	1.828172	0.297135	-0.268222
H259	H	1.191325	-0.326598	-0.898891
H260	H	1.524658	0.006735	-0.565558
H261	H	1.857992	0.340069	-0.232225
H262	H	1.195558	-0.412664	-0.966785
H263	H	1.528891	-0.079330	-0.633451
H264	H	1.862225	0.254003	-0.300118
N265	N	0.965795	-0.651379	-0.934820
N266	N	1.299128	-0.318046	-0.601486
N267	N	1.632462	0.015287	-0.268153
H268	H	0.935964	-0.694337	-0.898801
H269	H	1.269297	-0.361004	-0.565468
H270	H	1.602630	-0.027670	-0.232135
H271	H	0.931753	-0.608220	-0.966710
H272	H	1.265086	-0.274887	-0.633377
H273	H	1.598419	0.058447	-0.300043
