data_functionalizedCrystal
_audit_creation_method	'MofGen! by Chris Wilmer'
_symmetry_space_group_name_H-M	'P1'
_symmetry_Int_Tables_number	1
_symmetry_cell_setting	triclinic
loop_
_symmetry_equiv_pos_as_xyz
  x,y,z
_cell_length_a	12.759401
_cell_length_b	12.759400
_cell_length_c	12.759393
_cell_angle_alpha	89.969553
_cell_angle_beta	89.980563
_cell_angle_gamma	90.013177
loop_
_atom_site_label
_atom_site_type_symbol
_atom_site_fract_x
_atom_site_fract_y
_atom_site_fract_z
Zn1	Zn	1.606267	-0.418204	-0.594016
Zn2	Zn	1.606166	-0.593923	-0.418339
Zn3	Zn	1.430569	-0.418259	-0.418352
Zn4	Zn	1.430562	-0.593841	-0.593978
O5	O	1.518391	-0.506057	-0.506171
O6	O	1.753274	-0.441525	-0.570722
O7	O	1.582833	-0.570677	-0.271320
O8	O	1.453920	-0.271230	-0.441676
O9	O	1.753200	-0.570625	-0.441654
O10	O	1.583005	-0.271190	-0.570735
O11	O	1.453822	-0.441618	-0.271330
O12	O	1.283547	-0.441539	-0.441639
O13	O	1.453909	-0.570486	-0.741004
O14	O	1.283542	-0.570539	-0.570670
O15	O	1.582998	-0.441446	-0.741032
O16	O	1.582826	-0.740933	-0.441617
O17	O	1.453811	-0.740873	-0.570658
C18	C	1.245423	-0.506037	-0.506153
C19	C	1.128647	-0.506053	-0.506170
C20	C	0.964085	-0.573343	-0.573269
C21	C	1.073809	-0.573329	-0.573252
C22	C	1.073755	-0.438794	-0.439093
C23	C	0.964033	-0.438814	-0.439105
C24	C	0.909253	-0.640615	-0.640363
C25	C	0.964137	-0.707876	-0.707438
C26	C	1.073861	-0.707863	-0.707421
C27	C	1.128701	-0.640588	-0.640329
C28	C	1.518336	-0.779024	-0.506155
C29	C	1.518408	-0.895801	-0.506183
C30	C	1.585589	-0.950562	-0.573439
C31	C	1.585638	-1.060286	-0.573465
C32	C	1.451322	-1.060478	-0.438969
C33	C	1.451269	-0.950756	-0.438949
C34	C	1.652728	-0.895607	-0.640673
C35	C	1.719915	-0.950369	-0.707933
C36	C	1.719964	-1.060093	-0.707959
C37	C	1.652826	-1.115055	-0.640724
C38	C	1.792424	-0.506078	-0.506191
C39	C	1.909201	-0.506087	-0.506199
C40	C	1.518464	-0.505951	-0.780205
C41	C	1.518496	-0.505906	-0.896982
C42	C	1.518475	-0.232023	-0.506211
C43	C	1.518510	-0.115247	-0.506228
C44	C	1.585722	-0.438708	-0.951860
C45	C	1.585747	-0.438670	-1.061584
C46	C	1.451316	-0.573036	-1.061542
C47	C	1.451287	-0.573068	-0.951820
C48	C	1.663337	-0.361136	-0.951885
C49	C	1.663362	-0.361098	-1.061609
C50	C	1.518378	-0.506086	-0.233204
C51	C	1.518550	-0.505836	-0.116428
H52	H	1.218046	-0.640589	-0.640314
H53	H	1.396541	-0.627783	-0.907142
H54	H	1.652698	-0.806264	-0.640657
H55	H	1.774571	-0.905613	-0.762680
F56	F	1.791458	-1.118371	-0.779553
F57	F	1.764338	-0.399257	-0.907394
H58	H	1.396595	-0.627715	-1.106205
F59	F	1.634881	-0.254790	-0.912984
H60	H	1.396662	-1.105237	-0.384229
H61	H	1.118545	-0.762637	-0.762031
F62	F	1.379770	-0.892471	-0.367365
F63	F	1.625188	-0.260097	-1.106115
H64	H	1.744733	-0.382890	-1.091389
F65	F	0.792475	-0.640632	-0.640390
F66	F	0.905771	-0.779481	-0.778828
H67	H	1.118414	-0.384021	-0.384470
H68	H	1.652859	-1.204400	-0.640762
F69	F	0.905618	-0.367237	-0.367717
