data_functionalizedCrystal
_audit_creation_method	'MofGen! by Chris Wilmer'
_symmetry_space_group_name_H-M	'P1'
_symmetry_Int_Tables_number	1
_symmetry_cell_setting	triclinic
loop_
_symmetry_equiv_pos_as_xyz
  x,y,z
_cell_length_a	14.519731
_cell_length_b	12.996460
_cell_length_c	14.519709
_cell_angle_alpha	90.005823
_cell_angle_beta	83.684499
_cell_angle_gamma	89.993340
loop_
_atom_site_label
_atom_site_type_symbol
_atom_site_fract_x
_atom_site_fract_y
_atom_site_fract_z
O1	O	1.223840	0.085571	0.120987
O2	O	0.955366	0.085573	0.135203
O3	O	1.096721	0.085563	-0.006143
O4	O	1.082485	0.085582	0.262333
O5	O	1.096739	-0.085571	-0.006151
O6	O	0.955384	-0.085561	0.135195
O7	O	1.223858	-0.085563	0.120979
Cu8	Cu	1.089623	-0.101187	0.128086
Cu9	Cu	1.089601	0.101198	0.128095
O10	O	1.082503	-0.085552	0.262324
C11	C	0.921016	0.000006	0.134532
C12	C	0.818635	0.000007	0.132536
C13	C	0.735491	0.000011	0.130915
C14	C	0.631182	0.000011	0.128888
C15	C	0.548043	0.000011	0.127280
C16	C	0.443728	0.000013	0.125253
C17	C	1.096067	-0.000004	-0.040507
C18	C	1.094079	-0.000005	-0.142889
C19	C	1.258209	0.000007	0.121649
C20	C	1.360589	0.000013	0.123645
N21	N	1.089645	-0.243535	0.128079
N22	N	1.089587	0.243545	0.128095
C23	C	1.089590	0.336651	0.128096
C24	C	1.089602	0.453456	0.128095
C25	C	1.089618	0.546555	0.128088
C26	C	1.089629	0.663367	0.128085
C27	C	1.086759	0.000022	-0.517785
C28	C	1.088792	0.000014	-0.413477
C29	C	1.090419	0.000008	-0.330340
C30	C	1.092452	0.000002	-0.226025
C31	C	1.083157	0.000017	0.296688
C32	C	1.085146	0.000024	0.399070
