data_functionalizedCrystal
_audit_creation_method	'MofGen! by Chris Wilmer'
_symmetry_space_group_name_H-M	'P1'
_symmetry_Int_Tables_number	1
_symmetry_cell_setting	triclinic
loop_
_symmetry_equiv_pos_as_xyz
  x,y,z
_cell_length_a	10.654538
_cell_length_b	18.266242
_cell_length_c	10.654550
_cell_angle_alpha	89.994866
_cell_angle_beta	84.482498
_cell_angle_gamma	89.988569
loop_
_atom_site_label
_atom_site_type_symbol
_atom_site_fract_x
_atom_site_fract_y
_atom_site_fract_z
O1	O	-1.667858	0.060920	-0.176330
O2	O	-1.302377	0.060912	-0.193152
O3	O	-1.493521	0.060914	-0.002002
O4	O	-1.476715	0.060919	-0.367481
O5	O	-1.493488	-0.060848	-0.001991
O6	O	-1.302345	-0.060850	-0.193142
O7	O	-1.667825	-0.060842	-0.176320
Zn8	Zn	-1.485080	-0.080178	-0.184729
Zn9	Zn	-1.485123	0.080249	-0.184743
O10	O	-1.476682	-0.060843	-0.367471
C11	C	-1.255563	0.000030	-0.191915
C12	C	-1.116119	0.000028	-0.188229
C13	C	-1.050642	0.066402	-0.186490
C14	C	-0.919621	0.066406	-0.183017
C15	C	-0.919566	-0.066345	-0.183016
C16	C	-1.050584	-0.066349	-0.186498
C17	C	-1.116177	0.132778	-0.188221
C18	C	-1.050700	0.199159	-0.186481
C19	C	-0.919679	0.199162	-0.183007
C20	C	-0.854135	0.132786	-0.181274
N21	N	-1.485059	-0.189665	-0.184719
C22	C	-1.569726	-0.227973	-0.100120
C23	C	-1.569734	-0.304618	-0.100114
C24	C	-1.485087	-0.342952	-0.184730
C25	C	-1.400405	-0.304634	-0.269335
C26	C	-1.400391	-0.227991	-0.269330
N27	N	-1.470069	-0.463283	-0.295721
N28	N	-1.470090	-0.536091	-0.295722
C29	C	-1.485123	-0.573874	-0.184748
N30	N	-1.500158	-0.536099	-0.073770
N31	N	-1.500144	-0.463284	-0.073771
C32	C	-1.485093	-0.426059	-0.184744
C33	C	-1.569803	-0.695290	-0.100136
C34	C	-1.569802	-0.771936	-0.100128
C35	C	-1.400479	-0.771951	-0.269360
C36	C	-1.400474	-0.695306	-0.269357
C37	C	-1.485142	-0.656980	-0.184746
C38	C	-0.714639	0.000038	-0.177565
C39	C	-0.854080	0.000034	-0.181273
C40	C	-1.492270	0.000034	0.044801
C41	C	-1.488578	0.000036	0.184245
N42	N	-1.485153	0.189736	-0.184743
C43	C	-1.477932	0.000039	-0.414274
C44	C	-1.481624	0.000041	-0.553717
C45	C	-1.601121	0.000036	0.263735
C46	C	-1.597644	0.000041	0.394756
C47	C	-1.369073	0.000043	0.366783
C48	C	-1.372551	0.000043	0.235764
C49	C	-1.717148	0.000029	0.212215
C50	C	-1.829699	0.000029	0.291707
C51	C	-1.826223	0.000034	0.422728
C52	C	-1.710195	0.000039	0.474256
H53	H	-1.104073	0.253200	-0.187903
H54	H	-1.638682	-0.335814	-0.031221
N55	N	-1.706458	0.000043	0.615573
H56	H	-1.660739	-0.045095	0.641650
H57	H	-1.660794	0.045209	0.641544
N58	N	-1.661114	-0.653945	-0.008880
H59	H	-1.714747	-0.689847	0.044723
H60	H	-1.612550	-0.622155	0.047087
H61	H	-1.274609	0.000047	0.408749
N62	N	-1.257490	0.132785	-0.191970
H63	H	-1.279536	0.106731	-0.270525
H64	H	-1.298456	0.106736	-0.115037
N65	N	-1.947611	0.000029	0.508463
H66	H	-1.927807	0.000031	0.599282
H67	H	-1.998146	0.045165	0.491662
H68	H	-1.924165	0.000042	0.249743
N69	N	-0.848877	-0.137932	-0.181145
H70	H	-0.755741	-0.127862	-0.180447
H71	H	-0.880058	-0.166471	-0.103125
N72	N	-1.251171	0.000047	0.150017
H73	H	-1.177140	0.000046	0.202534
H74	H	-1.247621	-0.045090	0.095050
H75	H	-1.638665	-0.196770	-0.031222
H76	H	-1.103895	-0.120397	-0.187921
N77	N	-0.849063	0.270756	-0.181130
H78	H	-0.804216	0.273711	-0.101970
H79	H	-0.785260	0.273681	-0.257457
N80	N	-1.720891	0.000028	0.070901
H81	H	-1.766579	-0.045111	0.044838
H82	H	-1.766589	0.045193	0.044923
N83	N	-0.712817	0.132788	-0.177545
H84	H	-0.681278	0.184908	-0.176713
H85	H	-0.690852	0.106694	-0.098990
N86	N	-1.309099	-0.345974	-0.360594
H87	H	-1.321957	-0.400341	-0.347762
H88	H	-1.324370	-0.332567	-0.449825
H89	H	-1.638744	-0.803127	-0.031231
H90	H	-1.331553	-0.803161	-0.338250
N91	N	-1.309064	-0.186667	-0.360575
H92	H	-1.255435	-0.222578	-0.414177
H93	H	-1.357615	-0.154855	-0.416546
N94	N	-1.309153	-0.653982	-0.360603
H95	H	-1.255528	-0.689894	-0.414206
H96	H	-1.357702	-0.622167	-0.416571
