data_functionalizedCrystal
_audit_creation_method	'MofGen! by Chris Wilmer'
_symmetry_space_group_name_H-M	'P1'
_symmetry_Int_Tables_number	1
_symmetry_cell_setting	triclinic
loop_
_symmetry_equiv_pos_as_xyz
  x,y,z
_cell_length_a	18.050591
_cell_length_b	21.295417
_cell_length_c	18.050591
_cell_angle_alpha	90.009154
_cell_angle_beta	90.008268
_cell_angle_gamma	90.026512
loop_
_atom_site_label
_atom_site_type_symbol
_atom_site_fract_x
_atom_site_fract_y
_atom_site_fract_z
Zn1	Zn	1.135188	-0.250826	0.420010
Zn2	Zn	1.385188	-0.000826	0.670010
Zn3	Zn	1.635188	0.249174	0.920010
Zn4	Zn	1.885188	0.499174	1.170010
Zn5	Zn	1.135121	-0.356055	0.295811
Zn6	Zn	1.385121	-0.106055	0.545811
Zn7	Zn	1.635121	0.143945	0.795811
Zn8	Zn	1.885121	0.393945	1.045811
Zn9	Zn	1.011035	-0.250796	0.295821
Zn10	Zn	1.261035	-0.000796	0.545821
Zn11	Zn	1.511035	0.249204	0.795821
Zn12	Zn	1.761035	0.499204	1.045821
Zn13	Zn	1.010950	-0.356054	0.419946
Zn14	Zn	1.260950	-0.106054	0.669946
Zn15	Zn	1.510950	0.143946	0.919946
Zn16	Zn	1.760950	0.393946	1.169946
O17	O	1.073073	-0.303432	0.357897
O18	O	1.323073	-0.053432	0.607897
O19	O	1.573073	0.196568	0.857897
O20	O	1.823073	0.446568	1.107897
O21	O	1.239104	-0.264797	0.403557
O22	O	1.489104	-0.014797	0.653557
O23	O	1.739104	0.235203	0.903557
O24	O	1.989104	0.485203	1.153557
O25	O	1.118668	-0.342080	0.191887
O26	O	1.368668	-0.092080	0.441887
O27	O	1.618668	0.157920	0.691887
O28	O	1.868668	0.407920	0.941887
O29	O	1.027567	-0.162710	0.312326
O30	O	1.277567	0.087290	0.562326
O31	O	1.527567	0.337290	0.812326
O32	O	1.777567	0.587290	1.062326
O33	O	1.239055	-0.342109	0.312308
O34	O	1.489055	-0.092109	0.562308
O35	O	1.739055	0.157891	0.812308
O36	O	1.989055	0.407891	1.062308
O37	O	1.118782	-0.162732	0.403567
O38	O	1.368782	0.087268	0.653567
O39	O	1.618782	0.337268	0.903567
O40	O	1.868782	0.587268	1.153567
O41	O	1.027502	-0.264747	0.191895
O42	O	1.277502	-0.014747	0.441895
O43	O	1.527502	0.235253	0.691895
O44	O	1.777502	0.485253	0.941895
O45	O	0.907099	-0.264746	0.312264
O46	O	1.157099	-0.014746	0.562264
O47	O	1.407099	0.235254	0.812264
O48	O	1.657099	0.485254	1.062264
O49	O	1.027423	-0.342107	0.523879
O50	O	1.277423	-0.092107	0.773879
O51	O	1.527423	0.157893	1.023879
O52	O	1.777423	0.407893	1.273879
O53	O	0.907037	-0.342078	0.403458
O54	O	1.157037	-0.092078	0.653458
O55	O	1.407037	0.157922	0.903458
O56	O	1.657037	0.407922	1.153458
O57	O	1.118700	-0.264796	0.523926
O58	O	1.368700	-0.014796	0.773926
O59	O	1.618700	0.235204	1.023926
O60	O	1.868700	0.485204	1.273926
O61	O	1.118586	-0.444144	0.312246
O62	O	1.368586	-0.194144	0.562246
O63	O	1.618586	0.055856	0.812246
O64	O	1.868586	0.305856	1.062246
O65	O	1.027358	-0.444143	0.403448
O66	O	1.277358	-0.194143	0.653448
O67	O	1.527358	0.055857	0.903448
O68	O	1.777358	0.305857	1.153448
C69	C	0.880121	-0.303409	0.357856
C70	C	1.130121	-0.053409	0.607856
C71	C	1.380121	0.196591	0.857856
C72	C	1.630121	0.446591	1.107856
C73	C	0.797576	-0.303414	0.357856
C74	C	1.047576	-0.053414	0.607856
C75	C	1.297576	0.196586	0.857856
C76	C	1.547576	0.446586	1.107856
C77	C	0.598137	-0.261312	0.308378
C78	C	0.848137	-0.011312	0.558378
C79	C	1.098137	0.238688	0.808378
C80	C	1.348137	0.488688	1.058378
C81	C	0.548719	-0.318722	0.290097
C82	C	0.798719	-0.068722	0.540097
C83	C	1.048719	0.181278	0.790097
C84	C	1.298719	0.431278	1.040097
C85	C	0.646445	-0.303433	0.357889
C86	C	0.896445	-0.053433	0.607889
C87	C	1.146445	0.196567	0.857889
C88	C	1.396445	0.446567	1.107889
C89	C	0.548782	-0.246043	0.376168
C90	C	0.798782	0.003957	0.626168
C91	C	1.048782	0.253957	0.876168
C92	C	1.298782	0.503957	1.126168
C93	C	0.500460	-0.303447	0.357920
C94	C	0.750460	-0.053447	0.607920
C95	C	1.000460	0.196553	0.857920
C96	C	1.250460	0.446553	1.107920
C97	C	0.598114	-0.360873	0.339573
C98	C	0.848114	-0.110873	0.589573
C99	C	1.098114	0.139127	0.839573
C100	C	1.348114	0.389127	1.089573
C101	C	0.598182	-0.288156	0.425675
C102	C	0.848182	-0.038156	0.675675
C103	C	1.098182	0.211844	0.925675
C104	C	1.348182	0.461844	1.175675
C105	C	0.548785	-0.345605	0.407420
C106	C	0.798785	-0.095605	0.657420
C107	C	1.048785	0.154395	0.907420
C108	C	1.298785	0.404395	1.157420
C109	C	0.730543	-0.303425	0.357869
C110	C	0.980543	-0.053425	0.607869
C111	C	1.230543	0.196575	0.857869
C112	C	1.480543	0.446575	1.107869
C113	C	0.416364	-0.303462	0.357940
C114	C	0.666364	-0.053462	0.607940
C115	C	0.916364	0.196538	0.857940
C116	C	1.166364	0.446538	1.107940
C117	C	1.072976	-0.466984	0.357856
C118	C	1.322976	-0.216984	0.607856
C119	C	1.572976	0.033016	0.857856
C120	C	1.822976	0.283016	1.107856
C121	C	1.073002	-0.536952	0.357863
C122	C	1.323002	-0.286952	0.607863
C123	C	1.573002	-0.036952	0.857863
C124	C	1.823002	0.213048	1.107863
C125	C	1.120547	-0.569798	0.310423
C126	C	1.370547	-0.319798	0.560423
C127	C	1.620547	-0.069798	0.810423
C128	C	1.870547	0.180202	1.060423
C129	C	1.120582	-0.635541	0.310439
C130	C	1.370582	-0.385541	0.560439
C131	C	1.620582	-0.135541	0.810439
C132	C	1.870582	0.114459	1.060439
C133	C	1.073059	-0.668435	0.357888
C134	C	1.323059	-0.418435	0.607888
C135	C	1.573059	-0.168435	0.857888
C136	C	1.823059	0.081565	1.107888
C137	C	1.025511	-0.635581	0.405338
C138	C	1.275511	-0.385581	0.655338
C139	C	1.525511	-0.135581	0.905338
C140	C	1.775511	0.114419	1.155338
C141	C	1.025483	-0.569839	0.405325
C142	C	1.275483	-0.319839	0.655325
C143	C	1.525483	-0.069839	0.905325
C144	C	1.775483	0.180161	1.155325
N145	N	1.008090	-0.771698	0.363536
N146	N	1.258090	-0.521698	0.613536
N147	N	1.508090	-0.271698	0.863536
N148	N	1.758090	-0.021698	1.113536
N149	N	1.008119	-0.834150	0.363544
N150	N	1.258119	-0.584150	0.613544
N151	N	1.508119	-0.334150	0.863544
N152	N	1.758119	-0.084150	1.113544
C153	C	1.073142	-0.866509	0.357931
C154	C	1.323142	-0.616509	0.607931
C155	C	1.573142	-0.366509	0.857931
C156	C	1.823142	-0.116509	1.107931
N157	N	1.138136	-0.834058	0.352295
N158	N	1.388136	-0.584058	0.602295
N159	N	1.638136	-0.334058	0.852295
N160	N	1.888136	-0.084058	1.102295
N161	N	1.138106	-0.771601	0.352284
N162	N	1.388106	-0.521601	0.602284
N163	N	1.638106	-0.271601	0.852284
N164	N	1.888106	-0.021601	1.102284
C165	C	1.073084	-0.739720	0.357908
C166	C	1.323084	-0.489720	0.607908
C167	C	1.573084	-0.239720	0.857908
C168	C	1.823084	0.010280	1.107908
C169	C	1.120728	-0.970641	0.310506
C170	C	1.370728	-0.720641	0.560506
C171	C	1.620728	-0.470641	0.810506
C172	C	1.870728	-0.220641	1.060506
C173	C	1.120764	-1.036385	0.310528
C174	C	1.370764	-0.786385	0.560528
C175	C	1.620764	-0.536385	0.810528
C176	C	1.870764	-0.286385	1.060528
C177	C	1.025687	-1.036423	0.405423
C178	C	1.275687	-0.786423	0.655423
C179	C	1.525687	-0.536423	0.905423
C180	C	1.775687	-0.286423	1.155423
C181	C	1.025657	-0.970681	0.405405
C182	C	1.275657	-0.720681	0.655405
C183	C	1.525657	-0.470681	0.905405
C184	C	1.775657	-0.220681	1.155405
C185	C	1.073177	-0.937794	0.357943
C186	C	1.323177	-0.687794	0.607943
C187	C	1.573177	-0.437794	0.857943
C188	C	1.823177	-0.187794	1.107943
C189	C	1.266779	-0.303456	0.357938
C190	C	1.516779	-0.053456	0.607938
C191	C	1.766779	0.196544	0.857938
C192	C	2.016779	0.446544	1.107938
C193	C	1.349325	-0.303467	0.357956
C194	C	1.599325	-0.053467	0.607956
C195	C	1.849325	0.196533	0.857956
C196	C	2.099325	0.446533	1.107956
C197	C	1.073060	-0.303455	0.551602
C198	C	1.323060	-0.053455	0.801602
C199	C	1.573060	0.196545	1.051602
C200	C	1.823060	0.446545	1.301602
C201	C	1.073054	-0.303465	0.634148
C202	C	1.323054	-0.053465	0.884148
C203	C	1.573054	0.196535	1.134148
C204	C	1.823054	0.446535	1.384148
C205	C	1.073191	-0.139242	0.357954
C206	C	1.323191	0.110758	0.607954
C207	C	1.573191	0.360758	0.857954
C208	C	1.823191	0.610758	1.107954
C209	C	1.073242	-0.069274	0.357979
C210	C	1.323242	0.180726	0.607979
C211	C	1.573242	0.430726	0.857979
C212	C	1.823242	0.680726	1.107979
C213	C	1.023411	-0.345501	0.833573
C214	C	1.273411	-0.095501	1.083573
C215	C	1.523411	0.154499	1.333573
C216	C	1.773411	0.404499	1.583573
C217	C	1.091155	-0.360905	0.882970
C218	C	1.341155	-0.110905	1.132970
C219	C	1.591155	0.139095	1.382970
C220	C	1.841155	0.389095	1.632970
C221	C	1.073057	-0.303456	0.785278
C222	C	1.323057	-0.053456	1.035278
C223	C	1.573057	0.196544	1.285278
C224	C	1.823057	0.446544	1.535278
C225	C	1.005318	-0.288072	0.882963
C226	C	1.255318	-0.038072	1.132963
C227	C	1.505318	0.211928	1.382963
C228	C	1.755318	0.461928	1.632963
C229	C	1.073054	-0.303449	0.931263
C230	C	1.323054	-0.053449	1.181263
C231	C	1.573054	0.196551	1.431263
C232	C	1.823054	0.446551	1.681263
C233	C	1.140836	-0.318890	0.833588
C234	C	1.390836	-0.068890	1.083588
C235	C	1.640836	0.181110	1.333588
C236	C	1.890836	0.431110	1.583588
C237	C	1.054954	-0.246031	0.833577
C238	C	1.304954	0.003969	1.083577
C239	C	1.554954	0.253969	1.333577
C240	C	1.804954	0.503969	1.583577
C241	C	1.122744	-0.261413	0.882951
C242	C	1.372744	-0.011413	1.132951
C243	C	1.622744	0.238587	1.382951
C244	C	1.872744	0.488587	1.632951
C245	C	1.073058	-0.303462	0.701180
C246	C	1.323058	-0.053462	0.951180
C247	C	1.573058	0.196538	1.201180
C248	C	1.823058	0.446538	1.451180
C249	C	1.073061	-0.303443	1.015360
C250	C	1.323061	-0.053443	1.265360
C251	C	1.573061	0.196557	1.515360
C252	C	1.823061	0.446557	1.765360
C253	C	1.073074	-0.303430	1.164945
C254	C	1.323074	-0.053430	1.414945
C255	C	1.573074	0.196570	1.664945
C256	C	1.823074	0.446570	1.914945
C257	C	1.073059	-0.303438	1.082399
C258	C	1.323059	-0.053438	1.332399
C259	C	1.573059	0.196562	1.582399
C260	C	1.823059	0.446562	1.832399
H261	H	0.619925	-0.275206	0.482970
H262	H	0.869925	-0.025206	0.732970
H263	H	1.119925	0.224794	0.982970
H264	H	1.369925	0.474794	1.232970
H265	H	0.526993	-0.331654	0.232785
H266	H	0.776993	-0.081654	0.482785
H267	H	1.026993	0.168346	0.732785
H268	H	1.276993	0.418346	0.982785
H269	H	0.986939	-0.943936	0.444032
H270	H	1.236939	-0.693936	0.694032
H271	H	1.486939	-0.443936	0.944032
H272	H	1.736939	-0.193936	1.194032
C273	C	0.627264	-0.426466	0.318609
C274	C	0.877264	-0.176466	0.568609
C275	C	1.127264	0.073534	0.818609
C276	C	1.377264	0.323534	1.068609
N277	N	0.649222	-0.475869	0.302815
N278	N	0.899222	-0.225869	0.552815
N279	N	1.149222	0.024131	0.802815
N280	N	1.399222	0.274131	1.052815
H281	H	1.159242	-0.543023	0.271778
H282	H	1.409242	-0.293023	0.521778
H283	H	1.659242	-0.043023	0.771778
H284	H	1.909242	0.206977	1.021778
C285	C	0.519687	-0.393790	0.463998
C286	C	0.769687	-0.143790	0.713998
C287	C	1.019687	0.106210	0.963998
C288	C	1.269687	0.356210	1.213998
N289	N	0.497768	-0.430084	0.506609
N290	N	0.747768	-0.180084	0.756609
N291	N	0.997768	0.069916	1.006609
N292	N	1.247768	0.319916	1.256609
C293	C	1.173011	-0.934463	0.258309
C294	C	1.423011	-0.684463	0.508309
C295	C	1.673011	-0.434463	0.758309
C296	C	1.923011	-0.184463	1.008309
N297	N	1.212394	-0.907215	0.218995
N298	N	1.462394	-0.657215	0.468995
N299	N	1.712394	-0.407215	0.718995
N300	N	1.962394	-0.157215	0.968995
H301	H	0.986819	-0.662367	0.443972
H302	H	1.236819	-0.412367	0.693972
H303	H	1.486819	-0.162367	0.943972
H304	H	1.736819	0.087633	1.193972
H305	H	0.527073	-0.197510	0.391590
H306	H	0.777073	0.052490	0.641590
H307	H	1.027073	0.302490	0.891590
H308	H	1.277073	0.552490	1.141590
C309	C	1.173069	-1.072515	0.258337
C310	C	1.423069	-0.822515	0.508337
C311	C	1.673069	-0.572515	0.758337
C312	C	1.923069	-0.322515	1.008337
N313	N	1.212465	-1.099729	0.219024
N314	N	1.462465	-0.849729	0.469024
N315	N	1.712465	-0.599729	0.719024
N316	N	1.962465	-0.349729	0.969024
H317	H	1.159301	-0.662289	0.271808
H318	H	1.409301	-0.412289	0.521808
H319	H	1.659301	-0.162289	0.771808
H320	H	1.909301	0.087711	1.021808
H321	H	1.198138	-0.331953	0.811991
H322	H	1.448138	-0.081953	1.061991
H323	H	1.698138	0.168047	1.311991
H324	H	1.948138	0.418047	1.561991
C325	C	0.973187	-0.533707	0.457524
C326	C	1.223187	-0.283707	0.707524
C327	C	1.473187	-0.033707	0.957524
C328	C	1.723187	0.216293	1.207524
N329	N	0.933800	-0.506492	0.496845
N330	N	1.183800	-0.256492	0.746845
N331	N	1.433800	-0.006492	0.996845
N332	N	1.683800	0.243508	1.246845
H333	H	0.981481	-0.381087	0.811893
H334	H	1.231481	-0.131087	1.061893
H335	H	1.481481	0.118913	1.311893
H336	H	1.731481	0.368913	1.561893
H337	H	0.986996	-1.063205	0.444060
H338	H	1.236996	-0.813205	0.694060
H339	H	1.486996	-0.563205	0.944060
H340	H	1.736996	-0.313205	1.194060
C341	C	1.111844	-0.426506	0.912286
C342	C	1.361844	-0.176506	1.162286
C343	C	1.611844	0.073494	1.412286
C344	C	1.861844	0.323494	1.662286
N345	N	1.127422	-0.475919	0.934364
N346	N	1.377422	-0.225919	1.184364
N347	N	1.627422	0.024081	1.434364
N348	N	1.877422	0.274081	1.684364
H349	H	1.164775	-0.225854	0.904495
H350	H	1.414775	0.024146	1.154495
H351	H	1.664775	0.274146	1.404495
H352	H	1.914775	0.524146	1.654495
H353	H	1.039619	-0.197485	0.811864
H354	H	1.289619	0.052515	1.061864
H355	H	1.539619	0.302515	1.311864
H356	H	1.789619	0.552515	1.561864
H357	H	0.948033	-0.275064	0.904652
H358	H	1.198033	-0.025064	1.154652
H359	H	1.448033	0.224936	1.404652
H360	H	1.698033	0.474936	1.654652
C361	C	0.627417	-0.213244	0.251754
C362	C	0.877417	0.036756	0.501754
C363	C	1.127417	0.286756	0.751754
C364	C	1.377417	0.536756	1.001754
N365	N	0.649472	-0.177043	0.209104
N366	N	0.899472	0.072957	0.459104
N367	N	1.149472	0.322957	0.709104
N368	N	1.399472	0.572957	0.959104
