data_functionalizedCrystal
_audit_creation_method	'MofGen! by Chris Wilmer'
_symmetry_space_group_name_H-M	'P1'
_symmetry_Int_Tables_number	1
_symmetry_cell_setting	triclinic
loop_
_symmetry_equiv_pos_as_xyz
  x,y,z
_cell_length_a	25.639239
_cell_length_b	19.121102
_cell_length_c	19.120904
_cell_angle_alpha	89.911827
_cell_angle_beta	92.410104
_cell_angle_gamma	92.407118
loop_
_atom_site_label
_atom_site_type_symbol
_atom_site_fract_x
_atom_site_fract_y
_atom_site_fract_z
Zn1	Zn	-0.255751	-1.054765	-0.442042
Zn2	Zn	0.077582	-0.721431	-0.108709
Zn3	Zn	0.410915	-0.388098	0.224625
Zn4	Zn	-0.339618	-1.059658	-0.324799
Zn5	Zn	-0.006285	-0.726325	0.008534
Zn6	Zn	0.327049	-0.392991	0.341868
Zn7	Zn	-0.248315	-0.942536	-0.319827
Zn8	Zn	0.085018	-0.609203	0.013507
Zn9	Zn	0.418352	-0.275869	0.346840
Zn10	Zn	-0.339266	-0.937469	-0.437001
Zn11	Zn	-0.005933	-0.604136	-0.103668
Zn12	Zn	0.327400	-0.270803	0.229665
O13	O	-0.295738	-0.998607	-0.380917
O14	O	0.037596	-0.665274	-0.047584
O15	O	0.370929	-0.331940	0.285749
O16	O	-0.270136	-1.153518	-0.430680
O17	O	0.063198	-0.820185	-0.097347
O18	O	0.396531	-0.486852	0.235987
O19	O	-0.324541	-1.048290	-0.226035
O20	O	0.008792	-0.714956	0.107299
O21	O	0.342125	-0.381623	0.440632
O22	O	-0.176139	-0.957496	-0.336067
O23	O	0.157194	-0.624163	-0.002734
O24	O	0.490527	-0.290829	0.330599
O25	O	-0.331752	-1.157113	-0.344542
O26	O	0.001581	-0.823780	-0.011209
O27	O	0.334915	-0.490446	0.322125
O28	O	-0.181603	-1.039950	-0.425859
O29	O	0.151730	-0.706617	-0.092525
O30	O	0.485064	-0.373283	0.240808
O31	O	-0.257461	-0.962241	-0.222382
O32	O	0.075872	-0.628907	0.110952
O33	O	0.409205	-0.295574	0.444285
O34	O	-0.257121	-0.843760	-0.331180
O35	O	0.076213	-0.510426	0.002154
O36	O	0.409546	-0.177093	0.335487
O37	O	-0.331153	-0.948861	-0.535775
O38	O	0.002180	-0.615527	-0.202441
O39	O	0.335514	-0.282194	0.130892
O40	O	-0.323942	-0.840037	-0.417267
O41	O	0.009391	-0.506704	-0.083934
O42	O	0.342724	-0.173370	0.249399
O43	O	-0.269795	-1.035037	-0.539478
O44	O	0.063538	-0.701704	-0.206145
O45	O	0.396872	-0.368370	0.127189
O46	O	-0.412733	-1.043377	-0.339654
O47	O	-0.079400	-0.710043	-0.006321
O48	O	0.253933	-0.376710	0.327013
O49	O	-0.412475	-0.953605	-0.422089
O50	O	-0.079142	-0.620272	-0.088755
O51	O	0.254192	-0.286939	0.244578
C52	C	-0.289687	-0.816461	-0.373137
C53	C	0.043647	-0.483128	-0.039804
C54	C	0.376980	-0.149794	0.293529
C55	C	-0.287111	-0.738537	-0.369826
C56	C	0.046222	-0.405204	-0.036492
C57	C	0.379556	-0.071871	0.296841
C58	C	-0.431575	-0.998491	-0.380880
C59	C	-0.098242	-0.665157	-0.047547
C60	C	0.235091	-0.331824	0.285787
C61	C	-0.489690	-0.998504	-0.380890
C62	C	-0.156357	-0.665170	-0.047557
C63	C	0.176977	-0.331837	0.285776
C64	C	-0.301264	-0.990838	-0.563775
C65	C	0.032069	-0.657505	-0.230442
C66	C	0.365402	-0.324171	0.102892
C67	C	-0.303619	-0.987527	-0.641698
C68	C	0.029714	-0.654194	-0.308365
C69	C	0.363047	-0.320861	0.024968
C70	C	-0.850185	-1.045465	-0.338075
C71	C	-0.516852	-0.712131	-0.004742
C72	C	-0.183519	-0.378798	0.328592
C73	C	-0.904791	-1.045491	-0.338085
C74	C	-0.571458	-0.712158	-0.004752
C75	C	-0.238124	-0.378825	0.328581
O76	O	-0.933135	-1.085298	-0.301642
O77	O	-0.599802	-0.751965	0.031692
O78	O	-0.266468	-0.418632	0.365025
N79	N	-0.931982	-0.998728	-0.380969
N80	N	-0.598649	-0.665395	-0.047636
N81	N	-0.265315	-0.332062	0.285698
C82	C	-0.904565	-0.951940	-0.423850
C83	C	-0.571232	-0.618607	-0.090517
C84	C	-0.237899	-0.285273	0.242817
O85	O	-0.932708	-0.912167	-0.460327
O86	O	-0.599375	-0.578834	-0.126994
O87	O	-0.266041	-0.245501	0.206340
C88	C	-0.849961	-0.951917	-0.423843
C89	C	-0.516628	-0.618584	-0.090509
C90	C	-0.183295	-0.285251	0.242824
C91	C	-0.822772	-0.998679	-0.380951
C92	C	-0.489439	-0.665345	-0.047618
C93	C	-0.156106	-0.332012	0.285716
C94	C	-0.822997	-1.092223	-0.295188
C95	C	-0.489663	-0.758889	0.038146
C96	C	-0.156330	-0.425556	0.371479
C97	C	-0.768395	-1.092195	-0.295176
C98	C	-0.435061	-0.758862	0.038157
C99	C	-0.101728	-0.425528	0.371490
C100	C	-0.740982	-1.045409	-0.338052
C101	C	-0.407648	-0.712076	-0.004719
C102	C	-0.074315	-0.378742	0.328614
C103	C	-0.768171	-0.998651	-0.380940
C104	C	-0.434837	-0.665318	-0.047606
C105	C	-0.101504	-0.331984	0.285727
C106	C	-0.822546	-0.905133	-0.466727
C107	C	-0.489212	-0.571800	-0.133393
C108	C	-0.155879	-0.238466	0.199940
C109	C	-0.767938	-0.905115	-0.466716
C110	C	-0.434604	-0.571781	-0.133383
C111	C	-0.101271	-0.238448	0.199951
C112	C	-0.740749	-0.951876	-0.423825
C113	C	-0.407416	-0.618543	-0.090491
C114	C	-0.074082	-0.285209	0.242842
C115	C	-0.686156	-0.951837	-0.423805
C116	C	-0.352823	-0.618504	-0.090471
C117	C	-0.019489	-0.285170	0.242862
N118	N	-0.658965	-0.998600	-0.380921
N119	N	-0.325631	-0.665267	-0.047588
N120	N	0.007702	-0.331933	0.285746
C121	C	-0.686378	-1.045386	-0.338045
C122	C	-0.353044	-0.712053	-0.004712
C123	C	-0.019711	-0.378719	0.328622
C124	C	-1.019238	-0.951992	-0.423863
C125	C	-0.685905	-0.618659	-0.090530
C126	C	-0.352572	-0.285326	0.242804
C127	C	-1.073841	-0.952011	-0.423867
C128	C	-0.740508	-0.618678	-0.090534
C129	C	-0.407175	-0.285345	0.242800
C130	C	-1.074063	-1.045564	-0.338103
C131	C	-0.740730	-0.712230	-0.004770
C132	C	-0.407396	-0.378897	0.328563
C133	C	-1.019459	-1.045541	-0.338096
C134	C	-0.686125	-0.712208	-0.004763
C135	C	-0.352792	-0.378874	0.328571
C136	C	-0.992047	-0.998756	-0.380980
C137	C	-0.658714	-0.665422	-0.047646
C138	C	-0.325380	-0.332089	0.285687
C139	C	-0.571710	-1.045324	-0.338024
C140	C	-0.238376	-0.711990	-0.004691
C141	C	0.094957	-0.378657	0.328643
C142	C	-0.517103	-1.045290	-0.338014
C143	C	-0.183770	-0.711956	-0.004681
C144	C	0.149564	-0.378623	0.328652
C145	C	-0.516886	-0.951740	-0.423780
C146	C	-0.183553	-0.618407	-0.090447
C147	C	0.149780	-0.285074	0.242886
C148	C	-0.571488	-0.951771	-0.423788
C149	C	-0.238155	-0.618438	-0.090454
C150	C	0.095178	-0.285105	0.242879
C151	C	-0.598899	-0.998569	-0.380907
C152	C	-0.265565	-0.665236	-0.047574
C153	C	0.067768	-0.331902	0.285759
O154	O	-0.657777	-0.912052	-0.460232
O155	O	-0.324444	-0.578719	-0.126898
O156	O	0.008889	-0.245386	0.206435
O157	O	-0.658229	-1.085159	-0.301581
O158	O	-0.324895	-0.751825	0.031753
O159	O	0.008438	-0.418492	0.365086
C160	C	-0.159371	-0.998742	-0.380971
C161	C	0.173963	-0.665409	-0.047637
C162	C	0.507296	-0.332076	0.285696
C163	C	-0.101259	-0.998800	-0.380993
C164	C	0.232074	-0.665467	-0.047660
C165	C	0.565408	-0.332134	0.285673
C166	C	-0.301813	-1.181464	-0.388728
C167	C	0.031521	-0.848131	-0.055395
C168	C	0.364854	-0.514798	0.277939
C169	C	-0.304401	-1.259387	-0.392057
C170	C	0.028932	-0.926054	-0.058723
C171	C	0.362265	-0.592721	0.274610
C172	C	-0.320740	-0.700012	-0.413021
C173	C	0.012593	-0.366679	-0.079687
C174	C	0.345927	-0.033345	0.253646
C175	C	-0.318313	-0.626794	-0.409912
C176	C	0.015020	-0.293461	-0.076579
C177	C	0.348353	0.039872	0.256754
C178	C	-0.282260	-0.592104	-0.363605
C179	C	0.051074	-0.258770	-0.030272
C180	C	0.384407	0.074563	0.303062
C181	C	-0.248627	-0.630634	-0.320408
C182	C	0.084706	-0.297301	0.012925
C183	C	0.418039	0.036032	0.346259
C184	C	-0.251052	-0.703850	-0.323520
C185	C	0.082281	-0.370517	0.009813
C186	C	0.415615	-0.037184	0.343146
C187	C	-0.273194	-0.371134	-0.351972
C188	C	0.060140	-0.037801	-0.018639
C189	C	0.393473	0.295533	0.314695
C190	C	-0.270773	-0.297913	-0.348862
C191	C	0.062561	0.035421	-0.015528
C192	C	0.395894	0.368754	0.317805
C193	C	-0.340458	-0.294078	-0.438367
C194	C	-0.007125	0.039256	-0.105034
C195	C	0.326209	0.372589	0.228300
C196	C	-0.342882	-0.367296	-0.441472
C197	C	-0.009548	-0.033962	-0.108139
C198	C	0.323785	0.299371	0.225195
C199	C	-0.309247	-0.405820	-0.398278
C200	C	0.024086	-0.072486	-0.064945
C201	C	0.357419	0.260847	0.268389
C202	C	-0.279779	-0.517264	-0.360425
C203	C	0.053554	-0.183930	-0.027092
C204	C	0.386887	0.149403	0.306242
C205	C	-0.311726	-0.480658	-0.401462
C206	C	0.021608	-0.147325	-0.068129
C207	C	0.354941	0.186008	0.265205
C208	C	-0.272781	-1.030837	-0.680236
C209	C	0.060552	-0.697504	-0.346903
C210	C	0.393885	-0.364170	-0.013569
C211	C	-0.274992	-1.027718	-0.753453
C212	C	0.058341	-0.694384	-0.420119
C213	C	0.391675	-0.361051	-0.086786
C214	C	-0.308044	-0.981292	-0.788130
C215	C	0.025289	-0.647958	-0.454797
C216	C	0.358623	-0.314625	-0.121464
C217	C	-0.338883	-0.937977	-0.749587
C218	C	-0.005550	-0.604644	-0.416254
C219	C	0.327784	-0.271310	-0.082921
C220	C	-0.336669	-0.941093	-0.676372
C221	C	-0.003336	-0.607760	-0.343039
C222	C	0.329997	-0.274427	-0.009705
C223	C	-0.316324	-0.969635	-1.009097
C224	C	0.017010	-0.636301	-0.675764
C225	C	0.350343	-0.302968	-0.342430
C226	C	-0.318536	-0.966523	-1.082318
C227	C	0.014797	-0.633190	-0.748985
C228	C	0.348131	-0.299856	-0.415651
C229	C	-0.254644	-1.056263	-1.086178
C230	C	0.078689	-0.722930	-0.752845
C231	C	0.412022	-0.389596	-0.419511
C232	C	-0.252436	-1.059378	-1.012961
C233	C	0.080898	-0.726045	-0.679628
C234	C	0.414231	-0.392712	-0.346294
C235	C	-0.283273	-1.016061	-0.974424
C236	C	0.050061	-0.682728	-0.641091
C237	C	0.383394	-0.349395	-0.307758
C238	C	-0.310306	-0.978104	-0.862970
C239	C	0.023028	-0.644770	-0.529636
C240	C	0.356361	-0.311437	-0.196303
C241	C	-0.281008	-1.019246	-0.899586
C242	C	0.052325	-0.685913	-0.566253
C243	C	0.385659	-0.352579	-0.232920
C244	C	-0.290196	-1.006386	-0.198772
C245	C	0.043137	-0.673053	0.134561
C246	C	0.376471	-0.339720	0.467894
C247	C	-0.287698	-1.009833	-0.120856
C248	C	0.045635	-0.676500	0.212478
C249	C	0.378969	-0.343166	0.545811
H250	H	-0.594021	-1.083432	-0.303108
H251	H	-0.260688	-0.750099	0.030225
H252	H	0.072646	-0.416766	0.363558
O253	O	-0.487316	-0.901278	-0.470025
O254	O	-0.153983	-0.567945	-0.136692
O255	O	0.179350	-0.234611	0.196641
H256	H	-0.464527	-0.931105	-0.507053
H257	H	-0.131194	-0.597772	-0.173720
H258	H	0.202139	-0.264438	0.159613
H259	H	-0.367840	-0.262704	-0.473534
H260	H	-0.034507	0.070630	-0.140201
H261	H	0.298826	0.403963	0.193133
H262	H	-0.345452	-0.928715	-1.110550
H263	H	-0.012119	-0.595382	-0.777217
H264	H	0.321215	-0.262049	-0.443884
H265	H	-0.746261	-1.130274	-0.260252
H266	H	-0.412928	-0.796941	0.073081
H267	H	-0.079594	-0.463607	0.406414
O268	O	-0.214781	-0.745408	-0.276933
O269	O	0.118552	-0.412075	0.056401
O270	O	0.451885	-0.078742	0.389734
H271	H	-0.238166	-0.780262	-0.242630
H272	H	0.095167	-0.446929	0.090703
H273	H	0.428501	-0.113595	0.424036
O274	O	-0.852559	-1.142684	-0.248934
O275	O	-0.519226	-0.809351	0.084399
O276	O	-0.185893	-0.476018	0.417733
H277	H	-0.824471	-1.175185	-0.219111
H278	H	-0.491137	-0.841852	0.114222
H279	H	-0.157804	-0.508518	0.447555
H280	H	-0.372241	-0.395536	-0.479179
H281	H	-0.038908	-0.062202	-0.145846
H282	H	0.294425	0.271131	0.187488
H283	H	-0.249882	-1.062987	-0.784827
H284	H	0.083452	-0.729653	-0.451494
H285	H	0.416785	-0.396320	-0.118160
H286	H	-0.996922	-0.913888	-0.458781
H287	H	-0.663589	-0.580555	-0.125448
H288	H	-0.330255	-0.247222	0.207885
H289	H	-0.997325	-1.083618	-0.303171
H290	H	-0.663991	-0.750285	0.030163
H291	H	-0.330658	-0.416952	0.363496
O292	O	-0.349554	-0.922881	-0.967534
O293	O	-0.016221	-0.589548	-0.634201
O294	O	0.317113	-0.256214	-0.300868
H295	H	-0.372901	-0.890067	-1.003950
H296	H	-0.039567	-0.556734	-0.670617
H297	H	0.293766	-0.223401	-0.337284
H298	H	-0.593627	-0.913696	-0.458716
H299	H	-0.260293	-0.580363	-0.125382
H300	H	0.073040	-0.247030	0.207951
H301	H	-0.361775	-0.905819	-0.644995
H302	H	-0.028442	-0.572486	-0.311662
H303	H	0.304891	-0.239152	0.021672
O304	O	-1.103163	-0.901565	-0.470117
O305	O	-0.769830	-0.568232	-0.136783
O306	O	-0.436497	-0.234898	0.196550
H307	H	-1.130129	-0.931403	-0.507154
H308	H	-0.796796	-0.598070	-0.173821
H309	H	-0.463462	-0.264737	0.159513
H310	H	-0.345698	-0.595430	-0.445086
H311	H	-0.012365	-0.262097	-0.111752
H312	H	0.320969	0.071237	0.221581
H313	H	-0.844673	-0.867052	-0.501650
H314	H	-0.511340	-0.533718	-0.168317
H315	H	-0.178007	-0.200385	0.165016
O316	O	-0.231881	-0.260491	-0.298919
O317	O	0.101452	0.072842	0.034414
O318	O	0.434785	0.406175	0.367748
H319	H	-0.208896	-0.299579	-0.269411
H320	H	0.124437	0.033754	0.063922
H321	H	0.457770	0.367088	0.397256
H322	H	-0.245810	-0.402492	-0.316795
H323	H	0.087523	-0.069158	0.016538
H324	H	0.420857	0.264175	0.349872
O325	O	-0.209752	-0.593224	-0.270443
O326	O	0.123581	-0.259891	0.062891
O327	O	0.456914	0.073443	0.396224
H328	H	-0.213723	-0.535840	-0.275522
H329	H	0.119610	-0.202507	0.057811
H330	H	0.452943	0.130827	0.391144
O331	O	-0.359624	-0.737428	-0.462969
O332	O	-0.026291	-0.404094	-0.129636
O333	O	0.307042	-0.070761	0.203697
H334	H	-0.382596	-0.698335	-0.492489
H335	H	-0.049263	-0.365001	-0.159155
H336	H	0.284070	-0.031668	0.174178
H337	H	-1.096393	-1.083662	-0.303194
H338	H	-0.763059	-0.750329	0.030139
H339	H	-0.429726	-0.416995	0.363473
O340	O	-0.216790	-1.109455	-0.975558
O341	O	0.116544	-0.776121	-0.642225
O342	O	0.449877	-0.442788	-0.308891
H343	H	-0.195715	-1.139046	-1.014657
H344	H	0.137618	-0.805713	-0.681323
H345	H	0.470952	-0.472379	-0.347990
O346	O	-0.374530	-0.887897	-0.786984
O347	O	-0.041197	-0.554564	-0.453651
O348	O	0.292137	-0.221230	-0.120318
H349	H	-0.370892	-0.893009	-0.844371
H350	H	-0.037559	-0.559676	-0.511037
H351	H	0.295775	-0.226342	-0.177704
H352	H	-0.254095	-1.057043	-0.871348
H353	H	0.079238	-0.723710	-0.538015
H354	H	0.412571	-0.390376	-0.204682
O355	O	-0.240913	-0.479835	-0.310462
O356	O	0.092421	-0.146502	0.022871
O357	O	0.425754	0.186832	0.356205
H358	H	-0.214197	-0.445157	-0.340476
H359	H	0.119137	-0.111823	-0.007143
H360	H	0.452470	0.221510	0.326190
H361	H	-0.337219	-0.940307	-0.891213
H362	H	-0.003886	-0.606973	-0.557879
H363	H	0.329448	-0.273640	-0.224546
H364	H	-0.341078	-0.508906	-0.439168
H365	H	-0.007745	-0.175573	-0.105835
H366	H	0.325589	0.157760	0.227499
H367	H	-0.229538	-1.091528	-1.117562
H368	H	0.103796	-0.758195	-0.784229
H369	H	0.437129	-0.424862	-0.450896
O370	O	-0.237135	-1.080914	-0.642833
O371	O	0.096198	-0.747581	-0.309500
O372	O	0.429531	-0.414247	0.023833
H373	H	-0.196127	-1.068330	-0.656382
H374	H	0.137207	-0.734997	-0.323049
H375	H	0.470540	-0.401663	0.010285
O376	O	-0.487777	-1.095734	-0.291760
O377	O	-0.154444	-0.762401	0.041574
O378	O	0.178890	-0.429068	0.374907
H379	H	-0.496225	-1.086108	-0.236217
H380	H	-0.162891	-0.752775	0.097116
H381	H	0.170442	-0.419441	0.430449
O382	O	-0.738370	-0.854644	-0.512961
O383	O	-0.405037	-0.521311	-0.179627
O384	O	-0.071704	-0.187977	0.153706
H385	H	-0.766454	-0.822130	-0.542777
H386	H	-0.433120	-0.488797	-0.209444
H387	H	-0.099787	-0.155463	0.123890
