data_functionalizedCrystal
_audit_creation_method	'MofGen! by Chris Wilmer'
_symmetry_space_group_name_H-M	'P1'
_symmetry_Int_Tables_number	1
_symmetry_cell_setting	triclinic
loop_
_symmetry_equiv_pos_as_xyz
  x,y,z
_cell_length_a	19.805407
_cell_length_b	12.645330
_cell_length_c	19.805399
_cell_angle_alpha	89.978279
_cell_angle_beta	89.980427
_cell_angle_gamma	90.017692
loop_
_atom_site_label
_atom_site_type_symbol
_atom_site_fract_x
_atom_site_fract_y
_atom_site_fract_z
Zn1	Zn	1.034777	-0.422064	-0.382747
Zn2	Zn	1.034709	-0.599342	-0.269571
Zn3	Zn	0.921591	-0.422093	-0.269572
Zn4	Zn	0.921572	-0.599286	-0.382717
O5	O	0.978162	-0.510696	-0.326152
O6	O	1.129484	-0.445592	-0.367746
O7	O	1.019683	-0.575865	-0.174854
O8	O	0.936642	-0.273742	-0.284598
O9	O	1.129434	-0.575837	-0.284596
O10	O	1.019799	-0.273721	-0.367747
O11	O	0.936576	-0.445641	-0.174855
O12	O	0.826872	-0.445587	-0.284569
O13	O	0.936609	-0.575741	-0.477438
O14	O	0.826858	-0.575769	-0.367696
O15	O	1.019780	-0.445537	-0.477460
O16	O	1.019664	-0.747682	-0.284567
O17	O	0.936543	-0.747641	-0.367695
C18	C	0.802306	-0.510676	-0.326130
C19	C	0.727074	-0.510693	-0.326137
C20	C	0.691740	-0.578581	-0.369351
C21	C	0.621052	-0.578583	-0.369361
C22	C	0.585699	-0.510701	-0.326152
C23	C	0.621037	-0.442805	-0.282935
C24	C	0.691725	-0.442799	-0.282930
C25	C	0.335964	-0.442829	-0.282958
C26	C	0.265272	-0.442843	-0.282965
C27	C	0.265292	-0.578613	-0.369388
C28	C	0.335979	-0.578606	-0.369383
C29	C	0.371311	-0.510707	-0.326169
C30	C	0.447960	-0.510705	-0.326160
C31	C	0.509051	-0.510708	-0.326157
C32	C	0.978113	-0.786126	-0.326142
C33	C	0.978154	-0.903956	-0.326161
C34	C	0.926078	-1.071538	-0.378618
C35	C	0.925811	-0.948979	-0.378450
C36	C	0.958847	-0.948544	-0.254828
C37	C	0.958530	-1.071142	-0.255147
C38	C	1.049854	-1.071047	-0.344457
C39	C	1.049415	-0.948440	-0.346017
C40	C	1.154705	-0.510717	-0.326174
C41	C	1.229937	-0.510726	-0.326184
C42	C	0.978200	-0.510629	-0.502695
C43	C	0.978216	-0.510601	-0.577927
C44	C	0.978230	-0.234191	-0.326176
C45	C	0.978259	-0.116361	-0.326186
C46	C	1.021524	-0.442800	-0.613283
C47	C	1.021531	-0.442770	-0.683972
C48	C	0.978233	-0.510546	-0.719302
C49	C	0.934920	-0.578349	-0.683941
C50	C	0.934910	-0.578374	-0.613253
C51	C	0.934958	-0.578250	-0.969014
C52	C	0.934973	-0.578223	-1.039706
C53	C	1.021579	-0.442646	-1.039732
C54	C	1.021570	-0.442671	-0.969045
C55	C	0.978255	-0.510470	-0.933690
C56	C	0.978247	-0.510501	-0.857041
C57	C	0.978244	-0.510521	-0.795949
C58	C	0.978163	-0.510686	-0.150296
C59	C	0.978278	-0.510416	-0.075064
H60	H	0.720492	-0.387512	-0.247744
H61	H	0.899664	-0.633530	-0.712712
O62	O	0.855508	-0.910233	-0.362413
H63	H	0.856849	-0.861721	-0.315739
O64	O	0.729874	-0.651784	-0.415961
H65	H	0.716291	-0.734966	-0.404275
H66	H	0.899712	-0.633416	-1.068470
O67	O	1.068710	-0.909815	-0.415549
H68	H	1.030715	-0.937435	-0.452766
O69	O	1.103626	-0.907886	-0.299099
H70	H	1.080522	-0.855157	-0.260724
H71	H	0.899638	-0.633574	-0.584467
H72	H	0.592247	-0.387530	-0.247757
O73	O	1.068286	-0.369508	-1.077877
H74	H	1.121404	-0.387705	-1.064330
H75	H	0.906193	-1.099832	-0.239669
H76	H	1.056830	-0.387484	-0.940283
H77	H	0.592286	-0.633865	-0.404549
O78	O	0.888208	-0.651319	-0.930884
H79	H	0.858095	-0.698428	-0.967329
O80	O	0.890244	-0.908005	-0.233949
H81	H	0.851920	-0.933898	-0.271334
O82	O	1.101390	-1.109675	-0.293987
H83	H	1.076174	-1.160869	-0.256058
H84	H	1.067466	-1.101895	-0.395589
O85	O	1.068231	-0.369701	-0.575183
H86	H	1.060956	-0.381115	-0.520089
H87	H	0.364760	-0.633886	-0.404566
O88	O	0.227184	-0.651839	-0.416009
H89	H	0.172091	-0.640434	-0.408763
H90	H	1.056799	-0.387562	-0.712756
O91	O	0.227136	-0.369615	-0.236366
H92	H	0.263580	-0.322390	-0.206321
H93	H	0.873332	-1.102438	-0.366668
H94	H	0.937890	-0.918829	-0.431342
O95	O	0.374070	-0.369632	-0.236330
H96	H	0.337608	-0.322452	-0.206275
O97	O	0.941679	-1.111012	-0.448851
H98	H	0.986823	-1.162933	-0.447150
H99	H	0.994887	-1.100796	-0.214749
O100	O	1.007590	-0.909925	-0.201660
H101	H	1.006293	-0.822227	-0.199720
