data_functionalizedCrystal
_audit_creation_method	'MofGen! by Chris Wilmer'
_symmetry_space_group_name_H-M	'P1'
_symmetry_Int_Tables_number	1
_symmetry_cell_setting	triclinic
loop_
_symmetry_equiv_pos_as_xyz
  x,y,z
_cell_length_a	21.295419
_cell_length_b	21.295417
_cell_length_c	16.625539
_cell_angle_alpha	89.966627
_cell_angle_beta	89.979418
_cell_angle_gamma	90.045308
loop_
_atom_site_label
_atom_site_type_symbol
_atom_site_fract_x
_atom_site_fract_y
_atom_site_fract_z
Zn1	Zn	0.962331	-0.250359	-0.455881
Zn2	Zn	1.212331	-0.000359	-0.205881
Zn3	Zn	1.462331	0.249641	0.044119
Zn4	Zn	1.712331	0.499641	0.294119
Zn5	Zn	0.962241	-0.355633	-0.321037
Zn6	Zn	1.212241	-0.105633	-0.071037
Zn7	Zn	1.462241	0.144367	0.178963
Zn8	Zn	1.712241	0.394367	0.428963
Zn9	Zn	0.857061	-0.250409	-0.321062
Zn10	Zn	1.107061	-0.000409	-0.071062
Zn11	Zn	1.357061	0.249591	0.178938
Zn12	Zn	1.607061	0.499591	0.428938
Zn13	Zn	0.857024	-0.355622	-0.455827
Zn14	Zn	1.107024	-0.105622	-0.205827
Zn15	Zn	1.357024	0.144378	0.044173
Zn16	Zn	1.607024	0.394378	0.294173
O17	O	0.909664	-0.303006	-0.388452
O18	O	1.159664	-0.053006	-0.138452
O19	O	1.409664	0.196994	0.111548
O20	O	1.659664	0.446994	0.361548
O21	O	1.050408	-0.264308	-0.438006
O22	O	1.300408	-0.014308	-0.188006
O23	O	1.550408	0.235692	0.061994
O24	O	1.800408	0.485692	0.311994
O25	O	0.948266	-0.341700	-0.208208
O26	O	1.198266	-0.091700	0.041792
O27	O	1.448266	0.158300	0.291792
O28	O	1.698266	0.408300	0.541792
O29	O	0.871079	-0.162313	-0.338979
O30	O	1.121079	0.087687	-0.088979
O31	O	1.371079	0.337687	0.161021
O32	O	1.621079	0.587687	0.411021
O33	O	1.050342	-0.341652	-0.338937
O34	O	1.300342	-0.091652	-0.088937
O35	O	1.550342	0.158348	0.161063
O36	O	1.800342	0.408348	0.411063
O37	O	0.948420	-0.162277	-0.438031
O38	O	1.198420	0.087723	-0.188031
O39	O	1.448420	0.337723	0.061969
O40	O	1.698420	0.587723	0.311969
O41	O	0.870992	-0.264392	-0.208226
O42	O	1.120992	-0.014392	0.041774
O43	O	1.370992	0.235608	0.291774
O44	O	1.620992	0.485608	0.541774
O45	O	0.768967	-0.264381	-0.338926
O46	O	1.018967	-0.014381	-0.088926
O47	O	1.268967	0.235619	0.161074
O48	O	1.518967	0.485619	0.411074
O49	O	0.871015	-0.341634	-0.568666
O50	O	1.121015	-0.091634	-0.318666
O51	O	1.371015	0.158366	-0.068666
O52	O	1.621015	0.408366	0.181334
O53	O	0.768939	-0.341681	-0.437937
O54	O	1.018939	-0.091681	-0.187937
O55	O	1.268939	0.158319	0.062063
O56	O	1.518939	0.408319	0.312063
O57	O	0.948384	-0.264298	-0.568707
O58	O	1.198384	-0.014298	-0.318707
O59	O	1.448384	0.235702	-0.068707
O60	O	1.698384	0.485702	0.181293
O61	O	0.948230	-0.443721	-0.338883
O62	O	1.198230	-0.193721	-0.088883
O63	O	1.448230	0.056279	0.161117
O64	O	1.698230	0.306279	0.411117
O65	O	0.870927	-0.443713	-0.437913
O66	O	1.120927	-0.193713	-0.187913
O67	O	1.370927	0.056287	0.062087
O68	O	1.620927	0.306287	0.312087
C69	C	0.746113	-0.303036	-0.388429
C70	C	0.996113	-0.053036	-0.138429
C71	C	1.246113	0.196964	0.111571
C72	C	1.496113	0.446964	0.361571
C73	C	0.676144	-0.303064	-0.388438
C74	C	0.926144	-0.053064	-0.138438
C75	C	1.176144	0.196936	0.111562
C76	C	1.426144	0.446936	0.361562
C77	C	0.643335	-0.262857	-0.440104
C78	C	0.893335	-0.012857	-0.190104
C79	C	1.143335	0.237143	0.059896
C80	C	1.393335	0.487143	0.309896
C81	C	0.577592	-0.262840	-0.440107
C82	C	0.827592	-0.012840	-0.190107
C83	C	1.077592	0.237160	0.059893
C84	C	1.327592	0.487160	0.309893
C85	C	0.544662	-0.303041	-0.388453
C86	C	0.794662	-0.053041	-0.138453
C87	C	1.044662	0.196959	0.111547
C88	C	1.294662	0.446959	0.361547
C89	C	0.577479	-0.343251	-0.336778
C90	C	0.827479	-0.093251	-0.086778
C91	C	1.077479	0.156749	0.163222
C92	C	1.327479	0.406749	0.413222
C93	C	0.643221	-0.343263	-0.336770
C94	C	0.893221	-0.093263	-0.086770
C95	C	1.143221	0.156737	0.163230
C96	C	1.393221	0.406737	0.413230
N97	N	0.441387	-0.358120	-0.382152
N98	N	0.691387	-0.108120	-0.132152
N99	N	0.941387	0.141880	0.117848
N100	N	1.191387	0.391880	0.367848
N101	N	0.378935	-0.358107	-0.382163
N102	N	0.628935	-0.108107	-0.132163
N103	N	0.878935	0.141893	0.117837
N104	N	1.128935	0.391893	0.367837
C105	C	0.346587	-0.303009	-0.388471
C106	C	0.596587	-0.053009	-0.138471
C107	C	0.846587	0.196991	0.111529
C108	C	1.096587	0.446991	0.361529
N109	N	0.379050	-0.247922	-0.394782
N110	N	0.629050	0.002078	-0.144782
N111	N	0.879050	0.252078	0.105218
N112	N	1.129050	0.502078	0.355218
N113	N	0.441507	-0.247936	-0.394775
N114	N	0.691507	0.002064	-0.144775
N115	N	0.941507	0.252064	0.105225
N116	N	1.191507	0.502064	0.355225
C117	C	0.473377	-0.303033	-0.388455
C118	C	0.723377	-0.053033	-0.138455
C119	C	0.973377	0.196967	0.111545
C120	C	1.223377	0.446967	0.361545
C121	C	0.242492	-0.262780	-0.440142
C122	C	0.492492	-0.012780	-0.190142
C123	C	0.742492	0.237220	0.059858
C124	C	0.992492	0.487220	0.309858
C125	C	0.176748	-0.262762	-0.440140
C126	C	0.426748	-0.012762	-0.190140
C127	C	0.676748	0.237238	0.059860
C128	C	0.926748	0.487238	0.309860
C129	C	0.176637	-0.343179	-0.336815
C130	C	0.426637	-0.093179	-0.086815
C131	C	0.676637	0.156821	0.163185
C132	C	0.926637	0.406821	0.413185
C133	C	0.242379	-0.343191	-0.336813
C134	C	0.492379	-0.093191	-0.086813
C135	C	0.742379	0.156809	0.163187
C136	C	0.992379	0.406809	0.413187
C137	C	0.275303	-0.302993	-0.388481
C138	C	0.525303	-0.052993	-0.138481
C139	C	0.775303	0.197007	0.111519
C140	C	1.025303	0.447007	0.361519
C141	C	0.909582	-0.466557	-0.388407
C142	C	1.159582	-0.216557	-0.138407
C143	C	1.409582	0.033443	0.111593
C144	C	1.659582	0.283443	0.361593
C145	C	0.909604	-0.536526	-0.388415
C146	C	1.159604	-0.286526	-0.138415
C147	C	1.409604	-0.036526	0.111585
C148	C	1.659604	0.213474	0.361585
C149	C	0.949891	-0.569375	-0.336903
C150	C	1.199891	-0.319375	-0.086903
C151	C	1.449891	-0.069375	0.163097
C152	C	1.699891	0.180625	0.413097
C153	C	0.949921	-0.635118	-0.336921
C154	C	1.199921	-0.385118	-0.086921
C155	C	1.449921	-0.135118	0.163079
C156	C	1.699921	0.114882	0.413079
C157	C	0.909652	-0.668008	-0.388443
C158	C	1.159652	-0.418008	-0.138443
C159	C	1.409652	-0.168008	0.111557
C160	C	1.659652	0.081992	0.361557
C161	C	0.869362	-0.635150	-0.439964
C162	C	1.119362	-0.385150	-0.189964
C163	C	1.369362	-0.135150	0.060036
C164	C	1.619362	0.114850	0.310036
C165	C	0.869338	-0.569409	-0.439951
C166	C	1.119338	-0.319409	-0.189951
C167	C	1.369338	-0.069409	0.060049
C168	C	1.619338	0.180591	0.310049
N169	N	0.854584	-0.771288	-0.394582
N170	N	1.104584	-0.521288	-0.144582
N171	N	1.354584	-0.271288	0.105418
N172	N	1.604584	-0.021288	0.355418
N173	N	0.854609	-0.833739	-0.394590
N174	N	1.104609	-0.583739	-0.144590
N175	N	1.354609	-0.333739	0.105410
N176	N	1.604609	-0.083739	0.355410
C177	C	0.909722	-0.866083	-0.388489
C178	C	1.159722	-0.616083	-0.138489
C179	C	1.409722	-0.366083	0.111511
C180	C	1.659722	-0.116083	0.361511
N181	N	0.964811	-0.833615	-0.382363
N182	N	1.214811	-0.583615	-0.132363
N183	N	1.464811	-0.333615	0.117637
N184	N	1.714811	-0.083615	0.367637
N185	N	0.964786	-0.771158	-0.382350
N186	N	1.214786	-0.521158	-0.132350
N187	N	1.464786	-0.271158	0.117650
N188	N	1.714786	-0.021158	0.367650
C189	C	0.909673	-0.739293	-0.388464
C190	C	1.159673	-0.489293	-0.138464
C191	C	1.409673	-0.239293	0.111536
C192	C	1.659673	0.010707	0.361536
C193	C	0.950045	-0.970218	-0.336994
C194	C	1.200045	-0.720218	-0.086994
C195	C	1.450045	-0.470218	0.163006
C196	C	1.700045	-0.220218	0.413006
C197	C	0.950075	-1.035962	-0.337018
C198	C	1.200075	-0.785962	-0.087018
C199	C	1.450075	-0.535962	0.162982
C200	C	1.700075	-0.285962	0.412982
C201	C	0.869511	-1.035993	-0.440057
C202	C	1.119511	-0.785993	-0.190057
C203	C	1.369511	-0.535993	0.059943
C204	C	1.619511	-0.285993	0.309943
C205	C	0.869486	-0.970250	-0.440037
C206	C	1.119486	-0.720250	-0.190037
C207	C	1.369486	-0.470250	0.059963
C208	C	1.619486	-0.220250	0.309963
C209	C	0.909752	-0.937367	-0.388502
C210	C	1.159752	-0.687367	-0.138502
C211	C	1.409752	-0.437367	0.111498
C212	C	1.659752	-0.187367	0.361498
C213	C	1.073854	-0.302976	-0.388475
C214	C	1.323854	-0.052976	-0.138475
C215	C	1.573854	0.197024	0.111525
C216	C	1.823854	0.447024	0.361525
C217	C	1.143823	-0.302963	-0.388485
C218	C	1.393823	-0.052963	-0.138485
C219	C	1.643823	0.197037	0.111515
C220	C	1.893823	0.447037	0.361515
C221	C	0.909705	-0.302959	-0.598761
C222	C	1.159705	-0.052959	-0.348761
C223	C	1.409705	0.197041	-0.098761
C224	C	1.659705	0.447041	0.151239
C225	C	0.909723	-0.302939	-0.688382
C226	C	1.159723	-0.052939	-0.438382
C227	C	1.409723	0.197061	-0.188382
C228	C	1.659723	0.447061	0.061618
C229	C	0.909764	-0.138815	-0.388514
C230	C	1.159764	0.111185	-0.138514
C231	C	1.409764	0.361185	0.111486
C232	C	1.659764	0.611185	0.361486
C233	C	0.909807	-0.068847	-0.388541
C234	C	1.159807	0.181153	-0.138541
C235	C	1.409807	0.431153	0.111459
C236	C	1.659807	0.681153	0.361459
C237	C	0.909752	-0.302868	-1.016558
C238	C	1.159752	-0.052868	-0.766558
C239	C	1.409752	0.197132	-0.516558
C240	C	1.659752	0.447132	-0.266558
C241	C	0.909742	-0.302890	-0.925249
C242	C	1.159742	-0.052890	-0.675249
C243	C	1.409742	0.197110	-0.425249
C244	C	1.659742	0.447110	-0.175249
C245	C	0.909737	-0.302904	-0.852473
C246	C	1.159737	-0.052904	-0.602473
C247	C	1.409737	0.197096	-0.352473
C248	C	1.659737	0.447096	-0.102473
C249	C	0.909727	-0.302925	-0.761158
C250	C	1.159727	-0.052925	-0.511158
C251	C	1.409727	0.197075	-0.261158
C252	C	1.659727	0.447075	-0.011158
C253	C	0.909660	-0.303007	-0.178961
C254	C	1.159660	-0.053007	0.071039
C255	C	1.409660	0.196993	0.321039
C256	C	1.659660	0.446993	0.571039
C257	C	0.909764	-0.302850	-0.089340
C258	C	1.159764	-0.052850	0.160660
C259	C	1.409764	0.197150	0.410660
C260	C	1.659764	0.447150	0.660660
H261	H	0.150036	-0.230017	-0.482211
H262	H	0.400036	0.019983	-0.232211
H263	H	0.650036	0.269983	0.017789
H264	H	0.900036	0.519983	0.267789
O265	O	0.141129	-0.386535	-0.281093
O266	O	0.391129	-0.136535	-0.031093
O267	O	0.641129	0.113465	0.218907
O268	O	0.891129	0.363465	0.468907
H269	H	0.153706	-0.435957	-0.294795
H270	H	0.403706	-0.185957	-0.044795
H271	H	0.653706	0.064043	0.205205
H272	H	0.903706	0.314043	0.455205
H273	H	0.550663	-0.375983	-0.294720
H274	H	0.800663	-0.125983	-0.044720
H275	H	1.050663	0.124017	0.205280
H276	H	1.300663	0.374017	0.455280
O277	O	0.278008	-0.219415	-0.495854
O278	O	0.528008	0.030585	-0.245854
O279	O	0.778008	0.280585	0.004146
O280	O	1.028008	0.530585	0.254146
H281	H	0.265397	-0.230263	-0.559113
H282	H	0.515397	0.019737	-0.309113
H283	H	0.765397	0.269737	-0.059113
H284	H	1.015397	0.519737	0.190887
O285	O	0.993328	-0.533913	-0.281326
O286	O	1.243328	-0.283913	-0.031326
O287	O	1.493328	-0.033913	0.218674
O288	O	1.743328	0.216087	0.468674
H289	H	0.965163	-0.504021	-0.240257
H290	H	1.215163	-0.254021	0.009743
H291	H	1.465163	-0.004021	0.259743
H292	H	1.715163	0.245979	0.509743
O293	O	0.993536	-1.071398	-0.281464
O294	O	1.243536	-0.821398	-0.031464
O295	O	1.493536	-0.571398	0.218536
O296	O	1.743536	-0.321398	0.468536
H297	H	0.965391	-1.101415	-0.240424
H298	H	1.215391	-0.851415	0.009576
H299	H	1.465391	-0.601415	0.259576
H300	H	1.715391	-0.351415	0.509576
H301	H	0.836576	-0.661933	-0.481915
H302	H	1.086576	-0.411933	-0.231915
H303	H	1.336576	-0.161933	0.018085
H304	H	1.586576	0.088067	0.268085
H305	H	0.836726	-1.062771	-0.482010
H306	H	1.086726	-0.812771	-0.232010
H307	H	1.336726	-0.562771	0.017990
H308	H	1.586726	-0.312771	0.267990
O309	O	0.277770	-0.386564	-0.281093
O310	O	0.527770	-0.136564	-0.031093
O311	O	0.777770	0.113436	0.218907
O312	O	1.027770	0.363436	0.468907
H313	H	0.307730	-0.358352	-0.240131
H314	H	0.557730	-0.108352	0.009869
H315	H	0.807730	0.141648	0.259869
H316	H	1.057730	0.391648	0.509869
H317	H	0.836531	-0.542662	-0.481899
H318	H	1.086531	-0.292662	-0.231899
H319	H	1.336531	-0.042662	0.018101
H320	H	1.586531	0.207338	0.268101
O321	O	0.678847	-0.219490	-0.495814
O322	O	0.928847	0.030510	-0.245814
O323	O	1.178847	0.280510	0.004186
O324	O	1.428847	0.530510	0.254186
H325	H	0.644983	-0.191522	-0.531733
H326	H	0.894983	0.058478	-0.281733
H327	H	1.144983	0.308478	-0.031733
H328	H	1.394983	0.558478	0.218267
O329	O	0.542192	-0.219477	-0.495839
O330	O	0.792192	0.030523	-0.245839
O331	O	1.042192	0.280523	0.004161
O332	O	1.292192	0.530523	0.254161
H333	H	0.576131	-0.191530	-0.531769
H334	H	0.826131	0.058470	-0.281769
H335	H	1.076131	0.308470	-0.031769
H336	H	1.326131	0.558470	0.218231
O337	O	0.993369	-0.670562	-0.281354
O338	O	1.243369	-0.420562	-0.031354
O339	O	1.493369	-0.170562	0.218646
O340	O	1.743369	0.079438	0.468646
H341	H	1.021361	-0.636651	-0.245512
H342	H	1.271361	-0.386651	0.004488
H343	H	1.521361	-0.136651	0.254488
H344	H	1.771361	0.113349	0.504488
H345	H	0.982834	-0.943443	-0.295033
H346	H	1.232834	-0.693443	-0.045033
H347	H	1.482834	-0.443443	0.204967
H348	H	1.732834	-0.193443	0.454967
O349	O	0.826015	-0.934820	-0.495581
O350	O	1.076015	-0.684820	-0.245581
O351	O	1.326015	-0.434820	0.004419
O352	O	1.576015	-0.184820	0.254419
H353	H	0.836777	-0.947391	-0.558881
H354	H	1.086777	-0.697391	-0.308881
H355	H	1.336777	-0.447391	-0.058881
H356	H	1.586777	-0.197391	0.191119
O357	O	0.678615	-0.386632	-0.281045
O358	O	0.928615	-0.136632	-0.031045
O359	O	1.178615	0.113368	0.218955
O360	O	1.428615	0.363368	0.468955
H361	H	0.644674	-0.414586	-0.245127
H362	H	0.894674	-0.164586	0.004873
H363	H	1.144674	0.085414	0.254873
H364	H	1.394674	0.335414	0.504873
