data_functionalizedCrystal
_audit_creation_method	'MofGen! by Chris Wilmer'
_symmetry_space_group_name_H-M	'P1'
_symmetry_Int_Tables_number	1
_symmetry_cell_setting	triclinic
loop_
_symmetry_equiv_pos_as_xyz
  x,y,z
_cell_length_a	14.044220
_cell_length_b	14.421503
_cell_length_c	14.044209
_cell_angle_alpha	90.001982
_cell_angle_beta	86.811584
_cell_angle_gamma	90.003446
loop_
_atom_site_label
_atom_site_type_symbol
_atom_site_fract_x
_atom_site_fract_y
_atom_site_fract_z
O1	O	1.277171	0.077023	-0.230155
O2	O	1.610504	0.410357	0.103178
O3	O	1.943837	0.743690	0.436512
O4	O	1.000499	0.077047	-0.221849
O5	O	1.333833	0.410380	0.111484
O6	O	1.667166	0.743713	0.444817
O7	O	1.134683	0.077022	-0.087666
O8	O	1.468017	0.410355	0.245667
O9	O	1.801350	0.743689	0.579000
O10	O	1.142987	0.077048	-0.364338
O11	O	1.476320	0.410381	-0.031005
O12	O	1.809653	0.743714	0.302329
O13	O	1.134661	-0.077201	-0.087686
O14	O	1.467994	0.256132	0.245647
O15	O	1.801328	0.589465	0.578981
O16	O	1.000477	-0.077177	-0.221869
O17	O	1.333810	0.256156	0.111464
O18	O	1.667144	0.589490	0.444798
O19	O	1.277148	-0.077200	-0.230175
O20	O	1.610482	0.256133	0.103159
O21	O	1.943815	0.589467	0.436492
Cu22	Cu	1.138811	-0.091270	-0.226024
Cu23	Cu	1.472144	0.242063	0.107310
Cu24	Cu	1.805477	0.575396	0.440643
Cu25	Cu	1.138837	0.091117	-0.226000
Cu26	Cu	1.472170	0.424450	0.107333
Cu27	Cu	1.805504	0.757783	0.440666
O28	O	1.142964	-0.077176	-0.364358
O29	O	1.476298	0.256158	-0.031024
O30	O	1.809631	0.589491	0.302309
C31	C	0.964866	-0.000062	-0.218223
C32	C	1.298200	0.333271	0.115110
C33	C	1.631533	0.666604	0.448443
C34	C	0.858724	-0.000054	-0.207379
C35	C	1.192057	0.333279	0.125954
C36	C	1.525390	0.666613	0.459288
N37	N	1.138799	-0.219552	-0.226040
N38	N	1.472132	0.113782	0.107293
N39	N	1.805465	0.447115	0.440627
C40	C	0.664386	-0.000074	-0.187553
C41	C	0.997719	0.333259	0.145781
C42	C	1.331053	0.666592	0.479114
C43	C	0.613256	-0.000071	-0.264467
C44	C	0.946589	0.333262	0.068866
C45	C	1.279922	0.666596	0.402200
C46	C	0.505120	-0.000082	-0.253435
C47	C	0.838453	0.333251	0.079898
C48	C	1.171786	0.666584	0.413231
C49	C	0.772532	-0.000063	-0.198583
C50	C	1.105865	0.333270	0.134751
C51	C	1.439199	0.666604	0.468084
C52	C	1.076738	-0.469194	-0.288055
C53	C	1.410071	-0.135861	0.045279
C54	C	1.743404	0.197473	0.378612
C55	C	1.164571	-0.531002	-0.313879
C56	C	1.497905	-0.197668	0.019454
C57	C	1.831238	0.135665	0.352788
C58	C	1.138820	-0.408713	-0.226019
C59	C	1.472154	-0.075380	0.107314
C60	C	1.805487	0.257954	0.440647
C61	C	1.051011	-0.530999	-0.200219
C62	C	1.384344	-0.197666	0.133114
C63	C	1.717677	0.135668	0.466447
C64	C	1.138833	-0.591434	-0.226001
C65	C	1.472167	-0.258101	0.107333
C66	C	1.805500	0.075232	0.440666
C67	C	1.226701	-0.469160	-0.251890
C68	C	1.560034	-0.135827	0.081443
C69	C	1.893368	0.197507	0.414777
C70	C	1.113080	-0.469152	-0.138188
C71	C	1.446414	-0.135818	0.195145
C72	C	1.779747	0.197515	0.528479
C73	C	1.200973	-0.530932	-0.163981
C74	C	1.534307	-0.197598	0.169352
C75	C	1.867640	0.135735	0.502686
C76	C	1.138811	-0.303452	-0.226032
C77	C	1.472145	0.029882	0.107301
C78	C	1.805478	0.363215	0.440634
C79	C	1.138852	-0.696693	-0.225988
C80	C	1.472185	-0.363360	0.107346
C81	C	1.805518	-0.030027	0.440679
C82	C	1.312781	-0.000089	-0.233800
C83	C	1.646115	0.333244	0.099533
C84	C	1.979448	0.666578	0.432866
C85	C	1.418924	-0.000091	-0.244645
C86	C	1.752257	0.333242	0.088688
C87	C	2.085591	0.666575	0.422022
C88	C	1.131037	-0.000091	-0.052054
C89	C	1.464370	0.333243	0.281279
C90	C	1.797703	0.666576	0.614612
C91	C	1.120193	-0.000094	0.054088
C92	C	1.453526	0.333239	0.387422
C93	C	1.786860	0.666573	0.720755
N94	N	1.138856	0.219398	-0.225977
N95	N	1.472189	0.552731	0.107356
N96	N	1.805523	0.886065	0.440690
C97	C	1.100368	-0.000085	0.248426
C98	C	1.433702	0.333249	0.581760
C99	C	1.767035	0.666582	0.915093
C100	C	1.177283	-0.000090	0.299556
C101	C	1.510616	0.333244	0.632889
C102	C	1.843950	0.666577	0.966223
C103	C	1.166252	-0.000085	0.407692
C104	C	1.499586	0.333249	0.741026
C105	C	1.832919	0.666582	1.074359
C106	C	1.111398	-0.000090	0.140280
C107	C	1.444731	0.333243	0.473613
C108	C	1.778064	0.666577	0.806947
C109	C	1.146613	-0.000068	0.600030
C110	C	1.479946	0.333265	0.933364
C111	C	1.813280	0.666599	1.266697
C112	C	1.157463	-0.000080	0.493888
C113	C	1.490796	0.333253	0.827221
C114	C	1.824129	0.666586	1.160555
H115	H	0.650694	-0.000060	-0.338601
H116	H	0.984028	0.333274	-0.005267
H117	H	1.317361	0.666607	0.328066
H118	H	1.186354	-0.558169	-0.388149
H119	H	1.519688	-0.224835	-0.054815
H120	H	1.853021	0.108498	0.278518
H121	H	1.253542	-0.557869	-0.111513
H122	H	1.586876	-0.224536	0.221820
H123	H	1.920209	0.108798	0.555153
N124	N	1.002173	-0.000090	0.298005
N125	N	1.335506	0.333243	0.631338
N126	N	1.668840	0.666577	0.964671
H127	H	0.966309	0.057079	0.278952
H128	H	1.299642	0.390412	0.612286
H129	H	1.632975	0.723746	0.945619
H130	H	1.008191	-0.000127	0.369331
H131	H	1.341525	0.333206	0.702665
H132	H	1.674858	0.666540	1.035998
H133	H	1.091272	-0.441963	-0.063940
H134	H	1.424606	-0.108630	0.269394
H135	H	1.757939	0.224704	0.602727
H136	H	0.626950	-0.000086	-0.113425
H137	H	0.960283	0.333247	0.219908
H138	H	1.293616	0.666580	0.553242
H139	H	0.976746	-0.558165	-0.178407
H140	H	1.310080	-0.224831	0.154926
H141	H	1.643413	0.108502	0.488260
H142	H	1.024299	-0.442087	-0.340567
H143	H	1.357632	-0.108753	-0.007234
H144	H	1.690965	0.224580	0.326099
N145	N	1.275487	-0.000108	0.249980
N146	N	1.608820	0.333226	0.583314
N147	N	1.942154	0.666559	0.916647
H148	H	1.283502	0.057058	0.208769
H149	H	1.616835	0.390391	0.542102
H150	H	1.950169	0.723725	0.875436
H151	H	1.283410	-0.057321	0.208829
H152	H	1.616743	0.276012	0.542162
H153	H	1.950076	0.609345	0.875496
N154	N	1.325108	-0.433342	-0.280896
N155	N	1.658441	-0.100009	0.052437
N156	N	1.991774	0.233325	0.385770
H157	H	1.324490	-0.363311	-0.280751
H158	H	1.657823	-0.029977	0.052582
H159	H	1.991156	0.303356	0.385915
H160	H	1.344636	-0.456454	-0.347006
H161	H	1.677969	-0.123121	-0.013673
H162	H	2.011303	0.210213	0.319661
