data_functionalizedCrystal
_audit_creation_method	'MofGen! by Chris Wilmer'
_symmetry_space_group_name_H-M	'P1'
_symmetry_Int_Tables_number	1
_symmetry_cell_setting	triclinic
loop_
_symmetry_equiv_pos_as_xyz
  x,y,z
_cell_length_a	21.395362
_cell_length_b	19.805405
_cell_length_c	21.395355
_cell_angle_alpha	90.017223
_cell_angle_beta	90.043940
_cell_angle_gamma	90.042604
loop_
_atom_site_label
_atom_site_type_symbol
_atom_site_fract_x
_atom_site_fract_y
_atom_site_fract_z
Zn1	Zn	0.957877	-0.269255	0.354591
Zn2	Zn	1.457877	0.230745	0.854591
Zn3	Zn	0.957787	-0.382425	0.249816
Zn4	Zn	1.457787	0.117575	0.749816
Zn5	Zn	0.853092	-0.269286	0.249793
Zn6	Zn	1.353092	0.230714	0.749793
Zn7	Zn	0.853068	-0.382438	0.354521
Zn8	Zn	1.353068	0.117562	0.854521
O9	O	0.905456	-0.325851	0.302180
O10	O	1.405456	0.174149	0.802180
O11	O	1.045543	-0.284248	0.340732
O12	O	1.545543	0.215752	0.840732
O13	O	0.943871	-0.367424	0.162135
O14	O	1.443871	0.132576	0.662135
O15	O	0.867039	-0.174565	0.263714
O16	O	1.367039	0.325435	0.763714
O17	O	1.045476	-0.367393	0.263754
O18	O	1.545476	0.132607	0.763754
O19	O	0.944024	-0.174542	0.340709
O20	O	1.444024	0.325458	0.840709
O21	O	0.866952	-0.284302	0.162118
O22	O	1.366952	0.215698	0.662118
O23	O	0.765411	-0.284315	0.263646
O24	O	1.265411	0.215685	0.763646
O25	O	0.866999	-0.367417	0.442208
O26	O	1.366999	0.132583	0.942208
O27	O	0.765393	-0.367448	0.340589
O28	O	1.265393	0.132552	0.840589
O29	O	0.944002	-0.284261	0.442260
O30	O	1.444002	0.215739	0.942260
O31	O	0.943848	-0.477143	0.263686
O32	O	1.443848	0.022857	0.763686
O33	O	0.866912	-0.477153	0.340612
O34	O	1.366912	0.022847	0.840612
C35	C	0.742668	-0.325887	0.302107
C36	C	1.242668	0.174113	0.802107
C37	C	0.673027	-0.325918	0.302091
C38	C	1.173027	0.174082	0.802091
C39	C	0.640321	-0.369263	0.342096
C40	C	1.140321	0.130737	0.842096
C41	C	0.574886	-0.369246	0.342124
C42	C	1.074886	0.130754	0.842124
C43	C	0.542159	-0.325892	0.302136
C44	C	1.042159	0.174108	0.802136
C45	C	0.574872	-0.282539	0.262129
C46	C	1.074872	0.217461	0.762129
C47	C	0.640306	-0.282553	0.262106
C48	C	1.140306	0.217447	0.762106
C49	C	0.438434	-0.320440	0.245731
C50	C	0.938434	0.179560	0.745731
C51	C	0.373001	-0.320431	0.245752
C52	C	0.873001	0.179569	0.745752
C53	C	0.340338	-0.325848	0.302205
C54	C	0.840338	0.174152	0.802205
C55	C	0.373116	-0.331287	0.358639
C56	C	0.873116	0.168713	0.858639
C57	C	0.438550	-0.331301	0.358616
C58	C	0.938550	0.168699	0.858616
C59	C	0.471206	-0.325873	0.302156
C60	C	0.971206	0.174127	0.802156
C61	C	0.236680	-0.369177	0.342243
C62	C	0.736680	0.130823	0.842243
C63	C	0.171243	-0.369156	0.342272
C64	C	0.671243	0.130844	0.842272
C65	C	0.171231	-0.282452	0.262272
C66	C	0.671231	0.217548	0.762272
C67	C	0.236666	-0.282470	0.262248
C68	C	0.736666	0.217530	0.762248
C69	C	0.269387	-0.325836	0.302233
C70	C	0.769387	0.174164	0.802233
C71	C	0.905384	-0.501707	0.302157
C72	C	1.405384	-0.001707	0.802157
C73	C	0.905411	-0.576939	0.302169
C74	C	1.405411	-0.076939	0.802169
C75	C	0.945474	-0.612213	0.342292
C76	C	1.445474	-0.112213	0.842292
C77	C	0.945496	-0.682901	0.342303
C78	C	1.445496	-0.182901	0.842303
C79	C	0.905459	-0.718315	0.302188
C80	C	1.405459	-0.218315	0.802188
C81	C	0.865392	-0.683036	0.262064
C82	C	1.365392	-0.183036	0.762064
C83	C	0.865367	-0.612349	0.262056
C84	C	1.365367	-0.112349	0.762056
C85	C	0.865493	-0.968109	0.262096
C86	C	1.365493	-0.468109	0.762096
C87	C	0.865523	-1.038801	0.262106
C88	C	1.365523	-0.538801	0.762106
C89	C	0.945622	-1.038662	0.342343
C90	C	1.445622	-0.538662	0.842343
C91	C	0.945597	-0.967975	0.342335
C92	C	1.445597	-0.467975	0.842335
C93	C	0.905528	-0.932702	0.302213
C94	C	1.405528	-0.432702	0.802213
C95	C	0.905503	-0.856053	0.302202
C96	C	1.405503	-0.356053	0.802202
C97	C	0.905487	-0.794962	0.302196
C98	C	1.405487	-0.294962	0.802196
C99	C	1.068879	-0.325816	0.302253
C100	C	1.568879	0.174184	0.802253
C101	C	1.138520	-0.325800	0.302285
C102	C	1.638520	0.174200	0.802285
C103	C	0.905508	-0.325837	0.465604
C104	C	1.405508	0.174163	0.965604
C105	C	0.905530	-0.325831	0.535245
C106	C	1.405530	0.174169	1.035245
C107	C	0.905545	-0.149308	0.302217
C108	C	1.405545	0.350692	0.802217
C109	C	0.905582	-0.074076	0.302232
C110	C	1.405582	0.425924	0.802232
C111	C	0.905440	-0.325816	0.139393
C112	C	1.405440	0.174184	0.639393
C113	C	0.905539	-0.325631	0.069752
C114	C	1.405539	0.174369	0.569752
C115	C	0.945623	-0.282530	0.567986
C116	C	1.445623	0.217470	1.067986
C117	C	0.945623	-0.282501	0.633421
C118	C	1.445623	0.217499	1.133421
C119	C	0.905535	-0.325785	0.666113
C120	C	1.405535	0.174215	1.166113
C121	C	0.865434	-0.369089	0.633364
C122	C	1.365434	0.130911	1.133364
C123	C	0.865431	-0.369112	0.567930
C124	C	1.365431	0.130888	1.067930
C125	C	0.900563	-0.386731	0.769778
C126	C	1.400563	0.113269	1.269778
C127	C	0.900570	-0.386709	0.835211
C128	C	1.400570	0.113291	1.335211
C129	C	0.905539	-0.325714	0.867934
C130	C	1.405539	0.174286	1.367934
C131	C	0.910514	-0.264738	0.835216
C132	C	1.410514	0.235262	1.335216
C133	C	0.910512	-0.264762	0.769782
C134	C	1.410512	0.235238	1.269782
C135	C	0.905533	-0.325765	0.737066
C136	C	1.405533	0.174235	1.237066
C137	C	0.945633	-0.282378	0.971628
C138	C	1.445633	0.217622	1.471628
C139	C	0.945628	-0.282347	1.037064
C140	C	1.445628	0.217653	1.537064
C141	C	0.865443	-0.368941	1.037006
C142	C	1.365443	0.131059	1.537006
C143	C	0.865445	-0.368966	0.971571
C144	C	1.365445	0.131034	1.471571
C145	C	0.905543	-0.325685	0.938885
C146	C	1.405543	0.174315	1.438885
H147	H	0.548222	-0.247239	0.229572
H148	H	1.048222	0.252761	0.729572
H149	H	0.548252	-0.404542	0.374702
H150	H	1.048252	0.095458	0.874702
H151	H	0.465236	-0.335727	0.404567
H152	H	0.965236	0.164273	0.904567
H153	H	0.978201	-0.939143	0.374998
H154	H	1.478201	-0.439143	0.874998
H155	H	0.465022	-0.316026	0.199756
H156	H	0.965022	0.183974	0.699756
H157	H	0.832743	-0.583629	0.229385
H158	H	1.332743	-0.083629	0.729385
C159	C	0.989515	-0.573261	0.386416
C160	C	1.489515	-0.073261	0.886416
H161	H	0.983768	-0.526110	0.380662
H162	H	1.483768	-0.026110	0.880662
H163	H	0.980330	-0.584838	0.428504
H164	H	1.480330	-0.084838	0.928504
H165	H	1.031623	-0.584800	0.377297
H166	H	1.531623	-0.084800	0.877297
C167	C	0.676310	-0.416956	0.386084
C168	C	1.176310	0.083044	0.886084
H169	H	0.647456	-0.442763	0.409918
H170	H	1.147456	0.057237	0.909918
H171	H	0.701787	-0.446414	0.362063
H172	H	1.201787	0.053586	0.862063
H173	H	0.701885	-0.391107	0.413421
H174	H	1.201885	0.108893	0.913421
C175	C	0.989692	-1.077463	0.386483
C176	C	1.489692	-0.577463	0.886483
H177	H	0.983970	-1.124634	0.380750
H178	H	1.483970	-0.624634	0.880750
H179	H	1.031790	-1.065832	0.377365
H180	H	1.531790	-0.565832	0.877365
H181	H	0.980494	-1.065868	0.428570
H182	H	1.480494	-0.565868	0.928570
H183	H	0.978276	-0.247083	1.063721
H184	H	1.478276	0.252917	1.563721
C185	C	0.989722	-0.234918	0.532033
C186	C	1.489722	0.265082	1.032033
H187	H	0.983983	-0.241134	0.488372
H188	H	1.483983	0.258866	0.988372
H189	H	0.980577	-0.189440	0.542751
H190	H	1.480577	0.310560	1.042751
H191	H	1.031818	-0.244815	0.542786
H192	H	1.531818	0.255185	1.042786
H193	H	0.832796	-0.404177	1.063623
H194	H	1.332796	0.095823	1.563623
C195	C	0.821349	-0.721985	0.217939
C196	C	1.321349	-0.221985	0.717939
H197	H	0.797481	-0.690851	0.194047
H198	H	1.297481	-0.190851	0.694047
H199	H	0.845338	-0.749544	0.190672
H200	H	1.345338	-0.249544	0.690672
H201	H	0.794046	-0.749581	0.241881
H202	H	1.294046	-0.249581	0.741881
C203	C	0.821348	-0.416602	0.935551
C204	C	1.321348	0.083398	1.435551
H205	H	0.827084	-0.410413	0.891899
H206	H	1.327084	0.089587	1.391899
H207	H	0.830494	-0.462073	0.946282
H208	H	1.330494	0.037927	1.446282
H209	H	0.779253	-0.406697	0.946243
H210	H	1.279253	0.093303	1.446243
C211	C	0.676284	-0.234875	0.218096
C212	C	1.176284	0.265125	0.718096
H213	H	0.647424	-0.209054	0.194282
H214	H	1.147424	0.290946	0.694282
H215	H	0.701865	-0.205430	0.242102
H216	H	1.201865	0.294570	0.742102
H217	H	0.701754	-0.260735	0.190742
H218	H	1.201754	0.239265	0.690742
C219	C	0.821330	-0.416747	0.531910
C220	C	1.321330	0.083253	1.031910
H221	H	0.827069	-0.410560	0.488259
H222	H	1.327069	0.089440	0.988259
H223	H	0.830475	-0.462219	0.542643
H224	H	1.330475	0.037781	1.042643
H225	H	0.779236	-0.406840	0.542601
H226	H	1.279236	0.093160	1.042601
C227	C	0.989732	-0.234874	0.669444
C228	C	1.489732	0.265126	1.169444
H229	H	1.013615	-0.209105	0.640606
H230	H	1.513615	0.290895	1.140606
H231	H	0.965786	-0.205377	0.694955
H232	H	1.465786	0.294623	1.194955
H233	H	1.017018	-0.260763	0.694987
H234	H	1.517018	0.239237	1.194987
H235	H	0.263295	-0.247178	0.229669
H236	H	0.763295	0.252822	0.729669
H237	H	0.896522	-0.436359	0.861846
H238	H	1.396522	0.063641	1.361846
H239	H	0.832917	-1.067633	0.229439
H240	H	1.332917	-0.567633	0.729439
C241	C	0.989567	-0.721700	0.386436
C242	C	1.489567	-0.221700	0.886436
H243	H	1.013413	-0.690485	0.410320
H244	H	1.513413	-0.190485	0.910320
H245	H	0.965598	-0.749291	0.413711
H246	H	1.465598	-0.249291	0.913711
H247	H	1.016889	-0.749253	0.362502
H248	H	1.516889	-0.249253	0.862502
C249	C	0.915977	-0.197696	0.733791
C250	C	1.415977	0.302304	1.233791
H251	H	0.915267	-0.206449	0.690135
H252	H	1.415267	0.293551	1.190135
H253	H	0.881908	-0.169229	0.744488
H254	H	1.381908	0.330771	1.244488
H255	H	0.954135	-0.176040	0.744539
H256	H	1.454135	0.323960	1.244539
C257	C	0.337197	-0.337244	0.420741
C258	C	0.837197	0.162756	0.920741
H259	H	0.293532	-0.336449	0.412675
H260	H	0.793532	0.163551	0.912675
H261	H	0.347905	-0.378483	0.440705
H262	H	0.847905	0.121517	0.940705
H263	H	0.347985	-0.300463	0.447151
H264	H	0.847985	0.199537	0.947151
C265	C	0.272675	-0.416869	0.386230
C266	C	0.772675	0.083131	0.886230
H267	H	0.243822	-0.442675	0.410068
H268	H	0.743822	0.057325	0.910068
H269	H	0.298148	-0.446329	0.362207
H270	H	0.798148	0.053671	0.862207
H271	H	0.298254	-0.391021	0.413564
H272	H	0.798254	0.108979	0.913564
C273	C	0.916388	-0.197680	0.871201
C274	C	1.416388	0.302320	1.371201
H275	H	0.915794	-0.206408	0.914857
H276	H	1.415794	0.293592	1.414857
H277	H	0.954641	-0.176330	0.860354
H278	H	1.454641	0.323670	1.360354
H279	H	0.882463	-0.168949	0.860601
H280	H	1.382463	0.331051	1.360601
C281	C	0.821427	-0.929318	0.217956
C282	C	1.321427	-0.429318	0.717956
H283	H	0.797594	-0.960534	0.194061
H284	H	1.297594	-0.460534	0.694061
H285	H	0.794103	-0.901763	0.241879
H286	H	1.294103	-0.401763	0.741879
H287	H	0.845405	-0.901729	0.190681
H288	H	1.345405	-0.401729	0.690681
C289	C	0.989729	-0.234760	0.935671
C290	C	1.489729	0.265240	1.435671
H291	H	1.013600	-0.208958	0.964545
H292	H	1.513600	0.291042	1.464545
H293	H	1.017017	-0.260650	0.910165
H294	H	1.517017	0.239350	1.410165
H295	H	0.965766	-0.205284	0.910129
H296	H	1.465766	0.294716	1.410129
C297	C	0.894960	-0.453817	0.733790
C298	C	1.394960	0.046183	1.233790
H299	H	0.891965	-0.490123	0.762645
H300	H	1.391965	0.009877	1.262645
H301	H	0.858608	-0.452858	0.708287
H302	H	1.358608	0.047142	1.208287
H303	H	0.930820	-0.459857	0.708240
H304	H	1.430820	0.040143	1.208240
C305	C	0.821341	-0.416703	0.669322
C306	C	1.321341	0.083297	1.169322
H307	H	0.827090	-0.410494	0.712982
H308	H	1.327090	0.089506	1.212982
H309	H	0.779248	-0.406813	0.658570
H310	H	1.279248	0.093187	1.158570
H311	H	0.830493	-0.462184	0.658604
H312	H	1.330493	0.037816	1.158604
C313	C	0.336947	-0.314496	0.183676
C314	C	0.836947	0.185504	0.683676
H315	H	0.293300	-0.315287	0.191772
H316	H	0.793300	0.184713	0.691772
H317	H	0.347667	-0.273271	0.163680
H318	H	0.847667	0.226729	0.663680
H319	H	0.347628	-0.351295	0.157281
H320	H	0.847628	0.148705	0.657281
H321	H	0.144615	-0.404451	0.374852
H322	H	0.644615	0.095549	0.874852
C323	C	0.135239	-0.234755	0.218294
C324	C	0.635239	0.265245	0.718294
H325	H	0.091584	-0.240955	0.224036
H326	H	0.591584	0.259045	0.724036
H327	H	0.146017	-0.189298	0.227540
H328	H	0.646017	0.310702	0.727540
H329	H	0.145903	-0.244594	0.176171
H330	H	0.645903	0.255406	0.676171
