data_functionalizedCrystal
_audit_creation_method	'MofGen! by Chris Wilmer'
_symmetry_space_group_name_H-M	'P1'
_symmetry_Int_Tables_number	1
_symmetry_cell_setting	triclinic
loop_
_symmetry_equiv_pos_as_xyz
  x,y,z
_cell_length_a	27.732048
_cell_length_b	14.519709
_cell_length_c	12.996460
_cell_angle_alpha	90.001234
_cell_angle_beta	89.999324
_cell_angle_gamma	96.838600
loop_
_atom_site_label
_atom_site_type_symbol
_atom_site_fract_x
_atom_site_fract_y
_atom_site_fract_z
O1	O	0.641453	-0.109725	-0.085437
O2	O	0.974786	0.223608	0.247897
O3	O	1.308120	0.556942	0.581230
O4	O	0.500739	-0.126410	-0.085468
O5	O	0.834073	0.206924	0.247865
O6	O	1.167406	0.540257	0.581199
O7	O	0.574827	0.016236	-0.085442
O8	O	0.908160	0.349569	0.247891
O9	O	1.241494	0.682903	0.581224
O10	O	0.567365	-0.252371	-0.085462
O11	O	0.900699	0.080963	0.247871
O12	O	1.234032	0.414296	0.581204
O13	O	0.574818	0.016228	0.085692
O14	O	0.908151	0.349561	0.419025
O15	O	1.241484	0.682894	0.752358
O16	O	0.500730	-0.126418	0.085666
O17	O	0.834063	0.206915	0.418999
O18	O	1.167397	0.540249	0.752332
O19	O	0.641444	-0.109733	0.085697
O20	O	0.974777	0.223600	0.419031
O21	O	1.308110	0.556933	0.752364
Cu22	Cu	0.571086	-0.118076	0.101307
Cu23	Cu	0.904419	0.215257	0.434641
Cu24	Cu	1.237753	0.548590	0.767974
Cu25	Cu	0.571097	-0.118067	-0.101078
Cu26	Cu	0.904431	0.215267	0.232255
Cu27	Cu	1.237764	0.548600	0.565588
O28	O	0.567356	-0.252379	0.085671
O29	O	0.900689	0.080954	0.419005
O30	O	1.234023	0.414288	0.752338
C31	C	0.482726	-0.126064	0.000095
C32	C	0.816059	0.207270	0.333428
C33	C	1.149393	0.540603	0.666762
C34	C	0.429066	-0.125009	0.000083
C35	C	0.762400	0.208324	0.333417
C36	C	1.095733	0.541658	0.666750
C37	C	0.574475	0.050586	0.000125
C38	C	0.907808	0.383919	0.333458
C39	C	1.241141	0.717252	0.666791
C40	C	0.573433	0.152949	0.000125
C41	C	0.906766	0.486282	0.333458
C42	C	1.240099	0.819615	0.666792
N43	N	0.571081	-0.118083	0.243654
N44	N	0.904415	0.215251	0.576988
N45	N	1.237748	0.548584	0.910321
C46	C	0.090622	-0.202664	0.000122
C47	C	0.423956	0.130669	0.333455
C48	C	0.757289	0.464003	0.666789
C49	C	-0.111056	-0.198751	0.000131
C50	C	0.222277	0.134582	0.333465
C51	C	0.555611	0.467916	0.666798
O52	O	-0.141972	-0.269761	0.000171
O53	O	0.191361	0.063572	0.333504
O54	O	0.524694	0.396906	0.666837
N55	N	-0.130584	-0.114168	0.000136
N56	N	0.202749	0.219165	0.333469
N57	N	0.536083	0.552499	0.666803
C58	C	-0.099689	-0.030557	0.000145
C59	C	0.233644	0.302776	0.333478
C60	C	0.566978	0.636109	0.666812
O61	O	-0.120926	0.041476	0.000160
O62	O	0.212407	0.374809	0.333493
O63	O	0.545740	0.708142	0.666826
C64	C	0.101988	-0.034471	0.000143
C65	C	0.435322	0.298862	0.333476
C66	C	0.768655	0.632195	0.666809
C67	C	0.121513	-0.119060	0.000128
C68	C	0.454847	0.214274	0.333461
C69	C	0.788180	0.547607	0.666795
C70	C	0.110148	-0.287246	0.000108
C71	C	0.443481	0.046088	0.333442
C72	C	0.776814	0.379421	0.666775
C73	C	0.160564	-0.288223	0.000100
C74	C	0.493898	0.045110	0.333434
C75	C	0.827231	0.378444	0.666767
C76	C	0.191455	-0.204619	0.000106
C77	C	0.524789	0.128715	0.333439
C78	C	0.858122	0.462048	0.666773
C79	C	0.171930	-0.120037	0.000120
C80	C	0.505263	0.213296	0.333453
C81	C	0.838597	0.546630	0.666787
C82	C	0.132882	0.049139	0.000159
C83	C	0.466216	0.382472	0.333492
C84	C	0.799549	0.715805	0.666826
C85	C	0.183304	0.048153	0.000161
C86	C	0.516638	0.381486	0.333494
C87	C	0.849971	0.714819	0.666828
C88	C	0.202829	-0.036436	0.000146
C89	C	0.536163	0.296897	0.333480
C90	C	0.869496	0.630231	0.666813
C91	C	0.253238	-0.037410	0.000118
C92	C	0.586571	0.295923	0.333451
C93	C	0.919904	0.629257	0.666784
N94	N	0.272766	-0.121993	0.000113
N95	N	0.606099	0.211340	0.333447
N96	N	0.939432	0.544674	0.666780
C97	C	0.241875	-0.205597	0.000107
C98	C	0.575208	0.127736	0.333441
C99	C	0.908541	0.461069	0.666774
C100	C	-0.205573	-0.028508	0.000144
C101	C	0.127760	0.304825	0.333477
C102	C	0.461094	0.638158	0.666811
C103	C	-0.255992	-0.027530	0.000143
C104	C	0.077341	0.305804	0.333476
C105	C	0.410675	0.639137	0.666809
C106	C	-0.267356	-0.195724	0.000131
C107	C	0.065978	0.137610	0.333465
C108	C	0.399311	0.470943	0.666798
C109	C	-0.216936	-0.196702	0.000125
C110	C	0.116398	0.136632	0.333458
C111	C	0.449731	0.469965	0.666792
C112	C	-0.186045	-0.113091	0.000139
C113	C	0.147288	0.220242	0.333473
C114	C	0.480622	0.553575	0.666806
C115	C	0.347754	-0.207643	0.000090
C116	C	0.681087	0.125690	0.333423
C117	C	1.014420	0.459023	0.666756
C118	C	0.398175	-0.208613	0.000077
C119	C	0.731508	0.124720	0.333411
C120	C	1.064842	0.458053	0.666744
C121	C	0.409534	-0.040420	0.000094
C122	C	0.742868	0.292914	0.333428
C123	C	1.076201	0.626247	0.666761
C124	C	0.359117	-0.039449	0.000101
C125	C	0.692450	0.293884	0.333435
C126	C	1.025784	0.627217	0.666768
C127	C	0.328227	-0.123069	0.000102
C128	C	0.661561	0.210265	0.333436
C129	C	0.994894	0.543598	0.666769
O130	O	0.284182	0.033562	0.000090
O131	O	0.617516	0.366895	0.333423
O132	O	0.950849	0.700229	0.666757
O133	O	0.263121	-0.277620	0.000116
O134	O	0.596455	0.055714	0.333449
O135	O	0.929788	0.389047	0.666782
C136	C	0.040206	-0.201687	0.000130
C137	C	0.373539	0.131647	0.333463
C138	C	0.706872	0.464980	0.666797
C139	C	0.020680	-0.117105	0.000144
C140	C	0.354013	0.216228	0.333477
C141	C	0.687347	0.549562	0.666810
C142	C	0.051571	-0.033501	0.000150
C143	C	0.384904	0.299833	0.333483
C144	C	0.718238	0.633166	0.666816
C145	C	-0.029739	-0.116126	0.000142
C146	C	0.303594	0.217207	0.333476
C147	C	0.636928	0.550540	0.666809
C148	C	-0.060630	-0.199731	0.000137
C149	C	0.272703	0.133603	0.333470
C150	C	0.606037	0.466936	0.666803
C151	C	-0.041102	-0.284314	0.000132
C152	C	0.292231	0.049020	0.333465
C153	C	0.625565	0.382353	0.666799
C154	C	0.009315	-0.285291	0.000124
C155	C	0.342648	0.048042	0.333457
C156	C	0.675981	0.381376	0.666791
C157	C	0.032043	0.051082	0.000154
C158	C	0.365376	0.384416	0.333487
C159	C	0.698710	0.717749	0.666821
C160	C	-0.018374	0.052053	0.000161
C161	C	0.314959	0.385386	0.333494
C162	C	0.648293	0.718719	0.666828
C163	C	-0.049265	-0.031552	0.000155
C164	C	0.284068	0.301782	0.333488
C165	C	0.617402	0.635115	0.666822
C166	C	0.659457	-0.110079	0.000132
C167	C	0.992790	0.223254	0.333465
C168	C	1.326124	0.556587	0.666799
C169	C	0.713117	-0.111134	0.000137
C170	C	1.046450	0.222199	0.333470
C171	C	1.379784	0.555533	0.666804
C172	C	0.567708	-0.286729	0.000102
C173	C	0.901042	0.046605	0.333435
C174	C	1.234375	0.379938	0.666769
C175	C	0.568751	-0.389092	0.000095
C176	C	0.902084	-0.055758	0.333428
C177	C	1.235417	0.277575	0.666762
C178	C	0.569596	0.527778	0.000098
C179	C	0.902930	0.861111	0.333431
C180	C	1.236263	1.194444	0.666764
C181	C	0.570662	0.423488	0.000106
C182	C	0.903995	0.756822	0.333439
C183	C	1.237328	1.090155	0.666772
C184	C	0.571514	0.340367	0.000112
C185	C	0.904848	0.673700	0.333446
C186	C	1.238181	1.007033	0.666779
C187	C	0.572580	0.236071	0.000118
C188	C	0.905913	0.569404	0.333452
C189	C	1.239247	0.902737	0.666785
N190	N	0.571105	-0.118053	-0.243425
N191	N	0.904439	0.215280	0.089908
N192	N	1.237772	0.548614	0.423241
C193	C	0.571084	-0.118085	0.336760
C194	C	0.904417	0.215248	0.670094
C195	C	1.237750	0.548582	1.003427
C196	C	0.571088	-0.118079	0.453566
C197	C	0.904421	0.215255	0.786899
C198	C	1.237755	0.548588	1.120232
C199	C	0.571094	-0.118068	0.546664
C200	C	0.904428	0.215265	0.879997
C201	C	1.237761	0.548598	1.213331
C202	C	0.571099	-0.118063	0.663476
C203	C	0.904433	0.215270	0.996810
C204	C	1.237766	0.548603	1.330143
H205	H	0.414069	-0.277498	0.000065
H206	H	0.747403	0.055835	0.333398
H207	H	1.080736	0.389168	0.666731
C208	C	-0.301340	-0.287689	0.000130
C209	C	0.031994	0.045644	0.333463
C210	C	0.365327	0.378978	0.666796
H211	H	-0.282493	-0.338210	0.000123
H212	H	0.050840	-0.004877	0.333457
H213	H	0.384173	0.328456	0.666790
H214	H	-0.321245	-0.290795	0.059808
H215	H	0.012089	0.042539	0.393141
H216	H	0.345422	0.375872	0.726474
H217	H	-0.321244	-0.290800	-0.059556
H218	H	0.012090	0.042533	0.273777
H219	H	0.345423	0.375866	0.607111
H220	H	-0.271885	0.041351	0.000139
H221	H	0.061449	0.374684	0.333472
H222	H	0.394782	0.708017	0.666805
C223	C	0.217283	0.140124	0.000174
C224	C	0.550617	0.473457	0.333508
C225	C	0.883950	0.806790	0.666841
H226	H	0.250109	0.127434	0.000177
H227	H	0.583442	0.460767	0.333510
H228	H	0.916775	0.794100	0.666844
H229	H	0.211354	0.174844	-0.059496
H230	H	0.544687	0.508177	0.273837
H231	H	0.878020	0.841511	0.607170
H232	H	0.211355	0.174827	0.059867
H233	H	0.544688	0.508161	0.393201
H234	H	0.878021	0.841494	0.726534
H235	H	-0.180425	0.039581	0.000156
H236	H	0.152908	0.372914	0.333489
H237	H	0.486241	0.706248	0.666822
C238	C	-0.039846	0.145107	0.000180
C239	C	0.293488	0.478440	0.333513
C240	C	0.626821	0.811773	0.666846
H241	H	-0.014223	0.194753	0.000193
H242	H	0.319111	0.528087	0.333526
H243	H	0.652444	0.861420	0.666859
H244	H	-0.059281	0.149000	-0.059490
H245	H	0.274052	0.482334	0.273843
H246	H	0.607386	0.815667	0.607177
H247	H	-0.059273	0.148977	0.059874
H248	H	0.274060	0.482310	0.393207
H249	H	0.607393	0.815644	0.726540
H250	H	0.322609	-0.275734	0.000094
H251	H	0.655942	0.057599	0.333427
H252	H	0.989275	0.390932	0.666761
H253	H	0.057190	0.119165	0.000161
H254	H	0.390524	0.452498	0.333495
H255	H	0.723857	0.785831	0.666828
H256	H	0.116994	0.118020	0.000172
H257	H	0.450328	0.451353	0.333505
H258	H	0.783661	0.784686	0.666839
H259	H	0.025207	-0.354171	0.000113
H260	H	0.358540	-0.020838	0.333447
H261	H	0.691873	0.312495	0.666780
C262	C	0.337638	0.053595	0.000107
C263	C	0.670972	0.386928	0.333440
C264	C	1.004305	0.720262	0.666773
H265	H	0.363259	0.103246	0.000112
H266	H	0.696592	0.436579	0.333445
H267	H	1.029926	0.769912	0.666778
H268	H	0.318202	0.057477	-0.059564
H269	H	0.651535	0.390811	0.273769
H270	H	0.984869	0.724144	0.607103
H271	H	0.318211	0.057470	0.059800
H272	H	0.651544	0.390803	0.393133
H273	H	0.984877	0.724137	0.726466
C274	C	0.182036	-0.381271	0.000104
C275	C	0.515369	-0.047937	0.333437
C276	C	0.848702	0.285396	0.666771
H277	H	0.156411	-0.430915	0.000114
H278	H	0.489745	-0.097582	0.333447
H279	H	0.823078	0.235752	0.666780
H280	H	0.201469	-0.385162	-0.059570
H281	H	0.534803	-0.051828	0.273763
H282	H	0.868136	0.281505	0.607096
H283	H	0.201464	-0.385149	0.059793
H284	H	0.534798	-0.051815	0.393127
H285	H	0.868131	0.281518	0.726460
C286	C	-0.195462	-0.289747	0.000118
C287	C	0.137871	0.043586	0.333451
C288	C	0.471204	0.376919	0.666784
H289	H	-0.221085	-0.339394	0.000119
H290	H	0.112248	-0.006061	0.333452
H291	H	0.445581	0.327272	0.666786
H292	H	-0.176028	-0.293628	-0.059557
H293	H	0.157305	0.039706	0.273776
H294	H	0.490639	0.373039	0.607109
H295	H	-0.176034	-0.293632	0.059806
H296	H	0.157300	0.039702	0.393140
H297	H	0.490633	0.373035	0.726473
C298	C	0.076175	-0.379219	0.000093
C299	C	0.409508	-0.045885	0.333426
C300	C	0.742841	0.287448	0.666760
H301	H	0.095032	-0.429724	0.000077
H302	H	0.428365	-0.096391	0.333410
H303	H	0.761699	0.236943	0.666743
H304	H	0.056266	-0.382353	0.059766
H305	H	0.389599	-0.049019	0.393099
H306	H	0.722932	0.284314	0.726432
H307	H	0.056274	-0.382330	-0.059598
H308	H	0.389608	-0.048997	0.273735
H309	H	0.722941	0.284336	0.607069
H310	H	0.434695	0.027649	0.000095
H311	H	0.768028	0.360982	0.333429
H312	H	1.101361	0.694315	0.666762
C313	C	-0.075089	-0.376276	0.000129
C314	C	0.258245	-0.042942	0.333463
C315	C	0.591578	0.290391	0.666796
H316	H	-0.107911	-0.363569	0.000143
H317	H	0.225422	-0.030236	0.333477
H318	H	0.558755	0.303097	0.666810
H319	H	-0.069166	-0.410994	-0.059549
H320	H	0.264167	-0.077661	0.273784
H321	H	0.597501	0.255672	0.607117
H322	H	-0.069162	-0.410989	0.059815
H323	H	0.264172	-0.077655	0.393148
H324	H	0.597505	0.255678	0.726481
