data_functionalizedCrystal
_audit_creation_method	'MofGen! by Chris Wilmer'
_symmetry_space_group_name_H-M	'P1'
_symmetry_Int_Tables_number	1
_symmetry_cell_setting	triclinic
loop_
_symmetry_equiv_pos_as_xyz
  x,y,z
_cell_length_a	12.759401
_cell_length_b	15.299816
_cell_length_c	12.759401
_cell_angle_alpha	80.322978
_cell_angle_beta	90.005014
_cell_angle_gamma	80.350755
loop_
_atom_site_label
_atom_site_type_symbol
_atom_site_fract_x
_atom_site_fract_y
_atom_site_fract_z
Zn1	Zn	1.678434	-0.359240	0.666448
Zn2	Zn	1.708726	-0.510029	0.521184
Zn3	Zn	1.502774	-0.359222	0.490784
Zn4	Zn	1.533080	-0.510026	0.696825
O5	O	1.605754	-0.434629	0.593810
O6	O	1.829475	-0.379251	0.647189
O7	O	1.681400	-0.490018	0.370129
O8	O	1.500716	-0.233007	0.488650
O9	O	1.851731	-0.490035	0.540464
O10	O	1.629772	-0.233020	0.617710
O11	O	1.530089	-0.379221	0.347794
O12	O	1.359772	-0.379218	0.518105
O13	O	1.552367	-0.490030	0.839817
O14	O	1.382037	-0.490012	0.669483
O15	O	1.659158	-0.379248	0.817500
O16	O	1.710787	-0.636246	0.569919
O17	O	1.581740	-0.636243	0.698961
C18	C	1.332783	-0.434614	0.593792
C19	C	1.216010	-0.434629	0.593814
C20	C	1.149581	-0.377048	0.649510
C21	C	1.039859	-0.377057	0.649519
C22	C	1.063005	-0.492236	0.538134
C23	C	1.172724	-0.492221	0.538120
C24	C	1.652868	-0.668971	0.641058
C25	C	1.673119	-0.769224	0.661307
C26	C	1.461701	-1.052091	0.449451
C27	C	1.442668	-0.957898	0.430429
C28	C	1.500279	-0.910725	0.488147
C29	C	1.576927	-0.957754	0.564889
C30	C	1.595955	-1.051955	0.583919
C31	C	1.634534	-0.910589	0.622614
C32	C	1.711181	-0.957618	0.699357
C33	C	1.730207	-1.051810	0.718383
C34	C	1.672596	-1.098983	0.660665
C35	C	1.615505	-0.816388	0.603585
C36	C	1.749760	-0.816252	0.738053
C37	C	1.768792	-0.910444	0.757075
C38	C	1.879790	-0.434645	0.593829
C39	C	1.996568	-0.434652	0.593837
C40	C	1.605765	-0.434640	0.867846
C41	C	1.605769	-0.434645	0.984623
C42	C	1.558484	-0.199372	0.546401
C43	C	1.538341	-0.099119	0.526197
C44	C	1.684542	-0.492328	1.160849
C45	C	1.684545	-0.492332	1.051126
C46	C	1.526980	-0.376957	1.027850
C47	C	1.526974	-0.376958	1.137573
C48	C	1.605746	-0.434640	1.320845
C49	C	1.605761	-0.434642	1.204069
H50	H	1.553098	-0.778106	0.541101
C51	C	1.197189	-0.313686	0.710764
N52	N	1.233043	-0.265958	0.756899
H53	H	1.462815	-0.329982	1.172762
H54	H	1.380262	-0.919611	0.367947
C55	C	1.015382	-0.555590	0.476882
N56	N	0.979513	-0.603312	0.430748
H57	H	1.792614	-1.090098	0.780876
C58	C	1.479345	-0.807111	0.467215
N59	N	1.463578	-0.729064	0.451441
C60	C	1.440333	-0.313493	0.954692
N61	N	1.375074	-0.265685	0.899589
H62	H	1.226813	-0.539111	0.492760
C63	C	1.771229	-0.555772	1.003586
N64	N	1.836530	-0.603552	0.967779
H65	H	1.688092	-1.175683	0.676145
C66	C	0.966792	-0.313716	0.710792
N67	N	0.911758	-0.266005	0.756947
C68	C	1.398411	-1.103987	0.385898
N69	N	1.350765	-1.143077	0.337999
C70	C	1.853097	-0.962188	0.841495
N71	N	1.916595	-1.001162	0.905081
H72	H	1.796670	-0.777844	0.785054
H73	H	1.748695	-0.539299	1.214988
