data_functionalizedCrystal
_audit_creation_method	'MofGen! by Chris Wilmer'
_symmetry_space_group_name_H-M	'P1'
_symmetry_Int_Tables_number	1
_symmetry_cell_setting	triclinic
loop_
_symmetry_equiv_pos_as_xyz
  x,y,z
_cell_length_a	12.759401
_cell_length_b	14.908520
_cell_length_c	12.759393
_cell_angle_alpha	93.263025
_cell_angle_beta	89.980789
_cell_angle_gamma	93.320968
loop_
_atom_site_label
_atom_site_type_symbol
_atom_site_fract_x
_atom_site_fract_y
_atom_site_fract_z
Zn1	Zn	1.582074	-0.359099	-0.618086
Zn2	Zn	2.082074	0.140901	-0.118086
Zn3	Zn	1.571803	-0.509984	-0.452533
Zn4	Zn	2.071803	-0.009984	0.047467
Zn5	Zn	1.406371	-0.359145	-0.442428
Zn6	Zn	1.906371	0.140855	0.057572
Zn7	Zn	1.396206	-0.509916	-0.628169
Zn8	Zn	1.896206	-0.009916	-0.128169
O9	O	1.489113	-0.434536	-0.535304
O10	O	1.989113	0.065464	-0.035304
O11	O	1.727732	-0.379123	-0.596134
O12	O	2.227732	0.120877	-0.096134
O13	O	1.549814	-0.490022	-0.304174
O14	O	2.049814	0.009978	0.195826
O15	O	1.438231	-0.232895	-0.457281
O16	O	1.938231	0.267105	0.042719
O17	O	1.720186	-0.489977	-0.474503
O18	O	2.220186	0.010023	0.025497
O19	O	1.567319	-0.232861	-0.586336
O20	O	2.067319	0.267139	-0.086336
O21	O	1.428272	-0.379202	-0.296750
O22	O	1.928272	0.120798	0.203250
O23	O	1.258002	-0.379137	-0.467058
O24	O	1.758002	0.120863	0.032942
O25	O	1.420906	-0.489862	-0.773850
O26	O	1.920906	0.010138	-0.273850
O27	O	1.250534	-0.489908	-0.603521
O28	O	1.750534	0.010092	-0.103521
O29	O	1.557462	-0.379057	-0.766441
O30	O	2.057462	0.120943	-0.266441
O31	O	1.539957	-0.636219	-0.484280
O32	O	2.039957	-0.136219	0.015720
O33	O	1.410947	-0.636170	-0.613319
O34	O	1.910947	-0.136170	-0.113319
C35	C	1.216147	-0.434521	-0.535288
C36	C	1.716147	0.065479	-0.035288
C37	C	1.099369	-0.434536	-0.535308
C38	C	1.599369	0.065464	-0.035308
C39	C	1.048430	-0.376918	-0.598752
C40	C	1.548430	0.123082	-0.098752
C41	C	0.938706	-0.376927	-0.598759
C42	C	1.438706	0.123073	-0.098759
C43	C	0.930869	-0.492180	-0.471876
C44	C	1.430869	0.007820	0.028124
C45	C	1.040592	-0.492165	-0.471864
C46	C	1.540592	0.007835	0.028136
C47	C	1.473263	-0.668928	-0.551013
C48	C	1.973263	-0.168928	-0.051013
C49	C	1.466578	-0.769202	-0.557769
C50	C	1.966578	-0.269202	-0.057769
C51	C	1.588494	-0.957618	-0.436203
C52	C	2.088494	-0.457618	0.063797
C53	C	1.582217	-1.051834	-0.442547
C54	C	2.082217	-0.551834	0.057453
C55	C	1.447752	-1.051853	-0.576806
C56	C	1.947752	-0.551853	-0.076806
C57	C	1.454030	-0.957636	-0.570462
C58	C	1.954030	-0.457636	-0.070462
C59	C	1.524402	-0.910522	-0.500157
C60	C	2.024402	-0.410522	-0.000157
C61	C	1.530673	-0.816304	-0.493808
C62	C	2.030673	-0.316304	0.006192
C63	C	1.396215	-0.816324	-0.628072
C64	C	1.896215	-0.316324	-0.128072
C65	C	1.389938	-0.910541	-0.634416
C66	C	1.889938	-0.410541	-0.134416
C67	C	1.763146	-0.434552	-0.535321
C68	C	2.263146	0.065448	-0.035321
C69	C	1.879922	-0.434559	-0.535328
C70	C	2.379922	0.065441	-0.035328
C71	C	1.489196	-0.434447	-0.809331
C72	C	1.989196	0.065553	-0.309331
C73	C	1.489231	-0.434409	-0.926106
C74	C	1.989231	0.065591	-0.426106
C75	C	1.505054	-0.199229	-0.519556
C76	C	2.005054	0.300771	-0.019556
C77	C	1.511847	-0.098955	-0.512845
C78	C	2.011847	0.401045	-0.012845
C79	C	1.560365	-0.376670	-1.086840
C80	C	2.060365	0.123330	-0.586840
C81	C	1.560343	-0.376705	-0.977118
C82	C	2.060343	0.123295	-0.477118
C83	C	1.418144	-0.492089	-0.984821
C84	C	1.918144	0.007911	-0.484821
C85	C	1.418172	-0.492058	-1.094541
C86	C	1.918172	0.007942	-0.594541
C87	C	1.489096	-0.434560	-0.262338
C88	C	1.989096	0.065440	0.237662
C89	C	1.489282	-0.434343	-0.145548
C90	C	1.989282	0.065657	0.354452
H91	H	1.096284	-0.329989	-0.650408
H92	H	1.596284	0.170011	-0.150408
N93	N	1.637015	-0.314503	-0.913797
N94	N	2.137015	0.185497	-0.413797
H95	H	1.682064	-0.277940	-0.962762
H96	H	2.182064	0.222060	-0.462762
H97	H	1.597068	-0.272766	-0.865474
H98	H	2.097068	0.227234	-0.365474
H99	H	1.344023	-0.777968	-0.680144
H100	H	1.844023	-0.277968	-0.180144
N101	N	1.637056	-0.314422	-1.141857
N102	N	2.137056	0.185578	-0.641857
H103	H	1.682083	-0.277892	-1.088012
H104	H	2.182083	0.222108	-0.588012
H105	H	1.683201	-0.351131	-1.189844
H106	H	2.183201	0.148869	-0.689844
N107	N	0.867460	-0.554338	-0.403465
N108	N	1.367460	-0.054338	0.096535
H109	H	0.882212	-0.618810	-0.423976
H110	H	1.382212	-0.118810	0.076024
H111	H	0.887495	-0.540172	-0.327501
H112	H	1.387495	-0.040172	0.172499
H113	H	1.360248	-0.539077	-0.943278
H114	H	1.860248	-0.039077	-0.443278
H115	H	1.082067	-0.539085	-0.420195
H116	H	1.582067	-0.039085	0.079805
N117	N	1.606569	-0.765484	-0.417983
N118	N	2.106569	-0.265484	0.082017
H119	H	1.646221	-0.809620	-0.378435
H120	H	2.146221	-0.309620	0.121565
H121	H	1.657770	-0.726330	-0.458161
H122	H	2.157770	-0.226330	0.041839
N123	N	1.341505	-0.554271	-1.157871
N124	N	1.841505	-0.054271	-0.657871
H125	H	1.296448	-0.590833	-1.108912
H126	H	1.796448	-0.090833	-0.608912
H127	H	1.295386	-0.517533	-1.200937
H128	H	1.795386	-0.017533	-0.700937
H129	H	1.645787	-0.919257	-0.378951
H130	H	2.145787	-0.419257	0.121049
H131	H	0.897236	-0.330008	-0.650420
H132	H	1.397236	0.169992	-0.150420
N133	N	1.651347	-1.102632	-0.373573
N134	N	2.151347	-0.602632	0.126427
H135	H	1.696877	-1.058486	-0.328075
H136	H	2.196877	-0.558486	0.171925
H137	H	1.606002	-1.141786	-0.327548
H138	H	2.106002	-0.641786	0.172452
H139	H	1.332646	-0.948914	-0.691659
H140	H	1.832646	-0.448914	-0.191659
N141	N	1.371863	-1.102676	-0.652635
N142	N	1.871863	-0.602676	-0.152635
H143	H	1.377617	-1.169507	-0.646948
H144	H	1.877617	-0.669507	-0.146948
H145	H	1.297929	-1.086281	-0.635107
H146	H	1.797929	-0.586281	-0.135107
