data_functionalizedCrystal
_audit_creation_method	'MofGen! by Chris Wilmer'
_symmetry_space_group_name_H-M	'P1'
_symmetry_Int_Tables_number	1
_symmetry_cell_setting	triclinic
loop_
_symmetry_equiv_pos_as_xyz
  x,y,z
_cell_length_a	8.559649
_cell_length_b	8.559649
_cell_length_c	7.681481
_cell_angle_alpha	85.068001
_cell_angle_beta	94.913240
_cell_angle_gamma	69.778664
loop_
_atom_site_label
_atom_site_type_symbol
_atom_site_fract_x
_atom_site_fract_y
_atom_site_fract_z
O1	O	-2.109661	0.037797	0.146401
O2	O	-1.609661	0.537797	0.646401
O3	O	-1.634175	-0.045985	0.146409
O4	O	-1.134175	0.454015	0.646409
O5	O	-1.913810	0.233649	0.146397
O6	O	-1.413810	0.733649	0.646397
O7	O	-1.830027	-0.241837	0.146413
O8	O	-1.330027	0.258163	0.646413
O9	O	-1.948237	0.268137	-0.146462
O10	O	-1.448237	0.768137	0.353538
O11	O	-1.668602	-0.011497	-0.146450
O12	O	-1.168602	0.488503	0.353550
O13	O	-2.144088	0.072285	-0.146459
O14	O	-1.644088	0.572285	0.353541
Zn15	Zn	-1.911811	0.035869	-0.192952
Zn16	Zn	-1.411811	0.535869	0.307048
Zn17	Zn	-1.866452	-0.009570	0.192903
Zn18	Zn	-1.366452	0.490430	0.692903
O19	O	-1.864454	-0.207350	-0.146447
O20	O	-1.364454	0.292650	0.353553
C21	C	-1.591080	-0.035091	-0.000019
C22	C	-1.091080	0.464909	0.499981
C23	C	-1.411380	-0.053990	-0.000016
C24	C	-0.911380	0.446010	0.499984
C25	C	-1.937372	0.311202	-0.000030
C26	C	-1.437372	0.811202	0.499970
C27	C	-1.956271	0.490901	-0.000025
C28	C	-1.456271	0.990901	0.499975
C29	C	-2.187183	0.061390	-0.000026
C30	C	-1.687183	0.561390	0.499974
C31	C	-2.366882	0.080288	-0.000018
C32	C	-1.866882	0.580288	0.499982
N33	N	-1.942779	0.066883	-0.456287
N34	N	-1.442779	0.566883	0.043713
C35	C	-1.840891	0.715098	-0.000018
C36	C	-1.340891	1.215098	0.499982
C37	C	-1.821992	0.535399	-0.000021
C38	C	-1.321992	1.035399	0.499979
N39	N	-1.835498	-0.040569	0.456238
N40	N	-1.335498	0.459431	0.956238
H41	H	-1.466259	0.209707	-0.000013
H42	H	-0.966259	0.709707	0.499987
H43	H	-2.052308	0.176557	-0.531498
H44	H	-1.552308	0.676557	-0.031498
Br45	Br	-1.245735	-0.269721	0.000016
Br46	Br	-0.745735	0.230279	0.500016
H47	H	-2.085691	0.590280	-0.000034
H48	H	-1.585691	1.090280	0.499966
Br49	Br	-1.606267	0.369760	-0.000039
Br50	Br	-1.106267	0.869760	0.499961
H51	H	-1.725988	-0.150245	-0.468560
H52	H	-1.225988	0.349755	0.031440
