data_functionalizedCrystal
_audit_creation_method	'MofGen! by Chris Wilmer'
_symmetry_space_group_name_H-M	'P1'
_symmetry_Int_Tables_number	1
_symmetry_cell_setting	triclinic
loop_
_symmetry_equiv_pos_as_xyz
  x,y,z
_cell_length_a	18.215407
_cell_length_b	12.759400
_cell_length_c	18.215399
_cell_angle_alpha	89.976571
_cell_angle_beta	89.982632
_cell_angle_gamma	90.010609
loop_
_atom_site_label
_atom_site_type_symbol
_atom_site_fract_x
_atom_site_fract_y
_atom_site_fract_z
Zn1	Zn	1.125132	-0.418349	-0.416091
Zn2	Zn	1.625132	0.081651	0.083909
Zn3	Zn	1.125065	-0.594046	-0.293034
Zn4	Zn	1.625065	-0.094046	0.206966
Zn5	Zn	1.002064	-0.418374	-0.293043
Zn6	Zn	1.502064	0.081626	0.206957
Zn7	Zn	1.002055	-0.593978	-0.416064
Zn8	Zn	1.502055	-0.093978	0.083936
O9	O	1.063579	-0.506187	-0.354558
O10	O	1.563579	-0.006187	0.145442
O11	O	1.228107	-0.441673	-0.399774
O12	O	1.728107	0.058327	0.100226
O13	O	1.108725	-0.570782	-0.190051
O14	O	1.608725	-0.070782	0.309949
O15	O	1.018421	-0.271350	-0.309381
O16	O	1.518421	0.228650	0.190619
O17	O	1.228059	-0.570757	-0.309365
O18	O	1.728059	-0.070757	0.190635
O19	O	1.108838	-0.271331	-0.399783
O20	O	1.608838	0.228669	0.100217
O21	O	1.018357	-0.441716	-0.190058
O22	O	1.518357	0.058284	0.309942
O23	O	0.899079	-0.441650	-0.309355
O24	O	1.399079	0.058350	0.190645
O25	O	1.018406	-0.570642	-0.519052
O26	O	1.518406	-0.070642	-0.019052
O27	O	0.899072	-0.570666	-0.399738
O28	O	1.399072	-0.070666	0.100262
O29	O	1.108830	-0.441608	-0.519071
O30	O	1.608830	0.058392	-0.019071
O31	O	1.108716	-0.741058	-0.309339
O32	O	1.608716	-0.241058	0.190661
O33	O	1.018341	-0.741008	-0.399729
O34	O	1.518341	-0.241008	0.100271
C35	C	0.872373	-0.506154	-0.354545
C36	C	1.372373	-0.006154	0.145455
C37	C	0.790574	-0.506166	-0.354557
C38	C	1.290574	-0.006166	0.145443
C39	C	0.602405	-0.439090	-0.401707
C40	C	1.102405	0.060910	0.098293
C41	C	0.525546	-0.439099	-0.401710
C42	C	1.025546	0.060901	0.098290
C43	C	0.525506	-0.573313	-0.307421
C44	C	1.025506	-0.073313	0.192579
C45	C	0.602363	-0.573298	-0.307416
C46	C	1.102363	-0.073298	0.192584
C47	C	0.640811	-0.506188	-0.354563
C48	C	1.140811	-0.006188	0.145437
C49	C	0.487095	-0.506212	-0.354571
C50	C	0.987095	-0.006212	0.145429
C51	C	0.403761	-0.506222	-0.354573
C52	C	0.903761	-0.006222	0.145427
C53	C	0.724150	-0.506176	-0.354560
C54	C	1.224150	-0.006176	0.145440
C55	C	1.063541	-0.779154	-0.354546
C56	C	1.563541	-0.279154	0.145454
C57	C	1.063592	-0.895931	-0.354566
C58	C	1.563592	-0.395931	0.145434
C59	C	1.110648	-0.950703	-0.401677
C60	C	1.610648	-0.450703	0.098323
C61	C	1.110682	-1.060427	-0.401695
C62	C	1.610682	-0.560427	0.098305
C63	C	1.016601	-1.060596	-0.307484
C64	C	1.516601	-0.560596	0.192516
C65	C	1.016564	-0.950874	-0.307471
C66	C	1.516564	-0.450874	0.192529
C67	C	1.157676	-0.895760	-0.448772
C68	C	1.657676	-0.395760	0.051228
C69	C	1.204737	-0.950533	-0.495887
C70	C	1.704737	-0.450533	0.004113
C71	C	1.204771	-1.060257	-0.495905
C72	C	1.704771	-0.560257	0.004095
C73	C	1.157744	-1.115208	-0.448808
C74	C	1.657744	-0.615208	0.051192
C75	C	1.255532	-0.506220	-0.354571
C76	C	1.755532	-0.006220	0.145429
C77	C	1.337331	-0.506234	-0.354577
C78	C	1.837331	-0.006234	0.145423
C79	C	1.063624	-0.506114	-0.546511
C80	C	1.563624	-0.006114	-0.046511
C81	C	1.063643	-0.506083	-0.628310
C82	C	1.563643	-0.006083	-0.128310
C83	C	1.063638	-0.232154	-0.354586
C84	C	1.563638	0.267846	0.145414
C85	C	1.063663	-0.115377	-0.354598
C86	C	1.563663	0.384623	0.145402
C87	C	1.110744	-0.438832	-0.816515
C88	C	1.610744	0.061168	-0.316515
C89	C	1.110753	-0.438802	-0.893374
C90	C	1.610753	0.061198	-0.393374
C91	C	1.016595	-0.573172	-0.893343
C92	C	1.516595	-0.073172	-0.393343
C93	C	1.016583	-0.573197	-0.816485
C94	C	1.516583	-0.073197	-0.316485
C95	C	1.063661	-0.506028	-0.778074
C96	C	1.563661	-0.006028	-0.278074
C97	C	1.063682	-0.505973	-0.931790
C98	C	1.563682	-0.005973	-0.431790
C99	C	1.063691	-0.505940	-1.015123
C100	C	1.563691	-0.005940	-0.515123
C101	C	1.063652	-0.506059	-0.694735
C102	C	1.563652	-0.006059	-0.194735
C103	C	1.063577	-0.506183	-0.163352
C104	C	1.563577	-0.006183	0.336648
C105	C	1.063700	-0.505918	-0.081553
C106	C	1.563700	-0.005918	0.418447
H107	H	0.633634	-0.627938	-0.269021
H108	H	1.133634	-0.127938	0.230979
H109	H	0.633706	-0.384442	-0.440095
H110	H	1.133706	0.115558	0.059905
Br111	Br	0.473426	-0.348030	-0.465692
Br112	Br	0.973426	0.151970	0.034308
Br113	Br	0.952701	-0.876533	-0.243533
Br114	Br	1.452701	-0.376533	0.256467
Br115	Br	1.174634	-0.347674	-0.764387
Br116	Br	1.674634	0.152326	-0.264387
Br117	Br	1.174658	-0.347611	-0.945542
Br118	Br	1.674658	0.152389	-0.445542
Br119	Br	1.268545	-0.875960	-0.559810
Br120	Br	1.768545	-0.375960	-0.059810
Br121	Br	0.473323	-0.664387	-0.243440
Br122	Br	0.973323	-0.164387	0.256560
H123	H	1.157655	-0.806417	-0.448761
H124	H	1.657655	-0.306417	0.051239
H125	H	1.243084	-1.104850	-0.534273
H126	H	1.743084	-0.604850	-0.034273
Br127	Br	0.952708	-0.664328	-0.945477
Br128	Br	1.452708	-0.164328	-0.445477
Br129	Br	1.157914	-1.264120	-0.448712
Br130	Br	1.657914	-0.764120	0.051288
H131	H	0.978315	-1.105347	-0.269141
H132	H	1.478315	-0.605347	0.230859
Br133	Br	0.952674	-0.664388	-0.764309
Br134	Br	1.452674	-0.164388	-0.264309
