data_functionalizedCrystal
_audit_creation_method	'MofGen! by Chris Wilmer'
_symmetry_space_group_name_H-M	'P1'
_symmetry_Int_Tables_number	1
_symmetry_cell_setting	triclinic
loop_
_symmetry_equiv_pos_as_xyz
  x,y,z
_cell_length_a	25.639243
_cell_length_b	25.639240
_cell_length_c	17.077396
_cell_angle_alpha	89.961743
_cell_angle_beta	89.977841
_cell_angle_gamma	90.035481
loop_
_atom_site_label
_atom_site_type_symbol
_atom_site_fract_x
_atom_site_fract_y
_atom_site_fract_z
Zn1	Zn	0.799279	-0.208113	-0.443845
Zn2	Zn	1.299279	0.291887	0.056155
Zn3	Zn	0.799202	-0.295550	-0.312557
Zn4	Zn	1.299202	0.204450	0.187443
Zn5	Zn	0.711845	-0.208135	-0.312587
Zn6	Zn	1.211845	0.291865	0.187413
Zn7	Zn	0.711809	-0.295523	-0.443774
Zn8	Zn	1.211809	0.204477	0.056226
O9	O	0.755534	-0.251830	-0.378191
O10	O	1.255534	0.248170	0.121809
O11	O	0.872434	-0.219714	-0.426446
O12	O	1.372434	0.280286	0.073554
O13	O	0.787597	-0.283975	-0.202714
O14	O	1.287597	0.216025	0.297286
O15	O	0.723491	-0.134967	-0.330041
O16	O	1.223491	0.365033	0.169959
O17	O	0.872377	-0.283954	-0.329989
O18	O	1.372377	0.216046	0.170011
O19	O	0.787728	-0.134950	-0.426476
O20	O	1.287728	0.365050	0.073524
O21	O	0.723416	-0.219751	-0.202736
O22	O	1.223416	0.280249	0.297264
O23	O	0.638675	-0.219725	-0.329972
O24	O	1.138675	0.280275	0.170028
O25	O	0.723429	-0.283907	-0.553631
O26	O	1.223429	0.216093	-0.053631
O27	O	0.638649	-0.283929	-0.426355
O28	O	1.138649	0.216071	0.073645
O29	O	0.787693	-0.219687	-0.553683
O30	O	1.287693	0.280313	-0.053683
O31	O	0.787561	-0.368712	-0.329921
O32	O	1.287561	0.131288	0.170079
O33	O	0.723354	-0.368692	-0.426326
O34	O	1.223354	0.131308	0.073674
C35	C	0.619691	-0.251827	-0.378160
C36	C	1.119691	0.248173	0.121840
C37	C	0.561577	-0.251838	-0.378165
C38	C	1.061577	0.248162	0.121835
C39	C	0.201238	-0.218433	-0.428500
C40	C	0.701238	0.281567	0.071500
C41	C	0.146634	-0.218433	-0.428504
C42	C	0.646634	0.281567	0.071496
O43	O	0.118417	-0.190021	-0.471262
O44	O	0.618417	0.309979	0.028738
N45	N	0.119295	-0.251829	-0.378212
N46	N	0.619295	0.248171	0.121788
C47	C	0.146563	-0.285224	-0.327906
C48	C	0.646563	0.214776	0.172094
O49	O	0.118295	-0.313629	-0.285129
O50	O	0.618295	0.186371	0.214871
C51	C	0.201166	-0.285221	-0.327898
C52	C	0.701166	0.214779	0.172102
C53	C	0.228502	-0.251827	-0.378199
C54	C	0.728502	0.248173	0.121801
C55	C	0.228574	-0.185041	-0.478796
C56	C	0.728574	0.314959	0.021204
C57	C	0.283175	-0.185042	-0.478792
C58	C	0.783175	0.314958	0.021208
C59	C	0.310439	-0.218436	-0.428492
C60	C	0.810439	0.281564	0.071508
C61	C	0.283103	-0.251828	-0.378195
C62	C	0.783103	0.248172	0.121805
C63	C	0.228433	-0.318613	-0.277589
C64	C	0.728433	0.181387	0.222411
C65	C	0.283040	-0.318607	-0.277584
C66	C	0.783040	0.181393	0.222416
C67	C	0.310376	-0.285213	-0.327886
C68	C	0.810376	0.214787	0.172114
C69	C	0.364968	-0.285223	-0.327891
C70	C	0.864968	0.214777	0.172109
N71	N	0.392307	-0.251827	-0.378183
N72	N	0.892307	0.248173	0.121817
C73	C	0.365042	-0.218433	-0.428483
C74	C	0.865042	0.281567	0.071517
C75	C	0.031892	-0.285226	-0.327926
C76	C	0.531892	0.214774	0.172074
C77	C	-0.022710	-0.285232	-0.327938
C78	C	0.477290	0.214768	0.172062
C79	C	-0.022636	-0.218440	-0.428535
C80	C	0.477364	0.281560	0.071465
C81	C	0.031968	-0.218437	-0.428527
C82	C	0.531968	0.281563	0.071473
C83	C	0.059231	-0.251830	-0.378219
C84	C	0.559231	0.248170	0.121781
C85	C	0.479707	-0.218439	-0.428472
C86	C	0.979707	0.281561	0.071528
C87	C	0.534313	-0.218444	-0.428465
C88	C	1.034313	0.281556	0.071535
C89	C	0.534233	-0.285234	-0.327865
C90	C	1.034233	0.214766	0.172135
C91	C	0.479633	-0.285231	-0.327874
C92	C	0.979633	0.214769	0.172126
C93	C	0.452371	-0.251829	-0.378180
C94	C	0.952371	0.248171	0.121820
O95	O	0.393219	-0.313618	-0.285153
O96	O	0.893219	0.186382	0.214847
O97	O	0.393317	-0.190027	-0.471246
O98	O	0.893317	0.309973	0.028754
C99	C	0.755460	-0.387673	-0.378129
C100	C	1.255460	0.112327	0.121871
C101	C	0.755476	-0.445787	-0.378129
C102	C	1.255476	0.054213	0.121871
C103	C	0.788998	-0.806103	-0.428495
C104	C	1.288998	-0.306103	0.071505
C105	C	0.789014	-0.860707	-0.428511
C106	C	1.289014	-0.360707	0.071489
O107	O	0.817428	-0.888904	-0.471270
O108	O	1.317428	-0.388904	0.028730
N109	N	0.755606	-0.888069	-0.378267
N110	N	1.255606	-0.388069	0.121733
C111	C	0.722177	-0.860824	-0.328009
C112	C	1.222177	-0.360824	0.171991
O113	O	0.693763	-0.889112	-0.285274
O114	O	1.193763	-0.389112	0.214726
C115	C	0.722160	-0.806221	-0.327997
C116	C	1.222160	-0.306221	0.172003
C117	C	0.755573	-0.778862	-0.378239
C118	C	1.255573	-0.278862	0.121761
C119	C	0.822409	-0.778744	-0.478733
C120	C	1.322409	-0.278744	0.021267
C121	C	0.822394	-0.724143	-0.478716
C122	C	1.322394	-0.224143	0.021284
C123	C	0.788969	-0.696902	-0.428461
C124	C	1.288969	-0.196902	0.071539
C125	C	0.755558	-0.724261	-0.378222
C126	C	1.255558	-0.224261	0.121778
C127	C	0.688729	-0.778977	-0.277744
C128	C	1.188729	-0.278977	0.222256
C129	C	0.688713	-0.724370	-0.277737
C130	C	1.188713	-0.224370	0.222263
C131	C	0.722127	-0.697011	-0.327979
C132	C	1.222127	-0.197011	0.172021
C133	C	0.722118	-0.642419	-0.327949
C134	C	1.222118	-0.142419	0.172051
N135	N	0.755526	-0.615057	-0.378193
N136	N	1.255526	-0.115057	0.121807
C137	C	0.788951	-0.642299	-0.428449
C138	C	1.288951	-0.142299	0.071551
C139	C	0.722216	-0.975495	-0.328037
C140	C	1.222216	-0.475495	0.171963
C141	C	0.722236	-1.030097	-0.328044
C142	C	1.222236	-0.530097	0.171956
C143	C	0.789072	-1.029976	-0.428548
C144	C	1.289072	-0.529976	0.071452
C145	C	0.789055	-0.975373	-0.428536
C146	C	1.289055	-0.475373	0.071464
C147	C	0.755624	-0.948133	-0.378282
C148	C	1.255624	-0.448133	0.121718
C149	C	0.788918	-0.527634	-0.428409
C150	C	1.288918	-0.027634	0.071591
C151	C	0.788901	-0.473028	-0.428385
C152	C	1.288901	0.026972	0.071615
C153	C	0.722064	-0.473154	-0.327885
C154	C	1.222064	0.026846	0.172115
C155	C	0.722082	-0.527754	-0.327905
C156	C	1.222082	-0.027754	0.172095
C157	C	0.755510	-0.554993	-0.378174
C158	C	1.255510	-0.054993	0.121826
O159	O	0.693717	-0.614188	-0.285214
O160	O	1.193717	-0.114188	0.214786
O161	O	0.817356	-0.614004	-0.471184
O162	O	1.317356	-0.114004	0.028816
C163	C	0.891907	-0.251834	-0.378222
C164	C	1.391907	0.248166	0.121778
C165	C	0.950021	-0.251836	-0.378236
C166	C	1.450021	0.248164	0.121764
C167	C	0.755565	-0.251792	-0.582935
C168	C	1.255565	0.248208	-0.082935
C169	C	0.755579	-0.251775	-0.670185
C170	C	1.255579	0.248225	-0.170185
C171	C	0.755622	-0.115457	-0.378270
C172	C	1.255622	0.384543	0.121730
C173	C	0.755660	-0.057343	-0.378303
C174	C	1.255660	0.442657	0.121697
C175	C	0.789042	-0.218333	-0.711204
C176	C	1.289042	0.281667	-0.211204
C177	C	0.789048	-0.218316	-0.793184
C178	C	1.289048	0.281684	-0.293184
C179	C	0.755594	-0.251744	-0.834144
C180	C	1.255594	0.248256	-0.334144
C181	C	0.722127	-0.285187	-0.793120
C182	C	1.222127	0.214813	-0.293120
C183	C	0.722118	-0.285202	-0.711141
C184	C	1.222118	0.214798	-0.211141
C185	C	0.722148	-0.285156	-0.963990
C186	C	1.222148	0.214844	-0.463990
C187	C	0.722157	-0.285142	-1.045975
C188	C	1.222157	0.214858	-0.545975
C189	C	0.789078	-0.218270	-1.046033
C190	C	1.289078	0.281730	-0.546033
C191	C	0.789069	-0.218284	-0.964054
C192	C	1.289069	0.281716	-0.464054
C193	C	0.755603	-0.251729	-0.923036
C194	C	1.255603	0.248271	-0.423036
C195	C	0.755532	-0.251831	-0.174243
C196	C	1.255532	0.248169	0.325757
C197	C	0.755620	-0.251700	-0.086994
C198	C	1.255620	0.248300	0.413006
H199	H	0.305427	-0.157848	-0.519751
H200	H	0.805427	0.342152	-0.019751
N201	N	0.825132	-0.182282	-0.667032
N202	N	1.325132	0.317718	-0.167032
H203	H	0.849344	-0.203541	-0.633021
H204	H	1.349344	0.296459	-0.133021
H205	H	0.846295	-0.161104	-0.705513
H206	H	1.346295	0.338896	-0.205513
N207	N	0.450145	-0.321255	-0.273634
N208	N	0.950145	0.178745	0.226366
H209	H	0.475705	-0.342411	-0.241771
H210	H	0.975705	0.157589	0.258229
H211	H	0.427495	-0.299941	-0.237367
H212	H	0.927495	0.200059	0.262633
N213	N	0.563645	-0.321249	-0.273613
N214	N	1.063645	0.178751	0.226387
H215	H	0.602383	-0.316177	-0.281244
H216	H	1.102383	0.183823	0.218756
H217	H	0.554089	-0.313059	-0.217578
H218	H	1.054089	0.186941	0.282422
N219	N	0.825152	-0.182227	-0.919881
N220	N	1.325152	0.317773	-0.419881
H221	H	0.803914	-0.158004	-0.885877
H222	H	1.303914	0.341996	-0.385877
H223	H	0.849358	-0.203517	-0.885908
H224	H	1.349358	0.296483	-0.385908
H225	H	0.054221	-0.191243	-0.469485
H226	H	0.554221	0.308757	0.030515
N227	N	0.858461	-0.808129	-0.532935
N228	N	1.358461	-0.308129	-0.032935
H229	H	0.837207	-0.830784	-0.569287
H230	H	1.337207	-0.330784	-0.069287
H231	H	0.879617	-0.782478	-0.564708
H232	H	1.379617	-0.282478	-0.064708
N233	N	0.652654	-0.694989	-0.223535
N234	N	1.152654	-0.194989	0.276465
H235	H	0.631492	-0.720610	-0.191713
H236	H	1.131492	-0.220610	0.308287
H237	H	0.673942	-0.672336	-0.187229
H238	H	1.173942	-0.172336	0.312771
N239	N	0.825092	-0.945866	-0.482726
N240	N	1.325092	-0.445866	0.017274
H241	H	0.846268	-0.971414	-0.514560
H242	H	1.346268	-0.471414	-0.014560
H243	H	0.803789	-0.923213	-0.519021
H244	H	1.303789	-0.423213	-0.019021
N245	N	0.686025	-0.321275	-0.666905
N246	N	1.186025	0.178725	-0.166905
H247	H	0.707251	-0.345512	-0.632882
H248	H	1.207251	0.154488	-0.132882
H249	H	0.661811	-0.299995	-0.632944
H250	H	1.161811	0.200005	-0.132944
H251	H	0.556567	-0.191250	-0.469429
H252	H	1.056567	0.308750	0.030571
N253	N	0.686163	-0.946120	-0.273816
N254	N	1.186163	-0.446120	0.226184
H255	H	0.707419	-0.923467	-0.237464
H256	H	1.207419	-0.423467	0.262536
H257	H	0.661916	-0.923500	-0.305722
H258	H	1.161916	-0.423500	0.194278
H259	H	0.457517	-0.191238	-0.469433
H260	H	0.957517	0.308762	0.030567
H261	H	0.816299	-0.191085	-0.826578
H262	H	1.316299	0.308915	-0.326578
N263	N	0.825125	-1.059363	-0.482755
N264	N	1.325125	-0.559363	0.017245
H265	H	0.820062	-1.098105	-0.475136
H266	H	1.320062	-0.598105	0.024864
H267	H	0.816962	-1.049797	-0.538803
H268	H	1.316962	-0.549797	-0.038803
N269	N	0.824936	-0.443518	-0.482582
N270	N	1.324936	0.056482	0.017418
H271	H	0.849173	-0.420859	-0.450714
H272	H	1.349173	0.079141	0.049286
H273	H	0.846076	-0.469095	-0.514413
H274	H	1.346076	0.030905	-0.014413
H275	H	0.206381	-0.157845	-0.519757
H276	H	0.706381	0.342155	-0.019757
N277	N	0.686201	-1.059605	-0.273852
N278	N	1.186201	-0.559605	0.226148
H279	H	0.707468	-1.082261	-0.237510
H280	H	1.207468	-0.582261	0.262490
H281	H	0.665033	-1.034025	-0.242067
H282	H	1.165033	-0.534025	0.257933
H283	H	0.694888	-0.312382	-0.930595
H284	H	1.194888	0.187618	-0.430595
N285	N	0.824974	-0.557012	-0.482617
N286	N	1.324974	-0.057012	0.017383
H287	H	0.803721	-0.579665	-0.518973
H288	H	1.303721	-0.079665	-0.018973
H289	H	0.846130	-0.531359	-0.514385
H290	H	1.346130	-0.031359	-0.014385
H291	H	0.694885	-0.312403	-0.826477
H292	H	1.194885	0.187597	-0.326477
H293	H	0.661520	-0.801243	-0.236831
H294	H	1.161520	-0.301243	0.263169
N295	N	0.686050	-0.557267	-0.273709
N296	N	1.186050	-0.057267	0.226291
H297	H	0.664875	-0.531722	-0.241867
H298	H	1.164875	-0.031722	0.258133
H299	H	0.661846	-0.579923	-0.305634
H300	H	1.161846	-0.079923	0.194366
H301	H	0.694851	-0.450965	-0.286965
H302	H	1.194851	0.049035	0.213035
H303	H	0.816327	-0.191037	-1.079434
H304	H	1.316327	0.308963	-0.579434
H305	H	0.694914	-0.312361	-1.079323
H306	H	1.194914	0.187639	-0.579323
H307	H	-0.044844	-0.191247	-0.469491
H308	H	0.455156	0.308753	0.030509
H309	H	0.054087	-0.312423	-0.286961
H310	H	0.554087	0.187577	0.213039
N311	N	-0.052194	-0.321253	-0.273693
N312	N	0.447806	0.178747	0.226307
H313	H	-0.042709	-0.358620	-0.285775
H314	H	0.457291	0.141380	0.214225
H315	H	-0.042689	-0.313040	-0.217653
H316	H	0.457311	0.186960	0.282347
N317	N	0.198957	-0.354628	-0.223330
N318	N	0.698957	0.145372	0.276670
H319	H	0.208443	-0.391995	-0.235403
H320	H	0.708443	0.108005	0.264597
H321	H	0.208465	-0.346407	-0.167293
H322	H	0.708465	0.153593	0.332707
N323	N	0.312446	-0.354623	-0.223319
N324	N	0.812446	0.145377	0.276681
H325	H	0.286839	-0.375775	-0.191458
H326	H	0.786839	0.124225	0.308542
H327	H	0.335096	-0.378848	-0.255194
H328	H	0.835096	0.121152	0.244806
H329	H	0.849600	-0.701870	-0.519630
H330	H	1.349600	-0.201870	-0.019630
