data_functionalizedCrystal
_audit_creation_method	'MofGen! by Chris Wilmer'
_symmetry_space_group_name_H-M	'P1'
_symmetry_Int_Tables_number	1
_symmetry_cell_setting	triclinic
loop_
_symmetry_equiv_pos_as_xyz
  x,y,z
_cell_length_a	15.944551
_cell_length_b	11.026607
_cell_length_c	10.065875
_cell_angle_alpha	79.268236
_cell_angle_beta	98.743338
_cell_angle_gamma	96.042377
loop_
_atom_site_label
_atom_site_type_symbol
_atom_site_fract_x
_atom_site_fract_y
_atom_site_fract_z
O1	O	-1.147764	-0.138698	-0.113343
O2	O	-0.906134	-0.157989	-0.113377
O3	O	-1.006922	0.028311	-0.113358
O4	O	-1.046975	-0.324998	-0.113362
O5	O	-0.987725	-0.007357	0.113627
O6	O	-0.886936	-0.193656	0.113609
O7	O	-1.128566	-0.174365	0.113642
Zn8	Zn	-1.004703	-0.189674	0.149664
Zn9	Zn	-1.029997	-0.142680	-0.149399
O10	O	-1.027778	-0.360665	0.113623
C11	C	-0.865120	-0.175021	0.000112
C12	C	-0.771512	-0.172617	0.000099
C13	C	-0.989935	0.055689	0.000132
C14	C	-0.967908	0.190406	0.000124
C15	C	-1.169580	-0.157333	0.000151
C16	C	-1.263189	-0.159735	0.000154
C17	C	-0.538329	-0.051402	0.000127
C18	C	-0.495283	-0.090106	-0.111789
C19	C	-0.600128	-0.168275	0.000115
C20	C	-0.476383	-0.125299	0.112000
C21	C	-0.434578	-0.164073	0.000137
C22	C	-0.558324	-0.206997	-0.111894
C23	C	-0.539418	-0.242189	0.111996
C24	C	-0.496406	-0.280974	0.000053
C25	C	-0.695497	-0.170692	0.000101
C26	C	-0.339212	-0.161664	0.000141
C27	C	-1.044765	-0.388043	0.000130
C28	C	-1.066792	-0.522759	0.000129
N29	N	-0.987447	-0.221745	0.353766
C30	C	-1.028728	0.264206	0.000131
C31	C	-1.005964	0.403443	0.000123
N32	N	-1.047258	-0.110600	-0.353501
C33	C	-1.023986	-0.153831	0.421552
C34	C	-1.010713	-0.178523	0.578717
H35	H	-0.557011	0.045616	-0.000010
O36	O	-0.885637	0.237821	0.000290
C37	C	-0.835490	0.179735	0.117861
H38	H	-0.868262	0.085729	0.157066
H39	H	-0.827249	0.240044	0.200174
C40	C	-0.707324	0.277265	0.033984
C41	C	-0.747572	0.161800	0.082130
H42	H	-0.653091	0.266206	0.011947
H43	H	-0.741108	0.316402	-0.045224
H44	H	-0.700465	0.327510	0.102586
H45	H	-0.754440	0.111563	0.013522
H46	H	-0.713787	0.122654	0.161325
H47	H	-0.937038	0.443338	0.000104
H48	H	-0.475703	-0.025806	-0.206406
O49	O	-1.072946	-0.062625	0.351810
C50	C	-1.023482	0.025022	0.269150
H51	H	-0.966925	-0.020140	0.247926
H52	H	-0.999469	0.106117	0.324086
C53	C	-1.147749	0.127691	0.159383
C54	C	-1.078289	0.072219	0.133306
H55	H	-1.181557	0.156810	0.075590
H56	H	-1.181075	0.068645	0.215076
H57	H	-1.127728	0.195263	0.205167
H58	H	-1.098310	0.004639	0.087539
H59	H	-1.044968	0.131255	0.077601
H60	H	-0.477930	-0.378061	-0.000011
H61	H	-0.969598	-0.254948	0.637030
O62	O	-0.938330	-0.312776	0.423479
C63	C	-0.869618	-0.260878	0.506116
H64	H	-0.886744	-0.169164	0.527373
H65	H	-0.810907	-0.244242	0.451142
C66	C	-0.829698	-0.463196	0.615821
C67	C	-0.850736	-0.350556	0.641940
H68	H	-0.818048	-0.518515	0.699602
H69	H	-0.875989	-0.498162	0.560144
H70	H	-0.780775	-0.449316	0.570006
H71	H	-0.899664	-0.364436	0.687738
H72	H	-0.804453	-0.315595	0.697628
H73	H	-1.088366	-0.034167	0.588186
O74	O	-1.110986	0.216713	-0.000103
C75	C	-1.161137	0.274848	-0.117640
H76	H	-1.118919	0.314188	-0.199809
H77	H	-1.193307	0.353081	-0.091058
C78	C	-1.281342	0.131213	-0.070019
C79	C	-1.229491	0.179521	-0.170945
H80	H	-1.323509	0.072414	-0.102898
H81	H	-1.247557	0.092049	0.009171
H82	H	-1.308143	0.196417	-0.047876
H83	H	-1.202683	0.114320	-0.193073
H84	H	-1.263274	0.218672	-0.250140
H85	H	-0.593789	-0.241509	-0.206613
H86	H	-1.135728	0.437366	0.000036
H87	H	-0.559014	-0.306450	0.206617
O88	O	-0.434046	-0.083875	0.224836
C89	C	-0.455185	0.037198	0.224386
H90	H	-0.519247	0.053309	0.158872
H91	H	-0.404115	0.106998	0.180699
C92	C	-0.382046	0.033613	0.451874
C93	C	-0.460731	0.053397	0.371418
H94	H	-0.385463	0.043609	0.542570
H95	H	-0.367801	-0.047954	0.452176
H96	H	-0.339495	0.091782	0.415452
H97	H	-0.503278	-0.004781	0.407830
H98	H	-0.474983	0.134955	0.371125
