data_functionalizedCrystal
_audit_creation_method	'MofGen! by Chris Wilmer'
_symmetry_space_group_name_H-M	'P1'
_symmetry_Int_Tables_number	1
_symmetry_cell_setting	triclinic
loop_
_symmetry_equiv_pos_as_xyz
  x,y,z
_cell_length_a	11.169417
_cell_length_b	12.827892
_cell_length_c	12.827885
_cell_angle_alpha	89.970024
_cell_angle_beta	89.982403
_cell_angle_gamma	90.016641
loop_
_atom_site_label
_atom_site_type_symbol
_atom_site_fract_x
_atom_site_fract_y
_atom_site_fract_z
Zn1	Zn	1.834897	-0.415948	-0.590801
Zn2	Zn	1.834776	-0.590725	-0.416060
Zn3	Zn	1.634190	-0.416002	-0.416079
Zn4	Zn	1.634173	-0.590651	-0.590765
O5	O	1.734509	-0.503332	-0.503426
O6	O	2.002831	-0.439140	-0.567628
O7	O	1.808124	-0.567602	-0.269827
O8	O	1.660872	-0.269759	-0.439279
O9	O	2.002742	-0.567548	-0.439247
O10	O	1.808331	-0.269719	-0.567646
O11	O	1.660754	-0.439234	-0.269841
O12	O	1.466238	-0.439162	-0.439245
O13	O	1.660843	-0.567422	-0.737006
O14	O	1.466226	-0.567476	-0.567586
O15	O	1.808315	-0.439069	-0.737032
O16	O	1.808108	-0.736951	-0.439213
O17	O	1.660726	-0.736897	-0.567568
C18	C	1.422684	-0.503317	-0.503414
C19	C	1.289284	-0.503337	-0.503434
C20	C	1.734434	-0.774841	-0.503407
C21	C	1.734512	-0.890995	-0.503434
C22	C	1.807447	-0.942676	-0.567011
C23	C	1.807529	-1.062726	-0.567040
C24	C	2.047551	-0.503346	-0.503439
C25	C	2.180951	-0.503353	-0.503444
C26	C	1.734591	-0.503231	-0.775997
C27	C	1.734626	-0.503188	-0.892150
C28	C	1.734617	-0.230761	-0.503469
C29	C	1.734663	-0.114608	-0.503487
C30	C	1.807607	-0.439662	-0.943947
C31	C	1.807645	-0.439617	-1.063998
C32	C	1.734497	-0.503356	-0.231917
C33	C	1.734695	-0.503104	-0.115764
H34	H	1.869825	-0.898048	-0.621425
C35	C	1.650231	-0.951271	-0.429929
H36	H	1.604456	-0.903279	-0.390043
H37	H	1.696240	-0.993853	-0.384481
H38	H	1.597981	-0.993855	-0.469923
H39	H	1.672214	-0.557498	-1.071226
C40	C	1.891975	-0.366224	-0.883805
H41	H	1.937760	-0.326356	-0.931870
H42	H	1.944195	-0.406249	-0.841216
H43	H	1.846009	-0.320741	-0.841238
C44	C	1.650249	-0.576619	-0.952292
H45	H	1.604450	-0.616475	-0.904228
H46	H	1.696196	-0.622097	-0.994870
H47	H	1.598023	-0.536578	-0.994872
H48	H	1.870131	-0.385233	-1.108543
H49	H	1.672222	-1.070171	-0.449049
C50	C	1.891886	-1.122760	-0.640574
H51	H	1.880869	-1.195571	-0.630952
H52	H	1.972541	-1.104872	-0.625356
H53	H	1.874273	-1.104885	-0.710790
