data_functionalizedCrystal
_audit_creation_method	'MofGen! by Chris Wilmer'
_symmetry_space_group_name_H-M	'P1'
_symmetry_Int_Tables_number	1
_symmetry_cell_setting	triclinic
loop_
_symmetry_equiv_pos_as_xyz
  x,y,z
_cell_length_a	18.215407
_cell_length_b	12.827892
_cell_length_c	12.827885
_cell_angle_alpha	90.029786
_cell_angle_beta	90.021400
_cell_angle_gamma	90.015840
loop_
_atom_site_label
_atom_site_type_symbol
_atom_site_fract_x
_atom_site_fract_y
_atom_site_fract_z
Zn1	Zn	1.125132	-0.415970	0.590908
Zn2	Zn	1.625132	0.084030	1.090908
Zn3	Zn	1.125057	-0.590747	0.416168
Zn4	Zn	1.625057	-0.090747	0.916168
Zn5	Zn	1.002061	-0.416022	0.416175
Zn6	Zn	1.502061	0.083978	0.916175
Zn7	Zn	1.002051	-0.590671	0.590862
Zn8	Zn	1.502051	-0.090671	1.090862
O9	O	1.063575	-0.503353	0.503528
O10	O	1.563575	-0.003353	1.003528
O11	O	1.228106	-0.439165	0.567745
O12	O	1.728106	0.060835	1.067745
O13	O	1.108715	-0.567623	0.269933
O14	O	1.608715	-0.067623	0.769933
O15	O	1.018422	-0.269779	0.439376
O16	O	1.518422	0.230221	0.939376
O17	O	1.228051	-0.567573	0.439364
O18	O	1.728051	-0.067573	0.939364
O19	O	1.108842	-0.269741	0.567752
O20	O	1.608842	0.230259	1.067752
O21	O	1.018350	-0.439254	0.269938
O22	O	1.518350	0.060746	0.769938
O23	O	0.899075	-0.439180	0.439331
O24	O	1.399075	0.060820	0.939331
O25	O	1.018405	-0.567443	0.737104
O26	O	1.518405	-0.067443	1.237104
O27	O	0.899068	-0.567493	0.567673
O28	O	1.399068	-0.067493	1.067673
O29	O	1.108832	-0.439091	0.737138
O30	O	1.608832	0.060909	1.237138
O31	O	1.108705	-0.736973	0.439320
O32	O	1.608705	-0.236973	0.939320
O33	O	1.018332	-0.736917	0.567666
O34	O	1.518332	-0.236917	1.067666
C35	C	0.872369	-0.503335	0.503498
C36	C	1.372369	-0.003335	1.003498
C37	C	0.790570	-0.503352	0.503510
C38	C	1.290570	-0.003352	1.003510
C39	C	0.602391	-0.570270	0.570254
C40	C	1.102391	-0.070270	1.070254
C41	C	0.525533	-0.570274	0.570267
C42	C	1.025533	-0.070274	1.070267
C43	C	0.525511	-0.436454	0.436826
C44	C	1.025511	0.063546	0.936826
C45	C	0.602368	-0.436446	0.436819
C46	C	1.102368	0.063554	0.936819
C47	C	0.640807	-0.503360	0.503531
C48	C	1.140807	-0.003360	1.003531
C49	C	0.487091	-0.503371	0.503551
C50	C	0.987091	-0.003371	1.003551
C51	C	0.403757	-0.503374	0.503565
C52	C	0.903757	-0.003374	1.003565
C53	C	0.724146	-0.503356	0.503519
C54	C	1.224146	-0.003356	1.003519
C55	C	1.063529	-0.774863	0.503510
C56	C	1.563529	-0.274863	1.003510
C57	C	1.063577	-0.891016	0.503537
C58	C	1.563577	-0.391016	1.003537
C59	C	1.108349	-0.942793	0.440098
C60	C	1.608349	-0.442793	0.940098
C61	C	1.108399	-1.062844	0.440124
C62	C	1.608399	-0.562844	0.940124
C63	C	1.255528	-0.503371	0.503559
C64	C	1.755528	-0.003371	1.003559
C65	C	1.337327	-0.503379	0.503572
C66	C	1.837327	-0.003379	1.003572
C67	C	1.063625	-0.503252	0.776099
C68	C	1.563625	-0.003252	1.276099
C69	C	1.063647	-0.503209	0.892252
C70	C	1.563647	-0.003209	1.392252
C71	C	1.063642	-0.230782	0.503570
C72	C	1.563642	0.269218	1.003570
C73	C	1.063670	-0.114629	0.503587
C74	C	1.563670	0.385371	1.003587
C75	C	1.063568	-0.503377	0.232018
C76	C	1.563568	-0.003377	0.732018
C77	C	1.063689	-0.503126	0.115866
C78	C	1.563689	-0.003126	0.615866
C79	C	1.018938	-0.566651	1.064064
C80	C	1.518938	-0.066651	1.564064
C81	C	1.018915	-0.566696	0.944014
C82	C	1.518915	-0.066696	1.444014
H83	H	0.494259	-0.624757	0.624601
H84	H	0.994259	-0.124757	1.124601
F85	F	0.484596	-0.365245	0.365828
F86	F	0.984596	0.134755	0.865828
H87	H	0.633647	-0.381953	0.382485
H88	H	1.133647	0.118047	0.882485
H89	H	0.633686	-0.624753	0.624578
H90	H	1.133686	-0.124753	1.124578
H91	H	1.025286	-0.935563	0.557873
H92	H	1.525286	-0.435563	1.057873
F93	F	1.013560	-1.056439	0.574578
F94	F	1.513560	-0.556439	1.074578
H95	H	1.146646	-0.898248	0.385768
H96	H	1.646646	-0.398248	0.885768
H97	H	1.146728	-1.107372	0.385808
H98	H	1.646728	-0.607372	0.885808
H99	H	1.101982	-0.448768	1.071338
H100	H	1.601982	0.051232	1.571338
F101	F	0.968877	-0.637692	1.122260
F102	F	1.468877	-0.137692	1.622260
F103	F	0.968839	-0.637791	0.885790
F104	F	1.468839	-0.137791	1.385790
H105	H	1.101964	-0.448824	0.936793
H106	H	1.601964	0.051176	1.436793
