data_functionalizedCrystal
_audit_creation_method	'MofGen! by Chris Wilmer'
_symmetry_space_group_name_H-M	'P1'
_symmetry_Int_Tables_number	1
_symmetry_cell_setting	triclinic
loop_
_symmetry_equiv_pos_as_xyz
  x,y,z
_cell_length_a	21.295418
_cell_length_b	18.215405
_cell_length_c	18.215399
_cell_angle_alpha	90.030551
_cell_angle_beta	89.961117
_cell_angle_gamma	89.959302
loop_
_atom_site_label
_atom_site_type_symbol
_atom_site_fract_x
_atom_site_fract_y
_atom_site_fract_z
Zn1	Zn	0.962350	0.292681	-0.416477
Zn2	Zn	0.962272	0.415752	-0.293405
Zn3	Zn	0.857082	0.292738	-0.293383
Zn4	Zn	0.857053	0.415744	-0.416389
O5	O	0.909689	0.354229	-0.354913
O6	O	1.050429	0.308986	-0.400197
O7	O	0.948298	0.399462	-0.190418
O8	O	0.871091	0.189746	-0.309740
O9	O	1.050372	0.399406	-0.309776
O10	O	0.948431	0.189704	-0.400176
O11	O	0.871015	0.309084	-0.190402
O12	O	0.768989	0.309076	-0.309654
O13	O	0.871042	0.399393	-0.519385
O14	O	0.768968	0.399448	-0.400026
O15	O	0.948403	0.308979	-0.519449
O16	O	0.948269	0.518736	-0.309691
O17	O	0.870966	0.518730	-0.400047
C18	C	0.746138	0.354268	-0.354829
C19	C	0.676170	0.354302	-0.354810
C20	C	0.909623	0.545435	-0.354878
C21	C	0.909652	0.627234	-0.354887
C22	C	0.909728	0.354178	-0.546866
C23	C	0.909744	0.354157	-0.628665
C24	C	0.643308	0.401421	-0.401796
C25	C	0.577566	0.401403	-0.401829
C26	C	0.544687	0.354274	-0.354863
C27	C	0.577556	0.307145	-0.307873
C28	C	0.643298	0.307160	-0.307847
N29	N	0.441415	0.348525	-0.290496
N30	N	0.378964	0.348516	-0.290523
C31	C	0.346612	0.354227	-0.354941
N32	N	0.379072	0.359961	-0.419332
N33	N	0.441529	0.359974	-0.419304
C34	C	0.473402	0.354252	-0.354887
C35	C	0.242466	0.401329	-0.401967
C36	C	0.176722	0.401305	-0.402001
C37	C	0.176714	0.307051	-0.308039
C38	C	0.242456	0.307071	-0.308011
C39	C	0.275328	0.354213	-0.354974
C40	C	1.073880	0.354191	-0.354999
C41	C	1.143848	0.354174	-0.355035
C42	C	0.909773	0.162276	-0.354965
C43	C	0.909809	0.080477	-0.354987
C44	C	0.949999	0.815407	-0.307926
C45	C	0.950027	0.892265	-0.307944
C46	C	0.869461	0.892299	-0.401954
C47	C	0.869436	0.815442	-0.401939
C48	C	0.909704	0.776998	-0.354921
C49	C	0.909757	0.930714	-0.354954
C50	C	0.909787	1.014047	-0.354973
C51	C	0.909675	0.693659	-0.354902
C52	C	0.950041	0.307034	-0.816894
C53	C	0.950048	0.307013	-0.893753
C54	C	0.869492	0.401165	-0.893675
C55	C	0.869482	0.401183	-0.816817
C56	C	0.909760	0.354118	-0.778429
C57	C	0.909777	0.354079	-0.932145
C58	C	0.909785	0.354057	-1.015479
C59	C	0.909751	0.354140	-0.695090
C60	C	0.909687	0.354226	-0.163707
C61	C	0.909793	0.354041	-0.081909
H62	H	0.670069	0.439807	-0.440038
H63	H	0.836675	0.923610	-0.440233
Cl64	Cl	0.818779	0.767153	-0.461028
H65	H	0.836701	0.439485	-0.924940
Cl66	Cl	0.283793	0.460587	-0.461009
Cl67	Cl	1.000623	0.767079	-0.248819
H68	H	0.982848	0.268671	-0.925068
H69	H	0.982839	0.923535	-0.269677
Cl70	Cl	1.000673	0.247864	-0.768637
H71	H	0.836676	0.439524	-0.785498
H72	H	0.149967	0.439674	-0.440268
H73	H	0.550782	0.268771	-0.269634
Cl74	Cl	0.536246	0.460643	-0.460902
H75	H	0.670053	0.268787	-0.269585
H76	H	0.149945	0.268674	-0.269801
H77	H	0.269212	0.268705	-0.269746
