data_functionalizedCrystal
_audit_creation_method	'MofGen! by Chris Wilmer'
_symmetry_space_group_name_H-M	'P1'
_symmetry_Int_Tables_number	1
_symmetry_cell_setting	triclinic
loop_
_symmetry_equiv_pos_as_xyz
  x,y,z
_cell_length_a	6.394984
_cell_length_b	10.654550
_cell_length_c	9.130313
_cell_angle_alpha	90.003780
_cell_angle_beta	90.000204
_cell_angle_gamma	94.509872
loop_
_atom_site_label
_atom_site_type_symbol
_atom_site_fract_x
_atom_site_fract_y
_atom_site_fract_z
O1	O	0.293433	-1.670938	-0.121915
O2	O	0.321390	-1.305755	-0.121891
O3	O	0.003422	-1.493534	-0.121899
O4	O	0.611401	-1.483160	-0.121907
O5	O	0.003430	-1.493532	0.121700
O6	O	0.321399	-1.305753	0.121708
O7	O	0.293441	-1.670936	0.121684
Cu8	Cu	0.307421	-1.488344	0.143938
Cu9	Cu	0.307411	-1.488347	-0.144145
O10	O	0.611410	-1.483157	0.121692
C11	C	0.319342	-1.258935	-0.000089
C12	C	0.313200	-1.119426	-0.000079
C13	C	0.925577	-1.491470	-0.000095
C14	C	0.689249	-1.485218	-0.000097
C15	C	0.295490	-1.717757	-0.000122
C16	C	0.301631	-1.857265	-0.000140
N17	N	0.307427	-1.488352	0.346561
N18	N	0.307388	-1.488349	-0.346768
C19	C	0.500415	-1.041921	-0.000103
C20	C	0.494632	-0.910839	-0.000129
C21	C	0.114402	-0.934780	-0.000112
C22	C	0.120188	-1.065860	-0.000077
C23	C	0.719938	-1.028098	-0.000119
C24	C	0.714154	-0.897016	-0.000144
C25	C	0.166679	-1.571522	0.423209
C26	C	0.166654	-1.571519	0.576546
C27	C	0.448143	-1.405170	0.576573
C28	C	0.448157	-1.405168	0.423239
C29	C	0.004169	-1.667567	0.423195
C30	C	0.004143	-1.667563	0.576532
H31	H	-0.032261	-1.128961	-0.000036
H32	H	-0.147607	-1.635445	0.624083
F33	F	-0.205720	-1.637319	0.368792
H34	H	0.039940	-1.764453	0.618142
H35	H	0.796863	-0.856159	-0.102099
F36	F	0.597909	-1.316644	0.658190
H37	H	-0.042742	-0.891150	-0.000132
H38	H	0.789833	-1.064494	-0.105292
F39	F	0.832168	-1.067628	0.133130
H40	H	0.780500	-0.852045	0.105023
F41	F	0.597932	-1.316634	0.341664
F42	F	0.070699	-1.787447	0.361017
