data_functionalizedCrystal
_audit_creation_method	'MofGen! by Chris Wilmer'
_symmetry_space_group_name_H-M	'P1'
_symmetry_Int_Tables_number	1
_symmetry_cell_setting	triclinic
loop_
_symmetry_equiv_pos_as_xyz
  x,y,z
_cell_length_a	17.640280
_cell_length_b	17.077404
_cell_length_c	17.077396
_cell_angle_alpha	89.980499
_cell_angle_beta	101.225604
_cell_angle_gamma	101.199462
loop_
_atom_site_label
_atom_site_type_symbol
_atom_site_fract_x
_atom_site_fract_y
_atom_site_fract_z
Zn1	Zn	-0.314659	-1.263288	0.380745
Zn2	Zn	-0.446839	-1.289758	0.222973
Zn3	Zn	-0.314687	-1.132026	0.249487
Zn4	Zn	-0.446792	-1.158541	0.354206
O5	O	-0.380744	-1.210903	0.301853
O6	O	-0.332201	-1.376648	0.359827
O7	O	-0.429340	-1.268815	0.116637
O8	O	-0.204078	-1.127263	0.289102
O9	O	-0.429313	-1.396095	0.243912
O10	O	-0.204058	-1.223701	0.385536
O11	O	-0.332248	-1.152930	0.136117
O12	O	-0.332203	-1.025694	0.263368
O13	O	-0.429233	-1.172456	0.467580
O14	O	-0.429260	-1.045176	0.340305
O15	O	-0.332155	-1.249413	0.487078
O16	O	-0.557437	-1.294527	0.218179
O17	O	-0.557403	-1.198122	0.314595
C18	C	-0.380730	-1.006953	0.301834
C19	C	-0.380743	-0.919705	0.301841
C20	C	-0.586099	-1.252095	0.260647
C21	C	-0.673950	-1.269789	0.243045
C22	C	-0.380686	-1.210939	0.506609
C23	C	-0.380661	-1.210954	0.593864
C24	C	-0.962931	-1.076806	0.435857
C25	C	-1.045481	-1.093434	0.419293
C26	C	-1.045451	-1.193882	0.318996
C27	C	-0.962900	-1.177265	0.335555
C28	C	-0.921646	-1.118726	0.393986
C29	C	-0.921615	-1.219185	0.293683
C30	C	-0.839070	-1.202567	0.310238
C31	C	-0.797811	-1.144029	0.368665
C32	C	-0.839101	-1.102108	0.410541
C33	C	-0.962870	-1.277721	0.235249
C34	C	-0.921585	-1.319640	0.193377
C35	C	-0.839039	-1.303026	0.209936
C36	C	-0.797780	-1.244488	0.268362
C37	C	-0.797748	-1.344947	0.168060
C38	C	-0.715204	-1.328329	0.184615
C39	C	-0.715235	-1.227870	0.284917
C40	C	-0.174588	-1.169572	0.343237
C41	C	-0.086736	-1.151959	0.360872
C42	C	-0.380759	-1.415651	0.301872
C43	C	-0.380765	-1.502902	0.301880
C44	C	-0.431357	-0.888895	0.341806
C45	C	-0.431359	-0.806915	0.341818
C46	C	-0.380750	-0.755747	0.301860
C47	C	-0.330130	-0.786562	0.261894
C48	C	-0.330125	-0.868540	0.261887
C49	C	-0.330146	-0.615696	0.261910
C50	C	-0.330151	-0.533712	0.261915
C51	C	-0.431379	-0.554070	0.341841
C52	C	-0.431374	-0.636048	0.341834
C53	C	-0.380755	-0.666858	0.301866
C54	C	-0.380745	-1.210901	0.097905
C55	C	-0.380547	-1.210993	0.010695
C56	C	-0.330109	-1.251027	0.645009
C57	C	-0.330082	-1.251031	0.726995
C58	C	-0.380613	-1.210967	0.757833
C59	C	-0.431168	-1.170889	0.706682
C60	C	-0.431190	-1.170881	0.624699
C61	C	-0.431120	-1.170911	0.877562
C62	C	-0.431100	-1.170921	0.959550
C63	C	-0.330013	-1.251062	0.979858
C64	C	-0.330035	-1.251053	0.897874
C65	C	-0.380591	-1.210977	0.846729
H66	H	-0.681645	-1.180207	0.332503
C67	C	-0.486352	-0.691468	0.385294
C68	C	-0.530668	-0.646939	0.420316
C69	C	-0.581313	-0.697963	0.460369
H70	H	-0.520817	-0.730353	0.348377
H71	H	-0.456175	-0.717392	0.425639
H72	H	-0.560843	-0.621028	0.379977
H73	H	-0.496223	-0.608057	0.457245
H74	H	-0.551136	-0.723888	0.500713
H75	H	-0.615773	-0.736846	0.423446
H76	H	-0.611382	-0.667758	0.484142
C77	C	-0.486248	-0.520464	0.385228
C78	C	-0.475405	-0.437717	0.376706
C79	C	-0.525929	-0.406728	0.416666
H80	H	-0.539370	-0.544455	0.363040
H81	H	-0.474741	-0.531572	0.440313
H82	H	-0.486917	-0.426615	0.321631
H83	H	-0.422293	-0.413705	0.398897
H84	H	-0.514422	-0.417836	0.471751
H85	H	-0.579048	-0.430724	0.394475
H86	H	-0.518574	-0.350580	0.410896
H87	H	-0.288919	-0.640776	0.229372
C88	C	-1.090409	-1.048067	0.464783
C89	C	-1.137755	-1.102014	0.505629
C90	C	-1.179162	-1.060253	0.547530
H91	H	-1.054107	-1.010823	0.502009
H92	H	-1.122695	-1.020397	0.428267
H93	H	-1.105471	-1.129670	0.542142
H94	H	-1.174071	-1.139258	0.468422
H95	H	-1.211449	-1.032583	0.511014
H96	H	-1.142855	-1.023010	0.584751
H97	H	-1.211297	-1.096849	0.575243
H98	H	-0.472574	-0.781834	0.374361
C99	C	-0.708190	-1.125978	0.386475
C100	C	-0.680926	-1.100527	0.317186
C101	C	-0.598373	-1.083902	0.333560
H102	H	-0.689433	-1.085094	0.427230
H103	H	-0.689441	-1.172859	0.403816
H104	H	-0.699667	-1.053652	0.299856
H105	H	-0.699662	-1.141399	0.276422
H106	H	-0.579625	-1.130783	0.350901
H107	H	-0.579624	-1.043020	0.374317
H108	H	-0.579865	-1.066639	0.286550
H109	H	-0.472571	-0.930551	0.374341
H110	H	-0.288920	-0.744895	0.229364
C111	C	-0.842447	-1.408602	0.104684
C112	C	-0.822297	-1.482205	0.125872
C113	C	-0.863450	-1.540859	0.067503
H114	H	-0.897531	-1.412598	0.100769
H115	H	-0.828933	-1.394471	0.054629
H116	H	-0.835816	-1.496334	0.175913
H117	H	-0.767219	-1.478235	0.129781
H118	H	-0.849936	-1.526727	0.017449
H119	H	-0.918532	-1.544847	0.063593
H120	H	-0.849778	-1.590803	0.081868
H121	H	-1.079051	-1.241543	0.271419
C122	C	-1.052491	-1.295854	0.217422
C123	C	-1.079747	-1.321351	0.286702
C124	C	-1.162300	-1.338075	0.270310
H125	H	-1.071316	-1.249024	0.200079
H126	H	-1.071176	-1.336748	0.176656
H127	H	-1.061070	-1.280460	0.327456
H128	H	-1.060943	-1.368186	0.304056
H129	H	-1.180985	-1.378969	0.229543
H130	H	-1.181118	-1.291242	0.252966
H131	H	-1.180804	-1.355384	0.317311
C132	C	-0.966521	-1.383183	0.129986
C133	C	-1.047647	-1.388773	0.124455
C134	C	-1.089064	-1.447304	0.066071
H135	H	-0.953114	-1.369070	0.079894
H136	H	-0.953000	-1.433217	0.144236
H137	H	-1.061162	-1.338750	0.110201
H138	H	-1.061077	-1.402897	0.174532
H139	H	-1.075543	-1.497337	0.080320
H140	H	-1.075651	-1.433185	0.015983
H141	H	-1.144112	-1.451110	0.062316
H142	H	-0.805511	-1.054445	0.458127
C143	C	-0.275114	-0.478280	0.218526
C144	C	-0.230763	-0.522802	0.183547
C145	C	-0.180046	-0.471763	0.143579
H146	H	-0.305217	-0.452322	0.178166
H147	H	-0.240680	-0.439421	0.255511
H148	H	-0.265192	-0.561647	0.146565
H149	H	-0.200644	-0.548758	0.223889
H150	H	-0.145612	-0.432904	0.180564
H151	H	-0.210155	-0.445808	0.103223
H152	H	-0.149943	-0.501962	0.119847
C153	C	-0.275217	-1.294717	1.035328
C154	C	-0.292454	-1.375839	1.011964
C155	C	-0.242004	-1.416081	1.063055
H156	H	-0.222085	-1.272682	1.032590
H157	H	-0.282446	-1.289033	1.088576
H158	H	-0.285218	-1.381518	0.958729
H159	H	-0.345576	-1.397897	1.014705
H160	H	-0.249234	-1.410397	1.116303
H161	H	-0.188876	-1.394039	1.060313
H162	H	-0.253697	-1.471127	1.047214
H163	H	-0.288906	-0.893623	0.229348
H164	H	-0.288963	-1.283655	0.619907
H165	H	-0.288919	-1.283664	0.768634
C166	C	-0.275111	-1.294402	0.864312
C167	C	-0.224477	-1.239783	0.827401
C168	C	-0.173868	-1.279681	0.796471
H169	H	-0.244922	-1.318265	0.906445
H170	H	-0.305321	-1.334650	0.826221
H171	H	-0.194271	-1.199549	0.865488
H172	H	-0.254644	-1.215918	0.785257
H173	H	-0.204078	-1.319929	0.758380
H174	H	-0.143685	-1.303542	0.838609
H175	H	-0.139512	-1.242630	0.771417
H176	H	-0.472245	-1.138295	0.984656
C177	C	-0.485992	-1.127388	0.569042
C178	C	-0.475180	-1.135935	0.490648
C179	C	-0.525641	-1.095867	0.439358
H180	H	-0.539128	-1.149479	0.571715
H181	H	-0.474407	-1.072309	0.584749
H182	H	-0.486770	-1.191003	0.474945
H183	H	-0.422055	-1.113840	0.487949
H184	H	-0.514057	-1.040788	0.455065
H185	H	-0.578774	-1.117962	0.442039
H186	H	-0.518307	-1.101655	0.386163
C187	C	-0.486128	-1.127540	0.740184
C188	C	-0.536793	-1.182152	0.777068
C189	C	-0.587442	-1.142251	0.807928
H190	H	-0.455973	-1.087283	0.778277
H191	H	-0.516284	-1.103694	0.697996
H192	H	-0.506640	-1.205985	0.819251
H193	H	-0.566965	-1.222410	0.738991
H194	H	-0.617598	-1.118405	0.765740
H195	H	-0.557281	-1.101995	0.846017
H196	H	-0.621829	-1.179300	0.832950
C197	C	-0.670473	-1.373813	0.139009
C198	C	-0.690615	-1.360835	0.057287
C199	C	-0.649431	-1.402727	0.015246
H200	H	-0.615393	-1.355575	0.157133
H201	H	-0.683966	-1.429280	0.147791
H202	H	-0.677117	-1.305380	0.048510
H203	H	-0.745688	-1.379077	0.039140
H204	H	-0.662924	-1.458194	0.024028
H205	H	-0.594353	-1.384485	0.033377
H206	H	-0.663097	-1.393933	-0.040207
H207	H	-0.929340	-1.029143	0.483444
H208	H	-0.472276	-1.138262	0.835923
