data_functionalizedCrystal
_audit_creation_method	'MofGen! by Chris Wilmer'
_symmetry_space_group_name_H-M	'P1'
_symmetry_Int_Tables_number	1
_symmetry_cell_setting	triclinic
loop_
_symmetry_equiv_pos_as_xyz
  x,y,z
_cell_length_a	14.971486
_cell_length_b	19.188930
_cell_length_c	14.048226
_cell_angle_alpha	89.988446
_cell_angle_beta	89.998499
_cell_angle_gamma	83.379455
loop_
_atom_site_label
_atom_site_type_symbol
_atom_site_fract_x
_atom_site_fract_y
_atom_site_fract_z
O1	O	1.186466	0.090988	-0.079062
O2	O	1.519800	0.424321	0.254271
O3	O	1.853133	0.757655	0.587604
O4	O	0.926009	0.101884	-0.079090
O5	O	1.259342	0.435217	0.254244
O6	O	1.592675	0.768550	0.587577
O7	O	1.063754	-0.005196	-0.079057
O8	O	1.397087	0.328138	0.254277
O9	O	1.730420	0.661471	0.587610
O10	O	1.048721	0.198067	-0.079095
O11	O	1.382055	0.531401	0.254238
O12	O	1.715388	0.864734	0.587571
O13	O	1.063737	-0.005202	0.079265
O14	O	1.397071	0.328131	0.412598
O15	O	1.730404	0.661465	0.745931
O16	O	0.925992	0.101878	0.079232
O17	O	1.259326	0.435211	0.412565
O18	O	1.592659	0.768544	0.745898
O19	O	1.186450	0.090982	0.079259
O20	O	1.519783	0.424315	0.412592
O21	O	1.853117	0.757648	0.745926
Zn22	Zn	1.056218	0.096429	0.104382
Zn23	Zn	1.389552	0.429762	0.437716
Zn24	Zn	1.722885	0.763095	0.771049
Zn25	Zn	1.056240	0.096437	-0.104213
Zn26	Zn	1.389573	0.429770	0.229121
Zn27	Zn	1.722907	0.763104	0.562454
O28	O	1.048705	0.198061	0.079226
O29	O	1.382038	0.531394	0.412559
O30	O	1.715371	0.864728	0.745893
C31	C	0.892678	0.101393	0.000068
C32	C	1.226012	0.434727	0.333401
C33	C	1.559345	0.768060	0.666735
C34	C	0.793389	0.099933	0.000058
C35	C	1.126722	0.433266	0.333392
C36	C	1.460056	0.766600	0.666725
C37	C	0.735831	0.162839	0.000048
C38	C	1.069165	0.496173	0.333381
C39	C	1.402498	0.829506	0.666714
C40	C	0.642539	0.161463	0.000062
C41	C	0.975872	0.494796	0.333396
C42	C	1.309206	0.828130	0.666729
C43	C	0.606806	0.097180	0.000080
C44	C	0.940140	0.430513	0.333414
C45	C	1.273473	0.763847	0.666747
C46	C	0.664371	0.034269	0.000094
C47	C	0.997705	0.367602	0.333427
C48	C	1.331038	0.700936	0.666761
C49	C	0.757662	0.035646	0.000086
C50	C	1.090995	0.368979	0.333420
C51	C	1.424328	0.702312	0.666753
C52	C	0.469924	0.031403	0.000108
C53	C	0.803257	0.364737	0.333441
C54	C	1.136591	0.698070	0.666774
C55	C	0.376627	0.030026	0.000113
C56	C	0.709961	0.363359	0.333447
C57	C	1.043294	0.696693	0.666780
C58	C	0.354801	0.157221	0.000083
C59	C	0.688135	0.490554	0.333417
C60	C	1.021468	0.823887	0.666750
C61	C	0.448092	0.158598	0.000076
C62	C	0.781425	0.491931	0.333409
C63	C	1.114758	0.825264	0.666742
C64	C	0.505650	0.095686	0.000088
C65	C	0.838984	0.429020	0.333421
C66	C	1.172317	0.762353	0.666754
C67	C	1.063259	-0.031211	0.000107
C68	C	1.396592	0.302122	0.333440
C69	C	1.729925	0.635455	0.666774
C70	C	1.061797	-0.108721	0.000115
C71	C	1.395131	0.224613	0.333448
C72	C	1.728464	0.557946	0.666782
C73	C	1.142622	-0.153384	0.000128
C74	C	1.475955	0.179949	0.333461
C75	C	1.809288	0.513282	0.666795
C76	C	1.141249	-0.226213	0.000112
C77	C	1.474582	0.107121	0.333446
C78	C	1.807916	0.440454	0.666779
C79	C	1.059047	-0.254374	0.000103
C80	C	1.392380	0.078960	0.333437
C81	C	1.725714	0.412293	0.666770
C82	C	0.978212	-0.209700	0.000085
C83	C	1.311545	0.123633	0.333418
C84	C	1.644879	0.456967	0.666751
C85	C	0.979587	-0.136874	0.000091
C86	C	1.312921	0.196460	0.333424
C87	C	1.646254	0.529793	0.666757
N88	N	0.996208	-0.362583	0.053976
N89	N	1.329541	-0.029250	0.387310
N90	N	1.662875	0.304084	0.720643
N91	N	0.994907	-0.431766	0.053973
N92	N	1.328240	-0.098433	0.387306
N93	N	1.661574	0.234901	0.720640
C94	C	1.054899	-0.473796	0.000084
C95	C	1.388232	-0.140462	0.333417
C96	C	1.721565	0.192871	0.666750
N97	N	1.116254	-0.444031	-0.053790
N98	N	1.449587	-0.110697	0.279543
N99	N	1.782921	0.222636	0.612876
N100	N	1.117558	-0.374842	-0.053782
N101	N	1.450891	-0.041508	0.279551
N102	N	1.784224	0.291825	0.612884
C103	C	1.057547	-0.333341	0.000096
C104	C	1.390880	-0.000008	0.333430
C105	C	1.724213	0.333326	0.666763
C106	C	1.134240	-0.597429	0.000078
C107	C	1.467573	-0.264095	0.333412
C108	C	1.800907	0.069238	0.666745
C109	C	1.132864	-0.670258	0.000057
C110	C	1.466197	-0.336925	0.333391
C111	C	1.799530	-0.003591	0.666724
C112	C	0.969825	-0.653744	0.000039
C113	C	1.303158	-0.320411	0.333372
C114	C	1.636491	0.012923	0.666706
C115	C	0.971203	-0.580916	0.000051
C116	C	1.304537	-0.247583	0.333384
C117	C	1.637870	0.085750	0.666717
C118	C	1.053413	-0.552763	0.000075
C119	C	1.386747	-0.219430	0.333408
C120	C	1.720080	0.113903	0.666742
C121	C	1.219780	0.091472	0.000100
C122	C	1.553114	0.424805	0.333433
C123	C	1.886447	0.758139	0.666766
C124	C	1.319070	0.092932	0.000103
C125	C	1.652403	0.426266	0.333436
C126	C	1.985736	0.759599	0.666770
C127	C	1.049200	0.224077	0.000061
C128	C	1.382533	0.557410	0.333394
C129	C	1.715867	0.890743	0.666727
C130	C	1.050661	0.301586	0.000046
C131	C	1.383994	0.634919	0.333380
C132	C	1.717328	0.968253	0.666713
N133	N	1.056210	0.096422	0.246743
N134	N	1.389543	0.429756	0.580076
N135	N	1.722877	0.763089	0.913410
N136	N	1.056256	0.096437	-0.246573
N137	N	1.389589	0.429771	0.086760
N138	N	1.722922	0.763104	0.420093
C139	C	1.117223	0.049027	0.296576
C140	C	1.450556	0.382361	0.629909
C141	C	1.783889	0.715694	0.963242
C142	C	1.117229	0.049027	0.396233
C143	C	1.450562	0.382360	0.729567
C144	C	1.783895	0.715694	1.062900
C145	C	1.056226	0.096426	0.446057
C146	C	1.389559	0.429759	0.779390
C147	C	1.722892	0.763092	1.112723
C148	C	0.995207	0.143823	0.396217
C149	C	1.328540	0.477156	0.729550
C150	C	1.661873	0.810490	1.062884
C151	C	0.995197	0.143819	0.296561
C152	C	1.328530	0.477153	0.629894
C153	C	1.661864	0.810486	0.963228
C154	C	0.995233	0.143828	0.603931
C155	C	1.328566	0.477161	0.937264
C156	C	1.661899	0.810495	1.270598
C157	C	0.995243	0.143833	0.703594
C158	C	1.328576	0.477166	1.036927
C159	C	1.661910	0.810499	1.370261
C160	C	1.117264	0.049035	0.703603
C161	C	1.450597	0.382369	1.036937
C162	C	1.783931	0.715702	1.370270
C163	C	1.117255	0.049032	0.603948
C164	C	1.450588	0.382365	0.937281
C165	C	1.783921	0.715699	1.270614
C166	C	1.056236	0.096430	0.554115
C167	C	1.389570	0.429764	0.887448
C168	C	1.722903	0.763097	1.220782
H169	H	0.516786	-0.019826	0.000119
H170	H	0.850120	0.313507	0.333452
H171	H	1.183453	0.646841	0.666785
H172	H	0.307932	0.208445	0.000078
H173	H	0.641266	0.541779	0.333412
H174	H	0.974599	0.875112	0.666745
N175	N	0.929426	0.194952	0.550177
N176	N	1.262760	0.528285	0.883511
N177	N	1.596093	0.861618	1.216844
H178	H	0.889926	0.168219	0.508846
H179	H	1.223260	0.501552	0.842179
H180	H	1.556593	0.834885	1.175512
H181	H	0.890845	0.224970	0.596918
H182	H	1.224178	0.558303	0.930252
H183	H	1.557511	0.891636	1.263585
N184	N	0.929408	0.194941	0.449957
N185	N	1.262741	0.528274	0.783290
N186	N	1.596075	0.861608	1.116624
H187	H	0.963467	0.225902	0.491287
H188	H	1.296800	0.559235	0.824620
H189	H	1.630134	0.892569	1.157953
H190	H	0.890767	0.224918	0.403207
H191	H	1.224101	0.558251	0.736540
H192	H	1.557434	0.891584	1.069873
H193	H	0.945513	0.182413	0.255988
H194	H	1.278847	0.515746	0.589322
H195	H	1.612180	0.849079	0.922655
H196	H	0.477182	0.210943	0.000052
H197	H	0.810515	0.544276	0.333385
H198	H	1.143849	0.877609	0.666719
H199	H	0.804525	-0.015579	0.000094
H200	H	1.137858	0.317754	0.333428
H201	H	1.471192	0.651088	0.666761
N202	N	0.774368	0.232174	0.000017
N203	N	1.107702	0.565507	0.333350
N204	N	1.441035	0.898841	0.666683
H205	H	0.723746	0.271816	0.000013
H206	H	1.057079	0.605149	0.333346
H207	H	1.390413	0.938482	0.666680
H208	H	0.812604	0.235516	0.058703
H209	H	1.145938	0.568850	0.392036
H210	H	1.479271	0.902183	0.725370
H211	H	0.595679	0.212688	0.000052
H212	H	0.929012	0.546021	0.333386
H213	H	1.262345	0.879355	0.666719
H214	H	0.913768	-0.100507	0.000080
H215	H	1.247102	0.232826	0.333414
H216	H	1.580435	0.566159	0.666747
N217	N	1.231283	-0.123013	0.000131
N218	N	1.564616	0.210320	0.333464
N219	N	1.897950	0.543653	0.666797
H220	H	1.235485	-0.093173	0.058820
H221	H	1.568818	0.240160	0.392153
H222	H	1.902151	0.573494	0.725486
H223	H	1.282230	-0.162398	0.000096
H224	H	1.615563	0.170935	0.333429
H225	H	1.948896	0.504269	0.666762
N226	N	0.929456	0.194952	0.757347
N227	N	1.262789	0.528285	1.090680
N228	N	1.596122	0.861618	1.424014
H229	H	0.939552	0.244520	0.739986
H230	H	1.272885	0.577853	1.073320
H231	H	1.606219	0.911186	1.406653
H232	H	0.866033	0.186767	0.740010
H233	H	1.199366	0.520101	1.073343
H234	H	1.532700	0.853434	1.406676
N235	N	1.228426	-0.274398	0.000125
N236	N	1.561760	0.058935	0.333458
N237	N	1.895093	0.392269	0.666791
H238	H	1.280713	-0.245512	0.000139
H239	H	1.614047	0.087821	0.333472
H240	H	1.947380	0.421155	0.666806
H241	H	1.231392	-0.304983	0.058816
H242	H	1.564725	0.028351	0.392149
H243	H	1.898058	0.361684	0.725482
N244	N	0.889550	-0.240069	0.000070
N245	N	1.222884	0.093265	0.333403
N246	N	1.556217	0.426598	0.666736
H247	H	0.900943	-0.292982	0.000071
H248	H	1.234276	0.040351	0.333404
H249	H	1.567609	0.373685	0.666738
H250	H	0.854186	-0.223743	0.058756
H251	H	1.187519	0.109591	0.392090
H252	H	1.520852	0.442924	0.725423
H253	H	0.635271	-0.018072	0.000122
H254	H	0.968604	0.315262	0.333456
H255	H	1.301937	0.648595	0.666789
N256	N	0.338083	-0.039306	0.000131
N257	N	0.671416	0.294027	0.333464
N258	N	1.004750	0.627361	0.666798
H259	H	0.388700	-0.078951	0.000144
H260	H	0.722034	0.254382	0.333477
H261	H	1.055367	0.587715	0.666810
H262	H	0.299850	-0.042644	0.058824
H263	H	0.633183	0.290690	0.392158
H264	H	0.966517	0.624023	0.725491
N265	N	1.183046	-0.002090	0.550204
N266	N	1.516379	0.331244	0.883537
N267	N	1.849712	0.664577	1.216870
H268	H	1.222534	0.024644	0.508842
H269	H	1.555867	0.357977	0.842175
H270	H	1.889200	0.691310	1.175508
H271	H	1.221640	-0.032106	0.596951
H272	H	1.554973	0.301227	0.930284
H273	H	1.888307	0.634561	1.263617
H274	H	1.198683	-0.706623	0.000063
H275	H	1.532017	-0.373290	0.333396
H276	H	1.865350	-0.039957	0.666729
N277	N	1.222903	-0.567057	0.000101
N278	N	1.556237	-0.233723	0.333434
N279	N	1.889570	0.099610	0.666767
H280	H	1.273899	-0.606405	0.000099
H281	H	1.607232	-0.273072	0.333432
H282	H	1.940566	0.060261	0.666765
H283	H	1.227031	-0.537186	-0.058585
H284	H	1.560364	-0.203853	0.274748
H285	H	1.893697	0.129481	0.608081
H286	H	0.902894	-0.676672	0.000027
H287	H	1.236228	-0.343338	0.333360
H288	H	1.569561	-0.010005	0.666693
H289	H	0.905387	-0.544550	0.000046
H290	H	1.238720	-0.211216	0.333379
H291	H	1.572054	0.122117	0.666712
N292	N	1.183025	-0.002092	0.242841
N293	N	1.516358	0.331241	0.576174
N294	N	1.849691	0.664575	0.909508
H295	H	1.221675	-0.032117	0.289536
H296	H	1.555008	0.301216	0.622869
H297	H	1.888342	0.634549	0.956203
H298	H	1.148904	-0.033005	0.201508
H299	H	1.482237	0.300328	0.534841
H300	H	1.815570	0.633662	0.868175
H301	H	1.166947	0.010442	0.744183
H302	H	1.500280	0.343775	1.077516
H303	H	1.833613	0.677109	1.410850
N304	N	1.183067	-0.002076	0.449969
N305	N	1.516400	0.331257	0.783302
N306	N	1.849733	0.664591	1.116635
H307	H	1.172992	-0.051650	0.432645
H308	H	1.506325	0.281683	0.765979
H309	H	1.839658	0.615016	1.099312
H310	H	1.246467	0.006136	0.432568
H311	H	1.579800	0.339470	0.765901
H312	H	1.913133	0.672803	1.099235
