data_functionalizedCrystal
_audit_creation_method	'MofGen! by Chris Wilmer'
_symmetry_space_group_name_H-M	'P1'
_symmetry_Int_Tables_number	1
_symmetry_cell_setting	triclinic
loop_
_symmetry_equiv_pos_as_xyz
  x,y,z
_cell_length_a	21.395362
_cell_length_b	19.076808
_cell_length_c	21.395356
_cell_angle_alpha	87.675140
_cell_angle_beta	89.964230
_cell_angle_gamma	92.338508
loop_
_atom_site_label
_atom_site_type_symbol
_atom_site_fract_x
_atom_site_fract_y
_atom_site_fract_z
Zn1	Zn	0.947820	-0.279953	-0.344565
Zn2	Zn	1.281154	0.053380	-0.011232
Zn3	Zn	1.614487	0.386714	0.322102
Zn4	Zn	0.943538	-0.397655	-0.235575
Zn5	Zn	1.276871	-0.064321	0.097759
Zn6	Zn	1.610205	0.269012	0.431092
Zn7	Zn	0.843048	-0.280000	-0.239765
Zn8	Zn	1.176382	0.053333	0.093569
Zn9	Zn	1.509715	0.386666	0.426902
Zn10	Zn	0.838805	-0.397655	-0.340279
Zn11	Zn	1.172138	-0.064321	-0.006946
Zn12	Zn	1.505471	0.269012	0.326387
O13	O	0.893303	-0.338816	-0.290046
O14	O	1.226636	-0.005482	0.043287
O15	O	1.559969	0.327851	0.376621
O16	O	1.034931	-0.295547	-0.330147
O17	O	1.368264	0.037787	0.003186
O18	O	1.701597	0.371120	0.336519
O19	O	0.930192	-0.382067	-0.148452
O20	O	1.263525	-0.048734	0.184882
O21	O	1.596858	0.284599	0.518215
O22	O	0.860515	-0.181497	-0.257214
O23	O	1.193848	0.151837	0.076120
O24	O	1.527181	0.485170	0.409453
O25	O	1.031785	-0.382022	-0.250072
O26	O	1.365118	-0.048688	0.083261
O27	O	1.698451	0.284645	0.416594
O28	O	0.937490	-0.181462	-0.334210
O29	O	1.270823	0.151871	-0.000877
O30	O	1.604157	0.485205	0.332456
O31	O	0.856362	-0.295627	-0.151530
O32	O	1.189696	0.037706	0.181803
O33	O	1.523029	0.371039	0.515137
O34	O	0.754807	-0.295627	-0.253058
O35	O	1.088140	0.037706	0.080275
O36	O	1.421474	0.371039	0.413609
O37	O	0.853282	-0.382021	-0.428526
O38	O	1.186615	-0.048688	-0.095193
O39	O	1.519949	0.284645	0.238140
O40	O	0.751689	-0.382067	-0.326906
O41	O	1.085022	-0.048734	0.006428
O42	O	1.418356	0.284599	0.339761
O43	O	0.933375	-0.295547	-0.431675
O44	O	1.266709	0.037787	-0.098342
O45	O	1.600042	0.371120	0.234992
O46	O	0.926077	-0.496152	-0.245917
O47	O	1.259410	-0.162819	0.087417
O48	O	1.592743	0.170515	0.420750
O49	O	0.849130	-0.496152	-0.322843
O50	O	1.182463	-0.162819	0.010491
O51	O	1.515796	0.170515	0.343824
C52	C	0.730514	-0.338853	-0.289972
C53	C	1.063847	-0.005520	0.043361
C54	C	1.397180	0.327814	0.376695
C55	C	0.660871	-0.338886	-0.289954
C56	C	0.994205	-0.005552	0.043379
C57	C	1.327538	0.327781	0.376712
C58	C	0.626549	-0.383955	-0.328345
C59	C	0.959882	-0.050621	0.004989
C60	C	1.293216	0.282712	0.338322
C61	C	0.561114	-0.383938	-0.328373
C62	C	0.894448	-0.050604	0.004960
C63	C	1.227781	0.282729	0.338293
C64	C	0.530004	-0.338859	-0.290000
C65	C	0.863337	-0.005525	0.043333
C66	C	1.196671	0.327808	0.376667
C67	C	0.564335	-0.293781	-0.251607
C68	C	0.897668	0.039552	0.081726
C69	C	1.231001	0.372886	0.415059
C70	C	0.629768	-0.293794	-0.251584
C71	C	0.963102	0.039539	0.081749
C72	C	1.296435	0.372872	0.415082
C73	C	0.426489	-0.333196	-0.233798
C74	C	0.759823	0.000137	0.099536
C75	C	1.093156	0.333470	0.432869
C76	C	0.361057	-0.333188	-0.233819
C77	C	0.694390	0.000146	0.099514
C78	C	1.027723	0.333479	0.432848
C79	C	0.328185	-0.338813	-0.290071
C80	C	0.661518	-0.005479	0.043262
C81	C	0.994852	0.327854	0.376596
C82	C	0.360753	-0.344461	-0.346302
C83	C	0.694087	-0.011128	-0.012969
C84	C	1.027420	0.322205	0.320364
C85	C	0.426187	-0.344475	-0.346280
C86	C	0.759520	-0.011142	-0.012946
C87	C	1.092854	0.322192	0.320387
C88	C	0.459052	-0.338839	-0.290021
C89	C	0.792386	-0.005505	0.043313
C90	C	1.125719	0.327828	0.376646
C91	C	0.222911	-0.383865	-0.328495
C92	C	0.556244	-0.050532	0.004838
C93	C	0.889577	0.282801	0.338171
C94	C	0.157475	-0.383843	-0.328525
C95	C	0.490808	-0.050510	0.004808
C96	C	0.824142	0.282823	0.338141
C97	C	0.160696	-0.293690	-0.251753
C98	C	0.494030	0.039643	0.081580
C99	C	0.827363	0.372976	0.414913
C100	C	0.226131	-0.293709	-0.251729
C101	C	0.559464	0.039625	0.081604
C102	C	0.892798	0.372958	0.414937
C103	C	0.257234	-0.338800	-0.290099
C104	C	0.590568	-0.005467	0.043234
C105	C	0.923901	0.327867	0.376567
C106	C	0.886695	-0.521691	-0.283474
C107	C	1.220028	-0.188358	0.049860
C108	C	1.553362	0.144975	0.383193
C109	C	0.883926	-0.599926	-0.280683
C110	C	1.217259	-0.266593	0.052650
C111	C	1.550592	0.066740	0.385984
C112	C	0.922671	-0.636603	-0.319492
C113	C	1.256005	-0.303269	0.013841
C114	C	1.589338	0.030064	0.347174
C115	C	0.920067	-0.710113	-0.316871
C116	C	1.253400	-0.376779	0.016462
C117	C	1.586733	-0.043446	0.349795
C118	C	0.878719	-0.746945	-0.275437
C119	C	1.212052	-0.413612	0.057896
C120	C	1.545385	-0.080278	0.391229
C121	C	0.839969	-0.710263	-0.236627
C122	C	1.173302	-0.376930	0.096707
C123	C	1.506635	-0.043597	0.430040
C124	C	0.842571	-0.636755	-0.239251
C125	C	1.175904	-0.303421	0.094082
C126	C	1.509237	0.029912	0.427415
C127	C	0.866639	-0.966801	-0.263289
C128	C	1.199973	-0.633468	0.070045
C129	C	1.533306	-0.300134	0.403378
C130	C	0.864042	-1.040315	-0.260666
C131	C	1.197375	-0.706981	0.072668
C132	C	1.530708	-0.373648	0.406001
C133	C	0.944139	-1.040159	-0.340912
C134	C	1.277473	-0.706825	-0.007578
C135	C	1.610806	-0.373492	0.325755
C136	C	0.946740	-0.966649	-0.343530
C137	C	1.280074	-0.633315	-0.010196
C138	C	1.613407	-0.299982	0.323137
C139	C	0.907988	-0.929974	-0.304721
C140	C	1.241321	-0.596640	0.028612
C141	C	1.574655	-0.263307	0.361945
N142	N	0.876057	-0.822084	-0.272756
N143	N	1.209390	-0.488751	0.060577
N144	N	1.542723	-0.155417	0.393911
N145	N	0.910647	-0.854836	-0.307406
N146	N	1.243981	-0.521502	0.025927
N147	N	1.577314	-0.188169	0.359260
C148	C	1.056727	-0.338779	-0.290121
C149	C	1.390061	-0.005445	0.043213
C150	C	1.723394	0.327888	0.376546
C151	C	1.126369	-0.338763	-0.290152
C152	C	1.459703	-0.005430	0.043181
C153	C	1.793036	0.327904	0.376514
C154	C	0.893333	-0.338779	-0.453471
C155	C	1.226666	-0.005445	-0.120137
C156	C	1.560000	0.327888	0.213196
C157	C	0.893346	-0.338763	-0.523112
C158	C	1.226679	-0.005430	-0.189779
C159	C	1.560012	0.327904	0.143554
C160	C	0.899953	-0.155226	-0.296657
C161	C	1.233287	0.178107	0.036676
C162	C	1.566620	0.511441	0.370009
C163	C	0.902788	-0.076991	-0.299475
C164	C	1.236121	0.256342	0.033858
C165	C	1.569454	0.589676	0.367192
C166	C	0.931864	-0.383625	-1.023312
C167	C	1.265198	-0.050291	-0.689978
C168	C	1.598531	0.283042	-0.356645
C169	C	0.931852	-0.383647	-0.957875
C170	C	1.265185	-0.050314	-0.624542
C171	C	1.598519	0.283020	-0.291209
C172	C	0.893409	-0.338651	-0.926755
C173	C	1.226743	-0.005318	-0.593422
C174	C	1.560076	0.328015	-0.260088
C175	C	0.854964	-0.293643	-0.961076
C176	C	1.188297	0.039691	-0.627742
C177	C	1.521631	0.373024	-0.294409
C178	C	0.854973	-0.293627	-1.026510
C179	C	1.188306	0.039707	-0.693177
C180	C	1.521639	0.373040	-0.359844
C181	C	0.890746	-0.275263	-0.825367
C182	C	1.224079	0.058071	-0.492034
C183	C	1.557412	0.391404	-0.158700
C184	C	0.890741	-0.275278	-0.759933
C185	C	1.224075	0.058056	-0.426600
C186	C	1.557408	0.391389	-0.093267
C187	C	0.893379	-0.338701	-0.724932
C188	C	1.226713	-0.005368	-0.391599
C189	C	1.560046	0.327965	-0.058266
C190	C	0.896035	-0.402112	-0.755373
C191	C	1.229368	-0.068779	-0.422039
C192	C	1.562701	0.264555	-0.088706
C193	C	0.896043	-0.402096	-0.820807
C194	C	1.229376	-0.068763	-0.487474
C195	C	1.562710	0.264571	-0.154141
C196	C	0.893396	-0.338664	-0.855802
C197	C	1.226729	-0.005331	-0.522469
C198	C	1.560062	0.328003	-0.189135
C199	C	0.931806	-0.383735	-0.619666
C200	C	1.265139	-0.050401	-0.286333
C201	C	1.598473	0.282932	0.047001
C202	C	0.931790	-0.383758	-0.554228
C203	C	1.265123	-0.050425	-0.220895
C204	C	1.598456	0.282908	0.112438
C205	C	0.854905	-0.293748	-0.557430
C206	C	1.188238	0.039586	-0.224097
C207	C	1.521572	0.372919	0.109237
C208	C	0.854918	-0.293730	-0.622866
C209	C	1.188251	0.039603	-0.289533
C210	C	1.521585	0.372936	0.043800
C211	C	0.893372	-0.338723	-0.653980
C212	C	1.226705	-0.005390	-0.320647
C213	C	1.560039	0.327944	0.012686
C214	C	0.893311	-0.338802	-0.127259
C215	C	1.226644	-0.005468	0.206075
C216	C	1.559977	0.327865	0.539408
C217	C	0.893426	-0.338619	-0.057624
C218	C	1.226760	-0.005286	0.275709
C219	C	1.560093	0.328047	0.609042
H220	H	0.254077	-0.257012	-0.220464
H221	H	0.587410	0.076321	0.112869
H222	H	0.920743	0.409654	0.446202
H223	H	0.888583	-0.223645	-0.735154
H224	H	1.221917	0.109689	-0.401821
H225	H	1.555250	0.443022	-0.068487
H226	H	0.823603	-0.257113	-0.532092
H227	H	1.156936	0.076221	-0.198759
H228	H	1.490269	0.409554	0.134574
H229	H	0.963116	-0.420372	-0.645000
H230	H	1.296449	-0.087039	-0.311667
H231	H	1.629783	0.246294	0.021666
H232	H	0.823663	-0.257008	-0.935733
H233	H	1.156996	0.076326	-0.602400
H234	H	1.490329	0.409659	-0.269067
H235	H	0.657713	-0.257092	-0.220322
H236	H	0.991047	0.076242	0.113011
H237	H	1.324380	0.409575	0.446344
H238	H	0.452702	-0.349072	-0.392065
H239	H	0.786035	-0.015739	-0.058732
H240	H	1.119368	0.317595	0.274602
H241	H	0.129531	-0.420543	-0.359791
H242	H	0.462864	-0.087209	-0.026458
H243	H	0.796197	0.246124	0.306875
H244	H	0.975688	-1.070027	-0.372508
H245	H	1.309022	-0.736694	-0.039175
H246	H	1.642355	-0.403361	0.294159
H247	H	0.963162	-0.420288	-0.929933
H248	H	1.296496	-0.086955	-0.596600
H249	H	1.629829	0.246379	-0.263266
H250	H	0.135367	-0.256983	-0.220512
H251	H	0.468701	0.076350	0.112821
H252	H	0.802034	0.409684	0.446155
H253	H	0.823620	-0.257079	-0.650804
H254	H	1.156953	0.076254	-0.317471
H255	H	1.490287	0.409587	0.015862
H256	H	0.898203	-0.453727	-0.845589
H257	H	1.231537	-0.120394	-0.512256
H258	H	1.564870	0.212940	-0.178923
H259	H	0.334544	-0.328593	-0.188032
H260	H	0.667878	0.004741	0.145302
H261	H	1.001211	0.338074	0.478635
H262	H	0.539000	-0.257076	-0.220365
H263	H	0.872334	0.076257	0.112969
H264	H	1.205667	0.409591	0.446302
H265	H	0.888639	-0.223608	-0.853860
H266	H	1.221972	0.109726	-0.520527
H267	H	1.555306	0.443059	-0.187193
H268	H	0.898184	-0.453758	-0.726876
H269	H	1.231517	-0.120424	-0.393543
H270	H	1.564850	0.212909	-0.060209
H271	H	0.453248	-0.328613	-0.187988
H272	H	0.786582	0.004721	0.145346
H273	H	1.119915	0.338054	0.478679
H274	H	0.956344	-0.606618	-0.353229
H275	H	1.289677	-0.273285	-0.019896
H276	H	1.623011	0.060048	0.313437
H277	H	0.823671	-0.256976	-1.054448
H278	H	1.157005	0.076357	-0.721115
H279	H	1.490338	0.409691	-0.387781
H280	H	0.951622	-0.739971	-0.348469
H281	H	1.284956	-0.406638	-0.015136
H282	H	1.618289	-0.073304	0.318197
H283	H	0.248236	-0.420578	-0.359742
H284	H	0.581570	-0.087245	-0.026409
H285	H	0.914903	0.246089	0.306925
H286	H	0.980409	-0.936661	-0.377268
H287	H	1.313742	-0.603328	-0.043935
H288	H	1.647076	-0.269994	0.289398
H289	H	0.830368	-1.070302	-0.226925
H290	H	1.163702	-0.736968	0.106409
H291	H	1.497035	-0.403635	0.439742
H292	H	0.835087	-0.936946	-0.231688
H293	H	1.168420	-0.603612	0.101645
H294	H	1.501754	-0.270279	0.434979
H295	H	0.651869	-0.420671	-0.359590
H296	H	0.985202	-0.087337	-0.026256
H297	H	1.318536	0.245996	0.307077
H298	H	0.533164	-0.420638	-0.359638
H299	H	0.866497	-0.087305	-0.026304
H300	H	1.199830	0.246029	0.307029
H301	H	0.333991	-0.349041	-0.392108
H302	H	0.667324	-0.015707	-0.058775
H303	H	1.000657	0.317626	0.274559
H304	H	0.806300	-0.740258	-0.202893
H305	H	1.139633	-0.406925	0.130441
H306	H	1.472966	-0.073592	0.463774
H307	H	0.811019	-0.606894	-0.207649
H308	H	1.144352	-0.273560	0.125684
H309	H	1.477686	0.059773	0.459017
H310	H	0.963087	-0.420414	-0.526292
H311	H	1.296420	-0.087080	-0.192958
H312	H	1.629753	0.246253	0.140375
H313	H	0.963175	-0.420263	-1.048641
H314	H	1.296508	-0.086930	-0.715307
H315	H	1.629841	0.246403	-0.381974
