data_functionalizedCrystal
_audit_creation_method	'MofGen! by Chris Wilmer'
_symmetry_space_group_name_H-M	'P1'
_symmetry_Int_Tables_number	1
_symmetry_cell_setting	triclinic
loop_
_symmetry_equiv_pos_as_xyz
  x,y,z
_cell_length_a	15.944545
_cell_length_b	15.944551
_cell_length_c	15.455313
_cell_angle_alpha	92.664316
_cell_angle_beta	87.321378
_cell_angle_gamma	83.497455
loop_
_atom_site_label
_atom_site_type_symbol
_atom_site_fract_x
_atom_site_fract_y
_atom_site_fract_z
O1	O	1.118206	0.104636	-0.072076
O2	O	0.873657	0.117997	-0.072091
O3	O	1.002609	-0.010958	-0.072075
O4	O	0.989254	0.233591	-0.072092
O5	O	0.995235	-0.003614	0.072186
O6	O	0.866282	0.125341	0.072171
O7	O	1.110832	0.111980	0.072185
Cu8	Cu	0.987884	0.119331	0.085350
Cu9	Cu	0.996605	0.110646	-0.085256
O10	O	0.981880	0.240935	0.072170
C11	C	0.838676	0.121115	0.000038
C12	C	0.745429	0.119454	0.000033
C13	C	0.474796	0.034562	0.000048
C14	C	0.521742	0.079111	0.071176
C15	C	0.409785	0.113535	0.000048
C16	C	0.528993	0.071892	-0.071055
C17	C	0.574699	0.116439	0.000039
C18	C	0.455499	0.158066	0.071235
C19	C	0.462750	0.150832	-0.071059
C20	C	0.509662	0.195441	0.000086
C21	C	0.314782	0.111859	0.000054
C22	C	0.669698	0.118121	0.000040
C23	C	0.998367	-0.038580	0.000055
C24	C	0.996705	-0.131826	0.000056
C25	C	0.912801	-0.346682	0.000039
C26	C	0.948128	-0.404079	0.071171
C27	C	0.993698	-0.302552	0.000049
C28	C	0.955417	-0.411303	-0.071059
C29	C	0.990788	-0.467466	0.000039
C30	C	1.029044	-0.358718	0.071240
C31	C	1.036325	-0.365939	-0.071055
C32	C	1.071710	-0.423318	0.000095
C33	C	0.995372	-0.207550	0.000056
C34	C	0.989120	-0.562467	0.000038
C35	C	1.145813	0.108861	0.000054
C36	C	1.239059	0.110522	0.000054
C37	C	0.986121	0.268557	0.000037
C38	C	0.987784	0.361802	0.000031
N39	N	0.981756	0.125439	0.205345
N40	N	1.002739	0.104531	-0.205250
C41	C	1.036559	0.070674	0.250745
C42	C	1.031933	0.075301	0.341553
C43	C	0.972507	0.134697	0.386958
C44	C	0.917699	0.189464	0.341551
C45	C	0.922322	0.184833	0.250745
C46	C	0.952553	0.154666	0.658537
C47	C	0.947936	0.159296	0.749349
C48	C	1.062170	0.045131	0.749345
C49	C	1.066791	0.040508	0.658537
C50	C	1.011979	0.095272	0.613138
N51	N	0.967779	0.139430	0.479777
N52	N	1.016704	0.090535	0.520320
H53	H	0.525152	0.263507	0.000123
H54	H	0.907925	0.199259	0.621580
C55	C	1.100979	0.006034	0.201522
C56	C	1.086194	-0.075375	0.223640
C57	C	1.145512	-0.134955	0.178317
H58	H	1.156317	0.015827	0.216362
H59	H	1.095898	0.011039	0.140925
H60	H	1.091282	-0.080378	0.284223
H61	H	1.030868	-0.085195	0.208797
H62	H	1.140431	-0.129949	0.117721
H63	H	1.200846	-0.125153	0.193162
H64	H	1.135484	-0.190197	0.193312
H65	H	1.073586	-0.348871	-0.131190
H66	H	0.547599	0.048820	0.131313
C67	C	0.898499	-0.426709	0.151454
C68	C	0.936407	-0.398814	0.225762
C69	C	0.890702	-0.419633	0.299731
H70	H	0.898221	-0.486259	0.151260
H71	H	0.842057	-0.400185	0.151426
H72	H	0.992835	-0.425340	0.225790
H73	H	0.936685	-0.339266	0.225985
H74	H	0.834260	-0.393110	0.299703
H75	H	0.890427	-0.479184	0.299527
H76	H	0.916412	-0.400703	0.350157
H77	H	0.459139	-0.033447	0.000122
C78	C	1.130879	-0.024294	0.609087
C79	C	1.123031	-0.016793	0.519847
C80	C	1.181885	-0.076643	0.474267
H81	H	1.120633	-0.079461	0.624109
H82	H	1.186379	-0.014803	0.623674
H83	H	1.067545	-0.026290	0.505267
H84	H	1.133286	0.038361	0.504799
H85	H	1.237385	-0.067152	0.488854
H86	H	1.171634	-0.131806	0.489296
H87	H	1.176574	-0.071557	0.413713
C88	C	0.823291	-0.302226	-0.000059
C89	C	0.814505	-0.256098	-0.074655
C90	C	0.732060	-0.215145	-0.074778
H91	H	0.812354	-0.264931	0.049937
H92	H	0.784258	-0.343039	0.000447
H93	H	0.853527	-0.215290	-0.075153
H94	H	0.825425	-0.293373	-0.124663
H95	H	0.693026	-0.255958	-0.074272
H96	H	0.721130	-0.177855	-0.024778
H97	H	0.726085	-0.183849	-0.125393
C98	C	0.412838	0.206508	0.151480
C99	C	0.325342	0.204341	0.150579
C100	C	0.286016	0.248938	0.224494
H101	H	0.424867	0.263518	0.151767
H102	H	0.433477	0.181206	0.201948
H103	H	0.304711	0.229645	0.100125
H104	H	0.313288	0.147342	0.150305
H105	H	0.306654	0.223637	0.274962
H106	H	0.298051	0.305946	0.224775
H107	H	0.226646	0.247468	0.223897
H108	H	0.869309	0.237823	0.378525
C109	C	1.121766	-0.014381	0.798479
C110	C	1.174807	-0.067378	0.739279
C111	C	1.229723	-0.122211	0.784509
H112	H	1.089840	-0.047636	0.833914
H113	H	1.154979	0.017633	0.833875
H114	H	1.141598	-0.099389	0.703898
H115	H	1.206752	-0.034146	0.703842
H116	H	1.262936	-0.090197	0.819905
H117	H	1.197790	-0.155460	0.819943
H118	H	1.265723	-0.158170	0.744349
C119	C	0.428313	0.191036	-0.151350
C120	C	0.465810	0.145608	-0.225625
C121	C	0.434099	0.182605	-0.299612
H122	H	0.440867	0.247844	-0.151986
H123	H	0.368806	0.190126	-0.150526
H124	H	0.525303	0.146527	-0.226450
H125	H	0.453260	0.088802	-0.225019
H126	H	0.374592	0.181695	-0.298788
H127	H	0.446654	0.239411	-0.300238
H128	H	0.459530	0.151783	-0.350016
H129	H	0.560984	0.035465	-0.131184
C130	C	1.070687	-0.328058	0.151443
C131	C	1.153598	-0.367842	0.151525
C132	C	1.191985	-0.339609	0.225387
H133	H	1.039665	-0.341376	0.201954
H134	H	1.071519	-0.268596	0.150971
H135	H	1.152762	-0.427291	0.152004
H136	H	1.184642	-0.354529	0.101031
H137	H	1.192817	-0.280146	0.224916
H138	H	1.160957	-0.352928	0.275893
H139	H	1.248247	-0.366592	0.225449
C140	C	1.161379	-0.467407	0.000016
C141	C	1.207615	-0.447071	-0.073809
C142	C	1.290227	-0.487650	-0.073900
H143	H	1.160011	-0.526832	-0.000507
H144	H	1.187431	-0.449288	0.050554
H145	H	1.181570	-0.465195	-0.124334
H146	H	1.209007	-0.387654	-0.073302
H147	H	1.316278	-0.469532	-0.023362
H148	H	1.288850	-0.547073	-0.074421
H149	H	1.321610	-0.473852	-0.123985
H150	H	0.899542	0.207667	0.786314
C151	C	0.914028	-0.442144	-0.151350
C152	C	0.959548	-0.421828	-0.225652
C153	C	0.921447	-0.450230	-0.299626
H154	H	0.857584	-0.415658	-0.151386
H155	H	0.913764	-0.501686	-0.151099
H156	H	0.959804	-0.362296	-0.225903
H157	H	1.015991	-0.448312	-0.225644
H158	H	0.921182	-0.509773	-0.299375
H159	H	0.865003	-0.423742	-0.299654
H160	H	0.952330	-0.436457	-0.350048
C161	C	0.862778	0.244396	0.201606
C162	C	0.809761	0.297421	0.260803
C163	C	0.754902	0.352308	0.215569
H164	H	0.829537	0.212449	0.166192
H165	H	0.894774	0.277621	0.166189
H166	H	0.777768	0.264199	0.296206
H167	H	0.842978	0.329386	0.296219
H168	H	0.786898	0.385533	0.180152
H169	H	0.721668	0.320354	0.180157
H170	H	0.718929	0.388296	0.255727
H171	H	1.076557	0.030707	0.378518
