data_functionalizedCrystal
_audit_creation_method	'MofGen! by Chris Wilmer'
_symmetry_space_group_name_H-M	'P1'
_symmetry_Int_Tables_number	1
_symmetry_cell_setting	triclinic
loop_
_symmetry_equiv_pos_as_xyz
  x,y,z
_cell_length_a	10.654562
_cell_length_b	10.654548
_cell_length_c	9.730223
_cell_angle_alpha	89.997973
_cell_angle_beta	89.996961
_cell_angle_gamma	95.512860
loop_
_atom_site_label
_atom_site_type_symbol
_atom_site_fract_x
_atom_site_fract_y
_atom_site_fract_z
O1	O	1.667824	-0.176469	-0.114369
O2	O	1.302347	-0.193259	-0.114351
O3	O	1.493489	-0.002125	-0.114363
O4	O	1.476681	-0.367603	-0.114357
O5	O	1.493487	-0.002130	0.114217
O6	O	1.302345	-0.193264	0.114229
O7	O	1.667821	-0.176474	0.114211
Zn8	Zn	1.485083	-0.184870	0.150512
Zn9	Zn	1.485086	-0.184863	-0.150652
O10	O	1.476679	-0.367608	0.114223
C11	C	1.255548	-0.192025	-0.000059
C12	C	1.116106	-0.188327	-0.000052
C13	C	1.050574	-0.186605	0.124536
C14	C	0.919552	-0.183140	0.124513
C15	C	0.919604	-0.183125	-0.124698
C16	C	1.050625	-0.186581	-0.124673
C17	C	1.050542	-0.186618	0.268416
C18	C	0.919520	-0.183154	0.268393
C19	C	1.492255	0.044671	-0.000077
C20	C	1.488564	0.184114	-0.000087
C21	C	1.486833	0.249629	-0.124684
C22	C	1.483355	0.380650	-0.124679
C23	C	1.483342	0.380630	0.124531
C24	C	1.486812	0.249610	0.124525
C25	C	1.486846	0.249642	-0.268564
C26	C	1.483367	0.380663	-0.268559
C27	C	1.714620	-0.177708	-0.000084
C28	C	1.854063	-0.181406	-0.000100
N29	N	1.485090	-0.184873	0.356048
C30	C	1.477916	0.585597	-0.000069
C31	C	1.481615	0.446154	-0.000076
N32	N	1.485088	-0.184850	-0.356188
C33	C	1.569750	-0.100268	0.427969
C34	C	1.569746	-0.100253	0.571852
C35	C	1.400419	-0.269459	0.571881
C36	C	1.400418	-0.269467	0.428001
C37	C	1.667513	-0.002582	0.427953
C38	C	1.667510	-0.002567	0.571836
H39	H	0.866274	-0.181703	-0.226159
Br40	Br	1.342201	0.172501	-0.360643
H41	H	1.646071	0.093952	0.388899
H42	H	1.758696	-0.033175	0.383323
Br43	Br	0.870173	-0.030633	0.343124
Br44	Br	1.330704	0.429966	-0.342969
H45	H	1.096802	-0.099825	0.323667
Br46	Br	1.480956	0.469524	0.293639
H47	H	0.873232	-0.269951	0.323630
H48	H	1.570159	0.426951	-0.323807
Br49	Br	1.285509	-0.384257	0.669537
H50	H	1.080115	-0.278215	0.313060
Br51	Br	1.489110	0.160694	0.293627
Br52	Br	1.639511	0.200344	-0.342979
Br53	Br	1.828365	-0.038423	0.636930
H54	H	1.103979	-0.187964	-0.226125
H55	H	1.331470	-0.338348	0.369444
H56	H	1.636998	0.088657	0.616452
