data_functionalizedCrystal
_audit_creation_method	'MofGen! by Chris Wilmer'
_symmetry_space_group_name_H-M	'P1'
_symmetry_Int_Tables_number	1
_symmetry_cell_setting	triclinic
loop_
_symmetry_equiv_pos_as_xyz
  x,y,z
_cell_length_a	16.959454
_cell_length_b	16.959455
_cell_length_c	17.077396
_cell_angle_alpha	89.981150
_cell_angle_beta	89.975265
_cell_angle_gamma	90.019503
loop_
_atom_site_label
_atom_site_type_symbol
_atom_site_fract_x
_atom_site_fract_y
_atom_site_fract_z
Zn1	Zn	-0.314694	1.208416	-0.443850
Zn2	Zn	0.018640	1.541749	-0.110516
Zn3	Zn	0.351973	1.875083	0.222817
Zn4	Zn	-0.446881	1.208329	-0.312592
Zn5	Zn	-0.113548	1.541662	0.020741
Zn6	Zn	0.219785	1.874996	0.354075
Zn7	Zn	-0.314720	1.076235	-0.312599
Zn8	Zn	0.018614	1.409568	0.020734
Zn9	Zn	0.351947	1.742902	0.354068
Zn10	Zn	-0.446833	1.076209	-0.443817
Zn11	Zn	-0.113499	1.409543	-0.110484
Zn12	Zn	0.219834	1.742876	0.222849
O13	O	-0.380782	1.142297	-0.378214
O14	O	-0.047448	1.475631	-0.044881
O15	O	0.285885	1.808964	0.288452
O16	O	-0.332238	1.319015	-0.426449
O17	O	0.001095	1.652349	-0.093115
O18	O	0.334429	1.985682	0.240218
O19	O	-0.429381	1.190781	-0.202746
O20	O	-0.096048	1.524114	0.130587
O21	O	0.237286	1.857448	0.463921
O22	O	-0.204105	1.093816	-0.330026
O23	O	0.129228	1.427150	0.003307
O24	O	0.462561	1.760483	0.336641
O25	O	-0.429356	1.318951	-0.330014
O26	O	-0.096023	1.652285	0.003319
O27	O	0.237311	1.985618	0.336652
O28	O	-0.204086	1.190929	-0.426455
O29	O	0.129247	1.524263	-0.093122
O30	O	0.462581	1.857596	0.240211
O31	O	-0.332282	1.093732	-0.202751
O32	O	0.001051	1.427065	0.130582
O33	O	0.334384	1.760399	0.463916
O34	O	-0.332235	0.965621	-0.329995
O35	O	0.001098	1.298954	0.003339
O36	O	0.334432	1.632287	0.336672
O37	O	-0.429273	1.093772	-0.553668
O38	O	-0.095940	1.427106	-0.220335
O39	O	0.237394	1.760439	0.112998
O40	O	-0.429298	0.965602	-0.426400
O41	O	-0.095965	1.298935	-0.093067
O42	O	0.237369	1.632268	0.240267
O43	O	-0.332191	1.190904	-0.553692
O44	O	0.001142	1.524238	-0.220359
O45	O	0.334476	1.857571	0.112974
O46	O	-0.557486	1.190756	-0.329983
O47	O	-0.224153	1.524089	0.003350
O48	O	0.109181	1.857423	0.336684
O49	O	-0.557450	1.093688	-0.426393
O50	O	-0.224117	1.427021	-0.093060
O51	O	0.109217	1.760355	0.240273
C52	C	-0.380765	0.936931	-0.378195
C53	C	-0.047431	1.270264	-0.044862
C54	C	0.285902	1.603598	0.288472
C55	C	-0.380776	0.849075	-0.378205
C56	C	-0.047443	1.182408	-0.044872
C57	C	0.285890	1.515741	0.288461
C58	C	-0.431269	0.807765	-0.327925
C59	C	-0.097936	1.141099	0.005408
C60	C	0.235398	1.474432	0.338742
C61	C	-0.330290	0.807830	-0.428492
C62	C	0.003044	1.141163	-0.095159
C63	C	0.336377	1.474497	0.238175
C64	C	-0.330296	0.725284	-0.428501
C65	C	0.003037	1.058618	-0.095168
C66	C	0.336371	1.391951	0.238165
C67	C	-0.380789	0.683975	-0.378221
C68	C	-0.047455	1.017308	-0.044888
C69	C	0.285878	1.350642	0.288446
C70	C	-0.431275	0.725212	-0.327931
C71	C	-0.097942	1.058545	0.005402
C72	C	0.235391	1.391878	0.338735
C73	C	-0.279805	0.684041	-0.478784
C74	C	0.053529	1.017375	-0.145451
C75	C	0.386862	1.350708	0.187882
C76	C	-0.279808	0.601490	-0.478795
C77	C	0.053525	0.934824	-0.145462
C78	C	0.386858	1.268157	0.187871
C79	C	-0.330306	0.560180	-0.428518
C80	C	0.003028	0.893513	-0.095185
C81	C	0.336361	1.226846	0.238148
C82	C	-0.380795	0.601422	-0.378227
C83	C	-0.047462	0.934755	-0.044894
C84	C	0.285872	1.268088	0.288439
C85	C	-0.431288	0.560112	-0.327947
C86	C	-0.097954	0.893446	0.005386
C87	C	0.235379	1.226779	0.338720
C88	C	-0.481781	0.601353	-0.277659
C89	C	-0.148448	0.934686	0.055674
C90	C	0.184885	1.268019	0.389008
C91	C	-0.481773	0.683901	-0.277654
C92	C	-0.148439	1.017235	0.055679
C93	C	0.184894	1.350568	0.389012
C94	C	-0.330314	0.477631	-0.428523
C95	C	0.003019	0.810965	-0.095190
C96	C	0.336352	1.144298	0.238144
C97	C	-0.431294	0.477559	-0.327953
C98	C	-0.097960	0.810892	0.005380
C99	C	0.235373	1.144226	0.338714
C100	C	-0.586148	1.142231	-0.378201
C101	C	-0.252815	1.475564	-0.044868
C102	C	0.080519	1.808898	0.288466
C103	C	-0.674005	1.142275	-0.378222
C104	C	-0.340671	1.475608	-0.044888
C105	C	-0.007338	1.808942	0.288445
C106	C	-1.045492	1.091828	-0.428410
C107	C	-0.712158	1.425161	-0.095077
C108	C	-0.378825	1.758494	0.238257
C109	C	-1.045469	1.192987	-0.328099
C110	C	-0.712136	1.526321	0.005235
C111	C	-0.378802	1.859654	0.338568
C112	C	-0.962923	1.192960	-0.328092
C113	C	-0.629590	1.526293	0.005242
C114	C	-0.296256	1.859627	0.338575
C115	C	-0.921658	1.142364	-0.378243
C116	C	-0.588324	1.475698	-0.044910
C117	C	-0.254991	1.809031	0.288423
C118	C	-0.962938	1.091797	-0.428403
C119	C	-0.629605	1.425130	-0.095069
C120	C	-0.296271	1.758463	0.238264
C121	C	-0.921636	1.243521	-0.277928
C122	C	-0.588303	1.576854	0.055406
C123	C	-0.254970	1.910188	0.388739
C124	C	-0.839085	1.243495	-0.277918
C125	C	-0.505752	1.576828	0.055415
C126	C	-0.172419	1.910161	0.388749
C127	C	-0.797819	1.192903	-0.328074
C128	C	-0.464485	1.526236	0.005259
C129	C	-0.131152	1.859569	0.338592
C130	C	-0.839104	1.142334	-0.378236
C131	C	-0.505771	1.475667	-0.044903
C132	C	-0.172437	1.809000	0.288430
C133	C	-0.797839	1.091738	-0.428388
C134	C	-0.464505	1.425072	-0.095055
C135	C	-0.131172	1.758405	0.238279
C136	C	-0.839123	1.041172	-0.478554
C137	C	-0.505789	1.374506	-0.145221
C138	C	-0.172456	1.707839	0.188112
C139	C	-0.921671	1.041205	-0.478559
C140	C	-0.588338	1.374538	-0.145226
C141	C	-0.255004	1.707871	0.188108
C142	C	-0.715270	1.192871	-0.328070
C143	C	-0.381937	1.526204	0.005264
C144	C	-0.048603	1.859537	0.338597
C145	C	-0.715285	1.091707	-0.428381
C146	C	-0.381952	1.425041	-0.095047
C147	C	-0.048618	1.758374	0.238286
C148	C	-0.174614	1.142385	-0.378245
C149	C	0.158720	1.475719	-0.044912
C150	C	0.492053	1.809052	0.288422
C151	C	-0.086757	1.142423	-0.378258
C152	C	0.246576	1.475756	-0.044925
C153	C	0.579910	1.809090	0.288409
C154	C	-0.380724	1.142345	-0.582959
C155	C	-0.047390	1.475679	-0.249625
C156	C	0.285943	1.809012	0.083708
C157	C	-0.380699	1.142366	-0.670209
C158	C	-0.047365	1.475699	-0.336875
C159	C	0.285968	1.809032	-0.003542
C160	C	-0.380800	1.348466	-0.378234
C161	C	-0.047466	1.681799	-0.044901
C162	C	0.285867	2.015132	0.288432
C163	C	-0.380807	1.436322	-0.378243
C164	C	-0.047474	1.769655	-0.044909
C165	C	0.285859	2.102989	0.288424
C166	C	-0.330144	1.192944	-0.711212
C167	C	0.003189	1.526277	-0.377879
C168	C	0.336523	1.859611	-0.044546
C169	C	-0.330118	1.192953	-0.793193
C170	C	0.003216	1.526287	-0.459860
C171	C	0.336549	1.859620	-0.126526
C172	C	-0.380651	1.142388	-0.834168
C173	C	-0.047317	1.475721	-0.500835
C174	C	0.286016	1.809055	-0.167501
C175	C	-0.431208	1.091804	-0.793159
C176	C	-0.097874	1.425137	-0.459825
C177	C	0.235459	1.758471	-0.126492
C178	C	-0.431229	1.091791	-0.711180
C179	C	-0.097896	1.425124	-0.377846
C180	C	0.235437	1.758458	-0.044513
C181	C	-0.431160	1.091836	-0.964029
C182	C	-0.097827	1.425169	-0.630695
C183	C	0.235506	1.758503	-0.297362
C184	C	-0.431140	1.091850	-1.046013
C185	C	-0.097806	1.425183	-0.712680
C186	C	0.235527	1.758516	-0.379347
C187	C	-0.330048	1.192998	-1.046042
C188	C	0.003285	1.526332	-0.712709
C189	C	0.336618	1.859665	-0.379375
C190	C	-0.330070	1.192985	-0.964063
C191	C	0.003263	1.526319	-0.630730
C192	C	0.336597	1.859652	-0.297396
C193	C	-0.380628	1.142402	-0.923059
C194	C	-0.047295	1.475736	-0.589726
C195	C	0.286038	1.809069	-0.256393
C196	C	-0.380783	1.142295	-0.174267
C197	C	-0.047449	1.475629	0.159067
C198	C	0.285884	1.808962	0.492400
C199	C	-0.380585	1.142428	-0.087017
C200	C	-0.047252	1.475761	0.246316
C201	C	0.286082	1.809095	0.579649
H202	H	-0.289177	0.841469	-0.469424
H203	H	0.044156	1.174802	-0.136091
H204	H	0.377489	1.508136	0.197242
H205	H	-0.289197	0.444057	-0.469461
H206	H	0.044136	0.777390	-0.136128
H207	H	0.377469	1.110724	0.197206
O208	O	-0.225355	0.557010	-0.533034
O209	O	0.107978	0.890344	-0.199701
O210	O	0.441311	1.223677	0.133632
H211	H	-0.190248	0.599605	-0.567998
H212	H	0.143086	0.932938	-0.234665
H213	H	0.476419	1.266271	0.098668
H214	H	-1.079072	1.234175	-0.287263
H215	H	-0.745739	1.567509	0.046071
H216	H	-0.412405	1.900842	0.379404
H217	H	-0.472388	1.050597	-0.677795
H218	H	-0.139055	1.383930	-0.344462
H219	H	0.194278	1.717264	-0.011129
H220	H	-0.955292	1.000036	-0.519401
H221	H	-0.621959	1.333369	-0.186068
H222	H	-0.288625	1.666703	0.147266
H223	H	-0.681660	1.234037	-0.287221
H224	H	-0.348327	1.567370	0.046112
H225	H	-0.014994	1.900703	0.379445
H226	H	-0.472415	0.443931	-0.287011
H227	H	-0.139082	0.777264	0.046322
H228	H	0.194252	1.110597	0.379655
H229	H	-0.681692	1.050509	-0.469224
H230	H	-0.348358	1.383842	-0.135890
H231	H	-0.015025	1.717176	0.197443
O232	O	-0.794617	0.986596	-0.532645
O233	O	-0.461283	1.319930	-0.199311
O234	O	-0.127950	1.653263	0.134022
H235	H	-0.756961	1.021935	-0.572611
H236	H	-0.423628	1.355269	-0.239278
H237	H	-0.090294	1.688602	0.094055
O238	O	-0.536239	0.556796	-0.223426
O239	O	-0.202906	0.890130	0.109908
O240	O	0.130427	1.223463	0.443241
H241	H	-0.527757	0.492468	-0.231883
H242	H	-0.194423	0.825801	0.101451
H243	H	0.138910	1.159135	0.434784
H244	H	-1.079109	1.050660	-0.469256
H245	H	-0.745775	1.383994	-0.135923
H246	H	-0.412442	1.717327	0.197410
O247	O	-0.225342	0.728592	-0.533009
O248	O	0.107991	1.061925	-0.199676
O249	O	0.441324	1.395258	0.133657
H250	H	-0.233828	0.792921	-0.524561
H251	H	0.099505	1.126254	-0.191228
H252	H	0.432838	1.459588	0.142105
O253	O	-0.536220	0.728379	-0.223408
O254	O	-0.202887	1.061712	0.109926
O255	O	0.130447	1.395045	0.443259
H256	H	-0.527722	0.792719	-0.231843
H257	H	-0.194389	1.126053	0.101491
H258	H	0.138945	1.459386	0.434824
H259	H	-0.472350	1.050630	-0.826527
H260	H	-0.139016	1.383963	-0.493194
H261	H	0.194317	1.717297	-0.159860
O262	O	-0.966139	1.298118	-0.223865
O263	O	-0.632806	1.631451	0.109468
O264	O	-0.299473	1.964784	0.442802
H265	H	-1.030476	1.289661	-0.232317
H266	H	-0.697143	1.622994	0.101016
H267	H	-0.363809	1.956327	0.434350
O268	O	-0.275509	1.247548	-1.090265
O269	O	0.057824	1.580882	-0.756932
O270	O	0.391158	1.914215	-0.423598
H271	H	-0.310879	1.287747	-1.127625
H272	H	0.022455	1.621080	-0.794291
H273	H	0.355788	1.954414	-0.460958
O274	O	-0.794558	1.298039	-0.223823
O275	O	-0.461225	1.631372	0.109510
O276	O	-0.127892	1.964706	0.442843
H277	H	-0.837122	1.333230	-0.188957
H278	H	-0.503789	1.666564	0.144377
H279	H	-0.170456	1.999897	0.477710
O280	O	-0.485634	1.037306	-1.090213
O281	O	-0.152300	1.370639	-0.756880
O282	O	0.181033	1.703972	-0.423547
H283	H	-0.520784	1.002120	-1.047930
H284	H	-0.187451	1.335453	-0.714597
H285	H	0.145883	1.668787	-0.381263
H286	H	-0.288996	1.234123	-0.677856
H287	H	0.044337	1.567456	-0.344523
H288	H	0.377670	1.900789	-0.011190
H289	H	-0.472318	1.050633	-0.930646
H290	H	-0.138984	1.383967	-0.597313
H291	H	0.194349	1.717300	-0.263979
H292	H	-0.288926	1.234165	-0.930703
H293	H	0.044407	1.567498	-0.597370
H294	H	0.377741	1.900831	-0.264037
O295	O	-0.485724	0.852237	-0.273681
O296	O	-0.152391	1.185570	0.059652
O297	O	0.180943	1.518904	0.392986
H298	H	-0.477237	0.916579	-0.282117
H299	H	-0.143903	1.249912	0.051217
H300	H	0.189430	1.583246	0.384550
O301	O	-0.275596	1.247510	-0.837422
O302	O	0.057737	1.580843	-0.504088
O303	O	0.391071	1.914177	-0.170755
H304	H	-0.240470	1.282677	-0.795156
H305	H	0.092864	1.616011	-0.461823
H306	H	0.426197	1.949344	-0.128490
