data_functionalizedCrystal
_audit_creation_method	'MofGen! by Chris Wilmer'
_symmetry_space_group_name_H-M	'P1'
_symmetry_Int_Tables_number	1
_symmetry_cell_setting	triclinic
loop_
_symmetry_equiv_pos_as_xyz
  x,y,z
_cell_length_a	16.176319
_cell_length_b	17.699083
_cell_length_c	17.699092
_cell_angle_alpha	96.715309
_cell_angle_beta	89.994879
_cell_angle_gamma	90.001389
loop_
_atom_site_label
_atom_site_type_symbol
_atom_site_fract_x
_atom_site_fract_y
_atom_site_fract_z
O1	O	-0.068628	-1.004082	0.095713
O2	O	-0.068654	-0.783704	0.108165
O3	O	-0.068638	-0.900116	-0.008250
O4	O	-0.068644	-0.887670	0.212128
O5	O	0.068855	-0.900100	-0.008257
O6	O	0.068839	-0.783688	0.108158
O7	O	0.068866	-1.004066	0.095705
Cu8	Cu	0.081406	-0.893875	0.101931
Cu9	Cu	-0.081195	-0.893894	0.101940
O10	O	0.068850	-0.887654	0.212120
C11	C	0.000089	-0.755499	0.107715
C12	C	0.000079	-0.671480	0.106377
N13	N	0.195772	-0.893867	0.101924
C14	C	0.000107	-0.899661	-0.036450
C15	C	0.000103	-0.898319	-0.120468
N16	N	-0.195560	-0.893908	0.101940
C17	C	0.239043	-0.945430	0.050397
C18	C	0.325590	-0.945434	0.050396
C19	C	0.368864	-0.893878	0.101927
C20	C	0.325587	-0.842310	0.153457
C21	C	0.239041	-0.842303	0.153453
C22	C	0.674615	-0.842336	0.153471
C23	C	0.761167	-0.842348	0.153472
C24	C	0.761164	-0.945467	0.050414
C25	C	0.674618	-0.945460	0.050410
C26	C	0.631349	-0.893889	0.101937
C27	C	0.537504	-0.893885	0.101936
C28	C	0.462707	-0.893886	0.101932
C29	C	0.000121	-1.032271	0.096155
C30	C	0.000125	-1.116289	0.097494
C31	C	0.000077	-0.622862	0.174710
C32	C	0.000088	-0.543918	0.173448
C33	C	0.000094	-0.513595	0.103851
C34	C	0.000098	-0.562220	0.035513
C35	C	0.000093	-0.641162	0.036776
C36	C	0.000119	-0.243857	0.030418
C37	C	0.000121	-0.164909	0.029160
C38	C	0.000113	-0.146613	0.167089
C39	C	0.000109	-0.225555	0.168352
C40	C	0.000117	-0.274173	0.100014
C41	C	0.000107	-0.359772	0.101384
C42	C	0.000098	-0.427998	0.102481
C43	C	-0.074846	-0.897700	-0.159932
C44	C	-0.074847	-0.896435	-0.238875
C45	C	0.000102	-0.895795	-0.278353
C46	C	0.075056	-0.896412	-0.238884
C47	C	0.075056	-0.897672	-0.159942
C48	C	0.075057	-0.891332	-0.557249
C49	C	0.075050	-0.890075	-0.636197
C50	C	-0.074846	-0.890095	-0.636182
C51	C	-0.074846	-0.891355	-0.557240
C52	C	0.000108	-0.891968	-0.517777
C53	C	0.000108	-0.893338	-0.432178
C54	C	0.000102	-0.894430	-0.363952
C55	C	0.000103	-0.888109	0.240321
C56	C	0.000101	-0.889450	0.324339
H57	H	0.360821	-0.987420	0.008438
H58	H	-0.135877	-0.895934	-0.271003
C59	C	-0.161797	-0.827667	-0.459872
C60	C	-0.157247	-0.892003	-0.513862
H61	H	-0.212671	-0.828053	-0.433097
H62	H	-0.158635	-0.783081	-0.484839
H63	H	-0.117174	-0.828243	-0.425057
H64	H	-0.201866	-0.891424	-0.548681
H65	H	-0.160416	-0.936600	-0.488894
C66	C	0.202840	-0.826694	-0.524355
C67	C	0.157451	-0.892030	-0.513891
H68	H	0.253712	-0.827135	-0.497591
H69	H	0.172056	-0.782788	-0.505547
H70	H	0.213545	-0.825858	-0.577024
H71	H	0.146740	-0.892864	-0.461222
H72	H	0.188241	-0.935948	-0.532695
C73	C	-0.202618	-0.824667	-0.651843
C74	C	-0.157236	-0.889397	-0.679564
H75	H	-0.253481	-0.824238	-0.678624
H76	H	-0.171820	-0.780350	-0.658927
H77	H	-0.213342	-0.825524	-0.599180
H78	H	-0.146507	-0.888537	-0.732226
H79	H	-0.188041	-0.933726	-0.672487
H80	H	0.136086	-0.889552	-0.668338
H81	H	0.796403	-0.987456	0.008455
C82	C	0.000094	-0.770301	-0.022533
C83	C	0.000094	-0.694609	-0.038337
H84	H	0.000103	-0.803295	-0.068907
H85	H	-0.047852	-0.779475	0.006006
H86	H	0.048042	-0.779470	0.006011
H87	H	-0.047857	-0.685438	-0.066877
H88	H	0.048046	-0.685431	-0.066888
H89	H	0.000115	-0.537525	-0.021154
H90	H	0.639387	-0.987444	0.008451
H91	H	0.796399	-0.800362	0.195436
C92	C	0.000121	-0.254002	-0.106049
C93	C	0.000121	-0.297292	-0.044699
H94	H	0.000118	-0.286994	-0.152424
H95	H	0.048066	-0.222832	-0.103672
H96	H	-0.047829	-0.222829	-0.103662
H97	H	0.048075	-0.328460	-0.047082
H98	H	-0.047828	-0.328474	-0.047076
H99	H	0.639392	-0.800347	0.195427
C100	C	0.141616	-0.894487	-0.359904
C101	C	0.157442	-0.895716	-0.282279
H102	H	0.192480	-0.894065	-0.386692
H103	H	0.110825	-0.850167	-0.366987
H104	H	0.110821	-0.938405	-0.378680
H105	H	0.188231	-0.851794	-0.263501
H106	H	0.188246	-0.940040	-0.275191
H107	H	0.136087	-0.898166	-0.127810
C108	C	-0.223017	-0.897585	-0.167853
C109	C	-0.157233	-0.898401	-0.116540
H110	H	-0.273879	-0.898011	-0.141064
H111	H	-0.219895	-0.941210	-0.204493
H112	H	-0.219895	-0.852972	-0.192793
H113	H	-0.160350	-0.943017	-0.091604
H114	H	-0.160356	-0.854772	-0.079887
C115	C	0.458255	-0.796537	0.199230
C116	C	0.373152	-0.785640	0.210103
H117	H	0.487616	-0.761554	0.234207
H118	H	0.472444	-0.788410	0.148734
H119	H	0.472419	-0.847036	0.207388
H120	H	0.358986	-0.735142	0.201940
H121	H	0.358957	-0.793760	0.260611
H122	H	0.000072	-0.647544	0.231383
H123	H	0.203811	-0.800315	0.195411
H124	H	0.000086	-0.504335	0.229091
C125	C	0.247742	-1.047357	-0.051480
C126	C	0.191480	-1.002101	-0.006250
H127	H	0.218379	-1.082339	-0.086456
H128	H	0.281487	-1.074524	-0.020008
H129	H	0.281508	-1.015897	-0.078661
H130	H	0.157718	-1.033561	0.020935
H131	H	0.157721	-0.974933	-0.037727
H132	H	0.000127	-0.140224	-0.027517
H133	H	0.000100	-0.250239	0.225025
H134	H	0.000111	-0.107018	0.222733
