data_functionalizedCrystal
_audit_creation_method	'MofGen! by Chris Wilmer'
_symmetry_space_group_name_H-M	'P1'
_symmetry_Int_Tables_number	1
_symmetry_cell_setting	triclinic
loop_
_symmetry_equiv_pos_as_xyz
  x,y,z
_cell_length_a	15.944551
_cell_length_b	15.944551
_cell_length_c	15.021413
_cell_angle_alpha	89.996935
_cell_angle_beta	89.997174
_cell_angle_gamma	96.501262
loop_
_atom_site_label
_atom_site_type_symbol
_atom_site_fract_x
_atom_site_fract_y
_atom_site_fract_z
O1	O	1.114529	-0.108321	-0.073941
O2	O	0.869979	-0.121677	-0.073964
O3	O	0.998932	0.007276	-0.073944
O4	O	0.985576	-0.237274	-0.073961
O5	O	0.998912	0.007257	0.074121
O6	O	0.869959	-0.121695	0.074101
O7	O	1.114508	-0.108339	0.074123
Zn8	Zn	0.992230	-0.115020	0.097620
Zn9	Zn	0.992257	-0.114996	-0.097461
O10	O	0.985555	-0.237292	0.074103
C11	C	0.838675	-0.121132	0.000066
C12	C	0.745429	-0.119470	0.000057
C13	C	0.530572	-0.035565	0.000081
C14	C	0.469562	-0.074518	-0.072926
C15	C	0.574703	-0.116462	0.000068
C16	C	0.469564	-0.074556	0.073054
C17	C	0.409790	-0.113551	0.000083
C18	C	0.514921	-0.155438	-0.072998
C19	C	0.514930	-0.155464	0.073047
C20	C	0.453937	-0.194476	0.000023
C21	C	0.669705	-0.118137	0.000059
C22	C	0.314789	-0.111883	0.000085
C23	C	0.998367	0.038561	0.000089
C24	C	0.996705	0.131807	0.000089
C25	C	1.145813	-0.108885	0.000092
C26	C	1.239059	-0.110547	0.000094
C27	C	0.986120	-0.268577	0.000069
C28	C	0.987782	-0.361823	0.000063
N29	N	0.992218	-0.115036	0.230758
C30	C	0.912801	0.346663	0.000069
C31	C	0.951753	0.407672	0.073077
C32	C	0.993698	0.302533	0.000082
C33	C	0.951792	0.407673	-0.072903
C34	C	0.990787	0.467445	0.000071
C35	C	1.032672	0.362313	0.073150
C36	C	1.032700	0.362308	-0.072895
C37	C	1.071711	0.423298	0.000131
C38	C	0.995372	0.207530	0.000089
C39	C	0.989119	0.562446	0.000070
N40	N	0.992276	-0.114973	-0.230598
C41	C	0.932581	-0.174636	0.470432
C42	C	1.008481	-0.190943	0.529772
C43	C	0.992239	-0.115015	0.412365
C44	C	0.916360	-0.098727	0.529766
C45	C	0.992253	-0.114997	0.587789
C46	C	1.068178	-0.131360	0.470398
C47	C	0.976006	-0.039111	0.470387
C48	C	1.051962	-0.055386	0.529701
C49	C	0.992230	-0.115028	0.311307
C50	C	0.992271	-0.114984	0.688844
H51	H	0.534918	-0.189621	-0.134787
C52	C	0.905522	0.434836	0.156450
C53	C	0.812512	0.400640	0.172479
C54	C	0.766274	0.427801	0.255847
C55	C	0.813047	0.489158	0.323186
C56	C	0.906062	0.523357	0.307159
C57	C	0.952299	0.496196	0.223790
H58	H	0.777883	0.355217	0.122629
H59	H	0.697418	0.402484	0.267711
H60	H	0.778819	0.509264	0.384900
H61	H	0.940690	0.568780	0.357008
H62	H	1.021155	0.521513	0.211926
H63	H	0.852184	-0.084959	0.555847
H64	H	0.449470	-0.040332	0.134773
C65	C	0.409124	-0.285260	-0.000040
C66	C	0.423540	-0.345430	-0.077336
C67	C	0.378720	-0.436210	-0.077407
C68	C	0.319483	-0.466822	-0.000183
C69	C	0.305064	-0.406651	0.077118
C70	C	0.349884	-0.315871	0.077190
H71	H	0.467393	-0.322770	-0.134507
H72	H	0.389394	-0.480752	-0.134631
H73	H	0.286305	-0.534023	-0.000236
H74	H	0.261211	-0.429311	0.134290
H75	H	0.339210	-0.271329	0.134414
C76	C	1.078843	0.335304	0.156630
C77	C	1.088909	0.241492	0.172081
C78	C	1.135075	0.214481	0.255561
C79	C	1.171175	0.281284	0.323589
C80	C	1.161109	0.375103	0.308139
C81	C	1.114943	0.402113	0.224660
H82	H	1.062185	0.192035	0.121721
H83	H	1.142526	0.145030	0.266997
H84	H	1.205350	0.261289	0.385385
H85	H	1.187833	0.424559	0.358499
H86	H	1.107493	0.471564	0.213223
H87	H	0.535052	-0.189659	0.134767
C88	C	1.078898	0.335114	-0.156271
C89	C	1.089590	0.241352	-0.171091
C90	C	1.135780	0.214155	-0.254475
C91	C	1.171279	0.280721	-0.323038
C92	C	1.160588	0.374490	-0.308220
C93	C	1.114398	0.401686	-0.224836
H94	H	1.063311	0.192070	-0.120334
H95	H	1.143694	0.144742	-0.265443
H96	H	1.205472	0.260589	-0.384764
H97	H	1.186867	0.423771	-0.358977
H98	H	1.106484	0.471100	-0.213867
C99	C	0.442404	-0.028237	-0.156267
C100	C	0.461383	-0.061182	-0.249654
C101	C	0.434232	-0.014870	-0.332976
C102	C	0.388101	0.064388	-0.322912
C103	C	0.369119	0.097338	-0.229522
C104	C	0.396270	0.051026	-0.146200
H105	H	0.495534	-0.119857	-0.257107
H106	H	0.448284	-0.039262	-0.402110
H107	H	0.368002	0.098672	-0.384593
H108	H	0.334968	0.156013	-0.222069
H109	H	0.382218	0.075418	-0.077066
C110	C	0.822092	0.301660	0.000154
C111	C	0.746466	0.353770	0.001017
C112	C	0.655760	0.308765	0.001106
C113	C	0.640680	0.211650	0.000333
C114	C	0.716307	0.159533	-0.000530
C115	C	0.807013	0.204538	-0.000619
H116	H	0.757628	0.425666	0.001589
H117	H	0.599776	0.347346	0.001745
H118	H	0.573534	0.178334	0.000399
H119	H	0.705145	0.087637	-0.001102
H120	H	0.862997	0.165958	-0.001258
C121	C	0.905567	0.434822	-0.156285
C122	C	0.812563	0.400612	-0.172310
C123	C	0.766331	0.427756	-0.255687
C124	C	0.813104	0.489110	-0.323040
C125	C	0.906114	0.523324	-0.307017
C126	C	0.952345	0.496179	-0.223640
H127	H	0.777934	0.355191	-0.122450
H128	H	0.697479	0.402429	-0.267548
H129	H	0.778881	0.509204	-0.384761
H130	H	0.940743	0.568745	-0.356877
H131	H	1.021198	0.521507	-0.211779
H132	H	1.138919	0.456457	0.000178
H133	H	0.882181	-0.225096	0.444409
C134	C	1.027049	-0.277645	0.565019
C135	C	0.967460	-0.357447	0.541640
C136	C	0.986020	-0.444150	0.576883
C137	C	1.064170	-0.451052	0.635506
C138	C	1.123765	-0.371248	0.658888
C139	C	1.105204	-0.284544	0.623645
H140	H	0.909604	-0.352340	0.498241
H141	H	0.941904	-0.503227	0.559574
H142	H	1.077910	-0.515235	0.661595
H143	H	1.181621	-0.376354	0.702287
H144	H	1.149320	-0.225468	0.640955
H145	H	0.962240	0.025051	0.444283
H146	H	1.132368	-0.145206	0.444430
H147	H	1.102474	-0.004956	0.555561
H148	H	0.563905	0.031573	-0.000005
