data_functionalizedCrystal
_audit_creation_method	'MofGen! by Chris Wilmer'
_symmetry_space_group_name_H-M	'P1'
_symmetry_Int_Tables_number	1
_symmetry_cell_setting	triclinic
loop_
_symmetry_equiv_pos_as_xyz
  x,y,z
_cell_length_a	13.032831
_cell_length_b	13.032721
_cell_length_c	13.033255
_cell_angle_alpha	105.142687
_cell_angle_beta	103.333446
_cell_angle_gamma	89.097115
loop_
_atom_site_label
_atom_site_type_symbol
_atom_site_fract_x
_atom_site_fract_y
_atom_site_fract_z
Zn1	Zn	1.617261	0.734619	0.889146
Zn2	Zn	1.577758	0.883949	0.728354
Zn3	Zn	1.422820	0.683795	0.683318
Zn4	Zn	1.422781	0.883855	0.883384
O5	O	1.510155	0.796554	0.796051
O6	O	1.758254	0.775738	0.889076
O7	O	1.540690	0.836167	0.571359
O8	O	1.465162	0.544316	0.694185
O9	O	1.729231	0.885449	0.770942
O10	O	1.608017	0.581657	0.845406
O11	O	1.426858	0.689114	0.538271
O12	O	1.276582	0.689023	0.688598
O13	O	1.465094	0.885289	1.035170
O14	O	1.276553	0.836007	0.835586
O15	O	1.607978	0.775647	1.039403
O16	O	1.540652	1.030157	0.765355
O17	O	1.426790	1.030088	0.879256
C18	C	1.238651	0.756990	0.756581
C19	C	1.122501	0.740094	0.739723
C20	C	1.479461	1.068043	0.826595
C21	C	1.466429	1.184206	0.839712
C22	C	1.540938	0.836127	1.077539
C23	C	1.554056	0.852990	1.197493
C24	C	1.070708	0.805373	0.804848
C25	C	0.950660	0.787911	0.787427
C26	C	1.782719	0.836273	0.835675
C27	C	1.898870	0.853199	0.852561
C28	C	1.541000	0.524013	0.765415
C29	C	1.554145	0.407872	0.752360
C30	C	1.517017	1.236010	0.789261
C31	C	1.503550	1.356071	0.802817
C32	C	1.479560	0.757069	0.515657
C33	C	1.466678	0.739941	0.395701
C34	C	1.517147	0.805178	1.358584
C35	C	1.503581	0.787744	1.234604
H36	H	0.906132	0.719087	0.718774
O37	O	1.580737	1.182978	0.725896
C38	C	1.756561	1.167837	0.695670
C39	C	1.684523	1.227965	0.767542
H40	H	1.840482	1.204199	0.729300
H41	H	1.756192	1.080472	0.696065
H42	H	1.726314	1.174369	0.608380
H43	H	1.714718	1.221518	0.854865
H44	H	1.684897	1.315304	0.767055
O45	O	1.123687	0.887593	0.886702
C46	C	1.142955	1.077599	0.963609
C47	C	1.082859	0.984582	0.870858
H48	H	1.109984	1.156038	0.950819
H49	H	1.133122	1.068614	1.045553
H50	H	1.230313	1.077003	0.963081
H51	H	0.995482	0.985121	0.871283
H52	H	1.092780	0.993602	0.788956
O53	O	1.403066	0.658032	1.324010
C54	C	1.249692	0.605639	1.174608
C55	C	1.321663	0.698499	1.255714
H56	H	1.183848	0.638323	1.119385
H57	H	1.298050	0.550625	1.122596
H58	H	1.213856	0.559217	1.221860
H59	H	1.357515	0.745001	1.208550
H60	H	1.273254	0.753438	1.307725
O61	O	1.580809	0.887083	1.430214
C62	C	1.734101	0.939491	1.579711
C63	C	1.662104	0.846631	1.498640
H64	H	1.799832	0.906821	1.635070
H65	H	1.770075	0.985899	1.532544
H66	H	1.685641	0.994513	1.631590
H67	H	1.710490	0.791533	1.446741
H68	H	1.626124	0.800303	1.545874
H69	H	1.607315	0.921751	1.257498
O70	O	1.069453	0.657872	0.657923
C71	C	1.050252	0.467875	0.580935
C72	C	1.110397	0.560889	0.673654
H73	H	1.083347	0.389443	0.593609
H74	H	0.962897	0.468335	0.581476
H75	H	1.060031	0.477001	0.499024
H76	H	1.100703	0.551825	0.755611
H77	H	1.197729	0.560400	0.673015
H78	H	0.943399	0.922015	0.921225
O79	O	1.439986	1.409337	0.866247
C80	C	1.368698	1.577591	0.937680
C81	C	1.440693	1.517391	0.865795
H82	H	1.369263	1.664968	0.937356
H83	H	1.284711	1.541402	0.904025
H84	H	1.398882	1.570973	1.024948
H85	H	1.410604	1.523986	0.778511
H86	H	1.524668	1.553595	0.899540
H87	H	1.607434	1.363345	0.699132
H88	H	1.450322	0.718984	1.174598
O89	O	1.402870	1.237476	0.903138
C90	C	1.331582	1.405730	0.974571
C91	C	1.403576	1.345531	0.902686
H92	H	1.332147	1.493107	0.974247
H93	H	1.247595	1.369542	0.940916
H94	H	1.361765	1.399113	1.061839
H95	H	1.373488	1.352126	0.815402
H96	H	1.487551	1.381734	0.936431
