data_functionalizedCrystal
_audit_creation_method	'MofGen! by Chris Wilmer'
_symmetry_space_group_name_H-M	'P1'
_symmetry_Int_Tables_number	1
_symmetry_cell_setting	triclinic
loop_
_symmetry_equiv_pos_as_xyz
  x,y,z
_cell_length_a	19.188930
_cell_length_b	19.188924
_cell_length_c	9.730223
_cell_angle_alpha	89.993539
_cell_angle_beta	89.982832
_cell_angle_gamma	83.143372
loop_
_atom_site_label
_atom_site_type_symbol
_atom_site_fract_x
_atom_site_fract_y
_atom_site_fract_z
O1	O	0.926141	0.087168	-0.114738
O2	O	1.426141	0.587168	0.385262
O3	O	0.722830	0.098902	-0.114644
O4	O	1.222830	0.598902	0.385356
O5	O	0.830355	-0.008621	-0.114678
O6	O	1.330355	0.491379	0.385322
O7	O	0.818616	0.194691	-0.114705
O8	O	1.318616	0.694691	0.385295
O9	O	0.830348	-0.008624	0.113902
O10	O	1.330348	0.491376	0.613902
O11	O	0.722823	0.098899	0.113935
O12	O	1.222823	0.598899	0.613935
O13	O	0.926135	0.087165	0.113842
O14	O	1.426135	0.587165	0.613842
Zn15	Zn	0.824478	0.093032	0.150181
Zn16	Zn	1.324478	0.593032	0.650181
Zn17	Zn	0.824487	0.093035	-0.150983
Zn18	Zn	1.324487	0.593035	0.349017
O19	O	0.818609	0.194688	0.113875
O20	O	1.318609	0.694688	0.613875
C21	C	0.696815	0.098521	-0.000342
C22	C	1.196815	0.598521	0.499658
C23	C	0.619311	0.097380	-0.000306
C24	C	1.119311	0.597380	0.499694
C25	C	0.574385	0.160471	-0.000336
C26	C	1.074385	0.660471	0.499664
C27	C	0.501562	0.159399	-0.000351
C28	C	1.001562	0.659399	0.499649
C29	C	0.473667	0.095233	-0.000364
C30	C	0.973667	0.595233	0.499636
C31	C	0.518602	0.032134	-0.000326
C32	C	1.018602	0.532134	0.499674
C33	C	0.591424	0.033207	-0.000297
C34	C	1.091424	0.533207	0.499703
N35	N	0.365690	0.046187	-0.078208
N36	N	0.865690	0.546187	0.421792
N37	N	0.296511	0.045171	-0.078238
N38	N	0.796511	0.545171	0.421762
C39	C	0.254258	0.091995	-0.000447
C40	C	0.754258	0.591995	0.499553
N41	N	0.283795	0.139883	0.077358
N42	N	0.783795	0.639883	0.577358
N43	N	0.352980	0.140900	0.077382
N44	N	0.852980	0.640900	0.577382
C45	C	0.394704	0.094062	-0.000394
C46	C	0.894704	0.594062	0.499606
C47	C	0.130368	0.153928	-0.000492
C48	C	0.630368	0.653928	0.499508
C49	C	0.057543	0.152854	-0.000498
C50	C	0.557543	0.652854	0.499502
C51	C	0.074585	0.025586	-0.000487
C52	C	0.574585	0.525586	0.499513
C53	C	0.147409	0.026663	-0.000466
C54	C	0.647409	0.526663	0.499534
C55	C	0.175295	0.090835	-0.000475
C56	C	0.675295	0.590835	0.499525
C57	C	0.829973	-0.034634	-0.000386
C58	C	1.329973	0.465366	0.499614
C59	C	0.828834	-0.112138	-0.000382
C60	C	1.328834	0.387862	0.499618
C61	C	0.828306	-0.148536	-0.124981
C62	C	1.328306	0.351464	0.375019
C63	C	0.827226	-0.221358	-0.124991
C64	C	1.327226	0.278642	0.375009
C65	C	0.826688	-0.257783	-0.000395
C66	C	1.326688	0.242217	0.499605
C67	C	0.827212	-0.221376	0.124221
C68	C	1.327212	0.278624	0.624221
C69	C	0.828285	-0.148554	0.124227
C70	C	1.328285	0.351446	0.624227
N71	N	0.864733	-0.377447	0.092321
N72	N	1.364733	0.122553	0.592321
N73	N	0.863715	-0.446626	0.092307
N74	N	1.363715	0.053374	0.592307
C75	C	0.823454	-0.477192	-0.000407
C76	C	1.323454	0.022808	0.499593
N77	N	0.784257	-0.435968	-0.093126
N78	N	1.284257	0.064032	0.406874
N79	N	0.785278	-0.366784	-0.093115
N80	N	1.285278	0.133216	0.406885
C81	C	0.825524	-0.336746	-0.000388
C82	C	1.325524	0.163254	0.499612
C83	C	0.821754	-0.592552	-0.125025
C84	C	1.321754	-0.092552	0.374975
C85	C	0.820670	-0.665375	-0.125030
C86	C	1.320670	-0.165375	0.374970
C87	C	0.820663	-0.665393	0.124185
C88	C	1.320663	-0.165393	0.624185
C89	C	0.821740	-0.592570	0.124187
C90	C	1.321740	-0.092570	0.624187
C91	C	0.822289	-0.556154	-0.000422
C92	C	1.322289	-0.056154	0.499578
C93	C	0.952149	0.087546	-0.000463
C94	C	1.452149	0.587546	0.499537
C95	C	1.029654	0.088687	-0.000508
C96	C	1.529654	0.588687	0.499492
C97	C	0.818992	0.220700	-0.000419
C98	C	1.318992	0.720700	0.499581
C99	C	0.820131	0.298205	-0.000432
C100	C	1.320131	0.798205	0.499568
N101	N	0.824477	0.093029	0.355717
N102	N	1.324477	0.593029	0.855717
N103	N	0.824493	0.093033	-0.356520
N104	N	1.324493	0.593033	0.143480
C105	C	0.872105	0.045437	0.427628
C106	C	1.372105	0.545437	0.927628
C107	C	0.872112	0.045437	0.571511
C108	C	1.372112	0.545437	1.071511
C109	C	0.776860	0.140626	0.571559
C110	C	1.276860	0.640626	1.071559
C111	C	0.776850	0.140622	0.427679
C112	C	1.276850	0.640622	0.927679
H113	H	0.628003	-0.018171	-0.000274
H114	H	1.128003	0.481829	0.499726
O115	O	0.725477	0.191952	0.350093
O116	O	1.225477	0.691952	0.850093
H117	H	0.734203	0.246364	0.377658
H118	H	1.234203	0.746364	0.877658
H119	H	0.597086	0.212725	-0.000346
H120	H	1.097086	0.712725	0.499654
H121	H	0.495885	-0.020111	-0.000355
H122	H	0.995885	0.479889	0.499645
H123	H	0.910894	0.006683	0.630058
H124	H	1.410894	0.506683	1.130058
O125	O	0.453090	0.227448	-0.000387
O126	O	0.953090	0.727448	0.499613
H127	H	0.462999	0.258161	-0.093563
H128	H	0.962999	0.758161	0.406437
H129	H	0.828751	-0.118890	-0.226448
H130	H	1.328751	0.381110	0.273552
O131	O	0.160455	0.223138	-0.000473
O132	O	0.660455	0.723138	0.499527
H133	H	0.116978	0.266831	-0.000470
H134	H	0.616978	0.766831	0.499530
O135	O	0.009082	0.220905	-0.000525
O136	O	0.509082	0.720905	0.499475
H137	H	0.040711	0.265705	-0.000538
H138	H	0.540711	0.765705	0.499462
O139	O	0.725501	0.191967	0.649172
O140	O	1.225501	0.691967	1.149172
H141	H	0.733514	0.183981	0.761304
H142	H	1.233514	0.683981	1.261304
O143	O	0.044511	-0.043625	-0.000501
O144	O	0.544511	0.456375	0.499499
H145	H	-0.013675	-0.033773	-0.000532
H146	H	0.486325	0.466227	0.499468
H147	H	0.822197	-0.562900	-0.226489
H148	H	1.322197	-0.062900	0.273511
H149	H	0.820237	-0.695008	-0.226497
H150	H	1.320237	-0.195008	0.273503
H151	H	0.910884	0.006682	0.369041
H152	H	1.410884	0.506682	0.869041
H153	H	0.826772	-0.251037	0.225668
H154	H	1.326772	0.248963	0.725668
O155	O	0.826658	-0.260624	-0.259390
O156	O	1.326658	0.239376	0.240610
H157	H	0.825815	-0.317379	-0.238457
H158	H	1.325815	0.182621	0.261543
H159	H	0.828712	-0.118919	0.225694
H160	H	1.328712	0.381081	0.725694
O161	O	0.195872	-0.041386	-0.000446
O162	O	0.695872	0.458614	0.499554
H163	H	0.164243	-0.086186	-0.000466
H164	H	0.664243	0.413814	0.499534
O165	O	0.820088	-0.704668	0.258578
O166	O	1.320088	-0.204668	0.758578
H167	H	0.819258	-0.761422	0.237644
H168	H	1.319258	-0.261422	0.737644
H169	H	0.822176	-0.562936	0.225649
H170	H	1.322176	-0.062936	0.725649
