data_functionalizedCrystal
_audit_creation_method	'MofGen! by Chris Wilmer'
_symmetry_space_group_name_H-M	'P1'
_symmetry_Int_Tables_number	1
_symmetry_cell_setting	triclinic
loop_
_symmetry_equiv_pos_as_xyz
  x,y,z
_cell_length_a	11.169409
_cell_length_b	17.077404
_cell_length_c	17.077402
_cell_angle_alpha	90.023108
_cell_angle_beta	90.037992
_cell_angle_gamma	90.023076
loop_
_atom_site_label
_atom_site_type_symbol
_atom_site_fract_x
_atom_site_fract_y
_atom_site_fract_z
Zn1	Zn	-0.678600	-1.200082	0.312440
Zn2	Zn	-0.477897	-1.199981	0.443733
Zn3	Zn	-0.477923	-1.068806	0.312486
Zn4	Zn	-0.678530	-1.068782	0.443668
O5	O	-0.578237	-1.134413	0.378082
O6	O	-0.651994	-1.309916	0.329864
O7	O	-0.309950	-1.182548	0.426370
O8	O	-0.504583	-1.086272	0.202633
O9	O	-0.504539	-1.309842	0.426325
O10	O	-0.652019	-1.182721	0.202599
O11	O	-0.309969	-1.086174	0.329943
O12	O	-0.504515	-0.958956	0.329880
O13	O	-0.846489	-1.086232	0.426214
O14	O	-0.651901	-0.958938	0.426259
O15	O	-0.846540	-1.182697	0.329801
O16	O	-0.504471	-1.182525	0.553572
O17	O	-0.651876	-1.086134	0.553524
C18	C	-0.578189	-1.134337	0.582030
C19	C	-0.578209	-1.134377	0.669280
C20	C	-0.578204	-0.930465	0.378068
C21	C	-0.578218	-0.843215	0.378081
C22	C	-0.891280	-1.134473	0.377995
C23	C	-1.024680	-1.134499	0.377958
C24	C	-0.266413	-1.134398	0.378112
C25	C	-0.133013	-1.134524	0.377928
C26	C	-0.578271	-1.339157	0.378097
C27	C	-0.578286	-1.426407	0.378103
C28	C	-0.654839	-0.802237	0.428341
C29	C	-0.654858	-0.720256	0.428342
C30	C	-0.578250	-0.679256	0.378087
C31	C	-0.501626	-0.720240	0.327822
C32	C	-0.501614	-0.802219	0.327816
C33	C	-0.501655	-0.549370	0.327837
C34	C	-0.501665	-0.467386	0.327843
C35	C	-0.654899	-0.467407	0.428363
C36	C	-0.654887	-0.549386	0.428358
C37	C	-0.578261	-0.590365	0.378093
C38	C	-0.578312	-1.134510	0.173338
C39	C	-0.578343	-1.134552	0.086088
C40	C	-0.501538	-1.184619	0.710269
C41	C	-0.501569	-1.184657	0.792249
C42	C	-0.578265	-1.134449	0.833239
C43	C	-0.654945	-1.084204	0.792244
C44	C	-0.654919	-1.084170	0.710265
C45	C	-0.654990	-1.084277	0.963114
C46	C	-0.655015	-1.084310	1.045099
C47	C	-0.501640	-1.184764	1.045098
C48	C	-0.501614	-1.184730	0.963119
C49	C	-0.578292	-1.134484	0.922130
H50	H	-0.717249	-0.686895	0.469270
H51	H	-0.439269	-0.582733	0.286899
H52	H	-0.717219	-0.835613	0.469267
H53	H	-0.439209	-1.225678	1.078475
H54	H	-0.717398	-1.043327	0.825625
O55	O	-0.737748	-1.030167	1.089314
H56	H	-0.791078	-0.995232	1.047041
O57	O	-0.737618	-1.029979	0.666056
H58	H	-0.724726	-1.038396	0.602165
H59	H	-0.439078	-1.225501	0.676900
O60	O	-0.418861	-1.238842	0.836457
H61	H	-0.472639	-1.278787	0.873737
O62	O	-0.737680	-1.030078	0.918899
H63	H	-0.791004	-0.995161	0.961173
O64	O	-0.737513	-0.593609	0.482562
H65	H	-0.798654	-0.630994	0.447467
O66	O	-0.418978	-0.676011	0.273637
H67	H	-0.472791	-0.638676	0.233747
H68	H	-0.717294	-0.434038	0.469288
H69	H	-0.439298	-0.434005	0.286911
H70	H	-0.439228	-0.835583	0.286885
O71	O	-0.418899	-1.238884	0.918903
H72	H	-0.365594	-1.273836	0.961176
