data_functionalizedCrystal
_audit_creation_method	'MofGen! by Chris Wilmer'
_symmetry_space_group_name_H-M	'P1'
_symmetry_Int_Tables_number	1
_symmetry_cell_setting	triclinic
loop_
_symmetry_equiv_pos_as_xyz
  x,y,z
_cell_length_a	12.827893
_cell_length_b	12.645330
_cell_length_c	12.827885
_cell_angle_alpha	89.970832
_cell_angle_beta	89.980538
_cell_angle_gamma	90.017662
loop_
_atom_site_label
_atom_site_type_symbol
_atom_site_fract_x
_atom_site_fract_y
_atom_site_fract_z
Zn1	Zn	1.597655	-0.421987	-0.590855
Zn2	Zn	2.097655	0.078013	-0.090855
Zn3	Zn	1.597541	-0.599288	-0.416117
Zn4	Zn	2.097541	-0.099288	0.083883
Zn5	Zn	1.422896	-0.422039	-0.416128
Zn6	Zn	1.922896	0.077961	0.083872
Zn7	Zn	1.422875	-0.599209	-0.590817
Zn8	Zn	1.922875	-0.099209	-0.090817
O9	O	1.510242	-0.510631	-0.503479
O10	O	2.010242	-0.010631	-0.003479
O11	O	1.743876	-0.445518	-0.567686
O12	O	2.243876	0.054482	-0.067686
O13	O	1.574336	-0.575831	-0.269883
O14	O	2.074336	-0.075831	0.230117
O15	O	1.446134	-0.273685	-0.439326
O16	O	1.946134	0.226315	0.060674
O17	O	1.743792	-0.575780	-0.439308
O18	O	2.243792	-0.075780	0.060692
O19	O	1.574529	-0.273647	-0.567697
O20	O	2.074529	0.226353	-0.067697
O21	O	1.446024	-0.445607	-0.269891
O22	O	1.946024	0.054393	0.230109
O23	O	1.276657	-0.445530	-0.439290
O24	O	1.776657	0.054470	0.060710
O25	O	1.446098	-0.575645	-0.737058
O26	O	1.946098	-0.075645	-0.237058
O27	O	1.276641	-0.575695	-0.567633
O28	O	1.776641	-0.075695	-0.067633
O29	O	1.574509	-0.445441	-0.737086
O30	O	2.074509	0.054559	-0.237086
O31	O	1.574315	-0.747625	-0.439271
O32	O	2.074315	-0.247625	0.060729
O33	O	1.445988	-0.747566	-0.567623
O34	O	1.945988	-0.247566	-0.067623
C35	C	1.238732	-0.510610	-0.503459
C36	C	1.738732	-0.010610	-0.003459
C37	C	1.122579	-0.510627	-0.503476
C38	C	1.622579	-0.010627	-0.003476
C39	C	1.510165	-0.786060	-0.503465
C40	C	2.010165	-0.286060	-0.003465
C41	C	1.510228	-0.903890	-0.503493
C42	C	2.010228	-0.403890	-0.003493
C43	C	1.070814	-0.575138	-0.566886
C44	C	1.570814	-0.075138	-0.066886
C45	C	0.950763	-0.575157	-0.566904
C46	C	1.450763	-0.075157	-0.066904
C47	C	1.429831	-1.071462	-0.584488
C48	C	1.929831	-0.571462	-0.084488
C49	C	1.429419	-0.948902	-0.584228
C50	C	1.929419	-0.448902	-0.084228
C51	C	1.480415	-0.948493	-0.393362
C52	C	1.980415	-0.448493	0.106638
C53	C	1.479925	-1.071091	-0.393854
C54	C	1.979925	-0.571091	0.106146
C55	C	1.620931	-1.070978	-0.531736
C56	C	2.120931	-0.570978	-0.031736
C57	C	1.620252	-0.948371	-0.534144
C58	C	2.120252	-0.448371	-0.034144
C59	C	1.782812	-0.510652	-0.503500
C60	C	2.282812	-0.010652	-0.003500
C61	C	1.898965	-0.510661	-0.503509
C62	C	2.398965	-0.010661	-0.003509
C63	C	1.510314	-0.510528	-0.776050
C64	C	2.010314	-0.010528	-0.276050
C65	C	1.510344	-0.510484	-0.892203
C66	C	2.010344	-0.010484	-0.392203
C67	C	1.510347	-0.234125	-0.503517
C68	C	2.010347	0.265875	-0.003517
C69	C	1.510391	-0.116295	-0.503533
C70	C	2.010391	0.383705	-0.003533
C71	C	1.446823	-0.574887	-0.943974
C72	C	1.946823	-0.074887	-0.443974
C73	C	1.446853	-0.574843	-1.064024
C74	C	1.946853	-0.074843	-0.564024
C75	C	1.510230	-0.510656	-0.231969
C76	C	2.010230	-0.010656	0.268031
C77	C	1.510402	-0.510402	-0.115817
C78	C	2.010402	-0.010402	0.384183
H79	H	1.115373	-0.630350	-0.621164
H80	H	1.615373	-0.130350	-0.121164
H81	H	1.683435	-0.917724	-0.479474
H82	H	2.183435	-0.417724	0.020526
Br83	Br	1.356143	-0.666852	-0.869726
Br84	Br	1.856143	-0.166852	-0.369726
Br85	Br	1.720973	-1.119321	-0.433479
Br86	Br	2.220973	-0.619321	0.066521
H87	H	1.392464	-0.629974	-1.108547
H88	H	1.892464	-0.129974	-0.608547
H89	H	1.564783	-0.455256	-1.071301
H90	H	2.064783	0.044744	-0.571301
H91	H	1.078020	-0.455407	-0.449206
H92	H	1.578020	0.044593	0.050794
Br93	Br	1.601038	-0.418534	-0.966451
Br94	Br	2.101038	0.081466	-0.466451
H95	H	0.906247	-0.630390	-0.621189
H96	H	1.406247	-0.130390	-0.121189
H97	H	1.537232	-0.919339	-0.331396
H98	H	2.037232	-0.419339	0.168604
H99	H	0.943475	-0.455432	-0.449214
H100	H	1.443475	0.044568	0.050786
Br101	Br	1.460626	-1.120474	-0.721049
Br102	Br	1.960626	-0.620474	-0.221049
Br103	Br	1.460506	-0.898627	-0.720336
Br104	Br	1.960506	-0.398627	-0.220336
H105	H	1.348394	-1.102364	-0.566042
H106	H	1.848394	-0.602364	-0.066042
H107	H	1.347471	-0.919669	-0.565543
H108	H	1.847471	-0.419669	-0.065543
H109	H	1.399120	-1.099784	-0.369962
H110	H	1.899120	-0.599784	0.130038
H111	H	1.642735	-0.919214	-0.615195
H112	H	2.142735	-0.419214	-0.115195
H113	H	1.400453	-0.917884	-0.369038
H114	H	1.900453	-0.417884	0.130962
Br115	Br	1.573466	-1.120537	-0.289886
Br116	Br	2.073466	-0.620537	0.210114
H117	H	1.648127	-1.101816	-0.610678
H118	H	2.148127	-0.601816	-0.110678
