data_functionalizedCrystal
_audit_creation_method	'MofGen! by Chris Wilmer'
_symmetry_space_group_name_H-M	'P1'
_symmetry_Int_Tables_number	1
_symmetry_cell_setting	triclinic
loop_
_symmetry_equiv_pos_as_xyz
  x,y,z
_cell_length_a	16.625547
_cell_length_b	21.295417
_cell_length_c	16.625539
_cell_angle_alpha	90.033373
_cell_angle_beta	90.024822
_cell_angle_gamma	90.030443
loop_
_atom_site_label
_atom_site_type_symbol
_atom_site_fract_x
_atom_site_fract_y
_atom_site_fract_z
Zn1	Zn	1.232635	-0.250609	0.455972
Zn2	Zn	1.565969	0.082724	0.789306
Zn3	Zn	1.899302	0.416058	1.122639
Zn4	Zn	1.232520	-0.355882	0.321128
Zn5	Zn	1.565853	-0.022549	0.654461
Zn6	Zn	1.899186	0.310784	0.987794
Zn7	Zn	1.097797	-0.250631	0.321143
Zn8	Zn	1.431131	0.082702	0.654476
Zn9	Zn	1.764464	0.416036	0.987810
Zn10	Zn	1.097749	-0.355844	0.455908
Zn11	Zn	1.431082	-0.022511	0.789241
Zn12	Zn	1.764415	0.310822	1.122574
O13	O	1.165175	-0.303242	0.388538
O14	O	1.498509	0.030092	0.721871
O15	O	1.831842	0.363425	1.055204
O16	O	1.345452	-0.264581	0.438106
O17	O	1.678786	0.068753	0.771439
O18	O	2.012119	0.402086	1.104772
O19	O	1.214620	-0.341946	0.208297
O20	O	1.547954	-0.008612	0.541631
O21	O	1.881287	0.324721	0.874964
O22	O	1.115753	-0.162539	0.339062
O23	O	1.449086	0.170795	0.672395
O24	O	1.782419	0.504128	1.005729
O25	O	1.345367	-0.341925	0.339036
O26	O	1.678701	-0.008591	0.672369
O27	O	2.012034	0.324742	1.005703
O28	O	1.214818	-0.162523	0.438121
O29	O	1.548151	0.170811	0.771454
O30	O	1.881484	0.504144	1.104787
O31	O	1.115640	-0.264618	0.208308
O32	O	1.448974	0.068715	0.541642
O33	O	1.782307	0.402049	0.874975
O34	O	0.984958	-0.264581	0.338999
O35	O	1.318292	0.068752	0.672332
O36	O	1.651625	0.402086	1.005666
O37	O	1.115670	-0.341859	0.568749
O38	O	1.449003	-0.008526	0.902082
O39	O	1.782337	0.324807	1.235415
O40	O	0.984923	-0.341881	0.438010
O41	O	1.318256	-0.008547	0.771343
O42	O	1.651589	0.324786	1.104677
O43	O	1.214771	-0.264544	0.568796
O44	O	1.548104	0.068790	0.902130
O45	O	1.881437	0.402123	1.235463
O46	O	1.214573	-0.443967	0.338973
O47	O	1.547907	-0.110633	0.672306
O48	O	1.881240	0.222700	1.005640
O49	O	1.115558	-0.443939	0.437995
O50	O	1.448891	-0.110605	0.771329
O51	O	1.782224	0.222728	1.104662
C52	C	0.955684	-0.303229	0.388500
C53	C	1.289018	0.030104	0.721833
C54	C	1.622351	0.363437	1.055166
C55	C	0.866063	-0.303239	0.388502
C56	C	1.199397	0.030094	0.721836
C57	C	1.532730	0.363427	1.055169
C58	C	0.793281	-0.303241	0.388512
C59	C	1.126614	0.030093	0.721846
C60	C	1.459948	0.363426	1.055179
C61	C	0.701972	-0.303244	0.388533
C62	C	1.035306	0.030089	0.721866
C63	C	1.368639	0.363423	1.055199
C64	C	0.629196	-0.303250	0.388553
C65	C	0.962529	0.030084	0.721886
C66	C	1.295863	0.363417	1.055220
C67	C	0.537882	-0.303254	0.388572
C68	C	0.871215	0.030079	0.721906
C69	C	1.204548	0.363413	1.055239
C70	C	1.165070	-0.466793	0.388493
C71	C	1.498403	-0.133460	0.721826
C72	C	1.831736	0.199873	1.055160
C73	C	1.165098	-0.536761	0.388501
C74	C	1.498431	-0.203428	0.721834
C75	C	1.831765	0.129905	1.055168
C76	C	1.216701	-0.569622	0.336993
C77	C	1.550035	-0.236288	0.670326
C78	C	1.883368	0.097045	1.003660
C79	C	1.216739	-0.635364	0.337011
C80	C	1.550073	-0.302031	0.670344
C81	C	1.883406	0.031302	1.003678
C82	C	1.165159	-0.668244	0.388529
C83	C	1.498493	-0.334911	0.721862
C84	C	1.831826	-0.001577	1.055195
C85	C	1.113552	-0.635376	0.440047
C86	C	1.446886	-0.302042	0.773380
C87	C	1.780219	0.031291	1.106713
C88	C	1.113522	-0.569634	0.440033
C89	C	1.446855	-0.236301	0.773366
C90	C	1.780189	0.097032	1.106699
N91	N	1.094624	-0.771510	0.394663
N92	N	1.427958	-0.438176	0.727996
N93	N	1.761291	-0.104843	1.061329
N94	N	1.094656	-0.833961	0.394671
N95	N	1.427989	-0.500628	0.728005
N96	N	1.761322	-0.167294	1.061338
C97	C	1.165250	-0.866319	0.388575
C98	C	1.498583	-0.532985	0.721908
C99	C	1.831916	-0.199652	1.055242
N100	N	1.235813	-0.833866	0.382454
N101	N	1.569146	-0.500532	0.715787
N102	N	1.902479	-0.167199	1.049121
N103	N	1.235780	-0.771408	0.382441
N104	N	1.569114	-0.438075	0.715775
N105	N	1.902447	-0.104742	1.049108
C106	C	1.165187	-0.739529	0.388550
C107	C	1.498520	-0.406196	0.721883
C108	C	1.831854	-0.072863	1.055217
C109	C	1.216898	-0.970465	0.337084
C110	C	1.550232	-0.637131	0.670417
C111	C	1.883565	-0.303798	1.003751
C112	C	1.216937	-1.036208	0.337108
C113	C	1.550271	-0.702875	0.670441
C114	C	1.883604	-0.369542	1.003774
C115	C	1.113743	-1.036218	0.440139
C116	C	1.447077	-0.702885	0.773472
C117	C	1.780410	-0.369552	1.106806
C118	C	1.113712	-0.970476	0.440120
C119	C	1.447045	-0.637142	0.773453
C120	C	1.780378	-0.303809	1.106786
C121	C	1.165288	-0.937603	0.388588
C122	C	1.498621	-0.604270	0.721921
C123	C	1.831954	-0.270936	1.055254
C124	C	1.375484	-0.303254	0.388576
C125	C	1.708818	0.030079	0.721910
C126	C	2.042151	0.363412	1.055243
C127	C	1.465105	-0.303260	0.388593
C128	C	1.798439	0.030073	0.721926
C129	C	2.131772	0.363407	1.055260
C130	C	1.165228	-0.303195	0.598847
C131	C	1.498561	0.030139	0.932180
C132	C	1.831894	0.363472	1.265513
C133	C	1.165250	-0.303175	0.688468
C134	C	1.498583	0.030158	1.021801
C135	C	1.831917	0.363492	1.355135
C136	C	1.165303	-0.139051	0.388600
C137	C	1.498637	0.194282	0.721933
C138	C	1.831970	0.527615	1.055267
C139	C	1.165358	-0.069083	0.388627
C140	C	1.498691	0.264250	0.721960
C141	C	1.832025	0.597583	1.055293
C142	C	1.165169	-0.303243	0.179047
C143	C	1.498503	0.030090	0.512380
C144	C	1.831836	0.363424	0.845714
C145	C	1.165303	-0.303086	0.089426
C146	C	1.498637	0.030248	0.422760
C147	C	1.831970	0.363581	0.756093
C148	C	1.165287	-0.303104	1.016644
C149	C	1.498621	0.030229	1.349977
C150	C	1.831954	0.363562	1.683310
C151	C	1.165275	-0.303126	0.925335
C152	C	1.498608	0.030207	1.258669
C153	C	1.831941	0.363541	1.592002
C154	C	1.165269	-0.303140	0.852559
C155	C	1.498602	0.030193	1.185892
C156	C	1.831936	0.363527	1.519225
C157	C	1.165256	-0.303161	0.761244
C158	C	1.498589	0.030173	1.094578
C159	C	1.831922	0.363506	1.427911
H160	H	1.258700	-0.542859	0.295035
H161	H	1.592033	-0.209525	0.628368
H162	H	1.925366	0.123808	0.961701
F163	F	1.058852	-1.071207	0.494973
F164	F	1.392186	-0.737873	0.828307
F165	F	1.725519	-0.404540	1.161640
F166	F	1.058661	-0.670369	0.494878
F167	F	1.391994	-0.337036	0.828212
F168	F	1.725327	-0.003703	1.161545
F169	F	1.058784	-0.935502	0.494939
F170	F	1.392118	-0.602169	0.828272
F171	F	1.725451	-0.268835	1.161606
H172	H	1.071500	-0.542879	0.481978
H173	H	1.404833	-0.209546	0.815311
H174	H	1.738166	0.123788	1.148644
F175	F	1.271789	-0.935476	0.282239
F176	F	1.605122	-0.602143	0.615573
F177	F	1.938456	-0.268810	0.948906
H178	H	1.258764	-0.662124	0.295067
H179	H	1.592097	-0.328791	0.628401
H180	H	1.925430	0.004542	0.961734
F181	F	1.271869	-1.071180	0.282288
F182	F	1.605202	-0.737847	0.615621
F183	F	1.938536	-0.404514	0.948955
