data_functionalizedCrystal
_audit_creation_method	'MofGen! by Chris Wilmer'
_symmetry_space_group_name_H-M	'P1'
_symmetry_Int_Tables_number	1
_symmetry_cell_setting	triclinic
loop_
_symmetry_equiv_pos_as_xyz
  x,y,z
_cell_length_a	6.817900
_cell_length_b	17.982723
_cell_length_c	11.168136
_cell_angle_alpha	94.265089
_cell_angle_beta	108.508683
_cell_angle_gamma	102.447564
loop_
_atom_site_label
_atom_site_type_symbol
_atom_site_fract_x
_atom_site_fract_y
_atom_site_fract_z
V1	V	-4.079236	-0.105425	-0.394236
O2	O	-4.070936	0.005054	-0.386179
O3	O	-4.025408	-0.209028	-0.392071
O4	O	-4.055997	-0.103808	-0.565934
O5	O	-4.040135	-0.100894	-0.211113
V6	V	-4.560307	-0.092209	-0.372269
O7	O	-4.345873	-0.134413	-0.442424
O8	O	-4.743868	-0.063221	-0.324081
O9	O	-4.390929	0.011394	-0.374434
O10	O	-4.686005	-0.202688	-0.380326
O11	O	-4.716806	-0.096740	-0.555392
O12	O	-4.360340	-0.093826	-0.200571
C13	C	-3.868274	-0.234284	-0.385989
C14	C	-3.905717	-0.318981	-0.385363
C15	C	-4.318457	-0.842746	-0.387771
C16	C	-4.283266	-0.763165	-0.388364
C17	C	-4.082822	-0.719497	-0.382342
C18	C	-3.917552	-0.755413	-0.375713
C19	C	-3.952740	-0.834993	-0.375110
C20	C	-3.775638	-0.434479	-0.378141
C21	C	-3.740464	-0.354895	-0.378748
C22	C	-4.106164	-0.362651	-0.391395
C23	C	-4.141352	-0.442230	-0.390792
C24	C	-3.976077	-0.478139	-0.384157
C25	C	-4.014236	-0.564430	-0.383511
C26	C	-4.044666	-0.633208	-0.382997
C27	C	-3.907292	-0.100065	-0.607766
C28	C	-3.969538	-0.099429	-0.748134
C29	C	-4.171079	-0.102759	-0.816842
C30	C	-4.235418	-0.102101	-0.961919
C31	C	-4.211405	0.036646	-0.380512
C32	C	-4.153201	0.121342	-0.381146
C33	C	-4.172386	-0.097572	-0.158732
C34	C	-4.089378	-0.098204	-0.018363
H35	H	-4.240733	-0.333404	-0.396792
H36	H	-3.641048	-0.463704	-0.372722
H37	H	-3.754340	-0.719852	-0.370801
O38	O	-4.513242	-0.885217	-0.393842
C39	C	-4.818976	-0.989943	-0.510400
C40	C	-4.598433	-0.941898	-0.503705
H41	H	-4.887900	-1.035792	-0.599203
H42	H	-4.931177	-0.950647	-0.515317
H43	H	-4.801050	-1.018993	-0.421571
H44	H	-4.616155	-0.912842	-0.592513
H45	H	-4.486314	-0.981231	-0.498725
O46	O	-4.320362	-0.106846	-0.759068
C47	C	-4.652351	-0.179867	-0.746901
C48	C	-4.483469	-0.175325	-0.812453
H49	H	-4.784241	-0.235235	-0.790017
H50	H	-4.723904	-0.128099	-0.761861
H51	H	-4.573836	-0.179649	-0.640215
H52	H	-4.561823	-0.175567	-0.919155
H53	H	-4.411928	-0.227090	-0.797388
O54	O	-4.441387	-0.105602	-1.032537
C55	C	-4.757038	-0.175675	-1.206515
C56	C	-4.523773	-0.171794	-1.126657
H57	H	-4.823732	-0.229195	-1.282611
H58	H	-4.763203	-0.122053	-1.254567
H59	H	-4.856924	-0.178673	-1.141414
H60	H	-4.423749	-0.168821	-1.191669
H61	H	-4.517774	-0.225415	-1.078591
H62	H	-3.818174	-0.864231	-0.369726
O63	O	-4.443629	-0.728229	-0.394580
C64	C	-4.562332	-0.632509	-0.292693
C65	C	-4.380556	-0.672019	-0.285478
H66	H	-4.511386	-0.587044	-0.204509
H67	H	-4.711660	-0.677353	-0.296824
H68	H	-4.598474	-0.603843	-0.382150
H69	H	-4.344225	-0.700683	-0.196030
H70	H	-4.231338	-0.627142	-0.281417
O71	O	-3.545742	-0.312376	-0.372719
C72	C	-3.239930	-0.207703	-0.256053
C73	C	-3.460431	-0.255781	-0.262739
H74	H	-3.170871	-0.161945	-0.167127
H75	H	-3.257690	-0.178556	-0.344778
H76	H	-3.127916	-0.247057	-0.251264
H77	H	-3.572562	-0.216479	-0.267486
H78	H	-3.442504	-0.284936	-0.174015
H79	H	-3.844622	-0.096086	-0.796713
H80	H	-4.304574	-0.477782	-0.395703
O81	O	-3.883280	-0.094704	-0.948014
C82	C	-3.515201	-0.022067	-0.878808
C83	C	-3.748504	-0.025938	-0.958572
H84	H	-3.406174	0.033532	-0.887295
H85	H	-3.466615	-0.073604	-0.915611
H86	H	-3.500120	-0.023246	-0.774381
H87	H	-3.763760	-0.024736	-1.063014
H88	H	-3.796984	0.025594	-0.921662
