data_functionalizedCrystal
_audit_creation_method	'MofGen! by Chris Wilmer'
_symmetry_space_group_name_H-M	'P1'
_symmetry_Int_Tables_number	1
_symmetry_cell_setting	triclinic
loop_
_symmetry_equiv_pos_as_xyz
  x,y,z
_cell_length_a	27.732048
_cell_length_b	14.048226
_cell_length_c	14.971486
_cell_angle_alpha	90.006640
_cell_angle_beta	96.871608
_cell_angle_gamma	89.999028
loop_
_atom_site_label
_atom_site_type_symbol
_atom_site_fract_x
_atom_site_fract_y
_atom_site_fract_z
O1	O	0.641420	-0.079039	-0.106429
O2	O	0.500701	-0.079068	-0.122612
O3	O	0.574832	-0.079046	0.015739
O4	O	0.567289	-0.079061	-0.244780
O5	O	0.574823	0.079276	0.015747
O6	O	0.500692	0.079254	-0.122604
O7	O	0.641411	0.079283	-0.106421
Zn8	Zn	0.571050	0.104405	-0.114511
Zn9	Zn	0.571062	-0.104190	-0.114522
O10	O	0.567280	0.079261	-0.244772
C11	C	0.482688	0.000090	-0.122268
C12	C	0.429028	0.000079	-0.121245
N13	N	0.571045	0.246766	-0.114504
N14	N	0.571070	-0.246551	-0.114522
C15	C	0.090561	0.000116	-0.196562
C16	C	-0.111116	0.000124	-0.192767
O17	O	-0.142054	0.000162	-0.261639
N18	N	-0.130619	0.000127	-0.110731
C19	C	-0.099698	0.000134	-0.029637
O20	O	-0.120914	0.000147	0.040227
C21	C	0.101978	0.000133	-0.033433
C22	C	0.121477	0.000120	-0.115475
C23	C	0.110061	0.000104	-0.278597
C24	C	0.160477	0.000097	-0.279545
C25	C	0.191393	0.000101	-0.198458
C26	C	0.171893	0.000112	-0.116423
C27	C	0.132897	0.000147	0.047659
C28	C	0.183319	0.000148	0.046703
C29	C	0.202818	0.000136	-0.035339
C30	C	0.253226	0.000109	-0.036284
N31	N	0.272729	0.000106	-0.118320
C32	C	0.241812	0.000102	-0.199407
C33	C	-0.205582	0.000134	-0.027650
C34	C	-0.256000	0.000132	-0.026701
C35	C	-0.267415	0.000124	-0.189831
C36	C	-0.216995	0.000118	-0.190779
C37	C	-0.186079	0.000131	-0.109686
C38	C	0.347690	0.000086	-0.201392
C39	C	0.398112	0.000074	-0.202332
C40	C	0.409522	0.000088	-0.039203
C41	C	0.359105	0.000094	-0.038261
C42	C	0.328190	0.000096	-0.119363
O43	O	0.284193	0.000083	0.032551
O44	O	0.263037	0.000111	-0.269261
C45	C	0.040144	0.000123	-0.195614
C46	C	0.020645	0.000135	-0.113579
C47	C	0.051561	0.000139	-0.032492
C48	C	-0.029774	0.000133	-0.112630
C49	C	-0.060691	0.000129	-0.193717
C50	C	-0.041188	0.000126	-0.275753
C51	C	0.009228	0.000119	-0.276701
C52	C	0.032059	0.000142	0.049544
C53	C	-0.018358	0.000148	0.050486
C54	C	-0.049275	0.000144	-0.030602
C55	C	0.659424	0.000124	-0.106765
C56	C	0.713083	0.000128	-0.107788
C57	C	0.574490	0.000115	0.049063
C58	C	0.573479	0.000114	0.148344
C59	C	0.603881	0.296594	-0.053267
C60	C	0.603884	0.396251	-0.053266
C61	C	0.571054	0.446079	-0.114507
C62	C	0.538215	0.396245	-0.175747
C63	C	0.538210	0.296589	-0.175743
C64	C	0.538229	0.603959	-0.175753
C65	C	0.538234	0.703622	-0.175759
C66	C	0.603903	0.703621	-0.053277
C67	C	0.603898	0.603966	-0.053272
C68	C	0.571059	0.554138	-0.114514
C69	C	0.567621	0.000098	-0.278096
C70	C	0.568632	0.000093	-0.377377
C71	C	0.617029	0.000123	0.206257
C72	C	0.616076	0.000114	0.299542
C73	C	0.571573	0.000101	0.334911
C74	C	0.528020	0.000089	0.276990
C75	C	0.528973	0.000091	0.183707
C76	C	0.526036	0.000085	0.471421
C77	C	0.525082	0.000083	0.564710
C78	C	0.613139	0.000107	0.587255
C79	C	0.614092	0.000110	0.493973
C80	C	0.570539	0.000099	0.436058
H81	H	0.413985	0.000064	-0.269143
H82	H	0.511471	0.256020	-0.225607
H83	H	0.630633	0.563396	-0.003410
H84	H	0.653269	0.000139	0.177468
H85	H	0.117030	0.000158	0.114466
O86	O	0.635717	0.444691	0.006305
C87	C	0.645958	0.557255	0.128563
C88	C	0.609851	0.502444	0.061159
H89	H	0.625059	0.603977	0.172918
H90	H	0.669415	0.504561	0.172391
H91	H	0.670134	0.603857	0.090231
H92	H	0.585643	0.455841	0.099418
H93	H	0.586427	0.555190	0.017332
H94	H	0.650331	0.000127	0.465179
H95	H	0.648602	0.000112	0.634414
H96	H	0.493510	0.000083	0.136554
O97	O	-0.274859	0.000176	0.053073
C98	C	-0.258202	0.000132	0.214774
C99	C	-0.236783	0.000098	0.124491
H100	H	-0.227428	0.000049	0.272539
H101	H	-0.281503	0.066405	0.219366
H102	H	-0.281537	-0.066109	0.219250
H103	H	-0.213426	0.066294	0.119954
H104	H	-0.213510	-0.066219	0.119938
O105	O	0.213331	-0.000013	0.125502
C106	C	0.238488	-0.081996	0.264661
C107	C	0.204482	-0.081938	0.175448
H108	H	0.231339	-0.148215	0.305076
H109	H	0.277884	-0.082064	0.249951
H110	H	0.231394	-0.015704	0.305033
H111	H	0.211533	-0.148219	0.135032
H112	H	0.165097	-0.081821	0.190222
H113	H	0.651539	0.000123	0.346692
O114	O	0.481811	0.000014	0.598920
C115	C	0.394571	0.000013	0.566720
C116	C	0.443542	0.000075	0.527857
H117	H	0.363617	0.000082	0.509285
H118	H	0.391904	-0.066264	0.609788
H119	H	0.391940	0.066250	0.609869
H120	H	0.446206	-0.066117	0.484668
H121	H	0.446188	0.066396	0.484840
O122	O	0.635784	0.751911	0.006338
C123	C	0.664014	0.782456	0.162225
C124	C	0.627888	0.727690	0.094819
H125	H	0.657636	0.762909	0.233777
H126	H	0.702740	0.762829	0.151128
H127	H	0.658387	0.862238	0.151665
H128	H	0.633471	0.647896	0.105339
H129	H	0.589175	0.747396	0.105934
H130	H	0.511486	0.563392	-0.225620
H131	H	0.630617	0.256030	-0.003401
O132	O	0.506290	0.751879	-0.235269
C133	C	0.441158	0.741369	-0.356761
C134	C	0.477304	0.686599	-0.289407
H135	H	0.417721	0.688614	-0.400561
H136	H	0.416968	0.788007	-0.318479
H137	H	0.462054	0.788043	-0.401150
H138	H	0.456448	0.639873	-0.245001
H139	H	0.501494	0.640020	-0.327744
O140	O	0.484777	-0.000095	0.311303
C141	C	0.409218	-0.082108	0.320521
C142	C	0.458178	-0.082033	0.281621
H143	H	0.387695	-0.148338	0.296523
H144	H	0.415989	-0.082168	0.397144
H145	H	0.387709	-0.015827	0.296643
H146	H	0.479712	-0.148303	0.305431
H147	H	0.451373	-0.081924	0.205002
H148	H	0.511481	0.436820	-0.225608
H149	H	0.434703	0.000088	0.026816
H150	H	-0.034229	0.000151	0.117299
H151	H	0.490570	0.000073	0.424269
O152	O	0.317684	-0.000087	-0.280196
C153	C	0.292532	-0.082104	-0.419357
C154	C	0.326534	-0.082028	-0.330137
H155	H	0.299682	-0.148335	-0.459768
H156	H	0.253135	-0.082160	-0.404655
H157	H	0.299632	-0.015824	-0.459727
H158	H	0.319478	-0.148296	-0.289723
H159	H	0.365920	-0.081922	-0.344902
O160	O	0.179335	0.000138	-0.359320
C161	C	0.162673	0.000086	-0.521020
C162	C	0.141257	0.000056	-0.430734
H163	H	0.131897	-0.000000	-0.578782
H164	H	0.185973	0.066361	-0.525602
H165	H	0.186009	-0.066154	-0.525510
H166	H	0.117899	0.066251	-0.426183
H167	H	0.117985	-0.066262	-0.426190
H168	H	-0.201123	0.000113	-0.257585
O169	O	0.079984	-0.000033	-0.357314
C170	C	0.016469	-0.082113	-0.450961
C171	C	0.050490	-0.082053	-0.361765
H172	H	-0.007378	-0.148429	-0.454597
H173	H	-0.007458	-0.015906	-0.454624
H174	H	0.039087	-0.082076	-0.509731
H175	H	0.027911	-0.082124	-0.302945
H176	H	0.074420	-0.148255	-0.358181
O177	O	-0.071295	0.000164	-0.354441
C178	C	-0.154032	0.000114	-0.425252
C179	C	-0.119991	0.000087	-0.336081
H180	H	-0.193410	0.000032	-0.410440
H181	H	-0.146973	0.066384	-0.465670
H182	H	-0.146911	-0.066130	-0.465669
H183	H	-0.127092	0.066286	-0.295592
H184	H	-0.127057	-0.066227	-0.295732
O185	O	-0.297432	-0.000044	-0.268625
C186	C	-0.322608	-0.082022	-0.407796
C187	C	-0.288593	-0.081971	-0.318593
H188	H	-0.315467	-0.148243	-0.448229
H189	H	-0.362001	-0.082081	-0.393071
H190	H	-0.315515	-0.015731	-0.448156
H191	H	-0.295643	-0.148250	-0.278189
H192	H	-0.249211	-0.081862	-0.333382
H193	H	-0.180413	0.000144	0.038389
H194	H	0.343228	0.000091	0.028543
H195	H	0.025099	0.000110	-0.343508
O196	O	0.062018	0.000100	0.128399
C197	C	0.068007	0.000157	0.290299
C198	C	0.034025	0.000189	0.201057
H199	H	0.045388	0.000249	0.349067
H200	H	0.091885	-0.066120	0.293996
H201	H	0.091910	0.066394	0.293899
H202	H	0.010091	-0.066003	0.197398
H203	H	0.010180	0.066510	0.197398
