data_functionalizedCrystal
_audit_creation_method	'MofGen! by Chris Wilmer'
_symmetry_space_group_name_H-M	'P1'
_symmetry_Int_Tables_number	1
_symmetry_cell_setting	triclinic
loop_
_symmetry_equiv_pos_as_xyz
  x,y,z
_cell_length_a	15.944545
_cell_length_b	14.421503
_cell_length_c	11.026607
_cell_angle_alpha	89.994646
_cell_angle_beta	96.041094
_cell_angle_gamma	90.004703
loop_
_atom_site_label
_atom_site_type_symbol
_atom_site_fract_x
_atom_site_fract_y
_atom_site_fract_z
O1	O	1.138184	0.077048	0.156461
O2	O	0.896552	0.077062	0.175765
O3	O	0.997342	0.077053	-0.010541
O4	O	1.037394	0.077057	0.342767
O5	O	0.997324	-0.077171	-0.010520
O6	O	0.896534	-0.077161	0.175786
O7	O	1.138167	-0.077176	0.156482
Cu8	Cu	1.017349	-0.091250	0.166136
Cu9	Cu	1.017369	0.091137	0.166111
O10	O	1.037377	-0.077166	0.342788
C11	C	0.865128	-0.000047	0.174975
C12	C	0.771519	-0.000042	0.172577
C13	C	0.482346	-0.000053	0.049929
C14	C	0.541858	-0.076095	0.109070
C15	C	0.434582	-0.000058	0.164023
C16	C	0.541860	0.075957	0.109080
C17	C	0.600130	-0.000048	0.168219
C18	C	0.492861	-0.076162	0.223134
C19	C	0.492858	0.075958	0.223127
C20	C	0.552349	-0.000102	0.282352
C21	C	0.339214	-0.000064	0.161602
C22	C	0.695497	-0.000049	0.170649
N23	N	1.017340	-0.219531	0.166153
C24	C	0.971330	-0.530980	0.252975
C25	C	0.937808	-0.469152	0.143655
C26	C	1.017368	-0.591420	0.166105
C27	C	1.050836	-0.469155	0.275446
C28	C	1.017353	-0.408699	0.166134
C29	C	0.983800	-0.530953	0.056729
C30	C	1.096873	-0.530961	0.188592
C31	C	1.063371	-0.469161	0.079192
C32	C	1.017375	-0.696682	0.166089
C33	C	1.017345	-0.303440	0.166137
C34	C	1.169590	-0.000064	0.157271
C35	C	1.263199	-0.000063	0.159670
N36	N	1.017383	0.219418	0.166084
C37	C	0.989944	-0.000057	-0.055742
C38	C	0.967917	-0.000053	-0.190457
C39	C	1.028737	-0.000055	-0.264260
C40	C	1.005973	-0.000050	-0.403495
C41	C	1.044774	-0.000054	0.387988
C42	C	1.066801	-0.000053	0.522704
H43	H	0.471323	-0.140519	0.271292
C44	C	0.593367	-0.000157	0.415192
C45	C	0.652529	-0.079878	0.461537
C46	C	0.693548	-0.079938	0.594374
C47	C	0.675406	-0.000278	0.680867
C48	C	0.616241	0.079449	0.634523
C49	C	0.575222	0.079510	0.501686
H50	H	0.665962	-0.138853	0.397509
H51	H	0.737346	-0.138958	0.628680
H52	H	0.705771	-0.000322	0.779201
H53	H	0.602809	0.138424	0.698552
H54	H	0.531424	0.138530	0.467380
C55	C	0.463571	0.162807	0.288140
C56	C	0.482673	0.260014	0.240178
C57	C	0.453378	0.346872	0.305173
C58	C	0.404981	0.336523	0.418132
C59	C	0.385877	0.239312	0.466101
C60	C	0.415172	0.152454	0.401105
H61	H	0.518501	0.267679	0.156553
H62	H	0.467520	0.418834	0.269663
H63	H	0.383295	0.400820	0.466246
H64	H	0.350049	0.231648	0.549725
H65	H	0.401030	0.080493	0.436615
H66	H	0.563498	0.140241	0.060866
C67	C	0.571098	-0.162942	0.043991
C68	C	0.550612	-0.260174	0.090533
C69	C	0.579846	-0.347018	0.025446
C70	C	0.629566	-0.336630	-0.086185
C71	C	0.650055	-0.239394	-0.132733
C72	C	0.620821	-0.152551	-0.067645
H73	H	0.513803	-0.267867	0.173174
H74	H	0.564679	-0.418998	0.059904
H75	H	0.651207	-0.400917	-0.134367
H76	H	0.686864	-0.231701	-0.215374
H77	H	0.635988	-0.080570	-0.102104
H78	H	0.932356	-0.558124	0.326343
H79	H	1.102288	-0.442189	0.005661
H80	H	1.164101	-0.558133	0.207645
H81	H	0.870566	-0.441996	0.124643
H82	H	1.135729	0.000013	-0.437409
H83	H	0.898994	-0.000042	-0.230352
C84	C	0.945440	-0.567462	-0.068200
C85	C	0.914193	-0.498818	-0.170041
C86	C	0.875831	-0.535329	-0.294966
C87	C	0.868717	-0.640484	-0.318049
C88	C	0.899965	-0.709135	-0.216205
C89	C	0.938327	-0.672624	-0.091281
H90	H	0.919458	-0.420970	-0.152956
H91	H	0.852699	-0.484508	-0.370357
H92	H	0.840319	-0.667512	-0.410526
H93	H	0.894699	-0.786983	-0.233290
H94	H	0.961459	-0.723445	-0.015890
C95	C	1.089092	-0.432483	0.400344
C96	C	1.047707	-0.456900	0.516290
C97	C	1.085955	-0.420232	0.641190
C98	C	1.165588	-0.359147	0.650145
C99	C	1.206977	-0.334727	0.534195
C100	C	1.168729	-0.371395	0.409294
H101	H	0.988755	-0.502122	0.509665
H102	H	1.055316	-0.438310	0.727024
H103	H	1.193901	-0.332003	0.742603
H104	H	1.265929	-0.289505	0.540820
H105	H	1.199368	-0.353317	0.323461
H106	H	1.097660	-0.000065	-0.224365
H107	H	0.937045	-0.000040	-0.443384
H108	H	0.451839	-0.000128	-0.048331
