data_functionalizedCrystal
_audit_creation_method	'MofGen! by Chris Wilmer'
_symmetry_space_group_name_H-M	'P1'
_symmetry_Int_Tables_number	1
_symmetry_cell_setting	triclinic
loop_
_symmetry_equiv_pos_as_xyz
  x,y,z
_cell_length_a	12.827892
_cell_length_b	11.169417
_cell_length_c	11.169417
_cell_angle_alpha	89.997279
_cell_angle_beta	90.008358
_cell_angle_gamma	89.985670
loop_
_atom_site_label
_atom_site_type_symbol
_atom_site_fract_x
_atom_site_fract_y
_atom_site_fract_z
Zn1	Zn	-0.416233	-1.834696	0.678595
Zn2	Zn	0.083767	-1.334696	1.178595
Zn3	Zn	-0.590945	-1.834634	0.477910
Zn4	Zn	-0.090945	-1.334634	0.977910
Zn5	Zn	-0.416215	-1.634048	0.477923
Zn6	Zn	0.083785	-1.134048	0.977923
Zn7	Zn	-0.590929	-1.633971	0.678548
Zn8	Zn	-0.090929	-1.133971	1.178548
O9	O	-0.503581	-1.734337	0.578244
O10	O	-0.003581	-1.234337	1.078244
O11	O	-0.439423	-2.002637	0.651988
O12	O	0.060577	-1.502637	1.151988
O13	O	-0.567766	-1.808032	0.309962
O14	O	-0.067766	-1.308032	0.809962
O15	O	-0.269982	-1.660722	0.504568
O16	O	0.230018	-1.160722	1.004568
O17	O	-0.567783	-2.002592	0.504545
O18	O	-0.067783	-1.502592	1.004545
O19	O	-0.269995	-1.808137	0.652001
O20	O	0.230005	-1.308137	1.152001
O21	O	-0.439393	-1.660662	0.309972
O22	O	0.060607	-1.160662	0.809972
O23	O	-0.439378	-1.466088	0.504523
O24	O	0.060622	-0.966088	1.004523
O25	O	-0.567757	-1.660592	0.846504
O26	O	-0.067757	-1.160592	1.346504
O27	O	-0.567739	-1.466032	0.651921
O28	O	-0.067739	-0.966032	1.151921
O29	O	-0.439408	-1.808063	0.846539
O30	O	0.060592	-1.308063	1.346539
O31	O	-0.737179	-1.807957	0.504499
O32	O	-0.237179	-1.307957	1.004499
O33	O	-0.737168	-1.660532	0.651907
O34	O	-0.237168	-1.160532	1.151907
C35	C	-0.503556	-1.422512	0.578219
C36	C	-0.003556	-0.922512	1.078219
C37	C	-0.503570	-1.289112	0.578236
C38	C	-0.003570	-0.789112	1.078236
C39	C	-0.775091	-1.734262	0.578223
C40	C	-0.275091	-1.234262	1.078223
C41	C	-0.891244	-1.734340	0.578254
C42	C	-0.391244	-1.234340	1.078254
C43	C	-0.943000	-1.807377	0.505393
C44	C	-0.443000	-1.307377	1.005393
C45	C	-1.063050	-1.807459	0.505423
C46	C	-0.563050	-1.307459	1.005423
C47	C	-0.231011	-1.734445	0.578292
C48	C	0.268989	-1.234445	1.078292
C49	C	-0.114857	-1.734491	0.578312
C50	C	0.385143	-1.234491	1.078312
C51	C	-0.503582	-1.734326	0.891286
C52	C	-0.003582	-1.234326	1.391286
C53	C	-0.503583	-1.734321	1.024686
C54	C	-0.003583	-1.234321	1.524686
C55	C	-0.503598	-1.047379	0.578261
C56	C	-0.003598	-0.547379	1.078261
C57	C	-0.503583	-1.180779	0.578244
C58	C	-0.003583	-0.680779	1.078244
C59	C	-0.503598	-1.734334	1.266419
C60	C	-0.003598	-1.234334	1.766419
C61	C	-0.503585	-1.734324	1.133019
C62	C	-0.003585	-1.234324	1.633019
H63	H	-0.898435	-1.869852	0.442995
H64	H	-0.398435	-1.369852	0.942995
H65	H	-1.107559	-1.869986	0.443041
H66	H	-0.607559	-1.369986	0.943041
O67	O	-1.061727	-1.660058	0.652866
O68	O	-0.561727	-1.160058	1.152866
C69	C	-0.938278	-1.643820	0.814679
C70	C	-0.438278	-1.143820	1.314679
C71	C	-0.998412	-1.728250	0.730342
C72	C	-0.498412	-1.228250	1.230342
H73	H	-0.887057	-1.698917	0.877322
H74	H	-0.387057	-1.198917	1.377322
H75	H	-0.995914	-1.588915	0.869652
H76	H	-0.495914	-1.088915	1.369652
H77	H	-0.887288	-1.581105	0.759429
H78	H	-0.387288	-1.081105	1.259429
H79	H	-1.049403	-1.791037	0.785498
H80	H	-0.549403	-1.291037	1.285498
H81	H	-0.940719	-1.783070	0.675364
H82	H	-0.440719	-1.283070	1.175364
O83	O	-0.944287	-1.659644	0.652645
O84	O	-0.444287	-1.159644	1.152645
C85	C	-0.978070	-1.455498	0.710649
C86	C	-0.478070	-0.955498	1.210649
C87	C	-0.917920	-1.539957	0.626342
C88	C	-0.417920	-1.039957	1.126342
H89	H	-0.956791	-1.358713	0.689396
H90	H	-0.456791	-0.858713	1.189396
H91	H	-0.956603	-1.476356	0.807479
H92	H	-0.456603	-0.976356	1.307479
H93	H	-1.065414	-1.468907	0.697431
H94	H	-0.565414	-0.968907	1.197431
H95	H	-0.830562	-1.526596	0.639453
H96	H	-0.330562	-1.026596	1.139453
H97	H	-0.939474	-1.519079	0.529542
H98	H	-0.439474	-1.019079	1.029542
