data_functionalizedCrystal
_audit_creation_method	'MofGen! by Chris Wilmer'
_symmetry_space_group_name_H-M	'P1'
_symmetry_Int_Tables_number	1
_symmetry_cell_setting	triclinic
loop_
_symmetry_equiv_pos_as_xyz
  x,y,z
_cell_length_a	17.077404
_cell_length_b	16.625546
_cell_length_c	17.077396
_cell_angle_alpha	90.031819
_cell_angle_beta	90.017060
_cell_angle_gamma	90.022693
loop_
_atom_site_label
_atom_site_type_symbol
_atom_site_fract_x
_atom_site_fract_y
_atom_site_fract_z
Zn1	Zn	1.200038	-0.320984	0.443833
Zn2	Zn	1.533371	0.012349	0.777167
Zn3	Zn	1.866705	0.345683	1.110500
Zn4	Zn	1.199952	-0.455830	0.312563
Zn5	Zn	1.533285	-0.122497	0.645897
Zn6	Zn	1.866618	0.210836	0.979230
Zn7	Zn	1.068775	-0.321016	0.312581
Zn8	Zn	1.402109	0.012317	0.645915
Zn9	Zn	1.735442	0.345651	0.979248
Zn10	Zn	1.068739	-0.455779	0.443787
Zn11	Zn	1.402072	-0.122446	0.777120
Zn12	Zn	1.735405	0.210888	1.110454
O13	O	1.134376	-0.388402	0.378191
O14	O	1.467709	-0.055069	0.711524
O15	O	1.801043	0.278264	1.044858
O16	O	1.309873	-0.338880	0.426432
O17	O	1.643207	-0.005547	0.759765
O18	O	1.976540	0.327787	1.093099
O19	O	1.182530	-0.437982	0.202719
O20	O	1.515863	-0.104649	0.536052
O21	O	1.849197	0.228685	0.869385
O22	O	1.086239	-0.208179	0.330019
O23	O	1.419572	0.125154	0.663352
O24	O	1.752906	0.458487	0.996686
O25	O	1.309810	-0.437951	0.329988
O26	O	1.643143	-0.104618	0.663322
O27	O	1.976477	0.228716	0.996655
O28	O	1.182677	-0.208156	0.426449
O29	O	1.516011	0.125177	0.759783
O30	O	1.849344	0.458511	1.093116
O31	O	1.086155	-0.338935	0.202732
O32	O	1.419489	-0.005601	0.536065
O33	O	1.752822	0.327732	0.869399
O34	O	0.958924	-0.338884	0.329974
O35	O	1.292257	-0.005551	0.663307
O36	O	1.625590	0.327782	0.996641
O37	O	1.086177	-0.437863	0.553640
O38	O	1.419510	-0.104530	0.886973
O39	O	1.752843	0.228804	1.220307
O40	O	0.958897	-0.437894	0.426370
O41	O	1.292230	-0.104561	0.759704
O42	O	1.625563	0.228773	1.093037
O43	O	1.182642	-0.338830	0.553674
O44	O	1.515975	-0.005496	0.887007
O45	O	1.849308	0.327837	1.220341
O46	O	1.182494	-0.568656	0.329943
O47	O	1.515828	-0.235323	0.663277
O48	O	1.849161	0.098011	0.996610
O49	O	1.086093	-0.568618	0.426353
O50	O	1.419426	-0.235285	0.759686
O51	O	1.752760	0.098049	1.093020
C52	C	0.930428	-0.388388	0.378169
C53	C	1.263761	-0.055054	0.711503
C54	C	1.597095	0.278279	1.044836
C55	C	0.843178	-0.388401	0.378179
C56	C	1.176512	-0.055068	0.711512
C57	C	1.509845	0.278266	1.044846
C58	C	0.802195	-0.440033	0.428292
C59	C	1.135528	-0.106700	0.761625
C60	C	1.468861	0.226634	1.094959
C61	C	0.720214	-0.440035	0.428304
C62	C	1.053548	-0.106701	0.761638
C63	C	1.386881	0.226632	1.094971
C64	C	0.679219	-0.388408	0.378199
C65	C	1.012552	-0.055075	0.711533
C66	C	1.345886	0.278259	1.044866
C67	C	0.720208	-0.336770	0.328084
C68	C	1.053542	-0.003437	0.661418
C69	C	1.386875	0.329897	0.994751
C70	C	0.802187	-0.336765	0.328076
C71	C	1.135521	-0.003432	0.661410
C72	C	1.468854	0.329902	0.994743
C73	C	0.549338	-0.336786	0.328103
C74	C	0.882672	-0.003453	0.661436
C75	C	1.216005	0.329881	0.994770
C76	C	0.467354	-0.336792	0.328110
C77	C	0.800687	-0.003459	0.661443
C78	C	1.134020	0.329875	0.994776
C79	C	0.467365	-0.440056	0.428331
C80	C	0.800699	-0.106723	0.761665
C81	C	1.134032	0.226611	1.094998
C82	C	0.549344	-0.440051	0.428323
C83	C	0.882678	-0.106717	0.761657
C84	C	1.216011	0.226616	1.094990
C85	C	0.590328	-0.388414	0.378207
C86	C	0.923661	-0.055080	0.711540
C87	C	1.256995	0.278253	1.044873
C88	C	1.134302	-0.597893	0.378158
C89	C	1.467635	-0.264560	0.711492
C90	C	1.800968	0.068773	1.044825
C91	C	1.134342	-0.687514	0.378170
C92	C	1.467675	-0.354181	0.711504
C93	C	1.801008	-0.020848	1.044837
C94	C	1.134479	-1.015690	0.378252
C95	C	1.467812	-0.682357	0.711586
C96	C	1.801145	-0.349023	1.044919
C97	C	1.134438	-0.924381	0.378232
C98	C	1.467771	-0.591048	0.711565
C99	C	1.801105	-0.257715	1.044898
C100	C	1.134410	-0.851605	0.378211
C101	C	1.467743	-0.518272	0.711544
C102	C	1.801076	-0.184938	1.044878
C103	C	1.134370	-0.760291	0.378191
C104	C	1.467704	-0.426957	0.711525
C105	C	1.801037	-0.093624	1.044858
C106	C	1.339120	-0.388418	0.378213
C107	C	1.672454	-0.055084	0.711547
C108	C	2.005787	0.278249	1.044880
C109	C	1.426370	-0.388424	0.378223
C110	C	1.759703	-0.055091	0.711556
C111	C	2.093037	0.278243	1.044889
C112	C	1.134415	-0.388337	0.582936
C113	C	1.467748	-0.055004	0.916269
C114	C	1.801081	0.278330	1.249602
C115	C	1.134431	-0.388309	0.670185
C116	C	1.467765	-0.054976	1.003519
C117	C	1.801098	0.278357	1.336852
C118	C	1.134472	-0.178093	0.378241
C119	C	1.467805	0.155240	0.711575
C120	C	1.801139	0.488573	1.044908
C121	C	1.134513	-0.088472	0.378263
C122	C	1.467846	0.244861	0.711596
C123	C	1.801179	0.578194	1.044929
C124	C	1.134382	-0.388409	0.174243
C125	C	1.467716	-0.055076	0.507577
C126	C	1.801049	0.278257	0.840910
C127	C	1.134518	-0.388210	0.086994
C128	C	1.467851	-0.054877	0.420327
C129	C	1.801185	0.278457	0.753661
C130	C	1.184685	-0.439789	1.045996
C131	C	1.518018	-0.106456	1.379329
C132	C	1.851351	0.226877	1.712662
C133	C	1.184665	-0.439813	0.964015
C134	C	1.517998	-0.106480	1.297348
C135	C	1.851332	0.226854	1.630682
C136	C	1.134482	-0.388252	0.923034
C137	C	1.467815	-0.054919	1.256368
C138	C	1.801148	0.278414	1.589701
C139	C	1.084310	-0.336671	0.964039
C140	C	1.417643	-0.003337	1.297372
C141	C	1.750976	0.329996	1.630705
C142	C	1.084326	-0.336652	1.046018
C143	C	1.417659	-0.003318	1.379351
C144	C	1.750993	0.330015	1.712684
C145	C	1.084280	-0.336712	0.793168
C146	C	1.417613	-0.003379	1.126502
C147	C	1.750947	0.329954	1.459835
C148	C	1.084264	-0.336730	0.711184
C149	C	1.417598	-0.003396	1.044517
C150	C	1.750931	0.329937	1.377850
C151	C	1.184619	-0.439873	0.711166
C152	C	1.517952	-0.106540	1.044499
C153	C	1.851286	0.226793	1.377833
C154	C	1.184636	-0.439855	0.793145
C155	C	1.517969	-0.106521	1.126478
C156	C	1.851302	0.226812	1.459812
C157	C	1.134464	-0.388272	0.834143
C158	C	1.467797	-0.054938	1.167477
C159	C	1.801131	0.278395	1.500810
H160	H	0.686823	-0.294731	0.287291
H161	H	1.020157	0.038602	0.620625
H162	H	1.353490	0.371936	0.953958
H163	H	0.582705	-0.294730	0.287300
H164	H	0.916038	0.038603	0.620633
H165	H	1.249371	0.371936	0.953967
H166	H	1.225506	-0.481824	0.930638
H167	H	1.558840	-0.148491	1.263971
H168	H	1.892173	0.184843	1.597304
C169	C	0.847269	-0.279968	0.272953
C170	C	1.180603	0.053365	0.606287
C171	C	1.513936	0.386698	0.939620
H172	H	0.811114	-0.249226	0.243109
H173	H	1.144447	0.084108	0.576443
H174	H	1.477781	0.417441	0.909776
H175	H	0.879271	-0.244875	0.303043
H176	H	1.212604	0.088459	0.636376
H177	H	1.545937	0.421792	0.969709
H178	H	0.879227	-0.310767	0.238690
H179	H	1.212560	0.022566	0.572023
H180	H	1.545893	0.355899	0.905356
H181	H	0.686849	-0.482080	0.469111
H182	H	1.020182	-0.148746	0.802444
H183	H	1.353516	0.184587	1.135777
C184	C	1.029098	-0.279963	0.918966
C185	C	1.362432	0.053370	1.252299
C186	C	1.695765	0.386704	1.585633
H187	H	0.999215	-0.249249	0.955127
H188	H	1.332549	0.084084	1.288460
H189	H	1.665882	0.417417	1.621793
H190	H	1.059128	-0.244839	0.886996
H191	H	1.392461	0.088495	1.220329
H192	H	1.725795	0.421828	1.553662
H193	H	0.994875	-0.310824	0.886978
H194	H	1.328208	0.022510	1.220311
H195	H	1.661541	0.355843	1.553644
H196	H	1.043476	-0.294650	1.079397
H197	H	1.376809	0.038684	1.412731
H198	H	1.710142	0.372017	1.746064
C199	C	0.847286	-0.496827	0.483402
C200	C	1.180619	-0.163494	0.816735
C201	C	1.513953	0.169839	1.150068
H202	H	0.901980	-0.489438	0.476215
H203	H	1.235313	-0.156104	0.809548
H204	H	1.568647	0.177229	1.142882
H205	H	0.833878	-0.485100	0.536167
H206	H	1.167211	-0.151767	0.869500
H207	H	1.500545	0.181566	1.202833
H208	H	0.833825	-0.550990	0.471810
H209	H	1.167158	-0.217656	0.805144
H210	H	1.500492	0.115677	1.138477
H211	H	1.225554	-0.481772	1.079356
H212	H	1.558887	-0.148439	1.412689
H213	H	1.892220	0.184894	1.746023
C214	C	0.594438	-0.496838	0.483438
C215	C	0.927771	-0.163505	0.816771
C216	C	1.261105	0.169829	1.150104
H217	H	0.558290	-0.527586	0.513292
H218	H	0.891623	-0.194253	0.846625
H219	H	1.224957	0.139080	1.179959
H220	H	0.626397	-0.531927	0.453346
H221	H	0.959730	-0.198594	0.786679
H222	H	1.293063	0.134740	1.120013
H223	H	0.626439	-0.466027	0.517692
H224	H	0.959772	-0.132694	0.851025
H225	H	1.293106	0.200640	1.184359
C226	C	0.422287	-0.496851	0.483463
C227	C	0.755620	-0.163517	0.816796
C228	C	1.088954	0.169816	1.150130
H229	H	0.367592	-0.489454	0.476300
H230	H	0.700925	-0.156121	0.809634
H231	H	1.034259	0.177212	1.142967
H232	H	0.435698	-0.551010	0.471878
H233	H	0.769031	-0.217677	0.805211
H234	H	1.102364	0.115656	1.138544
H235	H	0.435750	-0.485113	0.536226
H236	H	0.769084	-0.151780	0.869560
H237	H	1.102417	0.181554	1.202893
C238	C	1.239834	-0.496572	0.838222
C239	C	1.573167	-0.163238	1.171556
C240	C	1.906500	0.170095	1.504889
H241	H	1.269706	-0.527302	0.802066
H242	H	1.603039	-0.193968	1.135399
H243	H	1.936372	0.139365	1.468732
H244	H	1.274056	-0.465727	0.870219
H245	H	1.607389	-0.132393	1.203552
H246	H	1.940723	0.200940	1.536885
H247	H	1.209785	-0.531693	0.870185
H248	H	1.543118	-0.198360	1.203518
H249	H	1.876451	0.134974	1.536852
C250	C	1.239800	-0.496620	0.666071
C251	C	1.573134	-0.163287	0.999405
C252	C	1.906467	0.170047	1.332738
H253	H	1.232598	-0.489256	0.611378
H254	H	1.565931	-0.155923	0.944712
H255	H	1.899264	0.177410	1.278045
H256	H	1.292552	-0.484824	0.679512
H257	H	1.625885	-0.151491	1.012846
H258	H	1.959218	0.181843	1.346179
H259	H	1.228282	-0.550793	0.679492
H260	H	1.561616	-0.217459	1.012826
H261	H	1.894949	0.115874	1.346159
H262	H	0.433977	-0.294743	0.287319
H263	H	0.767311	0.038590	0.620653
H264	H	1.100644	0.371923	0.953986
H265	H	1.043403	-0.294742	0.677820
H266	H	1.376737	0.038591	1.011153
H267	H	1.710070	0.371925	1.344486
H268	H	1.043425	-0.294708	0.826547
H269	H	1.376758	0.038625	1.159880
H270	H	1.710092	0.371959	1.493214
