data_functionalizedCrystal
_audit_creation_method	'MofGen! by Chris Wilmer'
_symmetry_space_group_name_H-M	'P1'
_symmetry_Int_Tables_number	1
_symmetry_cell_setting	triclinic
loop_
_symmetry_equiv_pos_as_xyz
  x,y,z
_cell_length_a	12.594517
_cell_length_b	12.594516
_cell_length_c	18.215399
_cell_angle_alpha	90.022975
_cell_angle_beta	90.020887
_cell_angle_gamma	90.017605
loop_
_atom_site_label
_atom_site_type_symbol
_atom_site_fract_x
_atom_site_fract_y
_atom_site_fract_z
Zn1	Zn	1.627237	-0.423769	0.416162
Zn2	Zn	1.627126	-0.601767	0.293106
Zn3	Zn	1.449245	-0.423801	0.293107
Zn4	Zn	1.449217	-0.601704	0.416129
O5	O	1.538206	-0.512760	0.354626
O6	O	1.776168	-0.447394	0.399852
O7	O	1.603495	-0.578198	0.190122
O8	O	1.472915	-0.274851	0.309445
O9	O	1.776086	-0.578168	0.309444
O10	O	1.603685	-0.274828	0.399853
O11	O	1.472807	-0.447448	0.190123
O12	O	1.300296	-0.447387	0.309413
O13	O	1.472866	-0.578061	0.519118
O14	O	1.300275	-0.578092	0.399796
O15	O	1.603657	-0.447333	0.519142
O16	O	1.603467	-0.750704	0.309412
O17	O	1.472758	-0.750658	0.399796
C18	C	1.261665	-0.512737	0.354602
C19	C	1.143360	-0.512753	0.354608
C20	C	1.003324	-0.441584	0.305561
C21	C	1.074181	-0.415658	0.372716
C22	C	1.074074	-0.538631	0.287461
C23	C	1.003432	-0.486818	0.421853
C24	C	1.003319	-0.609837	0.336553
C25	C	1.074144	-0.583947	0.403753
C26	C	1.538126	-0.789301	0.354616
C27	C	1.538189	-0.907607	0.354636
C28	C	1.467155	-1.047637	0.403771
C29	C	1.564189	-0.976729	0.421828
C30	C	1.441165	-0.976943	0.336612
C31	C	1.635449	-1.047484	0.372756
C32	C	1.512359	-1.047705	0.287508
C33	C	1.609461	-0.976828	0.305539
C34	C	1.815827	-0.512784	0.354651
C35	C	1.934133	-0.512794	0.354662
C36	C	1.538271	-0.512687	0.546579
C37	C	1.538299	-0.512656	0.628378
C38	C	1.538316	-0.235139	0.354652
C39	C	1.538362	-0.116834	0.354664
C40	C	1.538203	-0.512757	0.163420
C41	C	1.538382	-0.512488	0.081621
C42	C	1.606426	-0.444522	0.816586
C43	C	1.606439	-0.444491	0.893445
C44	C	1.470247	-0.580625	0.893408
C45	C	1.470229	-0.580650	0.816551
C46	C	1.538325	-0.512600	0.778142
C47	C	1.538355	-0.512544	0.931858
C48	C	1.538368	-0.512511	1.015192
C49	C	1.538311	-0.512631	0.694803
H50	H	0.972529	-0.464852	0.478677
N51	N	1.332384	-0.935896	0.316394
H52	H	1.278723	-0.961658	0.353534
H53	H	1.312356	-0.962838	0.266027
H54	H	1.407085	-1.078724	0.445344
N55	N	1.115093	-0.663693	0.458779
H56	H	1.088173	-0.736797	0.445573
H57	H	1.089252	-0.643937	0.509455
H58	H	0.972170	-0.691897	0.321234
N59	N	1.689218	-0.935893	0.250519
H60	H	1.688280	-0.855706	0.250506
H61	H	1.670256	-0.962929	0.199979
N62	N	1.396821	-0.654032	0.934838
H63	H	1.353675	-0.697163	0.898819
H64	H	1.347586	-0.610698	0.966727
H65	H	1.105108	-0.560501	0.230652
N66	N	1.593244	-0.935424	0.497035
H67	H	1.605820	-0.997164	0.531318
H68	H	1.533362	-0.890195	0.516557
H69	H	1.414766	-0.636086	0.785249
H70	H	1.490404	-1.078902	0.230744
H71	H	1.661871	-0.389108	0.785315
N72	N	0.962132	-0.361790	0.250654
H73	H	0.987913	-0.288489	0.264413
H74	H	0.881950	-0.362937	0.250752
H75	H	1.661892	-0.389053	0.924743
N76	N	1.115413	-0.306933	0.392988
H77	H	1.089657	-0.253206	0.355891
H78	H	1.195595	-0.307995	0.393298
N79	N	1.744269	-1.088347	0.393051
H80	H	1.743657	-1.168538	0.392957
H81	H	1.763942	-1.061823	0.443590
