data_functionalizedCrystal
_audit_creation_method	'MofGen! by Chris Wilmer'
_symmetry_space_group_name_H-M	'P1'
_symmetry_Int_Tables_number	1
_symmetry_cell_setting	triclinic
loop_
_symmetry_equiv_pos_as_xyz
  x,y,z
_cell_length_a	12.759401
_cell_length_b	15.297327
_cell_length_c	12.759393
_cell_angle_alpha	80.358266
_cell_angle_beta	90.018496
_cell_angle_gamma	99.706546
loop_
_atom_site_label
_atom_site_type_symbol
_atom_site_fract_x
_atom_site_fract_y
_atom_site_fract_z
Zn1	Zn	1.533799	-0.359102	0.666297
Zn2	Zn	1.503249	-0.509990	0.521002
Zn3	Zn	1.358091	-0.359150	0.490645
Zn4	Zn	1.327659	-0.509920	0.696630
O5	O	1.430699	-0.434541	0.593643
O6	O	1.676766	-0.379127	0.647033
O7	O	1.483944	-0.490029	0.369964
O8	O	1.406921	-0.232898	0.488547
O9	O	1.654320	-0.489984	0.540286
O10	O	1.536012	-0.232864	0.617597
O11	O	1.377297	-0.379208	0.347661
O12	O	1.207035	-0.379140	0.517960
O13	O	1.355053	-0.489865	0.839617
O14	O	1.184677	-0.489911	0.669295
O15	O	1.506503	-0.379060	0.817332
O16	O	1.454435	-0.636226	0.569698
O17	O	1.325430	-0.636175	0.698731
C18	C	1.157735	-0.434524	0.593626
C19	C	1.040956	-0.434539	0.593648
C20	C	0.974461	-0.492309	0.672355
C21	C	0.864734	-0.492321	0.672369
C22	C	0.888009	-0.376788	0.514958
C23	C	0.997734	-0.376773	0.514949
C24	C	0.961022	-0.559014	0.763233
C25	C	0.851295	-0.559025	0.763247
C26	C	1.383343	-0.668934	0.640823
C27	C	1.363180	-0.769208	0.661042
C28	C	1.575241	-1.051846	0.449495
C29	C	1.594185	-0.957633	0.430493
C30	C	1.536436	-0.910523	0.488129
C31	C	1.459739	-0.957634	0.564769
C32	C	1.440787	-1.051856	0.583767
C33	C	1.401982	-0.910532	0.622401
C34	C	1.325285	-0.957643	0.699042
C35	C	1.306338	-1.051856	0.718037
C36	C	1.364087	-1.098967	0.660401
C37	C	1.420933	-0.816310	0.603403
C38	C	1.286480	-0.816320	0.737676
C39	C	1.267536	-0.910532	0.756677
C40	C	1.704729	-0.434558	0.593662
C41	C	1.821504	-0.434565	0.593670
C42	C	1.430791	-0.434450	0.867659
C43	C	1.430831	-0.434411	0.984427
C44	C	1.478269	-0.199232	0.546302
C45	C	1.498541	-0.098957	0.526129
C46	C	1.430681	-0.434566	0.320681
C47	C	1.430897	-0.434351	0.203862
C48	C	1.509701	-0.376709	1.027686
C49	C	1.509733	-0.376676	1.137404
C50	C	1.352019	-0.492055	1.160596
C51	C	1.351984	-0.492083	1.050879
C52	C	1.600759	-0.310099	1.014298
C53	C	1.600790	-0.310066	1.124015
H54	H	0.994590	-0.540381	0.840888
C55	C	0.988899	-0.648625	0.741728
H56	H	0.925385	-0.688543	0.732163
H57	H	1.032961	-0.637838	0.679320
H58	H	1.025538	-0.674787	0.800449
C59	C	0.812156	-0.525336	0.860952
H60	H	0.870653	-0.510330	0.904458
H61	H	0.780696	-0.473586	0.838156
H62	H	0.760981	-0.571318	0.900530
C63	C	0.791997	-0.653384	0.752615
H64	H	0.842070	-0.692180	0.748221
H65	H	0.745961	-0.676661	0.812948
H66	H	0.751389	-0.649521	0.690099
C67	C	1.678513	-0.905814	0.346168
H68	H	1.681511	-0.842955	0.343091
H69	H	1.746017	-0.921179	0.364668
H70	H	1.660014	-0.921327	0.278701
C71	C	1.343253	-1.202602	0.681312
H72	H	1.289309	-1.223915	0.735213
H73	H	1.320828	-1.223984	0.617812
H74	H	1.406777	-1.223844	0.703833
C75	C	1.590379	-0.215724	0.955087
H76	H	1.586124	-0.176894	1.005190
H77	H	1.650744	-0.192521	0.909062
H78	H	1.527845	-0.219538	0.914491
C79	C	1.698322	-0.343921	0.975121
H80	H	1.741795	-0.358960	1.033596
H81	H	1.675365	-0.395671	0.943619
H82	H	1.738007	-0.297987	0.923986
C83	C	1.579575	-0.220386	1.151960
H84	H	1.570112	-0.180470	1.088483
H85	H	1.517165	-0.231085	1.196012
H86	H	1.638376	-0.194271	1.188614
H87	H	1.239453	-0.777962	0.784606
C88	C	1.265210	-0.555537	1.003295
H89	H	1.218262	-0.589880	1.058587
H90	H	1.226410	-0.521021	0.953555
H91	H	1.297425	-0.594870	0.968398
C92	C	0.840465	-0.313252	0.428392
H93	H	0.895786	-0.278839	0.381519
H94	H	0.790682	-0.347717	0.389489
H95	H	0.805611	-0.273987	0.460767
H96	H	1.551863	-0.833810	0.472652
H97	H	1.051872	-0.329725	0.450863
H98	H	1.622246	-1.090213	0.402570
H99	H	1.243874	-1.090211	0.780430
H100	H	1.678385	-0.328779	1.157562
H101	H	1.483380	-0.777960	0.541002
C102	C	1.183168	-0.962361	0.840970
H103	H	1.180151	-1.025218	0.844020
H104	H	1.201619	-0.946866	0.908450
H105	H	1.115674	-0.946983	0.822426
C106	C	1.265301	-0.555496	1.233696
H107	H	1.276620	-0.547220	1.305237
H108	H	1.197374	-0.542296	1.213055
H109	H	1.268426	-0.616119	1.227906
