data_functionalizedCrystal
_audit_creation_method	'MofGen! by Chris Wilmer'
_symmetry_space_group_name_H-M	'P1'
_symmetry_Int_Tables_number	1
_symmetry_cell_setting	triclinic
loop_
_symmetry_equiv_pos_as_xyz
  x,y,z
_cell_length_a	21.395364
_cell_length_b	21.395361
_cell_length_c	21.395355
_cell_angle_alpha	89.978489
_cell_angle_beta	89.975448
_cell_angle_gamma	90.045659
loop_
_atom_site_label
_atom_site_type_symbol
_atom_site_fract_x
_atom_site_fract_y
_atom_site_fract_z
Zn1	Zn	0.957859	-0.249261	-0.354248
Zn2	Zn	1.291193	0.084072	-0.020915
Zn3	Zn	1.624526	0.417406	0.312418
Zn4	Zn	0.957762	-0.354021	-0.249466
Zn5	Zn	1.291095	-0.020688	0.083868
Zn6	Zn	1.624428	0.312646	0.417201
Zn7	Zn	0.853074	-0.249289	-0.249485
Zn8	Zn	1.186408	0.084045	0.083848
Zn9	Zn	1.519741	0.417378	0.417181
Zn10	Zn	0.853043	-0.354032	-0.354206
Zn11	Zn	1.186377	-0.020699	-0.020872
Zn12	Zn	1.519710	0.312634	0.312461
O13	O	0.905435	-0.301651	-0.301851
O14	O	1.238768	0.031683	0.031482
O15	O	1.572101	0.365016	0.364815
O16	O	1.045524	-0.263142	-0.340358
O17	O	1.378857	0.070192	-0.007025
O18	O	1.712191	0.403525	0.326308
O19	O	0.943847	-0.340135	-0.161790
O20	O	1.277180	-0.006802	0.171543
O21	O	1.610513	0.326532	0.504876
O22	O	0.867028	-0.161607	-0.263408
O23	O	1.200361	0.171726	0.069925
O24	O	1.533695	0.505060	0.403258
O25	O	1.045453	-0.340108	-0.263375
O26	O	1.378786	-0.006775	0.069958
O27	O	1.712119	0.326558	0.403292
O28	O	0.944013	-0.161587	-0.340378
O29	O	1.277346	0.171746	-0.007044
O30	O	1.610680	0.505080	0.326289
O31	O	0.866933	-0.263188	-0.161805
O32	O	1.200267	0.070145	0.171529
O33	O	1.533600	0.403478	0.504862
O34	O	0.765392	-0.263199	-0.263367
O35	O	1.098726	0.070134	0.069966
O36	O	1.432059	0.403467	0.403300
O37	O	0.866975	-0.340127	-0.441889
O38	O	1.200309	-0.006794	-0.108556
O39	O	1.533642	0.326539	0.224777
O40	O	0.765370	-0.340154	-0.340305
O41	O	1.098703	-0.006821	-0.006971
O42	O	1.432036	0.326513	0.326362
O43	O	0.943983	-0.263152	-0.441921
O44	O	1.277316	0.070181	-0.108587
O45	O	1.610650	0.403514	0.224746
O46	O	0.943817	-0.441700	-0.263333
O47	O	1.277150	-0.108367	0.070000
O48	O	1.610484	0.224966	0.403333
O49	O	0.866881	-0.441709	-0.340286
O50	O	1.200214	-0.108375	-0.006952
O51	O	1.533547	0.224958	0.326381
C52	C	0.905352	-0.464438	-0.301816
C53	C	1.238685	-0.131105	0.031517
C54	C	1.572019	0.202228	0.364850
C55	C	0.905374	-0.534080	-0.301822
C56	C	1.238707	-0.200746	0.031511
C57	C	1.572041	0.132587	0.364844
C58	C	0.742647	-0.301681	-0.301834
C59	C	1.075980	0.031652	0.031500
C60	C	1.409314	0.364985	0.364833
C61	C	0.673006	-0.301709	-0.301841
C62	C	1.006339	0.031624	0.031492
C63	C	1.339672	0.364957	0.364826
C64	C	0.945470	-0.566768	-0.261794
C65	C	1.278803	-0.233434	0.071539
C66	C	1.612137	0.099899	0.404872
C67	C	0.945499	-0.632203	-0.261808
C68	C	1.278832	-0.298870	0.071525
C69	C	1.612166	0.034464	0.404858
C70	C	0.905421	-0.664948	-0.301844
C71	C	1.238754	-0.331615	0.031489
C72	C	1.572088	0.001719	0.364823
C73	C	0.865322	-0.632252	-0.341880
C74	C	1.198655	-0.298919	-0.008546
C75	C	1.531989	0.034415	0.324787
C76	C	0.865298	-0.566818	-0.341869
C77	C	1.198632	-0.233485	-0.008536
C78	C	1.531965	0.099849	0.324798
C79	C	0.849006	-0.768678	-0.306754
C80	C	1.182340	-0.435344	0.026580
C81	C	1.515673	-0.102011	0.359913
C82	C	0.849029	-0.834111	-0.306760
C83	C	1.182362	-0.500777	0.026573
C84	C	1.515695	-0.167444	0.359907
C85	C	0.905494	-0.866769	-0.301881
C86	C	1.238827	-0.533435	0.031453
C87	C	1.572161	-0.200102	0.364786
C88	C	0.961938	-0.833986	-0.296982
C89	C	1.295272	-0.500652	0.036352
C90	C	1.628605	-0.167319	0.369685
C91	C	0.961915	-0.768551	-0.296971
C92	C	1.295248	-0.435218	0.036362
C93	C	1.628581	-0.101885	0.369696
C94	C	0.905442	-0.735900	-0.301860
C95	C	1.238776	-0.402567	0.031473
C96	C	1.572109	-0.069234	0.364806
C97	C	0.945625	-0.970409	-0.261866
C98	C	1.278958	-0.637076	0.071468
C99	C	1.612292	-0.303743	0.404801
C100	C	0.945655	-1.035846	-0.261884
C101	C	1.278989	-0.702512	0.071449
C102	C	1.612322	-0.369179	0.404783
C103	C	0.865473	-1.035893	-0.341952
C104	C	1.198806	-0.702560	-0.008619
C105	C	1.532139	-0.369227	0.324715
C106	C	0.865448	-0.970458	-0.341937
C107	C	1.198781	-0.637125	-0.008604
C108	C	1.532115	-0.303791	0.324730
C109	C	0.905523	-0.937720	-0.301890
C110	C	1.238857	-0.604387	0.031443
C111	C	1.572190	-0.271053	0.364776
C112	C	0.640352	-0.261698	-0.341988
C113	C	0.973686	0.071635	-0.008655
C114	C	1.307019	0.404968	0.324678
C115	C	0.574917	-0.261682	-0.341991
C116	C	0.908250	0.071652	-0.008657
C117	C	1.241584	0.404985	0.324676
C118	C	0.542137	-0.301687	-0.301852
C119	C	0.875471	0.031646	0.031481
C120	C	1.208804	0.364979	0.364814
C121	C	0.574799	-0.341701	-0.261697
C122	C	0.908132	-0.008368	0.071636
C123	C	1.241465	0.324966	0.404969
C124	C	0.640233	-0.341712	-0.261692
C125	C	0.973566	-0.008379	0.071642
C126	C	1.306900	0.324955	0.404975
C127	C	0.438413	-0.358112	-0.296812
C128	C	0.771746	-0.024779	0.036522
C129	C	1.105080	0.308555	0.369855
C130	C	0.372980	-0.358102	-0.296822
C131	C	0.706313	-0.024769	0.036511
C132	C	1.039647	0.308565	0.369845
C133	C	0.340317	-0.301653	-0.301866
C134	C	0.673650	0.031681	0.031467
C135	C	1.006983	0.365014	0.364800
C136	C	0.373094	-0.245212	-0.306914
C137	C	0.706428	0.088121	0.026420
C138	C	1.039761	0.421455	0.359753
C139	C	0.438528	-0.245223	-0.306908
C140	C	0.771862	0.088110	0.026425
C141	C	1.105195	0.421444	0.359759
C142	C	0.471185	-0.301679	-0.301854
C143	C	0.804518	0.031654	0.031480
C144	C	1.137852	0.364987	0.364813
C145	C	0.236711	-0.261620	-0.342018
C146	C	0.570044	0.071713	-0.008685
C147	C	0.903377	0.405046	0.324648
C148	C	0.171274	-0.261603	-0.342016
C149	C	0.504607	0.071731	-0.008683
C150	C	0.837941	0.405064	0.324650
C151	C	0.171157	-0.341627	-0.261726
C152	C	0.504491	-0.008294	0.071607
C153	C	0.837824	0.325039	0.404940
C154	C	0.236593	-0.341640	-0.261725
C155	C	0.569926	-0.008306	0.071608
C156	C	0.903259	0.325027	0.404942
C157	C	0.269365	-0.301637	-0.301874
C158	C	0.602699	0.031696	0.031459
C159	C	0.936032	0.365030	0.364792
C160	C	1.068858	-0.301621	-0.301869
C161	C	1.402191	0.031713	0.031464
C162	C	1.735525	0.365046	0.364797
C163	C	1.138499	-0.301608	-0.301877
C164	C	1.471832	0.031726	0.031456
C165	C	1.805166	0.365059	0.364790
C166	C	0.905487	-0.301638	-0.465275
C167	C	1.238820	0.031695	-0.131941
C168	C	1.572153	0.365029	0.201392
C169	C	0.905509	-0.301633	-0.534916
C170	C	1.238842	0.031701	-0.201582
C171	C	1.572175	0.365034	0.131751
C172	C	0.905535	-0.138227	-0.301900
C173	C	1.238868	0.195106	0.031433
C174	C	1.572201	0.528439	0.364767
C175	C	0.905577	-0.068586	-0.301921
C176	C	1.238911	0.264747	0.031413
C177	C	1.572244	0.598081	0.364746
C178	C	0.945605	-0.261550	-0.567646
C179	C	1.278938	0.071783	-0.234313
C180	C	1.612272	0.405117	0.099020
C181	C	0.945604	-0.261523	-0.633082
C182	C	1.278937	0.071810	-0.299748
C183	C	1.612271	0.405143	0.033585
C184	C	0.905514	-0.301590	-0.665784
C185	C	1.238847	0.031743	-0.332451
C186	C	1.572180	0.365077	0.000882
C187	C	0.865410	-0.341675	-0.633046
C188	C	1.198743	-0.008342	-0.299712
C189	C	1.532076	0.324991	0.033621
C190	C	0.865407	-0.341697	-0.567612
C191	C	1.198741	-0.008363	-0.234278
C192	C	1.532074	0.324970	0.099055
C193	C	0.900538	-0.358007	-0.769447
C194	C	1.233871	-0.024673	-0.436113
C195	C	1.567204	0.308660	-0.102780
C196	C	0.900545	-0.357986	-0.834880
C197	C	1.233878	-0.024653	-0.501546
C198	C	1.567211	0.308680	-0.168213
C199	C	0.905518	-0.301524	-0.867605
C200	C	1.238851	0.031810	-0.534272
C201	C	1.572184	0.365143	-0.200938
C202	C	0.910497	-0.245080	-0.834889
C203	C	1.243830	0.088254	-0.501556
C204	C	1.577164	0.421587	-0.168223
C205	C	0.910494	-0.245101	-0.769455
C206	C	1.243828	0.088232	-0.436122
C207	C	1.577161	0.421566	-0.102788
C208	C	0.905512	-0.301571	-0.736737
C209	C	1.238845	0.031762	-0.403403
C210	C	1.572178	0.365096	-0.070070
C211	C	0.945615	-0.261409	-0.971288
C212	C	1.278948	0.071925	-0.637955
C213	C	1.612282	0.405258	-0.304621
C214	C	0.945610	-0.261381	-1.036725
C215	C	1.278943	0.071953	-0.703391
C216	C	1.612276	0.405286	-0.370058
C217	C	0.865419	-0.341538	-1.036688
C218	C	1.198752	-0.008205	-0.703354
C219	C	1.532085	0.325128	-0.370021
C220	C	0.865421	-0.341561	-0.971252
C221	C	1.198754	-0.008227	-0.637919
C222	C	1.532087	0.325106	-0.304586
C223	C	0.905522	-0.301497	-0.938556
C224	C	1.238855	0.031837	-0.605223
C225	C	1.572189	0.365170	-0.271890
C226	C	0.905419	-0.301618	-0.139064
C227	C	1.238752	0.031715	0.194270
C228	C	1.572086	0.365048	0.527603
C229	C	0.905518	-0.301447	-0.069423
C230	C	1.238851	0.031886	0.263911
C231	C	1.572185	0.365220	0.597244
H232	H	0.978103	-0.540114	-0.229188
H233	H	1.311437	-0.206781	0.104146
H234	H	1.644770	0.126553	0.437479
C235	C	0.821195	-0.530860	-0.385913
C236	C	1.154529	-0.197527	-0.052579
C237	C	1.487862	0.135807	0.280754
N238	N	0.787979	-0.503775	-0.419090
N239	N	1.121312	-0.170442	-0.085756
N240	N	1.454645	0.162891	0.247577
C241	C	0.821319	-0.385613	-1.072657
C242	C	1.154652	-0.052280	-0.739323
C243	C	1.487985	0.281054	-0.405990
N244	N	0.788101	-0.418811	-1.099751
N245	N	1.121435	-0.085477	-0.766418
N246	N	1.454768	0.247856	-0.433085
H247	H	0.667032	-0.229125	-0.374681
H248	H	1.000365	0.104209	-0.041347
H249	H	1.333699	0.437542	0.291986
C250	C	0.272513	-0.385660	-0.217564
C251	C	0.605846	-0.052327	0.115769
C252	C	0.939179	0.281006	0.449102
N253	N	0.299568	-0.418818	-0.184299
N254	N	0.632901	-0.085485	0.149034
N255	N	0.966234	0.247848	0.482367
H256	H	0.346298	-0.404059	-0.292715
H257	H	0.679631	-0.070726	0.040618
H258	H	1.012964	0.262607	0.373952
C259	C	0.538991	-0.217669	-0.386161
C260	C	0.872324	0.115665	-0.052828
C261	C	1.205657	0.448998	0.280505
N262	N	0.511933	-0.184519	-0.419432
N263	N	0.845266	0.148814	-0.086099
N264	N	1.178600	0.482147	0.247234
C265	C	0.538740	-0.385707	-0.217545
C266	C	0.872073	-0.052374	0.115788
C267	C	1.205407	0.280959	0.449121
N268	N	0.511581	-0.418853	-0.184288
N269	N	0.844914	-0.085520	0.149046
N270	N	1.178247	0.247813	0.482379
H271	H	0.465213	-0.199267	-0.311016
H272	H	0.798547	0.134066	0.022318
H273	H	1.131880	0.467400	0.355651
H274	H	0.914547	-0.199143	-0.742821
H275	H	1.247880	0.134191	-0.409487
H276	H	1.581214	0.467524	-0.076154
C277	C	0.821234	-0.668273	-0.385916
C278	C	1.154567	-0.334939	-0.052583
C279	C	1.487900	-0.001606	0.280750
N280	N	0.788026	-0.695403	-0.419087
N281	N	1.121359	-0.362070	-0.085754
N282	N	1.454692	-0.028737	0.247580
C283	C	0.989719	-0.217431	-0.669093
C284	C	1.323052	0.115902	-0.335759
C285	C	1.656385	0.449235	-0.002426
N286	N	1.022947	-0.184223	-0.696214
N287	N	1.356281	0.149110	-0.362881
N288	N	1.689614	0.482444	-0.029547
C289	C	0.337170	-0.183112	-0.312457
C290	C	0.670503	0.150221	0.020876
C291	C	1.003836	0.483555	0.354210
N292	N	0.310108	-0.136340	-0.316631
N293	N	0.643442	0.196993	0.016702
N294	N	0.976775	0.530327	0.350036
H295	H	0.263396	-0.229044	-0.374706
H296	H	0.596729	0.104289	-0.041373
H297	H	0.930062	0.437623	0.291960
C298	C	0.474336	-0.420215	-0.291266
C299	C	0.807670	-0.086882	0.042068
C300	C	1.141003	0.246452	0.375401
N301	N	0.501393	-0.466989	-0.287090
N302	N	0.834726	-0.133656	0.046243
N303	N	1.168059	0.199677	0.379577
C304	C	0.989606	-0.668167	-0.217770
C305	C	1.322940	-0.334834	0.115564
C306	C	1.656273	-0.001500	0.448897
N307	N	1.022827	-0.695253	-0.184598
N308	N	1.356160	-0.361920	0.148736
N309	N	1.689493	-0.028587	0.482069
H310	H	0.144689	-0.229017	-0.374708
H311	H	0.478022	0.104316	-0.041375
H312	H	0.811355	0.437649	0.291959
C313	C	0.821298	-0.385794	-0.531607
C314	C	1.154631	-0.052461	-0.198274
C315	C	1.487964	0.280873	0.135060
N316	N	0.788075	-0.419010	-0.504487
N317	N	1.121408	-0.085676	-0.171154
N318	N	1.454741	0.247657	0.162179
H319	H	0.144469	-0.374200	-0.229045
H320	H	0.477802	-0.040867	0.104289
H321	H	0.811136	0.292466	0.437622
C322	C	0.989720	-0.217283	-1.072728
C323	C	1.323053	0.116050	-0.739395
C324	C	1.656387	0.449384	-0.406062
N325	N	1.022945	-0.184069	-1.099846
N326	N	1.356279	0.149265	-0.766513
N327	N	1.689612	0.482598	-0.433180
C328	C	0.786939	-0.870166	-0.312147
C329	C	1.120272	-0.536833	0.021186
C330	C	1.453606	-0.203499	0.354519
N331	N	0.740171	-0.897321	-0.316206
N332	N	1.073505	-0.563988	0.017127
N333	N	1.406838	-0.230654	0.350461
H334	H	1.007873	-0.741861	-0.292984
H335	H	1.341206	-0.408528	0.040350
H336	H	1.674540	-0.075194	0.373683
C337	C	0.821314	-0.385658	-0.935247
C338	C	1.154647	-0.052325	-0.601914
C339	C	1.487980	0.281009	-0.268581
N340	N	0.788088	-0.418872	-0.908129
N341	N	1.121422	-0.085539	-0.574795
N342	N	1.454755	0.247794	-0.241462
H343	H	0.914547	-0.199103	-0.861533
H344	H	1.247881	0.134231	-0.528199
H345	H	1.581214	0.467564	-0.194866
H346	H	0.832766	-0.374296	-0.659676
H347	H	1.166099	-0.040963	-0.326343
H348	H	1.499432	0.292371	0.006990
H349	H	0.978258	-0.228926	-0.541029
H350	H	1.311591	0.104407	-0.207696
H351	H	1.644925	0.437740	0.125637
H352	H	0.978265	-0.228783	-0.944666
H353	H	1.311598	0.104551	-0.611332
H354	H	1.644931	0.437884	-0.277999
C355	C	1.024056	-0.869904	-0.291619
C356	C	1.357389	-0.536571	0.041714
C357	C	1.690722	-0.203237	0.375048
N358	N	1.070841	-0.896961	-0.287580
N359	N	1.404174	-0.563628	0.045753
N360	N	1.737508	-0.230294	0.379086
H361	H	0.896494	-0.403946	-0.861512
H362	H	1.229827	-0.070613	-0.528179
H363	H	1.563161	0.262720	-0.194845
C364	C	0.676153	-0.385732	-0.217527
C365	C	1.009486	-0.052399	0.115806
C366	C	1.342819	0.280935	0.449139
N367	N	0.703209	-0.418890	-0.184263
N368	N	1.036542	-0.085557	0.149070
N369	N	1.369875	0.247777	0.482403
C370	C	0.895079	-0.420125	-0.733456
C371	C	1.228412	-0.086792	-0.400122
C372	C	1.561746	0.246542	-0.066789
N373	N	0.890972	-0.466912	-0.706348
N374	N	1.224305	-0.133578	-0.373015
N375	N	1.557638	0.199755	-0.039681
C376	C	0.989718	-0.934395	-0.217823
C377	C	1.323051	-0.601062	0.115510
C378	C	1.656384	-0.267728	0.448843
N379	N	1.022931	-0.907271	-0.184653
N380	N	1.356264	-0.573937	0.148681
N381	N	1.689597	-0.240604	0.482014
H382	H	0.832843	-1.062554	-0.374552
H383	H	1.166176	-0.729220	-0.041219
H384	H	1.499510	-0.395887	0.292114
C385	C	0.989766	-1.071802	-0.217847
C386	C	1.323099	-0.738469	0.115486
C387	C	1.656433	-0.405136	0.448819
N388	N	1.022990	-1.098886	-0.184676
N389	N	1.356323	-0.765552	0.148657
N390	N	1.689657	-0.432219	0.481990
H391	H	0.803022	-0.742094	-0.310730
H392	H	1.136355	-0.408761	0.022604
H393	H	1.469688	-0.075428	0.355937
C394	C	0.821351	-0.934500	-0.385984
C395	C	1.154684	-0.601167	-0.052651
C396	C	1.488018	-0.267833	0.280683
N397	N	0.788142	-0.907416	-0.419170
N398	N	1.121476	-0.574083	-0.085837
N399	N	1.454809	-0.240750	0.247497
