data_functionalizedCrystal
_audit_creation_method	'MofGen! by Chris Wilmer'
_symmetry_space_group_name_H-M	'P1'
_symmetry_Int_Tables_number	1
_symmetry_cell_setting	triclinic
loop_
_symmetry_equiv_pos_as_xyz
  x,y,z
_cell_length_a	19.288864
_cell_length_b	15.944551
_cell_length_c	18.366186
_cell_angle_alpha	89.992809
_cell_angle_beta	89.977106
_cell_angle_gamma	83.317492
loop_
_atom_site_label
_atom_site_type_symbol
_atom_site_fract_x
_atom_site_fract_y
_atom_site_fract_z
O1	O	0.921629	0.104784	-0.060785
O2	O	0.719405	0.118919	-0.060735
O3	O	0.826039	-0.010445	-0.060755
O4	O	0.814995	0.234147	-0.060765
O5	O	0.826021	-0.010451	0.060345
O6	O	0.719387	0.118912	0.060364
O7	O	0.921611	0.104777	0.060315
Zn8	Zn	0.820496	0.111844	0.079567
Zn9	Zn	0.820520	0.111852	-0.079987
O10	O	0.814977	0.234141	0.060334
C11	C	0.693519	0.118461	-0.000179
C12	C	0.616411	0.117095	-0.000160
C13	C	0.825572	-0.041740	-0.000205
C14	C	0.824197	-0.134981	-0.000204
C15	C	0.571915	0.193000	-0.000175
C16	C	0.499465	0.191717	-0.000183
C17	C	0.471514	0.114526	-0.000191
C18	C	0.516020	0.038611	-0.000172
C19	C	0.588469	0.039896	-0.000156
C20	C	0.363098	0.053847	-0.042639
C21	C	0.290650	0.052565	-0.042659
C22	C	0.248058	0.110560	-0.000234
C23	C	0.277920	0.169850	0.042200
C24	C	0.350369	0.171135	0.042216
C25	C	0.392956	0.113124	-0.000207
C26	C	0.125002	0.185079	-0.000257
C27	C	0.052550	0.183793	-0.000260
C28	C	0.069107	0.030684	-0.000257
C29	C	0.141557	0.031972	-0.000246
C30	C	0.169500	0.109172	-0.000249
C31	C	0.754815	-0.349571	-0.000197
C32	C	0.787025	-0.410715	0.059504
C33	C	0.821710	-0.305697	-0.000209
C34	C	0.787058	-0.410692	-0.059890
C35	C	0.819303	-0.470601	-0.000217
C36	C	0.853939	-0.365614	0.059542
C37	C	0.853963	-0.365585	-0.059906
C38	C	0.886222	-0.426712	-0.000190
C39	C	0.823095	-0.210700	-0.000204
C40	C	0.817924	-0.565597	-0.000217
C41	C	0.947497	0.105235	-0.000243
C42	C	1.024605	0.106600	-0.000267
C43	C	0.815444	0.265436	-0.000217
C44	C	0.816819	0.358677	-0.000223
N45	N	0.820485	0.111838	0.188458
N46	N	0.820537	0.111852	-0.188878
C47	C	0.867718	0.054583	0.226549
C48	C	0.867722	0.054580	0.302777
C49	C	0.820500	0.111844	0.340910
C50	C	0.773258	0.169103	0.302810
C51	C	0.773251	0.169100	0.226583
C52	C	0.811404	0.188378	0.461669
C53	C	0.811416	0.188383	0.537894
C54	C	0.820520	0.111855	0.576018
C55	C	0.829626	0.035320	0.537908
C56	C	0.829618	0.035316	0.461681
C57	C	0.820503	0.111854	0.423565
C58	C	0.867760	0.054592	0.696765
C59	C	0.867760	0.054587	0.772994
C60	C	0.773299	0.169118	0.773025
C61	C	0.773296	0.169115	0.696797
C62	C	0.820531	0.111853	0.658671
H63	H	0.594661	0.255862	-0.000179
N64	N	0.685156	-0.307525	-0.000104
N65	N	0.644663	-0.319229	0.051097
H66	H	0.595467	-0.289534	0.051166
N67	N	0.915999	-0.003944	0.657854
N68	N	0.959150	0.022489	0.615294
H69	H	0.993218	-0.018871	0.587832
N70	N	0.453992	0.269248	-0.000215
N71	N	0.389308	0.268086	-0.000236
H72	H	0.357193	0.322841	-0.000262
H73	H	0.758723	-0.430717	0.109991
H74	H	0.734787	0.215724	0.195568
N75	N	0.380862	0.231699	0.085562
N76	N	0.342833	0.283481	0.123437
H77	H	0.364368	0.326255	0.154053
H78	H	0.758763	-0.430658	-0.110366
N79	N	0.916009	-0.003913	0.811895
N80	N	0.958174	-0.055033	0.777842
H81	H	0.992251	-0.096350	0.805316
N82	N	0.889396	-0.340670	0.122924
N83	N	0.896149	-0.264547	0.133169
H84	H	0.921189	-0.246927	0.177933
H85	H	0.906177	0.007955	0.195510
H86	H	0.243242	0.217075	0.076747
N87	N	0.955941	-0.468570	-0.000162
N88	N	0.996323	-0.457015	0.051139
H89	H	1.045562	-0.486578	0.051162
N90	N	0.007105	0.261340	-0.000266
N91	N	0.032067	0.330257	-0.000267
H92	H	-0.000028	0.385027	-0.000271
N93	N	0.406598	-0.005386	-0.085993
N94	N	0.444348	0.020305	-0.134559
H95	H	0.475069	-0.021526	-0.165179
H96	H	0.882240	-0.345560	-0.110395
H97	H	0.906186	0.007955	0.333797
N98	N	0.153539	0.263939	-0.000256
N99	N	0.113797	0.331708	-0.000260
H100	H	0.133949	0.387405	-0.000258
H101	H	0.493258	-0.024239	-0.000188
H102	H	0.624699	-0.021917	-0.000145
N103	N	0.838919	-0.042863	0.422764
N104	N	0.847049	-0.111189	0.456804
H105	H	0.853616	-0.166406	0.429319
H106	H	0.837039	-0.026997	0.568947
H107	H	0.734848	0.215741	0.804072
H108	H	0.734838	0.215741	0.665781
H109	H	0.804006	0.250702	0.568917
H110	H	0.803978	0.250700	0.430635
N111	N	0.725022	0.227587	0.341769
N112	N	0.725035	0.227583	0.409828
H113	H	0.690965	0.268886	0.437344
H114	H	0.046351	-0.032167	-0.000308
H115	H	0.177787	-0.029838	-0.000238
H116	H	0.266342	0.004290	-0.077214
