data_functionalizedCrystal
_audit_creation_method	'MofGen! by Chris Wilmer'
_symmetry_space_group_name_H-M	'P1'
_symmetry_Int_Tables_number	1
_symmetry_cell_setting	triclinic
loop_
_symmetry_equiv_pos_as_xyz
  x,y,z
_cell_length_a	19.188930
_cell_length_b	11.026607
_cell_length_c	10.065875
_cell_angle_alpha	79.268236
_cell_angle_beta	81.269268
_cell_angle_gamma	84.134602
loop_
_atom_site_label
_atom_site_type_symbol
_atom_site_fract_x
_atom_site_fract_y
_atom_site_fract_z
O1	O	0.953440	-0.133450	-0.113942
O2	O	0.752719	-0.153846	-0.113849
O3	O	0.836444	0.032915	-0.113883
O4	O	0.869715	-0.320211	-0.113908
O5	O	0.820496	-0.002841	0.113113
O6	O	0.736772	-0.189601	0.113146
O7	O	0.937493	-0.169205	0.113053
Zn8	Zn	0.834600	-0.185080	0.149140
Zn9	Zn	0.855611	-0.137971	-0.149936
O10	O	0.853768	-0.355966	0.113087
C11	C	0.718650	-0.171065	-0.000339
C12	C	0.640890	-0.169090	-0.000303
N13	N	0.820266	-0.217230	0.353252
C14	C	0.822332	0.060215	-0.000384
C15	C	0.804035	0.194832	-0.000380
C16	C	0.609934	-0.278667	-0.000333
C17	C	0.536874	-0.276803	-0.000347
C18	C	0.494775	-0.165352	-0.000360
C19	C	0.525739	-0.055761	-0.000323
C20	C	0.598796	-0.057630	-0.000295
N21	N	0.381369	-0.067986	-0.077666
N22	N	0.311967	-0.066217	-0.077696
C23	C	0.274655	-0.159714	-0.000444
N24	N	0.309368	-0.255063	0.076823
N25	N	0.378776	-0.256834	0.076847
C26	C	0.415555	-0.163313	-0.000391
C27	C	0.164479	-0.267279	-0.000487
C28	C	0.091417	-0.265412	-0.000493
C29	C	0.080284	-0.044364	-0.000483
C30	C	0.153344	-0.046237	-0.000463
C31	C	0.195438	-0.157696	-0.000471
C32	C	0.971562	-0.151985	-0.000459
C33	C	1.049322	-0.153960	-0.000504
C34	C	0.867880	-0.383266	-0.000415
C35	C	0.886177	-0.517881	-0.000427
C36	C	0.854557	0.268909	-0.000406
C37	C	0.835648	0.408043	-0.000402
N38	N	0.869950	-0.105812	-0.354047
C39	C	0.850619	-0.149149	0.421018
C40	C	0.839593	-0.173902	0.578190
H41	H	0.511664	-0.366038	-0.000367
H42	H	0.884765	-0.072533	0.362680
O43	O	0.798789	-0.265163	0.647923
C44	C	0.741711	-0.213580	0.730596
H45	H	0.755938	-0.121787	0.751844
H46	H	0.730100	-0.280029	0.831145
H47	H	0.692940	-0.197212	0.675652
O48	O	0.910499	-0.014137	0.576363
C49	C	0.869254	0.073215	0.493972
H50	H	0.822392	0.027578	0.472610
H51	H	0.902892	0.108758	0.393461
H52	H	0.849126	0.153944	0.549218
O53	O	0.735699	0.241850	-0.000413
C54	C	0.692393	0.145953	-0.000354
H55	H	0.725708	0.066836	-0.043336
H56	H	0.648883	0.182631	-0.066237
H57	H	0.667567	0.110848	0.108556
O58	O	0.779417	-0.308499	0.422779
C59	C	0.710285	-0.283996	0.387994
H60	H	0.700338	-0.180772	0.348627
H61	H	0.670487	-0.312992	0.482060
H62	H	0.704127	-0.338409	0.305170
O63	O	0.650714	-0.387053	-0.000265
C64	C	0.607721	-0.483365	-0.000327
H65	H	0.550982	-0.456398	0.042625
H66	H	0.628076	-0.571584	0.065582
H67	H	0.609340	-0.499995	-0.109234
O68	O	0.484834	0.052511	-0.000582
C69	C	0.450516	0.078708	-0.118147
H70	H	0.481485	0.028372	-0.200311
H71	H	0.447544	0.182694	-0.157603
H72	H	0.394769	0.046246	-0.091596
H73	H	0.624000	0.031604	-0.000272
O74	O	0.954474	0.434804	-0.000640
C75	C	0.976329	0.381048	-0.118225
H76	H	0.928017	0.355540	-0.157396
H77	H	1.012640	0.294130	-0.091802
H78	H	1.006002	0.450001	-0.200558
O79	O	0.205314	-0.375593	-0.000659
C80	C	0.199147	-0.423847	-0.118244
H81	H	0.147280	-0.384898	-0.157455
H82	H	0.199880	-0.529053	-0.091803
H83	H	0.245293	-0.396611	-0.200553
O84	O	0.061278	-0.371754	-0.000706
C85	C	0.027649	-0.358769	-0.118301
H86	H	0.014629	-0.256357	-0.157479
H87	H	-0.023231	-0.408401	-0.091887
H88	H	0.064354	-0.401049	-0.200626
O89	O	0.039299	0.063805	-0.000559
C90	C	-0.031826	0.041954	-0.000552
H91	H	-0.033991	-0.046005	-0.043532
H92	H	-0.058502	0.123627	-0.066464
H93	H	-0.060496	0.030574	0.108342
O94	O	0.183310	0.060332	-0.000510
C95	C	0.130486	0.159099	-0.000490
H96	H	0.083069	0.134801	-0.043486
H97	H	0.152346	0.246236	-0.066380
H98	H	0.113330	0.176127	0.108410
O99	O	0.922876	0.221818	-0.000259
C100	C	0.948011	0.243104	0.117303
H101	H	0.915278	0.324613	0.156515
H102	H	1.005789	0.265008	0.090831
H103	H	0.943293	0.156907	0.199623
H104	H	0.778391	0.447622	-0.000384
