data_functionalizedCrystal
_audit_creation_method	'MofGen! by Chris Wilmer'
_symmetry_space_group_name_H-M	'P1'
_symmetry_Int_Tables_number	1
_symmetry_cell_setting	triclinic
loop_
_symmetry_equiv_pos_as_xyz
  x,y,z
_cell_length_a	14.519709
_cell_length_b	13.339070
_cell_length_c	11.804365
_cell_angle_alpha	105.124870
_cell_angle_beta	78.148041
_cell_angle_gamma	99.654719
loop_
_atom_site_label
_atom_site_type_symbol
_atom_site_fract_x
_atom_site_fract_y
_atom_site_fract_z
O1	O	-0.449147	-1.363544	-0.099080
O2	O	-0.388436	-1.068905	-0.099072
O3	O	-0.286542	-1.224034	-0.099066
O4	O	-0.551041	-1.208414	-0.099087
O5	O	-0.313329	-1.183194	0.098989
O6	O	-0.415223	-1.028065	0.098982
O7	O	-0.475934	-1.322704	0.098974
Cu8	Cu	-0.448024	-1.171656	0.117062
Cu9	Cu	-0.416345	-1.219953	-0.117160
O10	O	-0.577828	-1.167575	0.098968
C11	C	-0.391574	-1.010777	-0.000044
C12	C	-0.361005	-0.898419	-0.000040
C13	C	-0.265390	-1.202886	-0.000038
C14	C	-0.162454	-1.200704	-0.000038
C15	C	-0.598979	-1.188723	-0.000062
C16	C	-0.701915	-1.190907	-0.000071
C17	C	0.214489	-1.192677	-0.000068
C18	C	0.109613	-1.194906	-0.000059
C19	C	0.026021	-1.196690	-0.000052
C20	C	-0.078862	-1.198920	-0.000045
C21	C	-0.472796	-1.380832	-0.000057
C22	C	-0.503364	-1.493192	-0.000068
N23	N	-0.470307	-1.137693	0.281801
C24	C	-0.598691	-0.534064	-0.000078
C25	C	-0.627415	-0.639630	-0.000085
C26	C	-0.560815	-0.704332	-0.000073
C27	C	-0.465486	-0.663459	-0.000055
C28	C	-0.436759	-0.557884	-0.000058
C29	C	-0.398882	-0.728152	-0.000053
C30	C	-0.303554	-0.687279	-0.000035
C31	C	-0.274831	-0.581714	-0.000037
C32	C	-0.341431	-0.517012	-0.000048
C33	C	-0.427610	-0.833727	-0.000051
C34	C	-0.265677	-0.857547	-0.000031
C35	C	-0.236954	-0.751981	-0.000024
N36	N	-0.394058	-1.253924	-0.281899
C37	C	-0.340531	-1.335480	0.655758
C38	C	-0.323670	-1.361172	0.531097
C39	C	-0.360328	-1.305304	0.468767
C40	C	-0.413850	-1.223741	0.531110
C41	C	-0.430719	-1.198052	0.655783
C42	C	-0.450515	-1.167876	0.468792
C43	C	-0.504037	-1.086313	0.531135
C44	C	-0.520903	-1.060628	0.655795
C45	C	-0.484245	-1.116496	0.718126
C46	C	-0.433646	-1.193565	0.344119
C47	C	-0.523834	-1.056137	0.344144
C48	C	-0.540695	-1.030445	0.468805
H49	H	-0.584207	-0.790289	-0.000082
H50	H	-0.390069	-1.259973	0.293371
H51	H	-0.159335	-0.718688	-0.000019
H52	H	-0.310695	-1.380966	0.706515
H53	H	-0.705029	-0.672904	-0.000109
H54	H	-0.346597	-1.326226	0.367263
H55	H	-0.280094	-1.427580	0.480342
H56	H	-0.318049	-0.431050	-0.000042
C57	C	-0.671940	-0.462892	-0.000095
C58	C	-0.660537	-0.408253	-0.102947
C59	C	-0.733791	-0.337078	-0.102966
C60	C	-0.818448	-0.320543	-0.000134
C61	C	-0.829855	-0.375184	0.102726
C62	C	-0.756601	-0.446358	0.102745
H63	H	-0.597865	-0.420492	-0.179076
H64	H	-0.725346	-0.296629	-0.179110
H65	H	-0.872676	-0.267855	-0.000148
H66	H	-0.892527	-0.362945	0.178856
H67	H	-0.765046	-0.486807	0.178890
H68	H	-0.211445	-0.910229	-0.000026
C69	C	-0.169968	-0.536757	-0.000032
C70	C	-0.121031	-0.539886	0.102819
C71	C	-0.016168	-0.494934	0.102821
C72	C	0.039759	-0.446852	-0.000027
C73	C	-0.009178	-0.443720	-0.102886
C74	C	-0.114042	-0.488673	-0.102888
H75	H	-0.162431	-0.575481	0.178960
H76	H	0.020058	-0.497252	0.178964
H77	H	0.117385	-0.413575	-0.000026
H78	H	0.032222	-0.408125	-0.179027
H79	H	-0.150268	-0.486355	-0.179031
C80	C	-0.532466	-0.878680	-0.000062
C81	C	-0.609220	-0.833123	0.102776
C82	C	-0.714083	-0.878073	0.102768
C83	C	-0.742193	-0.968581	-0.000077
C84	C	-0.665437	-1.014144	-0.102923
C85	C	-0.560574	-0.969193	-0.102915
H86	H	-0.588413	-0.766119	0.178915
H87	H	-0.770902	-0.844345	0.178902
H88	H	-0.819819	-1.001857	-0.000083
H89	H	-0.686244	-1.081148	-0.179062
H90	H	-0.503754	-1.002922	-0.179048
H91	H	-0.497970	-1.095575	0.819635
H92	H	-0.564492	-0.994223	0.706555
H93	H	-0.584274	-0.964035	0.519580
H94	H	-0.553686	-1.010646	0.293396
