data_functionalizedCrystal
_audit_creation_method	'MofGen! by Chris Wilmer'
_symmetry_space_group_name_H-M	'P1'
_symmetry_Int_Tables_number	1
_symmetry_cell_setting	triclinic
loop_
_symmetry_equiv_pos_as_xyz
  x,y,z
_cell_length_a	16.992694
_cell_length_b	15.538191
_cell_length_c	16.053810
_cell_angle_alpha	91.559086
_cell_angle_beta	87.261482
_cell_angle_gamma	68.970158
loop_
_atom_site_label
_atom_site_type_symbol
_atom_site_fract_x
_atom_site_fract_y
_atom_site_fract_z
O1	O	0.989063	0.191905	-0.069317
O2	O	1.489063	0.691905	0.430683
O3	O	0.761390	0.189758	-0.069342
O4	O	1.261390	0.689758	0.430658
O5	O	0.919545	0.057039	-0.069328
O6	O	1.419545	0.557039	0.430672
O7	O	0.830908	0.324625	-0.069330
O8	O	1.330908	0.824625	0.430670
O9	O	0.910867	0.064343	0.069530
O10	O	1.410867	0.564343	0.569530
O11	O	0.752712	0.197063	0.069517
O12	O	1.252712	0.697063	0.569517
O13	O	0.980385	0.199210	0.069541
O14	O	1.480385	0.699210	0.569541
Zn15	Zn	0.865170	0.199296	0.091576
Zn16	Zn	1.365170	0.699296	0.591576
Zn17	Zn	0.876604	0.189672	-0.091376
Zn18	Zn	1.376604	0.689672	0.408624
O19	O	0.822229	0.331929	0.069528
O20	O	1.322229	0.831929	0.569528
C21	C	0.728624	0.190651	0.000084
C22	C	1.228624	0.690651	0.500084
C23	C	0.643924	0.182415	0.000075
C24	C	1.143924	0.682415	0.500075
C25	C	0.571070	0.261869	0.000075
C26	C	1.071070	0.761869	0.500075
C27	C	0.491487	0.254127	0.000086
C28	C	0.991487	0.754127	0.500086
C29	C	0.484759	0.166930	0.000092
C30	C	0.984759	0.666930	0.500092
C31	C	0.557620	0.087471	0.000094
C32	C	1.057620	0.587471	0.500094
C33	C	0.637202	0.095214	0.000089
C34	C	1.137202	0.595214	0.500089
C35	C	0.250294	0.134837	0.000114
C36	C	0.750294	0.634837	0.500114
C37	C	0.170704	0.127099	0.000117
C38	C	0.670704	0.627099	0.500117
C39	C	0.104576	0.293756	0.000111
C40	C	0.604576	0.793756	0.500111
C41	C	0.184163	0.301491	0.000101
C42	C	0.684163	0.801491	0.500101
C43	C	0.257017	0.222032	0.000107
C44	C	0.757017	0.722032	0.500107
N45	N	0.403412	0.159014	0.000101
N46	N	0.903412	0.659014	0.500101
N47	N	0.338361	0.229949	0.000104
N48	N	0.838361	0.729949	0.500104
C49	C	0.924480	0.026294	0.000099
C50	C	1.424480	0.526294	0.500099
C51	C	0.952104	-0.076201	0.000094
C52	C	1.452104	0.423799	0.500094
C53	C	0.677671	-0.384652	0.000082
C54	C	1.177671	0.115348	0.500082
C55	C	0.703646	-0.480962	0.000086
C56	C	1.203646	0.019038	0.500086
C57	C	0.849754	-0.492405	0.000102
C58	C	1.349754	0.007595	0.500102
C59	C	0.823791	-0.396094	0.000093
C60	C	1.323791	0.103906	0.500093
C61	C	0.737748	-0.342225	0.000084
C62	C	1.237748	0.157775	0.500084
C63	C	0.883869	-0.353667	0.000095
C64	C	1.383869	0.146333	0.500095
C65	C	0.857907	-0.257364	0.000091
C66	C	1.357907	0.242636	0.500091
C67	C	0.771868	-0.203488	0.000084
C68	C	1.271868	0.296512	0.500084
C69	C	0.711787	-0.245922	0.000080
C70	C	1.211787	0.254078	0.500080
C71	C	0.969911	-0.407537	0.000110
C72	C	1.469911	0.092463	0.500110
C73	C	1.029988	-0.365110	0.000113
C74	C	1.529988	0.134890	0.500113
C75	C	1.004027	-0.268806	0.000102
C76	C	1.504027	0.231194	0.500102
C77	C	0.917988	-0.214931	0.000096
C78	C	1.417988	0.285069	0.500096
C79	C	1.064108	-0.226373	0.000107
C80	C	1.564108	0.273627	0.500107
C81	C	1.038147	-0.130070	0.000103
C82	C	1.538147	0.369930	0.500103
C83	C	0.892026	-0.118628	0.000091
C84	C	1.392026	0.381372	0.500091
C85	C	1.013151	0.198317	0.000114
C86	C	1.513151	0.698317	0.500114
C87	C	1.097851	0.206552	0.000118
C88	C	1.597851	0.706552	0.500118
C89	C	0.817295	0.362675	0.000099
C90	C	1.317295	0.862675	0.500099
C91	C	0.789671	0.465169	0.000099
C92	C	1.289671	0.965169	0.500099
N93	N	0.857373	0.205864	0.216435
N94	N	1.357373	0.705864	0.716435
N95	N	0.884410	0.183097	-0.216235
N96	N	1.384410	0.683097	0.283765
C97	C	0.817107	0.239554	0.740064
C98	C	1.317107	0.739554	1.240064
C99	C	0.822573	0.234978	0.652658
C100	C	1.322573	0.734978	1.152658
C101	C	0.895345	0.173949	0.608954
C102	C	1.395345	0.673949	1.108954
C103	C	0.962652	0.117486	0.652661
C104	C	1.462652	0.617486	1.152661
C105	C	0.957183	0.122058	0.740065
C106	C	1.457183	0.622058	1.240065
C107	C	0.919211	0.153973	0.347547
C108	C	1.419211	0.653973	0.847547
C109	C	0.924676	0.149408	0.260136
C110	C	1.424676	0.649408	0.760136
C111	C	0.784595	0.266899	0.260139
C112	C	1.284595	0.766899	0.760139
C113	C	0.779134	0.271469	0.347545
C114	C	1.279134	0.771469	0.847545
C115	C	0.846440	0.215002	0.391244
C116	C	1.346440	0.715002	0.891244
N117	N	0.900935	0.169273	0.519611
N118	N	1.400935	0.669273	1.019611
N119	N	0.840846	0.219675	0.480586
N120	N	1.340846	0.719675	0.980586
H121	H	0.165234	0.056089	0.000121
H122	H	0.665234	0.556089	0.500121
Br123	Br	0.193287	0.419833	0.000084
Br124	Br	0.693287	0.919833	0.500084
Br125	Br	0.349157	0.026998	0.000126
Br126	Br	0.849157	0.526998	0.500126
H127	H	1.011988	0.076084	0.775646
H128	H	1.511988	0.576084	1.275646
H129	H	0.654717	-0.515501	0.000097
H130	H	1.154717	-0.015501	0.500097
H131	H	0.696521	0.030514	0.000088
H132	H	1.196521	0.530514	0.500088
H133	H	0.919811	-0.536278	0.000113
H134	H	1.419811	-0.036278	0.500113
Br135	Br	0.560897	-0.311535	0.000057
Br136	Br	1.060897	0.188465	0.500057
H137	H	0.821962	-0.074765	0.000078
H138	H	1.321962	0.425235	0.500078
H139	H	0.767769	0.280949	0.617077
H140	H	1.267769	0.780949	1.117077
Br141	Br	0.595013	-0.172805	0.000055
Br142	Br	1.095013	0.327195	0.500055
Br143	Br	0.736629	-0.072789	0.000090
Br144	Br	1.236629	0.427211	0.500090
Br145	Br	1.146756	-0.438225	0.000135
Br146	Br	1.646756	0.061775	0.500135
Br147	Br	1.005145	-0.538235	0.000126
Br148	Br	1.505145	-0.038235	0.500126
Br149	Br	0.580192	0.380213	0.000059
Br150	Br	1.080192	0.880213	0.500059
H151	H	1.134164	-0.270247	0.000123
H152	H	1.634164	0.229753	0.500123
H153	H	0.719877	0.321163	0.383127
H154	H	1.219877	0.821163	0.883127
Br155	Br	1.119679	-0.072483	0.000126
Br156	Br	1.619679	0.427517	0.500126
H157	H	0.729797	0.312870	0.224551
H158	H	1.229797	0.812870	0.724551
H159	H	1.021904	0.067790	0.617072
H160	H	1.521904	0.567790	1.117072
Br161	Br	0.718342	0.322390	0.799367
Br162	Br	1.218342	0.822390	1.299367
H163	H	0.432170	0.318826	0.000086
H164	H	0.932170	0.818826	0.500086
H165	H	0.983940	0.099708	0.224556
H166	H	1.483940	0.599708	0.724556
H167	H	0.045252	0.358447	0.000107
H168	H	0.545252	0.858447	0.500107
H169	H	0.974015	0.107997	0.383120
H170	H	1.474015	0.607997	0.883120
H171	H	0.552136	0.016474	0.000111
H172	H	1.052136	0.516474	0.500111
