data_functionalizedCrystal
_audit_creation_method	'MofGen! by Chris Wilmer'
_symmetry_space_group_name_H-M	'P1'
_symmetry_Int_Tables_number	1
_symmetry_cell_setting	triclinic
loop_
_symmetry_equiv_pos_as_xyz
  x,y,z
_cell_length_a	16.992694
_cell_length_b	16.053802
_cell_length_c	16.992695
_cell_angle_alpha	87.258926
_cell_angle_beta	90.668223
_cell_angle_gamma	92.750953
loop_
_atom_site_label
_atom_site_type_symbol
_atom_site_fract_x
_atom_site_fract_y
_atom_site_fract_z
O1	O	1.053959	0.069325	0.163815
O2	O	0.825560	0.069350	0.161983
O3	O	0.938844	0.069331	0.048699
O4	O	0.940676	0.069344	0.277099
O5	O	0.932607	-0.069527	0.054907
O6	O	0.819323	-0.069508	0.168191
O7	O	1.047722	-0.069533	0.170023
Zn8	Zn	0.932532	-0.091567	0.170093
Zn9	Zn	0.940750	0.091384	0.161913
O10	O	0.934438	-0.069514	0.283307
C11	C	0.793082	-0.000076	0.162731
C12	C	0.705597	-0.000067	0.155702
N13	N	0.926930	-0.216427	0.175675
C14	C	0.659607	-0.000064	0.223520
C15	C	0.577405	-0.000076	0.216911
C16	C	0.541197	-0.000085	0.142484
C17	C	0.587193	-0.000091	0.074661
C18	C	0.669393	-0.000085	0.081270
C19	C	0.295881	-0.000109	0.115090
C20	C	0.213676	-0.000112	0.108486
C21	C	0.203893	-0.000099	0.250737
C22	C	0.286095	-0.000088	0.257339
C23	C	0.332084	-0.000098	0.189517
N24	N	0.457174	-0.000094	0.135727
N25	N	0.416105	-0.000094	0.196275
C26	C	0.975152	-0.260129	0.127492
C27	C	0.971241	-0.347535	0.131404
C28	C	0.919110	-0.391237	0.183504
C29	C	0.870883	-0.347529	0.231689
C30	C	0.874791	-0.260125	0.227772
C31	C	0.902039	-0.652644	0.200593
C32	C	0.898136	-0.740055	0.204508
C33	C	0.998493	-0.740054	0.104222
C34	C	1.002400	-0.652648	0.100313
C35	C	0.954169	-0.608948	0.148494
N36	N	0.915113	-0.480580	0.187507
N37	N	0.958163	-0.519606	0.144487
C38	C	1.080201	-0.000105	0.169275
C39	C	1.167685	-0.000109	0.176304
C40	C	0.933370	-0.000098	0.022443
C41	C	0.926341	-0.000097	-0.065042
N42	N	0.946358	0.216243	0.156325
C43	C	0.994158	-0.000105	-0.111032
C44	C	0.987550	-0.000096	-0.193233
C45	C	0.913123	-0.000086	-0.229442
C46	C	0.845300	-0.000075	-0.183446
C47	C	0.851910	-0.000078	-0.101246
C48	C	0.885729	-0.000071	-0.474757
C49	C	0.879124	-0.000071	-0.556962
C50	C	1.021375	-0.000091	-0.566745
C51	C	1.027978	-0.000099	-0.484543
C52	C	0.960155	-0.000083	-0.438554
N53	N	0.906366	-0.000079	-0.313465
N54	N	0.966913	-0.000084	-0.354533
C55	C	0.939913	-0.000084	0.309563
C56	C	0.946942	-0.000079	0.397047
H57	H	0.689081	-0.000056	0.284126
H58	H	0.828433	-0.383117	0.274107
Br59	Br	0.836587	-0.593341	0.265982
H60	H	0.706838	-0.000087	0.026046
H61	H	0.784700	-0.000061	-0.212933
Br62	Br	0.164535	-0.000142	0.007472
Br63	Br	0.809338	-0.200815	0.293161
H64	H	1.088584	-0.000108	-0.455068
H65	H	1.054765	-0.000119	-0.081557
Br66	Br	1.079593	-0.000107	-0.255647
Br67	Br	1.113414	-0.000111	-0.629162
H68	H	1.044848	-0.617067	0.057889
H69	H	0.539963	-0.000072	0.272136
Br70	Br	1.045910	-0.200827	0.056787
Br71	Br	0.778109	-0.000065	-0.606102
H72	H	0.830503	-0.000059	-0.437322
H73	H	0.315571	-0.000071	0.317945
Br74	Br	0.759868	-0.000060	-0.038829
Br75	Br	0.358285	-0.000125	0.023045
H76	H	0.855683	-0.775633	0.246937
Br77	Br	0.538054	-0.000111	-0.026348
H78	H	1.010506	-0.383116	0.092170
Br79	Br	1.063944	-0.799365	0.038834
H80	H	0.166440	-0.000092	0.305954
