data_functionalizedCrystal
_audit_creation_method	'MofGen! by Chris Wilmer'
_symmetry_space_group_name_H-M	'P1'
_symmetry_Int_Tables_number	1
_symmetry_cell_setting	triclinic
loop_
_symmetry_equiv_pos_as_xyz
  x,y,z
_cell_length_a	12.759395
_cell_length_b	12.594516
_cell_length_c	12.759387
_cell_angle_alpha	89.969834
_cell_angle_beta	89.978972
_cell_angle_gamma	90.012577
loop_
_atom_site_label
_atom_site_type_symbol
_atom_site_fract_x
_atom_site_fract_y
_atom_site_fract_z
Zn1	Zn	1.606290	-0.423664	-0.594024
Zn2	Zn	1.606189	-0.601682	-0.418347
Zn3	Zn	1.430588	-0.423720	-0.418360
Zn4	Zn	1.430589	-0.601604	-0.593984
O5	O	1.518414	-0.512667	-0.506179
O6	O	1.753297	-0.447288	-0.570732
O7	O	1.582853	-0.578131	-0.271327
O8	O	1.453937	-0.274767	-0.441684
O9	O	1.753224	-0.578077	-0.441662
O10	O	1.583024	-0.274726	-0.570744
O11	O	1.453839	-0.447383	-0.271337
O12	O	1.283567	-0.447307	-0.441645
O13	O	1.453939	-0.577944	-0.741011
O14	O	1.283568	-0.577998	-0.570676
O15	O	1.583025	-0.447212	-0.741040
O16	O	1.582854	-0.750617	-0.441623
O17	O	1.453841	-0.750560	-0.570663
C18	C	1.245447	-0.512651	-0.506158
C19	C	1.128670	-0.512669	-0.506174
C20	C	0.909312	-0.376722	-0.640826
C21	C	0.964217	-0.308726	-0.708123
C22	C	1.073938	-0.308708	-0.708104
C23	C	1.128758	-0.376695	-0.640785
C24	C	1.073853	-0.444691	-0.573489
C25	C	0.964129	-0.444700	-0.573512
C26	C	1.073765	-0.580665	-0.438878
C27	C	0.964043	-0.580680	-0.438889
C28	C	1.128585	-0.648653	-0.371559
C29	C	1.073680	-0.716645	-0.304256
C30	C	0.963952	-0.716659	-0.304276
C31	C	0.909139	-0.648676	-0.371593
C32	C	1.518365	-0.789208	-0.506160
C33	C	1.518441	-0.907514	-0.506188
C34	C	1.588692	-0.976759	-0.436078
C35	C	1.614370	-1.047452	-0.531971
C36	C	1.492894	-1.047620	-0.410356
C37	C	1.544167	-0.976648	-0.602131
C38	C	1.422647	-0.976810	-0.480451
C39	C	1.448289	-1.047471	-0.576411
C40	C	1.792447	-0.512685	-0.506200
C41	C	1.909224	-0.512692	-0.506209
C42	C	1.518493	-0.512563	-0.780212
C43	C	1.518527	-0.512519	-0.896989
C44	C	1.518491	-0.235047	-0.506220
C45	C	1.518525	-0.116741	-0.506238
C46	C	1.652954	-0.376397	-0.897040
C47	C	1.720182	-0.308321	-0.951926
C48	C	1.720208	-0.308282	-1.061647
C49	C	1.652996	-0.376325	-1.116485
C50	C	1.585768	-0.444401	-1.061599
C51	C	1.585752	-0.444435	-0.951875
C52	C	1.451337	-0.580516	-1.061549
C53	C	1.451315	-0.580562	-0.951827
C54	C	1.384125	-0.648559	-1.116387
C55	C	1.316901	-0.716642	-1.061501
C56	C	1.316879	-0.716679	-0.951773
C57	C	1.384087	-0.648638	-0.896941
C58	C	1.518395	-0.512695	-0.233211
C59	C	1.518565	-0.512439	-0.116435
H60	H	0.819971	-0.376707	-0.640825
H61	H	1.695416	-1.078484	-0.553767
O62	O	1.251460	-0.782662	-0.898417
C63	C	1.183626	-0.722085	-0.834925
H64	H	1.177176	-0.638238	-0.867994
H65	H	1.102758	-0.760569	-0.833669
H66	H	1.216091	-0.718464	-0.751773
O67	O	1.570252	-0.939752	-0.698877
C68	C	1.671001	-0.976598	-0.726022
H69	H	1.689600	-1.051366	-0.679199
H70	H	1.673395	-0.995555	-0.813345
H71	H	1.731475	-0.912671	-0.707474
O72	O	1.659427	-0.939660	-0.365288
C73	C	1.607250	-0.878158	-0.289134
H74	H	1.521208	-0.902332	-0.285823
H75	H	1.644963	-0.891886	-0.209286
H76	H	1.613390	-0.790525	-0.310710
H77	H	1.774903	-0.252920	-0.907264
O78	O	1.384267	-0.648675	-0.790358
C79	C	1.484938	-0.676064	-0.753722
H80	H	1.545467	-0.657877	-0.816975
H81	H	1.503627	-0.628076	-0.680336
H82	H	1.487127	-0.764385	-0.734229
H83	H	1.341624	-0.945755	-0.458627
O84	O	0.911127	-0.242653	-0.773613
C85	C	0.983117	-0.182618	-0.832987
H86	H	1.061329	-0.226209	-0.836534
H87	H	0.951463	-0.171371	-0.915791
H88	H	0.994771	-0.101732	-0.794651
H89	H	1.774944	-0.252841	-1.106335
O90	O	1.377574	-1.084236	-0.647387
C91	C	1.404927	-1.047851	-0.748277
H92	H	1.492085	-1.028033	-0.750348
H93	H	1.387287	-1.112404	-0.808337
H94	H	1.357530	-0.973697	-0.767729
O95	O	1.467190	-1.084683	-0.313569
C96	C	1.541439	-1.048676	-0.239888
H97	H	1.581412	-0.974097	-0.271035
H98	H	1.500282	-1.029687	-0.162829
H99	H	1.602660	-1.113125	-0.226219
H100	H	1.652950	-0.376432	-0.807698
O101	O	1.127326	-0.242812	-0.773586
C102	C	1.190849	-0.303489	-0.841303
H103	H	1.157775	-0.387329	-0.847658
H104	H	1.192152	-0.265093	-0.922223
H105	H	1.273983	-0.307109	-0.808789
H106	H	1.218099	-0.376684	-0.640786
O107	O	1.235167	-0.648641	-0.371735
C108	C	1.271880	-0.676115	-0.472367
H109	H	1.208684	-0.658012	-0.532926
H110	H	1.345298	-0.628116	-0.491108
H111	H	1.291343	-0.764430	-0.474442
H112	H	1.118322	-0.772000	-0.249455
H113	H	1.653014	-0.376278	-1.205827
H114	H	0.919255	-0.772035	-0.249479
H115	H	1.262177	-0.772032	-1.106159
O116	O	0.802556	-0.648786	-0.371784
C117	C	0.765960	-0.676218	-0.472448
H118	H	0.829215	-0.722662	-0.515787
H119	H	0.692547	-0.727257	-0.464860
H120	H	0.746526	-0.600919	-0.518094
O121	O	1.384153	-0.648719	-1.222970
C122	C	1.411126	-0.750717	-1.259607
H123	H	1.393136	-0.812040	-1.196359
H124	H	1.363747	-0.769605	-1.333002
H125	H	1.498304	-0.752984	-1.279086
