data_functionalizedCrystal
_audit_creation_method	'MofGen! by Chris Wilmer'
_symmetry_space_group_name_H-M	'P1'
_symmetry_Int_Tables_number	1
_symmetry_cell_setting	triclinic
loop_
_symmetry_equiv_pos_as_xyz
  x,y,z
_cell_length_a	6.817900
_cell_length_b	12.840933
_cell_length_c	17.110477
_cell_angle_alpha	81.312650
_cell_angle_beta	99.060298
_cell_angle_gamma	88.345099
loop_
_atom_site_label
_atom_site_type_symbol
_atom_site_fract_x
_atom_site_fract_y
_atom_site_fract_z
V1	V	-3.875983	0.325077	-0.111346
O2	O	-3.888992	0.319027	0.003432
O3	O	-3.806772	0.322721	-0.218935
O4	O	-3.771751	0.466915	-0.110475
O5	O	-3.924255	0.173835	-0.105779
V6	V	-4.369543	0.307003	-0.097518
O7	O	-4.115226	0.364723	-0.141679
O8	O	-4.580497	0.267357	-0.067184
O9	O	-4.215548	0.309360	0.010072
O10	O	-4.473931	0.313053	-0.212296
O11	O	-4.438668	0.458246	-0.103085
O12	O	-4.250569	0.165165	-0.098389
C13	C	-3.648516	0.317558	-0.245137
C14	C	-3.672842	0.316577	-0.333098
C15	C	-3.603856	0.501491	-0.106781
C16	C	-3.599703	0.619623	-0.106780
C17	C	-4.081806	0.130584	-0.102081
C18	C	-4.064810	0.012452	-0.102080
C19	C	-3.863508	0.321314	-0.378483
C20	C	-3.886353	0.320398	-0.461132
C21	C	-3.718529	0.314738	-0.498395
C22	C	-3.527848	0.310004	-0.453005
C23	C	-3.505005	0.310927	-0.370358
C24	C	-3.778532	0.311697	-0.747733
C25	C	-3.801389	0.310771	-0.830386
C26	C	-4.159893	0.321167	-0.838508
C27	C	-4.137034	0.322083	-0.755858
C28	C	-3.946356	0.317355	-0.710476
C29	C	-3.741876	0.313798	-0.582875
C30	C	-3.923012	0.318302	-0.625998
V31	V	-3.858931	0.811241	-0.111351
O32	O	-3.896584	0.962454	-0.105783
O33	O	-3.764845	0.664059	-0.110481
O34	O	-3.788180	0.852513	-0.218939
O35	O	-3.873087	0.772695	0.003426
V36	V	-4.350543	0.848703	-0.097528
O37	O	-4.100111	0.795677	-0.141687
O38	O	-4.558765	0.886953	-0.067196
O39	O	-4.221816	0.984638	-0.098396
O40	O	-4.430079	0.703406	-0.103097
O41	O	-4.453576	0.893165	-0.212306
O42	O	-4.198481	0.796184	0.010063
C43	C	-4.037146	0.314519	0.036269
C44	C	-3.992055	0.315507	0.124230
C45	C	-3.629477	0.860015	-0.245135
C46	C	-3.652468	0.896899	-0.333095
C47	C	-4.021120	0.771713	0.036266
C48	C	-3.977406	0.733793	0.124227
C49	C	-3.842514	0.919669	-0.378467
C50	C	-3.864144	0.954340	-0.461113
C51	C	-3.695724	0.966234	-0.498387
C52	C	-3.505662	0.943465	-0.453009
C53	C	-3.484035	0.908801	-0.370363
C54	C	-3.782006	0.703557	0.161485
C55	C	-3.740900	0.667939	0.244135
C56	C	-3.895198	0.662550	0.289526
C57	C	-4.090613	0.692793	0.252263
C58	C	-4.131714	0.728417	0.169615
H59	H	-4.000173	0.325913	-0.348149
H60	H	-4.216230	0.688401	0.289233
C61	C	-3.525934	0.634664	0.285106
N62	N	-3.364023	0.609600	0.315963
H63	H	-4.041610	0.324257	-0.498081
H64	H	-4.315137	0.325016	-0.875467
C65	C	-4.107611	0.324526	-0.585006
N66	N	-4.246648	0.329208	-0.554123
H67	H	-3.664717	0.306186	-0.860725
H68	H	-3.979673	0.909986	-0.348131
C69	C	-3.612240	0.709483	0.111571
N70	N	-3.484358	0.713950	0.073982
C71	C	-4.321657	0.328387	-0.714886
N72	N	-4.460718	0.333160	-0.684028
H73	H	-3.623273	0.307840	-0.710792
H74	H	-3.391205	0.305402	-0.483351
H75	H	-4.290832	0.753029	0.139286
C76	C	-3.274960	0.883741	-0.320465
N77	N	-3.117476	0.864865	-0.282885
C78	C	-3.295259	0.305713	-0.320434
N79	N	-3.137272	0.301788	-0.282833
H80	H	-3.605238	0.309187	-0.613223
H81	H	-4.018916	0.972873	-0.498050
H82	H	-3.713363	0.994460	-0.565683
H83	H	-3.861704	0.633539	0.356822
H84	H	-3.368544	0.953154	-0.483370
