data_functionalizedCrystal
_audit_creation_method	'MofGen! by Chris Wilmer'
_symmetry_space_group_name_H-M	'P1'
_symmetry_Int_Tables_number	1
_symmetry_cell_setting	triclinic
loop_
_symmetry_equiv_pos_as_xyz
  x,y,z
_cell_length_a	15.297475
_cell_length_b	16.120444
_cell_length_c	15.296720
_cell_angle_alpha	78.012939
_cell_angle_beta	88.382886
_cell_angle_gamma	83.688625
loop_
_atom_site_label
_atom_site_type_symbol
_atom_site_fract_x
_atom_site_fract_y
_atom_site_fract_z
Zn1	Zn	1.212923	-0.646918	0.755060
Zn2	Zn	1.230696	-0.766608	0.613842
Zn3	Zn	1.094722	-0.600222	0.581247
Zn4	Zn	1.059433	-0.758438	0.734611
O5	O	1.149444	-0.693046	0.671190
O6	O	1.336421	-0.685757	0.758527
O7	O	1.234865	-0.728414	0.486234
O8	O	1.117732	-0.490111	0.599220
O9	O	1.349480	-0.773693	0.654774
O10	O	1.204573	-0.524418	0.726921
O11	O	1.134966	-0.606170	0.462287
O12	O	0.968900	-0.598247	0.579391
O13	O	1.057587	-0.759767	0.860608
O14	O	0.942973	-0.714488	0.692068
O15	O	1.170355	-0.677834	0.875632
O16	O	1.200647	-0.881830	0.634945
O17	O	1.074822	-0.875827	0.723674
C18	C	0.924526	-0.650415	0.629974
C19	C	0.828300	-0.632199	0.612363
C20	C	0.503200	-0.823240	0.797059
C21	C	0.593609	-0.840360	0.813602
C22	C	0.652286	-0.788321	0.763294
C23	C	0.620546	-0.719160	0.696439
C24	C	0.530128	-0.702042	0.679889
C25	C	0.679214	-0.667123	0.646125
C26	C	0.647474	-0.597962	0.579269
C27	C	0.557065	-0.580847	0.562723
C28	C	0.498388	-0.632885	0.613031
C29	C	0.769632	-0.684241	0.662675
C30	C	0.796560	-0.563043	0.545505
C31	C	0.706151	-0.545923	0.528961
C32	C	1.135854	-0.908992	0.680651
C33	C	1.130114	-1.001393	0.684743
C34	C	1.179397	-1.214703	0.650194
C35	C	1.119649	-1.170570	0.692225
C36	C	1.125474	-1.076431	0.688060
C37	C	1.173574	-1.308851	0.654357
C38	C	1.375239	-0.735845	0.712568
C39	C	1.471460	-0.754084	0.730200
C40	C	1.108052	-0.723098	0.900980
C41	C	1.090414	-0.735905	0.998902
C42	C	1.163106	-0.476265	0.661716
C43	C	1.168929	-0.383886	0.657678
C44	C	1.190727	-0.663061	0.442301
C45	C	1.208548	-0.650052	0.344399
C46	C	1.275550	-0.601378	1.306221
C47	C	1.292127	-0.589348	1.214218
C48	C	1.241700	-0.625986	1.160385
C49	C	1.174693	-0.674656	1.198562
C50	C	1.158118	-0.686693	1.290575
C51	C	1.124269	-0.711301	1.144739
C52	C	1.057262	-0.759971	1.182917
C53	C	1.040690	-0.772005	1.274920
C54	C	1.091117	-0.735367	1.328753
C55	C	1.140844	-0.699264	1.052727
C56	C	1.023412	-0.784579	1.037081
C57	C	1.006835	-0.796608	1.129083
H58	H	0.795465	-0.740553	0.717110
F59	F	1.251968	-1.171681	0.599074
H60	H	1.195401	-0.659636	1.021652
F61	F	0.672359	-0.472317	0.457811
H62	H	0.986135	-0.811643	1.306002
F63	F	0.969744	-0.823579	0.979793
H64	H	0.952277	-0.836236	1.160180
F65	F	1.047070	-1.213592	0.743344
F66	F	0.859004	-0.507658	0.491956
H67	H	0.424768	-0.618949	0.599566
H68	H	0.725901	-0.802265	0.776769
F69	F	1.259344	-0.613180	1.062468
F70	F	1.363439	-0.537553	1.173594
H71	H	1.316605	-0.571559	1.350061
F72	F	1.073480	-0.748171	1.426675
H73	H	0.619446	-0.896673	0.868034
H74	H	0.531227	-0.524538	0.508276
F75	F	0.440751	-0.878628	0.850577
