data_functionalizedCrystal
_audit_creation_method	'MofGen! by Chris Wilmer'
_symmetry_space_group_name_H-M	'P1'
_symmetry_Int_Tables_number	1
_symmetry_cell_setting	triclinic
loop_
_symmetry_equiv_pos_as_xyz
  x,y,z
_cell_length_a	19.077142
_cell_length_b	19.805406
_cell_length_c	19.805399
_cell_angle_alpha	89.985648
_cell_angle_beta	92.317588
_cell_angle_gamma	92.304021
loop_
_atom_site_label
_atom_site_type_symbol
_atom_site_fract_x
_atom_site_fract_y
_atom_site_fract_z
Zn1	Zn	-1.076116	-0.311139	-0.424334
Zn2	Zn	-1.076082	-0.424326	-0.311171
Zn3	Zn	-0.958418	-0.306601	-0.306614
Zn4	Zn	-0.958435	-0.419735	-0.419775
O5	O	-1.017263	-0.365450	-0.365474
O6	O	-1.174604	-0.329974	-0.413138
O7	O	-1.060452	-0.408732	-0.215849
O8	O	-0.974039	-0.212487	-0.322231
O9	O	-1.174579	-0.413132	-0.329997
O10	O	-1.060511	-0.215821	-0.408720
O11	O	-0.974005	-0.322240	-0.212501
O12	O	-0.859928	-0.317788	-0.317810
O13	O	-0.974067	-0.405308	-0.515097
O14	O	-0.859940	-0.400908	-0.400949
O15	O	-1.060526	-0.325522	-0.518447
O16	O	-1.060468	-0.518433	-0.325576
O17	O	-0.974033	-0.515061	-0.405367
C18	C	-0.834396	-0.358358	-0.358391
C19	C	-0.756165	-0.355340	-0.355377
C20	C	-1.017268	-0.541307	-0.365487
C21	C	-1.017335	-0.616541	-0.365518
C22	C	-1.017302	-0.365409	-0.542018
C23	C	-1.017319	-0.365392	-0.617251
C24	C	-0.719436	-0.397263	-0.397178
C25	C	-0.645930	-0.394419	-0.394350
C26	C	-0.609153	-0.349654	-0.349715
C27	C	-0.645887	-0.307726	-0.307912
C28	C	-0.719392	-0.310568	-0.310744
C29	C	-0.389313	-0.336505	-0.336612
C30	C	-0.315803	-0.333668	-0.333781
C31	C	-0.315851	-0.420360	-0.420220
C32	C	-0.389358	-0.423200	-0.423046
C33	C	-0.426085	-0.381270	-0.381245
N34	N	-0.534018	-0.346747	-0.346821
N35	N	-0.501219	-0.384174	-0.384143
C36	C	-0.200843	-0.372567	-0.372577
C37	C	-0.279075	-0.375591	-0.375583
C38	C	-1.017277	-0.188908	-0.365476
C39	C	-1.017283	-0.113676	-0.365477
C40	C	-0.972267	-0.076596	-0.320449
C41	C	-0.972271	-0.005907	-0.320456
C42	C	-1.017296	0.027699	-0.365489
C43	C	-1.062313	-0.009387	-0.410522
C44	C	-1.062305	-0.080074	-0.410517
C45	C	-1.062348	0.275685	-0.410543
C46	C	-1.062354	0.346377	-0.410543
C47	C	-0.972314	0.349851	-0.320482
C48	C	-0.972306	0.279165	-0.320477
C49	C	-1.017321	0.242085	-0.365512
C50	C	-1.017314	0.165437	-0.365504
C51	C	-1.017306	0.104345	-0.365494
C52	C	-1.062340	-0.323845	-0.654340
C53	C	-1.062347	-0.323826	-0.725029
C54	C	-1.017336	-0.365357	-0.758627
C55	C	-0.972311	-0.406905	-0.721532
C56	C	-0.972301	-0.406920	-0.650845
C57	C	-0.972350	-0.406844	-1.006607
C58	C	-0.972366	-0.406827	-1.077300
C59	C	-1.062397	-0.323749	-1.080791
C60	C	-1.062387	-0.323764	-1.010104
C61	C	-1.017359	-0.365310	-0.973015
C62	C	-1.017350	-0.365329	-0.896366
C63	C	-1.017348	-0.365342	-0.835275
C64	C	-1.017264	-0.365444	-0.189618
C65	C	-1.017383	-0.365276	-0.114391
H66	H	-0.749375	-0.433718	-0.433522
Br67	Br	-0.769239	-0.253666	-0.254015
Br68	Br	-0.595976	-0.246967	-0.247342
H69	H	-1.098956	-0.110264	-0.447188
Br70	Br	-0.911165	-0.122197	-0.259324
Br71	Br	-1.123482	-0.267472	-0.775364
H72	H	-0.935616	0.024284	-0.283792
H73	H	-1.099020	0.373737	-0.447217
H74	H	-0.935645	0.251806	-0.283805
H75	H	-0.419296	-0.459654	-0.459391
Br76	Br	-0.266004	-0.477265	-0.476944
H77	H	-1.098970	0.017979	-0.447192
H78	H	-0.419208	-0.302367	-0.302570
H79	H	-0.935658	0.380049	-0.283814
Br80	Br	-1.123434	-0.267484	-0.608750
Br81	Br	-1.123431	0.225372	-0.471670
Br82	Br	-1.123478	-0.267403	-0.964510
Br83	Br	-0.911240	-0.463225	-0.956281
H84	H	-1.099058	-0.289919	-1.110997
Br85	Br	-0.911277	-0.463195	-1.122897
H86	H	-0.935633	-0.440745	-0.620647
Br87	Br	-0.596086	-0.451316	-0.451085
Br88	Br	-0.265892	-0.272919	-0.273194
Br89	Br	-0.911220	-0.463265	-0.767129
