data_functionalizedCrystal
_audit_creation_method	'MofGen! by Chris Wilmer'
_symmetry_space_group_name_H-M	'P1'
_symmetry_Int_Tables_number	1
_symmetry_cell_setting	triclinic
loop_
_symmetry_equiv_pos_as_xyz
  x,y,z
_cell_length_a	34.408637
_cell_length_b	34.407814
_cell_length_c	34.404193
_cell_angle_alpha	60.004510
_cell_angle_beta	60.009006
_cell_angle_gamma	59.994604
loop_
_atom_site_label
_atom_site_type_symbol
_atom_site_fract_x
_atom_site_fract_y
_atom_site_fract_z
O1	O	0.053973	-0.567860	0.474801
O2	O	0.020377	-0.442124	0.382567
O3	O	0.100004	-0.521670	0.382483
O4	O	-0.025653	-0.488314	0.474886
O5	O	0.126426	-0.495253	0.408816
O6	O	0.046800	-0.415707	0.408900
O7	O	0.080396	-0.541443	0.501134
Zn8	Zn	0.067793	-0.474381	0.459198
Zn9	Zn	0.032980	-0.509186	0.424503
O10	O	0.000769	-0.461897	0.501219
N11	N	0.091552	-0.450631	0.482879
N12	N	0.009225	-0.532940	0.400823
C13	C	0.142848	-0.268847	0.534081
C14	C	0.142979	-0.399386	0.664559
C15	C	0.142862	-0.399365	0.534081
C16	C	0.273409	-0.399338	0.533986
C17	C	0.157225	-0.311914	0.548422
C18	C	0.157300	-0.385019	0.621491
C19	C	0.230339	-0.384991	0.548370
C20	C	0.157235	-0.385007	0.548422
C21	C	0.124548	-0.214028	0.515827
C22	C	0.124571	-0.417639	0.515827
C23	C	0.175526	-0.366733	0.566676
C24	C	0.353121	-0.385580	0.491988
C25	C	0.402952	-0.402180	0.475348
C26	C	0.402981	-0.482812	0.506096
C27	C	0.353151	-0.466211	0.522737
C28	C	0.136544	-0.189099	0.466839
C29	C	0.119905	-0.139265	0.450247
C30	C	0.079280	-0.139291	0.531632
C31	C	0.095918	-0.189125	0.548224
C32	C	0.075577	-0.405615	0.527900
C33	C	0.058953	-0.422228	0.511301
C34	C	0.140315	-0.462889	0.470566
C35	C	0.156941	-0.446276	0.487159
C36	C	0.075772	-0.405653	0.744326
C37	C	0.059206	-0.422280	0.794159
C38	C	0.140607	-0.462951	0.794094
C39	C	0.157172	-0.446325	0.744260
C40	C	0.124753	-0.417674	0.719377
C41	C	0.328223	-0.417595	0.515681
C42	C	-0.172390	-0.583988	0.349141
C43	C	-0.041751	-0.584138	0.218783
C44	C	-0.041941	-0.584130	0.349402
C45	C	-0.041957	-0.714607	0.349338
C46	C	-0.129326	-0.598388	0.334853
C47	C	-0.056165	-0.598473	0.261852
C48	C	-0.056282	-0.671535	0.334962
C49	C	-0.056272	-0.598469	0.334999
C50	C	-0.227205	-0.565659	0.367327
C51	C	-0.023703	-0.565882	0.367734
C52	C	-0.074511	-0.616717	0.316667
C53	C	-0.055754	-0.794298	0.391257
C54	C	-0.039181	-0.844132	0.407888
C55	C	0.041447	-0.844215	0.377269
C56	C	0.024873	-0.794381	0.360637
C57	C	-0.252183	-0.577666	0.416302
C58	C	-0.302014	-0.561001	0.432833
C59	C	-0.301886	-0.520329	0.351410
C60	C	-0.252055	-0.536994	0.334880
C61	C	-0.035709	-0.516892	0.355682
C62	C	-0.019129	-0.500308	0.372353
C63	C	0.021465	-0.581700	0.413115
C64	C	0.004884	-0.598286	0.396450
C65	C	-0.035389	-0.516907	0.139026
C66	C	-0.018707	-0.500324	0.089193
C67	C	0.021949	-0.581721	0.089240
C68	C	0.005268	-0.598303	0.139074
C69	C	-0.023402	-0.565894	0.163965
C70	C	-0.023728	-0.769425	0.367633
N71	N	0.427173	-0.450553	0.482630
O72	O	0.589997	-0.458460	0.365361
O73	O	0.590185	-0.550997	0.490963
O74	O	0.590104	-0.550786	0.411309
O75	O	0.590077	-0.458671	0.445016
O76	O	0.510940	-0.524462	0.437777
O77	O	0.511020	-0.524674	0.517432
O78	O	0.510832	-0.432136	0.391830
Zn79	Zn	0.498357	-0.474225	0.458833
Zn80	Zn	0.602660	-0.508908	0.423960
O81	O	0.510913	-0.432348	0.471484
N82	N	0.673844	-0.532580	0.400158
N83	N	0.091520	-0.115070	0.482873
O84	O	-0.025663	0.047841	0.474857
O85	O	0.099940	0.047877	0.382299
O86	O	0.020247	0.047844	0.382560
O87	O	0.054030	0.047874	0.474596
O88	O	0.046674	-0.031326	0.408942
O89	O	0.126367	-0.031293	0.408680
O90	O	0.000764	-0.031329	0.501238
Zn91	Zn	0.067761	-0.043881	0.459148
Zn92	Zn	0.032943	0.060429	0.424389
O93	O	0.080457	-0.031296	0.500977
N94	N	0.009178	0.131618	0.400665
N95	N	0.091852	-0.450680	0.818332
O96	O	0.083862	-0.567845	0.981235
O97	O	-0.008657	-0.442198	0.981276
O98	O	-0.008441	-0.521875	0.981252
O99	O	0.083646	-0.488168	0.981258
O100	O	0.017919	-0.495468	0.902085
O101	O	0.017703	-0.415791	0.902109
O102	O	0.110222	-0.541438	0.902067
Zn103	Zn	0.068148	-0.474422	0.889518
Zn104	Zn	0.033417	-0.509214	0.993825
O105	O	0.110006	-0.461761	0.902091
N106	N	0.009712	-0.532961	1.065011
C107	C	0.030439	-0.413071	0.383027
C108	C	0.129046	-0.511580	0.382922
C109	C	0.070334	-0.570496	0.500675
C110	C	-0.028274	-0.471987	0.500780
C111	C	0.550625	-0.550579	0.520021
C112	C	0.550527	-0.550317	0.421379
C113	C	0.550389	-0.432554	0.362773
C114	C	0.550491	-0.432816	0.461414
C115	C	0.128944	0.008394	0.382712
C116	C	0.030287	0.008256	0.383068
C117	C	-0.028273	0.008252	0.500793
C118	C	0.070417	0.008292	0.500470
C119	C	-0.008218	-0.413165	0.941698
C120	C	-0.007945	-0.511830	0.941653
C121	C	0.109783	-0.570471	0.941646
C122	C	0.109516	-0.471800	0.941673
H123	H	0.049370	-0.382321	0.724071
H124	H	0.023050	0.008252	0.354152
C125	C	0.020930	-0.364889	0.344411
C126	C	0.053372	-0.343917	0.331706
C127	C	0.044623	-0.299529	0.296139
H128	H	0.024489	-0.368955	0.317322
H129	H	-0.010573	-0.344933	0.355997
H130	H	0.084867	-0.363868	0.320119
H131	H	0.049819	-0.339839	0.358784
H132	H	0.013120	-0.279573	0.307725
H133	H	0.048181	-0.303600	0.269053
H134	H	0.066630	-0.285292	0.287518
H135	H	0.550485	-0.403881	0.468626
C136	C	-0.076370	-0.462456	0.539488
C137	C	-0.084775	-0.424204	0.550377
C138	C	-0.129073	-0.415414	0.586038
H139	H	-0.100634	-0.454899	0.528618
H140	H	-0.076451	-0.489999	0.567167
H141	H	-0.084699	-0.396666	0.522704
H142	H	-0.060523	-0.431750	0.561255
H143	H	-0.129154	-0.442957	0.613717
H144	H	-0.153333	-0.407859	0.575164
H145	H	-0.134780	-0.389462	0.593434
H146	H	0.550674	-0.579628	0.556096
C147	C	-0.076371	0.008317	0.539559
C148	C	-0.097241	0.049046	0.552219
C149	C	-0.141546	0.049119	0.587934
H150	H	-0.096443	0.008332	0.528135
H151	H	-0.072193	-0.019275	0.566629
H152	H	-0.101421	0.076630	0.525155
H153	H	-0.077183	0.049039	0.563652
H154	H	-0.137368	0.021527	0.615004
H155	H	-0.161613	0.049133	0.576506
H156	H	-0.155710	0.076750	0.596531
C157	C	0.550517	-0.588835	0.411682
C158	C	0.550446	-0.571567	0.365227
C159	C	0.550430	-0.607033	0.356280
H160	H	0.578139	-0.615912	0.415163
H161	H	0.522923	-0.597525	0.433641
H162	H	0.578037	-0.562883	0.343274
H163	H	0.522825	-0.544494	0.361735
H164	H	0.522836	-0.615723	0.378239
H165	H	0.578053	-0.634108	0.359764
H166	H	0.550377	-0.595320	0.324762
H167	H	0.550329	-0.403500	0.326702
C168	C	0.177128	-0.520970	0.344160
C169	C	0.177106	-0.480295	0.303452
C170	C	0.221388	-0.488929	0.267733
H171	H	0.201386	-0.528480	0.355012
H172	H	0.182918	-0.546905	0.336685
H173	H	0.171321	-0.454367	0.310926
H174	H	0.152857	-0.472778	0.292585
H175	H	0.227178	-0.514865	0.260258
H176	H	0.245643	-0.496440	0.278590
H177	H	0.221378	-0.461335	0.240107
C178	C	0.176894	0.008769	0.343799
C179	C	0.170359	0.049579	0.304119
C180	C	0.214519	0.049933	0.268262
H181	H	0.196930	0.008863	0.355186
H182	H	0.191244	-0.018767	0.334998
H183	H	0.156016	0.077107	0.312920
H184	H	0.150331	0.049494	0.292718
H185	H	0.228869	0.022398	0.259461
H186	H	0.234552	0.050026	0.279654
H187	H	0.210091	0.077620	0.241333
C188	C	0.080164	0.008267	0.538978
C189	C	0.126639	0.008268	0.521700
C190	C	0.135638	0.008235	0.557163
H191	H	0.058250	0.035863	0.547683
H192	H	0.076663	-0.019358	0.566048
H193	H	0.130135	0.035890	0.494639
H194	H	0.148563	-0.019326	0.512999
H195	H	0.132137	-0.019390	0.584233
H196	H	0.113721	0.035831	0.565866
H197	H	0.167173	0.008231	0.545447
H198	H	-0.037264	-0.377079	0.941710
C199	C	-0.046437	-0.521510	0.941581
C200	C	-0.029167	-0.567976	0.941541
C201	C	-0.064609	-0.576908	0.941469
H202	H	-0.073535	-0.518003	0.969175
H203	H	-0.055091	-0.499560	0.913957
H204	H	-0.020519	-0.589920	0.969162
H205	H	-0.002073	-0.571494	0.913949
H206	H	-0.073263	-0.554957	0.913845
H207	H	-0.091705	-0.573398	0.969064
H208	H	-0.052895	-0.608433	0.941438
C209	C	0.148448	-0.618624	0.941651
C210	C	0.131388	-0.648009	0.941653
C211	C	0.166991	-0.692372	0.941663
H212	H	0.175511	-0.614515	0.914048
H213	H	0.157103	-0.632897	0.969266
H214	H	0.122740	-0.633738	0.914040
H215	H	0.104331	-0.652131	0.969253
H216	H	0.175646	-0.706645	0.969278
H217	H	0.194052	-0.688259	0.914060
H218	H	0.155420	-0.712317	0.941668
H219	H	0.138447	-0.464586	0.941669
H220	H	0.019320	-0.412483	0.814467
H221	H	0.159856	-0.209371	0.440456
C222	C	0.175880	-0.494069	0.821024
C223	C	0.222322	-0.501048	0.788510
C224	C	0.254827	-0.529722	0.813300
H225	H	0.171172	-0.478900	0.840468
H226	H	0.171138	-0.523960	0.840448
H227	H	0.227062	-0.471162	0.769094
H228	H	0.227045	-0.516221	0.769065
H229	H	0.250085	-0.559613	0.832724
H230	H	0.250114	-0.514551	0.832743
H231	H	0.286341	-0.534464	0.791243
H232	H	0.049217	-0.382297	0.551240
C233	C	0.210337	-0.459345	0.717088
C234	C	0.217909	-0.438665	0.668121
C235	C	0.266877	-0.450655	0.643077
H236	H	0.224395	-0.447886	0.725184
H237	H	0.224360	-0.492969	0.725215
H238	H	0.203892	-0.405048	0.659998
H239	H	0.203862	-0.450122	0.660011
H240	H	0.280900	-0.484279	0.651204
H241	H	0.280930	-0.439194	0.651177
H242	H	0.272021	-0.436629	0.609851
C243	C	0.005740	-0.409148	0.524482
C244	C	-0.019051	-0.380530	0.553156
C245	C	-0.068070	-0.368479	0.565315
H246	H	-0.002528	-0.392210	0.496359
H247	H	-0.002428	-0.437328	0.541412
H248	H	-0.010886	-0.352354	0.536227
H249	H	-0.010797	-0.397459	0.581286
H250	H	-0.076238	-0.396658	0.582245
H251	H	-0.076333	-0.351542	0.537190
H252	H	-0.084897	-0.349064	0.584775
H253	H	0.166679	-0.486211	0.447227
H254	H	0.077514	-0.606615	0.529644
H255	H	0.332881	-0.492283	0.542031
C256	C	0.210154	-0.459393	0.474013
C257	C	0.234943	-0.488034	0.445361
C258	C	0.283963	-0.500129	0.433243
H259	H	0.218365	-0.431243	0.457080
H260	H	0.218382	-0.476329	0.502165
H261	H	0.226719	-0.471098	0.417214
H262	H	0.226747	-0.516189	0.462285
H263	H	0.292190	-0.517064	0.461395
H264	H	0.292168	-0.471976	0.416312
H265	H	0.300788	-0.519566	0.413806
H266	H	0.423225	-0.376108	0.456057
C267	C	0.429961	-0.535615	0.513820
C268	C	0.397490	-0.560102	0.538142
C269	C	0.422329	-0.608746	0.545270
H270	H	0.449381	-0.540295	0.483905
H271	H	0.449411	-0.547323	0.532082
H272	H	0.378048	-0.548398	0.519880
H273	H	0.378069	-0.555436	0.568062
H274	H	0.441779	-0.620455	0.563533
H275	H	0.441748	-0.613422	0.515353
H276	H	0.400301	-0.625368	0.561777
H277	H	0.129672	-0.118967	0.410356
C278	C	0.326115	-0.332774	0.484232
C279	C	0.338208	-0.307275	0.435365
C280	C	0.313347	-0.258628	0.428200
H281	H	0.292864	-0.327402	0.497490
H282	H	0.334306	-0.322441	0.499256
H283	H	0.330014	-0.317603	0.420346
H284	H	0.371455	-0.312633	0.422096
H285	H	0.321538	-0.248296	0.443224
H286	H	0.280097	-0.253261	0.441461
H287	H	0.321552	-0.241321	0.395044
C288	C	0.048266	-0.112314	0.566861
C289	C	0.073324	-0.124444	0.595424
C290	C	0.044766	-0.099610	0.627887
H291	H	0.040058	-0.079057	0.550026
H292	H	0.020104	-0.120506	0.586349
H293	H	0.101476	-0.116250	0.575938
H294	H	0.081531	-0.157697	0.612269
H295	H	0.016605	-0.107802	0.647376
H296	H	0.036560	-0.066354	0.611049
H297	H	0.061762	-0.107840	0.647274
C298	C	0.082960	-0.216275	0.601393
C299	C	0.103662	-0.265248	0.608993
C300	C	0.091744	-0.290274	0.657968
H301	H	0.094447	-0.208149	0.615401
H302	H	0.049343	-0.208162	0.615452
H303	H	0.137273	-0.273358	0.594941
H304	H	0.092179	-0.273389	0.594997
H305	H	0.058127	-0.282162	0.672027
H306	H	0.103231	-0.282144	0.671971
H307	H	0.105785	-0.323505	0.663131
C308	C	-0.031804	-0.447117	0.062205
C309	C	-0.060494	-0.422289	0.094673
C310	C	-0.072571	-0.373273	0.069830
H311	H	-0.003651	-0.438911	0.042808
H312	H	-0.048696	-0.438914	0.042730
H313	H	-0.043602	-0.430488	0.114140
H314	H	-0.088653	-0.430480	0.114071
H315	H	-0.089463	-0.365070	0.050355
H316	H	-0.044417	-0.365073	0.050434
H317	H	-0.092042	-0.356422	0.091856
H318	H	0.045284	-0.608113	0.068976
C319	C	-0.066462	-0.481770	0.166107
C320	C	-0.043995	-0.488951	0.194791
C321	C	-0.072606	-0.456597	0.219750
H322	H	-0.071228	-0.450201	0.144169
H323	H	-0.096344	-0.486528	0.185528
H324	H	-0.014121	-0.484189	0.175372
H325	H	-0.039229	-0.520514	0.216737
H326	H	-0.102488	-0.461354	0.239170
H327	H	-0.077370	-0.425030	0.197808
H328	H	-0.057368	-0.461467	0.239217
H329	H	0.015032	-0.638195	0.159378
H330	H	-0.058984	-0.490504	0.332300
H331	H	-0.028907	-0.460416	0.362542
H332	H	0.044746	-0.608091	0.436494
H333	H	0.014660	-0.638178	0.406265
H334	H	0.081021	-0.864532	0.371574
C335	C	0.059719	-0.767464	0.335021
C336	C	0.105826	-0.799990	0.332469
C337	C	0.137939	-0.775212	0.308881
H338	H	0.058557	-0.748027	0.303766
H339	H	0.051392	-0.748032	0.352012
H340	H	0.114151	-0.819414	0.315477
H341	H	0.107003	-0.819428	0.363717
H342	H	0.129612	-0.755780	0.325873
H343	H	0.136773	-0.755776	0.277629
H344	H	0.169226	-0.797277	0.307151
H345	H	-0.065262	-0.864385	0.427124
H346	H	-0.095331	-0.773979	0.396956
H347	H	-0.231954	-0.601008	0.442726
H348	H	-0.322352	-0.570775	0.472713
H349	H	-0.322118	-0.496994	0.324987
H350	H	-0.231721	-0.527215	0.295000
