data_functionalizedCrystal
_audit_creation_method	'MofGen! by Chris Wilmer'
_symmetry_space_group_name_H-M	'P1'
_symmetry_Int_Tables_number	1
_symmetry_cell_setting	triclinic
loop_
_symmetry_equiv_pos_as_xyz
  x,y,z
_cell_length_a	15.995350
_cell_length_b	8.559649
_cell_length_c	15.072220
_cell_angle_alpha	89.999502
_cell_angle_beta	90.008851
_cell_angle_gamma	103.364480
loop_
_atom_site_label
_atom_site_type_symbol
_atom_site_fract_x
_atom_site_fract_y
_atom_site_fract_z
O1	O	1.097753	-0.205949	0.073704
O2	O	0.852342	-0.231382	0.073722
O3	O	0.996668	0.013936	0.073710
O4	O	0.953426	-0.451268	0.073715
O5	O	0.996635	0.013923	-0.073855
O6	O	0.852309	-0.231396	-0.073843
O7	O	1.097720	-0.205963	-0.073861
Zn8	Zn	0.975009	-0.218681	-0.097281
Zn9	Zn	0.975052	-0.218664	0.097142
O10	O	0.953394	-0.451281	-0.073850
C11	C	0.821198	-0.230338	-0.000058
C12	C	0.728451	-0.227185	-0.000052
C13	C	0.999929	0.073459	-0.000071
C14	C	1.009683	0.250839	-0.000067
N15	N	0.974986	-0.218693	-0.229970
C16	C	0.391431	-0.215865	-0.000070
C17	C	0.450100	-0.041153	-0.000401
C18	C	0.546587	-0.044306	-0.000062
C19	C	0.558631	-0.221480	-0.000061
C20	C	0.512021	-0.307646	0.084203
C21	C	0.415667	-0.303257	0.084267
C22	C	0.415059	-0.306882	-0.083542
C23	C	0.512007	-0.306841	-0.084649
C24	C	0.653123	-0.224663	-0.000054
C25	C	0.296938	-0.212687	-0.000072
C26	C	1.128863	-0.207007	-0.000079
C27	C	1.221611	-0.210160	-0.000080
C28	C	0.950133	-0.510804	-0.000067
C29	C	0.940379	-0.688184	-0.000065
C30	C	0.975051	-0.218657	-0.589172
C31	C	0.897622	-0.349482	-0.551559
C32	C	0.897750	-0.349960	-0.448733
C33	C	0.975018	-0.218675	-0.410968
C34	C	1.060042	-0.255089	-0.448265
C35	C	1.059595	-0.256019	-0.551123
C36	C	0.968261	-0.051030	-0.551272
C37	C	0.966184	-0.052149	-0.448409
C38	C	0.975005	-0.218682	-0.310254
C39	C	0.975070	-0.218654	-0.689885
N40	N	0.975083	-0.218640	0.229831
H41	H	0.579359	0.023425	-0.060467
H42	H	0.517776	-0.437811	0.087337
Br43	Br	0.523759	-0.522194	-0.093133
H44	H	1.118442	-0.164489	-0.576002
H45	H	1.076484	0.334345	-0.000079
H46	H	0.873582	0.228319	-0.000063
Br47	Br	1.062581	0.111236	-0.591809
H48	H	0.900733	-0.473175	-0.577397
H49	H	0.375015	-0.435696	-0.084111
Br50	Br	0.791814	-0.313911	-0.406700
Br51	Br	0.791314	-0.313892	-0.592795
H52	H	0.900970	-0.474353	-0.424119
H53	H	1.067216	-0.378268	-0.575104
H54	H	0.544258	-0.247788	0.146913
Br55	Br	1.157630	-0.100496	-0.407499
Br56	Br	1.073516	-0.456521	-0.405317
H57	H	1.019740	0.049766	-0.422705
Br58	Br	0.862030	-0.006081	-0.407783
Br59	Br	0.426688	0.075240	-0.101123
Br60	Br	0.424911	0.074736	0.099752
H61	H	0.578844	0.023894	0.060446
Br62	Br	0.391905	-0.198509	0.189253
Br63	Br	0.386936	-0.211689	-0.189998
H64	H	0.908190	-0.016015	-0.577258
H65	H	0.543355	-0.243940	-0.146988
Br66	Br	0.348167	-0.517041	0.090642
