data_functionalizedCrystal
_audit_creation_method	'MofGen! by Chris Wilmer'
_symmetry_space_group_name_H-M	'P1'
_symmetry_Int_Tables_number	1
_symmetry_cell_setting	triclinic
loop_
_symmetry_equiv_pos_as_xyz
  x,y,z
_cell_length_a	24.447405
_cell_length_b	24.446649
_cell_length_c	24.443239
_cell_angle_alpha	60.006064
_cell_angle_beta	60.011844
_cell_angle_gamma	59.992812
loop_
_atom_site_label
_atom_site_type_symbol
_atom_site_fract_x
_atom_site_fract_y
_atom_site_fract_z
O1	O	0.075907	-0.799232	0.668277
O2	O	0.028634	-0.622262	0.538455
O3	O	0.140702	-0.734230	0.538349
O4	O	-0.036160	-0.687265	0.668384
O5	O	0.177886	-0.697056	0.575424
O6	O	0.065818	-0.585088	0.575530
O7	O	0.113091	-0.762059	0.705353
Cu8	Cu	0.092850	-0.670179	0.643827
Cu9	Cu	0.048876	-0.714142	0.599981
O10	O	0.001024	-0.650091	0.705459
N11	N	0.123780	-0.639263	0.674669
N12	N	0.017951	-0.745064	0.569139
C13	C	0.170236	-0.489965	0.721065
C14	C	0.170249	-0.592837	0.721058
C15	C	0.195989	-0.567121	0.746758
C16	C	0.308182	-0.547773	0.687664
C17	C	0.378316	-0.571143	0.664253
C18	C	0.378353	-0.684626	0.707525
C19	C	0.308220	-0.661254	0.730938
C20	C	0.187125	-0.454882	0.652117
C21	C	0.163710	-0.384741	0.628763
C22	C	0.106523	-0.384772	0.743308
C23	C	0.129938	-0.454913	0.766662
C24	C	0.101291	-0.575906	0.738041
C25	C	0.077897	-0.599283	0.714670
C26	C	0.192412	-0.656523	0.657348
C27	C	0.215809	-0.633146	0.680711
C28	C	0.101393	-0.575928	0.859014
C29	C	0.078071	-0.599328	0.929152
C30	C	0.192636	-0.656582	0.929078
C31	C	0.215955	-0.633184	0.858938
C32	C	0.170332	-0.592855	0.823908
C33	C	0.273137	-0.592827	0.721004
C34	C	-0.131205	-0.791294	0.522327
C35	C	-0.028388	-0.791420	0.522551
C36	C	-0.054056	-0.817099	0.496741
C37	C	-0.073479	-0.929255	0.555734
C38	C	-0.050156	-0.999396	0.579142
C39	C	0.063326	-0.999525	0.536064
C40	C	0.040001	-0.929386	0.512654
C41	C	-0.166365	-0.808188	0.591256
C42	C	-0.236499	-0.784726	0.614512
C43	C	-0.236309	-0.727482	0.499907
C44	C	-0.166175	-0.750944	0.476651
C45	C	-0.045285	-0.722468	0.505590
C46	C	-0.021951	-0.699130	0.529061
C47	C	0.035176	-0.813691	0.586439
C48	C	0.011842	-0.837031	0.562976
C49	C	-0.045097	-0.722476	0.384488
C50	C	-0.021613	-0.699140	0.314350
C51	C	0.035607	-0.813706	0.314419
C52	C	0.012124	-0.837041	0.384558
C53	C	-0.028229	-0.791425	0.419591
C54	C	-0.028402	-0.894253	0.522492
N55	N	0.412405	-0.639229	0.674505
O56	O	0.626552	-0.645384	0.514503
O57	O	0.626802	-0.775625	0.691288
O58	O	0.626698	-0.775326	0.579168
O59	O	0.626656	-0.645683	0.626623
O60	O	0.515277	-0.738265	0.616407
O61	O	0.515382	-0.738564	0.728527
O62	O	0.515131	-0.608323	0.551742
Cu63	Cu	0.505083	-0.670059	0.643535
Cu64	Cu	0.636850	-0.713889	0.599495
O65	O	0.515236	-0.608622	0.663862
N66	N	0.729529	-0.744719	0.568518
N67	N	0.123755	-0.350686	0.674680
O68	O	-0.036153	-0.136410	0.668391
O69	O	0.140633	-0.136380	0.538141
O70	O	0.028472	-0.136412	0.538488
O71	O	0.076007	-0.136377	0.668044
O72	O	0.065663	-0.247842	0.575621
O73	O	0.177823	-0.247810	0.575274
O74	O	0.001037	-0.247840	0.705524
Cu75	Cu	0.092826	-0.258000	0.643789
Cu76	Cu	0.048844	-0.126220	0.599875
O77	O	0.113198	-0.247808	0.705177
N78	N	0.017907	-0.033534	0.568986
N79	N	0.124013	-0.639306	0.963182
O80	O	0.117754	-0.799195	1.177439
O81	O	-0.012458	-0.622342	1.177485
O82	O	-0.012155	-0.734480	1.177444
O83	O	0.117450	-0.687057	1.177480
O84	O	0.024954	-0.697317	1.066020
O85	O	0.024650	-0.585179	1.066061
O86	O	0.154862	-0.762032	1.066014
Cu87	Cu	0.093145	-0.670212	1.055863
Cu88	Cu	0.049259	-0.714162	1.187636
O89	O	0.154559	-0.649894	1.066055
N90	N	0.018389	-0.745075	1.280318
C91	C	0.042795	-0.581375	0.539107
C92	C	0.181576	-0.720034	0.538975
C93	C	0.098930	-0.802946	0.704700
C94	C	-0.039851	-0.664287	0.704832
C95	C	0.571122	-0.775030	0.732180
C96	C	0.570995	-0.774660	0.593332
C97	C	0.570808	-0.608917	0.510851
C98	C	0.570939	-0.609288	0.649698
C99	C	0.181453	-0.191954	0.538725
C100	C	0.042602	-0.192131	0.539201
C101	C	-0.039829	-0.192128	0.704893
C102	C	0.099069	-0.192090	0.704464
C103	C	-0.011836	-0.581480	1.121779
C104	C	-0.011453	-0.720342	1.121706
C105	C	0.154240	-0.802894	1.121720
C106	C	0.153865	-0.664024	1.121769
H107	H	0.021932	-0.585534	0.957726
H108	H	-0.090650	-0.654278	0.745664
N109	N	0.571016	-0.828606	0.579881
H110	H	0.529748	-0.841633	0.612754
H111	H	0.612382	-0.869074	0.585134
N112	N	0.079119	-0.862905	0.276635
H113	H	0.053827	-0.891965	0.288785
H114	H	0.121240	-0.892007	0.288946
H115	H	0.232119	-0.191636	0.497733
H116	H	0.272095	-0.646975	0.830359
N117	N	0.248858	-0.733288	0.484879
H118	H	0.278771	-0.780430	0.502122
H119	H	0.270172	-0.700338	0.471899
H120	H	-0.052716	-0.530687	1.121793
H121	H	0.109031	-0.853782	0.745475
H122	H	0.064189	-0.543085	0.770891
N123	N	0.029113	-0.192220	0.485334
H124	H	-0.009770	-0.150946	0.474233
H125	H	0.017857	-0.233588	0.501893
H126	H	0.571186	-0.815915	0.782955
H127	H	-0.052152	-0.730472	1.121651
N128	N	-0.107076	-0.192143	0.759063
H129	H	-0.137044	-0.192155	0.741906
H130	H	-0.128351	-0.150832	0.772003
H131	H	0.109248	-0.192079	0.745165
H132	H	0.195123	-0.853684	1.121698
N133	N	0.570703	-0.554748	0.443604
H134	H	0.570686	-0.571926	0.413655
H135	H	0.611983	-0.541771	0.422301
N136	N	0.030325	-0.911411	0.422419
H137	H	0.059449	-0.936765	0.389581
H138	H	-0.011879	-0.923551	0.451449
H139	H	0.194582	-0.653876	1.121771
N140	N	0.570926	-0.555340	0.663139
H141	H	0.570983	-0.572725	0.710288
H142	H	0.529587	-0.514852	0.657837
H143	H	0.064236	-0.543084	0.830495
H144	H	0.229790	-0.689406	0.957592
H145	H	0.021747	-0.585481	0.728482
H146	H	0.229515	-0.689349	0.624505
H147	H	-0.129177	-0.900656	0.563750
N148	N	0.290182	-0.651401	0.662410
H149	H	0.302405	-0.609241	0.637115
H150	H	0.315455	-0.680502	0.633331
N151	N	0.270419	-0.709850	0.766901
H152	H	0.303289	-0.756744	0.769636
H153	H	0.241290	-0.697336	0.741508
H154	H	0.406920	-0.740344	0.715602
H155	H	0.279622	-0.492055	0.679573
N156	N	0.416118	-0.522552	0.628301
H157	H	0.383250	-0.475657	0.625561
H158	H	0.445192	-0.524489	0.581595
N159	N	-0.088624	-0.673278	0.422279
H160	H	-0.130754	-0.644137	0.409985
H161	H	-0.063289	-0.644256	0.410118
H162	H	0.177459	-0.356175	0.572617
N163	N	0.230589	-0.492688	0.602939
H164	H	0.205281	-0.480482	0.573857
H165	H	0.242853	-0.542433	0.628243
N166	N	0.063067	-0.346962	0.792486
H167	H	0.020912	-0.359182	0.821615
H168	H	0.050845	-0.297217	0.767178
N169	N	0.111721	-0.492758	0.841032
H170	H	0.082638	-0.459910	0.866373
H171	H	0.153921	-0.521856	0.853201
N172	N	0.029415	-0.514037	0.485097
H173	H	0.034723	-0.520184	0.444599
H174	H	0.062298	-0.492658	0.472143
N175	N	-0.039816	-0.624768	0.276501
H176	H	-0.090119	-0.603752	0.288621
H177	H	-0.018778	-0.616956	0.226765
N178	N	-0.040184	-0.624761	0.510787
H179	H	-0.069212	-0.599406	0.481619
H180	H	0.002011	-0.612617	0.485594
H181	H	-0.078038	-0.685325	0.472673
H182	H	0.025599	-0.893178	0.576787
N183	N	0.078556	-0.862891	0.630046
H184	H	0.120744	-0.892045	0.604831
H185	H	0.053154	-0.891899	0.672172
N186	N	0.088617	-0.891626	0.476800
H187	H	0.122820	-0.903868	0.435382
H188	H	0.112096	-0.903866	0.507583
N189	N	0.137104	-1.037422	0.525462
H190	H	0.163188	-1.025254	0.475896
H191	H	0.144979	-1.087155	0.545375
N192	N	-0.098770	-1.037152	0.614985
H193	H	-0.145643	-1.004252	0.617664
H194	H	-0.096902	-1.066250	0.661714
H195	H	-0.137894	-0.841050	0.628449
H196	H	-0.265127	-0.798479	0.670643
H197	H	-0.137547	-0.737181	0.420520
N198	N	-0.274033	-0.683974	0.450647
H199	H	-0.241117	-0.676840	0.403450
H200	H	-0.303118	-0.639275	0.457812
