data_functionalizedCrystal
_audit_creation_method	'MofGen! by Chris Wilmer'
_symmetry_space_group_name_H-M	'P1'
_symmetry_Int_Tables_number	1
_symmetry_cell_setting	triclinic
loop_
_symmetry_equiv_pos_as_xyz
  x,y,z
_cell_length_a	6.817900
_cell_length_b	13.167930
_cell_length_c	11.102193
_cell_angle_alpha	97.926429
_cell_angle_beta	108.604059
_cell_angle_gamma	105.754568
loop_
_atom_site_label
_atom_site_type_symbol
_atom_site_fract_x
_atom_site_fract_y
_atom_site_fract_z
V1	V	-4.107360	-0.148902	-0.413817
O2	O	-4.070747	0.007147	-0.387871
O3	O	-4.080054	-0.295240	-0.428365
O4	O	-4.084198	-0.146615	-0.586369
O5	O	-4.066574	-0.142507	-0.228773
V6	V	-4.584984	-0.130236	-0.389574
O7	O	-4.381558	-0.189847	-0.466998
O8	O	-4.760984	-0.089292	-0.336393
O9	O	-4.389084	0.016102	-0.375026
O10	O	-4.738995	-0.286286	-0.415520
O11	O	-4.743167	-0.136632	-0.574618
O12	O	-4.384940	-0.132523	-0.217022
C13	C	-3.929370	-0.330914	-0.426321
C14	C	-3.988499	-0.450548	-0.439365
C15	C	-3.980162	-0.644611	-0.227456
C16	C	-4.035716	-0.757017	-0.239706
C17	C	-4.155177	-0.787766	-0.476115
C18	C	-4.099623	-0.675361	-0.463865
C19	C	-4.012112	-0.603787	-0.339531
C20	C	-3.956543	-0.491379	-0.327281
C21	C	-4.076018	-0.522131	-0.563690
C22	C	-4.131573	-0.634536	-0.575941
C23	C	-3.934655	-0.141327	-0.627869
C24	C	-3.997140	-0.140425	-0.769046
C25	C	-4.111969	-0.337534	-0.828618
C26	C	-4.198731	-0.435660	-0.924726
C27	C	-4.257441	-0.434807	-1.057371
C28	C	-4.229391	-0.335817	-1.093908
C29	C	-4.142629	-0.237691	-0.997800
C30	C	-4.083918	-0.238555	-0.865155
C31	C	-4.027815	-0.040585	-0.938229
C32	C	-3.969090	-0.041435	-0.805583
C33	C	-3.999765	0.058405	-0.974767
C34	C	-3.912987	0.156534	-0.878657
C35	C	-3.854274	0.155677	-0.746005
C36	C	-3.882328	0.056691	-0.709475
C37	C	-4.203110	0.051770	-0.377067
C38	C	-4.123221	0.171402	-0.364031
C39	C	-4.197825	-0.137815	-0.175516
C40	C	-4.114577	-0.138711	-0.034337
H41	H	-4.226465	-0.846061	-0.577343
C42	C	-4.229602	-0.544544	-0.884538
H43	H	-4.289704	-0.602861	-0.960776
H44	H	-4.091467	-0.545541	-0.829484
H45	H	-4.326733	-0.552412	-0.838583
H46	H	-4.328092	-0.514710	-1.135625
H47	H	-4.277227	-0.335132	-1.201919
C48	C	-4.064338	0.059345	-1.120672
H49	H	-4.120006	-0.013270	-1.172679
H50	H	-4.174044	0.092495	-1.144230
H51	H	-3.938767	0.099381	-1.135123
H52	H	-3.890171	0.237123	-0.908420
C53	C	-4.047365	-0.338470	-0.682711
H54	H	-3.991660	-0.265853	-0.630705
H55	H	-4.172899	-0.378509	-0.668239
H56	H	-3.937635	-0.371615	-0.659166
C57	C	-3.883925	-0.565879	-0.090699
H58	H	-3.872868	-0.606293	-0.025704
H59	H	-3.742150	-0.517875	-0.076523
H60	H	-3.977431	-0.524908	-0.085495
H61	H	-3.783639	0.235583	-0.667759
H62	H	-4.202838	-0.692827	-0.677170
C63	C	-3.817747	0.055749	-0.563570
H64	H	-3.762046	0.128365	-0.511560
H65	H	-3.943295	0.015710	-0.549112
H66	H	-3.708022	0.022602	-0.540019
C67	C	-3.860287	-0.412645	-0.190525
H68	H	-3.831756	-0.339851	-0.199276
H69	H	-3.962476	-0.428256	-0.148442
H70	H	-3.727214	-0.421245	-0.139491
H71	H	-4.009696	-0.790251	-0.148442
H72	H	-4.102024	-0.488881	-0.654950
