data_functionalizedCrystal
_audit_creation_method	'MofGen! by Chris Wilmer'
_symmetry_space_group_name_H-M	'P1'
_symmetry_Int_Tables_number	1
_symmetry_cell_setting	triclinic
loop_
_symmetry_equiv_pos_as_xyz
  x,y,z
_cell_length_a	13.033291
_cell_length_b	12.759393
_cell_length_c	13.032268
_cell_angle_alpha	82.846864
_cell_angle_beta	89.079236
_cell_angle_gamma	82.814779
loop_
_atom_site_label
_atom_site_type_symbol
_atom_site_fract_x
_atom_site_fract_y
_atom_site_fract_z
Zn1	Zn	1.498475	0.326864	-0.781507
Zn2	Zn	1.520224	0.477846	-0.609546
Zn3	Zn	1.348335	0.321316	-0.587683
Zn4	Zn	1.326476	0.521643	-0.759590
O5	O	1.423378	0.411917	-0.684582
O6	O	1.645278	0.330884	-0.777019
O7	O	1.515672	0.436430	-0.462736
O8	O	1.368298	0.175028	-0.613416
O9	O	1.661257	0.441810	-0.650680
O10	O	1.478605	0.179104	-0.755818
O11	O	1.389387	0.321428	-0.446673
O12	O	1.201517	0.363897	-0.592164
O13	O	1.331042	0.516457	-0.906408
O14	O	1.185458	0.511077	-0.718464
O15	O	1.457409	0.373353	-0.922510
O16	O	1.494477	0.630680	-0.629428
O17	O	1.352131	0.662858	-0.739664
C18	C	1.156171	0.441639	-0.650564
C19	C	1.041856	0.454382	-0.636035
C20	C	1.423317	0.684890	-0.684566
C21	C	1.423381	0.801664	-0.684606
C22	C	0.864823	0.418455	-0.677157
C23	C	0.982974	0.405286	-0.692172
C24	C	1.571691	0.768107	-0.569928
C25	C	1.645871	0.806188	-0.512608
C26	C	1.645927	0.915908	-0.512650
C27	C	1.571797	0.987551	-0.570022
C28	C	1.497617	0.949470	-0.627342
C29	C	1.497567	0.839745	-0.627290
C30	C	1.349312	0.983026	-0.742024
C31	C	1.349250	0.873307	-0.741977
C32	C	1.275182	1.054669	-0.799396
C33	C	1.200996	1.016588	-0.856711
C34	C	1.200942	0.906861	-0.856665
C35	C	1.275070	0.835225	-0.799297
C36	C	1.691627	0.382080	-0.718733
C37	C	1.805940	0.369366	-0.733286
C38	C	1.389361	0.450409	-0.952816
C39	C	1.374866	0.466812	-1.067122
C40	C	1.423462	1.137880	-0.684639
C41	C	1.423493	1.021108	-0.684704
C42	C	1.430927	0.403320	-1.126050
C43	C	1.415946	0.420272	-1.244191
C44	C	1.457321	0.373492	-0.417398
C45	C	1.472015	0.356771	-0.303118
H46	H	0.827766	0.470227	-0.617982
H47	H	1.020028	0.353500	-0.751342
F48	F	1.297628	0.554263	-1.115494
F49	F	1.549263	0.269320	-1.254754
H50	H	1.004804	0.506164	-0.576860
F51	F	0.854372	0.301681	-0.810623
F52	F	1.571835	0.651339	-0.570132
F53	F	1.724766	0.729935	-0.451556
H54	H	1.356849	0.487178	-1.281199
H55	H	1.706335	0.946913	-0.465981
H56	H	1.275237	1.144008	-0.799431
F57	F	1.571563	1.104312	-0.569680
H58	H	1.275028	0.745883	-0.799247
H59	H	1.490010	0.336409	-1.089037
F60	F	1.122116	1.092839	-0.917770
H61	H	1.140539	0.875863	-0.903347
