data_functionalizedCrystal
_audit_creation_method	'MofGen! by Chris Wilmer'
_symmetry_space_group_name_H-M	'P1'
_symmetry_Int_Tables_number	1
_symmetry_cell_setting	triclinic
loop_
_symmetry_equiv_pos_as_xyz
  x,y,z
_cell_length_a	19.288864
_cell_length_b	10.654550
_cell_length_c	18.366186
_cell_angle_alpha	89.994973
_cell_angle_beta	89.977106
_cell_angle_gamma	83.810575
loop_
_atom_site_label
_atom_site_type_symbol
_atom_site_fract_x
_atom_site_fract_y
_atom_site_fract_z
O1	O	0.922379	0.156657	-0.060782
O2	O	0.720256	0.177789	-0.060732
O3	O	0.825965	-0.015616	-0.060755
O4	O	0.816670	0.350062	-0.060758
O5	O	0.825946	-0.015625	0.060344
O6	O	0.720238	0.177780	0.060368
O7	O	0.922360	0.156647	0.060318
Zn8	Zn	0.821296	0.167212	0.079570
Zn9	Zn	0.821320	0.167224	-0.079984
O10	O	0.816652	0.350052	0.060341
C11	C	0.694366	0.177105	-0.000176
C12	C	0.617249	0.175063	-0.000156
C13	C	0.573296	0.288545	-0.000169
C14	C	0.500836	0.286627	-0.000177
C15	C	0.472333	0.171222	-0.000187
C16	C	0.516296	0.057725	-0.000171
C17	C	0.588754	0.059646	-0.000155
C18	C	0.363484	0.080503	-0.042637
C19	C	0.291027	0.078587	-0.042657
C20	C	0.248849	0.165292	-0.000231
C21	C	0.279136	0.253935	0.042205
C22	C	0.351594	0.255855	0.042221
C23	C	0.393766	0.169126	-0.000203
C24	C	0.126326	0.276702	-0.000251
C25	C	0.053865	0.274779	-0.000255
C26	C	0.069327	0.045875	-0.000256
C27	C	0.141786	0.047800	-0.000245
C28	C	0.170281	0.163217	-0.000246
C29	C	0.825273	-0.062404	-0.000206
C30	C	0.823231	-0.201803	-0.000208
C31	C	0.885471	-0.282621	-0.000221
C32	C	0.883548	-0.413601	-0.000226
C33	C	0.757141	-0.382932	-0.000201
C34	C	0.759065	-0.251955	-0.000202
C35	C	0.958451	-0.300329	-0.000232
C36	C	0.956528	-0.431309	-0.000237
C37	C	0.948250	0.157332	-0.000240
C38	C	1.025367	0.159373	-0.000264
C39	C	0.817344	0.396840	-0.000209
C40	C	0.819385	0.536240	-0.000212
N41	N	0.821285	0.167203	0.188461
N42	N	0.821337	0.167224	-0.188875
C43	C	0.868108	0.081605	0.226551
C44	C	0.868113	0.081599	0.302779
C45	C	0.821300	0.167213	0.340914
C46	C	0.774468	0.252817	0.302815
C47	C	0.774461	0.252812	0.226588
C48	C	0.812752	0.281634	0.461675
C49	C	0.812764	0.281641	0.537899
C50	C	0.821320	0.167229	0.576021
C51	C	0.829879	0.052804	0.537909
C52	C	0.829871	0.052799	0.461682
C53	C	0.821303	0.167228	0.423569
C54	C	0.868151	0.081618	0.696766
C55	C	0.868151	0.081610	0.772995
C56	C	0.774509	0.252840	0.773030
C57	C	0.774507	0.252836	0.696802
C58	C	0.821331	0.167226	0.658675
H59	H	0.244796	0.324537	0.076753
H60	H	0.704899	-0.423782	-0.000196
H61	H	0.906234	0.011894	0.195510
O62	O	0.006452	0.397182	-0.000265
H63	H	0.038444	0.477756	-0.000270
O64	O	0.918622	-0.010726	0.343870
H65	H	0.910758	0.003659	0.403281
H66	H	0.836838	-0.040369	0.430654
O67	O	0.691933	-0.164790	-0.000198
H68	H	0.704048	-0.065287	-0.000207
O69	O	0.996261	-0.262223	-0.067370
H70	H	1.013241	-0.347440	-0.100243
H71	H	0.736391	0.322543	0.804079
O72	O	0.723980	0.345168	0.343939
H73	H	0.731857	0.330803	0.403344
H74	H	0.149528	0.370681	-0.000241
O75	O	0.985749	-0.492412	-0.069500
H76	H	1.030987	-0.562039	-0.056197
H77	H	0.046120	-0.048091	-0.000309
O78	O	0.839102	-0.070613	0.579012
H79	H	0.837660	-0.051393	0.638419
H80	H	0.981682	-0.265204	0.052050
O81	O	0.992930	-0.487426	0.066885
H82	H	1.012269	-0.411024	0.099754
H83	H	0.906276	0.011905	0.665722
H84	H	0.736331	0.322517	0.195575
O85	O	0.189200	-0.074597	-0.000238
H86	H	0.157209	-0.155171	-0.000251
O87	O	0.918662	-0.010704	0.814084
H88	H	0.951226	-0.070217	0.774763
H89	H	0.736381	0.322543	0.665787
O90	O	0.803548	0.405048	0.579006
H91	H	0.797587	0.484605	0.539693
O92	O	0.453423	0.409036	-0.000193
H93	H	0.420017	0.413644	0.049161
O94	O	0.803513	0.405056	0.420572
H95	H	0.756255	0.408159	0.385879
H96	H	0.596492	0.382526	-0.000171
O97	O	0.485560	-0.066752	-0.000182
H98	H	0.427791	-0.049024	-0.000202
H99	H	0.376250	0.328027	0.076776
O100	O	0.636168	-0.062756	-0.000142
H101	H	0.626000	-0.118002	-0.049503
O102	O	0.258361	-0.017026	-0.088415
H103	H	0.299863	-0.077017	-0.117899
H104	H	0.397820	0.009895	-0.077190
