data_functionalizedCrystal
_audit_creation_method	'MofGen! by Chris Wilmer'
_symmetry_space_group_name_H-M	'P1'
_symmetry_Int_Tables_number	1
_symmetry_cell_setting	triclinic
loop_
_symmetry_equiv_pos_as_xyz
  x,y,z
_cell_length_a	18.215407
_cell_length_b	18.101397
_cell_length_c	18.215399
_cell_angle_alpha	90.027938
_cell_angle_beta	90.017813
_cell_angle_gamma	90.014279
loop_
_atom_site_label
_atom_site_type_symbol
_atom_site_fract_x
_atom_site_fract_y
_atom_site_fract_z
Zn1	Zn	1.125098	-0.294946	0.416076
Zn2	Zn	1.375098	-0.044946	0.666076
Zn3	Zn	1.625098	0.205054	0.916076
Zn4	Zn	1.875098	0.455054	1.166076
Zn5	Zn	1.125017	-0.418792	0.293010
Zn6	Zn	1.375017	-0.168792	0.543010
Zn7	Zn	1.625017	0.081208	0.793010
Zn8	Zn	1.875017	0.331208	1.043010
Zn9	Zn	1.002031	-0.294957	0.293028
Zn10	Zn	1.252031	-0.044957	0.543028
Zn11	Zn	1.502031	0.205043	0.793028
Zn12	Zn	1.752031	0.455043	1.043028
Zn13	Zn	1.002008	-0.418738	0.416039
Zn14	Zn	1.252008	-0.168738	0.666039
Zn15	Zn	1.502008	0.081262	0.916039
Zn16	Zn	1.752008	0.331262	1.166039
O17	O	1.063538	-0.356858	0.354538
O18	O	1.313538	-0.106858	0.604538
O19	O	1.563538	0.143142	0.854538
O20	O	1.813538	0.393142	1.104538
O21	O	1.228072	-0.311392	0.399759
O22	O	1.478072	-0.061392	0.649759
O23	O	1.728072	0.188608	0.899759
O24	O	1.978072	0.438608	1.149759
O25	O	1.108679	-0.402392	0.190028
O26	O	1.358679	-0.152392	0.440028
O27	O	1.608679	0.097608	0.690028
O28	O	1.858679	0.347608	0.940028
O29	O	1.018399	-0.191323	0.309374
O30	O	1.268399	0.058677	0.559374
O31	O	1.518399	0.308677	0.809374
O32	O	1.768399	0.558677	1.059374
O33	O	1.228012	-0.402381	0.309343
O34	O	1.478012	-0.152381	0.559343
O35	O	1.728012	0.097619	0.809343
O36	O	1.978012	0.347619	1.059343
O37	O	1.108816	-0.191314	0.399777
O38	O	1.358816	0.058686	0.649777
O39	O	1.608816	0.308686	0.899777
O40	O	1.858816	0.558686	1.149777
O41	O	1.018321	-0.311411	0.190041
O42	O	1.268321	-0.061411	0.440041
O43	O	1.518321	0.188589	0.690041
O44	O	1.768321	0.438589	0.940041
O45	O	0.899043	-0.311359	0.309338
O46	O	1.149043	-0.061359	0.559338
O47	O	1.399043	0.188641	0.809338
O48	O	1.649043	0.438641	1.059338
O49	O	1.018360	-0.402289	0.519028
O50	O	1.268360	-0.152289	0.769028
O51	O	1.518360	0.097711	1.019028
O52	O	1.768360	0.347711	1.269028
O53	O	0.899026	-0.402300	0.399714
O54	O	1.149026	-0.152300	0.649714
O55	O	1.399026	0.097700	0.899714
O56	O	1.649026	0.347700	1.149714
O57	O	1.108794	-0.311340	0.519056
O58	O	1.358794	-0.061340	0.769056
O59	O	1.608794	0.188660	1.019056
O60	O	1.858794	0.438660	1.269056
O61	O	1.108657	-0.522418	0.309307
O62	O	1.358657	-0.272418	0.559307
O63	O	1.608657	-0.022418	0.809307
O64	O	1.858657	0.227582	1.059307
O65	O	1.018282	-0.522378	0.399696
O66	O	1.268282	-0.272378	0.649696
O67	O	1.518282	-0.022378	0.899696
O68	O	1.768282	0.227622	1.149696
C69	C	0.872332	-0.356826	0.354524
C70	C	1.122332	-0.106826	0.604524
C71	C	1.372332	0.143174	0.854524
C72	C	1.622332	0.393174	1.104524
C73	C	0.790533	-0.356829	0.354535
C74	C	1.040533	-0.106829	0.604535
C75	C	1.290533	0.143171	0.854535
C76	C	1.540533	0.393171	1.104535
C77	C	0.525501	-0.309571	0.401693
C78	C	0.775501	-0.059571	0.651693
C79	C	1.025501	0.190429	0.901693
C80	C	1.275501	0.440429	1.151693
C81	C	0.602360	-0.309559	0.401691
C82	C	0.852360	-0.059559	0.651691
C83	C	1.102360	0.190441	0.901691
C84	C	1.352360	0.440441	1.151691
C85	C	0.602317	-0.404169	0.307400
C86	C	0.852317	-0.154169	0.557400
C87	C	1.102317	0.095831	0.807400
C88	C	1.352317	0.345831	1.057400
C89	C	0.525460	-0.404184	0.307406
C90	C	0.775460	-0.154184	0.557406
C91	C	1.025460	0.095816	0.807406
C92	C	1.275460	0.345816	1.057406
C93	C	0.487054	-0.356881	0.354552
C94	C	0.737054	-0.106881	0.604552
C95	C	0.987054	0.143119	0.854552
C96	C	1.237054	0.393119	1.104552
C97	C	0.640770	-0.356854	0.354543
C98	C	0.890770	-0.106854	0.604543
C99	C	1.140770	0.143146	0.854543
C100	C	1.390770	0.393146	1.104543
C101	C	0.724103	-0.356841	0.354540
C102	C	0.974103	-0.106841	0.604540
C103	C	1.224103	0.143159	0.854540
C104	C	1.474103	0.393159	1.104540
C105	C	0.403715	-0.356895	0.354556
C106	C	0.653715	-0.106895	0.604556
C107	C	0.903715	0.143105	0.854556
C108	C	1.153715	0.393105	1.104556
C109	C	1.063478	-0.549269	0.354512
C110	C	1.313478	-0.299269	0.604512
C111	C	1.563478	-0.049269	0.854512
C112	C	1.813478	0.200731	1.104512
C113	C	1.063519	-0.631583	0.354525
C114	C	1.313519	-0.381583	0.604525
C115	C	1.563519	-0.131583	0.854525
C116	C	1.813519	0.118417	1.104525
C117	C	1.063564	-0.782291	0.354550
C118	C	1.313564	-0.532291	0.604550
C119	C	1.563564	-0.282291	0.854550
C120	C	1.813564	-0.032291	1.104550
C121	C	1.120481	-0.813639	0.297735
C122	C	1.370481	-0.563639	0.547735
C123	C	1.620481	-0.313639	0.797735
C124	C	1.870481	-0.063639	1.047735
C125	C	1.120340	-0.899257	0.297526
C126	C	1.370340	-0.649257	0.547526
C127	C	1.620340	-0.399257	0.797526
C128	C	1.870340	-0.149257	1.047526
C129	C	1.063609	-0.930674	0.354574
C130	C	1.313609	-0.680674	0.604574
C131	C	1.563609	-0.430674	0.854574
C132	C	1.813609	-0.180674	1.104574
C133	C	0.985996	-0.899650	0.333701
C134	C	1.235996	-0.649650	0.583701
C135	C	1.485996	-0.399650	0.833701
C136	C	1.735996	-0.149650	1.083701
C137	C	0.986299	-0.814005	0.333275
C138	C	1.236299	-0.564005	0.583275
C139	C	1.486299	-0.314005	0.833275
C140	C	1.736299	-0.064005	1.083275
C141	C	1.083591	-0.813788	0.432386
C142	C	1.333591	-0.563788	0.682386
C143	C	1.583591	-0.313788	0.932386
C144	C	1.833591	-0.063788	1.182386
C145	C	1.085328	-0.899438	0.431986
C146	C	1.335328	-0.649438	0.681986
C147	C	1.585328	-0.399438	0.931986
C148	C	1.835328	-0.149438	1.181986
C149	C	1.063630	-1.014533	0.354590
C150	C	1.313630	-0.764533	0.604590
C151	C	1.563630	-0.514533	0.854590
C152	C	1.813630	-0.264533	1.104590
C153	C	1.063538	-0.698432	0.354533
C154	C	1.313538	-0.448432	0.604533
C155	C	1.563538	-0.198432	0.854533
C156	C	1.813538	0.051568	1.104533
C157	C	1.255491	-0.356891	0.354553
C158	C	1.505491	-0.106891	0.604553
C159	C	1.755491	0.143109	0.854553
C160	C	2.005491	0.393109	1.104553
C161	C	1.337290	-0.356906	0.354560
C162	C	1.587290	-0.106906	0.604560
C163	C	1.837290	0.143094	0.854560
C164	C	2.087290	0.393094	1.104560
C165	C	1.063583	-0.356807	0.546491
C166	C	1.313583	-0.106807	0.796491
C167	C	1.563583	0.143193	1.046491
C168	C	1.813583	0.393193	1.296491
C169	C	1.063602	-0.356785	0.628290
C170	C	1.313602	-0.106785	0.878290
C171	C	1.563602	0.143215	1.128290
C172	C	1.813602	0.393215	1.378290
C173	C	1.063619	-0.163696	0.354581
C174	C	1.313619	0.086304	0.604581
C175	C	1.563619	0.336304	0.854581
C176	C	1.813619	0.586304	1.104581
C177	C	1.063654	-0.081382	0.354599
C178	C	1.313654	0.168618	0.604599
C179	C	1.563654	0.418618	0.854599
C180	C	1.813654	0.668618	1.104599
C181	C	1.063536	-0.356856	0.163332
C182	C	1.313536	-0.106856	0.413332
C183	C	1.563536	0.143144	0.663332
C184	C	1.813536	0.393144	0.913332
C185	C	1.063660	-0.356669	0.081534
C186	C	1.313660	-0.106669	0.331534
C187	C	1.563660	0.143331	0.581534
C188	C	1.813660	0.393331	0.831534
C189	C	1.110708	-0.309384	0.816500
C190	C	1.360708	-0.059384	1.066500
C191	C	1.610708	0.190616	1.316500
C192	C	1.860708	0.440616	1.566500
C193	C	1.110717	-0.309362	0.893358
C194	C	1.360717	-0.059362	1.143358
C195	C	1.610717	0.190638	1.393358
C196	C	1.860717	0.440638	1.643358
C197	C	1.016548	-0.404073	0.893319
C198	C	1.266548	-0.154073	1.143319
C199	C	1.516548	0.095927	1.393319
C200	C	1.766548	0.345927	1.643319
C201	C	1.016537	-0.404090	0.816461
C202	C	1.266537	-0.154090	1.066461
C203	C	1.516537	0.095910	1.316461
C204	C	1.766537	0.345910	1.566461
C205	C	1.063621	-0.356746	0.778054
C206	C	1.313621	-0.106746	1.028054
C207	C	1.563621	0.143254	1.278054
C208	C	1.813621	0.393254	1.528054
C209	C	1.063641	-0.356708	0.931770
C210	C	1.313641	-0.106708	1.181770
C211	C	1.563641	0.143292	1.431770
C212	C	1.813641	0.393292	1.681770
C213	C	1.063651	-0.356685	1.015104
C214	C	1.313651	-0.106685	1.265104
C215	C	1.563651	0.143315	1.515104
C216	C	1.813651	0.393315	1.765104
C217	C	1.063611	-0.356768	0.694715
C218	C	1.313611	-0.106768	0.944715
C219	C	1.563611	0.143232	1.194715
C220	C	1.813611	0.393232	1.444715
H221	H	0.633660	-0.271035	0.440079
H222	H	0.883660	-0.021035	0.690079
H223	H	1.133660	0.228965	0.940079
H224	H	1.383660	0.478965	1.190079
H225	H	0.968769	-0.921152	0.277442
H226	H	1.218769	-0.671152	0.527442
H227	H	1.468769	-0.421152	0.777442
H228	H	1.718769	-0.171152	1.027442
C229	C	1.162489	-0.257299	0.774254
C230	C	1.412489	-0.007299	1.024254
C231	C	1.662489	0.242701	1.274254
C232	C	1.912489	0.492701	1.524254
H233	H	1.190528	-0.229083	0.808161
H234	H	1.440528	0.020917	1.058161
H235	H	1.690528	0.270917	1.308161
H236	H	1.940528	0.520917	1.558161
H237	H	1.194542	-0.285633	0.744266
H238	H	1.444542	-0.035633	0.994266
H239	H	1.694542	0.214367	1.244266
H240	H	1.944542	0.464367	1.494266
H241	H	1.134336	-0.225033	0.744279
H242	H	1.384336	0.024967	0.994279
H243	H	1.634336	0.274967	1.244279
H244	H	1.884336	0.524967	1.494279
C245	C	1.162520	-0.257272	0.935649
C246	C	1.412520	-0.007272	1.185649
C247	C	1.662520	0.242728	1.435649
C248	C	1.912520	0.492728	1.685649
H249	H	1.155783	-0.264037	0.986924
H250	H	1.405783	-0.014037	1.236924
H251	H	1.655783	0.235963	1.486924
H252	H	1.905783	0.485963	1.736924
H253	H	1.211959	-0.268127	0.923056
H254	H	1.461959	-0.018127	1.173056
H255	H	1.711959	0.231873	1.423056
H256	H	1.961959	0.481873	1.673056
H257	H	1.151770	-0.207511	0.923065
H258	H	1.401770	0.042489	1.173065
H259	H	1.651770	0.292489	1.423065
H260	H	1.901770	0.542489	1.673065
H261	H	0.978216	-0.442620	0.924600
H262	H	1.228216	-0.192620	1.174600
H263	H	1.478216	0.057380	1.424600
H264	H	1.728216	0.307380	1.674600
H265	H	0.978187	-0.442658	0.785158
H266	H	1.228187	-0.192658	1.035158
H267	H	1.478187	0.057342	1.285158
H268	H	1.728187	0.307342	1.535158
C269	C	0.927155	-0.927139	0.387887
C270	C	1.177155	-0.677139	0.637887
C271	C	1.427155	-0.427139	0.887887
C272	C	1.677155	-0.177139	1.137887
H273	H	0.880660	-0.907725	0.374253
H274	H	1.130660	-0.657725	0.624253
H275	H	1.380660	-0.407725	0.874253
H276	H	1.630660	-0.157725	1.124253
H277	H	0.925345	-0.979575	0.386768
H278	H	1.175345	-0.729575	0.636768
H279	H	1.425345	-0.479575	0.886768
H280	H	1.675345	-0.229575	1.136768
H281	H	0.939157	-0.911063	0.436074
H282	H	1.189157	-0.661063	0.686074
H283	H	1.439157	-0.411063	0.936074
H284	H	1.689157	-0.161063	1.186074
H285	H	0.494233	-0.271054	0.440082
H286	H	0.744233	-0.021054	0.690082
H287	H	0.994233	0.228946	0.940082
H288	H	1.244233	0.478946	1.190082
C289	C	0.927050	-0.785989	0.386761
C290	C	1.177050	-0.535989	0.636761
C291	C	1.427050	-0.285989	0.886761
C292	C	1.677050	-0.035989	1.136761
H293	H	0.902897	-0.826952	0.408649
H294	H	1.152897	-0.576952	0.658649
H295	H	1.402897	-0.326952	0.908649
H296	H	1.652897	-0.076952	1.158649
H297	H	0.949397	-0.756790	0.423912
H298	H	1.199397	-0.506790	0.673912
H299	H	1.449397	-0.256790	0.923912
H300	H	1.699397	-0.006790	1.173912
H301	H	0.892293	-0.756951	0.360711
H302	H	1.142293	-0.506951	0.610711
H303	H	1.392293	-0.256951	0.860711
H304	H	1.642293	-0.006951	1.110711
H305	H	0.633597	-0.442680	0.269014
H306	H	0.883597	-0.192680	0.519014
H307	H	1.133597	0.057320	0.769014
H308	H	1.383597	0.307320	1.019014
H309	H	0.494155	-0.442714	0.269018
H310	H	0.744155	-0.192714	0.519018
H311	H	0.994155	0.057286	0.769018
H312	H	1.244155	0.307286	1.019018
H313	H	1.107374	-0.792163	0.240390
H314	H	1.357374	-0.542163	0.490390
H315	H	1.607374	-0.292163	0.740390
H316	H	1.857374	-0.042163	0.990390
H317	H	1.177885	-0.920231	0.310563
H318	H	1.427885	-0.670231	0.560563
H319	H	1.677885	-0.420231	0.810563
H320	H	1.927885	-0.170231	1.060563
H321	H	1.178194	-0.793005	0.310621
H322	H	1.428194	-0.543005	0.560621
H323	H	1.678194	-0.293005	0.810621
H324	H	1.928194	-0.043005	1.060621
C325	C	0.963410	-0.787082	0.256423
C326	C	1.213410	-0.537082	0.506423
C327	C	1.463410	-0.287082	0.756423
C328	C	1.713410	-0.037082	1.006423
H329	H	0.963389	-0.734607	0.255486
H330	H	1.213389	-0.484607	0.505486
H331	H	1.463389	-0.234607	0.755486
H332	H	1.713389	0.015393	1.005486
H333	H	0.997144	-0.805217	0.220977
H334	H	1.247144	-0.555217	0.470977
H335	H	1.497144	-0.305217	0.720977
H336	H	1.747144	-0.055217	0.970977
H337	H	0.915565	-0.804806	0.245398
H338	H	1.165565	-0.554806	0.495398
H339	H	1.415565	-0.304806	0.745398
H340	H	1.665565	-0.054806	0.995398
H341	H	1.139209	-0.792138	0.451411
H342	H	1.389209	-0.542138	0.701411
H343	H	1.639209	-0.292138	0.951411
H344	H	1.889209	-0.042138	1.201411
C345	C	1.102416	-0.927014	0.219630
C346	C	1.352416	-0.677014	0.469630
C347	C	1.602416	-0.427014	0.719630
C348	C	1.852416	-0.177014	0.969630
H349	H	1.102273	-0.979497	0.219235
H350	H	1.352273	-0.729497	0.469235
H351	H	1.602273	-0.479497	0.719235
H352	H	1.852273	-0.229497	0.969235
H353	H	1.055463	-0.909297	0.205321
H354	H	1.305463	-0.659297	0.455321
H355	H	1.555463	-0.409297	0.705321
H356	H	1.805463	-0.159297	0.955321
H357	H	1.138465	-0.909380	0.186276
H358	H	1.388465	-0.659380	0.436276
H359	H	1.638465	-0.409380	0.686276
H360	H	1.888465	-0.159380	0.936276
C361	C	1.162342	-0.927109	0.453412
C362	C	1.412342	-0.677109	0.703412
C363	C	1.662342	-0.427109	0.953412
C364	C	1.912342	-0.177109	1.203412
H365	H	1.181201	-0.957544	0.415330
H366	H	1.431201	-0.707544	0.665330
H367	H	1.681201	-0.457544	0.915330
H368	H	1.931201	-0.207544	1.165330
H369	H	1.194090	-0.886099	0.460613
H370	H	1.444090	-0.636099	0.710613
H371	H	1.694090	-0.386099	0.960613
H372	H	1.944090	-0.136099	1.210613
H373	H	1.159199	-0.954859	0.497553
H374	H	1.409199	-0.704859	0.747553
H375	H	1.659199	-0.454859	0.997553
H376	H	1.909199	-0.204859	1.247553
H377	H	1.046926	-0.920819	0.476576
H378	H	1.296926	-0.670819	0.726576
H379	H	1.546926	-0.420819	0.976576
H380	H	1.796926	-0.170819	1.226576
C381	C	1.027599	-0.786395	0.489572
C382	C	1.277599	-0.536395	0.739572
C383	C	1.527599	-0.286395	0.989572
C384	C	1.777599	-0.036395	1.239572
H385	H	0.992188	-0.755910	0.466167
H386	H	1.242188	-0.505910	0.716167
H387	H	1.492188	-0.255910	0.966167
H388	H	1.742188	-0.005910	1.216167
H389	H	1.003756	-0.827570	0.511393
H390	H	1.253756	-0.577570	0.761393
H391	H	1.503756	-0.327570	1.011393
H392	H	1.753756	-0.077570	1.261393
H393	H	1.052313	-0.758786	0.526429
H394	H	1.302313	-0.508786	0.776429
H395	H	1.552313	-0.258786	1.026429
H396	H	1.802313	-0.008786	1.276429
